4GII_0X6_A_1201


 27 29  0  0  0  0  0  0  0  0999 V2000
   -5.7475   -6.6615  -15.9356 C   0  0  0  0  0  0  0  0  0  0  0  0
   -5.9634   -5.5086  -16.6144 N   0  0  0  0  0  0  0  0  0  0  0  0
   -4.6565   -6.9963  -15.5011 O   0  0  0  0  0  0  0  0  0  0  0  0
   -6.8932   -5.3542  -16.8987 H   0  0  0  0  0  0  0  0  0  0  0  0
   -8.8125   -8.2624  -14.4095 C   0  0  0  0  0  0  0  0  0  0  0  0
   -7.1949   -8.5515  -16.6792 C   0  0  0  0  0  0  0  0  0  0  0  0
   -6.9062   -7.5581  -15.7252 C   0  0  0  0  0  0  0  0  0  0  0  0
   -8.2719   -9.3978  -16.4894 C   0  0  0  0  0  0  0  0  0  0  0  0
   -9.0849   -9.2598  -15.3567 C   0  0  0  0  0  0  0  0  0  0  0  0
   -7.7336   -7.4143  -14.5946 C   0  0  0  0  0  0  0  0  0  0  0  0
   -7.4302   -6.1743  -13.4248 Cl  0  0  0  0  0  0  0  0  0  0  0  0
   -6.2095   -8.7203  -18.0994 Cl  0  0  0  0  0  0  0  0  0  0  0  0
  -10.1977  -10.1345  -15.1618 C   0  0  0  0  0  0  0  0  0  0  0  0
  -11.0746  -10.8366  -15.0083 N   0  0  0  0  0  0  0  0  0  0  0  0
   -4.4567   -2.1619  -16.7983 C   0  0  0  0  0  0  0  0  0  0  0  0
   -5.3065   -3.2219  -16.4753 C   0  0  0  0  0  0  0  0  0  0  0  0
   -5.0505   -4.5028  -16.9702 C   0  0  0  0  0  0  0  0  0  0  0  0
   -3.4288   -2.3731  -17.6240 N   0  0  0  0  0  0  0  0  0  0  0  0
   -3.9541   -4.6664  -17.8406 C   0  0  0  0  0  0  0  0  0  0  0  0
   -3.1587   -3.5687  -18.1409 C   0  0  0  0  0  0  0  0  0  0  0  0
   -4.6675   -0.8666  -16.2965 N   0  0  0  0  0  0  0  0  0  0  0  0
   -3.8310   -0.1674  -15.4781 C   0  0  0  0  0  0  0  0  0  0  0  0
   -2.7805   -0.6374  -15.0617 O   0  0  0  0  0  0  0  0  0  0  0  0
   -5.5031   -0.4191  -16.5625 H   0  0  0  0  0  0  0  0  0  0  0  0
   -4.2591    1.2278  -15.0726 C   0  0  0  0  0  0  0  0  0  0  0  0
   -3.2015    2.3099  -14.8358 C   0  0  0  0  0  0  0  0  0  0  0  0
   -4.0951    2.3686  -16.0784 C   0  0  0  0  0  0  0  0  0  0  0  0
 26 27  1  0  0  0
 26 25  1  0  0  0
 27 25  1  0  0  0
 25 22  1  0  0  0
 22 23  2  0  0  0
 22 21  1  0  0  0
 21 15  1  0  0  0
 15 16  2  0  0  0
 15 18  1  0  0  0
 16 17  1  0  0  0
 14 13  3  0  0  0
 13  9  1  0  0  0
 18 20  2  0  0  0
  5  9  2  0  0  0
  5 10  1  0  0  0
  9  8  1  0  0  0
  2 17  1  0  0  0
  2  1  1  0  0  0
 17 19  2  0  0  0
 11 10  1  0  0  0
 10  7  2  0  0  0
  8  6  2  0  0  0
  6  7  1  0  0  0
  6 12  1  0  0  0
  7  1  1  0  0  0
  1  3  2  0  0  0
 20 19  1  0  0  0
  2  4  1  0  0  0
 21 24  1  0  0  0
M  END
> <minimizedAffinity>
-8.13614

$$$$
4GII_0X6_A_1201


 27 29  0  0  0  0  0  0  0  0999 V2000
   -5.7802   -6.4591  -15.8778 C   0  0  0  0  0  0  0  0  0  0  0  0
   -6.0065   -5.3188  -16.5741 N   0  0  0  0  0  0  0  0  0  0  0  0
   -4.6946   -6.7591  -15.4059 O   0  0  0  0  0  0  0  0  0  0  0  0
   -6.9308   -5.1933  -16.8892 H   0  0  0  0  0  0  0  0  0  0  0  0
   -8.2769   -9.2335  -16.4743 C   0  0  0  0  0  0  0  0  0  0  0  0
   -7.7110   -7.2907  -14.5360 C   0  0  0  0  0  0  0  0  0  0  0  0
   -6.9194   -7.3863  -15.6955 C   0  0  0  0  0  0  0  0  0  0  0  0
   -8.7809   -8.1486  -14.3585 C   0  0  0  0  0  0  0  0  0  0  0  0
   -9.0704   -9.1222  -15.3236 C   0  0  0  0  0  0  0  0  0  0  0  0
   -7.2059   -8.3748  -16.6569 C   0  0  0  0  0  0  0  0  0  0  0  0
   -6.2248   -8.5460  -18.0733 Cl  0  0  0  0  0  0  0  0  0  0  0  0
   -7.3509   -6.1037  -13.3203 Cl  0  0  0  0  0  0  0  0  0  0  0  0
  -10.1758  -10.0084  -15.1390 C   0  0  0  0  0  0  0  0  0  0  0  0
  -11.0563  -10.7094  -15.0017 N   0  0  0  0  0  0  0  0  0  0  0  0
   -4.3986   -2.0154  -16.4893 C   0  0  0  0  0  0  0  0  0  0  0  0
   -5.2386   -3.0936  -16.2022 C   0  0  0  0  0  0  0  0  0  0  0  0
   -5.1113   -4.2907  -16.9106 C   0  0  0  0  0  0  0  0  0  0  0  0
   -3.5093   -2.1221  -17.4796 N   0  0  0  0  0  0  0  0  0  0  0  0
   -4.1585   -4.3450  -17.9478 C   0  0  0  0  0  0  0  0  0  0  0  0
   -3.3676   -3.2319  -18.1992 C   0  0  0  0  0  0  0  0  0  0  0  0
   -4.4796   -0.8061  -15.7787 N   0  0  0  0  0  0  0  0  0  0  0  0
   -3.4383   -0.1098  -15.2409 C   0  0  0  0  0  0  0  0  0  0  0  0
   -2.2828   -0.5078  -15.3062 O   0  0  0  0  0  0  0  0  0  0  0  0
   -5.3783   -0.4232  -15.6570 H   0  0  0  0  0  0  0  0  0  0  0  0
   -3.7622    1.1856  -14.5257 C   0  0  0  0  0  0  0  0  0  0  0  0
   -2.7813    1.7519  -13.4949 C   0  0  0  0  0  0  0  0  0  0  0  0
   -2.9418    2.4334  -14.8572 C   0  0  0  0  0  0  0  0  0  0  0  0
 26 27  1  0  0  0
 26 25  1  0  0  0
 27 25  1  0  0  0
 25 22  1  0  0  0
 22 23  2  0  0  0
 22 21  1  0  0  0
 21 15  1  0  0  0
 15 16  2  0  0  0
 15 18  1  0  0  0
 16 17  1  0  0  0
 14 13  3  0  0  0
 13  9  1  0  0  0
 18 20  2  0  0  0
  5  9  2  0  0  0
  5 10  1  0  0  0
  9  8  1  0  0  0
  2 17  1  0  0  0
  2  1  1  0  0  0
 17 19  2  0  0  0
 11 10  1  0  0  0
 10  7  2  0  0  0
  8  6  2  0  0  0
  6  7  1  0  0  0
  6 12  1  0  0  0
  7  1  1  0  0  0
  1  3  2  0  0  0
 20 19  1  0  0  0
  2  4  1  0  0  0
 21 24  1  0  0  0
M  END
> <minimizedAffinity>
-7.91842

$$$$
4GII_0X6_A_1201


 27 29  0  0  0  0  0  0  0  0999 V2000
   -6.6896   -7.4584  -15.8834 C   0  0  0  0  0  0  0  0  0  0  0  0
   -8.0328   -7.6162  -15.9684 N   0  0  0  0  0  0  0  0  0  0  0  0
   -5.9083   -8.3844  -15.7300 O   0  0  0  0  0  0  0  0  0  0  0  0
   -8.5471   -6.7878  -16.1042 H   0  0  0  0  0  0  0  0  0  0  0  0
   -5.0326   -4.3352  -17.2196 C   0  0  0  0  0  0  0  0  0  0  0  0
   -6.2968   -5.2105  -14.8771 C   0  0  0  0  0  0  0  0  0  0  0  0
   -6.1560   -6.0809  -15.9739 C   0  0  0  0  0  0  0  0  0  0  0  0
   -5.7971   -3.9232  -14.9495 C   0  0  0  0  0  0  0  0  0  0  0  0
   -5.1631   -3.4786  -16.1172 C   0  0  0  0  0  0  0  0  0  0  0  0
   -5.5297   -5.6258  -17.1504 C   0  0  0  0  0  0  0  0  0  0  0  0
   -5.3792   -6.6585  -18.5321 Cl  0  0  0  0  0  0  0  0  0  0  0  0
   -7.1000   -5.7402  -13.4312 Cl  0  0  0  0  0  0  0  0  0  0  0  0
   -4.6475   -2.1481  -16.1910 C   0  0  0  0  0  0  0  0  0  0  0  0
   -4.2388   -1.0916  -16.2396 N   0  0  0  0  0  0  0  0  0  0  0  0
   -9.6344  -10.7370  -17.0640 C   0  0  0  0  0  0  0  0  0  0  0  0
   -8.8795   -9.5621  -17.0529 C   0  0  0  0  0  0  0  0  0  0  0  0
   -8.7960   -8.7923  -15.8904 C   0  0  0  0  0  0  0  0  0  0  0  0
  -10.3155  -11.0896  -15.9708 N   0  0  0  0  0  0  0  0  0  0  0  0
   -9.5390   -9.2102  -14.7680 C   0  0  0  0  0  0  0  0  0  0  0  0
  -10.2880  -10.3765  -14.8482 C   0  0  0  0  0  0  0  0  0  0  0  0
   -9.7186  -11.5505  -18.2064 N   0  0  0  0  0  0  0  0  0  0  0  0
   -8.7362  -11.7588  -19.1283 C   0  0  0  0  0  0  0  0  0  0  0  0
   -7.6459  -11.2072  -19.0575 O   0  0  0  0  0  0  0  0  0  0  0  0
  -10.5726  -12.0167  -18.3562 H   0  0  0  0  0  0  0  0  0  0  0  0
   -9.0474  -12.6941  -20.2784 C   0  0  0  0  0  0  0  0  0  0  0  0
   -8.3975  -12.4619  -21.6455 C   0  0  0  0  0  0  0  0  0  0  0  0
   -7.9521  -13.6400  -20.7739 C   0  0  0  0  0  0  0  0  0  0  0  0
 26 27  1  0  0  0
 26 25  1  0  0  0
 27 25  1  0  0  0
 25 22  1  0  0  0
 22 23  2  0  0  0
 22 21  1  0  0  0
 21 15  1  0  0  0
 15 16  2  0  0  0
 15 18  1  0  0  0
 16 17  1  0  0  0
 14 13  3  0  0  0
 13  9  1  0  0  0
 18 20  2  0  0  0
  5  9  2  0  0  0
  5 10  1  0  0  0
  9  8  1  0  0  0
  2 17  1  0  0  0
  2  1  1  0  0  0
 17 19  2  0  0  0
 11 10  1  0  0  0
 10  7  2  0  0  0
  8  6  2  0  0  0
  6  7  1  0  0  0
  6 12  1  0  0  0
  7  1  1  0  0  0
  1  3  2  0  0  0
 20 19  1  0  0  0
  2  4  1  0  0  0
 21 24  1  0  0  0
M  END
> <minimizedAffinity>
-7.90430

$$$$
4GII_0X6_A_1201


 27 29  0  0  0  0  0  0  0  0999 V2000
   -7.5689   -7.1920  -14.9841 C   0  0  0  0  0  0  0  0  0  0  0  0
   -8.1182   -7.8923  -16.0059 N   0  0  0  0  0  0  0  0  0  0  0  0
   -7.6596   -7.5226  -13.8120 O   0  0  0  0  0  0  0  0  0  0  0  0
   -7.9596   -7.5222  -16.9043 H   0  0  0  0  0  0  0  0  0  0  0  0
   -6.7487   -3.5477  -15.5605 C   0  0  0  0  0  0  0  0  0  0  0  0
   -5.4796   -6.0413  -15.7125 C   0  0  0  0  0  0  0  0  0  0  0  0
   -6.8290   -5.9556  -15.3226 C   0  0  0  0  0  0  0  0  0  0  0  0
   -4.7809   -4.8926  -16.0360 C   0  0  0  0  0  0  0  0  0  0  0  0
   -5.4089   -3.6423  -15.9629 C   0  0  0  0  0  0  0  0  0  0  0  0
   -7.4527   -4.6957  -15.2379 C   0  0  0  0  0  0  0  0  0  0  0  0
   -9.0988   -4.5534  -14.7199 Cl  0  0  0  0  0  0  0  0  0  0  0  0
   -4.6812   -7.5819  -15.7863 Cl  0  0  0  0  0  0  0  0  0  0  0  0
   -4.6859   -2.4561  -16.2970 C   0  0  0  0  0  0  0  0  0  0  0  0
   -4.1139   -1.5112  -16.5529 N   0  0  0  0  0  0  0  0  0  0  0  0
   -9.5982  -11.0526  -17.1579 C   0  0  0  0  0  0  0  0  0  0  0  0
   -8.8518   -9.8732  -17.1093 C   0  0  0  0  0  0  0  0  0  0  0  0
   -8.8812   -9.0704  -15.9667 C   0  0  0  0  0  0  0  0  0  0  0  0
  -10.3783  -11.3784  -16.1243 N   0  0  0  0  0  0  0  0  0  0  0  0
   -9.7255   -9.4612  -14.9078 C   0  0  0  0  0  0  0  0  0  0  0  0
  -10.4595  -10.6338  -15.0250 C   0  0  0  0  0  0  0  0  0  0  0  0
   -9.5712  -11.8984  -18.2795 N   0  0  0  0  0  0  0  0  0  0  0  0
   -8.7195  -11.8123  -19.3404 C   0  0  0  0  0  0  0  0  0  0  0  0
   -7.8765  -10.9297  -19.4318 O   0  0  0  0  0  0  0  0  0  0  0  0
  -10.2338  -12.6262  -18.3014 H   0  0  0  0  0  0  0  0  0  0  0  0
   -8.8648  -12.8482  -20.4359 C   0  0  0  0  0  0  0  0  0  0  0  0
   -8.4365  -12.5083  -21.8665 C   0  0  0  0  0  0  0  0  0  0  0  0
   -7.6011  -13.4776  -21.0248 C   0  0  0  0  0  0  0  0  0  0  0  0
 26 27  1  0  0  0
 26 25  1  0  0  0
 27 25  1  0  0  0
 25 22  1  0  0  0
 22 23  2  0  0  0
 22 21  1  0  0  0
 21 15  1  0  0  0
 15 16  2  0  0  0
 15 18  1  0  0  0
 16 17  1  0  0  0
 14 13  3  0  0  0
 13  9  1  0  0  0
 18 20  2  0  0  0
  5  9  2  0  0  0
  5 10  1  0  0  0
  9  8  1  0  0  0
  2 17  1  0  0  0
  2  1  1  0  0  0
 17 19  2  0  0  0
 11 10  1  0  0  0
 10  7  2  0  0  0
  8  6  2  0  0  0
  6  7  1  0  0  0
  6 12  1  0  0  0
  7  1  1  0  0  0
  1  3  2  0  0  0
 20 19  1  0  0  0
  2  4  1  0  0  0
 21 24  1  0  0  0
M  END
> <minimizedAffinity>
-7.76821

$$$$
4GII_0X6_A_1201


 27 29  0  0  0  0  0  0  0  0999 V2000
   -5.8478   -6.5125  -15.9124 C   0  0  0  0  0  0  0  0  0  0  0  0
   -6.1363   -5.3438  -16.5347 N   0  0  0  0  0  0  0  0  0  0  0  0
   -4.7357   -6.8021  -15.4992 O   0  0  0  0  0  0  0  0  0  0  0  0
   -7.0756   -5.2316  -16.8072 H   0  0  0  0  0  0  0  0  0  0  0  0
   -8.8037   -8.3610  -14.4524 C   0  0  0  0  0  0  0  0  0  0  0  0
   -7.1840   -8.4501  -16.7372 C   0  0  0  0  0  0  0  0  0  0  0  0
   -6.9499   -7.4854  -15.7398 C   0  0  0  0  0  0  0  0  0  0  0  0
   -8.2077   -9.3669  -16.5831 C   0  0  0  0  0  0  0  0  0  0  0  0
   -9.0214   -9.3290  -15.4431 C   0  0  0  0  0  0  0  0  0  0  0  0
   -7.7783   -7.4424  -14.6017 C   0  0  0  0  0  0  0  0  0  0  0  0
   -7.5429   -6.2406  -13.3776 Cl  0  0  0  0  0  0  0  0  0  0  0  0
   -6.1980   -8.4955  -18.1662 Cl  0  0  0  0  0  0  0  0  0  0  0  0
  -10.0790  -10.2766  -15.2852 C   0  0  0  0  0  0  0  0  0  0  0  0
  -10.9214  -11.0236  -15.1516 N   0  0  0  0  0  0  0  0  0  0  0  0
   -3.4557   -3.4752  -18.2161 C   0  0  0  0  0  0  0  0  0  0  0  0
   -4.3498   -4.4868  -17.8589 C   0  0  0  0  0  0  0  0  0  0  0  0
   -5.2871   -4.2698  -16.8462 C   0  0  0  0  0  0  0  0  0  0  0  0
   -3.4713   -2.3194  -17.5475 N   0  0  0  0  0  0  0  0  0  0  0  0
   -5.2549   -3.0325  -16.1720 C   0  0  0  0  0  0  0  0  0  0  0  0
   -4.3275   -2.0746  -16.5594 C   0  0  0  0  0  0  0  0  0  0  0  0
   -2.5182   -3.6483  -19.2482 N   0  0  0  0  0  0  0  0  0  0  0  0
   -1.2970   -4.2451  -19.1435 C   0  0  0  0  0  0  0  0  0  0  0  0
   -0.8718   -4.6817  -18.0821 O   0  0  0  0  0  0  0  0  0  0  0  0
   -2.7682   -3.3040  -20.1360 H   0  0  0  0  0  0  0  0  0  0  0  0
   -0.4551   -4.3335  -20.3996 C   0  0  0  0  0  0  0  0  0  0  0  0
   -1.0210   -5.0153  -21.6488 C   0  0  0  0  0  0  0  0  0  0  0  0
   -0.8553   -3.4930  -21.6134 C   0  0  0  0  0  0  0  0  0  0  0  0
 26 27  1  0  0  0
 26 25  1  0  0  0
 27 25  1  0  0  0
 25 22  1  0  0  0
 22 23  2  0  0  0
 22 21  1  0  0  0
 21 15  1  0  0  0
 15 16  2  0  0  0
 15 18  1  0  0  0
 16 17  1  0  0  0
 14 13  3  0  0  0
 13  9  1  0  0  0
 18 20  2  0  0  0
  5  9  2  0  0  0
  5 10  1  0  0  0
  9  8  1  0  0  0
  2 17  1  0  0  0
  2  1  1  0  0  0
 17 19  2  0  0  0
 11 10  1  0  0  0
 10  7  2  0  0  0
  8  6  2  0  0  0
  6  7  1  0  0  0
  6 12  1  0  0  0
  7  1  1  0  0  0
  1  3  2  0  0  0
 20 19  1  0  0  0
  2  4  1  0  0  0
 21 24  1  0  0  0
M  END
> <minimizedAffinity>
-7.65087

$$$$
4GII_0X6_A_1201


 27 29  0  0  0  0  0  0  0  0999 V2000
   -8.9167   -9.5754  -17.2307 C   0  0  0  0  0  0  0  0  0  0  0  0
   -7.8702  -10.2686  -17.7413 N   0  0  0  0  0  0  0  0  0  0  0  0
  -10.0367   -9.5856  -17.7175 O   0  0  0  0  0  0  0  0  0  0  0  0
   -7.0246  -10.1827  -17.2444 H   0  0  0  0  0  0  0  0  0  0  0  0
   -7.5788   -6.8972  -14.9234 C   0  0  0  0  0  0  0  0  0  0  0  0
   -9.3315   -9.0811  -14.8216 C   0  0  0  0  0  0  0  0  0  0  0  0
   -8.6707   -8.7582  -16.0214 C   0  0  0  0  0  0  0  0  0  0  0  0
   -9.1045   -8.3273  -13.6848 C   0  0  0  0  0  0  0  0  0  0  0  0
   -8.2291   -7.2342  -13.7278 C   0  0  0  0  0  0  0  0  0  0  0  0
   -7.8015   -7.6509  -16.0636 C   0  0  0  0  0  0  0  0  0  0  0  0
   -7.0068   -7.2021  -17.5351 Cl  0  0  0  0  0  0  0  0  0  0  0  0
  -10.4367  -10.4194  -14.7585 Cl  0  0  0  0  0  0  0  0  0  0  0  0
   -7.9956   -6.4558  -12.5526 C   0  0  0  0  0  0  0  0  0  0  0  0
   -7.8196   -5.8343  -11.6208 N   0  0  0  0  0  0  0  0  0  0  0  0
   -6.7602  -11.5260  -21.0110 C   0  0  0  0  0  0  0  0  0  0  0  0
   -6.8631  -10.7679  -19.8427 C   0  0  0  0  0  0  0  0  0  0  0  0
   -7.8194  -11.0919  -18.8775 C   0  0  0  0  0  0  0  0  0  0  0  0
   -7.6162  -12.5294  -21.2196 N   0  0  0  0  0  0  0  0  0  0  0  0
   -8.6990  -12.1583  -19.1529 C   0  0  0  0  0  0  0  0  0  0  0  0
   -8.5599  -12.8604  -20.3425 C   0  0  0  0  0  0  0  0  0  0  0  0
   -5.7924  -11.2463  -21.9904 N   0  0  0  0  0  0  0  0  0  0  0  0
   -5.8477  -10.2569  -22.9266 C   0  0  0  0  0  0  0  0  0  0  0  0
   -6.8058   -9.5014  -23.0232 O   0  0  0  0  0  0  0  0  0  0  0  0
   -4.9943  -11.8226  -22.0018 H   0  0  0  0  0  0  0  0  0  0  0  0
   -4.6756  -10.1319  -23.8778 C   0  0  0  0  0  0  0  0  0  0  0  0
   -3.3727   -9.4844  -23.3992 C   0  0  0  0  0  0  0  0  0  0  0  0
   -3.4370  -10.9964  -23.6357 C   0  0  0  0  0  0  0  0  0  0  0  0
 26 27  1  0  0  0
 26 25  1  0  0  0
 27 25  1  0  0  0
 25 22  1  0  0  0
 22 23  2  0  0  0
 22 21  1  0  0  0
 21 15  1  0  0  0
 15 16  2  0  0  0
 15 18  1  0  0  0
 16 17  1  0  0  0
 14 13  3  0  0  0
 13  9  1  0  0  0
 18 20  2  0  0  0
  5  9  2  0  0  0
  5 10  1  0  0  0
  9  8  1  0  0  0
  2 17  1  0  0  0
  2  1  1  0  0  0
 17 19  2  0  0  0
 11 10  1  0  0  0
 10  7  2  0  0  0
  8  6  2  0  0  0
  6  7  1  0  0  0
  6 12  1  0  0  0
  7  1  1  0  0  0
  1  3  2  0  0  0
 20 19  1  0  0  0
  2  4  1  0  0  0
 21 24  1  0  0  0
M  END
> <minimizedAffinity>
-7.64454

$$$$
4GII_0X6_A_1201


 27 29  0  0  0  0  0  0  0  0999 V2000
   -8.9244   -9.5771  -17.2417 C   0  0  0  0  0  0  0  0  0  0  0  0
   -7.8814  -10.2819  -17.7436 N   0  0  0  0  0  0  0  0  0  0  0  0
  -10.0394   -9.5723  -17.7397 O   0  0  0  0  0  0  0  0  0  0  0  0
   -7.0399  -10.2076  -17.2381 H   0  0  0  0  0  0  0  0  0  0  0  0
   -9.0841   -8.3077  -13.6852 C   0  0  0  0  0  0  0  0  0  0  0  0
   -7.7819   -7.6848  -16.0868 C   0  0  0  0  0  0  0  0  0  0  0  0
   -8.6805   -8.7661  -16.0278 C   0  0  0  0  0  0  0  0  0  0  0  0
   -7.5511   -6.9176  -14.9597 C   0  0  0  0  0  0  0  0  0  0  0  0
   -8.1990   -7.2225  -13.7554 C   0  0  0  0  0  0  0  0  0  0  0  0
   -9.3198   -9.0772  -14.8120 C   0  0  0  0  0  0  0  0  0  0  0  0
  -10.3978  -10.4273  -14.6963 Cl  0  0  0  0  0  0  0  0  0  0  0  0
   -6.9543   -7.3083  -17.5666 Cl  0  0  0  0  0  0  0  0  0  0  0  0
   -7.9594   -6.4293  -12.5915 C   0  0  0  0  0  0  0  0  0  0  0  0
   -7.7791   -5.8001  -11.6656 N   0  0  0  0  0  0  0  0  0  0  0  0
   -6.7663  -11.5336  -21.0138 C   0  0  0  0  0  0  0  0  0  0  0  0
   -6.8706  -10.7778  -19.8441 C   0  0  0  0  0  0  0  0  0  0  0  0
   -7.8293  -11.1028  -18.8815 C   0  0  0  0  0  0  0  0  0  0  0  0
   -7.6230  -12.5356  -21.2263 N   0  0  0  0  0  0  0  0  0  0  0  0
   -8.7095  -12.1676  -19.1608 C   0  0  0  0  0  0  0  0  0  0  0  0
   -8.5688  -12.8674  -20.3517 C   0  0  0  0  0  0  0  0  0  0  0  0
   -5.7962  -11.2530  -21.9907 N   0  0  0  0  0  0  0  0  0  0  0  0
   -5.8708  -10.2935  -22.9562 C   0  0  0  0  0  0  0  0  0  0  0  0
   -6.8502   -9.5709  -23.0852 O   0  0  0  0  0  0  0  0  0  0  0  0
   -4.9809  -11.8046  -21.9765 H   0  0  0  0  0  0  0  0  0  0  0  0
   -4.6921  -10.1602  -23.8981 C   0  0  0  0  0  0  0  0  0  0  0  0
   -3.3827   -9.5443  -23.3964 C   0  0  0  0  0  0  0  0  0  0  0  0
   -3.4672  -11.0484  -23.6731 C   0  0  0  0  0  0  0  0  0  0  0  0
 26 27  1  0  0  0
 26 25  1  0  0  0
 27 25  1  0  0  0
 25 22  1  0  0  0
 22 23  2  0  0  0
 22 21  1  0  0  0
 21 15  1  0  0  0
 15 16  2  0  0  0
 15 18  1  0  0  0
 16 17  1  0  0  0
 14 13  3  0  0  0
 13  9  1  0  0  0
 18 20  2  0  0  0
  5  9  2  0  0  0
  5 10  1  0  0  0
  9  8  1  0  0  0
  2 17  1  0  0  0
  2  1  1  0  0  0
 17 19  2  0  0  0
 11 10  1  0  0  0
 10  7  2  0  0  0
  8  6  2  0  0  0
  6  7  1  0  0  0
  6 12  1  0  0  0
  7  1  1  0  0  0
  1  3  2  0  0  0
 20 19  1  0  0  0
  2  4  1  0  0  0
 21 24  1  0  0  0
M  END
> <minimizedAffinity>
-7.62793

$$$$
4GII_0X6_A_1201


 27 29  0  0  0  0  0  0  0  0999 V2000
   -5.8393   -6.5046  -15.9247 C   0  0  0  0  0  0  0  0  0  0  0  0
   -6.1073   -5.3582  -16.5958 N   0  0  0  0  0  0  0  0  0  0  0  0
   -4.7428   -6.7759  -15.4605 O   0  0  0  0  0  0  0  0  0  0  0  0
   -7.0360   -5.2588  -16.9071 H   0  0  0  0  0  0  0  0  0  0  0  0
   -8.2171   -9.3722  -16.5639 C   0  0  0  0  0  0  0  0  0  0  0  0
   -7.7570   -7.4129  -14.6143 C   0  0  0  0  0  0  0  0  0  0  0  0
   -6.9444   -7.4755  -15.7615 C   0  0  0  0  0  0  0  0  0  0  0  0
   -8.7954   -8.3120  -14.4547 C   0  0  0  0  0  0  0  0  0  0  0  0
   -9.0321   -9.2941  -15.4256 C   0  0  0  0  0  0  0  0  0  0  0  0
   -7.1775   -8.4724  -16.7287 C   0  0  0  0  0  0  0  0  0  0  0  0
   -6.1686   -8.6025  -18.1299 Cl  0  0  0  0  0  0  0  0  0  0  0  0
   -7.4620   -6.2154  -13.3914 Cl  0  0  0  0  0  0  0  0  0  0  0  0
  -10.1051  -10.2227  -15.2595 C   0  0  0  0  0  0  0  0  0  0  0  0
  -10.9567  -10.9613  -15.1376 N   0  0  0  0  0  0  0  0  0  0  0  0
   -3.3906   -3.5259  -18.2593 C   0  0  0  0  0  0  0  0  0  0  0  0
   -4.2937   -4.5291  -17.9008 C   0  0  0  0  0  0  0  0  0  0  0  0
   -5.2499   -4.2917  -16.9106 C   0  0  0  0  0  0  0  0  0  0  0  0
   -3.4166   -2.3580  -17.6126 N   0  0  0  0  0  0  0  0  0  0  0  0
   -5.2279   -3.0422  -16.2588 C   0  0  0  0  0  0  0  0  0  0  0  0
   -4.2911   -2.0934  -16.6458 C   0  0  0  0  0  0  0  0  0  0  0  0
   -2.4338   -3.7198  -19.2697 N   0  0  0  0  0  0  0  0  0  0  0  0
   -1.1926   -4.2629  -19.1185 C   0  0  0  0  0  0  0  0  0  0  0  0
   -0.7654   -4.6237  -18.0298 O   0  0  0  0  0  0  0  0  0  0  0  0
   -2.6849   -3.4349  -20.1780 H   0  0  0  0  0  0  0  0  0  0  0  0
   -0.3315   -4.3883  -20.3583 C   0  0  0  0  0  0  0  0  0  0  0  0
    0.0206   -5.7755  -20.9034 C   0  0  0  0  0  0  0  0  0  0  0  0
   -0.9756   -4.8861  -21.6534 C   0  0  0  0  0  0  0  0  0  0  0  0
 26 27  1  0  0  0
 26 25  1  0  0  0
 27 25  1  0  0  0
 25 22  1  0  0  0
 22 23  2  0  0  0
 22 21  1  0  0  0
 21 15  1  0  0  0
 15 16  2  0  0  0
 15 18  1  0  0  0
 16 17  1  0  0  0
 14 13  3  0  0  0
 13  9  1  0  0  0
 18 20  2  0  0  0
  5  9  2  0  0  0
  5 10  1  0  0  0
  9  8  1  0  0  0
  2 17  1  0  0  0
  2  1  1  0  0  0
 17 19  2  0  0  0
 11 10  1  0  0  0
 10  7  2  0  0  0
  8  6  2  0  0  0
  6  7  1  0  0  0
  6 12  1  0  0  0
  7  1  1  0  0  0
  1  3  2  0  0  0
 20 19  1  0  0  0
  2  4  1  0  0  0
 21 24  1  0  0  0
M  END
> <minimizedAffinity>
-7.55492

$$$$
4GII_0X6_A_1201


 27 29  0  0  0  0  0  0  0  0999 V2000
   -8.0368   -9.1265  -18.0054 C   0  0  0  0  0  0  0  0  0  0  0  0
   -7.7594  -10.4515  -18.0665 N   0  0  0  0  0  0  0  0  0  0  0  0
   -8.3271   -8.4507  -18.9803 O   0  0  0  0  0  0  0  0  0  0  0  0
   -7.5523  -10.8794  -17.2044 H   0  0  0  0  0  0  0  0  0  0  0  0
   -6.9045   -6.9469  -15.1326 C   0  0  0  0  0  0  0  0  0  0  0  0
   -8.9503   -8.7719  -15.7120 C   0  0  0  0  0  0  0  0  0  0  0  0
   -7.9712   -8.4747  -16.6781 C   0  0  0  0  0  0  0  0  0  0  0  0
   -8.8950   -8.1725  -14.4671 C   0  0  0  0  0  0  0  0  0  0  0  0
   -7.8747   -7.2594  -14.1698 C   0  0  0  0  0  0  0  0  0  0  0  0
   -6.9549   -7.5466  -16.3797 C   0  0  0  0  0  0  0  0  0  0  0  0
   -5.7607   -7.1276  -17.5616 Cl  0  0  0  0  0  0  0  0  0  0  0  0
  -10.2339   -9.8846  -16.0735 Cl  0  0  0  0  0  0  0  0  0  0  0  0
   -7.8189   -6.6404  -12.8833 C   0  0  0  0  0  0  0  0  0  0  0  0
   -7.7846   -6.1488  -11.8621 N   0  0  0  0  0  0  0  0  0  0  0  0
   -6.5004  -12.0022  -21.1511 C   0  0  0  0  0  0  0  0  0  0  0  0
   -6.6027  -11.2047  -20.0093 C   0  0  0  0  0  0  0  0  0  0  0  0
   -7.7251  -11.3015  -19.1836 C   0  0  0  0  0  0  0  0  0  0  0  0
   -7.5063  -12.8192  -21.4731 N   0  0  0  0  0  0  0  0  0  0  0  0
   -8.7578  -12.1775  -19.5747 C   0  0  0  0  0  0  0  0  0  0  0  0
   -8.6062  -12.9281  -20.7328 C   0  0  0  0  0  0  0  0  0  0  0  0
   -5.3739  -11.9515  -21.9893 N   0  0  0  0  0  0  0  0  0  0  0  0
   -4.3797  -12.8808  -22.0695 C   0  0  0  0  0  0  0  0  0  0  0  0
   -4.3611  -13.8805  -21.3637 O   0  0  0  0  0  0  0  0  0  0  0  0
   -5.2947  -11.1662  -22.5777 H   0  0  0  0  0  0  0  0  0  0  0  0
   -3.2642  -12.6233  -23.0613 C   0  0  0  0  0  0  0  0  0  0  0  0
   -3.5184  -11.7270  -24.2769 C   0  0  0  0  0  0  0  0  0  0  0  0
   -2.6436  -11.2266  -23.1235 C   0  0  0  0  0  0  0  0  0  0  0  0
 26 27  1  0  0  0
 26 25  1  0  0  0
 27 25  1  0  0  0
 25 22  1  0  0  0
 22 23  2  0  0  0
 22 21  1  0  0  0
 21 15  1  0  0  0
 15 16  2  0  0  0
 15 18  1  0  0  0
 16 17  1  0  0  0
 14 13  3  0  0  0
 13  9  1  0  0  0
 18 20  2  0  0  0
  5  9  2  0  0  0
  5 10  1  0  0  0
  9  8  1  0  0  0
  2 17  1  0  0  0
  2  1  1  0  0  0
 17 19  2  0  0  0
 11 10  1  0  0  0
 10  7  2  0  0  0
  8  6  2  0  0  0
  6  7  1  0  0  0
  6 12  1  0  0  0
  7  1  1  0  0  0
  1  3  2  0  0  0
 20 19  1  0  0  0
  2  4  1  0  0  0
 21 24  1  0  0  0
M  END
> <minimizedAffinity>
-7.40327

$$$$
4GII_0X6_A_1201


 27 29  0  0  0  0  0  0  0  0999 V2000
   -5.6168   -7.1866  -16.8451 C   0  0  0  0  0  0  0  0  0  0  0  0
   -5.7988   -6.2428  -17.8003 N   0  0  0  0  0  0  0  0  0  0  0  0
   -4.5331   -7.4394  -16.3420 O   0  0  0  0  0  0  0  0  0  0  0  0
   -6.7260   -6.1313  -18.1119 H   0  0  0  0  0  0  0  0  0  0  0  0
   -8.6035   -8.3233  -14.8269 C   0  0  0  0  0  0  0  0  0  0  0  0
   -7.2611   -9.0311  -17.1825 C   0  0  0  0  0  0  0  0  0  0  0  0
   -6.8050   -7.9511  -16.4041 C   0  0  0  0  0  0  0  0  0  0  0  0
   -8.3670   -9.7552  -16.7765 C   0  0  0  0  0  0  0  0  0  0  0  0
   -9.0431   -9.4077  -15.5996 C   0  0  0  0  0  0  0  0  0  0  0  0
   -7.4951   -7.5970  -15.2286 C   0  0  0  0  0  0  0  0  0  0  0  0
   -6.9845   -6.2469  -14.2723 Cl  0  0  0  0  0  0  0  0  0  0  0  0
   -6.4469   -9.4599  -18.6554 Cl  0  0  0  0  0  0  0  0  0  0  0  0
  -10.1859  -10.1563  -15.1814 C   0  0  0  0  0  0  0  0  0  0  0  0
  -11.0914  -10.7473  -14.8401 N   0  0  0  0  0  0  0  0  0  0  0  0
   -3.3252   -5.0875  -20.2602 C   0  0  0  0  0  0  0  0  0  0  0  0
   -4.2867   -5.8568  -19.6015 C   0  0  0  0  0  0  0  0  0  0  0  0
   -4.8542   -5.4011  -18.4092 C   0  0  0  0  0  0  0  0  0  0  0  0
   -2.9171   -3.9392  -19.7144 N   0  0  0  0  0  0  0  0  0  0  0  0
   -4.3823   -4.1842  -17.8773 C   0  0  0  0  0  0  0  0  0  0  0  0
   -3.4088   -3.4756  -18.5687 C   0  0  0  0  0  0  0  0  0  0  0  0
   -2.7534   -5.5012  -21.4751 N   0  0  0  0  0  0  0  0  0  0  0  0
   -1.5194   -6.0553  -21.6440 C   0  0  0  0  0  0  0  0  0  0  0  0
   -0.7464   -6.2261  -20.7106 O   0  0  0  0  0  0  0  0  0  0  0  0
   -3.2986   -5.3786  -22.2856 H   0  0  0  0  0  0  0  0  0  0  0  0
   -1.1157   -6.4401  -23.0523 C   0  0  0  0  0  0  0  0  0  0  0  0
   -0.5386   -7.8323  -23.3251 C   0  0  0  0  0  0  0  0  0  0  0  0
   -1.9523   -7.4810  -23.7984 C   0  0  0  0  0  0  0  0  0  0  0  0
 26 27  1  0  0  0
 26 25  1  0  0  0
 27 25  1  0  0  0
 25 22  1  0  0  0
 22 23  2  0  0  0
 22 21  1  0  0  0
 21 15  1  0  0  0
 15 16  2  0  0  0
 15 18  1  0  0  0
 16 17  1  0  0  0
 14 13  3  0  0  0
 13  9  1  0  0  0
 18 20  2  0  0  0
  5  9  2  0  0  0
  5 10  1  0  0  0
  9  8  1  0  0  0
  2 17  1  0  0  0
  2  1  1  0  0  0
 17 19  2  0  0  0
 11 10  1  0  0  0
 10  7  2  0  0  0
  8  6  2  0  0  0
  6  7  1  0  0  0
  6 12  1  0  0  0
  7  1  1  0  0  0
  1  3  2  0  0  0
 20 19  1  0  0  0
  2  4  1  0  0  0
 21 24  1  0  0  0
M  END
> <minimizedAffinity>
-7.18564

$$$$
