3B27_B2T_A_1


 18 19  0  0  0  0  0  0  0  0999 V2000
   10.4050    4.5222   12.5053 C   0  0  0  0  0  0  0  0  0  0  0  0
   10.6682    3.2914   12.9763 N   0  0  0  0  0  0  0  0  0  0  0  0
    9.1806    5.0384   12.4981 N   0  0  0  0  0  0  0  0  0  0  0  0
    8.1730    4.3559   13.0677 C   0  0  0  0  0  0  0  0  0  0  0  0
    6.9485    4.8405   13.0720 N   0  0  0  0  0  0  0  0  0  0  0  0
    8.4094    3.1101   13.5375 N   0  0  0  0  0  0  0  0  0  0  0  0
    9.6459    2.5795   13.5032 C   0  0  0  0  0  0  0  0  0  0  0  0
    6.7768    5.7476   12.7299 H   0  0  0  0  0  0  0  0  0  0  0  0
    6.2047    4.2958   13.4175 H   0  0  0  0  0  0  0  0  0  0  0  0
    9.8415    1.2850   14.0106 C   0  0  0  0  0  0  0  0  0  0  0  0
   10.5270    1.1347   15.2162 C   0  0  0  0  0  0  0  0  0  0  0  0
   10.7355   -0.1645   15.7177 C   0  0  0  0  0  0  0  0  0  0  0  0
   10.2554   -1.2707   15.0007 C   0  0  0  0  0  0  0  0  0  0  0  0
    9.5824   -1.1299   13.7942 C   0  0  0  0  0  0  0  0  0  0  0  0
    9.3679    0.1636   13.2968 C   0  0  0  0  0  0  0  0  0  0  0  0
    8.5881    0.2901   11.7519 Cl  0  0  0  0  0  0  0  0  0  0  0  0
   13.1467    4.9881   12.5800 C   0  0  0  0  0  0  0  0  0  0  0  0
   11.6404    5.4625   11.7147 S   0  0  0  0  0  0  0  0  0  0  0  0
 17 18  1  0  0  0
 18  1  1  0  0  0
  1  2  2  0  0  0
  1  3  1  0  0  0
  2  7  1  0  0  0
  3  4  2  0  0  0
  4  5  1  0  0  0
  4  6  1  0  0  0
  6  7  2  0  0  0
  7 10  1  0  0  0
 10 11  2  0  0  0
 10 15  1  0  0  0
 11 12  1  0  0  0
 12 13  2  0  0  0
 13 14  1  0  0  0
 14 15  2  0  0  0
 15 16  1  0  0  0
  5  8  1  0  0  0
  5  9  1  0  0  0
M  END
> <minimizedAffinity>
-7.29105

$$$$
3B27_B2T_A_1


 18 19  0  0  0  0  0  0  0  0999 V2000
    8.6051    1.9927   12.6313 C   0  0  0  0  0  0  0  0  0  0  0  0
    9.7506    2.4716   13.1457 N   0  0  0  0  0  0  0  0  0  0  0  0
    7.4791    2.6978   12.6142 N   0  0  0  0  0  0  0  0  0  0  0  0
    7.4926    3.9739   13.0348 C   0  0  0  0  0  0  0  0  0  0  0  0
    6.3912    4.6958   13.0331 N   0  0  0  0  0  0  0  0  0  0  0  0
    8.6296    4.4752   13.5683 N   0  0  0  0  0  0  0  0  0  0  0  0
    9.7551    3.7388   13.6186 C   0  0  0  0  0  0  0  0  0  0  0  0
    5.5637    4.3304   12.6446 H   0  0  0  0  0  0  0  0  0  0  0  0
    6.3953    5.6009   13.4204 H   0  0  0  0  0  0  0  0  0  0  0  0
   10.9120    4.3074   14.1751 C   0  0  0  0  0  0  0  0  0  0  0  0
   11.0581    4.3065   15.5623 C   0  0  0  0  0  0  0  0  0  0  0  0
   12.2119    4.8895   16.1208 C   0  0  0  0  0  0  0  0  0  0  0  0
   13.1808    5.4553   15.2786 C   0  0  0  0  0  0  0  0  0  0  0  0
   13.0371    5.4706   13.8975 C   0  0  0  0  0  0  0  0  0  0  0  0
   11.8921    4.8842   13.3394 C   0  0  0  0  0  0  0  0  0  0  0  0
   11.7177    4.9901   11.6162 Cl  0  0  0  0  0  0  0  0  0  0  0  0
    9.2998   -0.5854   13.4128 C   0  0  0  0  0  0  0  0  0  0  0  0
    8.4843    0.3380   12.0994 S   0  0  0  0  0  0  0  0  0  0  0  0
 17 18  1  0  0  0
 18  1  1  0  0  0
  1  2  2  0  0  0
  1  3  1  0  0  0
  2  7  1  0  0  0
  3  4  2  0  0  0
  4  5  1  0  0  0
  4  6  1  0  0  0
  6  7  2  0  0  0
  7 10  1  0  0  0
 10 11  2  0  0  0
 10 15  1  0  0  0
 11 12  1  0  0  0
 12 13  2  0  0  0
 13 14  1  0  0  0
 14 15  2  0  0  0
 15 16  1  0  0  0
  5  8  1  0  0  0
  5  9  1  0  0  0
M  END
> <minimizedAffinity>
-7.04031

$$$$
3B27_B2T_A_1


 18 19  0  0  0  0  0  0  0  0999 V2000
   10.5958    4.4408   12.5548 C   0  0  0  0  0  0  0  0  0  0  0  0
   10.8513    3.2172   13.0485 N   0  0  0  0  0  0  0  0  0  0  0  0
    9.3712    4.9550   12.5164 N   0  0  0  0  0  0  0  0  0  0  0  0
    8.3535    4.2793   13.0760 C   0  0  0  0  0  0  0  0  0  0  0  0
    7.1286    4.7621   13.0496 N   0  0  0  0  0  0  0  0  0  0  0  0
    8.5823    3.0407   13.5681 N   0  0  0  0  0  0  0  0  0  0  0  0
    9.8198    2.5115   13.5655 C   0  0  0  0  0  0  0  0  0  0  0  0
    6.9625    5.6639   12.6912 H   0  0  0  0  0  0  0  0  0  0  0  0
    6.3789    4.2213   13.3882 H   0  0  0  0  0  0  0  0  0  0  0  0
   10.0071    1.2247   14.0952 C   0  0  0  0  0  0  0  0  0  0  0  0
    9.5457    0.1273   13.3682 C   0  0  0  0  0  0  0  0  0  0  0  0
    9.7210   -1.1621   13.9063 C   0  0  0  0  0  0  0  0  0  0  0  0
   10.3489   -1.3151   15.1516 C   0  0  0  0  0  0  0  0  0  0  0  0
   10.8003   -0.2269   15.8868 C   0  0  0  0  0  0  0  0  0  0  0  0
   10.6328    1.0574   15.3491 C   0  0  0  0  0  0  0  0  0  0  0  0
   11.1447    2.3920   16.3327 Cl  0  0  0  0  0  0  0  0  0  0  0  0
   13.3348    4.9127   12.6770 C   0  0  0  0  0  0  0  0  0  0  0  0
   11.8453    5.3715   11.7750 S   0  0  0  0  0  0  0  0  0  0  0  0
 17 18  1  0  0  0
 18  1  1  0  0  0
  1  2  2  0  0  0
  1  3  1  0  0  0
  2  7  1  0  0  0
  3  4  2  0  0  0
  4  5  1  0  0  0
  4  6  1  0  0  0
  6  7  2  0  0  0
  7 10  1  0  0  0
 10 11  2  0  0  0
 10 15  1  0  0  0
 11 12  1  0  0  0
 12 13  2  0  0  0
 13 14  1  0  0  0
 14 15  2  0  0  0
 15 16  1  0  0  0
  5  8  1  0  0  0
  5  9  1  0  0  0
M  END
> <minimizedAffinity>
-6.95264

$$$$
3B27_B2T_A_1


 18 19  0  0  0  0  0  0  0  0999 V2000
   11.9429    4.4109   15.1567 C   0  0  0  0  0  0  0  0  0  0  0  0
   10.9449    3.5518   14.8883 N   0  0  0  0  0  0  0  0  0  0  0  0
   12.6650    4.9887   14.2027 N   0  0  0  0  0  0  0  0  0  0  0  0
   12.3355    4.7925   12.9149 C   0  0  0  0  0  0  0  0  0  0  0  0
   13.0352    5.3488   11.9478 N   0  0  0  0  0  0  0  0  0  0  0  0
   11.3433    3.9229   12.6183 N   0  0  0  0  0  0  0  0  0  0  0  0
   10.6441    3.3108   13.5919 C   0  0  0  0  0  0  0  0  0  0  0  0
   13.7575    5.9819   12.1642 H   0  0  0  0  0  0  0  0  0  0  0  0
   12.8361    5.1316   11.0084 H   0  0  0  0  0  0  0  0  0  0  0  0
    9.6180    2.4223   13.2324 C   0  0  0  0  0  0  0  0  0  0  0  0
    9.9412    1.0860   12.9959 C   0  0  0  0  0  0  0  0  0  0  0  0
    8.9143    0.1983   12.6217 C   0  0  0  0  0  0  0  0  0  0  0  0
    7.5998    0.6716   12.4941 C   0  0  0  0  0  0  0  0  0  0  0  0
    7.2720    2.0025   12.7164 C   0  0  0  0  0  0  0  0  0  0  0  0
    8.2923    2.8866   13.0959 C   0  0  0  0  0  0  0  0  0  0  0  0
    7.8525    4.5535   13.2922 Cl  0  0  0  0  0  0  0  0  0  0  0  0
   11.4296    3.5847   17.7632 C   0  0  0  0  0  0  0  0  0  0  0  0
   12.4646    4.6953   16.7945 S   0  0  0  0  0  0  0  0  0  0  0  0
 17 18  1  0  0  0
 18  1  1  0  0  0
  1  2  2  0  0  0
  1  3  1  0  0  0
  2  7  1  0  0  0
  3  4  2  0  0  0
  4  5  1  0  0  0
  4  6  1  0  0  0
  6  7  2  0  0  0
  7 10  1  0  0  0
 10 11  2  0  0  0
 10 15  1  0  0  0
 11 12  1  0  0  0
 12 13  2  0  0  0
 13 14  1  0  0  0
 14 15  2  0  0  0
 15 16  1  0  0  0
  5  8  1  0  0  0
  5  9  1  0  0  0
M  END
> <minimizedAffinity>
-6.50667

$$$$
3B27_B2T_A_1


 18 19  0  0  0  0  0  0  0  0999 V2000
   12.6891    5.1696   15.2793 C   0  0  0  0  0  0  0  0  0  0  0  0
   11.4365    4.7225   15.0864 N   0  0  0  0  0  0  0  0  0  0  0  0
   13.5865    5.2269   14.3011 N   0  0  0  0  0  0  0  0  0  0  0  0
   13.2157    4.9214   13.0462 C   0  0  0  0  0  0  0  0  0  0  0  0
   14.0843    4.9652   12.0573 N   0  0  0  0  0  0  0  0  0  0  0  0
   11.9646    4.4570   12.8280 N   0  0  0  0  0  0  0  0  0  0  0  0
   11.0747    4.3640   13.8333 C   0  0  0  0  0  0  0  0  0  0  0  0
   14.9951    5.3034   12.2166 H   0  0  0  0  0  0  0  0  0  0  0  0
   13.8229    4.6598   11.1586 H   0  0  0  0  0  0  0  0  0  0  0  0
    9.7854    3.8830   13.5541 C   0  0  0  0  0  0  0  0  0  0  0  0
    8.7712    4.8023   13.2852 C   0  0  0  0  0  0  0  0  0  0  0  0
    7.4752    4.3202   13.0191 C   0  0  0  0  0  0  0  0  0  0  0  0
    7.2324    2.9385   13.0313 C   0  0  0  0  0  0  0  0  0  0  0  0
    8.2339    2.0177   13.3096 C   0  0  0  0  0  0  0  0  0  0  0  0
    9.5267    2.4958   13.5679 C   0  0  0  0  0  0  0  0  0  0  0  0
   10.7303    1.3166   13.9824 Cl  0  0  0  0  0  0  0  0  0  0  0  0
   14.3377    4.1579   17.2788 C   0  0  0  0  0  0  0  0  0  0  0  0
   13.2686    5.5503   16.8776 S   0  0  0  0  0  0  0  0  0  0  0  0
 17 18  1  0  0  0
 18  1  1  0  0  0
  1  2  2  0  0  0
  1  3  1  0  0  0
  2  7  1  0  0  0
  3  4  2  0  0  0
  4  5  1  0  0  0
  4  6  1  0  0  0
  6  7  2  0  0  0
  7 10  1  0  0  0
 10 11  2  0  0  0
 10 15  1  0  0  0
 11 12  1  0  0  0
 12 13  2  0  0  0
 13 14  1  0  0  0
 14 15  2  0  0  0
 15 16  1  0  0  0
  5  8  1  0  0  0
  5  9  1  0  0  0
M  END
> <minimizedAffinity>
-6.42985

$$$$
3B27_B2T_A_1


 18 19  0  0  0  0  0  0  0  0999 V2000
   11.4152    4.6428   14.3553 C   0  0  0  0  0  0  0  0  0  0  0  0
   10.1838    4.1240   14.4991 N   0  0  0  0  0  0  0  0  0  0  0  0
   11.9441    4.9099   13.1660 N   0  0  0  0  0  0  0  0  0  0  0  0
   11.1970    4.7518   12.0605 C   0  0  0  0  0  0  0  0  0  0  0  0
   11.6956    5.0048   10.8681 N   0  0  0  0  0  0  0  0  0  0  0  0
    9.9594    4.2196   12.1775 N   0  0  0  0  0  0  0  0  0  0  0  0
    9.4475    3.9140   13.3841 C   0  0  0  0  0  0  0  0  0  0  0  0
   12.5967    5.3923   10.7835 H   0  0  0  0  0  0  0  0  0  0  0  0
   11.1673    4.8064   10.0614 H   0  0  0  0  0  0  0  0  0  0  0  0
    8.1546    3.3708   13.4534 C   0  0  0  0  0  0  0  0  0  0  0  0
    7.0625    4.2386   13.4550 C   0  0  0  0  0  0  0  0  0  0  0  0
    5.7667    3.6942   13.5388 C   0  0  0  0  0  0  0  0  0  0  0  0
    5.6020    2.3033   13.6197 C   0  0  0  0  0  0  0  0  0  0  0  0
    6.6844    1.4335   13.6306 C   0  0  0  0  0  0  0  0  0  0  0  0
    7.9754    1.9736   13.5402 C   0  0  0  0  0  0  0  0  0  0  0  0
    9.3005    0.8571   13.6308 Cl  0  0  0  0  0  0  0  0  0  0  0  0
   11.5925    4.0022   17.0567 C   0  0  0  0  0  0  0  0  0  0  0  0
   12.4686    4.8449   15.7282 S   0  0  0  0  0  0  0  0  0  0  0  0
 17 18  1  0  0  0
 18  1  1  0  0  0
  1  2  2  0  0  0
  1  3  1  0  0  0
  2  7  1  0  0  0
  3  4  2  0  0  0
  4  5  1  0  0  0
  4  6  1  0  0  0
  6  7  2  0  0  0
  7 10  1  0  0  0
 10 11  2  0  0  0
 10 15  1  0  0  0
 11 12  1  0  0  0
 12 13  2  0  0  0
 13 14  1  0  0  0
 14 15  2  0  0  0
 15 16  1  0  0  0
  5  8  1  0  0  0
  5  9  1  0  0  0
M  END
> <minimizedAffinity>
-6.42583

$$$$
3B27_B2T_A_1


 18 19  0  0  0  0  0  0  0  0999 V2000
    8.0563    3.7685   12.9669 C   0  0  0  0  0  0  0  0  0  0  0  0
    8.3787    2.6203   13.5865 N   0  0  0  0  0  0  0  0  0  0  0  0
    8.9635    4.5479   12.3881 N   0  0  0  0  0  0  0  0  0  0  0  0
   10.2422    4.1397   12.3269 C   0  0  0  0  0  0  0  0  0  0  0  0
   11.1639    4.8928   11.7632 N   0  0  0  0  0  0  0  0  0  0  0  0
   10.5944    2.9943   12.9534 N   0  0  0  0  0  0  0  0  0  0  0  0
    9.6742    2.2317   13.5725 C   0  0  0  0  0  0  0  0  0  0  0  0
   10.9070    5.7266   11.3071 H   0  0  0  0  0  0  0  0  0  0  0  0
   12.1097    4.6219   11.7978 H   0  0  0  0  0  0  0  0  0  0  0  0
   10.0889    1.0471   14.2020 C   0  0  0  0  0  0  0  0  0  0  0  0
   10.9254    1.1372   15.3147 C   0  0  0  0  0  0  0  0  0  0  0  0
   11.3525   -0.0514   15.9372 C   0  0  0  0  0  0  0  0  0  0  0  0
   10.9334   -1.2903   15.4295 C   0  0  0  0  0  0  0  0  0  0  0  0
   10.1104   -1.3886   14.3153 C   0  0  0  0  0  0  0  0  0  0  0  0
    9.6784   -0.2057   13.6984 C   0  0  0  0  0  0  0  0  0  0  0  0
    8.7120   -0.3755   12.2673 Cl  0  0  0  0  0  0  0  0  0  0  0  0
    5.5164    3.1025   13.8862 C   0  0  0  0  0  0  0  0  0  0  0  0
    6.4317    4.3948   13.0290 S   0  0  0  0  0  0  0  0  0  0  0  0
 17 18  1  0  0  0
 18  1  1  0  0  0
  1  2  2  0  0  0
  1  3  1  0  0  0
  2  7  1  0  0  0
  3  4  2  0  0  0
  4  5  1  0  0  0
  4  6  1  0  0  0
  6  7  2  0  0  0
  7 10  1  0  0  0
 10 11  2  0  0  0
 10 15  1  0  0  0
 11 12  1  0  0  0
 12 13  2  0  0  0
 13 14  1  0  0  0
 14 15  2  0  0  0
 15 16  1  0  0  0
  5  8  1  0  0  0
  5  9  1  0  0  0
M  END
> <minimizedAffinity>
-6.31819

$$$$
3B27_B2T_A_1


 18 19  0  0  0  0  0  0  0  0999 V2000
   12.1839    3.8655   14.8203 C   0  0  0  0  0  0  0  0  0  0  0  0
   11.3102    3.3241   13.9545 N   0  0  0  0  0  0  0  0  0  0  0  0
   12.2156    3.5328   16.1063 N   0  0  0  0  0  0  0  0  0  0  0  0
   11.4160    2.5500   16.5539 C   0  0  0  0  0  0  0  0  0  0  0  0
   11.4227    2.2016   17.8239 N   0  0  0  0  0  0  0  0  0  0  0  0
   10.5193    1.9981   15.7055 N   0  0  0  0  0  0  0  0  0  0  0  0
   10.4672    2.3710   14.4133 C   0  0  0  0  0  0  0  0  0  0  0  0
   12.0758    2.6036   18.4413 H   0  0  0  0  0  0  0  0  0  0  0  0
   10.7747    1.5390   18.1560 H   0  0  0  0  0  0  0  0  0  0  0  0
    9.5234    1.7625   13.5705 C   0  0  0  0  0  0  0  0  0  0  0  0
    9.7172    0.4322   13.1981 C   0  0  0  0  0  0  0  0  0  0  0  0
    8.7781   -0.1735   12.3413 C   0  0  0  0  0  0  0  0  0  0  0  0
    7.6780    0.5667   11.8830 C   0  0  0  0  0  0  0  0  0  0  0  0
    7.4844    1.8947   12.2397 C   0  0  0  0  0  0  0  0  0  0  0  0
    8.4150    2.4974   13.0984 C   0  0  0  0  0  0  0  0  0  0  0  0
    8.1749    4.1774   13.4597 Cl  0  0  0  0  0  0  0  0  0  0  0  0
   13.2197    5.0767   12.5400 C   0  0  0  0  0  0  0  0  0  0  0  0
   13.2304    5.1723   14.3382 S   0  0  0  0  0  0  0  0  0  0  0  0
 17 18  1  0  0  0
 18  1  1  0  0  0
  1  2  2  0  0  0
  1  3  1  0  0  0
  2  7  1  0  0  0
  3  4  2  0  0  0
  4  5  1  0  0  0
  4  6  1  0  0  0
  6  7  2  0  0  0
  7 10  1  0  0  0
 10 11  2  0  0  0
 10 15  1  0  0  0
 11 12  1  0  0  0
 12 13  2  0  0  0
 13 14  1  0  0  0
 14 15  2  0  0  0
 15 16  1  0  0  0
  5  8  1  0  0  0
  5  9  1  0  0  0
M  END
> <minimizedAffinity>
-6.18426

$$$$
3B27_B2T_A_1


 18 19  0  0  0  0  0  0  0  0999 V2000
   12.6138   -0.4277   16.3393 C   0  0  0  0  0  0  0  0  0  0  0  0
   11.9422    0.0607   15.2826 N   0  0  0  0  0  0  0  0  0  0  0  0
   12.0016   -0.9584   17.3924 N   0  0  0  0  0  0  0  0  0  0  0  0
   10.6664   -1.1080   17.3740 C   0  0  0  0  0  0  0  0  0  0  0  0
   10.0321   -1.6269   18.4049 N   0  0  0  0  0  0  0  0  0  0  0  0
    9.9667   -0.6135   16.3279 N   0  0  0  0  0  0  0  0  0  0  0  0
   10.5934   -0.0405   15.2837 C   0  0  0  0  0  0  0  0  0  0  0  0
   10.5419   -1.9869   19.1663 H   0  0  0  0  0  0  0  0  0  0  0  0
    9.0480   -1.6550   18.4141 H   0  0  0  0  0  0  0  0  0  0  0  0
    9.8226    0.4507   14.2178 C   0  0  0  0  0  0  0  0  0  0  0  0
    9.2396   -0.4605   13.3370 C   0  0  0  0  0  0  0  0  0  0  0  0
    8.4784    0.0329   12.2600 C   0  0  0  0  0  0  0  0  0  0  0  0
    8.3246    1.4177   12.0955 C   0  0  0  0  0  0  0  0  0  0  0  0
    8.9114    2.3313   12.9611 C   0  0  0  0  0  0  0  0  0  0  0  0
    9.6640    1.8415   14.0382 C   0  0  0  0  0  0  0  0  0  0  0  0
   10.4393    3.0172   15.0518 Cl  0  0  0  0  0  0  0  0  0  0  0  0
   14.6436    1.3801   15.7466 C   0  0  0  0  0  0  0  0  0  0  0  0
   14.3414   -0.2425   16.4668 S   0  0  0  0  0  0  0  0  0  0  0  0
 17 18  1  0  0  0
 18  1  1  0  0  0
  1  2  2  0  0  0
  1  3  1  0  0  0
  2  7  1  0  0  0
  3  4  2  0  0  0
  4  5  1  0  0  0
  4  6  1  0  0  0
  6  7  2  0  0  0
  7 10  1  0  0  0
 10 11  2  0  0  0
 10 15  1  0  0  0
 11 12  1  0  0  0
 12 13  2  0  0  0
 13 14  1  0  0  0
 14 15  2  0  0  0
 15 16  1  0  0  0
  5  8  1  0  0  0
  5  9  1  0  0  0
M  END
> <minimizedAffinity>
-6.16838

$$$$
3B27_B2T_A_1


 18 19  0  0  0  0  0  0  0  0999 V2000
   10.8234   -0.8948   16.7388 C   0  0  0  0  0  0  0  0  0  0  0  0
   10.3225    0.1303   16.0287 N   0  0  0  0  0  0  0  0  0  0  0  0
   10.9160   -2.1264   16.2487 N   0  0  0  0  0  0  0  0  0  0  0  0
   10.5910   -2.3523   14.9647 C   0  0  0  0  0  0  0  0  0  0  0  0
   10.6687   -3.5631   14.4527 N   0  0  0  0  0  0  0  0  0  0  0  0
   10.0728   -1.3401   14.2328 N   0  0  0  0  0  0  0  0  0  0  0  0
    9.9449   -0.1047   14.7513 C   0  0  0  0  0  0  0  0  0  0  0  0
   11.0461   -4.2997   14.9859 H   0  0  0  0  0  0  0  0  0  0  0  0
   10.3496   -3.7317   13.5368 H   0  0  0  0  0  0  0  0  0  0  0  0
    9.4084    0.9145   13.9483 C   0  0  0  0  0  0  0  0  0  0  0  0
    8.0532    0.8664   13.6213 C   0  0  0  0  0  0  0  0  0  0  0  0
    7.5186    1.8810   12.8042 C   0  0  0  0  0  0  0  0  0  0  0  0
    8.3523    2.9090   12.3390 C   0  0  0  0  0  0  0  0  0  0  0  0
    9.7047    2.9576   12.6505 C   0  0  0  0  0  0  0  0  0  0  0  0
   10.2372    1.9517   13.4698 C   0  0  0  0  0  0  0  0  0  0  0  0
   11.9445    2.0102   13.7738 Cl  0  0  0  0  0  0  0  0  0  0  0  0
    9.6878   -1.0614   19.2730 C   0  0  0  0  0  0  0  0  0  0  0  0
   11.2336   -0.7040   18.4212 S   0  0  0  0  0  0  0  0  0  0  0  0
 17 18  1  0  0  0
 18  1  1  0  0  0
  1  2  2  0  0  0
  1  3  1  0  0  0
  2  7  1  0  0  0
  3  4  2  0  0  0
  4  5  1  0  0  0
  4  6  1  0  0  0
  6  7  2  0  0  0
  7 10  1  0  0  0
 10 11  2  0  0  0
 10 15  1  0  0  0
 11 12  1  0  0  0
 12 13  2  0  0  0
 13 14  1  0  0  0
 14 15  2  0  0  0
 15 16  1  0  0  0
  5  8  1  0  0  0
  5  9  1  0  0  0
M  END
> <minimizedAffinity>
-6.15494

$$$$
