3B27_B2T_A_1
  RCSB PDB12061707583D
Coordinates from PDB:3B27:A:1 Model:1 without hydrogens
 16 17  0  0  0  0            999 V2000
   13.6390    4.6690   12.6910   C 0  0  0  0  0  0  0  0  0  0  0  0
   12.1830    5.4520   11.9770   S 0  0  0  0  0  0  0  0  0  0  0  0
   10.8620    4.5170   12.6220   C 0  0  0  0  0  0  0  0  0  0  0  0
   11.0520    3.2590   13.0550   N 0  0  0  0  0  0  0  0  0  0  0  0
    9.6570    5.0710   12.5410   N 0  0  0  0  0  0  0  0  0  0  0  0
    8.5880    4.3960   12.9960   C 0  0  0  0  0  0  0  0  0  0  0  0
    7.3810    4.9180   12.9250   N 0  0  0  0  0  0  0  0  0  0  0  0
    8.7510    3.1240   13.4250   N 0  0  0  0  0  0  0  0  0  0  0  0
    9.9710    2.5570   13.4650   C 0  0  0  0  0  0  0  0  0  0  0  0
   10.0890    1.2360   13.9260   C 0  0  0  0  0  0  0  0  0  0  0  0
   10.9340    0.9760   15.0050   C 0  0  0  0  0  0  0  0  0  0  0  0
   11.0630   -0.3510   15.4580   C 0  0  0  0  0  0  0  0  0  0  0  0
   10.3470   -1.3750   14.8200   C 0  0  0  0  0  0  0  0  0  0  0  0
    9.5130   -1.1260   13.7380   C 0  0  0  0  0  0  0  0  0  0  0  0
    9.3780    0.1960   13.2900   C 0  0  0  0  0  0  0  0  0  0  0  0
    8.3840    0.4520   11.8910  Cl 0  0  0  0  0  0  0  0  0  0  0  0
  1  2  1  0  0  0  0
  2  3  1  0  0  0  0
  3  4  2  0  0  0  0
  3  5  1  0  0  0  0
  4  9  1  0  0  0  0
  5  6  2  0  0  0  0
  6  7  1  0  0  0  0
  6  8  1  0  0  0  0
  8  9  2  0  0  0  0
  9 10  1  0  0  0  0
 10 11  2  0  0  0  0
 10 15  1  0  0  0  0
 11 12  1  0  0  0  0
 12 13  2  0  0  0  0
 13 14  1  0  0  0  0
 14 15  2  0  0  0  0
 15 16  1  0  0  0  0
A    1
C1
A    2
S2
A    3
C3
A    4
N4
A    5
N5
A    6
C6
A    7
N7
A    8
N10
A    9
C11
A   10
C12
A   11
C13
A   12
C14
A   13
C15
A   14
C16
A   15
C17
A   16
CL18
M  END
>  <InstanceId>
3B27_B2T_A_1

>  <ChemCompId>
B2T

>  <PdbId>
3B27

>  <ChainId>
A

>  <ResidueNumber>
1

>  <InsertionCode>


>  <Model>
1

>  <AltIds>


>  <MissingHeavyAtoms>
0

>  <ObservedFormula>
C10 N4 S Cl

>  <Name>
4-(2-chlorophenyl)-6-(methylsulfanyl)-1,3,5-triazin-2-amine

>  <SystematicName>
4-(2-chlorophenyl)-6-methylsulfanyl-1,3,5-triazin-2-amine

>  <Synonyms>


>  <Type>
NON-POLYMER

>  <Formula>
C10 H9 Cl N4 S

>  <MolecularWeight>
252.723

>  <ModifiedDate>
2011-09-09

>  <Parent>


>  <OneLetterCode>


>  <SubcomponentList>


>  <AmbiguousFlag>
N

>  <InChI>
InChI=1S/C10H9ClN4S/c1-16-10-14-8(13-9(12)15-10)6-4-2-3-5-7(6)11/h2-5H,1H3,(H2,12,13,14,15)

>  <InChIKey>
JVOIPLKVZOLUDL-UHFFFAOYSA-N

>  <SMILES>
CSc1nc(nc(n1)N)c2ccccc2Cl

$$$$
