5FNF_TQL_A_1226


 20 21  0  0  0  0  0  0  0  0999 V2000
    0.2841   10.0025   25.8386 C   0  0  0  0  0  0  0  0  0  0  0  0
   -0.3828   10.1995   26.9552 N   0  0  0  0  0  0  0  0  0  0  0  0
   -0.1687    9.1967   27.8590 O   0  0  0  0  0  0  0  0  0  0  0  0
   -0.5894    9.2224   28.6959 H   0  0  0  0  0  0  0  0  0  0  0  0
    0.2044   10.8988   24.7614 C   0  0  0  0  0  0  0  0  0  0  0  0
    1.4299   11.3953   24.3244 C   0  0  0  0  0  0  0  0  0  0  0  0
    1.4824   12.2076   23.1940 C   0  0  0  0  0  0  0  0  0  0  0  0
    0.3292   12.5056   22.4982 C   0  0  0  0  0  0  0  0  0  0  0  0
    0.3744   13.2722   21.4023 O   0  0  0  0  0  0  0  0  0  0  0  0
   -0.9002   12.0439   22.9271 C   0  0  0  0  0  0  0  0  0  0  0  0
   -0.9669   11.2433   24.0425 C   0  0  0  0  0  0  0  0  0  0  0  0
   -2.1849   10.8821   24.4769 O   0  0  0  0  0  0  0  0  0  0  0  0
    1.1964   13.5975   21.0916 H   0  0  0  0  0  0  0  0  0  0  0  0
   -2.2696   10.3369   25.2342 H   0  0  0  0  0  0  0  0  0  0  0  0
    2.3158    8.5167   26.0337 C   0  0  0  0  0  0  0  0  0  0  0  0
    3.0211    7.3233   25.7936 C   0  0  0  0  0  0  0  0  0  0  0  0
    2.4443    6.2912   25.0523 C   0  0  0  0  0  0  0  0  0  0  0  0
    1.0780    6.5204   24.5819 N   0  0  0  0  0  0  0  0  0  0  0  0
    0.4008    7.7439   24.8400 C   0  0  0  0  0  0  0  0  0  0  0  0
    0.9891    8.7723   25.5942 C   0  0  0  0  0  0  0  0  0  0  0  0
 15 16  2  0  0  0
 15 20  1  0  0  0
 16 17  1  0  0  0
 17 18  2  0  0  0
 18 19  1  0  0  0
 19 20  2  0  0  0
 20  1  1  0  0  0
  1  2  2  0  0  0
  1  5  1  0  0  0
  2  3  1  0  0  0
  5  6  1  0  0  0
  5 11  2  0  0  0
  6  7  2  0  0  0
  7  8  1  0  0  0
  8  9  1  0  0  0
  8 10  2  0  0  0
 10 11  1  0  0  0
 11 12  1  0  0  0
  3  4  1  0  0  0
  9 13  1  0  0  0
 12 14  1  0  0  0
M  END
> <minimizedAffinity>
-7.07452

$$$$
5FNF_TQL_A_1226


 20 21  0  0  0  0  0  0  0  0999 V2000
    1.2502   10.8967   24.3082 C   0  0  0  0  0  0  0  0  0  0  0  0
    0.7611   10.1746   25.2929 N   0  0  0  0  0  0  0  0  0  0  0  0
    1.7430    9.5069   25.9701 O   0  0  0  0  0  0  0  0  0  0  0  0
    1.5209    8.9570   26.6956 H   0  0  0  0  0  0  0  0  0  0  0  0
    0.4231   11.6569   23.4667 C   0  0  0  0  0  0  0  0  0  0  0  0
    1.0995   12.4123   22.5121 C   0  0  0  0  0  0  0  0  0  0  0  0
    0.3779   13.1208   21.5542 C   0  0  0  0  0  0  0  0  0  0  0  0
   -1.0002   13.0616   21.5378 C   0  0  0  0  0  0  0  0  0  0  0  0
   -1.6991   13.7270   20.6107 O   0  0  0  0  0  0  0  0  0  0  0  0
   -1.6927   12.3382   22.4894 C   0  0  0  0  0  0  0  0  0  0  0  0
   -0.9933   11.6361   23.4421 C   0  0  0  0  0  0  0  0  0  0  0  0
   -1.6997   11.0129   24.3988 O   0  0  0  0  0  0  0  0  0  0  0  0
   -1.2521   14.2248   19.9548 H   0  0  0  0  0  0  0  0  0  0  0  0
   -1.2572   10.5246   25.0649 H   0  0  0  0  0  0  0  0  0  0  0  0
    3.5842   11.8442   24.1405 C   0  0  0  0  0  0  0  0  0  0  0  0
    4.9390   11.7754   23.7673 C   0  0  0  0  0  0  0  0  0  0  0  0
    5.4421   10.6495   23.1140 C   0  0  0  0  0  0  0  0  0  0  0  0
    4.4922    9.5616   22.8794 N   0  0  0  0  0  0  0  0  0  0  0  0
    3.1283    9.6723   23.2661 C   0  0  0  0  0  0  0  0  0  0  0  0
    2.6356   10.8076   23.9301 C   0  0  0  0  0  0  0  0  0  0  0  0
 15 16  2  0  0  0
 15 20  1  0  0  0
 16 17  1  0  0  0
 17 18  2  0  0  0
 18 19  1  0  0  0
 19 20  2  0  0  0
 20  1  1  0  0  0
  1  2  2  0  0  0
  1  5  1  0  0  0
  2  3  1  0  0  0
  5  6  1  0  0  0
  5 11  2  0  0  0
  6  7  2  0  0  0
  7  8  1  0  0  0
  8  9  1  0  0  0
  8 10  2  0  0  0
 10 11  1  0  0  0
 11 12  1  0  0  0
  3  4  1  0  0  0
  9 13  1  0  0  0
 12 14  1  0  0  0
M  END
> <minimizedAffinity>
-6.78679

$$$$
5FNF_TQL_A_1226


 20 21  0  0  0  0  0  0  0  0999 V2000
    0.3509    9.7703   25.5908 C   0  0  0  0  0  0  0  0  0  0  0  0
    0.0003    9.9172   26.8501 N   0  0  0  0  0  0  0  0  0  0  0  0
   -0.8161   10.9990   27.0277 O   0  0  0  0  0  0  0  0  0  0  0  0
   -1.1347   11.2101   27.8832 H   0  0  0  0  0  0  0  0  0  0  0  0
    1.1996    8.7324   25.1755 C   0  0  0  0  0  0  0  0  0  0  0  0
    2.5584    8.9899   25.3392 C   0  0  0  0  0  0  0  0  0  0  0  0
    3.4888    7.9908   25.0625 C   0  0  0  0  0  0  0  0  0  0  0  0
    3.0677    6.7452   24.6454 C   0  0  0  0  0  0  0  0  0  0  0  0
    3.9550    5.7758   24.3931 O   0  0  0  0  0  0  0  0  0  0  0  0
    1.7266    6.4748   24.4532 C   0  0  0  0  0  0  0  0  0  0  0  0
    0.7977    7.4524   24.7202 C   0  0  0  0  0  0  0  0  0  0  0  0
   -0.4877    7.1812   24.4433 O   0  0  0  0  0  0  0  0  0  0  0  0
    4.8702    5.9349   24.5159 H   0  0  0  0  0  0  0  0  0  0  0  0
   -1.1489    7.8233   24.6120 H   0  0  0  0  0  0  0  0  0  0  0  0
    0.9093   11.8082   24.2093 C   0  0  0  0  0  0  0  0  0  0  0  0
    0.6043   12.7933   23.2522 C   0  0  0  0  0  0  0  0  0  0  0  0
   -0.6450   12.8209   22.6309 C   0  0  0  0  0  0  0  0  0  0  0  0
   -1.5789   11.7614   23.0128 N   0  0  0  0  0  0  0  0  0  0  0  0
   -1.2351   10.7870   23.9899 C   0  0  0  0  0  0  0  0  0  0  0  0
    0.0285   10.7650   24.6024 C   0  0  0  0  0  0  0  0  0  0  0  0
 15 16  2  0  0  0
 15 20  1  0  0  0
 16 17  1  0  0  0
 17 18  2  0  0  0
 18 19  1  0  0  0
 19 20  2  0  0  0
 20  1  1  0  0  0
  1  2  2  0  0  0
  1  5  1  0  0  0
  2  3  1  0  0  0
  5  6  1  0  0  0
  5 11  2  0  0  0
  6  7  2  0  0  0
  7  8  1  0  0  0
  8  9  1  0  0  0
  8 10  2  0  0  0
 10 11  1  0  0  0
 11 12  1  0  0  0
  3  4  1  0  0  0
  9 13  1  0  0  0
 12 14  1  0  0  0
M  END
> <minimizedAffinity>
-6.60380

$$$$
5FNF_TQL_A_1226


 20 21  0  0  0  0  0  0  0  0999 V2000
   -0.0188   10.2744   25.7905 C   0  0  0  0  0  0  0  0  0  0  0  0
   -0.7692   10.6830   26.7907 N   0  0  0  0  0  0  0  0  0  0  0  0
   -0.7028    9.8306   27.8573 O   0  0  0  0  0  0  0  0  0  0  0  0
   -1.1945   10.0128   28.6338 H   0  0  0  0  0  0  0  0  0  0  0  0
    0.0571   10.9869   24.5836 C   0  0  0  0  0  0  0  0  0  0  0  0
   -1.1743   11.3041   24.0156 C   0  0  0  0  0  0  0  0  0  0  0  0
   -1.2235   12.1021   22.8750 C   0  0  0  0  0  0  0  0  0  0  0  0
   -0.0602   12.5925   22.3190 C   0  0  0  0  0  0  0  0  0  0  0  0
   -0.1011   13.3728   21.2327 O   0  0  0  0  0  0  0  0  0  0  0  0
    1.1735   12.2712   22.8514 C   0  0  0  0  0  0  0  0  0  0  0  0
    1.2369   11.4826   23.9756 C   0  0  0  0  0  0  0  0  0  0  0  0
    2.4535   11.1235   24.4155 O   0  0  0  0  0  0  0  0  0  0  0  0
   -0.9258   13.6046   20.8532 H   0  0  0  0  0  0  0  0  0  0  0  0
    2.5360   10.5864   25.1788 H   0  0  0  0  0  0  0  0  0  0  0  0
    1.7971    8.6988   26.5605 C   0  0  0  0  0  0  0  0  0  0  0  0
    2.4421    7.4486   26.5844 C   0  0  0  0  0  0  0  0  0  0  0  0
    1.9632    6.3848   25.8187 C   0  0  0  0  0  0  0  0  0  0  0  0
    0.7561    6.6464   25.0344 N   0  0  0  0  0  0  0  0  0  0  0  0
    0.1369    7.9266   25.0319 C   0  0  0  0  0  0  0  0  0  0  0  0
    0.6238    8.9873   25.8130 C   0  0  0  0  0  0  0  0  0  0  0  0
 15 16  2  0  0  0
 15 20  1  0  0  0
 16 17  1  0  0  0
 17 18  2  0  0  0
 18 19  1  0  0  0
 19 20  2  0  0  0
 20  1  1  0  0  0
  1  2  2  0  0  0
  1  5  1  0  0  0
  2  3  1  0  0  0
  5  6  1  0  0  0
  5 11  2  0  0  0
  6  7  2  0  0  0
  7  8  1  0  0  0
  8  9  1  0  0  0
  8 10  2  0  0  0
 10 11  1  0  0  0
 11 12  1  0  0  0
  3  4  1  0  0  0
  9 13  1  0  0  0
 12 14  1  0  0  0
M  END
> <minimizedAffinity>
-6.56905

$$$$
5FNF_TQL_A_1226


 20 21  0  0  0  0  0  0  0  0999 V2000
    1.4278   11.9282   23.5528 C   0  0  0  0  0  0  0  0  0  0  0  0
    0.7517   12.1378   22.4440 N   0  0  0  0  0  0  0  0  0  0  0  0
   -0.5470   11.7262   22.5549 O   0  0  0  0  0  0  0  0  0  0  0  0
   -1.1325   11.8223   21.8297 H   0  0  0  0  0  0  0  0  0  0  0  0
    2.7869   12.2605   23.6645 C   0  0  0  0  0  0  0  0  0  0  0  0
    3.0397   13.4768   24.2939 C   0  0  0  0  0  0  0  0  0  0  0  0
    4.3534   13.8583   24.5568 C   0  0  0  0  0  0  0  0  0  0  0  0
    5.4002   13.0285   24.2127 C   0  0  0  0  0  0  0  0  0  0  0  0
    6.6637   13.3814   24.4767 O   0  0  0  0  0  0  0  0  0  0  0  0
    5.1743   11.8286   23.5662 C   0  0  0  0  0  0  0  0  0  0  0  0
    3.8830   11.4409   23.2984 C   0  0  0  0  0  0  0  0  0  0  0  0
    3.7061   10.3101   22.5964 O   0  0  0  0  0  0  0  0  0  0  0  0
    6.8425   14.1904   24.9143 H   0  0  0  0  0  0  0  0  0  0  0  0
    2.8401   10.0145   22.3948 H   0  0  0  0  0  0  0  0  0  0  0  0
    1.2647    9.8753   25.0130 C   0  0  0  0  0  0  0  0  0  0  0  0
    0.7122    9.1350   26.0742 C   0  0  0  0  0  0  0  0  0  0  0  0
   -0.3300    9.6576   26.8412 C   0  0  0  0  0  0  0  0  0  0  0  0
   -0.7738   11.0074   26.4921 N   0  0  0  0  0  0  0  0  0  0  0  0
   -0.1938   11.7209   25.4074 C   0  0  0  0  0  0  0  0  0  0  0  0
    0.8600   11.1873   24.6478 C   0  0  0  0  0  0  0  0  0  0  0  0
 15 16  2  0  0  0
 15 20  1  0  0  0
 16 17  1  0  0  0
 17 18  2  0  0  0
 18 19  1  0  0  0
 19 20  2  0  0  0
 20  1  1  0  0  0
  1  2  2  0  0  0
  1  5  1  0  0  0
  2  3  1  0  0  0
  5  6  1  0  0  0
  5 11  2  0  0  0
  6  7  2  0  0  0
  7  8  1  0  0  0
  8  9  1  0  0  0
  8 10  2  0  0  0
 10 11  1  0  0  0
 11 12  1  0  0  0
  3  4  1  0  0  0
  9 13  1  0  0  0
 12 14  1  0  0  0
M  END
> <minimizedAffinity>
-6.54936

$$$$
5FNF_TQL_A_1226


 20 21  0  0  0  0  0  0  0  0999 V2000
    3.9093    9.6244   22.9158 C   0  0  0  0  0  0  0  0  0  0  0  0
    4.5057    9.1656   21.8369 N   0  0  0  0  0  0  0  0  0  0  0  0
    4.2103    7.8499   21.6133 O   0  0  0  0  0  0  0  0  0  0  0  0
    4.5757    7.4069   20.8728 H   0  0  0  0  0  0  0  0  0  0  0  0
    4.0796   10.9487   23.3486 C   0  0  0  0  0  0  0  0  0  0  0  0
    2.8973   11.6685   23.5017 C   0  0  0  0  0  0  0  0  0  0  0  0
    2.9367   12.9571   24.0292 C   0  0  0  0  0  0  0  0  0  0  0  0
    4.1384   13.5132   24.4161 C   0  0  0  0  0  0  0  0  0  0  0  0
    4.1818   14.7445   24.9383 O   0  0  0  0  0  0  0  0  0  0  0  0
    5.3260   12.8270   24.2512 C   0  0  0  0  0  0  0  0  0  0  0  0
    5.3019   11.5553   23.7296 C   0  0  0  0  0  0  0  0  0  0  0  0
    6.4806   10.9520   23.5073 O   0  0  0  0  0  0  0  0  0  0  0  0
    3.3897   15.2300   25.0600 H   0  0  0  0  0  0  0  0  0  0  0  0
    6.5035   10.0850   23.1525 H   0  0  0  0  0  0  0  0  0  0  0  0
    3.7942    8.0625   24.8959 C   0  0  0  0  0  0  0  0  0  0  0  0
    3.1104    7.1961   25.7683 C   0  0  0  0  0  0  0  0  0  0  0  0
    1.7533    6.9267   25.5865 C   0  0  0  0  0  0  0  0  0  0  0  0
    1.1024    7.6161   24.4722 N   0  0  0  0  0  0  0  0  0  0  0  0
    1.8303    8.4797   23.6082 C   0  0  0  0  0  0  0  0  0  0  0  0
    3.1943    8.7491   23.8062 C   0  0  0  0  0  0  0  0  0  0  0  0
 15 16  2  0  0  0
 15 20  1  0  0  0
 16 17  1  0  0  0
 17 18  2  0  0  0
 18 19  1  0  0  0
 19 20  2  0  0  0
 20  1  1  0  0  0
  1  2  2  0  0  0
  1  5  1  0  0  0
  2  3  1  0  0  0
  5  6  1  0  0  0
  5 11  2  0  0  0
  6  7  2  0  0  0
  7  8  1  0  0  0
  8  9  1  0  0  0
  8 10  2  0  0  0
 10 11  1  0  0  0
 11 12  1  0  0  0
  3  4  1  0  0  0
  9 13  1  0  0  0
 12 14  1  0  0  0
M  END
> <minimizedAffinity>
-6.47030

$$$$
5FNF_TQL_A_1226


 20 21  0  0  0  0  0  0  0  0999 V2000
    4.8752    9.1132   22.3936 C   0  0  0  0  0  0  0  0  0  0  0  0
    4.7882    9.0296   21.0837 N   0  0  0  0  0  0  0  0  0  0  0  0
    4.7948    7.7315   20.6556 O   0  0  0  0  0  0  0  0  0  0  0  0
    4.7376    7.5397   19.7402 H   0  0  0  0  0  0  0  0  0  0  0  0
    4.9005   10.3506   23.0557 C   0  0  0  0  0  0  0  0  0  0  0  0
    6.1704   10.7900   23.4215 C   0  0  0  0  0  0  0  0  0  0  0  0
    6.3277   12.0532   23.9871 C   0  0  0  0  0  0  0  0  0  0  0  0
    5.2344   12.8745   24.1685 C   0  0  0  0  0  0  0  0  0  0  0  0
    5.3803   14.0954   24.6965 O   0  0  0  0  0  0  0  0  0  0  0  0
    3.9625   12.4502   23.8353 C   0  0  0  0  0  0  0  0  0  0  0  0
    3.7925   11.2050   23.2784 C   0  0  0  0  0  0  0  0  0  0  0  0
    2.5357   10.7947   23.0443 O   0  0  0  0  0  0  0  0  0  0  0  0
    6.2328   14.4057   24.9307 H   0  0  0  0  0  0  0  0  0  0  0  0
    2.3809    9.9518   22.6657 H   0  0  0  0  0  0  0  0  0  0  0  0
    6.4082    7.3592   23.3664 C   0  0  0  0  0  0  0  0  0  0  0  0
    6.6678    6.2175   24.1465 C   0  0  0  0  0  0  0  0  0  0  0  0
    5.6323    5.5555   24.8076 C   0  0  0  0  0  0  0  0  0  0  0  0
    4.2977    6.1367   24.6610 N   0  0  0  0  0  0  0  0  0  0  0  0
    4.0752    7.2888   23.8577 C   0  0  0  0  0  0  0  0  0  0  0  0
    5.1269    7.9510   23.2035 C   0  0  0  0  0  0  0  0  0  0  0  0
 15 16  2  0  0  0
 15 20  1  0  0  0
 16 17  1  0  0  0
 17 18  2  0  0  0
 18 19  1  0  0  0
 19 20  2  0  0  0
 20  1  1  0  0  0
  1  2  2  0  0  0
  1  5  1  0  0  0
  2  3  1  0  0  0
  5  6  1  0  0  0
  5 11  2  0  0  0
  6  7  2  0  0  0
  7  8  1  0  0  0
  8  9  1  0  0  0
  8 10  2  0  0  0
 10 11  1  0  0  0
 11 12  1  0  0  0
  3  4  1  0  0  0
  9 13  1  0  0  0
 12 14  1  0  0  0
M  END
> <minimizedAffinity>
-6.45327

$$$$
5FNF_TQL_A_1226


 20 21  0  0  0  0  0  0  0  0999 V2000
    1.3552    8.1748   26.6148 C   0  0  0  0  0  0  0  0  0  0  0  0
    2.2729    8.4058   27.5284 N   0  0  0  0  0  0  0  0  0  0  0  0
    2.8447    7.2487   27.9785 O   0  0  0  0  0  0  0  0  0  0  0  0
    3.5146    7.2808   28.6329 H   0  0  0  0  0  0  0  0  0  0  0  0
    0.6250    9.2157   26.0201 C   0  0  0  0  0  0  0  0  0  0  0  0
    0.9524    9.4719   24.6910 C   0  0  0  0  0  0  0  0  0  0  0  0
    0.2186   10.4091   23.9674 C   0  0  0  0  0  0  0  0  0  0  0  0
   -0.8398   11.0687   24.5571 C   0  0  0  0  0  0  0  0  0  0  0  0
   -1.5590   11.9585   23.8631 O   0  0  0  0  0  0  0  0  0  0  0  0
   -1.1672   10.8480   25.8810 C   0  0  0  0  0  0  0  0  0  0  0  0
   -0.4499    9.9275   26.6075 C   0  0  0  0  0  0  0  0  0  0  0  0
   -0.7427    9.8000   27.9116 O   0  0  0  0  0  0  0  0  0  0  0  0
   -1.3562   12.1256   22.9637 H   0  0  0  0  0  0  0  0  0  0  0  0
   -0.2746    9.1826   28.4386 H   0  0  0  0  0  0  0  0  0  0  0  0
   -0.1200    6.1602   26.9869 C   0  0  0  0  0  0  0  0  0  0  0  0
   -0.5430    4.8490   26.7018 C   0  0  0  0  0  0  0  0  0  0  0  0
    0.0888    4.0957   25.7114 C   0  0  0  0  0  0  0  0  0  0  0  0
    1.1731    4.7607   24.9884 N   0  0  0  0  0  0  0  0  0  0  0  0
    1.5756    6.0859   25.3111 C   0  0  0  0  0  0  0  0  0  0  0  0
    0.9267    6.8367   26.3048 C   0  0  0  0  0  0  0  0  0  0  0  0
 15 16  2  0  0  0
 15 20  1  0  0  0
 16 17  1  0  0  0
 17 18  2  0  0  0
 18 19  1  0  0  0
 19 20  2  0  0  0
 20  1  1  0  0  0
  1  2  2  0  0  0
  1  5  1  0  0  0
  2  3  1  0  0  0
  5  6  1  0  0  0
  5 11  2  0  0  0
  6  7  2  0  0  0
  7  8  1  0  0  0
  8  9  1  0  0  0
  8 10  2  0  0  0
 10 11  1  0  0  0
 11 12  1  0  0  0
  3  4  1  0  0  0
  9 13  1  0  0  0
 12 14  1  0  0  0
M  END
> <minimizedAffinity>
-6.43336

$$$$
5FNF_TQL_A_1226


 20 21  0  0  0  0  0  0  0  0999 V2000
    0.2148    9.6398   25.7556 C   0  0  0  0  0  0  0  0  0  0  0  0
   -0.1954    9.8168   26.9928 N   0  0  0  0  0  0  0  0  0  0  0  0
   -0.8760   10.9931   27.1394 O   0  0  0  0  0  0  0  0  0  0  0  0
   -1.2200   11.2341   27.9769 H   0  0  0  0  0  0  0  0  0  0  0  0
    0.9485    8.5054   25.3747 C   0  0  0  0  0  0  0  0  0  0  0  0
    0.6005    7.9756   24.1347 C   0  0  0  0  0  0  0  0  0  0  0  0
    1.3341    6.9159   23.6062 C   0  0  0  0  0  0  0  0  0  0  0  0
    2.4122    6.4036   24.2977 C   0  0  0  0  0  0  0  0  0  0  0  0
    3.1310    5.3962   23.7887 O   0  0  0  0  0  0  0  0  0  0  0  0
    2.7606    6.8977   25.5399 C   0  0  0  0  0  0  0  0  0  0  0  0
    2.0439    7.9418   26.0745 C   0  0  0  0  0  0  0  0  0  0  0  0
    2.3587    8.3403   27.3174 O   0  0  0  0  0  0  0  0  0  0  0  0
    2.9142    5.0441   22.9479 H   0  0  0  0  0  0  0  0  0  0  0  0
    1.8917    9.0489   27.7145 H   0  0  0  0  0  0  0  0  0  0  0  0
   -1.1249   10.9949   24.0996 C   0  0  0  0  0  0  0  0  0  0  0  0
   -1.2616   12.0007   23.1254 C   0  0  0  0  0  0  0  0  0  0  0  0
   -0.1600   12.7562   22.7215 C   0  0  0  0  0  0  0  0  0  0  0  0
    1.1072   12.4568   23.3887 N   0  0  0  0  0  0  0  0  0  0  0  0
    1.2058   11.4271   24.3645 C   0  0  0  0  0  0  0  0  0  0  0  0
    0.0882   10.6788   24.7684 C   0  0  0  0  0  0  0  0  0  0  0  0
 15 16  2  0  0  0
 15 20  1  0  0  0
 16 17  1  0  0  0
 17 18  2  0  0  0
 18 19  1  0  0  0
 19 20  2  0  0  0
 20  1  1  0  0  0
  1  2  2  0  0  0
  1  5  1  0  0  0
  2  3  1  0  0  0
  5  6  1  0  0  0
  5 11  2  0  0  0
  6  7  2  0  0  0
  7  8  1  0  0  0
  8  9  1  0  0  0
  8 10  2  0  0  0
 10 11  1  0  0  0
 11 12  1  0  0  0
  3  4  1  0  0  0
  9 13  1  0  0  0
 12 14  1  0  0  0
M  END
> <minimizedAffinity>
-6.30194

$$$$
5FNF_TQL_A_1226


 20 21  0  0  0  0  0  0  0  0999 V2000
    1.5347    9.1830   24.7432 C   0  0  0  0  0  0  0  0  0  0  0  0
    1.7857    9.1596   26.0343 N   0  0  0  0  0  0  0  0  0  0  0  0
    2.5818    8.1030   26.3783 O   0  0  0  0  0  0  0  0  0  0  0  0
    2.8321    7.9766   27.2724 H   0  0  0  0  0  0  0  0  0  0  0  0
    0.7247   10.1729   24.1650 C   0  0  0  0  0  0  0  0  0  0  0  0
   -0.6208   10.1041   24.5174 C   0  0  0  0  0  0  0  0  0  0  0  0
   -1.4981   11.0982   24.0903 C   0  0  0  0  0  0  0  0  0  0  0  0
   -1.0352   12.1568   23.3367 C   0  0  0  0  0  0  0  0  0  0  0  0
   -1.8694   13.1235   22.9364 O   0  0  0  0  0  0  0  0  0  0  0  0
    0.2904   12.2329   22.9552 C   0  0  0  0  0  0  0  0  0  0  0  0
    1.1667   11.2575   23.3678 C   0  0  0  0  0  0  0  0  0  0  0  0
    2.4273   11.3199   22.9099 O   0  0  0  0  0  0  0  0  0  0  0  0
   -2.7731   13.0941   23.1822 H   0  0  0  0  0  0  0  0  0  0  0  0
    3.0527   10.6723   23.1696 H   0  0  0  0  0  0  0  0  0  0  0  0
    3.2301    7.9581   23.3295 C   0  0  0  0  0  0  0  0  0  0  0  0
    3.6275    6.9097   22.4796 C   0  0  0  0  0  0  0  0  0  0  0  0
    2.7194    5.9236   22.0916 C   0  0  0  0  0  0  0  0  0  0  0  0
    1.3688    6.0376   22.6425 N   0  0  0  0  0  0  0  0  0  0  0  0
    1.0042    7.1168   23.4936 C   0  0  0  0  0  0  0  0  0  0  0  0
    1.9294    8.0990   23.8834 C   0  0  0  0  0  0  0  0  0  0  0  0
 15 16  2  0  0  0
 15 20  1  0  0  0
 16 17  1  0  0  0
 17 18  2  0  0  0
 18 19  1  0  0  0
 19 20  2  0  0  0
 20  1  1  0  0  0
  1  2  2  0  0  0
  1  5  1  0  0  0
  2  3  1  0  0  0
  5  6  1  0  0  0
  5 11  2  0  0  0
  6  7  2  0  0  0
  7  8  1  0  0  0
  8  9  1  0  0  0
  8 10  2  0  0  0
 10 11  1  0  0  0
 11 12  1  0  0  0
  3  4  1  0  0  0
  9 13  1  0  0  0
 12 14  1  0  0  0
M  END
> <minimizedAffinity>
-6.27472

$$$$
