5FNF_TQL_A_1226
  RCSB PDB12061717433D
Coordinates from PDB:5FNF:A:1226 Model:1 without hydrogens
 17 18  0  0  0  0            999 V2000
    1.8710    8.3730   26.5620   C 0  0  0  0  0  0  0  0  0  0  0  0
    2.6400    7.2150   26.3450   C 0  0  0  0  0  0  0  0  0  0  0  0
    2.3980    6.3950   25.2420   C 0  0  0  0  0  0  0  0  0  0  0  0
    1.2960    6.7980   24.3680   N 0  0  0  0  0  0  0  0  0  0  0  0
    0.5460    7.9800   24.6180   C 0  0  0  0  0  0  0  0  0  0  0  0
    0.7940    8.7930   25.7360   C 0  0  0  0  0  0  0  0  0  0  0  0
    0.0230    9.9860   25.9650   C 0  0  0  0  0  0  0  0  0  0  0  0
   -0.6960   10.1380   27.0560   N 0  0  0  0  0  0  0  0  0  0  0  0
   -0.4710    9.1350   27.9570   O 0  0  0  0  0  0  0  0  0  0  0  0
   -0.0560   10.8910   24.8950   C 0  0  0  0  0  0  0  0  0  0  0  0
    1.1610   11.1740   24.2800   C 0  0  0  0  0  0  0  0  0  0  0  0
    1.1890   11.9740   23.1400   C 0  0  0  0  0  0  0  0  0  0  0  0
    0.0160   12.4700   22.6100   C 0  0  0  0  0  0  0  0  0  0  0  0
    0.0340   13.2260   21.5060   O 0  0  0  0  0  0  0  0  0  0  0  0
   -1.2000   12.2220   23.2170   C 0  0  0  0  0  0  0  0  0  0  0  0
   -1.2420   11.4360   24.3440   C 0  0  0  0  0  0  0  0  0  0  0  0
   -2.4290   11.2850   24.9530   O 0  0  0  0  0  0  0  0  0  0  0  0
  1  2  2  0  0  0  0
  1  6  1  0  0  0  0
  2  3  1  0  0  0  0
  3  4  2  0  0  0  0
  4  5  1  0  0  0  0
  5  6  2  0  0  0  0
  6  7  1  0  0  0  0
  7  8  2  0  0  0  0
  7 10  1  0  0  0  0
  8  9  1  0  0  0  0
 10 11  1  0  0  0  0
 10 16  2  0  0  0  0
 11 12  2  0  0  0  0
 12 13  1  0  0  0  0
 13 14  1  0  0  0  0
 13 15  2  0  0  0  0
 15 16  1  0  0  0  0
 16 17  1  0  0  0  0
A    1
CAM
A    2
CAN
A    3
CAO
A    4
NAP
A    5
CAQ
A    6
CAL
A    7
CAI
A    8
NAJ
A    9
OAK
A   10
CAH
A   11
CAG
A   12
CAF
A   13
CAD
A   14
OAE
A   15
CAC
A   16
CAB
A   17
OAA
M  END
>  <InstanceId>
5FNF_TQL_A_1226

>  <ChemCompId>
TQL

>  <PdbId>
5FNF

>  <ChainId>
A

>  <ResidueNumber>
1226

>  <InsertionCode>


>  <Model>
1

>  <AltIds>


>  <MissingHeavyAtoms>
0

>  <ObservedFormula>
C12 N2 O3

>  <Name>
4-[(E)-N-oxidanyl-C-pyridin-3-yl-carbonimidoyl]benzene-1,3-diol

>  <SystematicName>
4-[(E)-N-oxidanyl-C-pyridin-3-yl-carbonimidoyl]benzene-1,3-diol

>  <Synonyms>


>  <Type>
non-polymer

>  <Formula>
C12 H10 N2 O3

>  <MolecularWeight>
230.219

>  <ModifiedDate>
2016-11-18

>  <Parent>


>  <OneLetterCode>


>  <SubcomponentList>


>  <AmbiguousFlag>
N

>  <InChI>
InChI=1S/C12H10N2O3/c15-9-3-4-10(11(16)6-9)12(14-17)8-2-1-5-13-7-8/h1-7,15-17H/b14-12+

>  <InChIKey>
HZURBZXRYDMRDT-WYMLVPIESA-N

>  <SMILES>
c1cc(cnc1)/C(=N\O)/c2ccc(cc2O)O

$$$$
