2POV_I7B_A_1000


 22 22  0  0  0  0  0  0  0  0999 V2000
   -5.1421    1.7096   14.6484 C   0  0  0  0  0  0  0  0  0  0  0  0
   -4.7574    2.4793   13.5359 C   0  0  0  0  0  0  0  0  0  0  0  0
   -4.9172    3.8845   13.5239 C   0  0  0  0  0  0  0  0  0  0  0  0
   -5.4692    4.5037   14.6548 C   0  0  0  0  0  0  0  0  0  0  0  0
   -5.8643    3.7506   15.7809 C   0  0  0  0  0  0  0  0  0  0  0  0
   -5.6960    2.3403   15.7743 C   0  0  0  0  0  0  0  0  0  0  0  0
   -4.5521    4.6777   12.4423 N   0  0  0  0  0  0  0  0  0  0  0  0
   -6.5209    4.5288   17.1185 Cl  0  0  0  0  0  0  0  0  0  0  0  0
   -4.1627    4.2645   11.6381 H   0  0  0  0  0  0  0  0  0  0  0  0
   -4.6829    5.6527   12.4806 H   0  0  0  0  0  0  0  0  0  0  0  0
   -4.0824    1.6477   12.1360 S   0  0  0  0  0  0  0  0  0  0  0  0
   -4.8755    2.1152   10.8544 N   0  0  0  0  0  0  0  0  0  0  0  0
   -2.7320    2.0723   11.9777 O   0  0  0  0  0  0  0  0  0  0  0  0
   -4.3478    0.2613   12.3421 O   0  0  0  0  0  0  0  0  0  0  0  0
   -4.4994    1.6444   10.0314 H   0  0  0  0  0  0  0  0  0  0  0  0
   -4.7776    3.1244   10.7433 H   0  0  0  0  0  0  0  0  0  0  0  0
   -6.1715    1.2999   17.1450 S   0  0  0  0  0  0  0  0  0  0  0  0
   -5.5450   -0.1301   16.9519 N   0  0  0  0  0  0  0  0  0  0  0  0
   -5.6205    1.8611   18.3394 O   0  0  0  0  0  0  0  0  0  0  0  0
   -7.5929    1.1611   17.0430 O   0  0  0  0  0  0  0  0  0  0  0  0
   -5.9218   -0.5548   16.1045 H   0  0  0  0  0  0  0  0  0  0  0  0
   -5.7755   -0.7137   17.7561 H   0  0  0  0  0  0  0  0  0  0  0  0
 14 11  2  0  0  0
 13 11  2  0  0  0
 11 12  1  0  0  0
 11  2  1  0  0  0
  7  3  1  0  0  0
  2  3  2  0  0  0
  2  1  1  0  0  0
  3  4  1  0  0  0
  1  6  2  0  0  0
  4  5  2  0  0  0
  6  5  1  0  0  0
  6 17  1  0  0  0
  5  8  1  0  0  0
 18 17  1  0  0  0
 17 20  2  0  0  0
 17 19  2  0  0  0
 12 15  1  0  0  0
 12 16  1  0  0  0
 18 21  1  0  0  0
 18 22  1  0  0  0
  7  9  1  0  0  0
  7 10  1  0  0  0
M  END
> <minimizedAffinity>
-8.25265

$$$$
2POV_I7B_A_1000


 22 22  0  0  0  0  0  0  0  0999 V2000
   -4.8390    2.0099   14.4483 C   0  0  0  0  0  0  0  0  0  0  0  0
   -4.6109    2.9755   13.4515 C   0  0  0  0  0  0  0  0  0  0  0  0
   -5.0299    4.3162   13.6176 C   0  0  0  0  0  0  0  0  0  0  0  0
   -5.6812    4.6698   14.8083 C   0  0  0  0  0  0  0  0  0  0  0  0
   -5.9224    3.7167   15.8205 C   0  0  0  0  0  0  0  0  0  0  0  0
   -5.4942    2.3751   15.6355 C   0  0  0  0  0  0  0  0  0  0  0  0
   -4.8254    5.2971   12.6541 N   0  0  0  0  0  0  0  0  0  0  0  0
   -6.7048    4.1789   17.2347 Cl  0  0  0  0  0  0  0  0  0  0  0  0
   -4.3704    5.0714   11.8107 H   0  0  0  0  0  0  0  0  0  0  0  0
   -5.1354    6.2175   12.8151 H   0  0  0  0  0  0  0  0  0  0  0  0
   -3.8008    2.4728   11.9690 S   0  0  0  0  0  0  0  0  0  0  0  0
   -4.8038    2.6706   10.7669 N   0  0  0  0  0  0  0  0  0  0  0  0
   -2.6976    3.3466   11.7493 O   0  0  0  0  0  0  0  0  0  0  0  0
   -3.5529    1.0757   12.1160 O   0  0  0  0  0  0  0  0  0  0  0  0
   -4.3532    2.3848    9.8976 H   0  0  0  0  0  0  0  0  0  0  0  0
   -5.0703    3.6532   10.7046 H   0  0  0  0  0  0  0  0  0  0  0  0
   -5.7595    1.0953   16.8517 S   0  0  0  0  0  0  0  0  0  0  0  0
   -7.2913    0.7416   16.9063 N   0  0  0  0  0  0  0  0  0  0  0  0
   -5.0556   -0.0742   16.4251 O   0  0  0  0  0  0  0  0  0  0  0  0
   -5.4122    1.6862   18.1087 O   0  0  0  0  0  0  0  0  0  0  0  0
   -7.8188    1.5606   17.2087 H   0  0  0  0  0  0  0  0  0  0  0  0
   -7.4407   -0.0217   17.5661 H   0  0  0  0  0  0  0  0  0  0  0  0
 14 11  2  0  0  0
 13 11  2  0  0  0
 11 12  1  0  0  0
 11  2  1  0  0  0
  7  3  1  0  0  0
  2  3  2  0  0  0
  2  1  1  0  0  0
  3  4  1  0  0  0
  1  6  2  0  0  0
  4  5  2  0  0  0
  6  5  1  0  0  0
  6 17  1  0  0  0
  5  8  1  0  0  0
 18 17  1  0  0  0
 17 20  2  0  0  0
 17 19  2  0  0  0
 12 15  1  0  0  0
 12 16  1  0  0  0
 18 21  1  0  0  0
 18 22  1  0  0  0
  7  9  1  0  0  0
  7 10  1  0  0  0
M  END
> <minimizedAffinity>
-7.80809

$$$$
2POV_I7B_A_1000


 22 22  0  0  0  0  0  0  0  0999 V2000
   -4.9143    2.1023   14.5051 C   0  0  0  0  0  0  0  0  0  0  0  0
   -5.5735    2.3674   15.7189 C   0  0  0  0  0  0  0  0  0  0  0  0
   -5.9910    3.6755   16.0579 C   0  0  0  0  0  0  0  0  0  0  0  0
   -5.7358    4.7142   15.1508 C   0  0  0  0  0  0  0  0  0  0  0  0
   -5.0738    4.4713   13.9285 C   0  0  0  0  0  0  0  0  0  0  0  0
   -4.6620    3.1509   13.6056 C   0  0  0  0  0  0  0  0  0  0  0  0
   -6.6417    3.9767   17.2488 N   0  0  0  0  0  0  0  0  0  0  0  0
   -4.7870    5.7420   12.8661 Cl  0  0  0  0  0  0  0  0  0  0  0  0
   -6.8312    3.2633   17.9003 H   0  0  0  0  0  0  0  0  0  0  0  0
   -6.9132    4.9033   17.4407 H   0  0  0  0  0  0  0  0  0  0  0  0
   -5.8557    1.0270   16.8282 S   0  0  0  0  0  0  0  0  0  0  0  0
   -7.4108    0.7704   16.9068 N   0  0  0  0  0  0  0  0  0  0  0  0
   -5.2605   -0.1411   16.2713 O   0  0  0  0  0  0  0  0  0  0  0  0
   -5.4148    1.4810   18.1066 O   0  0  0  0  0  0  0  0  0  0  0  0
   -7.5958   -0.0034   17.5452 H   0  0  0  0  0  0  0  0  0  0  0  0
   -7.7643    0.5375   15.9788 H   0  0  0  0  0  0  0  0  0  0  0  0
   -3.8115    2.7429   12.0898 S   0  0  0  0  0  0  0  0  0  0  0  0
   -3.6266    1.1831   12.0029 N   0  0  0  0  0  0  0  0  0  0  0  0
   -4.6384    3.1469   10.9951 O   0  0  0  0  0  0  0  0  0  0  0  0
   -2.5080    3.3215   12.2166 O   0  0  0  0  0  0  0  0  0  0  0  0
   -3.0390    0.8669   12.7743 H   0  0  0  0  0  0  0  0  0  0  0  0
   -3.1829    0.9422   11.1166 H   0  0  0  0  0  0  0  0  0  0  0  0
 14 11  2  0  0  0
 13 11  2  0  0  0
 11 12  1  0  0  0
 11  2  1  0  0  0
  7  3  1  0  0  0
  2  3  2  0  0  0
  2  1  1  0  0  0
  3  4  1  0  0  0
  1  6  2  0  0  0
  4  5  2  0  0  0
  6  5  1  0  0  0
  6 17  1  0  0  0
  5  8  1  0  0  0
 18 17  1  0  0  0
 17 20  2  0  0  0
 17 19  2  0  0  0
 12 15  1  0  0  0
 12 16  1  0  0  0
 18 21  1  0  0  0
 18 22  1  0  0  0
  7  9  1  0  0  0
  7 10  1  0  0  0
M  END
> <minimizedAffinity>
-7.80566

$$$$
2POV_I7B_A_1000


 22 22  0  0  0  0  0  0  0  0999 V2000
   -4.9886    2.2909   14.7247 C   0  0  0  0  0  0  0  0  0  0  0  0
   -5.7012    2.5807   15.9021 C   0  0  0  0  0  0  0  0  0  0  0  0
   -6.1301    3.8959   16.1966 C   0  0  0  0  0  0  0  0  0  0  0  0
   -5.8315    4.9163   15.2820 C   0  0  0  0  0  0  0  0  0  0  0  0
   -5.1157    4.6485   14.0958 C   0  0  0  0  0  0  0  0  0  0  0  0
   -4.6933    3.3213   13.8174 C   0  0  0  0  0  0  0  0  0  0  0  0
   -6.8332    4.2212   17.3508 N   0  0  0  0  0  0  0  0  0  0  0  0
   -4.7780    5.8979   13.0231 Cl  0  0  0  0  0  0  0  0  0  0  0  0
   -7.0537    3.5209   18.0068 H   0  0  0  0  0  0  0  0  0  0  0  0
   -7.1106    5.1519   17.5124 H   0  0  0  0  0  0  0  0  0  0  0  0
   -6.0367    1.2625   17.0232 S   0  0  0  0  0  0  0  0  0  0  0  0
   -5.2333   -0.0087   16.5450 N   0  0  0  0  0  0  0  0  0  0  0  0
   -5.5286    1.6293   18.3023 O   0  0  0  0  0  0  0  0  0  0  0  0
   -7.4295    0.9842   16.8903 O   0  0  0  0  0  0  0  0  0  0  0  0
   -5.4141   -0.7846   17.1820 H   0  0  0  0  0  0  0  0  0  0  0  0
   -4.2352    0.2018   16.5403 H   0  0  0  0  0  0  0  0  0  0  0  0
   -3.7763    2.8825   12.3498 S   0  0  0  0  0  0  0  0  0  0  0  0
   -4.7012    3.0569   11.0892 N   0  0  0  0  0  0  0  0  0  0  0  0
   -2.6837    3.7962   12.2202 O   0  0  0  0  0  0  0  0  0  0  0  0
   -3.4921    1.4855   12.4814 O   0  0  0  0  0  0  0  0  0  0  0  0
   -5.4911    2.4151   11.1558 H   0  0  0  0  0  0  0  0  0  0  0  0
   -4.1670    2.8523   10.2447 H   0  0  0  0  0  0  0  0  0  0  0  0
 14 11  2  0  0  0
 13 11  2  0  0  0
 11 12  1  0  0  0
 11  2  1  0  0  0
  7  3  1  0  0  0
  2  3  2  0  0  0
  2  1  1  0  0  0
  3  4  1  0  0  0
  1  6  2  0  0  0
  4  5  2  0  0  0
  6  5  1  0  0  0
  6 17  1  0  0  0
  5  8  1  0  0  0
 18 17  1  0  0  0
 17 20  2  0  0  0
 17 19  2  0  0  0
 12 15  1  0  0  0
 12 16  1  0  0  0
 18 21  1  0  0  0
 18 22  1  0  0  0
  7  9  1  0  0  0
  7 10  1  0  0  0
M  END
> <minimizedAffinity>
-7.62721

$$$$
2POV_I7B_A_1000


 22 22  0  0  0  0  0  0  0  0999 V2000
   -4.3211    2.8672   13.1346 C   0  0  0  0  0  0  0  0  0  0  0  0
   -4.8507    2.8556   14.4375 C   0  0  0  0  0  0  0  0  0  0  0  0
   -5.3901    4.0252   15.0218 C   0  0  0  0  0  0  0  0  0  0  0  0
   -5.3903    5.2087   14.2694 C   0  0  0  0  0  0  0  0  0  0  0  0
   -4.8620    5.2436   12.9613 C   0  0  0  0  0  0  0  0  0  0  0  0
   -4.3245    4.0588   12.3915 C   0  0  0  0  0  0  0  0  0  0  0  0
   -5.9190    4.0534   16.3070 N   0  0  0  0  0  0  0  0  0  0  0  0
   -4.8812    6.6810   12.0900 Cl  0  0  0  0  0  0  0  0  0  0  0  0
   -5.9292    3.2344   16.8532 H   0  0  0  0  0  0  0  0  0  0  0  0
   -6.2834    4.8924   16.6711 H   0  0  0  0  0  0  0  0  0  0  0  0
   -4.8118    1.3440   15.3433 S   0  0  0  0  0  0  0  0  0  0  0  0
   -3.6052    1.4076   16.3582 N   0  0  0  0  0  0  0  0  0  0  0  0
   -6.0082    1.2574   16.1113 O   0  0  0  0  0  0  0  0  0  0  0  0
   -4.5340    0.3240   14.3855 O   0  0  0  0  0  0  0  0  0  0  0  0
   -3.5651    0.5403   16.8935 H   0  0  0  0  0  0  0  0  0  0  0  0
   -3.7370    2.1940   16.9944 H   0  0  0  0  0  0  0  0  0  0  0  0
   -3.6261    4.0021   10.7494 S   0  0  0  0  0  0  0  0  0  0  0  0
   -3.6509    2.5186   10.2266 N   0  0  0  0  0  0  0  0  0  0  0  0
   -4.4573    4.7836    9.8871 O   0  0  0  0  0  0  0  0  0  0  0  0
   -2.2533    4.3773   10.9059 O   0  0  0  0  0  0  0  0  0  0  0  0
   -3.0644    1.9373   10.8252 H   0  0  0  0  0  0  0  0  0  0  0  0
   -3.2960    2.4890    9.2708 H   0  0  0  0  0  0  0  0  0  0  0  0
 14 11  2  0  0  0
 13 11  2  0  0  0
 11 12  1  0  0  0
 11  2  1  0  0  0
  7  3  1  0  0  0
  2  3  2  0  0  0
  2  1  1  0  0  0
  3  4  1  0  0  0
  1  6  2  0  0  0
  4  5  2  0  0  0
  6  5  1  0  0  0
  6 17  1  0  0  0
  5  8  1  0  0  0
 18 17  1  0  0  0
 17 20  2  0  0  0
 17 19  2  0  0  0
 12 15  1  0  0  0
 12 16  1  0  0  0
 18 21  1  0  0  0
 18 22  1  0  0  0
  7  9  1  0  0  0
  7 10  1  0  0  0
M  END
> <minimizedAffinity>
-6.43570

$$$$
2POV_I7B_A_1000


 22 22  0  0  0  0  0  0  0  0999 V2000
   -5.5927    3.6604   14.8007 C   0  0  0  0  0  0  0  0  0  0  0  0
   -5.5191    2.4568   15.5245 C   0  0  0  0  0  0  0  0  0  0  0  0
   -4.8046    1.3424   15.0264 C   0  0  0  0  0  0  0  0  0  0  0  0
   -4.1614    1.4615   13.7859 C   0  0  0  0  0  0  0  0  0  0  0  0
   -4.2242    2.6589   13.0418 C   0  0  0  0  0  0  0  0  0  0  0  0
   -4.9466    3.7673   13.5584 C   0  0  0  0  0  0  0  0  0  0  0  0
   -4.7122    0.1361   15.7110 N   0  0  0  0  0  0  0  0  0  0  0  0
   -3.4390    2.7640   11.5592 Cl  0  0  0  0  0  0  0  0  0  0  0  0
   -5.1558    0.0300   16.5835 H   0  0  0  0  0  0  0  0  0  0  0  0
   -4.2031   -0.6121   15.3234 H   0  0  0  0  0  0  0  0  0  0  0  0
   -6.3582    2.3577   17.0714 S   0  0  0  0  0  0  0  0  0  0  0  0
   -7.5511    1.3356   16.9213 N   0  0  0  0  0  0  0  0  0  0  0  0
   -5.4549    1.8175   18.0311 O   0  0  0  0  0  0  0  0  0  0  0  0
   -6.9090    3.6538   17.2986 O   0  0  0  0  0  0  0  0  0  0  0  0
   -8.0507    1.2636   17.8077 H   0  0  0  0  0  0  0  0  0  0  0  0
   -7.1838    0.4199   16.6627 H   0  0  0  0  0  0  0  0  0  0  0  0
   -5.0920    5.3206   12.6905 S   0  0  0  0  0  0  0  0  0  0  0  0
   -6.4713    5.9872   13.0482 N   0  0  0  0  0  0  0  0  0  0  0  0
   -4.0538    6.1872   13.1559 O   0  0  0  0  0  0  0  0  0  0  0  0
   -5.1302    4.9787   11.3008 O   0  0  0  0  0  0  0  0  0  0  0  0
   -7.2318    5.3884   12.7266 H   0  0  0  0  0  0  0  0  0  0  0  0
   -6.5381    6.8966   12.5913 H   0  0  0  0  0  0  0  0  0  0  0  0
 14 11  2  0  0  0
 13 11  2  0  0  0
 11 12  1  0  0  0
 11  2  1  0  0  0
  7  3  1  0  0  0
  2  3  2  0  0  0
  2  1  1  0  0  0
  3  4  1  0  0  0
  1  6  2  0  0  0
  4  5  2  0  0  0
  6  5  1  0  0  0
  6 17  1  0  0  0
  5  8  1  0  0  0
 18 17  1  0  0  0
 17 20  2  0  0  0
 17 19  2  0  0  0
 12 15  1  0  0  0
 12 16  1  0  0  0
 18 21  1  0  0  0
 18 22  1  0  0  0
  7  9  1  0  0  0
  7 10  1  0  0  0
M  END
> <minimizedAffinity>
-5.97835

$$$$
2POV_I7B_A_1000


 22 22  0  0  0  0  0  0  0  0999 V2000
   -2.7142    4.3252   11.5051 C   0  0  0  0  0  0  0  0  0  0  0  0
   -3.7114    3.5056   12.0636 C   0  0  0  0  0  0  0  0  0  0  0  0
   -4.3525    3.8509   13.2762 C   0  0  0  0  0  0  0  0  0  0  0  0
   -3.9741    5.0397   13.9168 C   0  0  0  0  0  0  0  0  0  0  0  0
   -2.9744    5.8757   13.3755 C   0  0  0  0  0  0  0  0  0  0  0  0
   -2.3418    5.5121   12.1569 C   0  0  0  0  0  0  0  0  0  0  0  0
   -5.3393    3.0651   13.8601 N   0  0  0  0  0  0  0  0  0  0  0  0
   -2.5488    7.2936   14.1718 Cl  0  0  0  0  0  0  0  0  0  0  0  0
   -5.6207    2.2265   13.4278 H   0  0  0  0  0  0  0  0  0  0  0  0
   -5.7569    3.3471   14.7058 H   0  0  0  0  0  0  0  0  0  0  0  0
   -4.1377    2.0157   11.2237 S   0  0  0  0  0  0  0  0  0  0  0  0
   -5.7102    1.8840   11.2195 N   0  0  0  0  0  0  0  0  0  0  0  0
   -3.7184    2.1365    9.8679 O   0  0  0  0  0  0  0  0  0  0  0  0
   -3.6049    0.9563   12.0167 O   0  0  0  0  0  0  0  0  0  0  0  0
   -5.9783    1.0263   10.7370 H   0  0  0  0  0  0  0  0  0  0  0  0
   -6.1173    2.6861   10.7386 H   0  0  0  0  0  0  0  0  0  0  0  0
   -1.0617    6.4972   11.3964 S   0  0  0  0  0  0  0  0  0  0  0  0
   -0.6395    5.8354   10.0331 N   0  0  0  0  0  0  0  0  0  0  0  0
   -1.6084    7.7864   11.1058 O   0  0  0  0  0  0  0  0  0  0  0  0
    0.0616    6.4102   12.2798 O   0  0  0  0  0  0  0  0  0  0  0  0
   -0.2451    4.9118   10.2113 H   0  0  0  0  0  0  0  0  0  0  0  0
    0.0583    6.4201    9.5731 H   0  0  0  0  0  0  0  0  0  0  0  0
 14 11  2  0  0  0
 13 11  2  0  0  0
 11 12  1  0  0  0
 11  2  1  0  0  0
  7  3  1  0  0  0
  2  3  2  0  0  0
  2  1  1  0  0  0
  3  4  1  0  0  0
  1  6  2  0  0  0
  4  5  2  0  0  0
  6  5  1  0  0  0
  6 17  1  0  0  0
  5  8  1  0  0  0
 18 17  1  0  0  0
 17 20  2  0  0  0
 17 19  2  0  0  0
 12 15  1  0  0  0
 12 16  1  0  0  0
 18 21  1  0  0  0
 18 22  1  0  0  0
  7  9  1  0  0  0
  7 10  1  0  0  0
M  END
> <minimizedAffinity>
-5.77392

$$$$
2POV_I7B_A_1000


 22 22  0  0  0  0  0  0  0  0999 V2000
   -4.3197    3.3979   14.0837 C   0  0  0  0  0  0  0  0  0  0  0  0
   -4.1545    4.1366   12.8984 C   0  0  0  0  0  0  0  0  0  0  0  0
   -4.0474    3.4958   11.6421 C   0  0  0  0  0  0  0  0  0  0  0  0
   -4.1127    2.0955   11.5988 C   0  0  0  0  0  0  0  0  0  0  0  0
   -4.2757    1.3345   12.7759 C   0  0  0  0  0  0  0  0  0  0  0  0
   -4.3813    1.9959   14.0284 C   0  0  0  0  0  0  0  0  0  0  0  0
   -3.8802    4.1915   10.4503 N   0  0  0  0  0  0  0  0  0  0  0  0
   -4.3509   -0.3423   12.6836 Cl  0  0  0  0  0  0  0  0  0  0  0  0
   -3.8317    5.1748   10.4570 H   0  0  0  0  0  0  0  0  0  0  0  0
   -3.8103    3.7010    9.5996 H   0  0  0  0  0  0  0  0  0  0  0  0
   -4.0646    5.8932   13.0126 S   0  0  0  0  0  0  0  0  0  0  0  0
   -2.7203    6.3639   12.3333 N   0  0  0  0  0  0  0  0  0  0  0  0
   -5.1381    6.4416   12.2540 O   0  0  0  0  0  0  0  0  0  0  0  0
   -3.9857    6.1886   14.4061 O   0  0  0  0  0  0  0  0  0  0  0  0
   -2.6488    7.3799   12.3889 H   0  0  0  0  0  0  0  0  0  0  0  0
   -2.7148    6.0757   11.3548 H   0  0  0  0  0  0  0  0  0  0  0  0
   -4.5809    1.1232   15.5729 S   0  0  0  0  0  0  0  0  0  0  0  0
   -5.8585    1.6657   16.3135 N   0  0  0  0  0  0  0  0  0  0  0  0
   -4.8012   -0.2584   15.2761 O   0  0  0  0  0  0  0  0  0  0  0  0
   -3.4432    1.4832   16.3640 O   0  0  0  0  0  0  0  0  0  0  0  0
   -5.7282    2.6521   16.5378 H   0  0  0  0  0  0  0  0  0  0  0  0
   -6.0026    1.1374   17.1740 H   0  0  0  0  0  0  0  0  0  0  0  0
 14 11  2  0  0  0
 13 11  2  0  0  0
 11 12  1  0  0  0
 11  2  1  0  0  0
  7  3  1  0  0  0
  2  3  2  0  0  0
  2  1  1  0  0  0
  3  4  1  0  0  0
  1  6  2  0  0  0
  4  5  2  0  0  0
  6  5  1  0  0  0
  6 17  1  0  0  0
  5  8  1  0  0  0
 18 17  1  0  0  0
 17 20  2  0  0  0
 17 19  2  0  0  0
 12 15  1  0  0  0
 12 16  1  0  0  0
 18 21  1  0  0  0
 18 22  1  0  0  0
  7  9  1  0  0  0
  7 10  1  0  0  0
M  END
> <minimizedAffinity>
-5.74018

$$$$
2POV_I7B_A_1000


 22 22  0  0  0  0  0  0  0  0999 V2000
   -4.8230    3.2962   12.5837 C   0  0  0  0  0  0  0  0  0  0  0  0
   -4.6081    2.0508   13.2008 C   0  0  0  0  0  0  0  0  0  0  0  0
   -4.7985    1.8773   14.5915 C   0  0  0  0  0  0  0  0  0  0  0  0
   -5.2129    2.9806   15.3517 C   0  0  0  0  0  0  0  0  0  0  0  0
   -5.4321    4.2398   14.7536 C   0  0  0  0  0  0  0  0  0  0  0  0
   -5.2356    4.3946   13.3555 C   0  0  0  0  0  0  0  0  0  0  0  0
   -4.5931    0.6635   15.2371 N   0  0  0  0  0  0  0  0  0  0  0  0
   -5.9299    5.5384   15.6977 Cl  0  0  0  0  0  0  0  0  0  0  0  0
   -4.3021   -0.1243   14.7233 H   0  0  0  0  0  0  0  0  0  0  0  0
   -4.7386    0.5916   16.2082 H   0  0  0  0  0  0  0  0  0  0  0  0
   -4.0740    0.7018   12.1999 S   0  0  0  0  0  0  0  0  0  0  0  0
   -4.7235    0.8602   10.7705 N   0  0  0  0  0  0  0  0  0  0  0  0
   -2.6625    0.8023   12.0382 O   0  0  0  0  0  0  0  0  0  0  0  0
   -4.6151   -0.4705   12.8067 O   0  0  0  0  0  0  0  0  0  0  0  0
   -4.4263    0.0877   10.1745 H   0  0  0  0  0  0  0  0  0  0  0  0
   -4.4242    1.7433   10.3570 H   0  0  0  0  0  0  0  0  0  0  0  0
   -5.4782    5.9467   12.5073 S   0  0  0  0  0  0  0  0  0  0  0  0
   -5.3491    5.7157   10.9566 N   0  0  0  0  0  0  0  0  0  0  0  0
   -6.8104    6.3935   12.7734 O   0  0  0  0  0  0  0  0  0  0  0  0
   -4.3821    6.7758   12.9087 O   0  0  0  0  0  0  0  0  0  0  0  0
   -4.4056    5.3955   10.7380 H   0  0  0  0  0  0  0  0  0  0  0  0
   -5.5334    6.5907   10.4660 H   0  0  0  0  0  0  0  0  0  0  0  0
 14 11  2  0  0  0
 13 11  2  0  0  0
 11 12  1  0  0  0
 11  2  1  0  0  0
  7  3  1  0  0  0
  2  3  2  0  0  0
  2  1  1  0  0  0
  3  4  1  0  0  0
  1  6  2  0  0  0
  4  5  2  0  0  0
  6  5  1  0  0  0
  6 17  1  0  0  0
  5  8  1  0  0  0
 18 17  1  0  0  0
 17 20  2  0  0  0
 17 19  2  0  0  0
 12 15  1  0  0  0
 12 16  1  0  0  0
 18 21  1  0  0  0
 18 22  1  0  0  0
  7  9  1  0  0  0
  7 10  1  0  0  0
M  END
> <minimizedAffinity>
-5.53840

$$$$
2POV_I7B_A_1000


 22 22  0  0  0  0  0  0  0  0999 V2000
   -4.4690    5.0222   11.2011 C   0  0  0  0  0  0  0  0  0  0  0  0
   -3.6229    4.2715   12.0369 C   0  0  0  0  0  0  0  0  0  0  0  0
   -2.5664    4.8819   12.7522 C   0  0  0  0  0  0  0  0  0  0  0  0
   -2.3776    6.2647   12.6139 C   0  0  0  0  0  0  0  0  0  0  0  0
   -3.2131    7.0368   11.7789 C   0  0  0  0  0  0  0  0  0  0  0  0
   -4.2688    6.4059   11.0685 C   0  0  0  0  0  0  0  0  0  0  0  0
   -1.7082    4.1729   13.5846 N   0  0  0  0  0  0  0  0  0  0  0  0
   -2.9563    8.6922   11.6399 Cl  0  0  0  0  0  0  0  0  0  0  0  0
   -1.8221    3.2014   13.6967 H   0  0  0  0  0  0  0  0  0  0  0  0
   -0.9864    4.6421   14.0622 H   0  0  0  0  0  0  0  0  0  0  0  0
   -3.8967    2.5348   12.1625 S   0  0  0  0  0  0  0  0  0  0  0  0
   -4.9790    2.1268   11.0890 N   0  0  0  0  0  0  0  0  0  0  0  0
   -2.6853    1.8697   11.8177 O   0  0  0  0  0  0  0  0  0  0  0  0
   -4.4536    2.3218   13.4585 O   0  0  0  0  0  0  0  0  0  0  0  0
   -5.1522    1.1232   11.1453 H   0  0  0  0  0  0  0  0  0  0  0  0
   -4.6382    2.3612   10.1566 H   0  0  0  0  0  0  0  0  0  0  0  0
   -5.3736    7.2930    9.9823 S   0  0  0  0  0  0  0  0  0  0  0  0
   -6.4155    6.2869    9.3685 N   0  0  0  0  0  0  0  0  0  0  0  0
   -6.0958    8.2461   10.7667 O   0  0  0  0  0  0  0  0  0  0  0  0
   -4.5534    7.7669    8.9087 O   0  0  0  0  0  0  0  0  0  0  0  0
   -5.9261    5.5939    8.8023 H   0  0  0  0  0  0  0  0  0  0  0  0
   -7.0774    6.7974    8.7839 H   0  0  0  0  0  0  0  0  0  0  0  0
 14 11  2  0  0  0
 13 11  2  0  0  0
 11 12  1  0  0  0
 11  2  1  0  0  0
  7  3  1  0  0  0
  2  3  2  0  0  0
  2  1  1  0  0  0
  3  4  1  0  0  0
  1  6  2  0  0  0
  4  5  2  0  0  0
  6  5  1  0  0  0
  6 17  1  0  0  0
  5  8  1  0  0  0
 18 17  1  0  0  0
 17 20  2  0  0  0
 17 19  2  0  0  0
 12 15  1  0  0  0
 12 16  1  0  0  0
 18 21  1  0  0  0
 18 22  1  0  0  0
  7  9  1  0  0  0
  7 10  1  0  0  0
M  END
> <minimizedAffinity>
-5.51754

$$$$
