3I6O_GR6_B_301


 46 50  0  0  0  0  0  0  0  0999 V2000
   16.3292  -18.8804   -4.8358 C   0  0  0  0  0  0  0  0  0  0  0  0
   15.8722  -17.6918   -4.1769 O   0  0  0  0  0  0  0  0  0  0  0  0
   15.9188  -17.8165   -3.2161 H   0  0  0  0  0  0  0  0  0  0  0  0
   15.3808  -20.0232   -4.4094 C   0  0  0  0  0  0  0  0  0  0  0  0
   12.1378  -24.7461   -3.2374 C   0  0  0  0  0  0  0  0  0  0  0  0
   12.1020  -24.4858   -4.6031 C   0  0  0  0  0  0  0  0  0  0  0  0
   13.1627  -23.7828   -5.1857 C   0  0  0  0  0  0  0  0  0  0  0  0
   14.2319  -23.3560   -4.3981 C   0  0  0  0  0  0  0  0  0  0  0  0
   14.2541  -23.6264   -3.0253 C   0  0  0  0  0  0  0  0  0  0  0  0
   13.2113  -24.3177   -2.4460 C   0  0  0  0  0  0  0  0  0  0  0  0
   15.7165  -22.5972   -5.0741 S   0  0  0  0  0  0  0  0  0  0  0  0
   16.6725  -22.5879   -3.9998 O   0  0  0  0  0  0  0  0  0  0  0  0
   16.0307  -23.3013   -6.3213 O   0  0  0  0  0  0  0  0  0  0  0  0
   15.3947  -21.0042   -5.5045 N   0  0  0  0  0  0  0  0  0  0  0  0
   14.8487  -20.7164   -6.8270 C   0  0  0  0  0  0  0  0  0  0  0  0
   15.9213  -20.6174   -7.9261 C   0  0  0  0  0  0  0  0  0  0  0  0
   15.4267  -19.9598   -9.2333 C   0  0  0  0  0  0  0  0  0  0  0  0
   14.3708  -20.7192  -10.0493 C   0  0  0  0  0  0  0  0  0  0  0  0
   13.1809  -23.4962   -6.5344 O   0  0  0  0  0  0  0  0  0  0  0  0
   12.0500  -23.8997   -7.3304 C   0  0  0  0  0  0  0  0  0  0  0  0
   12.2889  -23.7404   -8.8224 C   0  0  0  0  0  0  0  0  0  0  0  0
   12.6869  -22.3391   -9.1786 C   0  0  0  0  0  0  0  0  0  0  0  0
   13.9183  -22.0944   -9.6767 C   0  0  0  0  0  0  0  0  0  0  0  0
   11.1410  -25.4221   -2.6112 O   0  0  0  0  0  0  0  0  0  0  0  0
   10.5575  -26.5019   -3.3368 C   0  0  0  0  0  0  0  0  0  0  0  0
   17.8132  -19.1509   -4.5336 C   0  0  0  0  0  0  0  0  0  0  0  0
   18.6095  -18.0355   -5.0968 N   0  0  0  0  0  0  0  0  0  0  0  0
   19.0349  -18.1042   -6.3863 C   0  0  0  0  0  0  0  0  0  0  0  0
   18.9543  -19.0483   -7.1550 O   0  0  0  0  0  0  0  0  0  0  0  0
   18.8284  -17.2519   -4.5424 H   0  0  0  0  0  0  0  0  0  0  0  0
   19.5870  -16.9081   -6.6966 O   0  0  0  0  0  0  0  0  0  0  0  0
   20.5301  -16.8590   -7.7956 C   0  0  0  0  0  0  0  0  0  0  0  0
   20.2449  -15.5072   -8.4676 C   0  0  0  0  0  0  0  0  0  0  0  0
   20.8410  -14.5198   -7.6406 O   0  0  0  0  0  0  0  0  0  0  0  0
   22.0295  -15.0498   -7.0405 C   0  0  0  0  0  0  0  0  0  0  0  0
   21.9931  -14.7971   -5.6644 O   0  0  0  0  0  0  0  0  0  0  0  0
   21.8146  -15.9999   -4.8911 C   0  0  0  0  0  0  0  0  0  0  0  0
   22.2630  -17.1167   -5.8208 C   0  0  0  0  0  0  0  0  0  0  0  0
   21.9566  -16.5859   -7.2396 C   0  0  0  0  0  0  0  0  0  0  0  0
   18.0884  -19.1840   -2.9888 C   0  0  0  0  0  0  0  0  0  0  0  0
   20.3769  -18.3585   -2.3057 C   0  0  0  0  0  0  0  0  0  0  0  0
   21.7476  -18.5277   -2.1302 C   0  0  0  0  0  0  0  0  0  0  0  0
   22.3200  -19.7676   -2.4665 C   0  0  0  0  0  0  0  0  0  0  0  0
   21.5375  -20.8158   -2.9686 C   0  0  0  0  0  0  0  0  0  0  0  0
   20.1718  -20.6322   -3.1381 C   0  0  0  0  0  0  0  0  0  0  0  0
   19.5825  -19.4004   -2.8067 C   0  0  0  0  0  0  0  0  0  0  0  0
 10  5  2  0  0  0
 24  5  1  0  0  0
  5  6  1  0  0  0
  6  7  2  0  0  0
  8  7  1  0  0  0
  7 19  1  0  0  0
  9  8  2  0  0  0
  8 11  1  0  0  0
 10  9  1  0  0  0
 12 11  2  0  0  0
 11 13  2  0  0  0
 11 14  1  0  0  0
  4 14  1  0  0  0
 14 15  1  0  0  0
 15 16  1  0  0  0
 16 17  1  0  0  0
 17 18  1  0  0  0
 23 18  1  0  0  0
  4  1  1  0  0  0
 26  1  1  0  0  0
  1  2  1  0  0  0
 40 26  1  0  0  0
 26 27  1  0  0  0
 27 28  1  0  0  0
 29 28  2  0  0  0
 28 31  1  0  0  0
 31 32  1  0  0  0
 39 32  1  0  0  0
 32 33  1  0  0  0
 34 33  1  0  0  0
 35 34  1  0  0  0
 39 35  1  0  0  0
 36 35  1  0  0  0
 37 36  1  0  0  0
 38 37  1  0  0  0
 38 39  1  0  0  0
 46 40  1  0  0  0
 42 41  2  0  0  0
 41 46  1  0  0  0
 43 42  1  0  0  0
 43 44  2  0  0  0
 44 45  1  0  0  0
 45 46  2  0  0  0
 24 25  1  0  0  0
 19 20  1  0  0  0
 20 21  1  0  0  0
 21 22  1  0  0  0
 22 23  2  0  0  0
  2  3  1  0  0  0
 27 30  1  0  0  0
M  END
> <minimizedAffinity>
-12.85892

$$$$
3I6O_GR6_B_301


 46 50  0  0  0  0  0  0  0  0999 V2000
   15.5858  -19.3459   -4.8136 C   0  0  0  0  0  0  0  0  0  0  0  0
   14.5065  -18.5120   -4.3716 O   0  0  0  0  0  0  0  0  0  0  0  0
   14.2273  -17.9326   -5.0978 H   0  0  0  0  0  0  0  0  0  0  0  0
   16.7466  -18.4060   -5.2093 C   0  0  0  0  0  0  0  0  0  0  0  0
   21.4971  -15.4006   -6.8204 C   0  0  0  0  0  0  0  0  0  0  0  0
   21.8465  -16.3379   -5.8543 C   0  0  0  0  0  0  0  0  0  0  0  0
   21.0545  -17.4820   -5.7041 C   0  0  0  0  0  0  0  0  0  0  0  0
   19.9359  -17.6667   -6.5166 C   0  0  0  0  0  0  0  0  0  0  0  0
   19.5976  -16.7150   -7.4852 C   0  0  0  0  0  0  0  0  0  0  0  0
   20.3738  -15.5856   -7.6367 C   0  0  0  0  0  0  0  0  0  0  0  0
   18.9542  -19.1744   -6.5193 S   0  0  0  0  0  0  0  0  0  0  0  0
   18.1081  -19.0859   -7.6787 O   0  0  0  0  0  0  0  0  0  0  0  0
   19.8880  -20.2968   -6.3842 O   0  0  0  0  0  0  0  0  0  0  0  0
   17.9728  -19.2155   -5.1548 N   0  0  0  0  0  0  0  0  0  0  0  0
   18.5014  -19.7620   -3.9091 C   0  0  0  0  0  0  0  0  0  0  0  0
   18.3999  -21.2949   -3.8190 C   0  0  0  0  0  0  0  0  0  0  0  0
   18.6006  -21.8582   -2.3948 C   0  0  0  0  0  0  0  0  0  0  0  0
   19.9944  -21.7108   -1.7679 C   0  0  0  0  0  0  0  0  0  0  0  0
   21.3527  -18.4446   -4.7628 O   0  0  0  0  0  0  0  0  0  0  0  0
   22.4822  -18.2218   -3.8969 C   0  0  0  0  0  0  0  0  0  0  0  0
   22.8461  -19.4446   -3.0717 C   0  0  0  0  0  0  0  0  0  0  0  0
   21.6818  -19.9448   -2.2697 C   0  0  0  0  0  0  0  0  0  0  0  0
   21.1544  -21.1600   -2.5333 C   0  0  0  0  0  0  0  0  0  0  0  0
   22.2224  -14.2700   -7.0163 O   0  0  0  0  0  0  0  0  0  0  0  0
   23.6200  -14.3620   -6.7488 C   0  0  0  0  0  0  0  0  0  0  0  0
   15.1347  -20.2939   -5.9382 C   0  0  0  0  0  0  0  0  0  0  0  0
   14.4226  -21.4368   -5.3202 N   0  0  0  0  0  0  0  0  0  0  0  0
   15.0230  -22.6562   -5.2843 C   0  0  0  0  0  0  0  0  0  0  0  0
   16.0674  -22.9956   -5.8161 O   0  0  0  0  0  0  0  0  0  0  0  0
   13.5231  -21.3145   -4.9391 H   0  0  0  0  0  0  0  0  0  0  0  0
   14.2453  -23.4704   -4.5333 O   0  0  0  0  0  0  0  0  0  0  0  0
   14.9014  -24.4371   -3.6761 C   0  0  0  0  0  0  0  0  0  0  0  0
   14.9825  -23.7294   -2.3149 C   0  0  0  0  0  0  0  0  0  0  0  0
   13.6822  -23.8037   -1.7513 O   0  0  0  0  0  0  0  0  0  0  0  0
   13.0564  -25.0304   -2.1479 C   0  0  0  0  0  0  0  0  0  0  0  0
   11.7768  -24.7475   -2.6394 O   0  0  0  0  0  0  0  0  0  0  0  0
   11.6763  -24.9618   -4.0609 C   0  0  0  0  0  0  0  0  0  0  0  0
   12.8245  -25.9056   -4.3827 C   0  0  0  0  0  0  0  0  0  0  0  0
   13.9035  -25.5773   -3.3260 C   0  0  0  0  0  0  0  0  0  0  0  0
   14.1256  -19.5903   -6.9127 C   0  0  0  0  0  0  0  0  0  0  0  0
   13.4101  -21.4223   -8.4991 C   0  0  0  0  0  0  0  0  0  0  0  0
   13.4799  -22.0993   -9.7137 C   0  0  0  0  0  0  0  0  0  0  0  0
   14.3853  -21.6406  -10.6873 C   0  0  0  0  0  0  0  0  0  0  0  0
   15.2041  -20.5287  -10.4504 C   0  0  0  0  0  0  0  0  0  0  0  0
   15.1232  -19.8637   -9.2343 C   0  0  0  0  0  0  0  0  0  0  0  0
   14.2239  -20.3073   -8.2500 C   0  0  0  0  0  0  0  0  0  0  0  0
 10  5  2  0  0  0
 24  5  1  0  0  0
  5  6  1  0  0  0
  6  7  2  0  0  0
  8  7  1  0  0  0
  7 19  1  0  0  0
  9  8  2  0  0  0
  8 11  1  0  0  0
 10  9  1  0  0  0
 12 11  2  0  0  0
 11 13  2  0  0  0
 11 14  1  0  0  0
  4 14  1  0  0  0
 14 15  1  0  0  0
 15 16  1  0  0  0
 16 17  1  0  0  0
 17 18  1  0  0  0
 23 18  1  0  0  0
  4  1  1  0  0  0
 26  1  1  0  0  0
  1  2  1  0  0  0
 40 26  1  0  0  0
 26 27  1  0  0  0
 27 28  1  0  0  0
 29 28  2  0  0  0
 28 31  1  0  0  0
 31 32  1  0  0  0
 39 32  1  0  0  0
 32 33  1  0  0  0
 34 33  1  0  0  0
 35 34  1  0  0  0
 39 35  1  0  0  0
 36 35  1  0  0  0
 37 36  1  0  0  0
 38 37  1  0  0  0
 38 39  1  0  0  0
 46 40  1  0  0  0
 42 41  2  0  0  0
 41 46  1  0  0  0
 43 42  1  0  0  0
 43 44  2  0  0  0
 44 45  1  0  0  0
 45 46  2  0  0  0
 24 25  1  0  0  0
 19 20  1  0  0  0
 20 21  1  0  0  0
 21 22  1  0  0  0
 22 23  2  0  0  0
  2  3  1  0  0  0
 27 30  1  0  0  0
M  END
> <minimizedAffinity>
-9.88274

$$$$
