2RCN_GDP_A_600


 36 38  0  0  0  0  0  0  0  0999 V2000
   22.4070   67.2631  -15.8225 C   0  0  0  0  0  0  0  0  0  0  0  0
   23.1603   67.9103  -14.7461 O   0  0  0  0  0  0  0  0  0  0  0  0
   23.4683   66.5906  -16.7626 C   0  0  0  0  0  0  0  0  0  0  0  0
   23.0529   65.2967  -17.2225 O   0  0  0  0  0  0  0  0  0  0  0  0
   24.6980   66.4745  -15.8577 C   0  0  0  0  0  0  0  0  0  0  0  0
   25.9006   66.4554  -16.6216 O   0  0  0  0  0  0  0  0  0  0  0  0
   24.5773   67.7661  -15.0379 C   0  0  0  0  0  0  0  0  0  0  0  0
   22.8808   64.7224  -16.4599 H   0  0  0  0  0  0  0  0  0  0  0  0
   25.9385   67.2444  -17.1847 H   0  0  0  0  0  0  0  0  0  0  0  0
   25.3614   67.7024  -13.8026 N   0  0  0  0  0  0  0  0  0  0  0  0
   25.1055   66.9113  -12.7058 C   0  0  0  0  0  0  0  0  0  0  0  0
   25.9201   67.2127  -11.7339 N   0  0  0  0  0  0  0  0  0  0  0  0
   26.6748   68.2719  -12.1037 C   0  0  0  0  0  0  0  0  0  0  0  0
   27.7790   68.9636  -11.5204 C   0  0  0  0  0  0  0  0  0  0  0  0
   28.1370   68.7092  -10.3845 O   0  0  0  0  0  0  0  0  0  0  0  0
   28.3438   70.0052  -12.2173 N   0  0  0  0  0  0  0  0  0  0  0  0
   27.9820   70.2511  -13.5275 C   0  0  0  0  0  0  0  0  0  0  0  0
   28.6767   71.1784  -14.2597 N   0  0  0  0  0  0  0  0  0  0  0  0
   27.0142   69.5503  -14.1115 N   0  0  0  0  0  0  0  0  0  0  0  0
   26.3040   68.6144  -13.4307 C   0  0  0  0  0  0  0  0  0  0  0  0
   29.0117   70.5806  -11.7791 H   0  0  0  0  0  0  0  0  0  0  0  0
   29.3948   71.7022  -13.8364 H   0  0  0  0  0  0  0  0  0  0  0  0
   28.4575   71.3207  -15.2089 H   0  0  0  0  0  0  0  0  0  0  0  0
   21.4021   66.2491  -15.2277 C   0  0  0  0  0  0  0  0  0  0  0  0
   20.5533   65.7530  -16.2791 O   0  0  0  0  0  0  0  0  0  0  0  0
   19.6393   64.5578  -15.6932 P   0  0  0  0  0  0  0  0  0  0  0  0
   19.8551   63.3231  -16.4843 O   0  0  0  0  0  0  0  0  0  0  0  0
   20.0747   64.2930  -14.1704 O   0  0  0  0  0  0  0  0  0  0  0  0
   19.5357   63.5766  -13.7999 H   0  0  0  0  0  0  0  0  0  0  0  0
   18.0755   65.0398  -15.7463 O   0  0  0  0  0  0  0  0  0  0  0  0
   17.3654   65.0080  -14.2843 P   0  0  0  0  0  0  0  0  0  0  0  0
   15.9224   65.3011  -14.4574 O   0  0  0  0  0  0  0  0  0  0  0  0
   17.5324   63.5460  -13.6474 O   0  0  0  0  0  0  0  0  0  0  0  0
   17.9948   66.0986  -13.2863 O   0  0  0  0  0  0  0  0  0  0  0  0
   17.1098   63.5234  -12.7747 H   0  0  0  0  0  0  0  0  0  0  0  0
   17.5462   66.0483  -12.4278 H   0  0  0  0  0  0  0  0  0  0  0  0
 31 32  2  0  0  0
 31 33  1  0  0  0
 31 34  1  0  0  0
 31 30  1  0  0  0
 30 26  1  0  0  0
 26 27  2  0  0  0
 26 28  1  0  0  0
 26 25  1  0  0  0
 25 24  1  0  0  0
 24  1  1  0  0  0
  1  2  1  0  0  0
  1  3  1  0  0  0
  2  7  1  0  0  0
  3  4  1  0  0  0
  3  5  1  0  0  0
  5  6  1  0  0  0
  5  7  1  0  0  0
  7 10  1  0  0  0
 10 11  1  0  0  0
 10 20  1  0  0  0
 11 12  2  0  0  0
 12 13  1  0  0  0
 13 14  1  0  0  0
 13 20  2  0  0  0
 14 15  2  0  0  0
 14 16  1  0  0  0
 16 17  1  0  0  0
 17 18  1  0  0  0
 17 19  2  0  0  0
 19 20  1  0  0  0
 33 35  1  0  0  0
 34 36  1  0  0  0
 28 29  1  0  0  0
  4  8  1  0  0  0
  6  9  1  0  0  0
 16 21  1  0  0  0
 18 22  1  0  0  0
 18 23  1  0  0  0
M  END
> <minimizedAffinity>
-9.68068

$$$$
2RCN_GDP_A_600


 36 38  0  0  0  0  0  0  0  0999 V2000
   22.5799   67.2727  -16.3585 C   0  0  0  0  0  0  0  0  0  0  0  0
   23.1076   67.7534  -15.0797 O   0  0  0  0  0  0  0  0  0  0  0  0
   23.8098   67.1453  -17.3247 C   0  0  0  0  0  0  0  0  0  0  0  0
   23.7459   65.9683  -18.1425 O   0  0  0  0  0  0  0  0  0  0  0  0
   24.9945   67.0688  -16.3576 C   0  0  0  0  0  0  0  0  0  0  0  0
   26.1925   67.5355  -16.9716 O   0  0  0  0  0  0  0  0  0  0  0  0
   24.5263   68.0224  -15.2501 C   0  0  0  0  0  0  0  0  0  0  0  0
   23.6926   65.1831  -17.5755 H   0  0  0  0  0  0  0  0  0  0  0  0
   26.0551   68.4358  -17.3057 H   0  0  0  0  0  0  0  0  0  0  0  0
   25.2539   67.8024  -13.9984 N   0  0  0  0  0  0  0  0  0  0  0  0
   24.9244   66.9134  -13.0007 C   0  0  0  0  0  0  0  0  0  0  0  0
   25.7063   67.0821  -11.9715 N   0  0  0  0  0  0  0  0  0  0  0  0
   26.5118   68.1440  -12.1993 C   0  0  0  0  0  0  0  0  0  0  0  0
   27.6127   68.7294  -11.5043 C   0  0  0  0  0  0  0  0  0  0  0  0
   27.9128   68.3464  -10.3878 O   0  0  0  0  0  0  0  0  0  0  0  0
   28.2421   69.8146  -12.0664 N   0  0  0  0  0  0  0  0  0  0  0  0
   27.9454   70.2073  -13.3570 C   0  0  0  0  0  0  0  0  0  0  0  0
   28.7020   71.1775  -13.9610 N   0  0  0  0  0  0  0  0  0  0  0  0
   26.9803   69.6077  -14.0483 N   0  0  0  0  0  0  0  0  0  0  0  0
   26.2101   68.6346  -13.4969 C   0  0  0  0  0  0  0  0  0  0  0  0
   28.9097   70.3161  -11.5448 H   0  0  0  0  0  0  0  0  0  0  0  0
   29.4188   71.6272  -13.4577 H   0  0  0  0  0  0  0  0  0  0  0  0
   28.5288   71.4246  -14.8980 H   0  0  0  0  0  0  0  0  0  0  0  0
   21.8357   65.9328  -16.1523 C   0  0  0  0  0  0  0  0  0  0  0  0
   21.1663   65.9553  -14.8783 O   0  0  0  0  0  0  0  0  0  0  0  0
   19.5910   65.6873  -15.1105 P   0  0  0  0  0  0  0  0  0  0  0  0
   18.8172   66.1885  -13.9499 O   0  0  0  0  0  0  0  0  0  0  0  0
   19.1361   66.4795  -16.4312 O   0  0  0  0  0  0  0  0  0  0  0  0
   18.1905   66.3306  -16.5879 H   0  0  0  0  0  0  0  0  0  0  0  0
   19.3748   64.0789  -15.3273 O   0  0  0  0  0  0  0  0  0  0  0  0
   17.8078   63.6496  -15.2720 P   0  0  0  0  0  0  0  0  0  0  0  0
   17.6345   62.4051  -16.0591 O   0  0  0  0  0  0  0  0  0  0  0  0
   17.3895   63.3714  -13.7494 O   0  0  0  0  0  0  0  0  0  0  0  0
   16.8514   64.7841  -15.8882 O   0  0  0  0  0  0  0  0  0  0  0  0
   16.4548   63.1149  -13.7126 H   0  0  0  0  0  0  0  0  0  0  0  0
   15.9281   64.4914  -15.8371 H   0  0  0  0  0  0  0  0  0  0  0  0
 31 32  2  0  0  0
 31 33  1  0  0  0
 31 34  1  0  0  0
 31 30  1  0  0  0
 30 26  1  0  0  0
 26 27  2  0  0  0
 26 28  1  0  0  0
 26 25  1  0  0  0
 25 24  1  0  0  0
 24  1  1  0  0  0
  1  2  1  0  0  0
  1  3  1  0  0  0
  2  7  1  0  0  0
  3  4  1  0  0  0
  3  5  1  0  0  0
  5  6  1  0  0  0
  5  7  1  0  0  0
  7 10  1  0  0  0
 10 11  1  0  0  0
 10 20  1  0  0  0
 11 12  2  0  0  0
 12 13  1  0  0  0
 13 14  1  0  0  0
 13 20  2  0  0  0
 14 15  2  0  0  0
 14 16  1  0  0  0
 16 17  1  0  0  0
 17 18  1  0  0  0
 17 19  2  0  0  0
 19 20  1  0  0  0
 33 35  1  0  0  0
 34 36  1  0  0  0
 28 29  1  0  0  0
  4  8  1  0  0  0
  6  9  1  0  0  0
 16 21  1  0  0  0
 18 22  1  0  0  0
 18 23  1  0  0  0
M  END
> <minimizedAffinity>
-8.49554

$$$$
2RCN_GDP_A_600


 36 38  0  0  0  0  0  0  0  0999 V2000
   19.1260   63.7167  -18.1207 C   0  0  0  0  0  0  0  0  0  0  0  0
   19.9633   64.8682  -17.7772 O   0  0  0  0  0  0  0  0  0  0  0  0
   19.9129   62.4424  -17.6521 C   0  0  0  0  0  0  0  0  0  0  0  0
   19.0573   61.4575  -17.0552 O   0  0  0  0  0  0  0  0  0  0  0  0
   20.8905   63.0082  -16.6184 C   0  0  0  0  0  0  0  0  0  0  0  0
   22.0528   62.1918  -16.5067 O   0  0  0  0  0  0  0  0  0  0  0  0
   21.2215   64.3684  -17.2471 C   0  0  0  0  0  0  0  0  0  0  0  0
   18.5903   61.8495  -16.3007 H   0  0  0  0  0  0  0  0  0  0  0  0
   22.4647   62.0945  -17.3795 H   0  0  0  0  0  0  0  0  0  0  0  0
   21.7820   65.3000  -16.2659 N   0  0  0  0  0  0  0  0  0  0  0  0
   21.1674   66.4171  -15.7477 C   0  0  0  0  0  0  0  0  0  0  0  0
   22.0057   67.0911  -15.0115 N   0  0  0  0  0  0  0  0  0  0  0  0
   23.2252   66.5126  -15.0901 C   0  0  0  0  0  0  0  0  0  0  0  0
   24.4774   66.7300  -14.4399 C   0  0  0  0  0  0  0  0  0  0  0  0
   24.6391   67.6977  -13.7184 O   0  0  0  0  0  0  0  0  0  0  0  0
   25.5291   65.8990  -14.7454 N   0  0  0  0  0  0  0  0  0  0  0  0
   25.3295   64.7668  -15.5110 C   0  0  0  0  0  0  0  0  0  0  0  0
   26.3477   63.8614  -15.6599 N   0  0  0  0  0  0  0  0  0  0  0  0
   24.1410   64.5065  -16.0481 N   0  0  0  0  0  0  0  0  0  0  0  0
   23.0989   65.3677  -15.9202 C   0  0  0  0  0  0  0  0  0  0  0  0
   26.4318   66.1127  -14.4159 H   0  0  0  0  0  0  0  0  0  0  0  0
   27.2311   64.0449  -15.2660 H   0  0  0  0  0  0  0  0  0  0  0  0
   26.1956   63.0275  -16.1607 H   0  0  0  0  0  0  0  0  0  0  0  0
   17.7412   63.8506  -17.4452 C   0  0  0  0  0  0  0  0  0  0  0  0
   17.8141   64.8504  -16.4122 O   0  0  0  0  0  0  0  0  0  0  0  0
   17.4310   64.1705  -14.9987 P   0  0  0  0  0  0  0  0  0  0  0  0
   17.0819   62.7445  -15.2027 O   0  0  0  0  0  0  0  0  0  0  0  0
   18.7089   64.2689  -14.0313 O   0  0  0  0  0  0  0  0  0  0  0  0
   18.4981   63.8648  -13.1750 H   0  0  0  0  0  0  0  0  0  0  0  0
   16.1814   65.0084  -14.3528 O   0  0  0  0  0  0  0  0  0  0  0  0
   14.7373   64.4552  -14.8540 P   0  0  0  0  0  0  0  0  0  0  0  0
   13.6854   65.3770  -14.3618 O   0  0  0  0  0  0  0  0  0  0  0  0
   14.7078   64.4316  -16.4570 O   0  0  0  0  0  0  0  0  0  0  0  0
   14.4309   62.9807  -14.2941 O   0  0  0  0  0  0  0  0  0  0  0  0
   13.8472   64.1019  -16.7597 H   0  0  0  0  0  0  0  0  0  0  0  0
   13.5635   62.6871  -14.6141 H   0  0  0  0  0  0  0  0  0  0  0  0
 31 32  2  0  0  0
 31 33  1  0  0  0
 31 34  1  0  0  0
 31 30  1  0  0  0
 30 26  1  0  0  0
 26 27  2  0  0  0
 26 28  1  0  0  0
 26 25  1  0  0  0
 25 24  1  0  0  0
 24  1  1  0  0  0
  1  2  1  0  0  0
  1  3  1  0  0  0
  2  7  1  0  0  0
  3  4  1  0  0  0
  3  5  1  0  0  0
  5  6  1  0  0  0
  5  7  1  0  0  0
  7 10  1  0  0  0
 10 11  1  0  0  0
 10 20  1  0  0  0
 11 12  2  0  0  0
 12 13  1  0  0  0
 13 14  1  0  0  0
 13 20  2  0  0  0
 14 15  2  0  0  0
 14 16  1  0  0  0
 16 17  1  0  0  0
 17 18  1  0  0  0
 17 19  2  0  0  0
 19 20  1  0  0  0
 33 35  1  0  0  0
 34 36  1  0  0  0
 28 29  1  0  0  0
  4  8  1  0  0  0
  6  9  1  0  0  0
 16 21  1  0  0  0
 18 22  1  0  0  0
 18 23  1  0  0  0
M  END
> <minimizedAffinity>
-7.55798

$$$$
2RCN_GDP_A_600


 36 38  0  0  0  0  0  0  0  0999 V2000
   19.4357   62.7266  -18.4556 C   0  0  0  0  0  0  0  0  0  0  0  0
   20.1199   64.0096  -18.2808 O   0  0  0  0  0  0  0  0  0  0  0  0
   20.3149   61.6532  -17.7224 C   0  0  0  0  0  0  0  0  0  0  0  0
   19.5253   60.6941  -17.0047 O   0  0  0  0  0  0  0  0  0  0  0  0
   21.1484   62.4996  -16.7564 C   0  0  0  0  0  0  0  0  0  0  0  0
   22.3784   61.8558  -16.4361 O   0  0  0  0  0  0  0  0  0  0  0  0
   21.3807   63.7592  -17.6016 C   0  0  0  0  0  0  0  0  0  0  0  0
   18.9652   61.1540  -16.3600 H   0  0  0  0  0  0  0  0  0  0  0  0
   22.8618   61.6571  -17.2533 H   0  0  0  0  0  0  0  0  0  0  0  0
   21.7662   64.9057  -16.7760 N   0  0  0  0  0  0  0  0  0  0  0  0
   21.0223   66.0405  -16.5453 C   0  0  0  0  0  0  0  0  0  0  0  0
   21.7276   66.9139  -15.8830 N   0  0  0  0  0  0  0  0  0  0  0  0
   22.9866   66.4432  -15.7355 C   0  0  0  0  0  0  0  0  0  0  0  0
   24.1439   66.8912  -15.0300 C   0  0  0  0  0  0  0  0  0  0  0  0
   24.1590   67.9881  -14.5011 O   0  0  0  0  0  0  0  0  0  0  0  0
   25.2783   66.1158  -15.0696 N   0  0  0  0  0  0  0  0  0  0  0  0
   25.2422   64.8462  -15.6126 C   0  0  0  0  0  0  0  0  0  0  0  0
   26.3320   64.0245  -15.4877 N   0  0  0  0  0  0  0  0  0  0  0  0
   24.1390   64.3833  -16.1935 N   0  0  0  0  0  0  0  0  0  0  0  0
   23.0308   65.1558  -16.3324 C   0  0  0  0  0  0  0  0  0  0  0  0
   26.1235   66.4682  -14.7080 H   0  0  0  0  0  0  0  0  0  0  0  0
   27.1533   64.3579  -15.0592 H   0  0  0  0  0  0  0  0  0  0  0  0
   26.2936   63.1010  -15.8266 H   0  0  0  0  0  0  0  0  0  0  0  0
   17.9982   62.8136  -17.8917 C   0  0  0  0  0  0  0  0  0  0  0  0
   18.0380   63.4248  -16.5891 O   0  0  0  0  0  0  0  0  0  0  0  0
   17.0259   64.6828  -16.5708 P   0  0  0  0  0  0  0  0  0  0  0  0
   16.8971   65.2469  -17.9354 O   0  0  0  0  0  0  0  0  0  0  0  0
   15.5892   64.1644  -16.0751 O   0  0  0  0  0  0  0  0  0  0  0  0
   14.9658   64.9074  -16.0573 H   0  0  0  0  0  0  0  0  0  0  0  0
   17.6095   65.7904  -15.5155 O   0  0  0  0  0  0  0  0  0  0  0  0
   17.9667   65.1419  -14.0683 P   0  0  0  0  0  0  0  0  0  0  0  0
   17.9817   66.2276  -13.0587 O   0  0  0  0  0  0  0  0  0  0  0  0
   16.8376   64.0736  -13.6748 O   0  0  0  0  0  0  0  0  0  0  0  0
   19.4032   64.4223  -14.0699 O   0  0  0  0  0  0  0  0  0  0  0  0
   17.0476   63.6844  -12.8115 H   0  0  0  0  0  0  0  0  0  0  0  0
   19.5790   64.0493  -13.1919 H   0  0  0  0  0  0  0  0  0  0  0  0
 31 32  2  0  0  0
 31 33  1  0  0  0
 31 34  1  0  0  0
 31 30  1  0  0  0
 30 26  1  0  0  0
 26 27  2  0  0  0
 26 28  1  0  0  0
 26 25  1  0  0  0
 25 24  1  0  0  0
 24  1  1  0  0  0
  1  2  1  0  0  0
  1  3  1  0  0  0
  2  7  1  0  0  0
  3  4  1  0  0  0
  3  5  1  0  0  0
  5  6  1  0  0  0
  5  7  1  0  0  0
  7 10  1  0  0  0
 10 11  1  0  0  0
 10 20  1  0  0  0
 11 12  2  0  0  0
 12 13  1  0  0  0
 13 14  1  0  0  0
 13 20  2  0  0  0
 14 15  2  0  0  0
 14 16  1  0  0  0
 16 17  1  0  0  0
 17 18  1  0  0  0
 17 19  2  0  0  0
 19 20  1  0  0  0
 33 35  1  0  0  0
 34 36  1  0  0  0
 28 29  1  0  0  0
  4  8  1  0  0  0
  6  9  1  0  0  0
 16 21  1  0  0  0
 18 22  1  0  0  0
 18 23  1  0  0  0
M  END
> <minimizedAffinity>
-7.30013

$$$$
2RCN_GDP_A_600


 36 38  0  0  0  0  0  0  0  0999 V2000
   20.8520   65.6231  -16.3565 C   0  0  0  0  0  0  0  0  0  0  0  0
   21.6498   66.7585  -16.8249 O   0  0  0  0  0  0  0  0  0  0  0  0
   21.8734   64.5078  -15.9378 C   0  0  0  0  0  0  0  0  0  0  0  0
   21.4828   63.8289  -14.7357 O   0  0  0  0  0  0  0  0  0  0  0  0
   23.1667   65.2973  -15.7177 C   0  0  0  0  0  0  0  0  0  0  0  0
   24.3131   64.4741  -15.9130 O   0  0  0  0  0  0  0  0  0  0  0  0
   23.0480   66.3601  -16.8184 C   0  0  0  0  0  0  0  0  0  0  0  0
   21.3888   64.4731  -14.0166 H   0  0  0  0  0  0  0  0  0  0  0  0
   24.2781   64.0753  -16.7966 H   0  0  0  0  0  0  0  0  0  0  0  0
   23.9178   67.5099  -16.5614 N   0  0  0  0  0  0  0  0  0  0  0  0
   24.2910   68.4775  -17.4661 C   0  0  0  0  0  0  0  0  0  0  0  0
   25.1828   69.2677  -16.9376 N   0  0  0  0  0  0  0  0  0  0  0  0
   25.5104   68.8041  -15.7104 C   0  0  0  0  0  0  0  0  0  0  0  0
   26.3263   69.2900  -14.6444 C   0  0  0  0  0  0  0  0  0  0  0  0
   27.0266   70.2738  -14.8015 O   0  0  0  0  0  0  0  0  0  0  0  0
   26.4009   68.5533  -13.4862 N   0  0  0  0  0  0  0  0  0  0  0  0
   25.5600   67.4763  -13.2840 C   0  0  0  0  0  0  0  0  0  0  0  0
   25.5273   66.8628  -12.0587 N   0  0  0  0  0  0  0  0  0  0  0  0
   24.7293   67.0698  -14.2397 N   0  0  0  0  0  0  0  0  0  0  0  0
   24.7176   67.6519  -15.4665 C   0  0  0  0  0  0  0  0  0  0  0  0
   27.0590   68.7954  -12.7951 H   0  0  0  0  0  0  0  0  0  0  0  0
   26.1382   67.1565  -11.3447 H   0  0  0  0  0  0  0  0  0  0  0  0
   24.8929   66.1286  -11.8927 H   0  0  0  0  0  0  0  0  0  0  0  0
   19.9350   66.0665  -15.1927 C   0  0  0  0  0  0  0  0  0  0  0  0
   18.5734   65.7202  -15.5058 O   0  0  0  0  0  0  0  0  0  0  0  0
   17.8355   65.2287  -14.1563 P   0  0  0  0  0  0  0  0  0  0  0  0
   18.5455   64.0569  -13.5909 O   0  0  0  0  0  0  0  0  0  0  0  0
   17.8747   66.4334  -13.0952 O   0  0  0  0  0  0  0  0  0  0  0  0
   17.4352   66.1570  -12.2759 H   0  0  0  0  0  0  0  0  0  0  0  0
   16.2822   64.8682  -14.5279 O   0  0  0  0  0  0  0  0  0  0  0  0
   16.1658   63.6439  -15.5910 P   0  0  0  0  0  0  0  0  0  0  0  0
   15.6030   64.1735  -16.8564 O   0  0  0  0  0  0  0  0  0  0  0  0
   17.6276   63.0489  -15.8740 O   0  0  0  0  0  0  0  0  0  0  0  0
   15.2081   62.4706  -15.0546 O   0  0  0  0  0  0  0  0  0  0  0  0
   17.5620   62.3179  -16.5082 H   0  0  0  0  0  0  0  0  0  0  0  0
   15.1647   61.7613  -15.7148 H   0  0  0  0  0  0  0  0  0  0  0  0
 31 32  2  0  0  0
 31 33  1  0  0  0
 31 34  1  0  0  0
 31 30  1  0  0  0
 30 26  1  0  0  0
 26 27  2  0  0  0
 26 28  1  0  0  0
 26 25  1  0  0  0
 25 24  1  0  0  0
 24  1  1  0  0  0
  1  2  1  0  0  0
  1  3  1  0  0  0
  2  7  1  0  0  0
  3  4  1  0  0  0
  3  5  1  0  0  0
  5  6  1  0  0  0
  5  7  1  0  0  0
  7 10  1  0  0  0
 10 11  1  0  0  0
 10 20  1  0  0  0
 11 12  2  0  0  0
 12 13  1  0  0  0
 13 14  1  0  0  0
 13 20  2  0  0  0
 14 15  2  0  0  0
 14 16  1  0  0  0
 16 17  1  0  0  0
 17 18  1  0  0  0
 17 19  2  0  0  0
 19 20  1  0  0  0
 33 35  1  0  0  0
 34 36  1  0  0  0
 28 29  1  0  0  0
  4  8  1  0  0  0
  6  9  1  0  0  0
 16 21  1  0  0  0
 18 22  1  0  0  0
 18 23  1  0  0  0
M  END
> <minimizedAffinity>
-7.27674

$$$$
2RCN_GDP_A_600


 36 38  0  0  0  0  0  0  0  0999 V2000
   24.3861   69.3778  -17.2250 C   0  0  0  0  0  0  0  0  0  0  0  0
   25.3813   68.8074  -16.3145 O   0  0  0  0  0  0  0  0  0  0  0  0
   23.0305   68.6534  -16.9086 C   0  0  0  0  0  0  0  0  0  0  0  0
   21.9107   69.5502  -16.9300 O   0  0  0  0  0  0  0  0  0  0  0  0
   23.2593   68.1069  -15.4966 C   0  0  0  0  0  0  0  0  0  0  0  0
   22.4482   66.9620  -15.2490 O   0  0  0  0  0  0  0  0  0  0  0  0
   24.7460   67.7334  -15.5682 C   0  0  0  0  0  0  0  0  0  0  0  0
   22.0567   70.2650  -16.2908 H   0  0  0  0  0  0  0  0  0  0  0  0
   22.6188   66.2917  -15.9289 H   0  0  0  0  0  0  0  0  0  0  0  0
   25.3391   67.6011  -14.2357 N   0  0  0  0  0  0  0  0  0  0  0  0
   24.9380   66.7416  -13.2384 C   0  0  0  0  0  0  0  0  0  0  0  0
   25.5937   66.9902  -12.1396 N   0  0  0  0  0  0  0  0  0  0  0  0
   26.3752   68.0772  -12.3290 C   0  0  0  0  0  0  0  0  0  0  0  0
   27.3676   68.7420  -11.5473 C   0  0  0  0  0  0  0  0  0  0  0  0
   27.5577   68.4215  -10.3878 O   0  0  0  0  0  0  0  0  0  0  0  0
   28.0103   69.8298  -12.0889 N   0  0  0  0  0  0  0  0  0  0  0  0
   27.8423   70.1526  -13.4214 C   0  0  0  0  0  0  0  0  0  0  0  0
   28.6207   71.1297  -13.9852 N   0  0  0  0  0  0  0  0  0  0  0  0
   26.9850   69.4800  -14.1840 N   0  0  0  0  0  0  0  0  0  0  0  0
   26.1991   68.4972  -13.6737 C   0  0  0  0  0  0  0  0  0  0  0  0
   28.5950   70.3834  -11.5224 H   0  0  0  0  0  0  0  0  0  0  0  0
   29.2583   71.6331  -13.4291 H   0  0  0  0  0  0  0  0  0  0  0  0
   28.5422   71.3281  -14.9463 H   0  0  0  0  0  0  0  0  0  0  0  0
   24.3090   70.9101  -17.0301 C   0  0  0  0  0  0  0  0  0  0  0  0
   25.4480   71.3470  -16.2661 O   0  0  0  0  0  0  0  0  0  0  0  0
   26.1116   72.6230  -17.0000 P   0  0  0  0  0  0  0  0  0  0  0  0
   25.9226   72.5166  -18.4663 O   0  0  0  0  0  0  0  0  0  0  0  0
   25.3767   73.9474  -16.4669 O   0  0  0  0  0  0  0  0  0  0  0  0
   25.7622   74.7266  -16.8971 H   0  0  0  0  0  0  0  0  0  0  0  0
   27.6988   72.6714  -16.6008 O   0  0  0  0  0  0  0  0  0  0  0  0
   28.5564   71.4921  -17.3195 P   0  0  0  0  0  0  0  0  0  0  0  0
   29.9386   71.5246  -16.7840 O   0  0  0  0  0  0  0  0  0  0  0  0
   27.8932   70.0729  -16.9774 O   0  0  0  0  0  0  0  0  0  0  0  0
   28.6189   71.6802  -18.9139 O   0  0  0  0  0  0  0  0  0  0  0  0
   28.4025   69.3666  -17.4048 H   0  0  0  0  0  0  0  0  0  0  0  0
   29.1374   70.9594  -19.3044 H   0  0  0  0  0  0  0  0  0  0  0  0
 31 32  2  0  0  0
 31 33  1  0  0  0
 31 34  1  0  0  0
 31 30  1  0  0  0
 30 26  1  0  0  0
 26 27  2  0  0  0
 26 28  1  0  0  0
 26 25  1  0  0  0
 25 24  1  0  0  0
 24  1  1  0  0  0
  1  2  1  0  0  0
  1  3  1  0  0  0
  2  7  1  0  0  0
  3  4  1  0  0  0
  3  5  1  0  0  0
  5  6  1  0  0  0
  5  7  1  0  0  0
  7 10  1  0  0  0
 10 11  1  0  0  0
 10 20  1  0  0  0
 11 12  2  0  0  0
 12 13  1  0  0  0
 13 14  1  0  0  0
 13 20  2  0  0  0
 14 15  2  0  0  0
 14 16  1  0  0  0
 16 17  1  0  0  0
 17 18  1  0  0  0
 17 19  2  0  0  0
 19 20  1  0  0  0
 33 35  1  0  0  0
 34 36  1  0  0  0
 28 29  1  0  0  0
  4  8  1  0  0  0
  6  9  1  0  0  0
 16 21  1  0  0  0
 18 22  1  0  0  0
 18 23  1  0  0  0
M  END
> <minimizedAffinity>
-6.96308

$$$$
2RCN_GDP_A_600


 36 38  0  0  0  0  0  0  0  0999 V2000
   21.8112   66.6164  -17.6743 C   0  0  0  0  0  0  0  0  0  0  0  0
   21.6217   67.9354  -18.2820 O   0  0  0  0  0  0  0  0  0  0  0  0
   22.9564   66.7785  -16.6138 C   0  0  0  0  0  0  0  0  0  0  0  0
   22.6937   66.0496  -15.4062 O   0  0  0  0  0  0  0  0  0  0  0  0
   22.9602   68.2861  -16.3461 C   0  0  0  0  0  0  0  0  0  0  0  0
   24.2402   68.7281  -15.9032 O   0  0  0  0  0  0  0  0  0  0  0  0
   22.6344   68.8292  -17.7440 C   0  0  0  0  0  0  0  0  0  0  0  0
   21.8518   66.3459  -15.0264 H   0  0  0  0  0  0  0  0  0  0  0  0
   24.9130   68.4742  -16.5542 H   0  0  0  0  0  0  0  0  0  0  0  0
   22.1408   70.2070  -17.6916 N   0  0  0  0  0  0  0  0  0  0  0  0
   20.8576   70.6315  -17.9514 C   0  0  0  0  0  0  0  0  0  0  0  0
   20.8058   71.9339  -17.9508 N   0  0  0  0  0  0  0  0  0  0  0  0
   22.0559   72.4246  -17.7931 C   0  0  0  0  0  0  0  0  0  0  0  0
   22.6001   73.7322  -17.6137 C   0  0  0  0  0  0  0  0  0  0  0  0
   21.8923   74.7168  -17.7264 O   0  0  0  0  0  0  0  0  0  0  0  0
   23.9576   73.8603  -17.4389 N   0  0  0  0  0  0  0  0  0  0  0  0
   24.7489   72.7446  -17.2470 C   0  0  0  0  0  0  0  0  0  0  0  0
   26.0664   72.8994  -16.9023 N   0  0  0  0  0  0  0  0  0  0  0  0
   24.2335   71.5208  -17.3223 N   0  0  0  0  0  0  0  0  0  0  0  0
   22.9319   71.3165  -17.6507 C   0  0  0  0  0  0  0  0  0  0  0  0
   24.3691   74.7546  -17.4507 H   0  0  0  0  0  0  0  0  0  0  0  0
   26.4572   73.8011  -16.8439 H   0  0  0  0  0  0  0  0  0  0  0  0
   26.6219   72.1089  -16.7132 H   0  0  0  0  0  0  0  0  0  0  0  0
   20.4824   66.1250  -17.0541 C   0  0  0  0  0  0  0  0  0  0  0  0
   20.5715   64.7099  -16.8061 O   0  0  0  0  0  0  0  0  0  0  0  0
   19.5918   64.3313  -15.5797 P   0  0  0  0  0  0  0  0  0  0  0  0
   18.9215   63.0373  -15.8502 O   0  0  0  0  0  0  0  0  0  0  0  0
   20.4810   64.1984  -14.2492 O   0  0  0  0  0  0  0  0  0  0  0  0
   19.9091   63.9708  -13.4995 H   0  0  0  0  0  0  0  0  0  0  0  0
   18.5066   65.5444  -15.4019 O   0  0  0  0  0  0  0  0  0  0  0  0
   17.6030   65.3780  -14.0607 P   0  0  0  0  0  0  0  0  0  0  0  0
   16.1828   65.6043  -14.4211 O   0  0  0  0  0  0  0  0  0  0  0  0
   17.7704   63.8881  -13.4923 O   0  0  0  0  0  0  0  0  0  0  0  0
   18.0179   66.4323  -12.9215 O   0  0  0  0  0  0  0  0  0  0  0  0
   17.2325   63.7852  -12.6917 H   0  0  0  0  0  0  0  0  0  0  0  0
   17.4580   66.3014  -12.1404 H   0  0  0  0  0  0  0  0  0  0  0  0
 31 32  2  0  0  0
 31 33  1  0  0  0
 31 34  1  0  0  0
 31 30  1  0  0  0
 30 26  1  0  0  0
 26 27  2  0  0  0
 26 28  1  0  0  0
 26 25  1  0  0  0
 25 24  1  0  0  0
 24  1  1  0  0  0
  1  2  1  0  0  0
  1  3  1  0  0  0
  2  7  1  0  0  0
  3  4  1  0  0  0
  3  5  1  0  0  0
  5  6  1  0  0  0
  5  7  1  0  0  0
  7 10  1  0  0  0
 10 11  1  0  0  0
 10 20  1  0  0  0
 11 12  2  0  0  0
 12 13  1  0  0  0
 13 14  1  0  0  0
 13 20  2  0  0  0
 14 15  2  0  0  0
 14 16  1  0  0  0
 16 17  1  0  0  0
 17 18  1  0  0  0
 17 19  2  0  0  0
 19 20  1  0  0  0
 33 35  1  0  0  0
 34 36  1  0  0  0
 28 29  1  0  0  0
  4  8  1  0  0  0
  6  9  1  0  0  0
 16 21  1  0  0  0
 18 22  1  0  0  0
 18 23  1  0  0  0
M  END
> <minimizedAffinity>
-6.82221

$$$$
2RCN_GDP_A_600


 36 38  0  0  0  0  0  0  0  0999 V2000
   24.5420   70.2440  -17.4205 C   0  0  0  0  0  0  0  0  0  0  0  0
   25.0500   70.7842  -16.1576 O   0  0  0  0  0  0  0  0  0  0  0  0
   25.7674   69.5813  -18.1428 C   0  0  0  0  0  0  0  0  0  0  0  0
   25.4255   68.3409  -18.7776 O   0  0  0  0  0  0  0  0  0  0  0  0
   26.7528   69.3480  -16.9942 C   0  0  0  0  0  0  0  0  0  0  0  0
   28.0969   69.3185  -17.4658 O   0  0  0  0  0  0  0  0  0  0  0  0
   26.4906   70.5895  -16.1312 C   0  0  0  0  0  0  0  0  0  0  0  0
   25.0644   67.7286  -18.1175 H   0  0  0  0  0  0  0  0  0  0  0  0
   28.2889   70.1387  -17.9468 H   0  0  0  0  0  0  0  0  0  0  0  0
   26.9685   70.4095  -14.7586 N   0  0  0  0  0  0  0  0  0  0  0  0
   27.9596   71.1296  -14.1315 C   0  0  0  0  0  0  0  0  0  0  0  0
   28.2245   70.6099  -12.9659 N   0  0  0  0  0  0  0  0  0  0  0  0
   27.5016   69.4774  -12.8137 C   0  0  0  0  0  0  0  0  0  0  0  0
   27.2955   68.5612  -11.7384 C   0  0  0  0  0  0  0  0  0  0  0  0
   27.9538   68.6485  -10.7176 O   0  0  0  0  0  0  0  0  0  0  0  0
   26.4338   67.5073  -11.9296 N   0  0  0  0  0  0  0  0  0  0  0  0
   25.6412   67.4448  -13.0591 C   0  0  0  0  0  0  0  0  0  0  0  0
   24.6674   66.4847  -13.1512 N   0  0  0  0  0  0  0  0  0  0  0  0
   25.7617   68.3472  -14.0286 N   0  0  0  0  0  0  0  0  0  0  0  0
   26.7046   69.3231  -13.9784 C   0  0  0  0  0  0  0  0  0  0  0  0
   26.3812   66.7913  -11.2560 H   0  0  0  0  0  0  0  0  0  0  0  0
   24.5701   65.8123  -12.4387 H   0  0  0  0  0  0  0  0  0  0  0  0
   24.0652   66.4674  -13.9299 H   0  0  0  0  0  0  0  0  0  0  0  0
   23.3945   69.2448  -17.1438 C   0  0  0  0  0  0  0  0  0  0  0  0
   23.9363   68.0617  -16.5285 O   0  0  0  0  0  0  0  0  0  0  0  0
   22.7575   66.9702  -16.3662 P   0  0  0  0  0  0  0  0  0  0  0  0
   21.7759   67.4338  -15.3569 O   0  0  0  0  0  0  0  0  0  0  0  0
   22.0221   66.8105  -17.7847 O   0  0  0  0  0  0  0  0  0  0  0  0
   21.3091   66.1574  -17.7075 H   0  0  0  0  0  0  0  0  0  0  0  0
   23.4387   65.5461  -15.9319 O   0  0  0  0  0  0  0  0  0  0  0  0
   24.8049   65.2339  -16.7558 P   0  0  0  0  0  0  0  0  0  0  0  0
   25.0463   63.7713  -16.7264 O   0  0  0  0  0  0  0  0  0  0  0  0
   24.6241   65.7066  -18.2772 O   0  0  0  0  0  0  0  0  0  0  0  0
   26.0768   65.9773  -16.1148 O   0  0  0  0  0  0  0  0  0  0  0  0
   25.4377   65.5218  -18.7720 H   0  0  0  0  0  0  0  0  0  0  0  0
   26.8694   65.7668  -16.6329 H   0  0  0  0  0  0  0  0  0  0  0  0
 31 32  2  0  0  0
 31 33  1  0  0  0
 31 34  1  0  0  0
 31 30  1  0  0  0
 30 26  1  0  0  0
 26 27  2  0  0  0
 26 28  1  0  0  0
 26 25  1  0  0  0
 25 24  1  0  0  0
 24  1  1  0  0  0
  1  2  1  0  0  0
  1  3  1  0  0  0
  2  7  1  0  0  0
  3  4  1  0  0  0
  3  5  1  0  0  0
  5  6  1  0  0  0
  5  7  1  0  0  0
  7 10  1  0  0  0
 10 11  1  0  0  0
 10 20  1  0  0  0
 11 12  2  0  0  0
 12 13  1  0  0  0
 13 14  1  0  0  0
 13 20  2  0  0  0
 14 15  2  0  0  0
 14 16  1  0  0  0
 16 17  1  0  0  0
 17 18  1  0  0  0
 17 19  2  0  0  0
 19 20  1  0  0  0
 33 35  1  0  0  0
 34 36  1  0  0  0
 28 29  1  0  0  0
  4  8  1  0  0  0
  6  9  1  0  0  0
 16 21  1  0  0  0
 18 22  1  0  0  0
 18 23  1  0  0  0
M  END
> <minimizedAffinity>
-6.76660

$$$$
