4UAC_ACR_A_501
  RCSB PDB12061715043D
Coordinates from PDB:4UAC:A:501 Model:1 without hydrogens
 44 47  0  0  0  0            999 V2000
   22.3150   66.1510   27.7300   C 0  0  0  0  0  0  0  0  0  0  0  0
   22.2570   67.3520   28.8500   C 0  0  0  0  0  0  0  0  0  0  0  0
   22.7560   66.9640   29.9860   C 0  0  0  0  0  0  0  0  0  0  0  0
   21.9070   65.7970   30.7410   C 0  0  0  0  0  0  0  0  0  0  0  0
   21.6340   64.6790   29.8660   C 0  0  0  0  0  0  0  0  0  0  0  0
   21.1630   63.3510   30.3740   C 0  0  0  0  0  0  0  0  0  0  0  0
   21.8450   64.9070   28.2090   C 0  0  0  0  0  0  0  0  0  0  0  0
   23.0600   68.4710   28.2800   O 0  0  0  0  0  0  0  0  0  0  0  0
   22.7920   68.1140   30.9660   O 0  0  0  0  0  0  0  0  0  0  0  0
   22.5610   65.3430   31.9340   O 0  0  0  0  0  0  0  0  0  0  0  0
   20.2300   62.8880   29.4380   O 0  0  0  0  0  0  0  0  0  0  0  0
   25.4350   65.4630   23.4290   C 0  0  0  0  0  0  0  0  0  0  0  0
   25.0790   66.8420   23.9060   C 0  0  0  0  0  0  0  0  0  0  0  0
   24.9660   66.8860   25.3900   C 0  0  0  0  0  0  0  0  0  0  0  0
   23.9070   65.9220   25.8340   C 0  0  0  0  0  0  0  0  0  0  0  0
   24.3220   64.5370   25.3890   C 0  0  0  0  0  0  0  0  0  0  0  0
   23.3120   63.4630   25.6850   C 0  0  0  0  0  0  0  0  0  0  0  0
   23.7260   66.0160   27.2860   N 0  0  0  0  0  0  0  0  0  0  0  0
   26.1060   67.7530   23.4510   O 0  0  0  0  0  0  0  0  0  0  0  0
   24.6320   68.2140   25.8460   O 0  0  0  0  0  0  0  0  0  0  0  0
   24.4330   64.4950   23.9330   O 0  0  0  0  0  0  0  0  0  0  0  0
   30.3360   63.7300   22.3330   C 0  0  0  0  0  0  0  0  0  0  0  0
   29.6980   64.9220   21.6880   C 0  0  0  0  0  0  0  0  0  0  0  0
   28.6630   65.5260   22.5760   C 0  0  0  0  0  0  0  0  0  0  0  0
   27.6150   64.5260   22.9630   C 0  0  0  0  0  0  0  0  0  0  0  0
   28.2580   63.2810   23.5450   C 0  0  0  0  0  0  0  0  0  0  0  0
   27.2160   62.1990   23.7290   C 0  0  0  0  0  0  0  0  0  0  0  0
   30.7290   65.8820   21.3750   O 0  0  0  0  0  0  0  0  0  0  0  0
   28.0520   66.6630   21.9100   O 0  0  0  0  0  0  0  0  0  0  0  0
   26.6920   65.0870   23.9400   O 0  0  0  0  0  0  0  0  0  0  0  0
   29.2920   62.7500   22.6570   O 0  0  0  0  0  0  0  0  0  0  0  0
   27.8000   61.0390   24.3570   O 0  0  0  0  0  0  0  0  0  0  0  0
   34.8890   63.6670   25.0410   C 0  0  0  0  0  0  0  0  0  0  0  0
   34.6750   64.4640   23.7700   C 0  0  0  0  0  0  0  0  0  0  0  0
   33.2590   64.8930   23.6070   C 0  0  0  0  0  0  0  0  0  0  0  0
   32.3330   63.7220   23.6200   C 0  0  0  0  0  0  0  0  0  0  0  0
   32.5130   62.9450   24.9110   C 0  0  0  0  0  0  0  0  0  0  0  0
   31.7760   61.6450   24.8910   C 0  0  0  0  0  0  0  0  0  0  0  0
   34.7400   64.4820   26.1520   O 0  0  0  0  0  0  0  0  0  0  0  0
   35.6100   65.5690   23.6860   O 0  0  0  0  0  0  0  0  0  0  0  0
   33.1410   65.5560   22.3180   O 0  0  0  0  0  0  0  0  0  0  0  0
   30.9780   64.1610   23.4910   O 0  0  0  0  0  0  0  0  0  0  0  0
   33.9140   62.5640   25.0880   O 0  0  0  0  0  0  0  0  0  0  0  0
   31.9410   60.9960   26.1610   O 0  0  0  0  0  0  0  0  0  0  0  0
  1  2  1  0  0  0  0
  1  7  1  0  0  0  0
  1 18  1  0  0  0  0
  2  3  1  0  0  0  0
  2  8  1  0  0  0  0
  3  4  1  0  0  0  0
  3  9  1  0  0  0  0
  4  5  1  0  0  0  0
  4 10  1  0  0  0  0
  5  6  1  0  0  0  0
  5  7  2  0  0  0  0
  6 11  1  0  0  0  0
 12 13  1  0  0  0  0
 12 21  1  0  0  0  0
 12 30  1  0  0  0  0
 13 14  1  0  0  0  0
 13 19  1  0  0  0  0
 14 15  1  0  0  0  0
 14 20  1  0  0  0  0
 15 16  1  0  0  0  0
 15 18  1  0  0  0  0
 16 17  1  0  0  0  0
 16 21  1  0  0  0  0
 22 23  1  0  0  0  0
 22 31  1  0  0  0  0
 22 42  1  0  0  0  0
 23 24  1  0  0  0  0
 23 28  1  0  0  0  0
 24 25  1  0  0  0  0
 24 29  1  0  0  0  0
 25 26  1  0  0  0  0
 25 30  1  0  0  0  0
 26 27  1  0  0  0  0
 26 31  1  0  0  0  0
 27 32  1  0  0  0  0
 33 34  1  0  0  0  0
 33 39  1  0  0  0  0
 33 43  1  0  0  0  0
 34 35  1  0  0  0  0
 34 40  1  0  0  0  0
 35 36  1  0  0  0  0
 35 41  1  0  0  0  0
 36 37  1  0  0  0  0
 36 42  1  0  0  0  0
 37 38  1  0  0  0  0
 37 43  1  0  0  0  0
 38 44  1  0  0  0  0
A    1
C1A
A    2
C2A
A    3
C3A
A    4
C4A
A    5
C5A
A    6
C6A
A    7
C7A
A    8
O2A
A    9
O3A
A   10
O4A
A   11
O6A
A   12
C1B
A   13
C2B
A   14
C3B
A   15
C4B
A   16
C5B
A   17
C6B
A   18
N4B
A   19
O2B
A   20
O3B
A   21
O5B
A   22
C1C
A   23
C2C
A   24
C3C
A   25
C4C
A   26
C5C
A   27
C6C
A   28
O2C
A   29
O3C
A   30
O4C
A   31
O5C
A   32
O6C
A   33
C1D
A   34
C2D
A   35
C3D
A   36
C4D
A   37
C5D
A   38
C6D
A   39
O1D
A   40
O2D
A   41
O3D
A   42
O4D
A   43
O5D
A   44
O6D
M  END
>  <InstanceId>
4UAC_ACR_A_501

>  <ChemCompId>
ACR

>  <PdbId>
4UAC

>  <ChainId>
A

>  <ResidueNumber>
501

>  <InsertionCode>


>  <Model>
1

>  <AltIds>


>  <MissingHeavyAtoms>
0

>  <ObservedFormula>
C25 N O18

>  <Name>
ALPHA-ACARBOSE

>  <SystematicName>
(2S,3R,4R,5S,6R)-5-[(2R,3R,4R,5S,6R)-5-[(2R,3R,4S,5S,6R)-3,4-dihydroxy-6-methyl-5-[[(1S,4R,5S,6S)-4,5,6-trihydroxy-3-(hydroxymethyl)cyclohex-2-en-1-yl]amino]oxan-2-yl]oxy-3,4-dihydroxy-6-(hydroxymethyl)oxan-2-yl]oxy-6-(hydroxymethyl)oxane-2,3,4-triol

>  <Synonyms>
1,4-DEOXY-4-((5-HYDROXYMETHYL-2,3,4-TRIHYDROXYCYCLOHEX-5,6-ENYL)AMINO)FRUCTOSE

>  <Type>
SACCHARIDE

>  <Formula>
C25 H43 N O18

>  <MolecularWeight>
645.605

>  <ModifiedDate>
2011-06-04

>  <Parent>


>  <OneLetterCode>


>  <SubcomponentList>


>  <AmbiguousFlag>
N

>  <InChI>
InChI=1S/C25H43NO18/c1-6-11(26-8-2-7(3-27)12(30)15(33)13(8)31)14(32)19(37)24(40-6)43-22-10(5-29)42-25(20(38)17(22)35)44-21-9(4-28)41-23(39)18(36)16(21)34/h2,6,8-39H,3-5H2,1H3/t6-,8+,9-,10-,11-,12-,13+,14+,15+,16-,17-,18-,19-,20-,21-,22-,23+,24-,25-/m1/s1

>  <InChIKey>
XUFXOAAUWZOOIT-WVJZLWNXSA-N

>  <SMILES>
C[C@@H]1[C@H]([C@@H]([C@H]([C@H](O1)O[C@@H]2[C@H](O[C@@H]([C@@H]([C@H]2O)O)O[C@@H]3[C@H](O[C@@H]([C@@H]([C@H]3O)O)O)CO)CO)O)O)N[C@H]4C=C([C@H]([C@@H]([C@H]4O)O)O)CO

$$$$
