4UAC_ACR_A_501


 58 61  0  0  0  0  0  0  0  0999 V2000
   30.2115   63.6865   22.5357 C   0  0  0  0  0  0  0  0  0  0  0  0
   29.4764   64.8107   21.8724 C   0  0  0  0  0  0  0  0  0  0  0  0
   28.5060   65.4473   22.8092 C   0  0  0  0  0  0  0  0  0  0  0  0
   27.5330   64.4484   23.3600 C   0  0  0  0  0  0  0  0  0  0  0  0
   28.2691   63.2670   23.9640 C   0  0  0  0  0  0  0  0  0  0  0  0
   30.4407   65.7745   21.3994 O   0  0  0  0  0  0  0  0  0  0  0  0
   27.7979   66.5158   22.1263 O   0  0  0  0  0  0  0  0  0  0  0  0
   29.2360   62.7032   23.0222 O   0  0  0  0  0  0  0  0  0  0  0  0
   30.9495   66.1181   22.1504 H   0  0  0  0  0  0  0  0  0  0  0  0
   27.3011   66.1483   21.3786 H   0  0  0  0  0  0  0  0  0  0  0  0
   27.2864   62.1720   24.3182 C   0  0  0  0  0  0  0  0  0  0  0  0
   26.2008   62.1431   23.3687 O   0  0  0  0  0  0  0  0  0  0  0  0
   25.7352   62.9939   23.3839 H   0  0  0  0  0  0  0  0  0  0  0  0
   26.6836   65.0517   24.3778 O   0  0  0  0  0  0  0  0  0  0  0  0
   25.4534   65.5527   23.9108 C   0  0  0  0  0  0  0  0  0  0  0  0
   25.0761   66.7857   24.6811 C   0  0  0  0  0  0  0  0  0  0  0  0
   24.8911   66.4819   26.1269 C   0  0  0  0  0  0  0  0  0  0  0  0
   23.8107   65.4539   26.2817 C   0  0  0  0  0  0  0  0  0  0  0  0
   24.2453   64.2069   25.5439 C   0  0  0  0  0  0  0  0  0  0  0  0
   23.2209   63.1061   25.5316 C   0  0  0  0  0  0  0  0  0  0  0  0
   26.1250   67.7651   24.5016 O   0  0  0  0  0  0  0  0  0  0  0  0
   24.5367   67.6700   26.8658 O   0  0  0  0  0  0  0  0  0  0  0  0
   24.4270   64.5061   24.1257 O   0  0  0  0  0  0  0  0  0  0  0  0
   26.9622   67.4074   24.8365 H   0  0  0  0  0  0  0  0  0  0  0  0
   23.7005   68.0249   26.5256 H   0  0  0  0  0  0  0  0  0  0  0  0
   23.5593   65.2070   27.7050 N   0  0  0  0  0  0  0  0  0  0  0  0
   23.9318   64.2865   27.9381 H   0  0  0  0  0  0  0  0  0  0  0  0
   22.1276   65.2396   28.0991 C   0  0  0  0  0  0  0  0  0  0  0  0
   21.9797   66.2877   29.3561 C   0  0  0  0  0  0  0  0  0  0  0  0
   22.4469   65.7760   30.4561 C   0  0  0  0  0  0  0  0  0  0  0  0
   21.6127   64.4966   31.0216 C   0  0  0  0  0  0  0  0  0  0  0  0
   21.4171   63.4894   30.0031 C   0  0  0  0  0  0  0  0  0  0  0  0
   21.6857   63.9308   28.3983 C   0  0  0  0  0  0  0  0  0  0  0  0
   22.7624   67.4947   28.9660 O   0  0  0  0  0  0  0  0  0  0  0  0
   22.4004   66.7941   31.5721 O   0  0  0  0  0  0  0  0  0  0  0  0
   22.2348   63.9174   32.1768 O   0  0  0  0  0  0  0  0  0  0  0  0
   23.6848   67.2431   28.8025 H   0  0  0  0  0  0  0  0  0  0  0  0
   21.4777   67.0284   31.7579 H   0  0  0  0  0  0  0  0  0  0  0  0
   23.1084   63.5721   31.9346 H   0  0  0  0  0  0  0  0  0  0  0  0
   20.9762   62.0936   30.3205 C   0  0  0  0  0  0  0  0  0  0  0  0
   20.2587   61.6512   29.2023 O   0  0  0  0  0  0  0  0  0  0  0  0
   19.5109   62.2477   29.0412 H   0  0  0  0  0  0  0  0  0  0  0  0
   30.9407   64.2175   23.5965 O   0  0  0  0  0  0  0  0  0  0  0  0
   34.9483   63.8044   24.9046 C   0  0  0  0  0  0  0  0  0  0  0  0
   34.6534   64.4460   23.5638 C   0  0  0  0  0  0  0  0  0  0  0  0
   33.2377   64.8924   23.4532 C   0  0  0  0  0  0  0  0  0  0  0  0
   32.2928   63.7588   23.6791 C   0  0  0  0  0  0  0  0  0  0  0  0
   32.5557   63.1405   25.0398 C   0  0  0  0  0  0  0  0  0  0  0  0
   34.9004   64.7530   25.9139 O   0  0  0  0  0  0  0  0  0  0  0  0
   35.6006   65.5052   23.2750 O   0  0  0  0  0  0  0  0  0  0  0  0
   33.0345   65.3961   22.1041 O   0  0  0  0  0  0  0  0  0  0  0  0
   33.9584   62.7439   25.1594 O   0  0  0  0  0  0  0  0  0  0  0  0
   34.0149   65.1477   25.9449 H   0  0  0  0  0  0  0  0  0  0  0  0
   35.5149   66.2057   23.9404 H   0  0  0  0  0  0  0  0  0  0  0  0
   33.2139   64.6891   21.4646 H   0  0  0  0  0  0  0  0  0  0  0  0
   31.7941   61.8695   25.2352 C   0  0  0  0  0  0  0  0  0  0  0  0
   31.7547   61.1537   23.9913 O   0  0  0  0  0  0  0  0  0  0  0  0
   31.3196   61.6996   23.3178 H   0  0  0  0  0  0  0  0  0  0  0  0
 28 29  1  0  0  0
 28 33  1  0  0  0
 28 26  1  0  0  0
 29 30  1  0  0  0
 29 34  1  0  0  0
 30 31  1  0  0  0
 30 35  1  0  0  0
 31 32  1  0  0  0
 31 36  1  0  0  0
 32 40  1  0  0  0
 32 33  2  0  0  0
 40 41  1  0  0  0
 15 16  1  0  0  0
 15 23  1  0  0  0
 15 14  1  0  0  0
 16 17  1  0  0  0
 16 21  1  0  0  0
 17 18  1  0  0  0
 17 22  1  0  0  0
 18 19  1  0  0  0
 18 26  1  0  0  0
 19 20  1  0  0  0
 19 23  1  0  0  0
  1  2  1  0  0  0
  1  8  1  0  0  0
  1 43  1  0  0  0
  2  3  1  0  0  0
  2  6  1  0  0  0
  3  4  1  0  0  0
  3  7  1  0  0  0
  4  5  1  0  0  0
  4 14  1  0  0  0
  5 11  1  0  0  0
  5  8  1  0  0  0
 11 12  1  0  0  0
 44 45  1  0  0  0
 44 49  1  0  0  0
 44 52  1  0  0  0
 45 46  1  0  0  0
 45 50  1  0  0  0
 46 47  1  0  0  0
 46 51  1  0  0  0
 47 48  1  0  0  0
 47 43  1  0  0  0
 48 56  1  0  0  0
 48 52  1  0  0  0
 56 57  1  0  0  0
 34 37  1  0  0  0
 35 38  1  0  0  0
 36 39  1  0  0  0
 41 42  1  0  0  0
 26 27  1  0  0  0
 21 24  1  0  0  0
 22 25  1  0  0  0
  6  9  1  0  0  0
  7 10  1  0  0  0
 12 13  1  0  0  0
 49 53  1  0  0  0
 50 54  1  0  0  0
 51 55  1  0  0  0
 57 58  1  0  0  0
M  END
> <minimizedAffinity>
-12.55142

$$$$
4UAC_ACR_A_501


 58 61  0  0  0  0  0  0  0  0999 V2000
   34.0465   62.7273   24.7017 C   0  0  0  0  0  0  0  0  0  0  0  0
   34.0338   63.9398   23.8222 C   0  0  0  0  0  0  0  0  0  0  0  0
   32.6925   64.5922   23.8227 C   0  0  0  0  0  0  0  0  0  0  0  0
   31.6140   63.6388   23.4030 C   0  0  0  0  0  0  0  0  0  0  0  0
   31.6701   62.3727   24.2373 C   0  0  0  0  0  0  0  0  0  0  0  0
   35.0493   64.8545   24.2856 O   0  0  0  0  0  0  0  0  0  0  0  0
   32.7119   65.7484   22.9439 O   0  0  0  0  0  0  0  0  0  0  0  0
   33.0133   61.7934   24.2376 O   0  0  0  0  0  0  0  0  0  0  0  0
   34.8569   65.1149   25.1999 H   0  0  0  0  0  0  0  0  0  0  0  0
   32.9100   65.4630   22.0383 H   0  0  0  0  0  0  0  0  0  0  0  0
   30.7269   61.3357   23.6669 C   0  0  0  0  0  0  0  0  0  0  0  0
   29.9539   60.7244   24.7203 O   0  0  0  0  0  0  0  0  0  0  0  0
   30.5510   60.2881   25.3481 H   0  0  0  0  0  0  0  0  0  0  0  0
   30.2969   64.2442   23.5433 O   0  0  0  0  0  0  0  0  0  0  0  0
   29.5043   64.2297   22.3796 C   0  0  0  0  0  0  0  0  0  0  0  0
   28.7735   65.5345   22.2404 C   0  0  0  0  0  0  0  0  0  0  0  0
   27.8467   65.7574   23.3842 C   0  0  0  0  0  0  0  0  0  0  0  0
   26.8509   64.6379   23.4390 C   0  0  0  0  0  0  0  0  0  0  0  0
   27.6129   63.3461   23.6365 C   0  0  0  0  0  0  0  0  0  0  0  0
   26.7536   62.1121   23.6231 C   0  0  0  0  0  0  0  0  0  0  0  0
   29.7559   66.5938   22.1733 O   0  0  0  0  0  0  0  0  0  0  0  0
   27.1521   67.0156   23.2520 O   0  0  0  0  0  0  0  0  0  0  0  0
   28.5222   63.1286   22.5140 O   0  0  0  0  0  0  0  0  0  0  0  0
   30.2861   66.5950   22.9855 H   0  0  0  0  0  0  0  0  0  0  0  0
   26.6255   67.0101   22.4374 H   0  0  0  0  0  0  0  0  0  0  0  0
   25.8799   64.8878   24.5089 N   0  0  0  0  0  0  0  0  0  0  0  0
   26.0672   64.2316   25.2670 H   0  0  0  0  0  0  0  0  0  0  0  0
   24.4580   64.7363   24.1070 C   0  0  0  0  0  0  0  0  0  0  0  0
   23.6728   66.1197   24.5191 C   0  0  0  0  0  0  0  0  0  0  0  0
   23.4798   66.1897   25.8028 C   0  0  0  0  0  0  0  0  0  0  0  0
   22.4627   65.0675   26.4020 C   0  0  0  0  0  0  0  0  0  0  0  0
   22.8306   63.7323   25.9876 C   0  0  0  0  0  0  0  0  0  0  0  0
   23.9145   63.5769   24.7057 C   0  0  0  0  0  0  0  0  0  0  0  0
   24.5525   67.2320   24.0602 O   0  0  0  0  0  0  0  0  0  0  0  0
   22.8552   67.5159   26.1703 O   0  0  0  0  0  0  0  0  0  0  0  0
   22.3711   65.1339   27.8317 O   0  0  0  0  0  0  0  0  0  0  0  0
   25.4187   67.1578   24.4905 H   0  0  0  0  0  0  0  0  0  0  0  0
   21.9767   67.5830   25.7645 H   0  0  0  0  0  0  0  0  0  0  0  0
   23.2370   64.9346   28.2208 H   0  0  0  0  0  0  0  0  0  0  0  0
   22.2775   62.5023   26.6393 C   0  0  0  0  0  0  0  0  0  0  0  0
   21.8554   61.6688   25.5963 O   0  0  0  0  0  0  0  0  0  0  0  0
   21.1936   62.1323   25.0596 H   0  0  0  0  0  0  0  0  0  0  0  0
   33.7824   63.1400   26.0051 O   0  0  0  0  0  0  0  0  0  0  0  0
   35.6207   62.3787   29.7446 C   0  0  0  0  0  0  0  0  0  0  0  0
   36.4223   63.0069   28.6225 C   0  0  0  0  0  0  0  0  0  0  0  0
   35.5503   63.5849   27.5636 C   0  0  0  0  0  0  0  0  0  0  0  0
   34.6287   62.5551   26.9986 C   0  0  0  0  0  0  0  0  0  0  0  0
   33.7927   61.9538   28.1132 C   0  0  0  0  0  0  0  0  0  0  0  0
   34.9554   63.3562   30.4676 O   0  0  0  0  0  0  0  0  0  0  0  0
   37.3834   63.9606   29.1413 O   0  0  0  0  0  0  0  0  0  0  0  0
   36.4097   64.0667   26.4940 O   0  0  0  0  0  0  0  0  0  0  0  0
   34.6537   61.4268   29.1716 O   0  0  0  0  0  0  0  0  0  0  0  0
   34.3491   63.8355   29.8815 H   0  0  0  0  0  0  0  0  0  0  0  0
   36.9137   64.6851   29.5832 H   0  0  0  0  0  0  0  0  0  0  0  0
   36.9260   63.3276   26.1363 H   0  0  0  0  0  0  0  0  0  0  0  0
   33.0088   60.7686   27.6499 C   0  0  0  0  0  0  0  0  0  0  0  0
   31.7748   61.2224   27.0733 O   0  0  0  0  0  0  0  0  0  0  0  0
   31.2685   61.7141   27.7387 H   0  0  0  0  0  0  0  0  0  0  0  0
 28 29  1  0  0  0
 28 33  1  0  0  0
 28 26  1  0  0  0
 29 30  1  0  0  0
 29 34  1  0  0  0
 30 31  1  0  0  0
 30 35  1  0  0  0
 31 32  1  0  0  0
 31 36  1  0  0  0
 32 40  1  0  0  0
 32 33  2  0  0  0
 40 41  1  0  0  0
 15 16  1  0  0  0
 15 23  1  0  0  0
 15 14  1  0  0  0
 16 17  1  0  0  0
 16 21  1  0  0  0
 17 18  1  0  0  0
 17 22  1  0  0  0
 18 19  1  0  0  0
 18 26  1  0  0  0
 19 20  1  0  0  0
 19 23  1  0  0  0
  1  2  1  0  0  0
  1  8  1  0  0  0
  1 43  1  0  0  0
  2  3  1  0  0  0
  2  6  1  0  0  0
  3  4  1  0  0  0
  3  7  1  0  0  0
  4  5  1  0  0  0
  4 14  1  0  0  0
  5 11  1  0  0  0
  5  8  1  0  0  0
 11 12  1  0  0  0
 44 45  1  0  0  0
 44 49  1  0  0  0
 44 52  1  0  0  0
 45 46  1  0  0  0
 45 50  1  0  0  0
 46 47  1  0  0  0
 46 51  1  0  0  0
 47 48  1  0  0  0
 47 43  1  0  0  0
 48 56  1  0  0  0
 48 52  1  0  0  0
 56 57  1  0  0  0
 34 37  1  0  0  0
 35 38  1  0  0  0
 36 39  1  0  0  0
 41 42  1  0  0  0
 26 27  1  0  0  0
 21 24  1  0  0  0
 22 25  1  0  0  0
  6  9  1  0  0  0
  7 10  1  0  0  0
 12 13  1  0  0  0
 49 53  1  0  0  0
 50 54  1  0  0  0
 51 55  1  0  0  0
 57 58  1  0  0  0
M  END
> <minimizedAffinity>
-11.80876

$$$$
4UAC_ACR_A_501


 58 61  0  0  0  0  0  0  0  0999 V2000
   23.4729   65.6397   25.2233 C   0  0  0  0  0  0  0  0  0  0  0  0
   23.5972   64.3018   24.5611 C   0  0  0  0  0  0  0  0  0  0  0  0
   25.0055   63.8119   24.5957 C   0  0  0  0  0  0  0  0  0  0  0  0
   25.9470   64.7912   23.9611 C   0  0  0  0  0  0  0  0  0  0  0  0
   25.7717   66.1689   24.5721 C   0  0  0  0  0  0  0  0  0  0  0  0
   22.7151   63.3750   25.2286 O   0  0  0  0  0  0  0  0  0  0  0  0
   25.0912   62.5256   23.9267 O   0  0  0  0  0  0  0  0  0  0  0  0
   24.3702   66.5873   24.5509 O   0  0  0  0  0  0  0  0  0  0  0  0
   22.9704   63.3003   26.1614 H   0  0  0  0  0  0  0  0  0  0  0  0
   24.8276   62.6256   22.9986 H   0  0  0  0  0  0  0  0  0  0  0  0
   26.5636   67.1889   23.7829 C   0  0  0  0  0  0  0  0  0  0  0  0
   26.4616   66.9213   22.3690 O   0  0  0  0  0  0  0  0  0  0  0  0
   26.8179   66.0390   22.1804 H   0  0  0  0  0  0  0  0  0  0  0  0
   27.3310   64.3688   24.1267 O   0  0  0  0  0  0  0  0  0  0  0  0
   27.9990   64.0264   22.9355 C   0  0  0  0  0  0  0  0  0  0  0  0
   28.5913   62.6515   23.0566 C   0  0  0  0  0  0  0  0  0  0  0  0
   29.6060   62.5962   24.1449 C   0  0  0  0  0  0  0  0  0  0  0  0
   30.6989   63.5799   23.8522 C   0  0  0  0  0  0  0  0  0  0  0  0
   30.0804   64.9592   23.7931 C   0  0  0  0  0  0  0  0  0  0  0  0
   31.0414   66.0531   23.4177 C   0  0  0  0  0  0  0  0  0  0  0  0
   27.5159   61.7216   23.3218 O   0  0  0  0  0  0  0  0  0  0  0  0
   30.1674   61.2720   24.2644 O   0  0  0  0  0  0  0  0  0  0  0  0
   29.0848   65.0122   22.7253 O   0  0  0  0  0  0  0  0  0  0  0  0
   27.0732   61.9666   24.1494 H   0  0  0  0  0  0  0  0  0  0  0  0
   30.6066   61.0308   23.4339 H   0  0  0  0  0  0  0  0  0  0  0  0
   31.7473   63.4766   24.8721 N   0  0  0  0  0  0  0  0  0  0  0  0
   32.0643   64.4193   25.0981 H   0  0  0  0  0  0  0  0  0  0  0  0
   32.9312   62.6753   24.4688 C   0  0  0  0  0  0  0  0  0  0  0  0
   33.3801   61.7636   25.7601 C   0  0  0  0  0  0  0  0  0  0  0  0
   33.9656   62.4859   26.6686 C   0  0  0  0  0  0  0  0  0  0  0  0
   35.4001   63.1140   26.2209 C   0  0  0  0  0  0  0  0  0  0  0  0
   35.3112   63.8110   24.9574 C   0  0  0  0  0  0  0  0  0  0  0  0
   33.9512   63.5345   24.0004 C   0  0  0  0  0  0  0  0  0  0  0  0
   32.1190   61.1736   26.2923 O   0  0  0  0  0  0  0  0  0  0  0  0
   34.2717   61.6501   27.8900 O   0  0  0  0  0  0  0  0  0  0  0  0
   35.9449   63.9800   27.2261 O   0  0  0  0  0  0  0  0  0  0  0  0
   31.5077   61.8855   26.5384 H   0  0  0  0  0  0  0  0  0  0  0  0
   34.9043   60.9534   27.6548 H   0  0  0  0  0  0  0  0  0  0  0  0
   35.3557   64.7402   27.3517 H   0  0  0  0  0  0  0  0  0  0  0  0
   36.3778   64.7439   24.4720 C   0  0  0  0  0  0  0  0  0  0  0  0
   35.8104   65.4611   23.4115 O   0  0  0  0  0  0  0  0  0  0  0  0
   35.5181   64.8433   22.7231 H   0  0  0  0  0  0  0  0  0  0  0  0
   23.8318   65.4917   26.5605 O   0  0  0  0  0  0  0  0  0  0  0  0
   21.8939   66.4359   30.2068 C   0  0  0  0  0  0  0  0  0  0  0  0
   21.6449   65.0963   29.5436 C   0  0  0  0  0  0  0  0  0  0  0  0
   22.6931   64.7617   28.5411 C   0  0  0  0  0  0  0  0  0  0  0  0
   22.8001   65.8210   27.4946 C   0  0  0  0  0  0  0  0  0  0  0  0
   23.0927   67.1575   28.1512 C   0  0  0  0  0  0  0  0  0  0  0  0
   23.0136   66.3701   31.0210 O   0  0  0  0  0  0  0  0  0  0  0  0
   21.4605   64.0528   30.5333 O   0  0  0  0  0  0  0  0  0  0  0  0
   22.3090   63.5167   27.8950 O   0  0  0  0  0  0  0  0  0  0  0  0
   22.0843   67.4608   29.1663 O   0  0  0  0  0  0  0  0  0  0  0  0
   23.7889   66.1377   30.4863 H   0  0  0  0  0  0  0  0  0  0  0  0
   22.2723   63.9551   31.0552 H   0  0  0  0  0  0  0  0  0  0  0  0
   21.4509   63.6309   27.4573 H   0  0  0  0  0  0  0  0  0  0  0  0
   22.9954   68.2917   27.1829 C   0  0  0  0  0  0  0  0  0  0  0  0
   24.2903   68.5276   26.6095 O   0  0  0  0  0  0  0  0  0  0  0  0
   24.9205   68.7470   27.3135 H   0  0  0  0  0  0  0  0  0  0  0  0
 28 29  1  0  0  0
 28 33  1  0  0  0
 28 26  1  0  0  0
 29 30  1  0  0  0
 29 34  1  0  0  0
 30 31  1  0  0  0
 30 35  1  0  0  0
 31 32  1  0  0  0
 31 36  1  0  0  0
 32 40  1  0  0  0
 32 33  2  0  0  0
 40 41  1  0  0  0
 15 16  1  0  0  0
 15 23  1  0  0  0
 15 14  1  0  0  0
 16 17  1  0  0  0
 16 21  1  0  0  0
 17 18  1  0  0  0
 17 22  1  0  0  0
 18 19  1  0  0  0
 18 26  1  0  0  0
 19 20  1  0  0  0
 19 23  1  0  0  0
  1  2  1  0  0  0
  1  8  1  0  0  0
  1 43  1  0  0  0
  2  3  1  0  0  0
  2  6  1  0  0  0
  3  4  1  0  0  0
  3  7  1  0  0  0
  4  5  1  0  0  0
  4 14  1  0  0  0
  5 11  1  0  0  0
  5  8  1  0  0  0
 11 12  1  0  0  0
 44 45  1  0  0  0
 44 49  1  0  0  0
 44 52  1  0  0  0
 45 46  1  0  0  0
 45 50  1  0  0  0
 46 47  1  0  0  0
 46 51  1  0  0  0
 47 48  1  0  0  0
 47 43  1  0  0  0
 48 56  1  0  0  0
 48 52  1  0  0  0
 56 57  1  0  0  0
 34 37  1  0  0  0
 35 38  1  0  0  0
 36 39  1  0  0  0
 41 42  1  0  0  0
 26 27  1  0  0  0
 21 24  1  0  0  0
 22 25  1  0  0  0
  6  9  1  0  0  0
  7 10  1  0  0  0
 12 13  1  0  0  0
 49 53  1  0  0  0
 50 54  1  0  0  0
 51 55  1  0  0  0
 57 58  1  0  0  0
M  END
> <minimizedAffinity>
-11.35089

$$$$
4UAC_ACR_A_501


 58 61  0  0  0  0  0  0  0  0999 V2000
   29.8843   63.9102   22.2803 C   0  0  0  0  0  0  0  0  0  0  0  0
   29.2000   65.1838   21.8886 C   0  0  0  0  0  0  0  0  0  0  0  0
   28.2299   65.6184   22.9349 C   0  0  0  0  0  0  0  0  0  0  0  0
   27.2138   64.5541   23.2227 C   0  0  0  0  0  0  0  0  0  0  0  0
   27.8987   63.2387   23.5433 C   0  0  0  0  0  0  0  0  0  0  0  0
   30.2045   66.1962   21.6681 O   0  0  0  0  0  0  0  0  0  0  0  0
   27.5711   66.8417   22.5115 O   0  0  0  0  0  0  0  0  0  0  0  0
   28.8676   62.8761   22.5092 O   0  0  0  0  0  0  0  0  0  0  0  0
   30.7073   66.3362   22.4857 H   0  0  0  0  0  0  0  0  0  0  0  0
   27.0795   66.6771   21.6917 H   0  0  0  0  0  0  0  0  0  0  0  0
   26.8742   62.1272   23.6175 C   0  0  0  0  0  0  0  0  0  0  0  0
   26.4195   61.9512   24.9751 O   0  0  0  0  0  0  0  0  0  0  0  0
   27.1722   61.7169   25.5404 H   0  0  0  0  0  0  0  0  0  0  0  0
   26.3619   64.9331   24.3416 O   0  0  0  0  0  0  0  0  0  0  0  0
   25.2180   65.6785   23.9974 C   0  0  0  0  0  0  0  0  0  0  0  0
   24.9098   66.6739   25.0791 C   0  0  0  0  0  0  0  0  0  0  0  0
   24.6024   65.9921   26.3666 C   0  0  0  0  0  0  0  0  0  0  0  0
   23.4215   65.0879   26.1775 C   0  0  0  0  0  0  0  0  0  0  0  0
   23.7832   64.0636   25.1248 C   0  0  0  0  0  0  0  0  0  0  0  0
   22.6620   63.1316   24.7567 C   0  0  0  0  0  0  0  0  0  0  0  0
   26.0564   67.5424   25.2293 O   0  0  0  0  0  0  0  0  0  0  0  0
   24.3147   66.9512   27.4061 O   0  0  0  0  0  0  0  0  0  0  0  0
   24.0850   64.7335   23.8622 O   0  0  0  0  0  0  0  0  0  0  0  0
   26.8321   67.0143   25.4751 H   0  0  0  0  0  0  0  0  0  0  0  0
   23.5401   67.4781   27.1546 H   0  0  0  0  0  0  0  0  0  0  0  0
   23.0551   64.4741   27.4577 N   0  0  0  0  0  0  0  0  0  0  0  0
   23.4513   65.0417   28.2068 H   0  0  0  0  0  0  0  0  0  0  0  0
   23.5282   63.0775   27.6365 C   0  0  0  0  0  0  0  0  0  0  0  0
   22.3835   62.2687   28.4942 C   0  0  0  0  0  0  0  0  0  0  0  0
   22.3987   62.6147   29.7472 C   0  0  0  0  0  0  0  0  0  0  0  0
   23.7473   62.1901   30.5558 C   0  0  0  0  0  0  0  0  0  0  0  0
   24.9444   62.6180   29.8673 C   0  0  0  0  0  0  0  0  0  0  0  0
   24.8004   63.0804   28.2525 C   0  0  0  0  0  0  0  0  0  0  0  0
   21.0812   62.6314   27.8663 O   0  0  0  0  0  0  0  0  0  0  0  0
   21.2701   61.9415   30.4935 O   0  0  0  0  0  0  0  0  0  0  0  0
   23.7462   62.6873   31.9011 O   0  0  0  0  0  0  0  0  0  0  0  0
   20.9601   63.5931   27.9055 H   0  0  0  0  0  0  0  0  0  0  0  0
   21.4018   60.9806   30.4807 H   0  0  0  0  0  0  0  0  0  0  0  0
   23.7454   63.6572   31.8874 H   0  0  0  0  0  0  0  0  0  0  0  0
   26.2889   62.6489   30.5266 C   0  0  0  0  0  0  0  0  0  0  0  0
   27.2053   62.9782   29.5202 O   0  0  0  0  0  0  0  0  0  0  0  0
   27.1566   62.3190   28.8103 H   0  0  0  0  0  0  0  0  0  0  0  0
   30.6065   64.1520   23.4460 O   0  0  0  0  0  0  0  0  0  0  0  0
   34.5605   63.2788   24.6893 C   0  0  0  0  0  0  0  0  0  0  0  0
   34.3229   64.2621   23.5610 C   0  0  0  0  0  0  0  0  0  0  0  0
   32.9228   64.7669   23.5404 C   0  0  0  0  0  0  0  0  0  0  0  0
   31.9436   63.6448   23.4349 C   0  0  0  0  0  0  0  0  0  0  0  0
   32.1492   62.6797   24.5878 C   0  0  0  0  0  0  0  0  0  0  0  0
   34.5050   63.9268   25.9132 O   0  0  0  0  0  0  0  0  0  0  0  0
   35.3044   65.3290   23.5863 O   0  0  0  0  0  0  0  0  0  0  0  0
   32.7737   65.6165   22.3696 O   0  0  0  0  0  0  0  0  0  0  0  0
   33.5374   62.2209   24.6300 O   0  0  0  0  0  0  0  0  0  0  0  0
   33.6290   64.3273   26.0276 H   0  0  0  0  0  0  0  0  0  0  0  0
   35.2157   65.8305   24.4119 H   0  0  0  0  0  0  0  0  0  0  0  0
   32.9552   65.0991   21.5694 H   0  0  0  0  0  0  0  0  0  0  0  0
   31.3508   61.4274   24.4205 C   0  0  0  0  0  0  0  0  0  0  0  0
   32.2494   60.3223   24.2400 O   0  0  0  0  0  0  0  0  0  0  0  0
   32.7948   60.4744   23.4524 H   0  0  0  0  0  0  0  0  0  0  0  0
 28 29  1  0  0  0
 28 33  1  0  0  0
 28 26  1  0  0  0
 29 30  1  0  0  0
 29 34  1  0  0  0
 30 31  1  0  0  0
 30 35  1  0  0  0
 31 32  1  0  0  0
 31 36  1  0  0  0
 32 40  1  0  0  0
 32 33  2  0  0  0
 40 41  1  0  0  0
 15 16  1  0  0  0
 15 23  1  0  0  0
 15 14  1  0  0  0
 16 17  1  0  0  0
 16 21  1  0  0  0
 17 18  1  0  0  0
 17 22  1  0  0  0
 18 19  1  0  0  0
 18 26  1  0  0  0
 19 20  1  0  0  0
 19 23  1  0  0  0
  1  2  1  0  0  0
  1  8  1  0  0  0
  1 43  1  0  0  0
  2  3  1  0  0  0
  2  6  1  0  0  0
  3  4  1  0  0  0
  3  7  1  0  0  0
  4  5  1  0  0  0
  4 14  1  0  0  0
  5 11  1  0  0  0
  5  8  1  0  0  0
 11 12  1  0  0  0
 44 45  1  0  0  0
 44 49  1  0  0  0
 44 52  1  0  0  0
 45 46  1  0  0  0
 45 50  1  0  0  0
 46 47  1  0  0  0
 46 51  1  0  0  0
 47 48  1  0  0  0
 47 43  1  0  0  0
 48 56  1  0  0  0
 48 52  1  0  0  0
 56 57  1  0  0  0
 34 37  1  0  0  0
 35 38  1  0  0  0
 36 39  1  0  0  0
 41 42  1  0  0  0
 26 27  1  0  0  0
 21 24  1  0  0  0
 22 25  1  0  0  0
  6  9  1  0  0  0
  7 10  1  0  0  0
 12 13  1  0  0  0
 49 53  1  0  0  0
 50 54  1  0  0  0
 51 55  1  0  0  0
 57 58  1  0  0  0
M  END
> <minimizedAffinity>
-11.24900

$$$$
4UAC_ACR_A_501


 58 61  0  0  0  0  0  0  0  0999 V2000
   35.7594   62.0305   29.1176 C   0  0  0  0  0  0  0  0  0  0  0  0
   36.3826   62.8886   28.0596 C   0  0  0  0  0  0  0  0  0  0  0  0
   35.3450   63.4889   27.1721 C   0  0  0  0  0  0  0  0  0  0  0  0
   34.4817   62.4376   26.5415 C   0  0  0  0  0  0  0  0  0  0  0  0
   33.9094   61.5146   27.6011 C   0  0  0  0  0  0  0  0  0  0  0  0
   37.1643   63.9168   28.7033 O   0  0  0  0  0  0  0  0  0  0  0  0
   35.9861   64.2945   26.1476 O   0  0  0  0  0  0  0  0  0  0  0  0
   34.9598   60.9836   28.4696 O   0  0  0  0  0  0  0  0  0  0  0  0
   36.5868   64.4595   29.2627 H   0  0  0  0  0  0  0  0  0  0  0  0
   36.5601   63.7311   25.6053 H   0  0  0  0  0  0  0  0  0  0  0  0
   33.2228   60.3367   26.9442 C   0  0  0  0  0  0  0  0  0  0  0  0
   31.8173   60.6084   26.7658 O   0  0  0  0  0  0  0  0  0  0  0  0
   31.4058   60.7641   27.6303 H   0  0  0  0  0  0  0  0  0  0  0  0
   33.3875   63.0395   25.7922 O   0  0  0  0  0  0  0  0  0  0  0  0
   33.4315   62.8346   24.3998 C   0  0  0  0  0  0  0  0  0  0  0  0
   33.2530   64.1424   23.6830 C   0  0  0  0  0  0  0  0  0  0  0  0
   31.9246   64.7441   23.9832 C   0  0  0  0  0  0  0  0  0  0  0  0
   30.8445   63.7961   23.5558 C   0  0  0  0  0  0  0  0  0  0  0  0
   31.0171   62.5114   24.3356 C   0  0  0  0  0  0  0  0  0  0  0  0
   30.0555   61.4207   23.9526 C   0  0  0  0  0  0  0  0  0  0  0  0
   34.3152   65.0310   24.1000 O   0  0  0  0  0  0  0  0  0  0  0  0
   31.7592   66.0045   23.2997 O   0  0  0  0  0  0  0  0  0  0  0  0
   32.3209   61.9221   24.0408 O   0  0  0  0  0  0  0  0  0  0  0  0
   34.2643   65.1682   25.0589 H   0  0  0  0  0  0  0  0  0  0  0  0
   31.8132   65.8623   22.3417 H   0  0  0  0  0  0  0  0  0  0  0  0
   29.5304   64.4111   23.7679 N   0  0  0  0  0  0  0  0  0  0  0  0
   29.2231   64.1849   24.7138 H   0  0  0  0  0  0  0  0  0  0  0  0
   28.4755   63.9677   22.8208 C   0  0  0  0  0  0  0  0  0  0  0  0
   28.0067   65.2779   21.9469 C   0  0  0  0  0  0  0  0  0  0  0  0
   27.2711   66.0813   22.6564 C   0  0  0  0  0  0  0  0  0  0  0  0
   25.8265   65.4723   23.0981 C   0  0  0  0  0  0  0  0  0  0  0  0
   25.9579   64.1748   23.7220 C   0  0  0  0  0  0  0  0  0  0  0  0
   27.4200   63.3565   23.5352 C   0  0  0  0  0  0  0  0  0  0  0  0
   29.2680   65.9538   21.5296 O   0  0  0  0  0  0  0  0  0  0  0  0
   26.9424   67.3286   21.8688 O   0  0  0  0  0  0  0  0  0  0  0  0
   25.1079   66.3651   23.9605 O   0  0  0  0  0  0  0  0  0  0  0  0
   29.7789   66.1994   22.3167 H   0  0  0  0  0  0  0  0  0  0  0  0
   26.4078   67.0910   21.0951 H   0  0  0  0  0  0  0  0  0  0  0  0
   25.6029   66.4857   24.7859 H   0  0  0  0  0  0  0  0  0  0  0  0
   24.8504   63.5376   24.5035 C   0  0  0  0  0  0  0  0  0  0  0  0
   25.3378   62.2925   24.9197 O   0  0  0  0  0  0  0  0  0  0  0  0
   25.5917   61.7688   24.1437 H   0  0  0  0  0  0  0  0  0  0  0  0
   34.9515   62.8433   29.9085 O   0  0  0  0  0  0  0  0  0  0  0  0
   34.5100   63.3491   34.0908 C   0  0  0  0  0  0  0  0  0  0  0  0
   35.6536   64.0279   33.3641 C   0  0  0  0  0  0  0  0  0  0  0  0
   35.4219   64.1013   31.8956 C   0  0  0  0  0  0  0  0  0  0  0  0
   35.2000   62.7445   31.3134 C   0  0  0  0  0  0  0  0  0  0  0  0
   34.0276   62.0778   32.0089 C   0  0  0  0  0  0  0  0  0  0  0  0
   33.3747   64.1430   34.0511 O   0  0  0  0  0  0  0  0  0  0  0  0
   35.9483   65.3203   33.9516 O   0  0  0  0  0  0  0  0  0  0  0  0
   36.6124   64.6722   31.2858 O   0  0  0  0  0  0  0  0  0  0  0  0
   34.2403   62.0479   33.4557 O   0  0  0  0  0  0  0  0  0  0  0  0
   33.1147   64.2894   33.1282 H   0  0  0  0  0  0  0  0  0  0  0  0
   35.1778   65.9019   33.8568 H   0  0  0  0  0  0  0  0  0  0  0  0
   37.3766   64.1062   31.4766 H   0  0  0  0  0  0  0  0  0  0  0  0
   33.8916   60.6397   31.6254 C   0  0  0  0  0  0  0  0  0  0  0  0
   32.9052   60.5251   30.5884 O   0  0  0  0  0  0  0  0  0  0  0  0
   32.0554   60.8628   30.9118 H   0  0  0  0  0  0  0  0  0  0  0  0
 28 29  1  0  0  0
 28 33  1  0  0  0
 28 26  1  0  0  0
 29 30  1  0  0  0
 29 34  1  0  0  0
 30 31  1  0  0  0
 30 35  1  0  0  0
 31 32  1  0  0  0
 31 36  1  0  0  0
 32 40  1  0  0  0
 32 33  2  0  0  0
 40 41  1  0  0  0
 15 16  1  0  0  0
 15 23  1  0  0  0
 15 14  1  0  0  0
 16 17  1  0  0  0
 16 21  1  0  0  0
 17 18  1  0  0  0
 17 22  1  0  0  0
 18 19  1  0  0  0
 18 26  1  0  0  0
 19 20  1  0  0  0
 19 23  1  0  0  0
  1  2  1  0  0  0
  1  8  1  0  0  0
  1 43  1  0  0  0
  2  3  1  0  0  0
  2  6  1  0  0  0
  3  4  1  0  0  0
  3  7  1  0  0  0
  4  5  1  0  0  0
  4 14  1  0  0  0
  5 11  1  0  0  0
  5  8  1  0  0  0
 11 12  1  0  0  0
 44 45  1  0  0  0
 44 49  1  0  0  0
 44 52  1  0  0  0
 45 46  1  0  0  0
 45 50  1  0  0  0
 46 47  1  0  0  0
 46 51  1  0  0  0
 47 48  1  0  0  0
 47 43  1  0  0  0
 48 56  1  0  0  0
 48 52  1  0  0  0
 56 57  1  0  0  0
 34 37  1  0  0  0
 35 38  1  0  0  0
 36 39  1  0  0  0
 41 42  1  0  0  0
 26 27  1  0  0  0
 21 24  1  0  0  0
 22 25  1  0  0  0
  6  9  1  0  0  0
  7 10  1  0  0  0
 12 13  1  0  0  0
 49 53  1  0  0  0
 50 54  1  0  0  0
 51 55  1  0  0  0
 57 58  1  0  0  0
M  END
> <minimizedAffinity>
-10.61704

$$$$
4UAC_ACR_A_501


 58 61  0  0  0  0  0  0  0  0999 V2000
   26.3293   64.0166   23.2947 C   0  0  0  0  0  0  0  0  0  0  0  0
   26.7837   62.5994   23.4650 C   0  0  0  0  0  0  0  0  0  0  0  0
   28.2217   62.5376   23.8558 C   0  0  0  0  0  0  0  0  0  0  0  0
   29.0952   63.2437   22.8626 C   0  0  0  0  0  0  0  0  0  0  0  0
   28.5943   64.6560   22.6244 C   0  0  0  0  0  0  0  0  0  0  0  0
   25.9535   61.9672   24.4619 O   0  0  0  0  0  0  0  0  0  0  0  0
   28.6317   61.1507   23.9900 O   0  0  0  0  0  0  0  0  0  0  0  0
   27.1719   64.6669   22.2835 O   0  0  0  0  0  0  0  0  0  0  0  0
   26.0428   62.4400   25.3041 H   0  0  0  0  0  0  0  0  0  0  0  0
   28.5294   60.6994   23.1375 H   0  0  0  0  0  0  0  0  0  0  0  0
   29.3445   65.2823   21.4688 C   0  0  0  0  0  0  0  0  0  0  0  0
   30.0274   66.4775   21.9003 O   0  0  0  0  0  0  0  0  0  0  0  0
   29.3793   67.1181   22.2325 H   0  0  0  0  0  0  0  0  0  0  0  0
   30.4750   63.2990   23.3257 O   0  0  0  0  0  0  0  0  0  0  0  0
   30.6426   63.7189   24.6591 C   0  0  0  0  0  0  0  0  0  0  0  0
   31.9109   64.5124   24.7915 C   0  0  0  0  0  0  0  0  0  0  0  0
   33.1016   63.6852   24.4526 C   0  0  0  0  0  0  0  0  0  0  0  0
   33.1609   62.5035   25.3735 C   0  0  0  0  0  0  0  0  0  0  0  0
   31.8977   61.6951   25.1756 C   0  0  0  0  0  0  0  0  0  0  0  0
   31.7663   60.5157   26.0992 C   0  0  0  0  0  0  0  0  0  0  0  0
   31.8207   65.6530   23.9068 O   0  0  0  0  0  0  0  0  0  0  0  0
   34.3180   64.4525   24.5726 O   0  0  0  0  0  0  0  0  0  0  0  0
   30.7302   62.5077   25.5079 O   0  0  0  0  0  0  0  0  0  0  0  0
   31.7149   65.3458   22.9929 H   0  0  0  0  0  0  0  0  0  0  0  0
   34.4179   64.7593   25.4874 H   0  0  0  0  0  0  0  0  0  0  0  0
   34.3747   61.7254   25.1066 N   0  0  0  0  0  0  0  0  0  0  0  0
   34.0951   60.7772   24.8555 H   0  0  0  0  0  0  0  0  0  0  0  0
   35.3232   61.6409   26.2465 C   0  0  0  0  0  0  0  0  0  0  0  0
   35.7388   60.0623   26.4340 C   0  0  0  0  0  0  0  0  0  0  0  0
   34.7707   59.3783   26.9678 C   0  0  0  0  0  0  0  0  0  0  0  0
   34.4122   59.7873   28.5031 C   0  0  0  0  0  0  0  0  0  0  0  0
   34.2047   61.2109   28.6459 C   0  0  0  0  0  0  0  0  0  0  0  0
   34.7362   62.2125   27.3983 C   0  0  0  0  0  0  0  0  0  0  0  0
   36.0401   59.5613   25.0628 O   0  0  0  0  0  0  0  0  0  0  0  0
   35.1333   57.9125   27.0308 O   0  0  0  0  0  0  0  0  0  0  0  0
   33.2737   59.0694   28.9986 O   0  0  0  0  0  0  0  0  0  0  0  0
   35.2585   59.6722   24.4991 H   0  0  0  0  0  0  0  0  0  0  0  0
   35.8979   57.7934   27.6157 H   0  0  0  0  0  0  0  0  0  0  0  0
   32.4907   59.3051   28.4768 H   0  0  0  0  0  0  0  0  0  0  0  0
   33.5571   61.8163   29.8532 C   0  0  0  0  0  0  0  0  0  0  0  0
   32.1764   61.6982   29.6513 O   0  0  0  0  0  0  0  0  0  0  0  0
   31.9294   62.1539   28.8314 H   0  0  0  0  0  0  0  0  0  0  0  0
   26.4569   64.6587   24.5236 O   0  0  0  0  0  0  0  0  0  0  0  0
   23.9709   67.3050   26.7053 C   0  0  0  0  0  0  0  0  0  0  0  0
   23.4403   65.9527   26.2738 C   0  0  0  0  0  0  0  0  0  0  0  0
   24.5332   65.0090   25.9125 C   0  0  0  0  0  0  0  0  0  0  0  0
   25.3987   65.5697   24.8329 C   0  0  0  0  0  0  0  0  0  0  0  0
   25.9674   66.9043   25.2781 C   0  0  0  0  0  0  0  0  0  0  0  0
   24.6287   67.1994   27.9206 O   0  0  0  0  0  0  0  0  0  0  0  0
   22.5341   65.4092   27.2667 O   0  0  0  0  0  0  0  0  0  0  0  0
   23.9197   63.7862   25.4191 O   0  0  0  0  0  0  0  0  0  0  0  0
   24.8917   67.8127   25.6739 O   0  0  0  0  0  0  0  0  0  0  0  0
   25.3744   66.5853   27.8323 H   0  0  0  0  0  0  0  0  0  0  0  0
   23.0136   65.2646   28.0974 H   0  0  0  0  0  0  0  0  0  0  0  0
   23.3794   63.9876   24.6391 H   0  0  0  0  0  0  0  0  0  0  0  0
   26.6627   67.6177   24.1640 C   0  0  0  0  0  0  0  0  0  0  0  0
   26.0297   67.2723   22.9225 O   0  0  0  0  0  0  0  0  0  0  0  0
   26.0855   66.3135   22.7868 H   0  0  0  0  0  0  0  0  0  0  0  0
 28 29  1  0  0  0
 28 33  1  0  0  0
 28 26  1  0  0  0
 29 30  1  0  0  0
 29 34  1  0  0  0
 30 31  1  0  0  0
 30 35  1  0  0  0
 31 32  1  0  0  0
 31 36  1  0  0  0
 32 40  1  0  0  0
 32 33  2  0  0  0
 40 41  1  0  0  0
 15 16  1  0  0  0
 15 23  1  0  0  0
 15 14  1  0  0  0
 16 17  1  0  0  0
 16 21  1  0  0  0
 17 18  1  0  0  0
 17 22  1  0  0  0
 18 19  1  0  0  0
 18 26  1  0  0  0
 19 20  1  0  0  0
 19 23  1  0  0  0
  1  2  1  0  0  0
  1  8  1  0  0  0
  1 43  1  0  0  0
  2  3  1  0  0  0
  2  6  1  0  0  0
  3  4  1  0  0  0
  3  7  1  0  0  0
  4  5  1  0  0  0
  4 14  1  0  0  0
  5 11  1  0  0  0
  5  8  1  0  0  0
 11 12  1  0  0  0
 44 45  1  0  0  0
 44 49  1  0  0  0
 44 52  1  0  0  0
 45 46  1  0  0  0
 45 50  1  0  0  0
 46 47  1  0  0  0
 46 51  1  0  0  0
 47 48  1  0  0  0
 47 43  1  0  0  0
 48 56  1  0  0  0
 48 52  1  0  0  0
 56 57  1  0  0  0
 34 37  1  0  0  0
 35 38  1  0  0  0
 36 39  1  0  0  0
 41 42  1  0  0  0
 26 27  1  0  0  0
 21 24  1  0  0  0
 22 25  1  0  0  0
  6  9  1  0  0  0
  7 10  1  0  0  0
 12 13  1  0  0  0
 49 53  1  0  0  0
 50 54  1  0  0  0
 51 55  1  0  0  0
 57 58  1  0  0  0
M  END
> <minimizedAffinity>
-10.44489

$$$$
4UAC_ACR_A_501


 58 61  0  0  0  0  0  0  0  0999 V2000
   23.0527   64.5238   25.6847 C   0  0  0  0  0  0  0  0  0  0  0  0
   23.5503   63.1124   25.6206 C   0  0  0  0  0  0  0  0  0  0  0  0
   25.0405   63.0676   25.5779 C   0  0  0  0  0  0  0  0  0  0  0  0
   25.5845   63.8593   24.4266 C   0  0  0  0  0  0  0  0  0  0  0  0
   25.0228   65.2688   24.4388 C   0  0  0  0  0  0  0  0  0  0  0  0
   23.0482   62.3955   26.7680 O   0  0  0  0  0  0  0  0  0  0  0  0
   25.4850   61.6874   25.4939 O   0  0  0  0  0  0  0  0  0  0  0  0
   23.5624   65.2602   24.5214 O   0  0  0  0  0  0  0  0  0  0  0  0
   23.3717   62.8170   27.5795 H   0  0  0  0  0  0  0  0  0  0  0  0
   25.1460   61.2876   24.6778 H   0  0  0  0  0  0  0  0  0  0  0  0
   25.4026   65.9875   23.1623 C   0  0  0  0  0  0  0  0  0  0  0  0
   25.7891   67.3480   23.4462 O   0  0  0  0  0  0  0  0  0  0  0  0
   25.0453   67.8167   23.8561 H   0  0  0  0  0  0  0  0  0  0  0  0
   27.0385   63.9252   24.4775 O   0  0  0  0  0  0  0  0  0  0  0  0
   27.6928   63.6592   23.2595 C   0  0  0  0  0  0  0  0  0  0  0  0
   27.9427   62.1845   23.1227 C   0  0  0  0  0  0  0  0  0  0  0  0
   28.8373   61.6874   24.2042 C   0  0  0  0  0  0  0  0  0  0  0  0
   30.1453   62.4173   24.1384 C   0  0  0  0  0  0  0  0  0  0  0  0
   29.8666   63.8909   24.3361 C   0  0  0  0  0  0  0  0  0  0  0  0
   31.0777   64.7728   24.2076 C   0  0  0  0  0  0  0  0  0  0  0  0
   26.6660   61.5068   23.1726 O   0  0  0  0  0  0  0  0  0  0  0  0
   29.0689   60.2687   24.0750 O   0  0  0  0  0  0  0  0  0  0  0  0
   28.9885   64.3776   23.2748 O   0  0  0  0  0  0  0  0  0  0  0  0
   26.2339   61.6932   24.0208 H   0  0  0  0  0  0  0  0  0  0  0  0
   29.4989   60.0873   23.2246 H   0  0  0  0  0  0  0  0  0  0  0  0
   31.0664   61.8788   25.1442 N   0  0  0  0  0  0  0  0  0  0  0  0
   31.1495   62.5623   25.8967 H   0  0  0  0  0  0  0  0  0  0  0  0
   32.4310   61.5777   24.6407 C   0  0  0  0  0  0  0  0  0  0  0  0
   32.7656   60.0122   25.0115 C   0  0  0  0  0  0  0  0  0  0  0  0
   33.0170   59.8696   26.2789 C   0  0  0  0  0  0  0  0  0  0  0  0
   34.3766   60.6052   26.7917 C   0  0  0  0  0  0  0  0  0  0  0  0
   34.4215   61.9932   26.3895 C   0  0  0  0  0  0  0  0  0  0  0  0
   33.3543   62.4985   25.1862 C   0  0  0  0  0  0  0  0  0  0  0  0
   31.5490   59.2407   24.6287 O   0  0  0  0  0  0  0  0  0  0  0  0
   33.2145   58.4096   26.6159 O   0  0  0  0  0  0  0  0  0  0  0  0
   34.5436   60.4964   28.2120 O   0  0  0  0  0  0  0  0  0  0  0  0
   30.7835   59.5799   25.1185 H   0  0  0  0  0  0  0  0  0  0  0  0
   33.9956   58.0729   26.1496 H   0  0  0  0  0  0  0  0  0  0  0  0
   33.8151   60.9547   28.6593 H   0  0  0  0  0  0  0  0  0  0  0  0
   35.3799   62.9773   26.9866 C   0  0  0  0  0  0  0  0  0  0  0  0
   36.4703   62.2266   27.4431 O   0  0  0  0  0  0  0  0  0  0  0  0
   36.1637   61.5707   28.0886 H   0  0  0  0  0  0  0  0  0  0  0  0
   23.5225   65.0912   26.8664 O   0  0  0  0  0  0  0  0  0  0  0  0
   21.6936   67.2654   30.0081 C   0  0  0  0  0  0  0  0  0  0  0  0
   21.2717   65.8362   29.7328 C   0  0  0  0  0  0  0  0  0  0  0  0
   22.2749   65.1014   28.9147 C   0  0  0  0  0  0  0  0  0  0  0  0
   22.5355   65.7996   27.6211 C   0  0  0  0  0  0  0  0  0  0  0  0
   23.0003   67.2183   27.8929 C   0  0  0  0  0  0  0  0  0  0  0  0
   22.7855   67.2900   30.8612 O   0  0  0  0  0  0  0  0  0  0  0  0
   20.9371   65.1470   30.9638 O   0  0  0  0  0  0  0  0  0  0  0  0
   21.7318   63.7842   28.6231 O   0  0  0  0  0  0  0  0  0  0  0  0
   22.0321   67.9219   28.7337 O   0  0  0  0  0  0  0  0  0  0  0  0
   23.5275   66.8193   30.4504 H   0  0  0  0  0  0  0  0  0  0  0  0
   21.7226   65.0980   31.5307 H   0  0  0  0  0  0  0  0  0  0  0  0
   20.9018   63.8786   28.1301 H   0  0  0  0  0  0  0  0  0  0  0  0
   23.0680   68.0358   26.6436 C   0  0  0  0  0  0  0  0  0  0  0  0
   24.4064   67.9868   26.1264 O   0  0  0  0  0  0  0  0  0  0  0  0
   25.0216   68.3414   26.7872 H   0  0  0  0  0  0  0  0  0  0  0  0
 28 29  1  0  0  0
 28 33  1  0  0  0
 28 26  1  0  0  0
 29 30  1  0  0  0
 29 34  1  0  0  0
 30 31  1  0  0  0
 30 35  1  0  0  0
 31 32  1  0  0  0
 31 36  1  0  0  0
 32 40  1  0  0  0
 32 33  2  0  0  0
 40 41  1  0  0  0
 15 16  1  0  0  0
 15 23  1  0  0  0
 15 14  1  0  0  0
 16 17  1  0  0  0
 16 21  1  0  0  0
 17 18  1  0  0  0
 17 22  1  0  0  0
 18 19  1  0  0  0
 18 26  1  0  0  0
 19 20  1  0  0  0
 19 23  1  0  0  0
  1  2  1  0  0  0
  1  8  1  0  0  0
  1 43  1  0  0  0
  2  3  1  0  0  0
  2  6  1  0  0  0
  3  4  1  0  0  0
  3  7  1  0  0  0
  4  5  1  0  0  0
  4 14  1  0  0  0
  5 11  1  0  0  0
  5  8  1  0  0  0
 11 12  1  0  0  0
 44 45  1  0  0  0
 44 49  1  0  0  0
 44 52  1  0  0  0
 45 46  1  0  0  0
 45 50  1  0  0  0
 46 47  1  0  0  0
 46 51  1  0  0  0
 47 48  1  0  0  0
 47 43  1  0  0  0
 48 56  1  0  0  0
 48 52  1  0  0  0
 56 57  1  0  0  0
 34 37  1  0  0  0
 35 38  1  0  0  0
 36 39  1  0  0  0
 41 42  1  0  0  0
 26 27  1  0  0  0
 21 24  1  0  0  0
 22 25  1  0  0  0
  6  9  1  0  0  0
  7 10  1  0  0  0
 12 13  1  0  0  0
 49 53  1  0  0  0
 50 54  1  0  0  0
 51 55  1  0  0  0
 57 58  1  0  0  0
M  END
> <minimizedAffinity>
-10.08266

$$$$
4UAC_ACR_A_501


 58 61  0  0  0  0  0  0  0  0999 V2000
   25.6137   65.4943   23.8905 C   0  0  0  0  0  0  0  0  0  0  0  0
   25.2280   66.7376   24.6318 C   0  0  0  0  0  0  0  0  0  0  0  0
   25.1453   66.4863   26.0996 C   0  0  0  0  0  0  0  0  0  0  0  0
   24.1871   65.3778   26.4174 C   0  0  0  0  0  0  0  0  0  0  0  0
   24.5230   64.1376   25.6105 C   0  0  0  0  0  0  0  0  0  0  0  0
   26.1982   67.7655   24.3411 O   0  0  0  0  0  0  0  0  0  0  0  0
   24.7484   67.7056   26.7817 O   0  0  0  0  0  0  0  0  0  0  0  0
   24.6322   64.4428   24.1841 O   0  0  0  0  0  0  0  0  0  0  0  0
   27.0761   67.4733   24.6324 H   0  0  0  0  0  0  0  0  0  0  0  0
   23.8711   67.9790   26.4709 H   0  0  0  0  0  0  0  0  0  0  0  0
   23.4299   63.1036   25.7727 C   0  0  0  0  0  0  0  0  0  0  0  0
   22.7920   62.8421   24.5055 O   0  0  0  0  0  0  0  0  0  0  0  0
   22.3964   63.6608   24.1677 H   0  0  0  0  0  0  0  0  0  0  0  0
   24.2209   65.0475   27.8355 O   0  0  0  0  0  0  0  0  0  0  0  0
   23.1822   65.6054   28.6051 C   0  0  0  0  0  0  0  0  0  0  0  0
   23.5900   65.6671   30.0493 C   0  0  0  0  0  0  0  0  0  0  0  0
   23.8414   64.3053   30.5965 C   0  0  0  0  0  0  0  0  0  0  0  0
   22.5934   63.4840   30.4713 C   0  0  0  0  0  0  0  0  0  0  0  0
   22.2412   63.3931   29.0029 C   0  0  0  0  0  0  0  0  0  0  0  0
   20.9541   62.6695   28.7185 C   0  0  0  0  0  0  0  0  0  0  0  0
   24.7844   66.4772   30.1439 O   0  0  0  0  0  0  0  0  0  0  0  0
   24.2411   64.3683   31.9819 O   0  0  0  0  0  0  0  0  0  0  0  0
   21.9952   64.7296   28.4669 O   0  0  0  0  0  0  0  0  0  0  0  0
   25.4912   66.0739   29.6160 H   0  0  0  0  0  0  0  0  0  0  0  0
   23.5322   64.7742   32.5049 H   0  0  0  0  0  0  0  0  0  0  0  0
   22.8008   62.1676   31.0829 N   0  0  0  0  0  0  0  0  0  0  0  0
   23.3961   62.2886   31.9023 H   0  0  0  0  0  0  0  0  0  0  0  0
   23.4365   61.1615   30.1942 C   0  0  0  0  0  0  0  0  0  0  0  0
   22.6941   59.7200   30.4609 C   0  0  0  0  0  0  0  0  0  0  0  0
   23.0616   59.2013   31.5949 C   0  0  0  0  0  0  0  0  0  0  0  0
   24.6276   58.7596   31.6674 C   0  0  0  0  0  0  0  0  0  0  0  0
   25.5079   59.8308   31.2580 C   0  0  0  0  0  0  0  0  0  0  0  0
   24.8303   61.1322   30.4279 C   0  0  0  0  0  0  0  0  0  0  0  0
   21.2334   60.0169   30.4696 O   0  0  0  0  0  0  0  0  0  0  0  0
   22.2871   57.9329   31.8697 O   0  0  0  0  0  0  0  0  0  0  0  0
   24.9937   58.2900   32.9722 O   0  0  0  0  0  0  0  0  0  0  0  0
   21.0393   60.6655   31.1643 H   0  0  0  0  0  0  0  0  0  0  0  0
   22.4992   57.2714   31.1927 H   0  0  0  0  0  0  0  0  0  0  0  0
   24.8965   59.0107   33.6142 H   0  0  0  0  0  0  0  0  0  0  0  0
   26.9809   59.8151   31.5295 C   0  0  0  0  0  0  0  0  0  0  0  0
   27.1389   60.3050   32.8318 O   0  0  0  0  0  0  0  0  0  0  0  0
   26.7616   61.1968   32.8898 H   0  0  0  0  0  0  0  0  0  0  0  0
   26.8817   65.1134   24.3220 O   0  0  0  0  0  0  0  0  0  0  0  0
   30.2191   63.3947   22.3598 C   0  0  0  0  0  0  0  0  0  0  0  0
   29.5659   64.6382   21.7909 C   0  0  0  0  0  0  0  0  0  0  0  0
   28.7172   65.3368   22.7945 C   0  0  0  0  0  0  0  0  0  0  0  0
   27.6649   64.4292   23.3402 C   0  0  0  0  0  0  0  0  0  0  0  0
   28.3172   63.2023   23.9501 C   0  0  0  0  0  0  0  0  0  0  0  0
   31.1729   63.7402   23.3041 O   0  0  0  0  0  0  0  0  0  0  0  0
   30.5515   65.5112   21.1834 O   0  0  0  0  0  0  0  0  0  0  0  0
   28.0610   66.4486   22.1249 O   0  0  0  0  0  0  0  0  0  0  0  0
   29.1844   62.5446   22.9731 O   0  0  0  0  0  0  0  0  0  0  0  0
   30.7498   64.2290   24.0272 H   0  0  0  0  0  0  0  0  0  0  0  0
   31.1766   65.8137   21.8606 H   0  0  0  0  0  0  0  0  0  0  0  0
   27.5128   66.1110   21.3994 H   0  0  0  0  0  0  0  0  0  0  0  0
   27.3139   62.1570   24.3167 C   0  0  0  0  0  0  0  0  0  0  0  0
   26.2768   62.1378   23.3240 O   0  0  0  0  0  0  0  0  0  0  0  0
   25.8492   63.0077   23.2862 H   0  0  0  0  0  0  0  0  0  0  0  0
 28 29  1  0  0  0
 28 33  1  0  0  0
 28 26  1  0  0  0
 29 30  1  0  0  0
 29 34  1  0  0  0
 30 31  1  0  0  0
 30 35  1  0  0  0
 31 32  1  0  0  0
 31 36  1  0  0  0
 32 40  1  0  0  0
 32 33  2  0  0  0
 40 41  1  0  0  0
 15 16  1  0  0  0
 15 23  1  0  0  0
 15 14  1  0  0  0
 16 17  1  0  0  0
 16 21  1  0  0  0
 17 18  1  0  0  0
 17 22  1  0  0  0
 18 19  1  0  0  0
 18 26  1  0  0  0
 19 20  1  0  0  0
 19 23  1  0  0  0
  1  2  1  0  0  0
  1  8  1  0  0  0
  1 43  1  0  0  0
  2  3  1  0  0  0
  2  6  1  0  0  0
  3  4  1  0  0  0
  3  7  1  0  0  0
  4  5  1  0  0  0
  4 14  1  0  0  0
  5 11  1  0  0  0
  5  8  1  0  0  0
 11 12  1  0  0  0
 44 45  1  0  0  0
 44 49  1  0  0  0
 44 52  1  0  0  0
 45 46  1  0  0  0
 45 50  1  0  0  0
 46 47  1  0  0  0
 46 51  1  0  0  0
 47 48  1  0  0  0
 47 43  1  0  0  0
 48 56  1  0  0  0
 48 52  1  0  0  0
 56 57  1  0  0  0
 34 37  1  0  0  0
 35 38  1  0  0  0
 36 39  1  0  0  0
 41 42  1  0  0  0
 26 27  1  0  0  0
 21 24  1  0  0  0
 22 25  1  0  0  0
  6  9  1  0  0  0
  7 10  1  0  0  0
 12 13  1  0  0  0
 49 53  1  0  0  0
 50 54  1  0  0  0
 51 55  1  0  0  0
 57 58  1  0  0  0
M  END
> <minimizedAffinity>
-9.97414

$$$$
4UAC_ACR_A_501


 58 61  0  0  0  0  0  0  0  0999 V2000
   21.4016   65.6099   29.6267 C   0  0  0  0  0  0  0  0  0  0  0  0
   21.0288   64.4809   28.7155 C   0  0  0  0  0  0  0  0  0  0  0  0
   22.1609   64.1193   27.8142 C   0  0  0  0  0  0  0  0  0  0  0  0
   22.6269   65.2974   27.0123 C   0  0  0  0  0  0  0  0  0  0  0  0
   22.9312   66.4726   27.9225 C   0  0  0  0  0  0  0  0  0  0  0  0
   20.6338   63.3510   29.5216 O   0  0  0  0  0  0  0  0  0  0  0  0
   21.7563   63.0386   26.9322 O   0  0  0  0  0  0  0  0  0  0  0  0
   21.8076   66.7624   28.8130 O   0  0  0  0  0  0  0  0  0  0  0  0
   21.3753   63.0813   30.0858 H   0  0  0  0  0  0  0  0  0  0  0  0
   21.0125   63.3310   26.3826 H   0  0  0  0  0  0  0  0  0  0  0  0
   23.1889   67.7136   27.0955 C   0  0  0  0  0  0  0  0  0  0  0  0
   24.6065   67.9192   26.9242 O   0  0  0  0  0  0  0  0  0  0  0  0
   25.0239   68.0333   27.7924 H   0  0  0  0  0  0  0  0  0  0  0  0
   23.8194   64.9683   26.2437 O   0  0  0  0  0  0  0  0  0  0  0  0
   23.6972   65.1304   24.8503 C   0  0  0  0  0  0  0  0  0  0  0  0
   23.9962   63.8331   24.1549 C   0  0  0  0  0  0  0  0  0  0  0  0
   25.3957   63.3946   24.4116 C   0  0  0  0  0  0  0  0  0  0  0  0
   26.3421   64.4478   23.9187 C   0  0  0  0  0  0  0  0  0  0  0  0
   26.0541   65.7245   24.6774 C   0  0  0  0  0  0  0  0  0  0  0  0
   26.8683   66.9072   24.2308 C   0  0  0  0  0  0  0  0  0  0  0  0
   23.0603   62.8407   24.6353 O   0  0  0  0  0  0  0  0  0  0  0  0
   25.6775   62.1438   23.7489 O   0  0  0  0  0  0  0  0  0  0  0  0
   24.6807   66.1536   24.4252 O   0  0  0  0  0  0  0  0  0  0  0  0
   23.1645   62.7353   25.5939 H   0  0  0  0  0  0  0  0  0  0  0  0
   25.5698   62.2538   22.7912 H   0  0  0  0  0  0  0  0  0  0  0  0
   27.7254   63.9922   24.0883 N   0  0  0  0  0  0  0  0  0  0  0  0
   28.1957   64.6355   24.7250 H   0  0  0  0  0  0  0  0  0  0  0  0
   28.5165   63.9235   22.8330 C   0  0  0  0  0  0  0  0  0  0  0  0
   29.2358   62.4471   22.7765 C   0  0  0  0  0  0  0  0  0  0  0  0
   30.2316   62.3738   23.6089 C   0  0  0  0  0  0  0  0  0  0  0  0
   31.4906   63.3440   23.2535 C   0  0  0  0  0  0  0  0  0  0  0  0
   31.0721   64.7109   23.0378 C   0  0  0  0  0  0  0  0  0  0  0  0
   29.4305   65.0007   22.7861 C   0  0  0  0  0  0  0  0  0  0  0  0
   28.1728   61.4689   23.1440 O   0  0  0  0  0  0  0  0  0  0  0  0
   30.8084   60.9769   23.6190 O   0  0  0  0  0  0  0  0  0  0  0  0
   32.5102   63.2922   24.2609 O   0  0  0  0  0  0  0  0  0  0  0  0
   27.8314   61.6790   24.0273 H   0  0  0  0  0  0  0  0  0  0  0  0
   31.1759   60.7725   22.7449 H   0  0  0  0  0  0  0  0  0  0  0  0
   32.1536   63.6251   25.0992 H   0  0  0  0  0  0  0  0  0  0  0  0
   32.0356   65.8575   23.0160 C   0  0  0  0  0  0  0  0  0  0  0  0
   33.2380   65.3425   22.5159 O   0  0  0  0  0  0  0  0  0  0  0  0
   33.5398   64.6165   23.0840 H   0  0  0  0  0  0  0  0  0  0  0  0
   22.4559   65.1830   30.4298 O   0  0  0  0  0  0  0  0  0  0  0  0
   20.4659   65.2600   34.1683 C   0  0  0  0  0  0  0  0  0  0  0  0
   20.9620   66.5513   33.5496 C   0  0  0  0  0  0  0  0  0  0  0  0
   21.2383   66.4077   32.0941 C   0  0  0  0  0  0  0  0  0  0  0  0
   22.2288   65.3210   31.8351 C   0  0  0  0  0  0  0  0  0  0  0  0
   21.7159   64.0159   32.4152 C   0  0  0  0  0  0  0  0  0  0  0  0
   19.1987   64.9553   33.6971 O   0  0  0  0  0  0  0  0  0  0  0  0
   20.0613   67.6485   33.8449 O   0  0  0  0  0  0  0  0  0  0  0  0
   21.8016   67.6628   31.6226 O   0  0  0  0  0  0  0  0  0  0  0  0
   21.4043   64.1745   33.8354 O   0  0  0  0  0  0  0  0  0  0  0  0
   19.2292   64.8480   32.7336 H   0  0  0  0  0  0  0  0  0  0  0  0
   19.1935   67.4696   33.4503 H   0  0  0  0  0  0  0  0  0  0  0  0
   22.6235   67.8490   32.1029 H   0  0  0  0  0  0  0  0  0  0  0  0
   22.7536   62.9409   32.3822 C   0  0  0  0  0  0  0  0  0  0  0  0
   22.7954   62.3737   31.0639 O   0  0  0  0  0  0  0  0  0  0  0  0
   21.9269   62.0017   30.8443 H   0  0  0  0  0  0  0  0  0  0  0  0
 28 29  1  0  0  0
 28 33  1  0  0  0
 28 26  1  0  0  0
 29 30  1  0  0  0
 29 34  1  0  0  0
 30 31  1  0  0  0
 30 35  1  0  0  0
 31 32  1  0  0  0
 31 36  1  0  0  0
 32 40  1  0  0  0
 32 33  2  0  0  0
 40 41  1  0  0  0
 15 16  1  0  0  0
 15 23  1  0  0  0
 15 14  1  0  0  0
 16 17  1  0  0  0
 16 21  1  0  0  0
 17 18  1  0  0  0
 17 22  1  0  0  0
 18 19  1  0  0  0
 18 26  1  0  0  0
 19 20  1  0  0  0
 19 23  1  0  0  0
  1  2  1  0  0  0
  1  8  1  0  0  0
  1 43  1  0  0  0
  2  3  1  0  0  0
  2  6  1  0  0  0
  3  4  1  0  0  0
  3  7  1  0  0  0
  4  5  1  0  0  0
  4 14  1  0  0  0
  5 11  1  0  0  0
  5  8  1  0  0  0
 11 12  1  0  0  0
 44 45  1  0  0  0
 44 49  1  0  0  0
 44 52  1  0  0  0
 45 46  1  0  0  0
 45 50  1  0  0  0
 46 47  1  0  0  0
 46 51  1  0  0  0
 47 48  1  0  0  0
 47 43  1  0  0  0
 48 56  1  0  0  0
 48 52  1  0  0  0
 56 57  1  0  0  0
 34 37  1  0  0  0
 35 38  1  0  0  0
 36 39  1  0  0  0
 41 42  1  0  0  0
 26 27  1  0  0  0
 21 24  1  0  0  0
 22 25  1  0  0  0
  6  9  1  0  0  0
  7 10  1  0  0  0
 12 13  1  0  0  0
 49 53  1  0  0  0
 50 54  1  0  0  0
 51 55  1  0  0  0
 57 58  1  0  0  0
M  END
> <minimizedAffinity>
-9.95744

$$$$
4UAC_ACR_A_501


 58 61  0  0  0  0  0  0  0  0999 V2000
   23.1237   65.8106   26.5151 C   0  0  0  0  0  0  0  0  0  0  0  0
   23.0703   64.4646   25.8599 C   0  0  0  0  0  0  0  0  0  0  0  0
   24.4406   63.9242   25.6259 C   0  0  0  0  0  0  0  0  0  0  0  0
   25.2730   64.8644   24.8066 C   0  0  0  0  0  0  0  0  0  0  0  0
   25.2678   66.2517   25.4211 C   0  0  0  0  0  0  0  0  0  0  0  0
   22.3044   63.5749   26.6992 O   0  0  0  0  0  0  0  0  0  0  0  0
   24.3499   62.6311   24.9707 O   0  0  0  0  0  0  0  0  0  0  0  0
   23.9043   66.7205   25.6678 O   0  0  0  0  0  0  0  0  0  0  0  0
   22.7343   63.4973   27.5652 H   0  0  0  0  0  0  0  0  0  0  0  0
   23.9136   62.7344   24.1105 H   0  0  0  0  0  0  0  0  0  0  0  0
   25.9247   67.2369   24.4787 C   0  0  0  0  0  0  0  0  0  0  0  0
   25.3231   67.1596   23.1698 O   0  0  0  0  0  0  0  0  0  0  0  0
   25.4391   66.2651   22.8130 H   0  0  0  0  0  0  0  0  0  0  0  0
   26.6474   64.3933   24.7049 O   0  0  0  0  0  0  0  0  0  0  0  0
   27.0745   64.0696   23.4028 C   0  0  0  0  0  0  0  0  0  0  0  0
   27.6407   62.6786   23.3797 C   0  0  0  0  0  0  0  0  0  0  0  0
   28.8367   62.5693   24.2598 C   0  0  0  0  0  0  0  0  0  0  0  0
   29.8838   63.5357   23.7933 C   0  0  0  0  0  0  0  0  0  0  0  0
   29.3034   64.9299   23.8822 C   0  0  0  0  0  0  0  0  0  0  0  0
   30.2087   66.0118   23.3615 C   0  0  0  0  0  0  0  0  0  0  0  0
   26.6072   61.7664   23.8173 O   0  0  0  0  0  0  0  0  0  0  0  0
   29.3736   61.2297   24.2419 O   0  0  0  0  0  0  0  0  0  0  0  0
   28.1298   65.0359   23.0188 O   0  0  0  0  0  0  0  0  0  0  0  0
   26.3318   61.9979   24.7180 H   0  0  0  0  0  0  0  0  0  0  0  0
   29.6453   61.0023   23.3390 H   0  0  0  0  0  0  0  0  0  0  0  0
   31.0990   63.3795   24.5987 N   0  0  0  0  0  0  0  0  0  0  0  0
   31.3826   64.3024   24.9276 H   0  0  0  0  0  0  0  0  0  0  0  0
   32.2482   62.7717   23.8802 C   0  0  0  0  0  0  0  0  0  0  0  0
   32.8954   61.6202   24.8576 C   0  0  0  0  0  0  0  0  0  0  0  0
   33.5682   62.1523   25.8344 C   0  0  0  0  0  0  0  0  0  0  0  0
   34.9078   62.9594   25.3799 C   0  0  0  0  0  0  0  0  0  0  0  0
   34.6288   63.9198   24.3359 C   0  0  0  0  0  0  0  0  0  0  0  0
   33.1660   63.7807   23.5094 C   0  0  0  0  0  0  0  0  0  0  0  0
   31.7371   60.8422   25.3820 O   0  0  0  0  0  0  0  0  0  0  0  0
   34.0619   61.0810   26.7793 O   0  0  0  0  0  0  0  0  0  0  0  0
   35.5477   63.6062   26.4886 O   0  0  0  0  0  0  0  0  0  0  0  0
   31.1379   61.4368   25.8598 H   0  0  0  0  0  0  0  0  0  0  0  0
   34.6831   60.5000   26.3130 H   0  0  0  0  0  0  0  0  0  0  0  0
   34.9528   64.2769   26.8589 H   0  0  0  0  0  0  0  0  0  0  0  0
   35.5878   65.0074   23.9605 C   0  0  0  0  0  0  0  0  0  0  0  0
   36.8630   64.5260   24.2817 O   0  0  0  0  0  0  0  0  0  0  0  0
   36.8989   64.3113   25.2270 H   0  0  0  0  0  0  0  0  0  0  0  0
   23.7316   65.6587   27.7586 O   0  0  0  0  0  0  0  0  0  0  0  0
   20.4025   66.3054   30.2967 C   0  0  0  0  0  0  0  0  0  0  0  0
   20.9980   67.4634   29.5216 C   0  0  0  0  0  0  0  0  0  0  0  0
   21.8493   67.0042   28.3902 C   0  0  0  0  0  0  0  0  0  0  0  0
   22.9458   66.1094   28.8654 C   0  0  0  0  0  0  0  0  0  0  0  0
   22.3517   64.9249   29.6050 C   0  0  0  0  0  0  0  0  0  0  0  0
   19.4632   65.6406   29.5243 O   0  0  0  0  0  0  0  0  0  0  0  0
   19.9678   68.3957   29.1071 O   0  0  0  0  0  0  0  0  0  0  0  0
   22.4496   68.1799   27.7799 O   0  0  0  0  0  0  0  0  0  0  0  0
   21.4812   65.3820   30.6879 O   0  0  0  0  0  0  0  0  0  0  0  0
   19.8889   65.2945   28.7243 H   0  0  0  0  0  0  0  0  0  0  0  0
   19.3512   67.9498   28.5056 H   0  0  0  0  0  0  0  0  0  0  0  0
   22.9892   68.6458   28.4377 H   0  0  0  0  0  0  0  0  0  0  0  0
   23.3990   64.1094   30.2917 C   0  0  0  0  0  0  0  0  0  0  0  0
   24.0037   63.2260   29.3349 O   0  0  0  0  0  0  0  0  0  0  0  0
   23.3253   62.6438   28.9585 H   0  0  0  0  0  0  0  0  0  0  0  0
 28 29  1  0  0  0
 28 33  1  0  0  0
 28 26  1  0  0  0
 29 30  1  0  0  0
 29 34  1  0  0  0
 30 31  1  0  0  0
 30 35  1  0  0  0
 31 32  1  0  0  0
 31 36  1  0  0  0
 32 40  1  0  0  0
 32 33  2  0  0  0
 40 41  1  0  0  0
 15 16  1  0  0  0
 15 23  1  0  0  0
 15 14  1  0  0  0
 16 17  1  0  0  0
 16 21  1  0  0  0
 17 18  1  0  0  0
 17 22  1  0  0  0
 18 19  1  0  0  0
 18 26  1  0  0  0
 19 20  1  0  0  0
 19 23  1  0  0  0
  1  2  1  0  0  0
  1  8  1  0  0  0
  1 43  1  0  0  0
  2  3  1  0  0  0
  2  6  1  0  0  0
  3  4  1  0  0  0
  3  7  1  0  0  0
  4  5  1  0  0  0
  4 14  1  0  0  0
  5 11  1  0  0  0
  5  8  1  0  0  0
 11 12  1  0  0  0
 44 45  1  0  0  0
 44 49  1  0  0  0
 44 52  1  0  0  0
 45 46  1  0  0  0
 45 50  1  0  0  0
 46 47  1  0  0  0
 46 51  1  0  0  0
 47 48  1  0  0  0
 47 43  1  0  0  0
 48 56  1  0  0  0
 48 52  1  0  0  0
 56 57  1  0  0  0
 34 37  1  0  0  0
 35 38  1  0  0  0
 36 39  1  0  0  0
 41 42  1  0  0  0
 26 27  1  0  0  0
 21 24  1  0  0  0
 22 25  1  0  0  0
  6  9  1  0  0  0
  7 10  1  0  0  0
 12 13  1  0  0  0
 49 53  1  0  0  0
 50 54  1  0  0  0
 51 55  1  0  0  0
 57 58  1  0  0  0
M  END
> <minimizedAffinity>
-9.91213

$$$$
