1D4P_BPP_B_400
  RCSB PDB12061702143D
Coordinates from PDB:1D4P:B:400 Model:1 without hydrogens
 27 30  0  0  0  0            999 V2000
  -23.9770  -31.8420   23.1850   C 0  0  0  0  0  0  0  0  0  0  0  0
  -23.2620  -33.0490   22.8460   C 0  0  0  0  0  0  0  0  0  0  0  0
  -22.2410  -32.9690   21.8570   C 0  0  0  0  0  0  0  0  0  0  0  0
  -21.9390  -31.7360   21.2190   C 0  0  0  0  0  0  0  0  0  0  0  0
  -22.6540  -30.5500   21.5620   C 0  0  0  0  0  0  0  0  0  0  0  0
  -23.6720  -30.6180   22.5390   C 0  0  0  0  0  0  0  0  0  0  0  0
  -21.3610  -33.8910   21.3030   C 0  0  0  0  0  0  0  0  0  0  0  0
  -20.5500  -33.2420   20.3660   C 0  0  0  0  0  0  0  0  0  0  0  0
  -20.9500  -31.9310   20.3630   N 0  0  0  0  0  0  0  0  0  0  0  0
  -24.9870  -31.8380   24.1860   C 0  0  0  0  0  0  0  0  0  0  0  0
  -25.1220  -30.7030   24.8440   N 0  0  0  0  0  0  0  0  0  0  0  0
  -25.7300  -32.8840   24.4660   N 0  3  0  0  0  0  0  0  0  0  0  0
  -19.4790  -33.7530   19.5580   C 0  0  0  0  0  0  0  0  0  0  0  0
  -19.6650  -34.3370   18.4800   O 0  0  0  0  0  0  0  0  0  0  0  0
  -18.0940  -33.5610   20.0610   N 0  0  0  0  0  0  0  0  0  0  0  0
  -16.8530  -34.0600   19.3190   C 0  0  0  0  0  0  0  0  0  0  0  0
  -16.3920  -35.2560   20.2020   C 0  0  0  0  0  0  0  0  0  0  0  0
  -16.1290  -34.7710   21.6280   C 0  0  0  0  0  0  0  0  0  0  0  0
  -17.3950  -34.0160   22.2270   C 0  0  0  0  0  0  0  0  0  0  0  0
  -17.7910  -32.8960   21.3250   C 0  0  0  0  0  0  0  0  0  0  0  0
  -15.7200  -35.9250   22.6000   C 0  0  0  0  0  0  0  0  0  0  0  0
  -15.2460  -35.3600   23.9730   C 0  0  0  0  0  0  0  0  0  0  0  0
  -16.1300  -35.3170   25.1240   C 0  0  0  0  0  0  0  0  0  0  0  0
  -15.6990  -34.8010   26.3600   C 0  0  0  0  0  0  0  0  0  0  0  0
  -14.3740  -34.3200   26.4640   C 0  0  0  0  0  0  0  0  0  0  0  0
  -13.4870  -34.3510   25.3550   C 0  0  0  0  0  0  0  0  0  0  0  0
  -13.9140  -34.8640   24.1260   C 0  0  0  0  0  0  0  0  0  0  0  0
  1  2  2  0  0  0  0
  1  6  1  0  0  0  0
  1 10  1  0  0  0  0
  2  3  1  0  0  0  0
  3  4  1  0  0  0  0
  3  7  1  0  0  0  0
  4  5  1  0  0  0  0
  4  9  2  0  0  0  0
  5  6  2  0  0  0  0
  7  8  2  0  0  0  0
  8  9  1  0  0  0  0
  8 13  1  0  0  0  0
 10 11  1  0  0  0  0
 10 12  2  0  0  0  0
 13 14  2  0  0  0  0
 13 15  1  0  0  0  0
 15 16  1  0  0  0  0
 15 20  1  0  0  0  0
 16 17  1  0  0  0  0
 17 18  1  0  0  0  0
 18 19  1  0  0  0  0
 18 21  1  0  0  0  0
 19 20  1  0  0  0  0
 21 22  1  0  0  0  0
 22 23  1  0  0  0  0
 22 27  2  0  0  0  0
 23 24  2  0  0  0  0
 24 25  1  0  0  0  0
 25 26  2  0  0  0  0
 26 27  1  0  0  0  0
M  CHG  1  12   1
A    1
C1
A    2
C2
A    3
C3
A    4
C4
A    5
C5
A    6
C6
A    7
C10
A    8
C11
A    9
N12
A   10
C13
A   11
N14
A   12
N15
A   13
C17
A   14
O18
A   15
N19
A   16
C20
A   17
C21
A   18
C22
A   19
C23
A   20
C24
A   21
C33
A   22
C35
A   23
C38
A   24
C39
A   25
C40
A   26
C41
A   27
C42
M  END
>  <InstanceId>
1D4P_BPP_B_400

>  <ChemCompId>
BPP

>  <PdbId>
1D4P

>  <ChainId>
B

>  <ResidueNumber>
400

>  <InsertionCode>


>  <Model>
1

>  <AltIds>


>  <MissingHeavyAtoms>
27

>  <ObservedFormula>
C22 N4 O

>  <Name>
(4-BENZYL-PIPERIDIN-1-YL)-(5-AMIDINOMETHYL-3AH-INDOL-2-YL-METHANONE

>  <SystematicName>
[amino-[2-[4-(phenylmethyl)piperidin-1-yl]carbonyl-3aH-indol-5-yl]methylidene]azanium

>  <Synonyms>


>  <Type>
NON-POLYMER

>  <Formula>
C22 H25 N4 O

>  <MolecularWeight>
361.46

>  <ModifiedDate>
2011-06-04

>  <Parent>


>  <OneLetterCode>


>  <SubcomponentList>


>  <AmbiguousFlag>
N

>  <InChI>
InChI=1S/C22H24N4O/c23-21(24)17-6-7-19-18(13-17)14-20(25-19)22(27)26-10-8-16(9-11-26)12-15-4-2-1-3-5-15/h1-7,13-14,16,18H,8-12H2,(H3,23,24)/p+1

>  <InChIKey>
KVXKNKYHJPTYNK-UHFFFAOYSA-O

>  <SMILES>
c1ccc(cc1)CC2CCN(CC2)C(=O)C3=CC4C=C(C=CC4=N3)C(=[NH2+])N

$$$$
