1D4P_BPP_B_400


 31 34  0  0  0  0  0  0  0  0999 V2000
  -23.8230  -31.6759   22.9442 C   0  0  0  0  0  0  0  0  0  0  0  0
  -23.0516  -32.8507   22.6158 C   0  0  0  0  0  0  0  0  0  0  0  0
  -21.9699  -32.7093   21.7010 C   0  0  0  0  0  0  0  0  0  0  0  0
  -21.6628  -31.4476   21.1246 C   0  0  0  0  0  0  0  0  0  0  0  0
  -22.4338  -30.2940   21.4563 C   0  0  0  0  0  0  0  0  0  0  0  0
  -23.5121  -30.4229   22.3597 C   0  0  0  0  0  0  0  0  0  0  0  0
  -21.0281  -33.5876   21.1785 C   0  0  0  0  0  0  0  0  0  0  0  0
  -20.1762  -32.8852   20.3195 C   0  0  0  0  0  0  0  0  0  0  0  0
  -20.6137  -31.5863   20.3314 N   0  0  0  0  0  0  0  0  0  0  0  0
  -19.0392  -33.3390   19.5697 C   0  0  0  0  0  0  0  0  0  0  0  0
  -19.1329  -33.8555   18.4462 O   0  0  0  0  0  0  0  0  0  0  0  0
  -17.7006  -33.1716   20.1928 N   0  0  0  0  0  0  0  0  0  0  0  0
  -16.3995  -33.6166   19.5229 C   0  0  0  0  0  0  0  0  0  0  0  0
  -15.9979  -34.8631   20.3642 C   0  0  0  0  0  0  0  0  0  0  0  0
  -15.8541  -34.4668   21.8340 C   0  0  0  0  0  0  0  0  0  0  0  0
  -17.1713  -33.7575   22.3754 C   0  0  0  0  0  0  0  0  0  0  0  0
  -17.5058  -32.5854   21.5157 C   0  0  0  0  0  0  0  0  0  0  0  0
  -15.5118  -35.6772   22.7622 C   0  0  0  0  0  0  0  0  0  0  0  0
  -15.4533  -35.2386   24.2566 C   0  0  0  0  0  0  0  0  0  0  0  0
  -14.6176  -34.1345   24.6932 C   0  0  0  0  0  0  0  0  0  0  0  0
  -14.5640  -33.7458   26.0444 C   0  0  0  0  0  0  0  0  0  0  0  0
  -15.3481  -34.4565   26.9814 C   0  0  0  0  0  0  0  0  0  0  0  0
  -16.1758  -35.5398   26.5824 C   0  0  0  0  0  0  0  0  0  0  0  0
  -16.2302  -35.9269   25.2396 C   0  0  0  0  0  0  0  0  0  0  0  0
  -24.8970  -31.7335   23.8745 C   0  0  0  0  0  0  0  0  0  0  0  0
  -25.1634  -30.6015   24.4966 N   0  0  0  0  0  0  0  0  0  0  0  0
  -25.5756  -32.8292   24.1267 N   0  0  0  0  0  0  0  0  0  0  0  0
  -24.6414  -29.7924   24.2912 H   0  0  0  0  0  0  0  0  0  0  0  0
  -25.8841  -30.5656   25.1663 H   0  0  0  0  0  0  0  0  0  0  0  0
  -25.3592  -33.6630   23.6500 H   0  0  0  0  0  0  0  0  0  0  0  0
  -26.3007  -32.8168   24.7926 H   0  0  0  0  0  0  0  0  0  0  0  0
  1  2  2  0  0  0
  1  6  1  0  0  0
  1 25  1  0  0  0
  2  3  1  0  0  0
  3  4  1  0  0  0
  3  7  1  0  0  0
  4  5  1  0  0  0
  4  9  2  0  0  0
  5  6  2  0  0  0
  7  8  2  0  0  0
  8  9  1  0  0  0
  8 10  1  0  0  0
 25 26  1  0  0  0
 25 27  2  0  0  0
 10 11  2  0  0  0
 10 12  1  0  0  0
 12 13  1  0  0  0
 12 17  1  0  0  0
 13 14  1  0  0  0
 14 15  1  0  0  0
 15 16  1  0  0  0
 15 18  1  0  0  0
 16 17  1  0  0  0
 18 19  1  0  0  0
 19 20  1  0  0  0
 19 24  2  0  0  0
 20 21  2  0  0  0
 21 22  1  0  0  0
 22 23  2  0  0  0
 23 24  1  0  0  0
 26 28  1  0  0  0
 26 29  1  0  0  0
 27 30  1  0  0  0
 27 31  1  0  0  0
M  CHG 1  27   1
M  END
> <minimizedAffinity>
-11.24737

$$$$
1D4P_BPP_B_400


 31 34  0  0  0  0  0  0  0  0999 V2000
  -23.8687  -31.5915   22.8500 C   0  0  0  0  0  0  0  0  0  0  0  0
  -23.0648  -32.7587   22.5772 C   0  0  0  0  0  0  0  0  0  0  0  0
  -22.0642  -32.6637   21.5688 C   0  0  0  0  0  0  0  0  0  0  0  0
  -21.8671  -31.4549   20.8488 C   0  0  0  0  0  0  0  0  0  0  0  0
  -22.6694  -30.3084   21.1270 C   0  0  0  0  0  0  0  0  0  0  0  0
  -23.6681  -30.3919   22.1225 C   0  0  0  0  0  0  0  0  0  0  0  0
  -21.1205  -33.5484   21.0607 C   0  0  0  0  0  0  0  0  0  0  0  0
  -20.3734  -32.9004   20.0714 C   0  0  0  0  0  0  0  0  0  0  0  0
  -20.8753  -31.6274   19.9913 N   0  0  0  0  0  0  0  0  0  0  0  0
  -19.2745  -33.3778   19.2805 C   0  0  0  0  0  0  0  0  0  0  0  0
  -19.4239  -33.9381   18.1844 O   0  0  0  0  0  0  0  0  0  0  0  0
  -17.9061  -33.1797   19.8248 N   0  0  0  0  0  0  0  0  0  0  0  0
  -16.6391  -33.6445   19.1047 C   0  0  0  0  0  0  0  0  0  0  0  0
  -16.1853  -34.8552   19.9713 C   0  0  0  0  0  0  0  0  0  0  0  0
  -15.9668  -34.4011   21.4149 C   0  0  0  0  0  0  0  0  0  0  0  0
  -17.2585  -33.6773   21.9974 C   0  0  0  0  0  0  0  0  0  0  0  0
  -17.6458  -32.5413   21.1118 C   0  0  0  0  0  0  0  0  0  0  0  0
  -15.5679  -35.5726   22.3699 C   0  0  0  0  0  0  0  0  0  0  0  0
  -16.1690  -36.9246   21.8803 C   0  0  0  0  0  0  0  0  0  0  0  0
  -17.5781  -37.2342   22.0435 C   0  0  0  0  0  0  0  0  0  0  0  0
  -18.1149  -38.4584   21.6046 C   0  0  0  0  0  0  0  0  0  0  0  0
  -17.2488  -39.3934   20.9935 C   0  0  0  0  0  0  0  0  0  0  0  0
  -15.8664  -39.1167   20.8195 C   0  0  0  0  0  0  0  0  0  0  0  0
  -15.3316  -37.9001   21.2550 C   0  0  0  0  0  0  0  0  0  0  0  0
  -24.8649  -31.6013   23.8648 C   0  0  0  0  0  0  0  0  0  0  0  0
  -25.4797  -32.7551   24.0381 N   0  0  0  0  0  0  0  0  0  0  0  0
  -25.1806  -30.5438   24.5766 N   0  0  0  0  0  0  0  0  0  0  0  0
  -25.2263  -33.5347   23.4928 H   0  0  0  0  0  0  0  0  0  0  0  0
  -26.1921  -32.8369   24.7127 H   0  0  0  0  0  0  0  0  0  0  0  0
  -24.7081  -29.6927   24.4299 H   0  0  0  0  0  0  0  0  0  0  0  0
  -25.8898  -30.6022   25.2569 H   0  0  0  0  0  0  0  0  0  0  0  0
  1  2  2  0  0  0
  1  6  1  0  0  0
  1 25  1  0  0  0
  2  3  1  0  0  0
  3  4  1  0  0  0
  3  7  1  0  0  0
  4  5  1  0  0  0
  4  9  2  0  0  0
  5  6  2  0  0  0
  7  8  2  0  0  0
  8  9  1  0  0  0
  8 10  1  0  0  0
 25 26  1  0  0  0
 25 27  2  0  0  0
 10 11  2  0  0  0
 10 12  1  0  0  0
 12 13  1  0  0  0
 12 17  1  0  0  0
 13 14  1  0  0  0
 14 15  1  0  0  0
 15 16  1  0  0  0
 15 18  1  0  0  0
 16 17  1  0  0  0
 18 19  1  0  0  0
 19 20  1  0  0  0
 19 24  2  0  0  0
 20 21  2  0  0  0
 21 22  1  0  0  0
 22 23  2  0  0  0
 23 24  1  0  0  0
 26 28  1  0  0  0
 26 29  1  0  0  0
 27 30  1  0  0  0
 27 31  1  0  0  0
M  CHG 1  27   1
M  END
> <minimizedAffinity>
-9.45006

$$$$
1D4P_BPP_B_400


 31 34  0  0  0  0  0  0  0  0999 V2000
  -24.0317  -29.9584   24.0122 C   0  0  0  0  0  0  0  0  0  0  0  0
  -22.9442  -29.8284   23.0723 C   0  0  0  0  0  0  0  0  0  0  0  0
  -22.5914  -30.9662   22.2926 C   0  0  0  0  0  0  0  0  0  0  0  0
  -23.2878  -32.1957   22.4403 C   0  0  0  0  0  0  0  0  0  0  0  0
  -24.3603  -32.3118   23.3741 C   0  0  0  0  0  0  0  0  0  0  0  0
  -24.7167  -31.1907   24.1561 C   0  0  0  0  0  0  0  0  0  0  0  0
  -21.6396  -31.2027   21.3079 C   0  0  0  0  0  0  0  0  0  0  0  0
  -21.7558  -32.5259   20.8691 C   0  0  0  0  0  0  0  0  0  0  0  0
  -22.7790  -33.0770   21.5957 N   0  0  0  0  0  0  0  0  0  0  0  0
  -21.0248  -33.2317   19.8550 C   0  0  0  0  0  0  0  0  0  0  0  0
  -21.5747  -33.8297   18.9180 O   0  0  0  0  0  0  0  0  0  0  0  0
  -19.5424  -33.2310   19.9578 N   0  0  0  0  0  0  0  0  0  0  0  0
  -18.6299  -33.9480   18.9614 C   0  0  0  0  0  0  0  0  0  0  0  0
  -18.1114  -35.1582   19.7915 C   0  0  0  0  0  0  0  0  0  0  0  0
  -17.4067  -34.6537   21.0511 C   0  0  0  0  0  0  0  0  0  0  0  0
  -18.3475  -33.6868   21.8947 C   0  0  0  0  0  0  0  0  0  0  0  0
  -18.8194  -32.5624   21.0358 C   0  0  0  0  0  0  0  0  0  0  0  0
  -16.9079  -35.8105   21.9768 C   0  0  0  0  0  0  0  0  0  0  0  0
  -16.1645  -35.2480   23.2258 C   0  0  0  0  0  0  0  0  0  0  0  0
  -16.8055  -35.1822   24.5269 C   0  0  0  0  0  0  0  0  0  0  0  0
  -16.1319  -34.6686   25.6504 C   0  0  0  0  0  0  0  0  0  0  0  0
  -14.8037  -34.2128   25.4894 C   0  0  0  0  0  0  0  0  0  0  0  0
  -14.1513  -34.2665   24.2288 C   0  0  0  0  0  0  0  0  0  0  0  0
  -14.8195  -34.7771   23.1114 C   0  0  0  0  0  0  0  0  0  0  0  0
  -24.4616  -28.8565   24.8016 C   0  0  0  0  0  0  0  0  0  0  0  0
  -23.5104  -28.0155   25.1586 N   0  0  0  0  0  0  0  0  0  0  0  0
  -25.7076  -28.6799   25.1769 N   0  0  0  0  0  0  0  0  0  0  0  0
  -22.5831  -28.1680   24.8654 H   0  0  0  0  0  0  0  0  0  0  0  0
  -23.7278  -27.2353   25.7183 H   0  0  0  0  0  0  0  0  0  0  0  0
  -26.4011  -29.3207   24.8984 H   0  0  0  0  0  0  0  0  0  0  0  0
  -25.9482  -27.9067   25.7369 H   0  0  0  0  0  0  0  0  0  0  0  0
  1  2  2  0  0  0
  1  6  1  0  0  0
  1 25  1  0  0  0
  2  3  1  0  0  0
  3  4  1  0  0  0
  3  7  1  0  0  0
  4  5  1  0  0  0
  4  9  2  0  0  0
  5  6  2  0  0  0
  7  8  2  0  0  0
  8  9  1  0  0  0
  8 10  1  0  0  0
 25 26  1  0  0  0
 25 27  2  0  0  0
 10 11  2  0  0  0
 10 12  1  0  0  0
 12 13  1  0  0  0
 12 17  1  0  0  0
 13 14  1  0  0  0
 14 15  1  0  0  0
 15 16  1  0  0  0
 15 18  1  0  0  0
 16 17  1  0  0  0
 18 19  1  0  0  0
 19 20  1  0  0  0
 19 24  2  0  0  0
 20 21  2  0  0  0
 21 22  1  0  0  0
 22 23  2  0  0  0
 23 24  1  0  0  0
 26 28  1  0  0  0
 26 29  1  0  0  0
 27 30  1  0  0  0
 27 31  1  0  0  0
M  CHG 1  27   1
M  END
> <minimizedAffinity>
-9.13180

$$$$
1D4P_BPP_B_400


 31 34  0  0  0  0  0  0  0  0999 V2000
  -24.2051  -30.0965   24.2056 C   0  0  0  0  0  0  0  0  0  0  0  0
  -23.3556  -30.2514   23.0491 C   0  0  0  0  0  0  0  0  0  0  0  0
  -23.2691  -31.5388   22.4474 C   0  0  0  0  0  0  0  0  0  0  0  0
  -23.9953  -32.6402   22.9746 C   0  0  0  0  0  0  0  0  0  0  0  0
  -24.8307  -32.4745   24.1193 C   0  0  0  0  0  0  0  0  0  0  0  0
  -24.9212  -31.2027   24.7272 C   0  0  0  0  0  0  0  0  0  0  0  0
  -22.5866  -32.0452   21.3478 C   0  0  0  0  0  0  0  0  0  0  0  0
  -22.8902  -33.4036   21.2080 C   0  0  0  0  0  0  0  0  0  0  0  0
  -23.7548  -33.7049   22.2280 N   0  0  0  0  0  0  0  0  0  0  0  0
  -22.4608  -34.3502   20.2179 C   0  0  0  0  0  0  0  0  0  0  0  0
  -23.2399  -35.1191   19.6351 O   0  0  0  0  0  0  0  0  0  0  0  0
  -21.0104  -34.3906   19.8969 N   0  0  0  0  0  0  0  0  0  0  0  0
  -20.4017  -35.3520   18.8747 C   0  0  0  0  0  0  0  0  0  0  0  0
  -19.6418  -36.3661   19.7785 C   0  0  0  0  0  0  0  0  0  0  0  0
  -18.6205  -35.6224   20.6398 C   0  0  0  0  0  0  0  0  0  0  0  0
  -19.3054  -34.4508   21.4705 C   0  0  0  0  0  0  0  0  0  0  0  0
  -20.0269  -33.5288   20.5463 C   0  0  0  0  0  0  0  0  0  0  0  0
  -17.8535  -36.5620   21.6260 C   0  0  0  0  0  0  0  0  0  0  0  0
  -16.9773  -35.7386   22.6176 C   0  0  0  0  0  0  0  0  0  0  0  0
  -15.7030  -35.1705   22.2156 C   0  0  0  0  0  0  0  0  0  0  0  0
  -14.9130  -34.4325   23.1161 C   0  0  0  0  0  0  0  0  0  0  0  0
  -15.3872  -34.2502   24.4351 C   0  0  0  0  0  0  0  0  0  0  0  0
  -16.6305  -34.7933   24.8555 C   0  0  0  0  0  0  0  0  0  0  0  0
  -17.4168  -35.5268   23.9613 C   0  0  0  0  0  0  0  0  0  0  0  0
  -24.3666  -28.8341   24.8399 C   0  0  0  0  0  0  0  0  0  0  0  0
  -25.5913  -28.5620   25.2470 N   0  0  0  0  0  0  0  0  0  0  0  0
  -23.3853  -27.9765   25.0014 N   0  0  0  0  0  0  0  0  0  0  0  0
  -26.3114  -29.2202   25.1153 H   0  0  0  0  0  0  0  0  0  0  0  0
  -25.7852  -27.7006   25.6824 H   0  0  0  0  0  0  0  0  0  0  0  0
  -22.4789  -28.2012   24.6896 H   0  0  0  0  0  0  0  0  0  0  0  0
  -23.5560  -27.1089   25.4343 H   0  0  0  0  0  0  0  0  0  0  0  0
  1  2  2  0  0  0
  1  6  1  0  0  0
  1 25  1  0  0  0
  2  3  1  0  0  0
  3  4  1  0  0  0
  3  7  1  0  0  0
  4  5  1  0  0  0
  4  9  2  0  0  0
  5  6  2  0  0  0
  7  8  2  0  0  0
  8  9  1  0  0  0
  8 10  1  0  0  0
 25 26  1  0  0  0
 25 27  2  0  0  0
 10 11  2  0  0  0
 10 12  1  0  0  0
 12 13  1  0  0  0
 12 17  1  0  0  0
 13 14  1  0  0  0
 14 15  1  0  0  0
 15 16  1  0  0  0
 15 18  1  0  0  0
 16 17  1  0  0  0
 18 19  1  0  0  0
 19 20  1  0  0  0
 19 24  2  0  0  0
 20 21  2  0  0  0
 21 22  1  0  0  0
 22 23  2  0  0  0
 23 24  1  0  0  0
 26 28  1  0  0  0
 26 29  1  0  0  0
 27 30  1  0  0  0
 27 31  1  0  0  0
M  CHG 1  27   1
M  END
> <minimizedAffinity>
-9.10571

$$$$
1D4P_BPP_B_400


 31 34  0  0  0  0  0  0  0  0999 V2000
  -15.3056  -34.8296   25.4433 C   0  0  0  0  0  0  0  0  0  0  0  0
  -15.7664  -33.8499   24.4889 C   0  0  0  0  0  0  0  0  0  0  0  0
  -16.4628  -34.3115   23.3362 C   0  0  0  0  0  0  0  0  0  0  0  0
  -16.6927  -35.6983   23.1300 C   0  0  0  0  0  0  0  0  0  0  0  0
  -16.2310  -36.6571   24.0803 C   0  0  0  0  0  0  0  0  0  0  0  0
  -15.5352  -36.2111   25.2259 C   0  0  0  0  0  0  0  0  0  0  0  0
  -17.0479  -33.6791   22.2457 C   0  0  0  0  0  0  0  0  0  0  0  0
  -17.6172  -34.6451   21.4093 C   0  0  0  0  0  0  0  0  0  0  0  0
  -17.3689  -35.8546   22.0043 N   0  0  0  0  0  0  0  0  0  0  0  0
  -18.3532  -34.4919   20.1862 C   0  0  0  0  0  0  0  0  0  0  0  0
  -17.8074  -34.3898   19.0773 O   0  0  0  0  0  0  0  0  0  0  0  0
  -19.8356  -34.4555   20.2824 N   0  0  0  0  0  0  0  0  0  0  0  0
  -20.7531  -34.2855   19.0704 C   0  0  0  0  0  0  0  0  0  0  0  0
  -21.2812  -32.8324   19.2501 C   0  0  0  0  0  0  0  0  0  0  0  0
  -21.9826  -32.7038   20.6026 C   0  0  0  0  0  0  0  0  0  0  0  0
  -21.0348  -33.1658   21.7942 C   0  0  0  0  0  0  0  0  0  0  0  0
  -20.5539  -34.5564   21.5495 C   0  0  0  0  0  0  0  0  0  0  0  0
  -22.4907  -31.2540   20.8918 C   0  0  0  0  0  0  0  0  0  0  0  0
  -23.3269  -31.2047   22.2062 C   0  0  0  0  0  0  0  0  0  0  0  0
  -24.0805  -32.3550   22.6719 C   0  0  0  0  0  0  0  0  0  0  0  0
  -24.8382  -32.3038   23.8564 C   0  0  0  0  0  0  0  0  0  0  0  0
  -24.8528  -31.0988   24.5952 C   0  0  0  0  0  0  0  0  0  0  0  0
  -24.1240  -29.9584   24.1641 C   0  0  0  0  0  0  0  0  0  0  0  0
  -23.3702  -30.0081   22.9871 C   0  0  0  0  0  0  0  0  0  0  0  0
  -14.6317  -34.4414   26.6338 C   0  0  0  0  0  0  0  0  0  0  0  0
  -15.0567  -33.3187   27.1799 N   0  0  0  0  0  0  0  0  0  0  0  0
  -13.6410  -35.1256   27.1583 N   0  0  0  0  0  0  0  0  0  0  0  0
  -15.8011  -32.8224   26.7691 H   0  0  0  0  0  0  0  0  0  0  0  0
  -14.6295  -32.9770   27.9984 H   0  0  0  0  0  0  0  0  0  0  0  0
  -13.3405  -35.9612   26.7333 H   0  0  0  0  0  0  0  0  0  0  0  0
  -13.1989  -34.8029   27.9766 H   0  0  0  0  0  0  0  0  0  0  0  0
  1  2  2  0  0  0
  1  6  1  0  0  0
  1 25  1  0  0  0
  2  3  1  0  0  0
  3  4  1  0  0  0
  3  7  1  0  0  0
  4  5  1  0  0  0
  4  9  2  0  0  0
  5  6  2  0  0  0
  7  8  2  0  0  0
  8  9  1  0  0  0
  8 10  1  0  0  0
 25 26  1  0  0  0
 25 27  2  0  0  0
 10 11  2  0  0  0
 10 12  1  0  0  0
 12 13  1  0  0  0
 12 17  1  0  0  0
 13 14  1  0  0  0
 14 15  1  0  0  0
 15 16  1  0  0  0
 15 18  1  0  0  0
 16 17  1  0  0  0
 18 19  1  0  0  0
 19 20  1  0  0  0
 19 24  2  0  0  0
 20 21  2  0  0  0
 21 22  1  0  0  0
 22 23  2  0  0  0
 23 24  1  0  0  0
 26 28  1  0  0  0
 26 29  1  0  0  0
 27 30  1  0  0  0
 27 31  1  0  0  0
M  CHG 1  27   1
M  END
> <minimizedAffinity>
-9.07956

$$$$
