1GI7_120_B_246


 25 27  0  0  0  0  0  0  0  0999 V2000
    9.0056    0.8954   24.4608 C   0  0  0  0  0  0  0  0  0  0  0  0
    8.9049    1.4216   25.7741 C   0  0  0  0  0  0  0  0  0  0  0  0
    9.0921    2.7734   26.0460 C   0  0  0  0  0  0  0  0  0  0  0  0
    9.3854    3.6033   24.9922 C   0  0  0  0  0  0  0  0  0  0  0  0
    9.4955    3.1651   23.7300 C   0  0  0  0  0  0  0  0  0  0  0  0
    9.3143    1.8199   23.4308 C   0  0  0  0  0  0  0  0  0  0  0  0
    9.5981    4.8693   24.9259 N   0  0  0  0  0  0  0  0  0  0  0  0
    9.7737    4.1219   22.8745 N   0  0  0  0  0  0  0  0  0  0  0  0
    9.8288    5.1798   23.6765 C   0  0  0  0  0  0  0  0  0  0  0  0
    9.5890    5.4968   25.6844 H   0  0  0  0  0  0  0  0  0  0  0  0
   10.1354    6.4752   23.2389 C   0  0  0  0  0  0  0  0  0  0  0  0
   11.3569    7.0421   23.5717 C   0  0  0  0  0  0  0  0  0  0  0  0
   11.6687    8.3127   23.1465 C   0  0  0  0  0  0  0  0  0  0  0  0
   10.7635    9.0307   22.3845 C   0  0  0  0  0  0  0  0  0  0  0  0
    9.6010    8.4924   22.0689 N   0  0  0  0  0  0  0  0  0  0  0  0
    9.2507    7.2724   22.4543 C   0  0  0  0  0  0  0  0  0  0  0  0
    8.1597    6.8374   22.1462 O   0  0  0  0  0  0  0  0  0  0  0  0
    8.9689    9.0167   21.5260 H   0  0  0  0  0  0  0  0  0  0  0  0
    8.8041   -0.4740   24.1987 C   0  0  0  0  0  0  0  0  0  0  0  0
    8.6117   -0.8777   22.9663 N   0  0  0  0  0  0  0  0  0  0  0  0
    8.8063   -1.3376   25.1832 N   0  0  0  0  0  0  0  0  0  0  0  0
    8.6107   -0.2253   22.2290 H   0  0  0  0  0  0  0  0  0  0  0  0
    8.4681   -1.8333   22.7781 H   0  0  0  0  0  0  0  0  0  0  0  0
    8.9512   -1.0303   26.1072 H   0  0  0  0  0  0  0  0  0  0  0  0
    8.6632   -2.2941   24.9993 H   0  0  0  0  0  0  0  0  0  0  0  0
  1  2  1  0  0  0
  1  6  2  0  0  0
  1 19  1  0  0  0
  2  3  2  0  0  0
  3  4  1  0  0  0
  4  5  2  0  0  0
  4  7  1  0  0  0
  5  6  1  0  0  0
  5  8  1  0  0  0
 19 20  1  0  0  0
 19 21  2  0  0  0
  7  9  1  0  0  0
  8  9  2  0  0  0
  9 11  1  0  0  0
 11 12  2  0  0  0
 11 16  1  0  0  0
 12 13  1  0  0  0
 13 14  2  0  0  0
 14 15  1  0  0  0
 15 16  1  0  0  0
 16 17  2  0  0  0
 20 22  1  0  0  0
 20 23  1  0  0  0
 21 24  1  0  0  0
 21 25  1  0  0  0
  7 10  1  0  0  0
 15 18  1  0  0  0
M  CHG 1  21   1
M  END
> <minimizedAffinity>
-8.98640

$$$$
1GI7_120_B_246


 25 27  0  0  0  0  0  0  0  0999 V2000
    9.0143    0.6764   24.8639 C   0  0  0  0  0  0  0  0  0  0  0  0
    9.2586    0.7530   23.4688 C   0  0  0  0  0  0  0  0  0  0  0  0
    9.6245    1.9424   22.8460 C   0  0  0  0  0  0  0  0  0  0  0  0
    9.7434    3.0642   23.6286 C   0  0  0  0  0  0  0  0  0  0  0  0
    9.5239    3.0551   24.9511 C   0  0  0  0  0  0  0  0  0  0  0  0
    9.1565    1.8811   25.5982 C   0  0  0  0  0  0  0  0  0  0  0  0
   10.0670    4.2772   23.3522 N   0  0  0  0  0  0  0  0  0  0  0  0
    9.6989    4.2302   25.5109 N   0  0  0  0  0  0  0  0  0  0  0  0
   10.0411    4.9697   24.4615 C   0  0  0  0  0  0  0  0  0  0  0  0
   10.2949    4.6249   22.4598 H   0  0  0  0  0  0  0  0  0  0  0  0
   10.3083    6.3436   24.5292 C   0  0  0  0  0  0  0  0  0  0  0  0
    9.6071    7.1369   25.4253 C   0  0  0  0  0  0  0  0  0  0  0  0
    9.8622    8.4866   25.5008 C   0  0  0  0  0  0  0  0  0  0  0  0
   10.8203    9.0583   24.6818 C   0  0  0  0  0  0  0  0  0  0  0  0
   11.4866    8.3043   23.8285 N   0  0  0  0  0  0  0  0  0  0  0  0
   11.2784    6.9992   23.7148 C   0  0  0  0  0  0  0  0  0  0  0  0
   11.9116    6.3607   22.8989 O   0  0  0  0  0  0  0  0  0  0  0  0
   12.1649    8.7269   23.2535 H   0  0  0  0  0  0  0  0  0  0  0  0
    8.6539   -0.5367   25.4828 C   0  0  0  0  0  0  0  0  0  0  0  0
    8.3739   -0.5541   26.7636 N   0  0  0  0  0  0  0  0  0  0  0  0
    8.6022   -1.6412   24.7811 N   0  0  0  0  0  0  0  0  0  0  0  0
    8.4140    0.2784   27.2875 H   0  0  0  0  0  0  0  0  0  0  0  0
    8.1237   -1.3997   27.2013 H   0  0  0  0  0  0  0  0  0  0  0  0
    8.8132   -1.6238   23.8196 H   0  0  0  0  0  0  0  0  0  0  0  0
    8.3524   -2.4889   25.2150 H   0  0  0  0  0  0  0  0  0  0  0  0
  1  2  1  0  0  0
  1  6  2  0  0  0
  1 19  1  0  0  0
  2  3  2  0  0  0
  3  4  1  0  0  0
  4  5  2  0  0  0
  4  7  1  0  0  0
  5  6  1  0  0  0
  5  8  1  0  0  0
 19 20  1  0  0  0
 19 21  2  0  0  0
  7  9  1  0  0  0
  8  9  2  0  0  0
  9 11  1  0  0  0
 11 12  2  0  0  0
 11 16  1  0  0  0
 12 13  1  0  0  0
 13 14  2  0  0  0
 14 15  1  0  0  0
 15 16  1  0  0  0
 16 17  2  0  0  0
 20 22  1  0  0  0
 20 23  1  0  0  0
 21 24  1  0  0  0
 21 25  1  0  0  0
  7 10  1  0  0  0
 15 18  1  0  0  0
M  CHG 1  21   1
M  END
> <minimizedAffinity>
-8.92085

$$$$
1GI7_120_B_246


 25 27  0  0  0  0  0  0  0  0999 V2000
   10.4754    7.5399   23.3454 C   0  0  0  0  0  0  0  0  0  0  0  0
    9.3257    7.4839   22.5166 C   0  0  0  0  0  0  0  0  0  0  0  0
    8.5694    6.3242   22.3779 C   0  0  0  0  0  0  0  0  0  0  0  0
    8.9714    5.2111   23.0740 C   0  0  0  0  0  0  0  0  0  0  0  0
   10.0494    5.2015   23.8709 C   0  0  0  0  0  0  0  0  0  0  0  0
   10.8229    6.3458   24.0267 C   0  0  0  0  0  0  0  0  0  0  0  0
    8.4852    4.0239   23.1558 N   0  0  0  0  0  0  0  0  0  0  0  0
   10.2533    4.0398   24.4484 N   0  0  0  0  0  0  0  0  0  0  0  0
    9.2402    3.3283   23.9662 C   0  0  0  0  0  0  0  0  0  0  0  0
    7.6831    3.6951   22.6891 H   0  0  0  0  0  0  0  0  0  0  0  0
    9.0256    1.9758   24.2634 C   0  0  0  0  0  0  0  0  0  0  0  0
    8.7199    1.5975   25.5624 C   0  0  0  0  0  0  0  0  0  0  0  0
    8.5061    0.2726   25.8649 C   0  0  0  0  0  0  0  0  0  0  0  0
    8.5957   -0.6885   24.8731 C   0  0  0  0  0  0  0  0  0  0  0  0
    8.8877   -0.3292   23.6376 N   0  0  0  0  0  0  0  0  0  0  0  0
    9.1042    0.9334   23.2932 C   0  0  0  0  0  0  0  0  0  0  0  0
    9.3855    1.2003   22.1425 O   0  0  0  0  0  0  0  0  0  0  0  0
    8.9472   -1.0255   22.9441 H   0  0  0  0  0  0  0  0  0  0  0  0
   11.2264    8.7237   23.4840 C   0  0  0  0  0  0  0  0  0  0  0  0
   11.2063    9.3760   24.6211 N   0  0  0  0  0  0  0  0  0  0  0  0
   11.9383    9.1703   22.4796 N   0  0  0  0  0  0  0  0  0  0  0  0
   10.6698    9.0369   25.3737 H   0  0  0  0  0  0  0  0  0  0  0  0
   11.7276   10.2050   24.7223 H   0  0  0  0  0  0  0  0  0  0  0  0
   11.9507    8.6775   21.6274 H   0  0  0  0  0  0  0  0  0  0  0  0
   12.4610    9.9989   22.5767 H   0  0  0  0  0  0  0  0  0  0  0  0
  1  2  1  0  0  0
  1  6  2  0  0  0
  1 19  1  0  0  0
  2  3  2  0  0  0
  3  4  1  0  0  0
  4  5  2  0  0  0
  4  7  1  0  0  0
  5  6  1  0  0  0
  5  8  1  0  0  0
 19 20  1  0  0  0
 19 21  2  0  0  0
  7  9  1  0  0  0
  8  9  2  0  0  0
  9 11  1  0  0  0
 11 12  2  0  0  0
 11 16  1  0  0  0
 12 13  1  0  0  0
 13 14  2  0  0  0
 14 15  1  0  0  0
 15 16  1  0  0  0
 16 17  2  0  0  0
 20 22  1  0  0  0
 20 23  1  0  0  0
 21 24  1  0  0  0
 21 25  1  0  0  0
  7 10  1  0  0  0
 15 18  1  0  0  0
M  CHG 1  21   1
M  END
> <minimizedAffinity>
-7.67188

$$$$
1GI7_120_B_246


 25 27  0  0  0  0  0  0  0  0999 V2000
    8.8817    6.5194   28.9892 C   0  0  0  0  0  0  0  0  0  0  0  0
    7.7070    6.8883   28.2853 C   0  0  0  0  0  0  0  0  0  0  0  0
    7.2590    6.1831   27.1725 C   0  0  0  0  0  0  0  0  0  0  0  0
    7.9972    5.1010   26.7611 C   0  0  0  0  0  0  0  0  0  0  0  0
    9.1164    4.7048   27.3837 C   0  0  0  0  0  0  0  0  0  0  0  0
    9.5865    5.3917   28.4969 C   0  0  0  0  0  0  0  0  0  0  0  0
    7.8381    4.2659   25.7968 N   0  0  0  0  0  0  0  0  0  0  0  0
    9.6645    3.6453   26.8344 N   0  0  0  0  0  0  0  0  0  0  0  0
    8.8216    3.4046   25.8360 C   0  0  0  0  0  0  0  0  0  0  0  0
    7.1031    4.2734   25.1419 H   0  0  0  0  0  0  0  0  0  0  0  0
    8.9873    2.3678   24.9080 C   0  0  0  0  0  0  0  0  0  0  0  0
    8.7808    1.0538   25.3013 C   0  0  0  0  0  0  0  0  0  0  0  0
    8.9396    0.0283   24.3981 C   0  0  0  0  0  0  0  0  0  0  0  0
    9.3065    0.3045   23.0926 C   0  0  0  0  0  0  0  0  0  0  0  0
    9.5042    1.5542   22.7184 N   0  0  0  0  0  0  0  0  0  0  0  0
    9.3660    2.5789   23.5493 C   0  0  0  0  0  0  0  0  0  0  0  0
    9.5779    3.7060   23.1504 O   0  0  0  0  0  0  0  0  0  0  0  0
    9.7644    1.7331   21.7859 H   0  0  0  0  0  0  0  0  0  0  0  0
    9.3184    7.2369   30.1203 C   0  0  0  0  0  0  0  0  0  0  0  0
   10.4407    6.9009   30.7088 N   0  0  0  0  0  0  0  0  0  0  0  0
    8.6036    8.2325   30.5818 N   0  0  0  0  0  0  0  0  0  0  0  0
   10.9751    6.1518   30.3587 H   0  0  0  0  0  0  0  0  0  0  0  0
   10.7491    7.3976   31.5009 H   0  0  0  0  0  0  0  0  0  0  0  0
    7.7614    8.4816   30.1369 H   0  0  0  0  0  0  0  0  0  0  0  0
    8.9085    8.7318   31.3736 H   0  0  0  0  0  0  0  0  0  0  0  0
  1  2  1  0  0  0
  1  6  2  0  0  0
  1 19  1  0  0  0
  2  3  2  0  0  0
  3  4  1  0  0  0
  4  5  2  0  0  0
  4  7  1  0  0  0
  5  6  1  0  0  0
  5  8  1  0  0  0
 19 20  1  0  0  0
 19 21  2  0  0  0
  7  9  1  0  0  0
  8  9  2  0  0  0
  9 11  1  0  0  0
 11 12  2  0  0  0
 11 16  1  0  0  0
 12 13  1  0  0  0
 13 14  2  0  0  0
 14 15  1  0  0  0
 15 16  1  0  0  0
 16 17  2  0  0  0
 20 22  1  0  0  0
 20 23  1  0  0  0
 21 24  1  0  0  0
 21 25  1  0  0  0
  7 10  1  0  0  0
 15 18  1  0  0  0
M  CHG 1  21   1
M  END
> <minimizedAffinity>
-7.09080

$$$$
1GI7_120_B_246


 25 27  0  0  0  0  0  0  0  0999 V2000
    6.9001    8.3516   23.2845 C   0  0  0  0  0  0  0  0  0  0  0  0
    8.1384    8.4771   22.6042 C   0  0  0  0  0  0  0  0  0  0  0  0
    9.0305    7.4153   22.4896 C   0  0  0  0  0  0  0  0  0  0  0  0
    8.6786    6.2191   23.0644 C   0  0  0  0  0  0  0  0  0  0  0  0
    7.5239    6.0396   23.7215 C   0  0  0  0  0  0  0  0  0  0  0  0
    6.6154    7.0835   23.8516 C   0  0  0  0  0  0  0  0  0  0  0  0
    9.2737    5.0809   23.1181 N   0  0  0  0  0  0  0  0  0  0  0  0
    7.3801    4.8202   24.1875 N   0  0  0  0  0  0  0  0  0  0  0  0
    8.5102    4.2517   23.7815 C   0  0  0  0  0  0  0  0  0  0  0  0
   10.1523    4.8699   22.7273 H   0  0  0  0  0  0  0  0  0  0  0  0
    8.8611    2.9247   24.0635 C   0  0  0  0  0  0  0  0  0  0  0  0
    8.4581    2.3461   25.2580 C   0  0  0  0  0  0  0  0  0  0  0  0
    8.7961    1.0438   25.5445 C   0  0  0  0  0  0  0  0  0  0  0  0
    9.5404    0.3055   24.6410 C   0  0  0  0  0  0  0  0  0  0  0  0
    9.9250    0.8559   23.5052 N   0  0  0  0  0  0  0  0  0  0  0  0
    9.6274    2.1073   23.1811 C   0  0  0  0  0  0  0  0  0  0  0  0
   10.0240    2.5636   22.1280 O   0  0  0  0  0  0  0  0  0  0  0  0
   10.4537    0.3167   22.8735 H   0  0  0  0  0  0  0  0  0  0  0  0
    6.0021    9.4324   23.3846 C   0  0  0  0  0  0  0  0  0  0  0  0
    6.3027   10.4583   24.1436 N   0  0  0  0  0  0  0  0  0  0  0  0
    4.8714    9.4091   22.7241 N   0  0  0  0  0  0  0  0  0  0  0  0
    7.1537   10.4718   24.6385 H   0  0  0  0  0  0  0  0  0  0  0  0
    5.6775   11.2150   24.2187 H   0  0  0  0  0  0  0  0  0  0  0  0
    4.6495    8.6369   22.1552 H   0  0  0  0  0  0  0  0  0  0  0  0
    4.2435   10.1639   22.7964 H   0  0  0  0  0  0  0  0  0  0  0  0
  1  2  1  0  0  0
  1  6  2  0  0  0
  1 19  1  0  0  0
  2  3  2  0  0  0
  3  4  1  0  0  0
  4  5  2  0  0  0
  4  7  1  0  0  0
  5  6  1  0  0  0
  5  8  1  0  0  0
 19 20  1  0  0  0
 19 21  2  0  0  0
  7  9  1  0  0  0
  8  9  2  0  0  0
  9 11  1  0  0  0
 11 12  2  0  0  0
 11 16  1  0  0  0
 12 13  1  0  0  0
 13 14  2  0  0  0
 14 15  1  0  0  0
 15 16  1  0  0  0
 16 17  2  0  0  0
 20 22  1  0  0  0
 20 23  1  0  0  0
 21 24  1  0  0  0
 21 25  1  0  0  0
  7 10  1  0  0  0
 15 18  1  0  0  0
M  CHG 1  21   1
M  END
> <minimizedAffinity>
-7.01494

$$$$
1GI7_120_B_246


 25 27  0  0  0  0  0  0  0  0999 V2000
    8.3040    5.1129   25.6700 C   0  0  0  0  0  0  0  0  0  0  0  0
    7.9995    4.5451   24.4065 C   0  0  0  0  0  0  0  0  0  0  0  0
    8.6643    4.9256   23.2448 C   0  0  0  0  0  0  0  0  0  0  0  0
    9.6403    5.8855   23.3513 C   0  0  0  0  0  0  0  0  0  0  0  0
    9.9714    6.4599   24.5165 C   0  0  0  0  0  0  0  0  0  0  0  0
    9.3227    6.0991   25.6916 C   0  0  0  0  0  0  0  0  0  0  0  0
   10.4171    6.4247   22.4805 N   0  0  0  0  0  0  0  0  0  0  0  0
   10.9333    7.3464   24.3992 N   0  0  0  0  0  0  0  0  0  0  0  0
   11.1821    7.2892   23.0954 C   0  0  0  0  0  0  0  0  0  0  0  0
   10.4333    6.2221   21.5173 H   0  0  0  0  0  0  0  0  0  0  0  0
   12.1311    8.0904   22.4465 C   0  0  0  0  0  0  0  0  0  0  0  0
   11.8421    9.4211   22.1824 C   0  0  0  0  0  0  0  0  0  0  0  0
   12.7669   10.2169   21.5469 C   0  0  0  0  0  0  0  0  0  0  0  0
   13.9902    9.6919   21.1681 C   0  0  0  0  0  0  0  0  0  0  0  0
   14.2649    8.4258   21.4180 N   0  0  0  0  0  0  0  0  0  0  0  0
   13.4086    7.6157   22.0262 C   0  0  0  0  0  0  0  0  0  0  0  0
   13.7124    6.4551   22.2139 O   0  0  0  0  0  0  0  0  0  0  0  0
   15.1398    8.0684   21.1422 H   0  0  0  0  0  0  0  0  0  0  0  0
    7.6294    4.7111   26.8398 C   0  0  0  0  0  0  0  0  0  0  0  0
    6.6589    5.4525   27.3167 N   0  0  0  0  0  0  0  0  0  0  0  0
    7.9737    3.6036   27.4479 N   0  0  0  0  0  0  0  0  0  0  0  0
    6.4032    6.2843   26.8565 H   0  0  0  0  0  0  0  0  0  0  0  0
    6.1859    5.1773   28.1351 H   0  0  0  0  0  0  0  0  0  0  0  0
    8.7030    3.0498   27.0865 H   0  0  0  0  0  0  0  0  0  0  0  0
    7.5032    3.3248   28.2666 H   0  0  0  0  0  0  0  0  0  0  0  0
  1  2  1  0  0  0
  1  6  2  0  0  0
  1 19  1  0  0  0
  2  3  2  0  0  0
  3  4  1  0  0  0
  4  5  2  0  0  0
  4  7  1  0  0  0
  5  6  1  0  0  0
  5  8  1  0  0  0
 19 20  1  0  0  0
 19 21  2  0  0  0
  7  9  1  0  0  0
  8  9  2  0  0  0
  9 11  1  0  0  0
 11 12  2  0  0  0
 11 16  1  0  0  0
 12 13  1  0  0  0
 13 14  2  0  0  0
 14 15  1  0  0  0
 15 16  1  0  0  0
 16 17  2  0  0  0
 20 22  1  0  0  0
 20 23  1  0  0  0
 21 24  1  0  0  0
 21 25  1  0  0  0
  7 10  1  0  0  0
 15 18  1  0  0  0
M  CHG 1  21   1
M  END
> <minimizedAffinity>
-6.86611

$$$$
1GI7_120_B_246


 25 27  0  0  0  0  0  0  0  0999 V2000
    9.0438    2.1979   25.2074 C   0  0  0  0  0  0  0  0  0  0  0  0
    9.1632    2.9081   26.4292 C   0  0  0  0  0  0  0  0  0  0  0  0
    8.9938    4.2873   26.5030 C   0  0  0  0  0  0  0  0  0  0  0  0
    8.7050    4.9595   25.3410 C   0  0  0  0  0  0  0  0  0  0  0  0
    8.5816    4.3443   24.1563 C   0  0  0  0  0  0  0  0  0  0  0  0
    8.7466    2.9680   24.0543 C   0  0  0  0  0  0  0  0  0  0  0  0
    8.4891    6.2027   25.0958 N   0  0  0  0  0  0  0  0  0  0  0  0
    8.2962    5.1687   23.1746 N   0  0  0  0  0  0  0  0  0  0  0  0
    8.2480    6.3308   23.8167 C   0  0  0  0  0  0  0  0  0  0  0  0
    8.5029    6.9324   25.7566 H   0  0  0  0  0  0  0  0  0  0  0  0
    8.0029    7.5594   23.1889 C   0  0  0  0  0  0  0  0  0  0  0  0
    8.9295    8.0699   22.2917 C   0  0  0  0  0  0  0  0  0  0  0  0
    8.6984    9.2745   21.6689 C   0  0  0  0  0  0  0  0  0  0  0  0
    7.5393    9.9821   21.9357 C   0  0  0  0  0  0  0  0  0  0  0  0
    6.6582    9.4975   22.7899 N   0  0  0  0  0  0  0  0  0  0  0  0
    6.8331    8.3424   23.4181 C   0  0  0  0  0  0  0  0  0  0  0  0
    5.9938    7.9563   24.2060 O   0  0  0  0  0  0  0  0  0  0  0  0
    5.8389   10.0135   22.9680 H   0  0  0  0  0  0  0  0  0  0  0  0
    9.2084    0.8000   25.1490 C   0  0  0  0  0  0  0  0  0  0  0  0
    8.8403    0.0598   26.1666 N   0  0  0  0  0  0  0  0  0  0  0  0
    9.7296    0.2448   24.0836 N   0  0  0  0  0  0  0  0  0  0  0  0
    8.4488    0.4811   26.9657 H   0  0  0  0  0  0  0  0  0  0  0  0
    8.9553   -0.9174   26.1317 H   0  0  0  0  0  0  0  0  0  0  0  0
   10.0048    0.8042   23.3216 H   0  0  0  0  0  0  0  0  0  0  0  0
    9.8464   -0.7320   24.0446 H   0  0  0  0  0  0  0  0  0  0  0  0
  1  2  1  0  0  0
  1  6  2  0  0  0
  1 19  1  0  0  0
  2  3  2  0  0  0
  3  4  1  0  0  0
  4  5  2  0  0  0
  4  7  1  0  0  0
  5  6  1  0  0  0
  5  8  1  0  0  0
 19 20  1  0  0  0
 19 21  2  0  0  0
  7  9  1  0  0  0
  8  9  2  0  0  0
  9 11  1  0  0  0
 11 12  2  0  0  0
 11 16  1  0  0  0
 12 13  1  0  0  0
 13 14  2  0  0  0
 14 15  1  0  0  0
 15 16  1  0  0  0
 16 17  2  0  0  0
 20 22  1  0  0  0
 20 23  1  0  0  0
 21 24  1  0  0  0
 21 25  1  0  0  0
  7 10  1  0  0  0
 15 18  1  0  0  0
M  CHG 1  21   1
M  END
> <minimizedAffinity>
-6.82798

$$$$
1GI7_120_B_246


 25 27  0  0  0  0  0  0  0  0999 V2000
    6.7986    6.1316   23.6802 C   0  0  0  0  0  0  0  0  0  0  0  0
    7.5443    4.9483   23.9158 C   0  0  0  0  0  0  0  0  0  0  0  0
    8.9225    4.8934   23.7320 C   0  0  0  0  0  0  0  0  0  0  0  0
    9.5571    6.0339   23.3057 C   0  0  0  0  0  0  0  0  0  0  0  0
    8.9068    7.1813   23.0646 C   0  0  0  0  0  0  0  0  0  0  0  0
    7.5303    7.2634   23.2392 C   0  0  0  0  0  0  0  0  0  0  0  0
   10.7922    6.2923   23.0605 N   0  0  0  0  0  0  0  0  0  0  0  0
    9.7008    8.1513   22.6728 N   0  0  0  0  0  0  0  0  0  0  0  0
   10.8814    7.5421   22.6855 C   0  0  0  0  0  0  0  0  0  0  0  0
   11.5415    5.6589   23.1412 H   0  0  0  0  0  0  0  0  0  0  0  0
   12.0811    8.1581   22.3050 C   0  0  0  0  0  0  0  0  0  0  0  0
   12.0846    9.5012   21.9585 C   0  0  0  0  0  0  0  0  0  0  0  0
   13.2569   10.1162   21.5846 C   0  0  0  0  0  0  0  0  0  0  0  0
   14.4384    9.3960   21.5526 C   0  0  0  0  0  0  0  0  0  0  0  0
   14.4353    8.1181   21.8809 N   0  0  0  0  0  0  0  0  0  0  0  0
   13.3331    7.4774   22.2470 C   0  0  0  0  0  0  0  0  0  0  0  0
   13.3906    6.2961   22.5220 O   0  0  0  0  0  0  0  0  0  0  0  0
   15.2844    7.6207   21.8531 H   0  0  0  0  0  0  0  0  0  0  0  0
    5.4047    6.1756   23.8797 C   0  0  0  0  0  0  0  0  0  0  0  0
    4.8472    5.3673   24.7485 N   0  0  0  0  0  0  0  0  0  0  0  0
    4.6707    7.0187   23.1973 N   0  0  0  0  0  0  0  0  0  0  0  0
    5.4026    4.7350   25.2594 H   0  0  0  0  0  0  0  0  0  0  0  0
    3.8733    5.3926   24.8899 H   0  0  0  0  0  0  0  0  0  0  0  0
    5.0932    7.6240   22.5459 H   0  0  0  0  0  0  0  0  0  0  0  0
    3.6964    7.0472   23.3358 H   0  0  0  0  0  0  0  0  0  0  0  0
  1  2  1  0  0  0
  1  6  2  0  0  0
  1 19  1  0  0  0
  2  3  2  0  0  0
  3  4  1  0  0  0
  4  5  2  0  0  0
  4  7  1  0  0  0
  5  6  1  0  0  0
  5  8  1  0  0  0
 19 20  1  0  0  0
 19 21  2  0  0  0
  7  9  1  0  0  0
  8  9  2  0  0  0
  9 11  1  0  0  0
 11 12  2  0  0  0
 11 16  1  0  0  0
 12 13  1  0  0  0
 13 14  2  0  0  0
 14 15  1  0  0  0
 15 16  1  0  0  0
 16 17  2  0  0  0
 20 22  1  0  0  0
 20 23  1  0  0  0
 21 24  1  0  0  0
 21 25  1  0  0  0
  7 10  1  0  0  0
 15 18  1  0  0  0
M  CHG 1  21   1
M  END
> <minimizedAffinity>
-6.81863

$$$$
1GI7_120_B_246


 25 27  0  0  0  0  0  0  0  0999 V2000
    9.2077    3.5745   25.1276 C   0  0  0  0  0  0  0  0  0  0  0  0
    8.7221    4.5465   26.0391 C   0  0  0  0  0  0  0  0  0  0  0  0
    9.0909    5.8859   25.9586 C   0  0  0  0  0  0  0  0  0  0  0  0
    9.9560    6.2522   24.9573 C   0  0  0  0  0  0  0  0  0  0  0  0
   10.4501    5.3795   24.0675 C   0  0  0  0  0  0  0  0  0  0  0  0
   10.0988    4.0359   24.1257 C   0  0  0  0  0  0  0  0  0  0  0  0
   10.4609    7.3874   24.6274 N   0  0  0  0  0  0  0  0  0  0  0  0
   11.2528    5.9367   23.1901 N   0  0  0  0  0  0  0  0  0  0  0  0
   11.2284    7.2053   23.5841 C   0  0  0  0  0  0  0  0  0  0  0  0
   10.2980    8.2455   25.0815 H   0  0  0  0  0  0  0  0  0  0  0  0
   11.9696    8.2261   22.9739 C   0  0  0  0  0  0  0  0  0  0  0  0
   13.3499    8.2486   23.1094 C   0  0  0  0  0  0  0  0  0  0  0  0
   14.0873    9.2454   22.5137 C   0  0  0  0  0  0  0  0  0  0  0  0
   13.4538   10.2305   21.7763 C   0  0  0  0  0  0  0  0  0  0  0  0
   12.1408   10.2102   21.6483 N   0  0  0  0  0  0  0  0  0  0  0  0
   11.3834    9.2732   22.2031 C   0  0  0  0  0  0  0  0  0  0  0  0
   10.1781    9.3170   22.0634 O   0  0  0  0  0  0  0  0  0  0  0  0
   11.7061   10.9183   21.1201 H   0  0  0  0  0  0  0  0  0  0  0  0
    8.8183    2.2234   25.2150 C   0  0  0  0  0  0  0  0  0  0  0  0
    8.1719    1.8012   26.2747 N   0  0  0  0  0  0  0  0  0  0  0  0
    9.1042    1.3941   24.2426 N   0  0  0  0  0  0  0  0  0  0  0  0
    7.9589    2.4279   27.0035 H   0  0  0  0  0  0  0  0  0  0  0  0
    7.8995    0.8575   26.3416 H   0  0  0  0  0  0  0  0  0  0  0  0
    9.5897    1.7151   23.4486 H   0  0  0  0  0  0  0  0  0  0  0  0
    8.8336    0.4496   24.3056 H   0  0  0  0  0  0  0  0  0  0  0  0
  1  2  1  0  0  0
  1  6  2  0  0  0
  1 19  1  0  0  0
  2  3  2  0  0  0
  3  4  1  0  0  0
  4  5  2  0  0  0
  4  7  1  0  0  0
  5  6  1  0  0  0
  5  8  1  0  0  0
 19 20  1  0  0  0
 19 21  2  0  0  0
  7  9  1  0  0  0
  8  9  2  0  0  0
  9 11  1  0  0  0
 11 12  2  0  0  0
 11 16  1  0  0  0
 12 13  1  0  0  0
 13 14  2  0  0  0
 14 15  1  0  0  0
 15 16  1  0  0  0
 16 17  2  0  0  0
 20 22  1  0  0  0
 20 23  1  0  0  0
 21 24  1  0  0  0
 21 25  1  0  0  0
  7 10  1  0  0  0
 15 18  1  0  0  0
M  CHG 1  21   1
M  END
> <minimizedAffinity>
-6.60898

$$$$
1GI7_120_B_246


 25 27  0  0  0  0  0  0  0  0999 V2000
    9.3305    2.2569   23.9834 C   0  0  0  0  0  0  0  0  0  0  0  0
    8.7999    1.5203   25.0732 C   0  0  0  0  0  0  0  0  0  0  0  0
    8.6000    2.0927   26.3257 C   0  0  0  0  0  0  0  0  0  0  0  0
    8.9378    3.4137   26.4867 C   0  0  0  0  0  0  0  0  0  0  0  0
    9.4447    4.1609   25.4958 C   0  0  0  0  0  0  0  0  0  0  0  0
    9.6553    3.6141   24.2354 C   0  0  0  0  0  0  0  0  0  0  0  0
    8.8626    4.2053   27.4968 N   0  0  0  0  0  0  0  0  0  0  0  0
    9.6914    5.3989   25.8580 N   0  0  0  0  0  0  0  0  0  0  0  0
    9.3077    5.3791   27.1299 C   0  0  0  0  0  0  0  0  0  0  0  0
    8.5278    3.9688   28.3919 H   0  0  0  0  0  0  0  0  0  0  0  0
    9.4032    6.4806   27.9908 C   0  0  0  0  0  0  0  0  0  0  0  0
    9.2080    7.7607   27.4935 C   0  0  0  0  0  0  0  0  0  0  0  0
    9.2983    8.8490   28.3300 C   0  0  0  0  0  0  0  0  0  0  0  0
    9.5848    8.6703   29.6722 C   0  0  0  0  0  0  0  0  0  0  0  0
    9.7718    7.4530   30.1453 N   0  0  0  0  0  0  0  0  0  0  0  0
    9.6975    6.3707   29.3820 C   0  0  0  0  0  0  0  0  0  0  0  0
    9.8958    5.2776   29.8720 O   0  0  0  0  0  0  0  0  0  0  0  0
    9.9745    7.3436   31.1025 H   0  0  0  0  0  0  0  0  0  0  0  0
    9.5186    1.6672   22.7179 C   0  0  0  0  0  0  0  0  0  0  0  0
    9.1088    0.4400   22.5061 N   0  0  0  0  0  0  0  0  0  0  0  0
   10.1031    2.3423   21.7600 N   0  0  0  0  0  0  0  0  0  0  0  0
    8.6698   -0.0641   23.2289 H   0  0  0  0  0  0  0  0  0  0  0  0
    9.2399    0.0225   21.6241 H   0  0  0  0  0  0  0  0  0  0  0  0
   10.4094    3.2636   21.9232 H   0  0  0  0  0  0  0  0  0  0  0  0
   10.2361    1.9285   20.8766 H   0  0  0  0  0  0  0  0  0  0  0  0
  1  2  1  0  0  0
  1  6  2  0  0  0
  1 19  1  0  0  0
  2  3  2  0  0  0
  3  4  1  0  0  0
  4  5  2  0  0  0
  4  7  1  0  0  0
  5  6  1  0  0  0
  5  8  1  0  0  0
 19 20  1  0  0  0
 19 21  2  0  0  0
  7  9  1  0  0  0
  8  9  2  0  0  0
  9 11  1  0  0  0
 11 12  2  0  0  0
 11 16  1  0  0  0
 12 13  1  0  0  0
 13 14  2  0  0  0
 14 15  1  0  0  0
 15 16  1  0  0  0
 16 17  2  0  0  0
 20 22  1  0  0  0
 20 23  1  0  0  0
 21 24  1  0  0  0
 21 25  1  0  0  0
  7 10  1  0  0  0
 15 18  1  0  0  0
M  CHG 1  21   1
M  END
> <minimizedAffinity>
-6.49448

$$$$
