1GI7_120_B_246
  RCSB PDB12061702363D
Coordinates from PDB:1GI7:B:246 Model:1 without hydrogens
 19 21  0  0  0  0            999 V2000
    8.9630    0.7940   25.0180   C 0  0  0  0  0  0  0  0  0  0  0  0
    9.5610    1.0090   23.7500   C 0  0  0  0  0  0  0  0  0  0  0  0
    9.9900    2.2670   23.3380   C 0  0  0  0  0  0  0  0  0  0  0  0
    9.8150    3.3180   24.2040   C 0  0  0  0  0  0  0  0  0  0  0  0
    9.2550    3.1780   25.4140   C 0  0  0  0  0  0  0  0  0  0  0  0
    8.8170    1.9330   25.8500   C 0  0  0  0  0  0  0  0  0  0  0  0
    8.5420   -0.4870   25.4260   C 0  0  0  0  0  0  0  0  0  0  0  0
    7.8380   -0.6200   26.5240   N 0  0  0  0  0  0  0  0  0  0  0  0
    8.8560   -1.5390   24.7120   N 0  3  0  0  0  0  0  0  0  0  0  0
   10.1100    4.5660   24.1150   N 0  0  0  0  0  0  0  0  0  0  0  0
    9.1890    4.3050   26.0850   N 0  0  0  0  0  0  0  0  0  0  0  0
    9.7410    5.1530   25.2240   C 0  0  0  0  0  0  0  0  0  0  0  0
    9.8790    6.5270   25.4620   C 0  0  0  0  0  0  0  0  0  0  0  0
    9.6770    7.0270   26.7400   C 0  0  0  0  0  0  0  0  0  0  0  0
    9.8110    8.3740   26.9850   C 0  0  0  0  0  0  0  0  0  0  0  0
   10.1480    9.2360   25.9560   C 0  0  0  0  0  0  0  0  0  0  0  0
   10.3390    8.7610   24.7400   N 0  0  0  0  0  0  0  0  0  0  0  0
   10.2210    7.4720   24.4500   C 0  0  0  0  0  0  0  0  0  0  0  0
   10.3930    7.0970   23.3080   O 0  0  0  0  0  0  0  0  0  0  0  0
  1  2  1  0  0  0  0
  1  6  2  0  0  0  0
  1  7  1  0  0  0  0
  2  3  2  0  0  0  0
  3  4  1  0  0  0  0
  4  5  2  0  0  0  0
  4 10  1  0  0  0  0
  5  6  1  0  0  0  0
  5 11  1  0  0  0  0
  7  8  1  0  0  0  0
  7  9  2  0  0  0  0
 10 12  1  0  0  0  0
 11 12  2  0  0  0  0
 12 13  1  0  0  0  0
 13 14  2  0  0  0  0
 13 18  1  0  0  0  0
 14 15  1  0  0  0  0
 15 16  2  0  0  0  0
 16 17  1  0  0  0  0
 17 18  1  0  0  0  0
 18 19  2  0  0  0  0
M  CHG  1   9   1
A    1
C1
A    2
C2
A    3
C3
A    4
C4
A    5
C5
A    6
C6
A    7
C7
A    8
N1
A    9
N2
A   10
N3
A   11
N4
A   12
C8
A   13
C1'
A   14
C2'
A   15
C3'
A   16
C4'
A   17
N5'
A   18
C6'
A   19
O6'
M  END
>  <InstanceId>
1GI7_120_B_246

>  <ChemCompId>
120

>  <PdbId>
1GI7

>  <ChainId>
B

>  <ResidueNumber>
246

>  <InsertionCode>


>  <Model>
1

>  <AltIds>


>  <MissingHeavyAtoms>
0

>  <ObservedFormula>
C13 N5 O

>  <Name>
2-(2-OXO-1,2-DIHYDRO-PYRIDIN-3-YL)-1H-BENZOIMIDAZOLE-5-CARBOXAMIDINE

>  <SystematicName>
[amino-[2-(2-oxo-1H-pyridin-3-yl)-1H-benzimidazol-5-yl]methylidene]azanium

>  <Synonyms>


>  <Type>
NON-POLYMER

>  <Formula>
C13 H12 N5 O

>  <MolecularWeight>
254.267

>  <ModifiedDate>
2011-06-04

>  <Parent>


>  <OneLetterCode>


>  <SubcomponentList>


>  <AmbiguousFlag>
N

>  <InChI>
InChI=1S/C13H11N5O/c14-11(15)7-3-4-9-10(6-7)18-12(17-9)8-2-1-5-16-13(8)19/h1-6H,(H3,14,15)(H,16,19)(H,17,18)/p+1

>  <InChIKey>
PUOKYJMONGPAIM-UHFFFAOYSA-O

>  <SMILES>
c1cc2c(cc1C(=[NH2+])N)nc([nH]2)C3=CC=CNC3=O

$$$$
