5NAP_DZ7_A_611
  RCSB PDB05121802163D
Coordinates from PDB:5NAP:A:611 Model:1 without hydrogens
 28 31  0  0  0  0            999 V2000
  167.2470   26.8000  183.8860   O 0  0  0  0  0  0  0  0  0  0  0  0
  167.1890   28.0300  184.0320   C 0  0  0  0  0  0  0  0  0  0  0  0
  166.1980   28.7380  184.6740   C 0  0  0  0  0  0  0  0  0  0  0  0
  165.1080   28.2450  185.2680   C 0  0  0  0  0  0  0  0  0  0  0  0
  164.1810   29.0810  185.8780   C 0  0  0  0  0  0  0  0  0  0  0  0
  163.0100   28.7200  186.5230   O 0  0  0  0  0  0  0  0  0  0  0  0
  162.5790   27.3420  186.3880   C 0  0  0  0  0  0  0  0  0  0  0  0
  164.4660   30.4120  185.8730   C 0  0  0  0  0  0  0  0  0  0  0  0
  163.4770   31.0830  186.4780   O 0  0  0  0  0  0  0  0  0  0  0  0
  163.6510   32.5040  186.5190   C 0  0  0  0  0  0  0  0  0  0  0  0
  165.6400   30.9100  185.2170   C 0  0  0  0  0  0  0  0  0  0  0  0
  166.4990   30.0710  184.5980   C 0  0  0  0  0  0  0  0  0  0  0  0
  167.7090   30.1910  183.9360   C 0  0  0  0  0  0  0  0  0  0  0  0
  168.1240   28.8920  183.5930   C 0  0  0  0  0  0  0  0  0  0  0  0
  169.2800   28.5480  182.9430   C 0  0  0  0  0  0  0  0  0  0  0  0
  170.4850   29.3000  182.3290   C 0  0  0  0  0  0  0  0  0  0  0  0
  170.5700   28.8190  180.8560   C 0  0  0  0  0  0  0  0  0  0  0  0
  171.8650   29.2160  180.2700   C 0  0  0  0  0  0  0  0  0  0  0  0
  170.4940   30.7760  182.4070   C 0  0  0  0  0  0  0  0  0  0  0  0
  171.8230   31.1850  181.7310   C 0  0  0  0  0  0  0  0  0  0  0  0
  171.9240   30.7020  180.3100   N 0  0  0  0  0  0  0  0  0  0  0  0
  173.1110   31.2850  179.5820   C 0  0  0  0  0  0  0  0  0  0  0  0
  173.1090   30.9590  178.1690   C 0  0  0  0  0  0  0  0  0  0  0  0
  172.2730   31.7050  177.3020   C 0  0  0  0  0  0  0  0  0  0  0  0
  172.1920   31.4350  175.9260   C 0  0  0  0  0  0  0  0  0  0  0  0
  172.9510   30.3760  175.4230   C 0  0  0  0  0  0  0  0  0  0  0  0
  173.8060   29.6560  176.2800   C 0  0  0  0  0  0  0  0  0  0  0  0
  173.8900   29.9310  177.6460   C 0  0  0  0  0  0  0  0  0  0  0  0
 26 25  2  0  0  0  0
 26 27  1  0  0  0  0
 25 24  1  0  0  0  0
 27 28  2  0  0  0  0
 24 23  2  0  0  0  0
 28 23  1  0  0  0  0
 23 22  1  0  0  0  0
 22 21  1  0  0  0  0
 18 21  1  0  0  0  0
 18 17  1  0  0  0  0
 21 20  1  0  0  0  0
 17 16  1  0  0  0  0
 20 19  1  0  0  0  0
 16 19  1  0  0  0  0
 16 15  1  0  0  0  0
 15 14  2  0  0  0  0
 14 13  1  0  0  0  0
 14  2  1  0  0  0  0
  1  2  2  0  0  0  0
 13 12  1  0  0  0  0
  2  3  1  0  0  0  0
 12  3  2  0  0  0  0
 12 11  1  0  0  0  0
  3  4  1  0  0  0  0
 11  8  2  0  0  0  0
  4  5  2  0  0  0  0
  8  5  1  0  0  0  0
  8  9  1  0  0  0  0
  5  6  1  0  0  0  0
  7  6  1  0  0  0  0
  9 10  1  0  0  0  0
A    1
OAC
A    2
CAU
A    3
CAZ
A    4
CAK
A    5
CAY
A    6
OAS
A    7
CAB
A    8
CAX
A    9
OAR
A   10
CAA
A   11
CAJ
A   12
CAW
A   13
CAP
A   14
CAT
A   15
CAD
A   16
CBA
A   17
CAM
A   18
CAO
A   19
CAL
A   20
CAN
A   21
NBB
A   22
CAQ
A   23
CAV
A   24
CAH
A   25
CAF
A   26
CAE
A   27
CAG
A   28
CAI
M  END
>  <InstanceId>
5NAP_DZ7_A_611

>  <ChemCompId>
DZ7

>  <PdbId>
5NAP

>  <ChainId>
A

>  <ResidueNumber>
611

>  <InsertionCode>


>  <Model>
1

>  <AltIds>


>  <MissingHeavyAtoms>
0

>  <ObservedFormula>
C24 N O3

>  <Name>
(2~{E})-5,6-dimethoxy-2-[[1-(phenylmethyl)piperidin-4-yl]methylidene]-3~{H}-inden-1-one

>  <SystematicName>
(2~{E})-5,6-dimethoxy-2-[[1-(phenylmethyl)piperidin-4-yl]methylidene]-3~{H}-inden-1-one

>  <Synonyms>


>  <Type>
NON-POLYMER

>  <Formula>
C24 H27 N O3

>  <MolecularWeight>
377.476

>  <ModifiedDate>
2018-04-27

>  <Parent>


>  <OneLetterCode>


>  <SubcomponentList>


>  <AmbiguousFlag>
N

>  <InChI>
InChI=1S/C24H27NO3/c1-27-22-14-19-13-20(24(26)21(19)15-23(22)28-2)12-17-8-10-25(11-9-17)16-18-6-4-3-5-7-18/h3-7,12,14-15,17H,8-11,13,16H2,1-2H3/b20-12+

>  <InChIKey>
LPMOTUSFDTTWJL-UDWIEESQSA-N

>  <SMILES>
COc1cc2c(cc1OC)C(=O)/C(=C/C3CCN(CC3)Cc4ccccc4)/C2

$$$$
