3NEO_G24_A_1


 30 32  0  0  0  0  0  0  0  0999 V2000
   21.6153    0.7631  -24.8689 C   0  0  0  0  0  0  0  0  0  0  0  0
   22.0853    0.2066  -26.0201 C   0  0  0  0  0  0  0  0  0  0  0  0
   20.5208    1.6397  -24.9457 C   0  0  0  0  0  0  0  0  0  0  0  0
   19.9991    2.2756  -23.8453 O   0  0  0  0  0  0  0  0  0  0  0  0
   19.9354    1.9023  -26.1895 C   0  0  0  0  0  0  0  0  0  0  0  0
   20.4320    1.3114  -27.3514 C   0  0  0  0  0  0  0  0  0  0  0  0
   21.5173    0.4622  -27.2271 C   0  0  0  0  0  0  0  0  0  0  0  0
   20.3672    2.1225  -22.9974 H   0  0  0  0  0  0  0  0  0  0  0  0
   22.4650    0.2990  -23.6887 C   0  0  0  0  0  0  0  0  0  0  0  0
   21.1700   -0.1501  -21.5261 C   0  0  0  0  0  0  0  0  0  0  0  0
   20.5167   -1.0730  -20.7074 C   0  0  0  0  0  0  0  0  0  0  0  0
   20.4325   -2.4155  -21.0698 C   0  0  0  0  0  0  0  0  0  0  0  0
   21.0115   -2.8304  -22.2691 C   0  0  0  0  0  0  0  0  0  0  0  0
   21.6772   -1.8510  -23.0806 C   0  0  0  0  0  0  0  0  0  0  0  0
   21.7555   -0.5931  -22.6990 C   0  0  0  0  0  0  0  0  0  0  0  0
   22.2057   -0.2802  -28.3151 C   0  0  0  0  0  0  0  0  0  0  0  0
   21.7925    0.1067  -29.6798 C   0  0  0  0  0  0  0  0  0  0  0  0
   20.9048   -0.7207  -30.3419 C   0  0  0  0  0  0  0  0  0  0  0  0
   20.3691   -1.9516  -29.6074 C   0  0  0  0  0  0  0  0  0  0  0  0
   20.5040   -0.4252  -31.6339 C   0  0  0  0  0  0  0  0  0  0  0  0
   22.3123    1.2309  -30.3019 C   0  0  0  0  0  0  0  0  0  0  0  0
   23.3059    2.1246  -29.5485 C   0  0  0  0  0  0  0  0  0  0  0  0
   21.9193    1.5351  -31.5936 C   0  0  0  0  0  0  0  0  0  0  0  0
   21.0178    0.7084  -32.2515 C   0  0  0  0  0  0  0  0  0  0  0  0
   20.6526    1.0300  -33.5156 O   0  0  0  0  0  0  0  0  0  0  0  0
   21.8378    1.2009  -34.2869 C   0  0  0  0  0  0  0  0  0  0  0  0
   22.5399   -0.1241  -34.5826 C   0  0  0  0  0  0  0  0  0  0  0  0
   23.7371   -0.2359  -34.2419 O   0  0  0  0  0  0  0  0  0  0  0  0
   21.8802   -1.0287  -35.1355 O   0  0  0  0  0  0  0  0  0  0  0  0
   24.1760    0.4823  -33.8300 H   0  0  0  0  0  0  0  0  0  0  0  0
 10 11  2  0  0  0
 10 15  1  0  0  0
 11 12  1  0  0  0
 12 13  2  0  0  0
 13 14  1  0  0  0
 14 15  2  0  0  0
 15  9  1  0  0  0
  9  1  1  0  0  0
  1  2  2  0  0  0
  1  3  1  0  0  0
  2  7  1  0  0  0
  3  4  1  0  0  0
  3  5  2  0  0  0
  5  6  1  0  0  0
  6  7  2  0  0  0
  7 16  1  0  0  0
 16 17  1  0  0  0
 17 18  2  0  0  0
 17 21  1  0  0  0
 18 19  1  0  0  0
 18 20  1  0  0  0
 20 24  2  0  0  0
 21 22  1  0  0  0
 21 23  2  0  0  0
 23 24  1  0  0  0
 24 25  1  0  0  0
 25 26  1  0  0  0
 26 27  1  0  0  0
 27 28  1  0  0  0
 27 29  2  0  0  0
  4  8  1  0  0  0
 28 30  1  0  0  0
M  END
> <minimizedAffinity>
-9.35170

$$$$
3NEO_G24_A_1


 30 32  0  0  0  0  0  0  0  0999 V2000
   21.7642    0.4237  -25.1110 C   0  0  0  0  0  0  0  0  0  0  0  0
   22.1808   -0.0687  -26.3110 C   0  0  0  0  0  0  0  0  0  0  0  0
   20.6999    1.3397  -25.0949 C   0  0  0  0  0  0  0  0  0  0  0  0
   20.2330    1.9166  -23.9387 O   0  0  0  0  0  0  0  0  0  0  0  0
   20.0886    1.7058  -26.2995 C   0  0  0  0  0  0  0  0  0  0  0  0
   20.5303    1.1790  -27.5133 C   0  0  0  0  0  0  0  0  0  0  0  0
   21.5877    0.2873  -27.4799 C   0  0  0  0  0  0  0  0  0  0  0  0
   20.6196    1.6939  -23.1148 H   0  0  0  0  0  0  0  0  0  0  0  0
   22.6305   -0.1478  -23.9915 C   0  0  0  0  0  0  0  0  0  0  0  0
   21.4922   -0.2631  -21.7010 C   0  0  0  0  0  0  0  0  0  0  0  0
   20.7692   -1.0172  -20.7750 C   0  0  0  0  0  0  0  0  0  0  0  0
   20.4156   -2.3367  -21.0484 C   0  0  0  0  0  0  0  0  0  0  0  0
   20.7938   -2.8999  -22.2671 C   0  0  0  0  0  0  0  0  0  0  0  0
   21.5396   -2.0923  -23.1904 C   0  0  0  0  0  0  0  0  0  0  0  0
   21.8744   -0.8542  -22.8924 C   0  0  0  0  0  0  0  0  0  0  0  0
   22.2177   -0.4021  -28.6360 C   0  0  0  0  0  0  0  0  0  0  0  0
   21.6385   -0.0530  -29.9496 C   0  0  0  0  0  0  0  0  0  0  0  0
   20.6941   -0.9092  -30.4843 C   0  0  0  0  0  0  0  0  0  0  0  0
   20.2722   -2.1316  -29.6660 C   0  0  0  0  0  0  0  0  0  0  0  0
   20.1376   -0.6495  -31.7253 C   0  0  0  0  0  0  0  0  0  0  0  0
   22.0599    1.0650  -30.6522 C   0  0  0  0  0  0  0  0  0  0  0  0
   23.1191    1.9914  -30.0408 C   0  0  0  0  0  0  0  0  0  0  0  0
   21.5111    1.3335  -31.8939 C   0  0  0  0  0  0  0  0  0  0  0  0
   20.5535    0.4779  -32.4228 C   0  0  0  0  0  0  0  0  0  0  0  0
   20.0352    0.7648  -33.6409 O   0  0  0  0  0  0  0  0  0  0  0  0
   19.8736   -0.4593  -34.3508 C   0  0  0  0  0  0  0  0  0  0  0  0
   18.5137   -0.5604  -35.0413 C   0  0  0  0  0  0  0  0  0  0  0  0
   17.7030    0.3747  -34.8676 O   0  0  0  0  0  0  0  0  0  0  0  0
   18.2880   -1.5622  -35.7517 O   0  0  0  0  0  0  0  0  0  0  0  0
   17.9342    1.0997  -34.3210 H   0  0  0  0  0  0  0  0  0  0  0  0
 10 11  2  0  0  0
 10 15  1  0  0  0
 11 12  1  0  0  0
 12 13  2  0  0  0
 13 14  1  0  0  0
 14 15  2  0  0  0
 15  9  1  0  0  0
  9  1  1  0  0  0
  1  2  2  0  0  0
  1  3  1  0  0  0
  2  7  1  0  0  0
  3  4  1  0  0  0
  3  5  2  0  0  0
  5  6  1  0  0  0
  6  7  2  0  0  0
  7 16  1  0  0  0
 16 17  1  0  0  0
 17 18  2  0  0  0
 17 21  1  0  0  0
 18 19  1  0  0  0
 18 20  1  0  0  0
 20 24  2  0  0  0
 21 22  1  0  0  0
 21 23  2  0  0  0
 23 24  1  0  0  0
 24 25  1  0  0  0
 25 26  1  0  0  0
 26 27  1  0  0  0
 27 28  1  0  0  0
 27 29  2  0  0  0
  4  8  1  0  0  0
 28 30  1  0  0  0
M  END
> <minimizedAffinity>
-9.33627

$$$$
3NEO_G24_A_1


 30 32  0  0  0  0  0  0  0  0999 V2000
   21.1703   -0.7506  -24.8665 C   0  0  0  0  0  0  0  0  0  0  0  0
   20.6879   -0.2256  -26.0274 C   0  0  0  0  0  0  0  0  0  0  0  0
   22.2787   -1.6107  -24.9289 C   0  0  0  0  0  0  0  0  0  0  0  0
   22.8139   -2.2153  -23.8173 O   0  0  0  0  0  0  0  0  0  0  0  0
   22.8646   -1.8893  -26.1689 C   0  0  0  0  0  0  0  0  0  0  0  0
   22.3550   -1.3307  -27.3411 C   0  0  0  0  0  0  0  0  0  0  0  0
   21.2565   -0.4968  -27.2308 C   0  0  0  0  0  0  0  0  0  0  0  0
   22.4458   -2.0507  -22.9715 H   0  0  0  0  0  0  0  0  0  0  0  0
   20.3166   -0.2761  -23.6933 C   0  0  0  0  0  0  0  0  0  0  0  0
   21.5390    0.1438  -21.4831 C   0  0  0  0  0  0  0  0  0  0  0  0
   22.2086    1.0448  -20.6533 C   0  0  0  0  0  0  0  0  0  0  0  0
   22.3876    2.3720  -21.0368 C   0  0  0  0  0  0  0  0  0  0  0  0
   21.8875    2.7937  -22.2688 C   0  0  0  0  0  0  0  0  0  0  0  0
   21.2018    1.8373  -23.0909 C   0  0  0  0  0  0  0  0  0  0  0  0
   21.0329    0.5946  -22.6896 C   0  0  0  0  0  0  0  0  0  0  0  0
   20.5528    0.2117  -28.3315 C   0  0  0  0  0  0  0  0  0  0  0  0
   20.9470   -0.2175  -29.6891 C   0  0  0  0  0  0  0  0  0  0  0  0
   21.8350    0.5821  -30.3842 C   0  0  0  0  0  0  0  0  0  0  0  0
   22.3906    1.8280  -29.6906 C   0  0  0  0  0  0  0  0  0  0  0  0
   22.2183    0.2464  -31.6716 C   0  0  0  0  0  0  0  0  0  0  0  0
   20.4095   -1.3536  -30.2735 C   0  0  0  0  0  0  0  0  0  0  0  0
   19.4160   -2.2160  -29.4842 C   0  0  0  0  0  0  0  0  0  0  0  0
   20.7849   -1.6979  -31.5603 C   0  0  0  0  0  0  0  0  0  0  0  0
   21.6868   -0.8990  -32.2512 C   0  0  0  0  0  0  0  0  0  0  0  0
   22.0346   -1.2597  -33.5096 O   0  0  0  0  0  0  0  0  0  0  0  0
   20.8439   -1.3595  -34.2847 C   0  0  0  0  0  0  0  0  0  0  0  0
   20.2955    0.0073  -34.6939 C   0  0  0  0  0  0  0  0  0  0  0  0
   21.0009    0.7153  -35.4443 O   0  0  0  0  0  0  0  0  0  0  0  0
   19.1692    0.3400  -34.2698 O   0  0  0  0  0  0  0  0  0  0  0  0
   21.8390    0.4068  -35.7278 H   0  0  0  0  0  0  0  0  0  0  0  0
 10 11  2  0  0  0
 10 15  1  0  0  0
 11 12  1  0  0  0
 12 13  2  0  0  0
 13 14  1  0  0  0
 14 15  2  0  0  0
 15  9  1  0  0  0
  9  1  1  0  0  0
  1  2  2  0  0  0
  1  3  1  0  0  0
  2  7  1  0  0  0
  3  4  1  0  0  0
  3  5  2  0  0  0
  5  6  1  0  0  0
  6  7  2  0  0  0
  7 16  1  0  0  0
 16 17  1  0  0  0
 17 18  2  0  0  0
 17 21  1  0  0  0
 18 19  1  0  0  0
 18 20  1  0  0  0
 20 24  2  0  0  0
 21 22  1  0  0  0
 21 23  2  0  0  0
 23 24  1  0  0  0
 24 25  1  0  0  0
 25 26  1  0  0  0
 26 27  1  0  0  0
 27 28  1  0  0  0
 27 29  2  0  0  0
  4  8  1  0  0  0
 28 30  1  0  0  0
M  END
> <minimizedAffinity>
-9.32604

$$$$
3NEO_G24_A_1


 30 32  0  0  0  0  0  0  0  0999 V2000
   21.0819   -0.6849  -24.9675 C   0  0  0  0  0  0  0  0  0  0  0  0
   20.5756   -0.2026  -26.1367 C   0  0  0  0  0  0  0  0  0  0  0  0
   22.2157   -1.5120  -25.0182 C   0  0  0  0  0  0  0  0  0  0  0  0
   22.7770   -2.0735  -23.8969 O   0  0  0  0  0  0  0  0  0  0  0  0
   22.8012   -1.8020  -26.2558 C   0  0  0  0  0  0  0  0  0  0  0  0
   22.2665   -1.2872  -27.4369 C   0  0  0  0  0  0  0  0  0  0  0  0
   21.1437   -0.4848  -27.3377 C   0  0  0  0  0  0  0  0  0  0  0  0
   22.4100   -1.9001  -23.0524 H   0  0  0  0  0  0  0  0  0  0  0  0
   20.2223   -0.2090  -23.7993 C   0  0  0  0  0  0  0  0  0  0  0  0
   21.3635    0.1461  -21.5349 C   0  0  0  0  0  0  0  0  0  0  0  0
   22.0512    1.0073  -20.6780 C   0  0  0  0  0  0  0  0  0  0  0  0
   22.3356    2.3169  -21.0584 C   0  0  0  0  0  0  0  0  0  0  0  0
   21.9235    2.7613  -22.3147 C   0  0  0  0  0  0  0  0  0  0  0  0
   21.2159    1.8459  -23.1645 C   0  0  0  0  0  0  0  0  0  0  0  0
   20.9463    0.6201  -22.7663 C   0  0  0  0  0  0  0  0  0  0  0  0
   20.4110    0.1755  -28.4493 C   0  0  0  0  0  0  0  0  0  0  0  0
   21.0111   -0.0236  -29.7845 C   0  0  0  0  0  0  0  0  0  0  0  0
   20.6104   -1.1289  -30.5117 C   0  0  0  0  0  0  0  0  0  0  0  0
   19.5398   -2.0451  -29.9146 C   0  0  0  0  0  0  0  0  0  0  0  0
   21.1596   -1.3836  -31.7569 C   0  0  0  0  0  0  0  0  0  0  0  0
   21.9817    0.8346  -30.2770 C   0  0  0  0  0  0  0  0  0  0  0  0
   22.4174    2.0467  -29.4433 C   0  0  0  0  0  0  0  0  0  0  0  0
   22.5382    0.5890  -31.5200 C   0  0  0  0  0  0  0  0  0  0  0  0
   22.1243   -0.5156  -32.2533 C   0  0  0  0  0  0  0  0  0  0  0  0
   22.6877   -0.7320  -33.4660 O   0  0  0  0  0  0  0  0  0  0  0  0
   22.9456    0.5345  -34.0646 C   0  0  0  0  0  0  0  0  0  0  0  0
   24.2155    0.5321  -34.9151 C   0  0  0  0  0  0  0  0  0  0  0  0
   24.3742    1.4708  -35.7248 O   0  0  0  0  0  0  0  0  0  0  0  0
   25.0330   -0.3970  -34.7487 O   0  0  0  0  0  0  0  0  0  0  0  0
   23.7214    2.1386  -35.8017 H   0  0  0  0  0  0  0  0  0  0  0  0
 10 11  2  0  0  0
 10 15  1  0  0  0
 11 12  1  0  0  0
 12 13  2  0  0  0
 13 14  1  0  0  0
 14 15  2  0  0  0
 15  9  1  0  0  0
  9  1  1  0  0  0
  1  2  2  0  0  0
  1  3  1  0  0  0
  2  7  1  0  0  0
  3  4  1  0  0  0
  3  5  2  0  0  0
  5  6  1  0  0  0
  6  7  2  0  0  0
  7 16  1  0  0  0
 16 17  1  0  0  0
 17 18  2  0  0  0
 17 21  1  0  0  0
 18 19  1  0  0  0
 18 20  1  0  0  0
 20 24  2  0  0  0
 21 22  1  0  0  0
 21 23  2  0  0  0
 23 24  1  0  0  0
 24 25  1  0  0  0
 25 26  1  0  0  0
 26 27  1  0  0  0
 27 28  1  0  0  0
 27 29  2  0  0  0
  4  8  1  0  0  0
 28 30  1  0  0  0
M  END
> <minimizedAffinity>
-9.31457

$$$$
3NEO_G24_A_1


 30 32  0  0  0  0  0  0  0  0999 V2000
   21.1610   -0.7443  -24.8227 C   0  0  0  0  0  0  0  0  0  0  0  0
   20.6263   -0.1781  -25.9406 C   0  0  0  0  0  0  0  0  0  0  0  0
   22.2753   -1.5871  -24.9651 C   0  0  0  0  0  0  0  0  0  0  0  0
   22.8617   -2.2300  -23.9020 O   0  0  0  0  0  0  0  0  0  0  0  0
   22.8135   -1.8071  -26.2382 C   0  0  0  0  0  0  0  0  0  0  0  0
   22.2507   -1.2073  -27.3648 C   0  0  0  0  0  0  0  0  0  0  0  0
   21.1485   -0.3925  -27.1759 C   0  0  0  0  0  0  0  0  0  0  0  0
   22.5265   -2.1050  -23.0360 H   0  0  0  0  0  0  0  0  0  0  0  0
   20.3505   -0.3291  -23.5976 C   0  0  0  0  0  0  0  0  0  0  0  0
   21.5924    0.1489  -21.4102 C   0  0  0  0  0  0  0  0  0  0  0  0
   22.2683    1.0718  -20.6101 C   0  0  0  0  0  0  0  0  0  0  0  0
   22.4418    2.3890  -21.0292 C   0  0  0  0  0  0  0  0  0  0  0  0
   21.9299    2.7782  -22.2669 C   0  0  0  0  0  0  0  0  0  0  0  0
   21.2381    1.8001  -23.0579 C   0  0  0  0  0  0  0  0  0  0  0  0
   21.0747    0.5679  -22.6232 C   0  0  0  0  0  0  0  0  0  0  0  0
   20.3931    0.3517  -28.2172 C   0  0  0  0  0  0  0  0  0  0  0  0
   20.7413   -0.0115  -29.6063 C   0  0  0  0  0  0  0  0  0  0  0  0
   20.1076   -1.1067  -30.1630 C   0  0  0  0  0  0  0  0  0  0  0  0
   19.0545   -1.8408  -29.3299 C   0  0  0  0  0  0  0  0  0  0  0  0
   20.4145   -1.5125  -31.4507 C   0  0  0  0  0  0  0  0  0  0  0  0
   21.7071    0.6847  -30.3159 C   0  0  0  0  0  0  0  0  0  0  0  0
   22.4042    1.8887  -29.6690 C   0  0  0  0  0  0  0  0  0  0  0  0
   22.0225    0.2871  -31.6034 C   0  0  0  0  0  0  0  0  0  0  0  0
   21.3750   -0.8062  -32.1643 C   0  0  0  0  0  0  0  0  0  0  0  0
   21.7052   -1.1735  -33.4255 O   0  0  0  0  0  0  0  0  0  0  0  0
   20.4999   -1.3427  -34.1653 C   0  0  0  0  0  0  0  0  0  0  0  0
   19.8646   -0.0104  -34.5621 C   0  0  0  0  0  0  0  0  0  0  0  0
   18.6657    0.1740  -34.2612 O   0  0  0  0  0  0  0  0  0  0  0  0
   20.5770    0.8280  -35.1527 O   0  0  0  0  0  0  0  0  0  0  0  0
   18.1856   -0.4970  -33.8171 H   0  0  0  0  0  0  0  0  0  0  0  0
 10 11  2  0  0  0
 10 15  1  0  0  0
 11 12  1  0  0  0
 12 13  2  0  0  0
 13 14  1  0  0  0
 14 15  2  0  0  0
 15  9  1  0  0  0
  9  1  1  0  0  0
  1  2  2  0  0  0
  1  3  1  0  0  0
  2  7  1  0  0  0
  3  4  1  0  0  0
  3  5  2  0  0  0
  5  6  1  0  0  0
  6  7  2  0  0  0
  7 16  1  0  0  0
 16 17  1  0  0  0
 17 18  2  0  0  0
 17 21  1  0  0  0
 18 19  1  0  0  0
 18 20  1  0  0  0
 20 24  2  0  0  0
 21 22  1  0  0  0
 21 23  2  0  0  0
 23 24  1  0  0  0
 24 25  1  0  0  0
 25 26  1  0  0  0
 26 27  1  0  0  0
 27 28  1  0  0  0
 27 29  2  0  0  0
  4  8  1  0  0  0
 28 30  1  0  0  0
M  END
> <minimizedAffinity>
-9.27134

$$$$
3NEO_G24_A_1


 30 32  0  0  0  0  0  0  0  0999 V2000
   21.6093    0.7149  -24.8894 C   0  0  0  0  0  0  0  0  0  0  0  0
   22.1260    0.1912  -26.0360 C   0  0  0  0  0  0  0  0  0  0  0  0
   20.5120    1.5860  -24.9849 C   0  0  0  0  0  0  0  0  0  0  0  0
   19.9448    2.1901  -23.8890 O   0  0  0  0  0  0  0  0  0  0  0  0
   19.9715    1.8768  -26.2426 C   0  0  0  0  0  0  0  0  0  0  0  0
   20.5155    1.3193  -27.3998 C   0  0  0  0  0  0  0  0  0  0  0  0
   21.6016    0.4741  -27.2566 C   0  0  0  0  0  0  0  0  0  0  0  0
   20.2822    2.0175  -23.0320 H   0  0  0  0  0  0  0  0  0  0  0  0
   22.4178    0.2260  -23.6904 C   0  0  0  0  0  0  0  0  0  0  0  0
   21.6322   -2.1209  -23.0343 C   0  0  0  0  0  0  0  0  0  0  0  0
   20.9680   -2.9324  -22.1129 C   0  0  0  0  0  0  0  0  0  0  0  0
   20.4054   -2.3910  -20.9591 C   0  0  0  0  0  0  0  0  0  0  0  0
   20.5149   -1.0191  -20.7324 C   0  0  0  0  0  0  0  0  0  0  0  0
   21.2025   -0.2189  -21.7060 C   0  0  0  0  0  0  0  0  0  0  0  0
   21.7061   -0.7598  -22.7958 C   0  0  0  0  0  0  0  0  0  0  0  0
   22.3356   -0.2355  -28.3365 C   0  0  0  0  0  0  0  0  0  0  0  0
   21.8929    0.1024  -29.7049 C   0  0  0  0  0  0  0  0  0  0  0  0
   22.4485    1.2174  -30.3040 C   0  0  0  0  0  0  0  0  0  0  0  0
   23.5179    1.9996  -29.5381 C   0  0  0  0  0  0  0  0  0  0  0  0
   22.0512    1.6002  -31.5739 C   0  0  0  0  0  0  0  0  0  0  0  0
   20.9163   -0.6375  -30.3529 C   0  0  0  0  0  0  0  0  0  0  0  0
   20.3070   -1.8630  -29.6595 C   0  0  0  0  0  0  0  0  0  0  0  0
   20.5108   -0.2632  -31.6221 C   0  0  0  0  0  0  0  0  0  0  0  0
   21.0800    0.8505  -32.2260 C   0  0  0  0  0  0  0  0  0  0  0  0
   20.6625    1.1941  -33.4678 O   0  0  0  0  0  0  0  0  0  0  0  0
   21.5503    2.1870  -33.9725 C   0  0  0  0  0  0  0  0  0  0  0  0
   22.1508    1.8026  -35.3245 C   0  0  0  0  0  0  0  0  0  0  0  0
   21.4947    1.0265  -36.0519 O   0  0  0  0  0  0  0  0  0  0  0  0
   23.2559    2.2922  -35.6377 O   0  0  0  0  0  0  0  0  0  0  0  0
   20.6699    0.6933  -35.7576 H   0  0  0  0  0  0  0  0  0  0  0  0
 10 11  2  0  0  0
 10 15  1  0  0  0
 11 12  1  0  0  0
 12 13  2  0  0  0
 13 14  1  0  0  0
 14 15  2  0  0  0
 15  9  1  0  0  0
  9  1  1  0  0  0
  1  2  2  0  0  0
  1  3  1  0  0  0
  2  7  1  0  0  0
  3  4  1  0  0  0
  3  5  2  0  0  0
  5  6  1  0  0  0
  6  7  2  0  0  0
  7 16  1  0  0  0
 16 17  1  0  0  0
 17 18  2  0  0  0
 17 21  1  0  0  0
 18 19  1  0  0  0
 18 20  1  0  0  0
 20 24  2  0  0  0
 21 22  1  0  0  0
 21 23  2  0  0  0
 23 24  1  0  0  0
 24 25  1  0  0  0
 25 26  1  0  0  0
 26 27  1  0  0  0
 27 28  1  0  0  0
 27 29  2  0  0  0
  4  8  1  0  0  0
 28 30  1  0  0  0
M  END
> <minimizedAffinity>
-8.96032

$$$$
3NEO_G24_A_1


 30 32  0  0  0  0  0  0  0  0999 V2000
   21.2043    0.5392  -30.1390 C   0  0  0  0  0  0  0  0  0  0  0  0
   21.7042    0.7911  -28.8969 C   0  0  0  0  0  0  0  0  0  0  0  0
   20.3659   -0.5741  -30.3114 C   0  0  0  0  0  0  0  0  0  0  0  0
   19.8423   -0.9285  -31.5312 O   0  0  0  0  0  0  0  0  0  0  0  0
   20.0543   -1.3783  -29.2092 C   0  0  0  0  0  0  0  0  0  0  0  0
   20.5736   -1.0917  -27.9467 C   0  0  0  0  0  0  0  0  0  0  0  0
   21.4021    0.0101  -27.8276 C   0  0  0  0  0  0  0  0  0  0  0  0
   20.0309   -0.4121  -32.2899 H   0  0  0  0  0  0  0  0  0  0  0  0
   21.7332    1.5761  -31.1266 C   0  0  0  0  0  0  0  0  0  0  0  0
   24.0802    1.3579  -30.1269 C   0  0  0  0  0  0  0  0  0  0  0  0
   25.4572    1.5159  -30.2935 C   0  0  0  0  0  0  0  0  0  0  0  0
   25.9807    2.0103  -31.4861 C   0  0  0  0  0  0  0  0  0  0  0  0
   25.1073    2.3473  -32.5201 C   0  0  0  0  0  0  0  0  0  0  0  0
   23.6982    2.1734  -32.3076 C   0  0  0  0  0  0  0  0  0  0  0  0
   23.2353    1.7217  -31.1607 C   0  0  0  0  0  0  0  0  0  0  0  0
   22.0596    0.5097  -26.5920 C   0  0  0  0  0  0  0  0  0  0  0  0
   21.4507    0.0290  -25.3347 C   0  0  0  0  0  0  0  0  0  0  0  0
   20.4323    0.7839  -24.7833 C   0  0  0  0  0  0  0  0  0  0  0  0
   19.9668    2.0360  -25.5300 C   0  0  0  0  0  0  0  0  0  0  0  0
   19.8433    0.3990  -23.5908 C   0  0  0  0  0  0  0  0  0  0  0  0
   21.9137   -1.1105  -24.6958 C   0  0  0  0  0  0  0  0  0  0  0  0
   23.0542   -1.9226  -25.3234 C   0  0  0  0  0  0  0  0  0  0  0  0
   21.3329   -1.5038  -23.5028 C   0  0  0  0  0  0  0  0  0  0  0  0
   20.3016   -0.7499  -22.9579 C   0  0  0  0  0  0  0  0  0  0  0  0
   19.7533   -1.1579  -21.7885 O   0  0  0  0  0  0  0  0  0  0  0  0
   20.8096   -1.3725  -20.8574 C   0  0  0  0  0  0  0  0  0  0  0  0
   21.1213   -0.1269  -20.0284 C   0  0  0  0  0  0  0  0  0  0  0  0
   20.5712   -0.0199  -18.9113 O   0  0  0  0  0  0  0  0  0  0  0  0
   21.9169    0.7109  -20.5020 O   0  0  0  0  0  0  0  0  0  0  0  0
   19.9826   -0.6852  -18.6133 H   0  0  0  0  0  0  0  0  0  0  0  0
 10 11  2  0  0  0
 10 15  1  0  0  0
 11 12  1  0  0  0
 12 13  2  0  0  0
 13 14  1  0  0  0
 14 15  2  0  0  0
 15  9  1  0  0  0
  9  1  1  0  0  0
  1  2  2  0  0  0
  1  3  1  0  0  0
  2  7  1  0  0  0
  3  4  1  0  0  0
  3  5  2  0  0  0
  5  6  1  0  0  0
  6  7  2  0  0  0
  7 16  1  0  0  0
 16 17  1  0  0  0
 17 18  2  0  0  0
 17 21  1  0  0  0
 18 19  1  0  0  0
 18 20  1  0  0  0
 20 24  2  0  0  0
 21 22  1  0  0  0
 21 23  2  0  0  0
 23 24  1  0  0  0
 24 25  1  0  0  0
 25 26  1  0  0  0
 26 27  1  0  0  0
 27 28  1  0  0  0
 27 29  2  0  0  0
  4  8  1  0  0  0
 28 30  1  0  0  0
M  END
> <minimizedAffinity>
-8.81614

$$$$
3NEO_G24_A_1


 30 32  0  0  0  0  0  0  0  0999 V2000
   21.4201   -0.1963  -30.3181 C   0  0  0  0  0  0  0  0  0  0  0  0
   20.9608   -0.5477  -29.0846 C   0  0  0  0  0  0  0  0  0  0  0  0
   22.1384    1.0031  -30.4498 C   0  0  0  0  0  0  0  0  0  0  0  0
   22.6110    1.4579  -31.6570 O   0  0  0  0  0  0  0  0  0  0  0  0
   22.3771    1.7902  -29.3175 C   0  0  0  0  0  0  0  0  0  0  0  0
   21.9023    1.4016  -28.0647 C   0  0  0  0  0  0  0  0  0  0  0  0
   21.1921    0.2168  -27.9860 C   0  0  0  0  0  0  0  0  0  0  0  0
   22.4687    0.9556  -32.4351 H   0  0  0  0  0  0  0  0  0  0  0  0
   20.9901   -1.2416  -31.3442 C   0  0  0  0  0  0  0  0  0  0  0  0
   18.6473   -1.3564  -30.3177 C   0  0  0  0  0  0  0  0  0  0  0  0
   17.2894   -1.6273  -30.4947 C   0  0  0  0  0  0  0  0  0  0  0  0
   16.7985   -2.0409  -31.7311 C   0  0  0  0  0  0  0  0  0  0  0  0
   17.6852   -2.1814  -32.7986 C   0  0  0  0  0  0  0  0  0  0  0  0
   19.0743   -1.8966  -32.5744 C   0  0  0  0  0  0  0  0  0  0  0  0
   19.5083   -1.5262  -31.3877 C   0  0  0  0  0  0  0  0  0  0  0  0
   20.6014   -0.3967  -26.7680 C   0  0  0  0  0  0  0  0  0  0  0  0
   21.2476    0.0062  -25.5020 C   0  0  0  0  0  0  0  0  0  0  0  0
   22.3102   -0.7547  -25.0516 C   0  0  0  0  0  0  0  0  0  0  0  0
   22.7813   -1.9298  -25.9112 C   0  0  0  0  0  0  0  0  0  0  0  0
   22.9367   -0.4429  -23.8568 C   0  0  0  0  0  0  0  0  0  0  0  0
   20.7777    1.0775  -24.7587 C   0  0  0  0  0  0  0  0  0  0  0  0
   19.5883    1.8971  -25.2758 C   0  0  0  0  0  0  0  0  0  0  0  0
   21.3958    1.3973  -23.5624 C   0  0  0  0  0  0  0  0  0  0  0  0
   22.4711    0.6383  -23.1188 C   0  0  0  0  0  0  0  0  0  0  0  0
   23.0552    0.9735  -21.9437 O   0  0  0  0  0  0  0  0  0  0  0  0
   22.0238    1.2746  -21.0087 C   0  0  0  0  0  0  0  0  0  0  0  0
   21.6601    0.0763  -20.1323 C   0  0  0  0  0  0  0  0  0  0  0  0
   22.1282    0.0402  -18.9741 O   0  0  0  0  0  0  0  0  0  0  0  0
   20.9060   -0.7957  -20.6120 O   0  0  0  0  0  0  0  0  0  0  0  0
   22.6896    0.7278  -18.6741 H   0  0  0  0  0  0  0  0  0  0  0  0
 10 11  2  0  0  0
 10 15  1  0  0  0
 11 12  1  0  0  0
 12 13  2  0  0  0
 13 14  1  0  0  0
 14 15  2  0  0  0
 15  9  1  0  0  0
  9  1  1  0  0  0
  1  2  2  0  0  0
  1  3  1  0  0  0
  2  7  1  0  0  0
  3  4  1  0  0  0
  3  5  2  0  0  0
  5  6  1  0  0  0
  6  7  2  0  0  0
  7 16  1  0  0  0
 16 17  1  0  0  0
 17 18  2  0  0  0
 17 21  1  0  0  0
 18 19  1  0  0  0
 18 20  1  0  0  0
 20 24  2  0  0  0
 21 22  1  0  0  0
 21 23  2  0  0  0
 23 24  1  0  0  0
 24 25  1  0  0  0
 25 26  1  0  0  0
 26 27  1  0  0  0
 27 28  1  0  0  0
 27 29  2  0  0  0
  4  8  1  0  0  0
 28 30  1  0  0  0
M  END
> <minimizedAffinity>
-8.60838

$$$$
3NEO_G24_A_1


 30 32  0  0  0  0  0  0  0  0999 V2000
   22.6698    0.7566  -31.0393 C   0  0  0  0  0  0  0  0  0  0  0  0
   21.6682    0.5814  -30.1325 C   0  0  0  0  0  0  0  0  0  0  0  0
   23.7984    1.4996  -30.6569 C   0  0  0  0  0  0  0  0  0  0  0  0
   24.8423    1.7588  -31.5116 O   0  0  0  0  0  0  0  0  0  0  0  0
   23.8722    2.0209  -29.3602 C   0  0  0  0  0  0  0  0  0  0  0  0
   22.8353    1.8186  -28.4492 C   0  0  0  0  0  0  0  0  0  0  0  0
   21.7399    1.0881  -28.8743 C   0  0  0  0  0  0  0  0  0  0  0  0
   24.8251    1.4249  -32.3870 H   0  0  0  0  0  0  0  0  0  0  0  0
   22.2924    0.0875  -32.3585 C   0  0  0  0  0  0  0  0  0  0  0  0
   20.9033   -1.8667  -31.4603 C   0  0  0  0  0  0  0  0  0  0  0  0
   19.7011   -2.5758  -31.4880 C   0  0  0  0  0  0  0  0  0  0  0  0
   18.6642   -2.1916  -32.3353 C   0  0  0  0  0  0  0  0  0  0  0  0
   18.8413   -1.0815  -33.1611 C   0  0  0  0  0  0  0  0  0  0  0  0
   20.0936   -0.3818  -33.1053 C   0  0  0  0  0  0  0  0  0  0  0  0
   21.0605   -0.7833  -32.3067 C   0  0  0  0  0  0  0  0  0  0  0  0
   20.5302    0.7415  -28.0838 C   0  0  0  0  0  0  0  0  0  0  0  0
   20.7461    0.6847  -26.6233 C   0  0  0  0  0  0  0  0  0  0  0  0
   20.1934    1.6897  -25.8517 C   0  0  0  0  0  0  0  0  0  0  0  0
   19.3551    2.7648  -26.5468 C   0  0  0  0  0  0  0  0  0  0  0  0
   20.3868    1.7054  -24.4808 C   0  0  0  0  0  0  0  0  0  0  0  0
   21.5188   -0.3097  -26.0442 C   0  0  0  0  0  0  0  0  0  0  0  0
   22.1311   -1.4058  -26.9259 C   0  0  0  0  0  0  0  0  0  0  0  0
   21.7194   -0.3030  -24.6749 C   0  0  0  0  0  0  0  0  0  0  0  0
   21.1524    0.7013  -23.9011 C   0  0  0  0  0  0  0  0  0  0  0  0
   21.3671    0.6833  -22.5638 O   0  0  0  0  0  0  0  0  0  0  0  0
   22.6020    1.3448  -22.3066 C   0  0  0  0  0  0  0  0  0  0  0  0
   22.4284    2.5928  -21.4414 C   0  0  0  0  0  0  0  0  0  0  0  0
   21.5379    3.4067  -21.7678 O   0  0  0  0  0  0  0  0  0  0  0  0
   23.1737    2.7285  -20.4488 O   0  0  0  0  0  0  0  0  0  0  0  0
   21.0114    3.2460  -22.5261 H   0  0  0  0  0  0  0  0  0  0  0  0
 10 11  2  0  0  0
 10 15  1  0  0  0
 11 12  1  0  0  0
 12 13  2  0  0  0
 13 14  1  0  0  0
 14 15  2  0  0  0
 15  9  1  0  0  0
  9  1  1  0  0  0
  1  2  2  0  0  0
  1  3  1  0  0  0
  2  7  1  0  0  0
  3  4  1  0  0  0
  3  5  2  0  0  0
  5  6  1  0  0  0
  6  7  2  0  0  0
  7 16  1  0  0  0
 16 17  1  0  0  0
 17 18  2  0  0  0
 17 21  1  0  0  0
 18 19  1  0  0  0
 18 20  1  0  0  0
 20 24  2  0  0  0
 21 22  1  0  0  0
 21 23  2  0  0  0
 23 24  1  0  0  0
 24 25  1  0  0  0
 25 26  1  0  0  0
 26 27  1  0  0  0
 27 28  1  0  0  0
 27 29  2  0  0  0
  4  8  1  0  0  0
 28 30  1  0  0  0
M  END
> <minimizedAffinity>
-8.60618

$$$$
3NEO_G24_A_1


 30 32  0  0  0  0  0  0  0  0999 V2000
   20.0160   -0.8897  -31.0513 C   0  0  0  0  0  0  0  0  0  0  0  0
   21.0477   -0.7651  -30.1704 C   0  0  0  0  0  0  0  0  0  0  0  0
   18.8446   -1.5367  -30.6253 C   0  0  0  0  0  0  0  0  0  0  0  0
   17.7657   -1.7406  -31.4510 O   0  0  0  0  0  0  0  0  0  0  0  0
   18.7618   -2.0164  -29.3131 C   0  0  0  0  0  0  0  0  0  0  0  0
   19.8308   -1.8673  -28.4295 C   0  0  0  0  0  0  0  0  0  0  0  0
   20.9671   -1.2313  -28.8972 C   0  0  0  0  0  0  0  0  0  0  0  0
   17.7878   -1.4323  -32.3355 H   0  0  0  0  0  0  0  0  0  0  0  0
   20.4118   -0.2857  -32.3962 C   0  0  0  0  0  0  0  0  0  0  0  0
   22.8164    0.2605  -33.0857 C   0  0  0  0  0  0  0  0  0  0  0  0
   23.9002    1.1368  -33.0076 C   0  0  0  0  0  0  0  0  0  0  0  0
   23.8233    2.3025  -32.2487 C   0  0  0  0  0  0  0  0  0  0  0  0
   22.6421    2.5872  -31.5636 C   0  0  0  0  0  0  0  0  0  0  0  0
   21.5521    1.6587  -31.6669 C   0  0  0  0  0  0  0  0  0  0  0  0
   21.6649    0.5559  -32.3775 C   0  0  0  0  0  0  0  0  0  0  0  0
   22.2164   -0.9543  -28.1414 C   0  0  0  0  0  0  0  0  0  0  0  0
   22.0069   -0.5406  -26.7387 C   0  0  0  0  0  0  0  0  0  0  0  0
   22.4601   -1.3868  -25.7439 C   0  0  0  0  0  0  0  0  0  0  0  0
   23.1908   -2.6675  -26.1533 C   0  0  0  0  0  0  0  0  0  0  0  0
   22.2661   -1.0661  -24.4110 C   0  0  0  0  0  0  0  0  0  0  0  0
   21.3337    0.6289  -26.4220 C   0  0  0  0  0  0  0  0  0  0  0  0
   20.8300    1.5433  -27.5462 C   0  0  0  0  0  0  0  0  0  0  0  0
   21.1334    0.9585  -25.0929 C   0  0  0  0  0  0  0  0  0  0  0  0
   21.6008    0.1123  -24.0958 C   0  0  0  0  0  0  0  0  0  0  0  0
   21.3888    0.4597  -22.8039 O   0  0  0  0  0  0  0  0  0  0  0  0
   22.5799    1.0636  -22.3086 C   0  0  0  0  0  0  0  0  0  0  0  0
   22.3262    2.4389  -21.6919 C   0  0  0  0  0  0  0  0  0  0  0  0
   21.3872    3.1199  -22.1572 O   0  0  0  0  0  0  0  0  0  0  0  0
   23.0588    2.8050  -20.7494 O   0  0  0  0  0  0  0  0  0  0  0  0
   20.8739    2.7871  -22.8669 H   0  0  0  0  0  0  0  0  0  0  0  0
 10 11  2  0  0  0
 10 15  1  0  0  0
 11 12  1  0  0  0
 12 13  2  0  0  0
 13 14  1  0  0  0
 14 15  2  0  0  0
 15  9  1  0  0  0
  9  1  1  0  0  0
  1  2  2  0  0  0
  1  3  1  0  0  0
  2  7  1  0  0  0
  3  4  1  0  0  0
  3  5  2  0  0  0
  5  6  1  0  0  0
  6  7  2  0  0  0
  7 16  1  0  0  0
 16 17  1  0  0  0
 17 18  2  0  0  0
 17 21  1  0  0  0
 18 19  1  0  0  0
 18 20  1  0  0  0
 20 24  2  0  0  0
 21 22  1  0  0  0
 21 23  2  0  0  0
 23 24  1  0  0  0
 24 25  1  0  0  0
 25 26  1  0  0  0
 26 27  1  0  0  0
 27 28  1  0  0  0
 27 29  2  0  0  0
  4  8  1  0  0  0
 28 30  1  0  0  0
M  END
> <minimizedAffinity>
-8.50401

$$$$
