3AP4_LBT_A_155
  RCSB PDB12061707543D
Coordinates from PDB:3AP4:A:155 Model:1 without hydrogens
 23 24  0  0  0  0            999 V2000
   23.4030   29.6820   23.4140   C 0  0  0  0  0  0  0  0  0  0  0  0
   22.9480   30.9370   24.2170   C 0  0  0  0  0  0  0  0  0  0  0  0
   21.4280   31.1640   23.9640   C 0  0  0  0  0  0  0  0  0  0  0  0
   21.1200   31.1730   22.4370   C 0  0  0  0  0  0  0  0  0  0  0  0
   21.7310   29.9110   21.7820   C 0  0  0  0  0  0  0  0  0  0  0  0
   21.4970   29.9190   20.2540   C 0  0  0  0  0  0  0  0  0  0  0  0
   24.8190   29.6450   23.4570   O 0  0  0  0  0  0  0  0  0  0  0  0
   23.0960   30.7080   25.5930   O 0  0  0  0  0  0  0  0  0  0  0  0
   20.9460   32.3990   24.4760   O 0  0  0  0  0  0  0  0  0  0  0  0
   21.6250   32.3030   21.7680   O 0  0  0  0  0  0  0  0  0  0  0  0
   23.1340   29.8220   22.0300   O 0  0  0  0  0  0  0  0  0  0  0  0
   21.9810   28.7820   19.6070   O 0  0  0  0  0  0  0  0  0  0  0  0
   27.6800   26.6120   22.5180   C 0  0  0  0  0  0  0  0  0  0  0  0
   27.4070   27.7630   21.4890   C 0  0  0  0  0  0  0  0  0  0  0  0
   26.7350   28.9820   22.1720   C 0  0  0  0  0  0  0  0  0  0  0  0
   25.4830   28.4860   22.9170   C 0  0  0  0  0  0  0  0  0  0  0  0
   25.9790   27.5430   24.0490   C 0  0  0  0  0  0  0  0  0  0  0  0
   24.8020   26.9260   24.8490   C 0  0  0  0  0  0  0  0  0  0  0  0
   28.9030   26.6730   23.1700   O 0  0  0  0  0  0  0  0  0  0  0  0
   28.5880   28.2400   20.8750   O 0  0  0  0  0  0  0  0  0  0  0  0
   26.3040   29.8730   21.1780   O 0  0  0  0  0  0  0  0  0  0  0  0
   26.6920   26.4210   23.5190   O 0  0  0  0  0  0  0  0  0  0  0  0
   23.8770   26.2660   24.0270   O 0  0  0  0  0  0  0  0  0  0  0  0
  1  2  1  0  0  0  0
  1  7  1  0  0  0  0
  1 11  1  0  0  0  0
  2  3  1  0  0  0  0
  2  8  1  0  0  0  0
  3  4  1  0  0  0  0
  3  9  1  0  0  0  0
  4  5  1  0  0  0  0
  4 10  1  0  0  0  0
  5  6  1  0  0  0  0
  5 11  1  0  0  0  0
  6 12  1  0  0  0  0
  7 16  1  0  0  0  0
 13 14  1  0  0  0  0
 13 19  1  0  0  0  0
 13 22  1  0  0  0  0
 14 15  1  0  0  0  0
 14 20  1  0  0  0  0
 15 16  1  0  0  0  0
 15 21  1  0  0  0  0
 16 17  1  0  0  0  0
 17 18  1  0  0  0  0
 17 22  1  0  0  0  0
 18 23  1  0  0  0  0
A    1
C1
A    2
C2
A    3
C3
A    4
C4
A    5
C5
A    6
C6
A    7
O1
A    8
O2
A    9
O3
A   10
O4
A   11
O5
A   12
O6
A   13
C1'
A   14
C2'
A   15
C3'
A   16
C4'
A   17
C5'
A   18
C6'
A   19
O1'
A   20
O2'
A   21
O3'
A   22
O5'
A   23
O6'
M  END
>  <InstanceId>
3AP4_LBT_A_155

>  <ChemCompId>
LBT

>  <PdbId>
3AP4

>  <ChainId>
A

>  <ResidueNumber>
155

>  <InsertionCode>


>  <Model>
1

>  <AltIds>


>  <MissingHeavyAtoms>
0

>  <ObservedFormula>
C12 O11

>  <Name>
ALPHA-LACTOSE

>  <SystematicName>
(2R,3R,4S,5R,6S)-2-(hydroxymethyl)-6-[(2R,3S,4R,5R,6S)-4,5,6-trihydroxy-2-(hydroxymethyl)oxan-3-yl]oxy-oxane-3,4,5-triol

>  <Synonyms>


>  <Type>
SACCHARIDE

>  <Formula>
C12 H22 O11

>  <MolecularWeight>
342.296

>  <ModifiedDate>
2011-06-04

>  <Parent>


>  <OneLetterCode>


>  <SubcomponentList>


>  <AmbiguousFlag>
N

>  <InChI>
InChI=1S/C12H22O11/c13-1-3-5(15)6(16)9(19)12(22-3)23-10-4(2-14)21-11(20)8(18)7(10)17/h3-20H,1-2H2/t3-,4-,5+,6+,7-,8-,9-,10-,11+,12+/m1/s1

>  <InChIKey>
GUBGYTABKSRVRQ-XLOQQCSPSA-N

>  <SMILES>
C([C@@H]1[C@@H]([C@@H]([C@H]([C@@H](O1)O[C@@H]2[C@H](O[C@@H]([C@@H]([C@H]2O)O)O)CO)O)O)O)O

$$$$
