3S45_478_B_201
  RCSB PDB12061710403D
Coordinates from PDB:3S45:B:201 Model:1 without hydrogens
 35 37  0  0  0  0            999 V2000
   25.3390   14.6720   16.1890   C 0  0  0  0  0  0  0  0  0  0  0  0
   25.5900   13.0850   17.9530   C 0  0  0  0  0  0  0  0  0  0  0  0
   22.6850   12.3820   17.1770   C 0  0  0  0  0  0  0  0  0  0  0  0
   24.5210   13.8780   17.2150   C 0  0  0  0  0  0  0  0  0  0  0  0
   20.7090   10.8980   16.9940   C 0  0  0  0  0  0  0  0  0  0  0  0
   20.8840    9.3830   16.9690   C 0  0  0  0  0  0  0  0  0  0  0  0
   19.5440   11.3920   16.1260   C 0  0  0  0  0  0  0  0  0  0  0  0
   19.5240   12.9130   16.2390   C 0  0  0  0  0  0  0  0  0  0  0  0
   20.2090   13.6660   15.2930   C 0  0  0  0  0  0  0  0  0  0  0  0
   18.8590   13.5460   17.2740   C 0  0  0  0  0  0  0  0  0  0  0  0
   20.2440   15.0360   15.5030   C 0  0  0  0  0  0  0  0  0  0  0  0
   18.8270   14.9130   17.5130   C 0  0  0  0  0  0  0  0  0  0  0  0
   19.6360   15.5850   16.6220   C 0  0  0  0  0  0  0  0  0  0  0  0
   19.7050    8.6550   17.6290   C 0  0  0  0  0  0  0  0  0  0  0  0
   20.1520    7.7090   19.8100   C 0  0  0  0  0  0  0  0  0  0  0  0
   21.6890    7.5950   19.7070   C 0  0  0  0  0  0  0  0  0  0  0  0
   17.1610    8.5720   19.8360   C 0  0  0  0  0  0  0  0  0  0  0  0
   16.2610    8.5470   18.7700   C 0  0  0  0  0  0  0  0  0  0  0  0
   15.2060    7.6470   18.8200   C 0  0  0  0  0  0  0  0  0  0  0  0
   15.0700    6.7960   19.9040   C 0  0  0  0  0  0  0  0  0  0  0  0
   15.9650    6.8360   20.9680   C 0  0  0  0  0  0  0  0  0  0  0  0
   17.0480    7.7290   20.9250   C 0  0  0  0  0  0  0  0  0  0  0  0
   22.3230    8.9080   20.1920   C 0  0  0  0  0  0  0  0  0  0  0  0
   22.1800    6.3970   20.5330   C 0  0  0  0  0  0  0  0  0  0  0  0
   26.7420   12.9930   16.9510   C 0  0  0  0  0  0  0  0  0  0  0  0
   21.9350   11.5240   16.4820   N 0  0  0  0  0  0  0  0  0  0  0  0
   19.7980    8.9180   19.0740   N 0  0  0  0  0  0  0  0  0  0  0  0
   14.0700    5.9200   19.8790   N 0  0  0  0  0  0  0  0  0  0  0  0
   23.6820   12.9860   16.4930   O 0  0  0  0  0  0  0  0  0  0  0  0
   22.5180   12.6370   18.3630   O 0  0  0  0  0  0  0  0  0  0  0  0
   21.0740    8.8850   15.6460   O 0  0  0  0  0  0  0  0  0  0  0  0
   18.1160   10.7450   18.7150   O 0  0  0  0  0  0  0  0  0  0  0  0
   18.8580   10.2220   21.0150   O 0  0  0  0  0  0  0  0  0  0  0  0
   26.4420   13.8410   15.8480   O 0  0  0  0  0  0  0  0  0  0  0  0
   18.4990    9.6790   19.6900   S 0  0  0  0  0  0  0  0  0  0  0  0
  1  4  1  0  0  0  0
  1 34  1  0  0  0  0
  2  4  1  0  0  0  0
  2 25  1  0  0  0  0
  3 26  1  0  0  0  0
  3 29  1  0  0  0  0
  3 30  2  0  0  0  0
  4 29  1  0  0  0  0
  5  6  1  0  0  0  0
  5  7  1  0  0  0  0
  5 26  1  0  0  0  0
  6 14  1  0  0  0  0
  6 31  1  0  0  0  0
  7  8  1  0  0  0  0
  8  9  2  0  0  0  0
  8 10  1  0  0  0  0
  9 11  1  0  0  0  0
 10 12  2  0  0  0  0
 11 13  2  0  0  0  0
 12 13  1  0  0  0  0
 14 27  1  0  0  0  0
 15 16  1  0  0  0  0
 15 27  1  0  0  0  0
 16 23  1  0  0  0  0
 16 24  1  0  0  0  0
 17 18  2  0  0  0  0
 17 22  1  0  0  0  0
 17 35  1  0  0  0  0
 18 19  1  0  0  0  0
 19 20  2  0  0  0  0
 20 21  1  0  0  0  0
 20 28  1  0  0  0  0
 21 22  2  0  0  0  0
 25 34  1  0  0  0  0
 27 35  1  0  0  0  0
 32 35  2  0  0  0  0
 33 35  2  0  0  0  0
A    1
C1
A    2
C2
A    3
C3
A    4
C4
A    5
C5
A    6
C6
A    7
C7
A    8
C8
A    9
C9
A   10
C10
A   11
C11
A   12
C12
A   13
C13
A   14
C14
A   15
C15
A   16
C16
A   17
C17
A   18
C18
A   19
C19
A   20
C20
A   21
C21
A   22
C22
A   23
C23
A   24
C24
A   25
C25
A   26
N1
A   27
N2
A   28
N3
A   29
O1
A   30
O2
A   31
O3
A   32
O4
A   33
O5
A   34
O6
A   35
S1
M  END
>  <InstanceId>
3S45_478_B_201

>  <ChemCompId>
478

>  <PdbId>
3S45

>  <ChainId>
B

>  <ResidueNumber>
201

>  <InsertionCode>


>  <Model>
1

>  <AltIds>


>  <MissingHeavyAtoms>
0

>  <ObservedFormula>
C25 N3 O6 S

>  <Name>
{3-[(4-AMINO-BENZENESULFONYL)-ISOBUTYL-AMINO]-1-BENZYL-2-HYDROXY-PROPYL}-CARBAMIC ACID TETRAHYDRO-FURAN-3-YL ESTER

>  <SystematicName>
[(3S)-oxolan-3-yl] N-[(2S,3R)-4-[(4-aminophenyl)sulfonyl-(2-methylpropyl)amino]-3-hydroxy-1-phenyl-butan-2-yl]carbamate

>  <Synonyms>
Amprenavir

>  <Type>
NON-POLYMER

>  <Formula>
C25 H35 N3 O6 S

>  <MolecularWeight>
505.627

>  <ModifiedDate>
2011-06-04

>  <Parent>


>  <OneLetterCode>


>  <SubcomponentList>


>  <AmbiguousFlag>
N

>  <InChI>
InChI=1S/C25H35N3O6S/c1-18(2)15-28(35(31,32)22-10-8-20(26)9-11-22)16-24(29)23(14-19-6-4-3-5-7-19)27-25(30)34-21-12-13-33-17-21/h3-11,18,21,23-24,29H,12-17,26H2,1-2H3,(H,27,30)/t21-,23-,24+/m0/s1

>  <InChIKey>
YMARZQAQMVYCKC-OEMFJLHTSA-N

>  <SMILES>
CC(C)C[N@](C[C@H]([C@H](Cc1ccccc1)NC(=O)O[C@H]2CCOC2)O)S(=O)(=O)c3ccc(cc3)N

$$$$
