2XMY_CDK_A_500


 31 33  0  0  0  0  0  0  0  0999 V2000
   23.8533   29.9385   29.2346 N   0  0  0  0  0  0  0  0  0  0  0  0
   23.5104   30.3384   30.0663 H   0  0  0  0  0  0  0  0  0  0  0  0
   26.6956   30.8068   27.2856 C   0  0  0  0  0  0  0  0  0  0  0  0
   25.7659   30.0259   27.8658 N   0  0  0  0  0  0  0  0  0  0  0  0
   26.6614   32.1855   27.4620 C   0  0  0  0  0  0  0  0  0  0  0  0
   25.6677   32.7351   28.2552 C   0  0  0  0  0  0  0  0  0  0  0  0
   24.7678   31.9375   28.8016 N   0  0  0  0  0  0  0  0  0  0  0  0
   24.7984   30.6133   28.5996 C   0  0  0  0  0  0  0  0  0  0  0  0
   26.1526   28.5842   25.2030 C   0  0  0  0  0  0  0  0  0  0  0  0
   27.5032   29.2272   25.5208 C   0  0  0  0  0  0  0  0  0  0  0  0
   28.6431   28.8746   24.9047 N   0  0  0  0  0  0  0  0  0  0  0  0
   28.6943   27.8364   23.8524 C   0  0  0  0  0  0  0  0  0  0  0  0
   29.7365   29.5402   25.3058 C   0  0  0  0  0  0  0  0  0  0  0  0
   30.8709   29.3875   24.8565 O   0  0  0  0  0  0  0  0  0  0  0  0
   29.3114   30.6714   26.5053 S   0  0  0  0  0  0  0  0  0  0  0  0
   27.6666   30.2577   26.4534 C   0  0  0  0  0  0  0  0  0  0  0  0
   23.3203   28.7827   28.8701 C   0  0  0  0  0  0  0  0  0  0  0  0
   22.3032   28.3253   29.6986 C   0  0  0  0  0  0  0  0  0  0  0  0
   21.6259   27.1500   29.4277 C   0  0  0  0  0  0  0  0  0  0  0  0
   23.6689   28.0769   27.7266 C   0  0  0  0  0  0  0  0  0  0  0  0
   22.9807   26.8966   27.4372 C   0  0  0  0  0  0  0  0  0  0  0  0
   21.9731   26.4371   28.2890 C   0  0  0  0  0  0  0  0  0  0  0  0
   21.0542   24.9855   27.9688 S   0  0  0  0  0  0  0  0  0  0  0  0
   19.8750   25.3616   27.1191 O   0  0  0  0  0  0  0  0  0  0  0  0
   20.5180   24.4668   29.2821 O   0  0  0  0  0  0  0  0  0  0  0  0
   21.9537   23.8356   27.2183 N   0  0  0  0  0  0  0  0  0  0  0  0
   22.9179   23.8942   27.5457 H   0  0  0  0  0  0  0  0  0  0  0  0
   21.4163   22.4958   27.5203 C   0  0  0  0  0  0  0  0  0  0  0  0
   20.9889   21.7626   26.2402 C   0  0  0  0  0  0  0  0  0  0  0  0
   20.0718   22.5288   25.4175 O   0  0  0  0  0  0  0  0  0  0  0  0
   19.9457   21.9130   24.1383 C   0  0  0  0  0  0  0  0  0  0  0  0
  9 10  1  0  0  0
 10 11  1  0  0  0
 10 16  2  0  0  0
 11 12  1  0  0  0
 11 13  1  0  0  0
 13 14  2  0  0  0
 13 15  1  0  0  0
 15 16  1  0  0  0
 16  3  1  0  0  0
  3  4  2  0  0  0
  3  5  1  0  0  0
  4  8  1  0  0  0
  5  6  2  0  0  0
  6  7  1  0  0  0
  7  8  2  0  0  0
  8  1  1  0  0  0
  1 17  1  0  0  0
 17 18  1  0  0  0
 17 20  2  0  0  0
 18 19  2  0  0  0
 19 22  1  0  0  0
 20 21  1  0  0  0
 21 22  2  0  0  0
 22 23  1  0  0  0
 23 24  2  0  0  0
 23 25  2  0  0  0
 23 26  1  0  0  0
 26 28  1  0  0  0
 28 29  1  0  0  0
 29 30  1  0  0  0
 30 31  1  0  0  0
  1  2  1  0  0  0
 26 27  1  0  0  0
M  END
> <minimizedAffinity>
-9.08133

$$$$
2XMY_CDK_A_500


 31 33  0  0  0  0  0  0  0  0999 V2000
   24.2510   25.3268   24.4234 N   0  0  0  0  0  0  0  0  0  0  0  0
   23.4972   25.4653   23.8055 H   0  0  0  0  0  0  0  0  0  0  0  0
   25.6544   27.9917   26.3101 C   0  0  0  0  0  0  0  0  0  0  0  0
   25.5312   27.0844   25.3241 N   0  0  0  0  0  0  0  0  0  0  0  0
   24.6981   28.0664   27.3166 C   0  0  0  0  0  0  0  0  0  0  0  0
   23.6313   27.1832   27.2942 C   0  0  0  0  0  0  0  0  0  0  0  0
   23.5399   26.3118   26.3059 N   0  0  0  0  0  0  0  0  0  0  0  0
   24.4553   26.2708   25.3284 C   0  0  0  0  0  0  0  0  0  0  0  0
   28.2965   27.6116   24.7459 C   0  0  0  0  0  0  0  0  0  0  0  0
   27.9368   28.7845   25.6590 C   0  0  0  0  0  0  0  0  0  0  0  0
   28.7690   29.8129   25.8893 N   0  0  0  0  0  0  0  0  0  0  0  0
   30.1092   29.9098   25.2709 C   0  0  0  0  0  0  0  0  0  0  0  0
   28.2936   30.7558   26.7164 C   0  0  0  0  0  0  0  0  0  0  0  0
   28.8827   31.7856   27.0398 O   0  0  0  0  0  0  0  0  0  0  0  0
   26.7217   30.3376   27.2197 S   0  0  0  0  0  0  0  0  0  0  0  0
   26.7026   28.9072   26.3070 C   0  0  0  0  0  0  0  0  0  0  0  0
   24.9529   24.2160   24.2610 C   0  0  0  0  0  0  0  0  0  0  0  0
   24.2927   23.0521   24.6347 C   0  0  0  0  0  0  0  0  0  0  0  0
   24.8836   21.8097   24.4905 C   0  0  0  0  0  0  0  0  0  0  0  0
   26.2243   24.1580   23.7067 C   0  0  0  0  0  0  0  0  0  0  0  0
   26.8232   22.9069   23.5441 C   0  0  0  0  0  0  0  0  0  0  0  0
   26.1565   21.7453   23.9419 C   0  0  0  0  0  0  0  0  0  0  0  0
   26.8368   20.1486   23.7384 S   0  0  0  0  0  0  0  0  0  0  0  0
   25.7154   19.2054   23.4114 O   0  0  0  0  0  0  0  0  0  0  0  0
   27.4228   19.7130   25.0606 O   0  0  0  0  0  0  0  0  0  0  0  0
   27.9784   20.1069   22.5596 N   0  0  0  0  0  0  0  0  0  0  0  0
   28.5405   19.2622   22.6638 H   0  0  0  0  0  0  0  0  0  0  0  0
   27.3354   20.1045   21.2324 C   0  0  0  0  0  0  0  0  0  0  0  0
   28.2226   20.7852   20.1795 C   0  0  0  0  0  0  0  0  0  0  0  0
   27.9842   22.2115   20.0616 O   0  0  0  0  0  0  0  0  0  0  0  0
   29.0771   22.9292   20.6289 C   0  0  0  0  0  0  0  0  0  0  0  0
  9 10  1  0  0  0
 10 11  1  0  0  0
 10 16  2  0  0  0
 11 12  1  0  0  0
 11 13  1  0  0  0
 13 14  2  0  0  0
 13 15  1  0  0  0
 15 16  1  0  0  0
 16  3  1  0  0  0
  3  4  2  0  0  0
  3  5  1  0  0  0
  4  8  1  0  0  0
  5  6  2  0  0  0
  6  7  1  0  0  0
  7  8  2  0  0  0
  8  1  1  0  0  0
  1 17  1  0  0  0
 17 18  1  0  0  0
 17 20  2  0  0  0
 18 19  2  0  0  0
 19 22  1  0  0  0
 20 21  1  0  0  0
 21 22  2  0  0  0
 22 23  1  0  0  0
 23 24  2  0  0  0
 23 25  2  0  0  0
 23 26  1  0  0  0
 26 28  1  0  0  0
 28 29  1  0  0  0
 29 30  1  0  0  0
 30 31  1  0  0  0
  1  2  1  0  0  0
 26 27  1  0  0  0
M  END
> <minimizedAffinity>
-8.81639

$$$$
2XMY_CDK_A_500


 31 33  0  0  0  0  0  0  0  0999 V2000
   22.6744   29.2203   28.4990 N   0  0  0  0  0  0  0  0  0  0  0  0
   21.8979   29.7821   28.2739 H   0  0  0  0  0  0  0  0  0  0  0  0
   25.9854   29.7591   27.3252 C   0  0  0  0  0  0  0  0  0  0  0  0
   24.7908   29.1573   27.4713 N   0  0  0  0  0  0  0  0  0  0  0  0
   26.2592   30.9448   27.9976 C   0  0  0  0  0  0  0  0  0  0  0  0
   25.2905   31.4829   28.8287 C   0  0  0  0  0  0  0  0  0  0  0  0
   24.1269   30.8680   28.9405 N   0  0  0  0  0  0  0  0  0  0  0  0
   23.8687   29.7405   28.2644 C   0  0  0  0  0  0  0  0  0  0  0  0
   25.9683   26.8611   26.2420 C   0  0  0  0  0  0  0  0  0  0  0  0
   27.0192   27.9354   25.9587 C   0  0  0  0  0  0  0  0  0  0  0  0
   28.0921   27.7205   25.1803 N   0  0  0  0  0  0  0  0  0  0  0  0
   28.3501   26.4244   24.5158 C   0  0  0  0  0  0  0  0  0  0  0  0
   28.9128   28.7720   25.0390 C   0  0  0  0  0  0  0  0  0  0  0  0
   29.9342   28.7944   24.3546 O   0  0  0  0  0  0  0  0  0  0  0  0
   28.3023   30.0979   25.9155 S   0  0  0  0  0  0  0  0  0  0  0  0
   26.9409   29.2411   26.4559 C   0  0  0  0  0  0  0  0  0  0  0  0
   22.4132   28.0247   29.0041 C   0  0  0  0  0  0  0  0  0  0  0  0
   22.1059   28.0213   30.3590 C   0  0  0  0  0  0  0  0  0  0  0  0
   21.7759   26.8522   31.0207 C   0  0  0  0  0  0  0  0  0  0  0  0
   22.3733   26.8476   28.2694 C   0  0  0  0  0  0  0  0  0  0  0  0
   22.0272   25.6645   28.9259 C   0  0  0  0  0  0  0  0  0  0  0  0
   21.7393   25.6712   30.2930 C   0  0  0  0  0  0  0  0  0  0  0  0
   21.2707   24.2324   31.1671 S   0  0  0  0  0  0  0  0  0  0  0  0
   22.3576   23.2110   30.9948 O   0  0  0  0  0  0  0  0  0  0  0  0
   20.0217   23.6759   30.5254 O   0  0  0  0  0  0  0  0  0  0  0  0
   21.0167   24.5307   32.7611 N   0  0  0  0  0  0  0  0  0  0  0  0
   21.3672   25.4607   32.9905 H   0  0  0  0  0  0  0  0  0  0  0  0
   19.5751   24.4638   33.0650 C   0  0  0  0  0  0  0  0  0  0  0  0
   18.9547   25.8664   33.1463 C   0  0  0  0  0  0  0  0  0  0  0  0
   17.9014   26.0867   32.1730 O   0  0  0  0  0  0  0  0  0  0  0  0
   16.7110   26.4995   32.8394 C   0  0  0  0  0  0  0  0  0  0  0  0
  9 10  1  0  0  0
 10 11  1  0  0  0
 10 16  2  0  0  0
 11 12  1  0  0  0
 11 13  1  0  0  0
 13 14  2  0  0  0
 13 15  1  0  0  0
 15 16  1  0  0  0
 16  3  1  0  0  0
  3  4  2  0  0  0
  3  5  1  0  0  0
  4  8  1  0  0  0
  5  6  2  0  0  0
  6  7  1  0  0  0
  7  8  2  0  0  0
  8  1  1  0  0  0
  1 17  1  0  0  0
 17 18  1  0  0  0
 17 20  2  0  0  0
 18 19  2  0  0  0
 19 22  1  0  0  0
 20 21  1  0  0  0
 21 22  2  0  0  0
 22 23  1  0  0  0
 23 24  2  0  0  0
 23 25  2  0  0  0
 23 26  1  0  0  0
 26 28  1  0  0  0
 28 29  1  0  0  0
 29 30  1  0  0  0
 30 31  1  0  0  0
  1  2  1  0  0  0
 26 27  1  0  0  0
M  END
> <minimizedAffinity>
-8.72758

$$$$
2XMY_CDK_A_500


 31 33  0  0  0  0  0  0  0  0999 V2000
   28.7811   27.5382   23.3050 N   0  0  0  0  0  0  0  0  0  0  0  0
   29.0903   27.8706   22.4314 H   0  0  0  0  0  0  0  0  0  0  0  0
   27.9595   29.6399   26.0507 C   0  0  0  0  0  0  0  0  0  0  0  0
   27.7820   28.7463   25.0604 N   0  0  0  0  0  0  0  0  0  0  0  0
   29.2159   30.1885   26.2820 C   0  0  0  0  0  0  0  0  0  0  0  0
   30.2716   29.8123   25.4680 C   0  0  0  0  0  0  0  0  0  0  0  0
   30.0606   28.9265   24.5113 N   0  0  0  0  0  0  0  0  0  0  0  0
   28.8496   28.3864   24.3187 C   0  0  0  0  0  0  0  0  0  0  0  0
   25.6009   27.7638   26.7500 C   0  0  0  0  0  0  0  0  0  0  0  0
   25.7925   29.2051   27.2241 C   0  0  0  0  0  0  0  0  0  0  0  0
   24.9160   29.8336   28.0240 N   0  0  0  0  0  0  0  0  0  0  0  0
   23.6871   29.1835   28.5292 C   0  0  0  0  0  0  0  0  0  0  0  0
   25.2395   31.0958   28.3425 C   0  0  0  0  0  0  0  0  0  0  0  0
   24.5887   31.8366   29.0771 O   0  0  0  0  0  0  0  0  0  0  0  0
   26.7210   31.5097   27.6126 S   0  0  0  0  0  0  0  0  0  0  0  0
   26.9081   29.9833   26.8954 C   0  0  0  0  0  0  0  0  0  0  0  0
   28.3409   26.2901   23.3411 C   0  0  0  0  0  0  0  0  0  0  0  0
   28.2623   25.6660   22.1023 C   0  0  0  0  0  0  0  0  0  0  0  0
   27.8535   24.3500   21.9824 C   0  0  0  0  0  0  0  0  0  0  0  0
   28.0309   25.5944   24.5016 C   0  0  0  0  0  0  0  0  0  0  0  0
   27.6310   24.2608   24.3916 C   0  0  0  0  0  0  0  0  0  0  0  0
   27.5372   23.6505   23.1383 C   0  0  0  0  0  0  0  0  0  0  0  0
   27.0728   21.9782   22.9340 S   0  0  0  0  0  0  0  0  0  0  0  0
   25.8089   21.9440   22.1244 O   0  0  0  0  0  0  0  0  0  0  0  0
   26.7531   21.4073   24.2954 O   0  0  0  0  0  0  0  0  0  0  0  0
   28.2447   21.0949   22.1985 N   0  0  0  0  0  0  0  0  0  0  0  0
   28.1350   20.1126   22.4503 H   0  0  0  0  0  0  0  0  0  0  0  0
   28.1423   21.2378   20.7343 C   0  0  0  0  0  0  0  0  0  0  0  0
   29.4838   21.6613   20.1181 C   0  0  0  0  0  0  0  0  0  0  0  0
   30.0269   20.6829   19.1945 O   0  0  0  0  0  0  0  0  0  0  0  0
   30.0546   19.4004   19.8156 C   0  0  0  0  0  0  0  0  0  0  0  0
  9 10  1  0  0  0
 10 11  1  0  0  0
 10 16  2  0  0  0
 11 12  1  0  0  0
 11 13  1  0  0  0
 13 14  2  0  0  0
 13 15  1  0  0  0
 15 16  1  0  0  0
 16  3  1  0  0  0
  3  4  2  0  0  0
  3  5  1  0  0  0
  4  8  1  0  0  0
  5  6  2  0  0  0
  6  7  1  0  0  0
  7  8  2  0  0  0
  8  1  1  0  0  0
  1 17  1  0  0  0
 17 18  1  0  0  0
 17 20  2  0  0  0
 18 19  2  0  0  0
 19 22  1  0  0  0
 20 21  1  0  0  0
 21 22  2  0  0  0
 22 23  1  0  0  0
 23 24  2  0  0  0
 23 25  2  0  0  0
 23 26  1  0  0  0
 26 28  1  0  0  0
 28 29  1  0  0  0
 29 30  1  0  0  0
 30 31  1  0  0  0
  1  2  1  0  0  0
 26 27  1  0  0  0
M  END
> <minimizedAffinity>
-8.62817

$$$$
2XMY_CDK_A_500


 31 33  0  0  0  0  0  0  0  0999 V2000
   22.8917   26.9442   26.4260 N   0  0  0  0  0  0  0  0  0  0  0  0
   22.2302   27.3455   25.8172 H   0  0  0  0  0  0  0  0  0  0  0  0
   26.2682   27.2907   25.3724 C   0  0  0  0  0  0  0  0  0  0  0  0
   25.0926   27.6205   25.9378 N   0  0  0  0  0  0  0  0  0  0  0  0
   26.4325   26.0474   24.7722 C   0  0  0  0  0  0  0  0  0  0  0  0
   25.3640   25.1662   24.7530 C   0  0  0  0  0  0  0  0  0  0  0  0
   24.2281   25.5220   25.3254 N   0  0  0  0  0  0  0  0  0  0  0  0
   24.0943   26.7133   25.9237 C   0  0  0  0  0  0  0  0  0  0  0  0
   26.4768   29.6915   27.3127 C   0  0  0  0  0  0  0  0  0  0  0  0
   27.4994   29.2843   26.2510 C   0  0  0  0  0  0  0  0  0  0  0  0
   28.6409   29.9591   26.0395 N   0  0  0  0  0  0  0  0  0  0  0  0
   29.0188   31.1551   26.8235 C   0  0  0  0  0  0  0  0  0  0  0  0
   29.4233   29.4643   25.0687 C   0  0  0  0  0  0  0  0  0  0  0  0
   30.5163   29.9160   24.7320 O   0  0  0  0  0  0  0  0  0  0  0  0
   28.6969   28.0785   24.3973 S   0  0  0  0  0  0  0  0  0  0  0  0
   27.3540   28.1594   25.4313 C   0  0  0  0  0  0  0  0  0  0  0  0
   22.4839   26.6926   27.6602 C   0  0  0  0  0  0  0  0  0  0  0  0
   21.8834   25.4516   27.8317 C   0  0  0  0  0  0  0  0  0  0  0  0
   21.4377   25.0313   29.0720 C   0  0  0  0  0  0  0  0  0  0  0  0
   22.6745   27.5392   28.7437 C   0  0  0  0  0  0  0  0  0  0  0  0
   22.2407   27.1173   30.0024 C   0  0  0  0  0  0  0  0  0  0  0  0
   21.6205   25.8751   30.1583 C   0  0  0  0  0  0  0  0  0  0  0  0
   21.0825   25.2755   31.7091 S   0  0  0  0  0  0  0  0  0  0  0  0
   21.9816   24.1399   32.1041 O   0  0  0  0  0  0  0  0  0  0  0  0
   19.6909   24.7128   31.5408 O   0  0  0  0  0  0  0  0  0  0  0  0
   21.0973   26.4422   32.8637 N   0  0  0  0  0  0  0  0  0  0  0  0
   21.2613   27.3486   32.4256 H   0  0  0  0  0  0  0  0  0  0  0  0
   19.8042   26.4695   33.5722 C   0  0  0  0  0  0  0  0  0  0  0  0
   19.2796   27.9050   33.7244 C   0  0  0  0  0  0  0  0  0  0  0  0
   17.8337   27.9999   33.6503 O   0  0  0  0  0  0  0  0  0  0  0  0
   17.2868   26.7308   33.3015 C   0  0  0  0  0  0  0  0  0  0  0  0
  9 10  1  0  0  0
 10 11  1  0  0  0
 10 16  2  0  0  0
 11 12  1  0  0  0
 11 13  1  0  0  0
 13 14  2  0  0  0
 13 15  1  0  0  0
 15 16  1  0  0  0
 16  3  1  0  0  0
  3  4  2  0  0  0
  3  5  1  0  0  0
  4  8  1  0  0  0
  5  6  2  0  0  0
  6  7  1  0  0  0
  7  8  2  0  0  0
  8  1  1  0  0  0
  1 17  1  0  0  0
 17 18  1  0  0  0
 17 20  2  0  0  0
 18 19  2  0  0  0
 19 22  1  0  0  0
 20 21  1  0  0  0
 21 22  2  0  0  0
 22 23  1  0  0  0
 23 24  2  0  0  0
 23 25  2  0  0  0
 23 26  1  0  0  0
 26 28  1  0  0  0
 28 29  1  0  0  0
 29 30  1  0  0  0
 30 31  1  0  0  0
  1  2  1  0  0  0
 26 27  1  0  0  0
M  END
> <minimizedAffinity>
-8.60485

$$$$
2XMY_CDK_A_500


 31 33  0  0  0  0  0  0  0  0999 V2000
   22.9136   26.9285   26.2757 N   0  0  0  0  0  0  0  0  0  0  0  0
   22.2535   27.2050   25.5996 H   0  0  0  0  0  0  0  0  0  0  0  0
   26.3306   27.2758   25.3622 C   0  0  0  0  0  0  0  0  0  0  0  0
   25.1254   27.6146   25.8555 N   0  0  0  0  0  0  0  0  0  0  0  0
   26.5397   26.0067   24.8342 C   0  0  0  0  0  0  0  0  0  0  0  0
   25.4854   25.1086   24.8109 C   0  0  0  0  0  0  0  0  0  0  0  0
   24.3193   25.4744   25.3116 N   0  0  0  0  0  0  0  0  0  0  0  0
   24.1414   26.6920   25.8417 C   0  0  0  0  0  0  0  0  0  0  0  0
   26.5100   29.6489   27.3391 C   0  0  0  0  0  0  0  0  0  0  0  0
   27.5315   29.2778   26.2631 C   0  0  0  0  0  0  0  0  0  0  0  0
   28.6585   29.9772   26.0536 N   0  0  0  0  0  0  0  0  0  0  0  0
   29.0203   31.1675   26.8537 C   0  0  0  0  0  0  0  0  0  0  0  0
   29.4421   29.5127   25.0690 C   0  0  0  0  0  0  0  0  0  0  0  0
   30.5237   29.9901   24.7311 O   0  0  0  0  0  0  0  0  0  0  0  0
   28.7363   28.1243   24.3811 S   0  0  0  0  0  0  0  0  0  0  0  0
   27.4004   28.1636   25.4266 C   0  0  0  0  0  0  0  0  0  0  0  0
   22.4789   26.8327   27.5226 C   0  0  0  0  0  0  0  0  0  0  0  0
   21.6334   25.7566   27.7617 C   0  0  0  0  0  0  0  0  0  0  0  0
   21.1263   25.5043   29.0238 C   0  0  0  0  0  0  0  0  0  0  0  0
   22.8579   27.6750   28.5589 C   0  0  0  0  0  0  0  0  0  0  0  0
   22.3624   27.4196   29.8394 C   0  0  0  0  0  0  0  0  0  0  0  0
   21.4972   26.3457   30.0630 C   0  0  0  0  0  0  0  0  0  0  0  0
   20.8664   25.9539   31.6449 S   0  0  0  0  0  0  0  0  0  0  0  0
   19.3923   25.7045   31.5071 O   0  0  0  0  0  0  0  0  0  0  0  0
   21.0391   27.1622   32.5346 O   0  0  0  0  0  0  0  0  0  0  0  0
   21.6071   24.6440   32.3006 N   0  0  0  0  0  0  0  0  0  0  0  0
   21.9567   24.8832   33.2284 H   0  0  0  0  0  0  0  0  0  0  0  0
   20.6520   23.5258   32.4123 C   0  0  0  0  0  0  0  0  0  0  0  0
   20.8044   22.5408   31.2438 C   0  0  0  0  0  0  0  0  0  0  0  0
   19.6462   22.5004   30.3708 O   0  0  0  0  0  0  0  0  0  0  0  0
   19.8113   21.4680   29.4021 C   0  0  0  0  0  0  0  0  0  0  0  0
  9 10  1  0  0  0
 10 11  1  0  0  0
 10 16  2  0  0  0
 11 12  1  0  0  0
 11 13  1  0  0  0
 13 14  2  0  0  0
 13 15  1  0  0  0
 15 16  1  0  0  0
 16  3  1  0  0  0
  3  4  2  0  0  0
  3  5  1  0  0  0
  4  8  1  0  0  0
  5  6  2  0  0  0
  6  7  1  0  0  0
  7  8  2  0  0  0
  8  1  1  0  0  0
  1 17  1  0  0  0
 17 18  1  0  0  0
 17 20  2  0  0  0
 18 19  2  0  0  0
 19 22  1  0  0  0
 20 21  1  0  0  0
 21 22  2  0  0  0
 22 23  1  0  0  0
 23 24  2  0  0  0
 23 25  2  0  0  0
 23 26  1  0  0  0
 26 28  1  0  0  0
 28 29  1  0  0  0
 29 30  1  0  0  0
 30 31  1  0  0  0
  1  2  1  0  0  0
 26 27  1  0  0  0
M  END
> <minimizedAffinity>
-8.54461

$$$$
2XMY_CDK_A_500


 31 33  0  0  0  0  0  0  0  0999 V2000
   27.0648   29.4981   26.7696 N   0  0  0  0  0  0  0  0  0  0  0  0
   27.8105   30.1305   26.8839 H   0  0  0  0  0  0  0  0  0  0  0  0
   23.9827   29.0814   28.4894 C   0  0  0  0  0  0  0  0  0  0  0  0
   25.0360   28.7678   27.7130 N   0  0  0  0  0  0  0  0  0  0  0  0
   23.8927   30.3403   29.0727 C   0  0  0  0  0  0  0  0  0  0  0  0
   24.8939   31.2655   28.8275 C   0  0  0  0  0  0  0  0  0  0  0  0
   25.9163   30.9187   28.0667 N   0  0  0  0  0  0  0  0  0  0  0  0
   26.0019   29.6922   27.5341 C   0  0  0  0  0  0  0  0  0  0  0  0
   23.1924   26.7701   26.5908 C   0  0  0  0  0  0  0  0  0  0  0  0
   22.5639   27.0927   27.9471 C   0  0  0  0  0  0  0  0  0  0  0  0
   21.5572   26.3774   28.4744 N   0  0  0  0  0  0  0  0  0  0  0  0
   20.9700   25.2027   27.7939 C   0  0  0  0  0  0  0  0  0  0  0  0
   21.1255   26.7992   29.6723 C   0  0  0  0  0  0  0  0  0  0  0  0
   20.2329   26.2744   30.3356 O   0  0  0  0  0  0  0  0  0  0  0  0
   22.0348   28.1514   30.1660 S   0  0  0  0  0  0  0  0  0  0  0  0
   23.0003   28.1365   28.7707 C   0  0  0  0  0  0  0  0  0  0  0  0
   27.2315   28.5436   25.8674 C   0  0  0  0  0  0  0  0  0  0  0  0
   27.0834   27.2512   26.3552 C   0  0  0  0  0  0  0  0  0  0  0  0
   27.1934   26.1500   25.5253 C   0  0  0  0  0  0  0  0  0  0  0  0
   27.4721   28.7642   24.5182 C   0  0  0  0  0  0  0  0  0  0  0  0
   27.5705   27.6591   23.6700 C   0  0  0  0  0  0  0  0  0  0  0  0
   27.4391   26.3636   24.1765 C   0  0  0  0  0  0  0  0  0  0  0  0
   27.5215   24.9408   23.1651 S   0  0  0  0  0  0  0  0  0  0  0  0
   26.1199   24.5635   22.7812 O   0  0  0  0  0  0  0  0  0  0  0  0
   28.0849   23.8075   23.9895 O   0  0  0  0  0  0  0  0  0  0  0  0
   28.4334   25.1866   21.8226 N   0  0  0  0  0  0  0  0  0  0  0  0
   29.4180   25.0560   22.0548 H   0  0  0  0  0  0  0  0  0  0  0  0
   28.0496   24.2298   20.7680 C   0  0  0  0  0  0  0  0  0  0  0  0
   28.7712   22.8853   20.9426 C   0  0  0  0  0  0  0  0  0  0  0  0
   29.8054   22.6547   19.9514 O   0  0  0  0  0  0  0  0  0  0  0  0
   30.2904   21.3194   20.0658 C   0  0  0  0  0  0  0  0  0  0  0  0
  9 10  1  0  0  0
 10 11  1  0  0  0
 10 16  2  0  0  0
 11 12  1  0  0  0
 11 13  1  0  0  0
 13 14  2  0  0  0
 13 15  1  0  0  0
 15 16  1  0  0  0
 16  3  1  0  0  0
  3  4  2  0  0  0
  3  5  1  0  0  0
  4  8  1  0  0  0
  5  6  2  0  0  0
  6  7  1  0  0  0
  7  8  2  0  0  0
  8  1  1  0  0  0
  1 17  1  0  0  0
 17 18  1  0  0  0
 17 20  2  0  0  0
 18 19  2  0  0  0
 19 22  1  0  0  0
 20 21  1  0  0  0
 21 22  2  0  0  0
 22 23  1  0  0  0
 23 24  2  0  0  0
 23 25  2  0  0  0
 23 26  1  0  0  0
 26 28  1  0  0  0
 28 29  1  0  0  0
 29 30  1  0  0  0
 30 31  1  0  0  0
  1  2  1  0  0  0
 26 27  1  0  0  0
M  END
> <minimizedAffinity>
-8.52435

$$$$
2XMY_CDK_A_500


 31 33  0  0  0  0  0  0  0  0999 V2000
   29.1956   27.4754   23.5462 N   0  0  0  0  0  0  0  0  0  0  0  0
   29.7673   27.6282   22.7594 H   0  0  0  0  0  0  0  0  0  0  0  0
   28.1912   29.7771   26.0610 C   0  0  0  0  0  0  0  0  0  0  0  0
   28.0918   28.7749   25.1686 N   0  0  0  0  0  0  0  0  0  0  0  0
   29.3986   30.4446   26.2329 C   0  0  0  0  0  0  0  0  0  0  0  0
   30.4864   30.0714   25.4610 C   0  0  0  0  0  0  0  0  0  0  0  0
   30.3528   29.0777   24.6012 N   0  0  0  0  0  0  0  0  0  0  0  0
   29.1897   28.4263   24.4668 C   0  0  0  0  0  0  0  0  0  0  0  0
   25.8953   27.8457   26.8165 C   0  0  0  0  0  0  0  0  0  0  0  0
   26.0198   29.3165   27.2164 C   0  0  0  0  0  0  0  0  0  0  0  0
   25.1029   29.9499   27.9655 N   0  0  0  0  0  0  0  0  0  0  0  0
   23.8908   29.2777   28.4822 C   0  0  0  0  0  0  0  0  0  0  0  0
   25.3693   31.2393   28.2220 C   0  0  0  0  0  0  0  0  0  0  0  0
   24.6747   31.9905   28.9041 O   0  0  0  0  0  0  0  0  0  0  0  0
   26.8477   31.6744   27.4981 S   0  0  0  0  0  0  0  0  0  0  0  0
   27.1100   30.1213   26.8670 C   0  0  0  0  0  0  0  0  0  0  0  0
   28.5143   26.3405   23.5712 C   0  0  0  0  0  0  0  0  0  0  0  0
   28.2391   25.8007   22.3210 C   0  0  0  0  0  0  0  0  0  0  0  0
   27.5657   24.6000   22.1861 C   0  0  0  0  0  0  0  0  0  0  0  0
   28.1374   25.6699   24.7268 C   0  0  0  0  0  0  0  0  0  0  0  0
   27.4697   24.4498   24.6006 C   0  0  0  0  0  0  0  0  0  0  0  0
   27.1816   23.9272   23.3373 C   0  0  0  0  0  0  0  0  0  0  0  0
   26.3767   22.3927   23.1106 S   0  0  0  0  0  0  0  0  0  0  0  0
   27.1098   21.3611   23.9184 O   0  0  0  0  0  0  0  0  0  0  0  0
   26.5043   22.0029   21.6569 O   0  0  0  0  0  0  0  0  0  0  0  0
   24.7979   22.4492   23.5564 N   0  0  0  0  0  0  0  0  0  0  0  0
   24.2691   21.7670   23.0129 H   0  0  0  0  0  0  0  0  0  0  0  0
   24.6660   22.1375   24.9918 C   0  0  0  0  0  0  0  0  0  0  0  0
   23.1915   22.0283   25.4076 C   0  0  0  0  0  0  0  0  0  0  0  0
   22.7298   23.1584   26.1917 O   0  0  0  0  0  0  0  0  0  0  0  0
   21.6076   22.7694   26.9795 C   0  0  0  0  0  0  0  0  0  0  0  0
  9 10  1  0  0  0
 10 11  1  0  0  0
 10 16  2  0  0  0
 11 12  1  0  0  0
 11 13  1  0  0  0
 13 14  2  0  0  0
 13 15  1  0  0  0
 15 16  1  0  0  0
 16  3  1  0  0  0
  3  4  2  0  0  0
  3  5  1  0  0  0
  4  8  1  0  0  0
  5  6  2  0  0  0
  6  7  1  0  0  0
  7  8  2  0  0  0
  8  1  1  0  0  0
  1 17  1  0  0  0
 17 18  1  0  0  0
 17 20  2  0  0  0
 18 19  2  0  0  0
 19 22  1  0  0  0
 20 21  1  0  0  0
 21 22  2  0  0  0
 22 23  1  0  0  0
 23 24  2  0  0  0
 23 25  2  0  0  0
 23 26  1  0  0  0
 26 28  1  0  0  0
 28 29  1  0  0  0
 29 30  1  0  0  0
 30 31  1  0  0  0
  1  2  1  0  0  0
 26 27  1  0  0  0
M  END
> <minimizedAffinity>
-8.45814

$$$$
2XMY_CDK_A_500


 31 33  0  0  0  0  0  0  0  0999 V2000
   22.9249   28.7834   29.1505 N   0  0  0  0  0  0  0  0  0  0  0  0
   22.6205   29.4327   29.8249 H   0  0  0  0  0  0  0  0  0  0  0  0
   21.4414   25.6264   29.8316 C   0  0  0  0  0  0  0  0  0  0  0  0
   22.1518   26.7489   30.0463 N   0  0  0  0  0  0  0  0  0  0  0  0
   20.8238   25.4124   28.6045 C   0  0  0  0  0  0  0  0  0  0  0  0
   20.9665   26.3634   27.6076 C   0  0  0  0  0  0  0  0  0  0  0  0
   21.6647   27.4562   27.8581 N   0  0  0  0  0  0  0  0  0  0  0  0
   22.2310   27.6603   29.0550 C   0  0  0  0  0  0  0  0  0  0  0  0
   19.4229   25.9450   32.1546 C   0  0  0  0  0  0  0  0  0  0  0  0
   20.4012   24.7879   31.9474 C   0  0  0  0  0  0  0  0  0  0  0  0
   20.4918   23.7479   32.7920 N   0  0  0  0  0  0  0  0  0  0  0  0
   19.6439   23.6216   33.9974 C   0  0  0  0  0  0  0  0  0  0  0  0
   21.4033   22.8218   32.4591 C   0  0  0  0  0  0  0  0  0  0  0  0
   21.6291   21.7855   33.0812 O   0  0  0  0  0  0  0  0  0  0  0  0
   22.1753   23.2721   31.0099 S   0  0  0  0  0  0  0  0  0  0  0  0
   21.2621   24.6931   30.8483 C   0  0  0  0  0  0  0  0  0  0  0  0
   23.9848   29.1262   28.4351 C   0  0  0  0  0  0  0  0  0  0  0  0
   24.4776   30.3979   28.7000 C   0  0  0  0  0  0  0  0  0  0  0  0
   25.6019   30.8840   28.0572 C   0  0  0  0  0  0  0  0  0  0  0  0
   24.6285   28.2958   27.5278 C   0  0  0  0  0  0  0  0  0  0  0  0
   25.7727   28.7728   26.8845 C   0  0  0  0  0  0  0  0  0  0  0  0
   26.2469   30.0608   27.1452 C   0  0  0  0  0  0  0  0  0  0  0  0
   27.6886   30.7063   26.3975 S   0  0  0  0  0  0  0  0  0  0  0  0
   28.8571   30.3717   27.2789 O   0  0  0  0  0  0  0  0  0  0  0  0
   27.5674   32.2114   26.3596 O   0  0  0  0  0  0  0  0  0  0  0  0
   27.9244   30.1082   24.8872 N   0  0  0  0  0  0  0  0  0  0  0  0
   27.9571   30.8792   24.2202 H   0  0  0  0  0  0  0  0  0  0  0  0
   29.1944   29.3606   24.8315 C   0  0  0  0  0  0  0  0  0  0  0  0
   29.0044   27.9823   24.1810 C   0  0  0  0  0  0  0  0  0  0  0  0
   28.1342   27.1033   24.9395 O   0  0  0  0  0  0  0  0  0  0  0  0
   27.0788   26.6350   24.1040 C   0  0  0  0  0  0  0  0  0  0  0  0
  9 10  1  0  0  0
 10 11  1  0  0  0
 10 16  2  0  0  0
 11 12  1  0  0  0
 11 13  1  0  0  0
 13 14  2  0  0  0
 13 15  1  0  0  0
 15 16  1  0  0  0
 16  3  1  0  0  0
  3  4  2  0  0  0
  3  5  1  0  0  0
  4  8  1  0  0  0
  5  6  2  0  0  0
  6  7  1  0  0  0
  7  8  2  0  0  0
  8  1  1  0  0  0
  1 17  1  0  0  0
 17 18  1  0  0  0
 17 20  2  0  0  0
 18 19  2  0  0  0
 19 22  1  0  0  0
 20 21  1  0  0  0
 21 22  2  0  0  0
 22 23  1  0  0  0
 23 24  2  0  0  0
 23 25  2  0  0  0
 23 26  1  0  0  0
 26 28  1  0  0  0
 28 29  1  0  0  0
 29 30  1  0  0  0
 30 31  1  0  0  0
  1  2  1  0  0  0
 26 27  1  0  0  0
M  END
> <minimizedAffinity>
-8.36680

$$$$
2XMY_CDK_A_500


 31 33  0  0  0  0  0  0  0  0999 V2000
   22.6378   29.1504   28.5035 N   0  0  0  0  0  0  0  0  0  0  0  0
   21.8673   29.6888   28.2106 H   0  0  0  0  0  0  0  0  0  0  0  0
   25.9576   29.6821   27.3515 C   0  0  0  0  0  0  0  0  0  0  0  0
   24.7575   29.0877   27.4827 N   0  0  0  0  0  0  0  0  0  0  0  0
   26.2384   30.8538   28.0453 C   0  0  0  0  0  0  0  0  0  0  0  0
   25.2709   31.3854   28.8819 C   0  0  0  0  0  0  0  0  0  0  0  0
   24.1020   30.7782   28.9788 N   0  0  0  0  0  0  0  0  0  0  0  0
   23.8371   29.6646   28.2824 C   0  0  0  0  0  0  0  0  0  0  0  0
   25.9777   26.7732   26.2979 C   0  0  0  0  0  0  0  0  0  0  0  0
   27.0072   27.8621   25.9922 C   0  0  0  0  0  0  0  0  0  0  0  0
   28.0750   27.6572   25.2041 N   0  0  0  0  0  0  0  0  0  0  0  0
   28.3477   26.3589   24.5499 C   0  0  0  0  0  0  0  0  0  0  0  0
   28.8762   28.7209   25.0431 C   0  0  0  0  0  0  0  0  0  0  0  0
   29.8895   28.7534   24.3472 O   0  0  0  0  0  0  0  0  0  0  0  0
   28.2529   30.0452   25.9129 S   0  0  0  0  0  0  0  0  0  0  0  0
   26.9122   29.1713   26.4770 C   0  0  0  0  0  0  0  0  0  0  0  0
   22.3642   27.9887   29.0767 C   0  0  0  0  0  0  0  0  0  0  0  0
   21.9158   28.0798   30.3884 C   0  0  0  0  0  0  0  0  0  0  0  0
   21.5564   26.9541   31.1076 C   0  0  0  0  0  0  0  0  0  0  0  0
   22.4408   26.7565   28.4420 C   0  0  0  0  0  0  0  0  0  0  0  0
   22.0665   25.6158   29.1555 C   0  0  0  0  0  0  0  0  0  0  0  0
   21.6358   25.7187   30.4806 C   0  0  0  0  0  0  0  0  0  0  0  0
   21.1251   24.3354   31.4184 S   0  0  0  0  0  0  0  0  0  0  0  0
   20.0047   23.6626   30.6793 O   0  0  0  0  0  0  0  0  0  0  0  0
   20.5660   24.8344   32.7298 O   0  0  0  0  0  0  0  0  0  0  0  0
   22.3520   23.2767   31.6798 N   0  0  0  0  0  0  0  0  0  0  0  0
   22.4328   23.0940   32.6800 H   0  0  0  0  0  0  0  0  0  0  0  0
   22.0869   22.0102   30.9722 C   0  0  0  0  0  0  0  0  0  0  0  0
   23.1403   21.7446   29.8865 C   0  0  0  0  0  0  0  0  0  0  0  0
   22.6445   21.9579   28.5397 O   0  0  0  0  0  0  0  0  0  0  0  0
   23.4138   21.1898   27.6180 C   0  0  0  0  0  0  0  0  0  0  0  0
  9 10  1  0  0  0
 10 11  1  0  0  0
 10 16  2  0  0  0
 11 12  1  0  0  0
 11 13  1  0  0  0
 13 14  2  0  0  0
 13 15  1  0  0  0
 15 16  1  0  0  0
 16  3  1  0  0  0
  3  4  2  0  0  0
  3  5  1  0  0  0
  4  8  1  0  0  0
  5  6  2  0  0  0
  6  7  1  0  0  0
  7  8  2  0  0  0
  8  1  1  0  0  0
  1 17  1  0  0  0
 17 18  1  0  0  0
 17 20  2  0  0  0
 18 19  2  0  0  0
 19 22  1  0  0  0
 20 21  1  0  0  0
 21 22  2  0  0  0
 22 23  1  0  0  0
 23 24  2  0  0  0
 23 25  2  0  0  0
 23 26  1  0  0  0
 26 28  1  0  0  0
 28 29  1  0  0  0
 29 30  1  0  0  0
 30 31  1  0  0  0
  1  2  1  0  0  0
 26 27  1  0  0  0
M  END
> <minimizedAffinity>
-8.28117

$$$$
