1DRV_A3D_A_301
  RCSB PDB12061702183D
Coordinates from PDB:1DRV:A:301 Model:1 without hydrogens
 44 48  0  0  0  0            999 V2000
    6.4970   29.2330   18.0680   P 0  0  0  0  0  0  0  0  0  0  0  0
    5.3980   30.0940   17.5830   O 0  0  0  0  0  0  0  0  0  0  0  0
    6.1500   27.8390   17.7880   O 0  0  0  0  0  0  0  0  0  0  0  0
    7.7020   29.5480   17.0490   O 0  0  0  0  0  0  0  0  0  0  0  0
    8.5670   28.5130   16.6890   C 0  0  0  0  0  0  0  0  0  0  0  0
    9.4700   29.0540   15.6130   C 0  0  0  0  0  0  0  0  0  0  0  0
   10.5320   28.1480   15.1970   O 0  0  0  0  0  0  0  0  0  0  0  0
    8.7450   29.3410   14.3100   C 0  0  0  0  0  0  0  0  0  0  0  0
    9.4710   30.4400   13.7270   O 0  0  0  0  0  0  0  0  0  0  0  0
    8.9610   28.0290   13.5330   C 0  0  0  0  0  0  0  0  0  0  0  0
    8.7910   28.0200   12.1220   O 0  0  0  0  0  0  0  0  0  0  0  0
   10.4430   27.9030   13.7930   C 0  0  0  0  0  0  0  0  0  0  0  0
   10.7570   26.5140   13.6130   N 0  0  0  0  0  0  0  0  0  0  0  0
   10.0530   25.4580   14.1710   C 0  0  0  0  0  0  0  0  0  0  0  0
   10.6750   24.3110   13.9940   N 0  0  0  0  0  0  0  0  0  0  0  0
   11.7870   24.6160   13.2010   C 0  0  0  0  0  0  0  0  0  0  0  0
   12.7970   23.8220   12.6320   C 0  0  0  0  0  0  0  0  0  0  0  0
   12.9190   22.4810   12.7890   N 0  0  0  0  0  0  0  0  0  0  0  0
   13.7270   24.4810   11.8820   N 0  0  0  0  0  0  0  0  0  0  0  0
   13.6990   25.8180   11.7870   C 0  0  0  0  0  0  0  0  0  0  0  0
   12.7910   26.6600   12.2690   N 0  0  0  0  0  0  0  0  0  0  0  0
   11.8560   25.9810   12.9580   C 0  0  0  0  0  0  0  0  0  0  0  0
    7.0600   29.2950   19.4720   O 0  0  0  0  0  0  0  0  0  0  0  0
    7.8060   30.2900   20.2670   P 0  0  0  0  0  0  0  0  0  0  0  0
    6.6080   30.3520   21.1000   O 0  0  0  0  0  0  0  0  0  0  0  0
    8.3120   31.5280   19.6720   O 0  5  0  0  0  0  0  0  0  0  0  0
    8.9590   29.5430   21.0360   O 0  0  0  0  0  0  0  0  0  0  0  0
   10.2430   29.9480   20.4760   C 0  0  0  0  0  0  0  0  0  0  0  0
   11.4100   29.2300   21.1560   C 0  0  0  0  0  0  0  0  0  0  0  0
   12.1450   30.0880   22.0870   O 0  0  0  0  0  0  0  0  0  0  0  0
   10.9120   28.0460   21.9890   C 0  0  0  0  0  0  0  0  0  0  0  0
   11.7480   26.8430   22.0890   O 0  0  0  0  0  0  0  0  0  0  0  0
   10.7110   28.7030   23.3330   C 0  0  0  0  0  0  0  0  0  0  0  0
   10.7130   27.7190   24.3500   O 0  0  0  0  0  0  0  0  0  0  0  0
   11.9160   29.6350   23.4410   C 0  0  0  0  0  0  0  0  0  0  0  0
   11.5890   30.7520   24.3630   N 0  3  0  0  0  0  0  0  0  0  0  0
   12.5450   31.1780   25.1900   C 0  0  0  0  0  0  0  0  0  0  0  0
   12.5600   32.2140   26.0230   C 0  0  0  0  0  0  0  0  0  0  0  0
   13.6550   32.5050   26.8740   C 0  0  0  0  0  0  0  0  0  0  0  0
   13.4710   33.2660   27.8420   O 0  0  0  0  0  0  0  0  0  0  0  0
   14.9910   31.7760   26.7090   C 0  0  0  0  0  0  0  0  0  0  0  0
   11.3770   32.8740   25.9620   C 0  0  0  0  0  0  0  0  0  0  0  0
   10.2740   32.5470   25.1700   C 0  0  0  0  0  0  0  0  0  0  0  0
   10.3830   31.3930   24.3650   C 0  0  0  0  0  0  0  0  0  0  0  0
  1  2  2  0  0  0  0
  1  3  1  0  0  0  0
  1  4  1  0  0  0  0
  1 23  1  0  0  0  0
  4  5  1  0  0  0  0
  5  6  1  0  0  0  0
  6  7  1  0  0  0  0
  6  8  1  0  0  0  0
  7 12  1  0  0  0  0
  8  9  1  0  0  0  0
  8 10  1  0  0  0  0
 10 11  1  0  0  0  0
 10 12  1  0  0  0  0
 12 13  1  0  0  0  0
 13 14  1  0  0  0  0
 13 22  1  0  0  0  0
 14 15  2  0  0  0  0
 15 16  1  0  0  0  0
 16 17  2  0  0  0  0
 16 22  1  0  0  0  0
 17 18  1  0  0  0  0
 17 19  1  0  0  0  0
 19 20  2  0  0  0  0
 20 21  1  0  0  0  0
 21 22  2  0  0  0  0
 23 24  1  0  0  0  0
 24 25  2  0  0  0  0
 24 26  1  0  0  0  0
 24 27  1  0  0  0  0
 27 28  1  0  0  0  0
 28 29  1  0  0  0  0
 29 30  1  0  0  0  0
 29 31  1  0  0  0  0
 30 35  1  0  0  0  0
 31 32  1  0  0  0  0
 31 33  1  0  0  0  0
 33 34  1  0  0  0  0
 33 35  1  0  0  0  0
 35 36  1  0  0  0  0
 36 37  2  0  0  0  0
 36 44  1  0  0  0  0
 37 38  1  0  0  0  0
 38 39  1  0  0  0  0
 38 42  2  0  0  0  0
 39 40  2  0  0  0  0
 39 41  1  0  0  0  0
 42 43  1  0  0  0  0
 43 44  2  0  0  0  0
M  CHG  2  26  -1  36   1
A    1
PA
A    2
O1A
A    3
O2A
A    4
O5B
A    5
C5B
A    6
C4B
A    7
O4B
A    8
C3B
A    9
O3B
A   10
C2B
A   11
O2B
A   12
C1B
A   13
N9A
A   14
C8A
A   15
N7A
A   16
C5A
A   17
C6A
A   18
N6A
A   19
N1A
A   20
C2A
A   21
N3A
A   22
C4A
A   23
O3
A   24
PN
A   25
O1N
A   26
O2N
A   27
O5D
A   28
C5D
A   29
C4D
A   30
O4D
A   31
C3D
A   32
O3D
A   33
C2D
A   34
O2D
A   35
C1D
A   36
N1N
A   37
C2N
A   38
C3N
A   39
C7N
A   40
O7N
A   41
C8N
A   42
C4N
A   43
C5N
A   44
C6N
M  END
>  <InstanceId>
1DRV_A3D_A_301

>  <ChemCompId>
A3D

>  <PdbId>
1DRV

>  <ChainId>
A

>  <ResidueNumber>
301

>  <InsertionCode>


>  <Model>
1

>  <AltIds>


>  <MissingHeavyAtoms>
0

>  <ObservedFormula>
C22 N6 O14 P2

>  <Name>
3-ACETYLPYRIDINE ADENINE DINUCLEOTIDE

>  <SystematicName>
[[(2R,3S,4R,5R)-5-(6-aminopurin-9-yl)-3,4-dihydroxy-oxolan-2-yl]methoxy-hydroxy-phosphoryl] [(2R,3S,4R,5R)-5-(3-ethanoylpyridin-1-ium-1-yl)-3,4-dihydroxy-oxolan-2-yl]methyl phosphate

>  <Synonyms>


>  <Type>
NON-POLYMER

>  <Formula>
C22 H28 N6 O14 P2

>  <MolecularWeight>
662.437

>  <ModifiedDate>
2012-01-05

>  <Parent>


>  <OneLetterCode>


>  <SubcomponentList>


>  <AmbiguousFlag>
N

>  <InChI>
InChI=1S/C22H28N6O14P2/c1-10(29)11-3-2-4-27(5-11)21-17(32)15(30)12(40-21)6-38-43(34,35)42-44(36,37)39-7-13-16(31)18(33)22(41-13)28-9-26-14-19(23)24-8-25-20(14)28/h2-5,8-9,12-13,15-18,21-22,30-33H,6-7H2,1H3,(H3-,23,24,25,34,35,36,37)/t12-,13-,15-,16-,17-,18-,21-,22-/m1/s1

>  <InChIKey>
KPVQNXLUPNWQHM-RBEMOOQDSA-N

>  <SMILES>
CC(=O)c1ccc[n+](c1)[C@H]2[C@@H]([C@@H]([C@H](O2)COP(=O)([O-])O[P@](=O)(O)OC[C@@H]3[C@H]([C@H]([C@@H](O3)n4cnc5c4ncnc5N)O)O)O)O

$$$$
