1DRV_A3D_A_301


 51 55  0  0  0  0  0  0  0  0999 V2000
    8.3183   30.4843   18.9215 P   0  0  0  0  0  0  0  0  0  0  0  0
    7.9983   31.0840   20.2339 O   0  0  0  0  0  0  0  0  0  0  0  0
    9.1439   31.4306   18.1699 O   0  0  0  0  0  0  0  0  0  0  0  0
    9.8208   31.8050   18.7552 H   0  0  0  0  0  0  0  0  0  0  0  0
    9.3306   29.2886   19.2889 O   0  0  0  0  0  0  0  0  0  0  0  0
    9.4458   28.8899   20.6219 C   0  0  0  0  0  0  0  0  0  0  0  0
   10.7884   29.3688   21.1055 C   0  0  0  0  0  0  0  0  0  0  0  0
   10.7332   30.3788   22.1537 O   0  0  0  0  0  0  0  0  0  0  0  0
   11.6231   28.2712   21.7416 C   0  0  0  0  0  0  0  0  0  0  0  0
   12.9858   28.6485   21.4670 O   0  0  0  0  0  0  0  0  0  0  0  0
   11.2691   28.4292   23.2321 C   0  0  0  0  0  0  0  0  0  0  0  0
   12.1285   27.8670   24.2146 O   0  0  0  0  0  0  0  0  0  0  0  0
   11.4460   29.9269   23.3056 C   0  0  0  0  0  0  0  0  0  0  0  0
   13.1353   29.5596   21.7643 H   0  0  0  0  0  0  0  0  0  0  0  0
   13.0202   28.2350   24.1128 H   0  0  0  0  0  0  0  0  0  0  0  0
   10.6793   30.3581   24.4398 N   0  0  0  0  0  0  0  0  0  0  0  0
    9.3322   30.0974   24.6380 C   0  0  0  0  0  0  0  0  0  0  0  0
    8.8514   30.7723   25.6614 N   0  0  0  0  0  0  0  0  0  0  0  0
    9.9547   31.4296   26.2174 C   0  0  0  0  0  0  0  0  0  0  0  0
   10.1031   32.2510   27.3477 C   0  0  0  0  0  0  0  0  0  0  0  0
    9.0991   32.6305   28.1758 N   0  0  0  0  0  0  0  0  0  0  0  0
   11.3654   32.7045   27.5980 N   0  0  0  0  0  0  0  0  0  0  0  0
   12.3650   32.4351   26.7461 C   0  0  0  0  0  0  0  0  0  0  0  0
   12.3404   31.6653   25.6632 N   0  0  0  0  0  0  0  0  0  0  0  0
   11.0982   31.1868   25.4688 C   0  0  0  0  0  0  0  0  0  0  0  0
    8.1810   32.3146   28.0132 H   0  0  0  0  0  0  0  0  0  0  0  0
    9.2881   33.2220   28.9398 H   0  0  0  0  0  0  0  0  0  0  0  0
    7.2784   29.9255   17.9736 O   0  0  0  0  0  0  0  0  0  0  0  0
    6.3114   28.8109   18.0058 P   0  0  0  0  0  0  0  0  0  0  0  0
    5.2915   29.8433   17.8420 O   0  0  0  0  0  0  0  0  0  0  0  0
    6.2168   27.9067   19.1531 O   0  0  0  0  0  0  0  0  0  0  0  0
    6.4634   27.9872   16.6727 O   0  0  0  0  0  0  0  0  0  0  0  0
    7.8760   27.9145   16.3182 C   0  0  0  0  0  0  0  0  0  0  0  0
    8.2251   28.8753   15.1802 C   0  0  0  0  0  0  0  0  0  0  0  0
    9.5950   28.7090   14.6914 O   0  0  0  0  0  0  0  0  0  0  0  0
    7.3210   28.6375   13.9679 C   0  0  0  0  0  0  0  0  0  0  0  0
    6.9266   29.7823   13.1373 O   0  0  0  0  0  0  0  0  0  0  0  0
    8.1388   27.6352   13.1902 C   0  0  0  0  0  0  0  0  0  0  0  0
    7.7312   27.6359   11.8350 O   0  0  0  0  0  0  0  0  0  0  0  0
    9.5648   28.1564   13.3555 C   0  0  0  0  0  0  0  0  0  0  0  0
    7.7178   30.1898   12.7517 H   0  0  0  0  0  0  0  0  0  0  0  0
    7.8055   28.5337   11.4755 H   0  0  0  0  0  0  0  0  0  0  0  0
   10.5190   27.0313   13.1875 N   0  0  0  0  0  0  0  0  0  0  0  0
   11.4831   27.1623   12.2749 C   0  0  0  0  0  0  0  0  0  0  0  0
   12.5182   26.3744   12.0010 C   0  0  0  0  0  0  0  0  0  0  0  0
   12.5045   25.2918   12.8175 C   0  0  0  0  0  0  0  0  0  0  0  0
   11.5604   24.9969   13.8036 C   0  0  0  0  0  0  0  0  0  0  0  0
   10.4882   25.9020   13.9551 C   0  0  0  0  0  0  0  0  0  0  0  0
   13.4372   26.6418   10.9561 C   0  0  0  0  0  0  0  0  0  0  0  0
   13.5272   27.8066   10.5259 O   0  0  0  0  0  0  0  0  0  0  0  0
   14.4144   25.5650   10.4773 C   0  0  0  0  0  0  0  0  0  0  0  0
  1  2  2  0  0  0
  1  3  1  0  0  0
  1  5  1  0  0  0
  1 28  1  0  0  0
  5  6  1  0  0  0
  6  7  1  0  0  0
  7  8  1  0  0  0
  7  9  1  0  0  0
  8 13  1  0  0  0
  9 10  1  0  0  0
  9 11  1  0  0  0
 11 12  1  0  0  0
 11 13  1  0  0  0
 13 16  1  0  0  0
 16 17  1  0  0  0
 16 25  1  0  0  0
 17 18  2  0  0  0
 18 19  1  0  0  0
 19 20  2  0  0  0
 19 25  1  0  0  0
 20 21  1  0  0  0
 20 22  1  0  0  0
 22 23  2  0  0  0
 23 24  1  0  0  0
 24 25  2  0  0  0
 28 29  1  0  0  0
 29 30  2  0  0  0
 29 31  1  0  0  0
 29 32  1  0  0  0
 32 33  1  0  0  0
 33 34  1  0  0  0
 34 35  1  0  0  0
 34 36  1  0  0  0
 35 40  1  0  0  0
 36 37  1  0  0  0
 36 38  1  0  0  0
 38 39  1  0  0  0
 38 40  1  0  0  0
 40 43  1  0  0  0
 43 44  2  0  0  0
 43 48  1  0  0  0
 44 45  1  0  0  0
 45 49  1  0  0  0
 45 46  2  0  0  0
 49 50  2  0  0  0
 49 51  1  0  0  0
 46 47  1  0  0  0
 47 48  2  0  0  0
  3  4  1  0  0  0
 10 14  1  0  0  0
 12 15  1  0  0  0
 21 26  1  0  0  0
 21 27  1  0  0  0
 37 41  1  0  0  0
 39 42  1  0  0  0
M  CHG 1  31  -1
M  CHG 1  43   1
M  END
> <minimizedAffinity>
-11.01070

$$$$
1DRV_A3D_A_301


 51 55  0  0  0  0  0  0  0  0999 V2000
    8.1226   30.2393   21.0146 P   0  0  0  0  0  0  0  0  0  0  0  0
    7.1302   29.4973   21.8201 O   0  0  0  0  0  0  0  0  0  0  0  0
    7.6410   31.6098   20.8358 O   0  0  0  0  0  0  0  0  0  0  0  0
    7.2936   31.9429   21.6779 H   0  0  0  0  0  0  0  0  0  0  0  0
    9.3782   30.3931   22.0094 O   0  0  0  0  0  0  0  0  0  0  0  0
   10.6195   29.8956   21.6084 C   0  0  0  0  0  0  0  0  0  0  0  0
   11.4052   29.6217   22.8627 C   0  0  0  0  0  0  0  0  0  0  0  0
   10.9482   30.3498   24.0386 O   0  0  0  0  0  0  0  0  0  0  0  0
   11.3284   28.1740   23.3144 C   0  0  0  0  0  0  0  0  0  0  0  0
   12.5884   27.9323   23.9690 O   0  0  0  0  0  0  0  0  0  0  0  0
   10.1572   28.2168   24.3135 C   0  0  0  0  0  0  0  0  0  0  0  0
   10.0111   27.1664   25.2597 O   0  0  0  0  0  0  0  0  0  0  0  0
   10.6150   29.4333   25.0818 C   0  0  0  0  0  0  0  0  0  0  0  0
   12.7357   28.6100   24.6471 H   0  0  0  0  0  0  0  0  0  0  0  0
   10.8163   27.1008   25.7967 H   0  0  0  0  0  0  0  0  0  0  0  0
    9.4408   29.9636   25.7145 N   0  0  0  0  0  0  0  0  0  0  0  0
    8.1392   29.7511   25.2870 C   0  0  0  0  0  0  0  0  0  0  0  0
    7.2829   30.5094   25.9394 N   0  0  0  0  0  0  0  0  0  0  0  0
    8.0460   31.1774   26.9037 C   0  0  0  0  0  0  0  0  0  0  0  0
    7.7082   32.0738   27.9316 C   0  0  0  0  0  0  0  0  0  0  0  0
    6.4597   32.5364   28.1866 N   0  0  0  0  0  0  0  0  0  0  0  0
    8.7407   32.5128   28.7081 N   0  0  0  0  0  0  0  0  0  0  0  0
   10.0021   32.1583   28.4241 C   0  0  0  0  0  0  0  0  0  0  0  0
   10.4313   31.3137   27.4924 N   0  0  0  0  0  0  0  0  0  0  0  0
    9.3898   30.8533   26.7759 C   0  0  0  0  0  0  0  0  0  0  0  0
    5.7006   32.2325   27.6383 H   0  0  0  0  0  0  0  0  0  0  0  0
    6.3121   33.1763   28.9201 H   0  0  0  0  0  0  0  0  0  0  0  0
    8.6545   29.7596   19.6808 O   0  0  0  0  0  0  0  0  0  0  0  0
    8.1131   29.6289   18.3140 P   0  0  0  0  0  0  0  0  0  0  0  0
    8.5081   31.0251   18.1481 O   0  0  0  0  0  0  0  0  0  0  0  0
    6.7174   29.2606   18.0708 O   0  0  0  0  0  0  0  0  0  0  0  0
    9.0756   28.6949   17.4893 O   0  0  0  0  0  0  0  0  0  0  0  0
    8.3565   28.1758   16.3318 C   0  0  0  0  0  0  0  0  0  0  0  0
    8.5079   29.0889   15.1140 C   0  0  0  0  0  0  0  0  0  0  0  0
    9.8422   29.0267   14.5148 O   0  0  0  0  0  0  0  0  0  0  0  0
    7.5357   28.6833   14.0031 C   0  0  0  0  0  0  0  0  0  0  0  0
    6.9565   29.7261   13.1468 O   0  0  0  0  0  0  0  0  0  0  0  0
    8.3859   27.7174   13.2140 C   0  0  0  0  0  0  0  0  0  0  0  0
    7.8691   27.5882   11.9030 O   0  0  0  0  0  0  0  0  0  0  0  0
    9.7586   28.3866   13.2209 C   0  0  0  0  0  0  0  0  0  0  0  0
    7.6663   30.1833   12.6691 H   0  0  0  0  0  0  0  0  0  0  0  0
    7.8194   28.4632   11.4873 H   0  0  0  0  0  0  0  0  0  0  0  0
   10.8075   27.3526   13.0331 N   0  0  0  0  0  0  0  0  0  0  0  0
   11.7984   27.6174   12.1802 C   0  0  0  0  0  0  0  0  0  0  0  0
   12.9054   26.9320   11.9115 C   0  0  0  0  0  0  0  0  0  0  0  0
   12.9421   25.8009   12.6585 C   0  0  0  0  0  0  0  0  0  0  0  0
   11.9809   25.3699   13.5756 C   0  0  0  0  0  0  0  0  0  0  0  0
   10.8332   26.1769   13.7276 C   0  0  0  0  0  0  0  0  0  0  0  0
   13.8465   27.3376   10.9328 C   0  0  0  0  0  0  0  0  0  0  0  0
   14.1217   26.5497   10.0089 O   0  0  0  0  0  0  0  0  0  0  0  0
   14.3903   28.7685   10.9140 C   0  0  0  0  0  0  0  0  0  0  0  0
  1  2  2  0  0  0
  1  3  1  0  0  0
  1  5  1  0  0  0
  1 28  1  0  0  0
  5  6  1  0  0  0
  6  7  1  0  0  0
  7  8  1  0  0  0
  7  9  1  0  0  0
  8 13  1  0  0  0
  9 10  1  0  0  0
  9 11  1  0  0  0
 11 12  1  0  0  0
 11 13  1  0  0  0
 13 16  1  0  0  0
 16 17  1  0  0  0
 16 25  1  0  0  0
 17 18  2  0  0  0
 18 19  1  0  0  0
 19 20  2  0  0  0
 19 25  1  0  0  0
 20 21  1  0  0  0
 20 22  1  0  0  0
 22 23  2  0  0  0
 23 24  1  0  0  0
 24 25  2  0  0  0
 28 29  1  0  0  0
 29 30  2  0  0  0
 29 31  1  0  0  0
 29 32  1  0  0  0
 32 33  1  0  0  0
 33 34  1  0  0  0
 34 35  1  0  0  0
 34 36  1  0  0  0
 35 40  1  0  0  0
 36 37  1  0  0  0
 36 38  1  0  0  0
 38 39  1  0  0  0
 38 40  1  0  0  0
 40 43  1  0  0  0
 43 44  2  0  0  0
 43 48  1  0  0  0
 44 45  1  0  0  0
 45 49  1  0  0  0
 45 46  2  0  0  0
 49 50  2  0  0  0
 49 51  1  0  0  0
 46 47  1  0  0  0
 47 48  2  0  0  0
  3  4  1  0  0  0
 10 14  1  0  0  0
 12 15  1  0  0  0
 21 26  1  0  0  0
 21 27  1  0  0  0
 37 41  1  0  0  0
 39 42  1  0  0  0
M  CHG 1  31  -1
M  CHG 1  43   1
M  END
> <minimizedAffinity>
-10.91424

$$$$
1DRV_A3D_A_301


 51 55  0  0  0  0  0  0  0  0999 V2000
    5.8249   28.9217   18.1245 P   0  0  0  0  0  0  0  0  0  0  0  0
    4.3542   28.8651   17.9900 O   0  0  0  0  0  0  0  0  0  0  0  0
    6.2761   27.6964   18.7856 O   0  0  0  0  0  0  0  0  0  0  0  0
    5.8126   26.9341   18.4048 H   0  0  0  0  0  0  0  0  0  0  0  0
    6.3494   28.7651   16.6112 O   0  0  0  0  0  0  0  0  0  0  0  0
    7.3229   27.8041   16.3324 C   0  0  0  0  0  0  0  0  0  0  0  0
    8.3557   28.4695   15.4627 C   0  0  0  0  0  0  0  0  0  0  0  0
    9.5481   27.6708   15.2138 O   0  0  0  0  0  0  0  0  0  0  0  0
    7.8554   28.7703   14.0609 C   0  0  0  0  0  0  0  0  0  0  0  0
    8.5788   29.9513   13.6647 O   0  0  0  0  0  0  0  0  0  0  0  0
    8.3182   27.5224   13.2860 C   0  0  0  0  0  0  0  0  0  0  0  0
    8.4063   27.5766   11.8686 O   0  0  0  0  0  0  0  0  0  0  0  0
    9.7344   27.4959   13.8089 C   0  0  0  0  0  0  0  0  0  0  0  0
    9.5300   29.8027   13.7829 H   0  0  0  0  0  0  0  0  0  0  0  0
    9.0107   28.2897   11.6093 H   0  0  0  0  0  0  0  0  0  0  0  0
   10.1922   26.1465   13.6354 N   0  0  0  0  0  0  0  0  0  0  0  0
    9.6273   25.0295   14.2314 C   0  0  0  0  0  0  0  0  0  0  0  0
   10.3647   23.9543   14.0469 N   0  0  0  0  0  0  0  0  0  0  0  0
   11.4091   24.3655   13.2111 C   0  0  0  0  0  0  0  0  0  0  0  0
   12.4801   23.6770   12.6167 C   0  0  0  0  0  0  0  0  0  0  0  0
   12.7533   22.3600   12.7862 N   0  0  0  0  0  0  0  0  0  0  0  0
   13.3064   24.4209   11.8259 N   0  0  0  0  0  0  0  0  0  0  0  0
   13.1291   25.7452   11.7150 C   0  0  0  0  0  0  0  0  0  0  0  0
   12.1513   26.4911   12.2183 N   0  0  0  0  0  0  0  0  0  0  0  0
   11.3201   25.7257   12.9486 C   0  0  0  0  0  0  0  0  0  0  0  0
   12.1699   21.8052   13.3527 H   0  0  0  0  0  0  0  0  0  0  0  0
   13.5352   21.9585   12.3428 H   0  0  0  0  0  0  0  0  0  0  0  0
    6.5707   30.0829   18.7470 O   0  0  0  0  0  0  0  0  0  0  0  0
    7.9705   30.3563   19.1269 P   0  0  0  0  0  0  0  0  0  0  0  0
    7.4012   31.0450   20.2821 O   0  0  0  0  0  0  0  0  0  0  0  0
    8.8770   31.0947   18.2461 O   0  0  0  0  0  0  0  0  0  0  0  0
    8.6325   29.0014   19.5795 O   0  0  0  0  0  0  0  0  0  0  0  0
    9.0370   29.1140   20.9759 C   0  0  0  0  0  0  0  0  0  0  0  0
   10.5274   29.4307   21.1108 C   0  0  0  0  0  0  0  0  0  0  0  0
   10.8015   30.4875   22.0861 O   0  0  0  0  0  0  0  0  0  0  0  0
   11.3041   28.2050   21.5988 C   0  0  0  0  0  0  0  0  0  0  0  0
   12.6735   27.9896   21.1145 O   0  0  0  0  0  0  0  0  0  0  0  0
   11.2638   28.4140   23.0932 C   0  0  0  0  0  0  0  0  0  0  0  0
   12.3046   27.6767   23.7062 O   0  0  0  0  0  0  0  0  0  0  0  0
   11.4750   29.9201   23.2331 C   0  0  0  0  0  0  0  0  0  0  0  0
   13.2333   28.7338   21.3860 H   0  0  0  0  0  0  0  0  0  0  0  0
   13.1554   27.9350   23.3186 H   0  0  0  0  0  0  0  0  0  0  0  0
   10.8878   30.3788   24.5174 N   0  0  0  0  0  0  0  0  0  0  0  0
   11.6400   31.1459   25.3081 C   0  0  0  0  0  0  0  0  0  0  0  0
   11.3317   31.7765   26.4371 C   0  0  0  0  0  0  0  0  0  0  0  0
   10.0370   31.5377   26.7619 C   0  0  0  0  0  0  0  0  0  0  0  0
    9.1278   30.7457   26.0570 C   0  0  0  0  0  0  0  0  0  0  0  0
    9.6060   30.0993   24.8972 C   0  0  0  0  0  0  0  0  0  0  0  0
   12.2736   32.5252   27.1855 C   0  0  0  0  0  0  0  0  0  0  0  0
   13.1408   33.1745   26.5720 O   0  0  0  0  0  0  0  0  0  0  0  0
   12.1328   32.6683   28.7032 C   0  0  0  0  0  0  0  0  0  0  0  0
  1  2  2  0  0  0
  1  3  1  0  0  0
  1  5  1  0  0  0
  1 28  1  0  0  0
  5  6  1  0  0  0
  6  7  1  0  0  0
  7  8  1  0  0  0
  7  9  1  0  0  0
  8 13  1  0  0  0
  9 10  1  0  0  0
  9 11  1  0  0  0
 11 12  1  0  0  0
 11 13  1  0  0  0
 13 16  1  0  0  0
 16 17  1  0  0  0
 16 25  1  0  0  0
 17 18  2  0  0  0
 18 19  1  0  0  0
 19 20  2  0  0  0
 19 25  1  0  0  0
 20 21  1  0  0  0
 20 22  1  0  0  0
 22 23  2  0  0  0
 23 24  1  0  0  0
 24 25  2  0  0  0
 28 29  1  0  0  0
 29 30  2  0  0  0
 29 31  1  0  0  0
 29 32  1  0  0  0
 32 33  1  0  0  0
 33 34  1  0  0  0
 34 35  1  0  0  0
 34 36  1  0  0  0
 35 40  1  0  0  0
 36 37  1  0  0  0
 36 38  1  0  0  0
 38 39  1  0  0  0
 38 40  1  0  0  0
 40 43  1  0  0  0
 43 44  2  0  0  0
 43 48  1  0  0  0
 44 45  1  0  0  0
 45 49  1  0  0  0
 45 46  2  0  0  0
 49 50  2  0  0  0
 49 51  1  0  0  0
 46 47  1  0  0  0
 47 48  2  0  0  0
  3  4  1  0  0  0
 10 14  1  0  0  0
 12 15  1  0  0  0
 21 26  1  0  0  0
 21 27  1  0  0  0
 37 41  1  0  0  0
 39 42  1  0  0  0
M  CHG 1  31  -1
M  CHG 1  43   1
M  END
> <minimizedAffinity>
-10.83078

$$$$
1DRV_A3D_A_301


 51 55  0  0  0  0  0  0  0  0999 V2000
    7.4880   29.7461   18.5499 P   0  0  0  0  0  0  0  0  0  0  0  0
    8.2106   31.0318   18.4541 O   0  0  0  0  0  0  0  0  0  0  0  0
    6.2732   29.8371   17.7388 O   0  0  0  0  0  0  0  0  0  0  0  0
    6.4812   30.2606   16.8913 H   0  0  0  0  0  0  0  0  0  0  0  0
    8.4261   28.7235   17.7352 O   0  0  0  0  0  0  0  0  0  0  0  0
    7.9683   28.2134   16.5189 C   0  0  0  0  0  0  0  0  0  0  0  0
    8.8349   28.8098   15.4423 C   0  0  0  0  0  0  0  0  0  0  0  0
    9.9752   27.9905   15.0549 O   0  0  0  0  0  0  0  0  0  0  0  0
    8.1039   29.0100   14.1265 C   0  0  0  0  0  0  0  0  0  0  0  0
    8.7406   30.1562   13.5301 O   0  0  0  0  0  0  0  0  0  0  0  0
    8.4403   27.7073   13.3771 C   0  0  0  0  0  0  0  0  0  0  0  0
    8.2888   27.6581   11.9649 O   0  0  0  0  0  0  0  0  0  0  0  0
    9.9244   27.7132   13.6550 C   0  0  0  0  0  0  0  0  0  0  0  0
    9.6993   30.0128   13.4972 H   0  0  0  0  0  0  0  0  0  0  0  0
    8.8351   28.3480   11.5568 H   0  0  0  0  0  0  0  0  0  0  0  0
   10.3578   26.3530   13.5051 N   0  0  0  0  0  0  0  0  0  0  0  0
    9.7975   25.2613   14.1502 C   0  0  0  0  0  0  0  0  0  0  0  0
   10.5137   24.1708   13.9725 N   0  0  0  0  0  0  0  0  0  0  0  0
   11.5358   24.5434   13.0922 C   0  0  0  0  0  0  0  0  0  0  0  0
   12.5773   23.8231   12.4833 C   0  0  0  0  0  0  0  0  0  0  0  0
   12.8379   22.5075   12.6810 N   0  0  0  0  0  0  0  0  0  0  0  0
   13.3875   24.5326   11.6456 N   0  0  0  0  0  0  0  0  0  0  0  0
   13.2248   25.8558   11.5032 C   0  0  0  0  0  0  0  0  0  0  0  0
   12.2742   26.6295   12.0165 N   0  0  0  0  0  0  0  0  0  0  0  0
   11.4569   25.8969   12.7944 C   0  0  0  0  0  0  0  0  0  0  0  0
   12.2657   21.9771   13.2815 H   0  0  0  0  0  0  0  0  0  0  0  0
   13.5994   22.0824   12.2242 H   0  0  0  0  0  0  0  0  0  0  0  0
    7.1196   29.0814   19.8593 O   0  0  0  0  0  0  0  0  0  0  0  0
    7.8168   28.7876   21.1267 P   0  0  0  0  0  0  0  0  0  0  0  0
    6.9099   27.6473   21.2272 O   0  0  0  0  0  0  0  0  0  0  0  0
    7.8548   29.7532   22.2262 O   0  0  0  0  0  0  0  0  0  0  0  0
    9.2714   28.2909   20.7859 O   0  0  0  0  0  0  0  0  0  0  0  0
   10.2162   29.3684   21.0554 C   0  0  0  0  0  0  0  0  0  0  0  0
   11.4329   28.8730   21.8390 C   0  0  0  0  0  0  0  0  0  0  0  0
   11.9825   29.8856   22.7422 O   0  0  0  0  0  0  0  0  0  0  0  0
   11.0624   27.6827   22.7277 C   0  0  0  0  0  0  0  0  0  0  0  0
   12.0550   26.6239   22.9512 O   0  0  0  0  0  0  0  0  0  0  0  0
   10.6923   28.3851   24.0114 C   0  0  0  0  0  0  0  0  0  0  0  0
   10.7767   27.4770   25.0934 O   0  0  0  0  0  0  0  0  0  0  0  0
   11.7432   29.4887   24.1119 C   0  0  0  0  0  0  0  0  0  0  0  0
   12.8344   26.9988   23.3904 H   0  0  0  0  0  0  0  0  0  0  0  0
   11.6668   27.0927   25.1244 H   0  0  0  0  0  0  0  0  0  0  0  0
   11.2070   30.6006   24.9371 N   0  0  0  0  0  0  0  0  0  0  0  0
   12.0449   31.2181   25.7713 C   0  0  0  0  0  0  0  0  0  0  0  0
   11.8631   32.2959   26.5281 C   0  0  0  0  0  0  0  0  0  0  0  0
   10.6006   32.7648   26.3700 C   0  0  0  0  0  0  0  0  0  0  0  0
    9.6011   32.2250   25.5573 C   0  0  0  0  0  0  0  0  0  0  0  0
    9.9212   31.0513   24.8421 C   0  0  0  0  0  0  0  0  0  0  0  0
   12.8570   32.8027   27.4017 C   0  0  0  0  0  0  0  0  0  0  0  0
   13.8536   33.3628   26.9088 O   0  0  0  0  0  0  0  0  0  0  0  0
   12.6379   32.8113   28.9168 C   0  0  0  0  0  0  0  0  0  0  0  0
  1  2  2  0  0  0
  1  3  1  0  0  0
  1  5  1  0  0  0
  1 28  1  0  0  0
  5  6  1  0  0  0
  6  7  1  0  0  0
  7  8  1  0  0  0
  7  9  1  0  0  0
  8 13  1  0  0  0
  9 10  1  0  0  0
  9 11  1  0  0  0
 11 12  1  0  0  0
 11 13  1  0  0  0
 13 16  1  0  0  0
 16 17  1  0  0  0
 16 25  1  0  0  0
 17 18  2  0  0  0
 18 19  1  0  0  0
 19 20  2  0  0  0
 19 25  1  0  0  0
 20 21  1  0  0  0
 20 22  1  0  0  0
 22 23  2  0  0  0
 23 24  1  0  0  0
 24 25  2  0  0  0
 28 29  1  0  0  0
 29 30  2  0  0  0
 29 31  1  0  0  0
 29 32  1  0  0  0
 32 33  1  0  0  0
 33 34  1  0  0  0
 34 35  1  0  0  0
 34 36  1  0  0  0
 35 40  1  0  0  0
 36 37  1  0  0  0
 36 38  1  0  0  0
 38 39  1  0  0  0
 38 40  1  0  0  0
 40 43  1  0  0  0
 43 44  2  0  0  0
 43 48  1  0  0  0
 44 45  1  0  0  0
 45 49  1  0  0  0
 45 46  2  0  0  0
 49 50  2  0  0  0
 49 51  1  0  0  0
 46 47  1  0  0  0
 47 48  2  0  0  0
  3  4  1  0  0  0
 10 14  1  0  0  0
 12 15  1  0  0  0
 21 26  1  0  0  0
 21 27  1  0  0  0
 37 41  1  0  0  0
 39 42  1  0  0  0
M  CHG 1  31  -1
M  CHG 1  43   1
M  END
> <minimizedAffinity>
-10.64260

$$$$
1DRV_A3D_A_301


 51 55  0  0  0  0  0  0  0  0999 V2000
    8.5001   29.6096   18.6283 P   0  0  0  0  0  0  0  0  0  0  0  0
    8.5679   31.0231   18.2022 O   0  0  0  0  0  0  0  0  0  0  0  0
    7.1543   29.1066   18.3489 O   0  0  0  0  0  0  0  0  0  0  0  0
    6.8743   29.4037   17.4690 H   0  0  0  0  0  0  0  0  0  0  0  0
    9.4317   28.8475   17.5602 O   0  0  0  0  0  0  0  0  0  0  0  0
    8.8248   28.1575   16.5092 C   0  0  0  0  0  0  0  0  0  0  0  0
    8.9419   29.0312   15.2890 C   0  0  0  0  0  0  0  0  0  0  0  0
   10.1698   28.8507   14.5265 O   0  0  0  0  0  0  0  0  0  0  0  0
    7.8628   28.7641   14.2545 C   0  0  0  0  0  0  0  0  0  0  0  0
    7.6615   30.0345   13.6061 O   0  0  0  0  0  0  0  0  0  0  0  0
    8.5571   27.7471   13.3296 C   0  0  0  0  0  0  0  0  0  0  0  0
    8.0499   27.5401   12.0182 O   0  0  0  0  0  0  0  0  0  0  0  0
    9.8599   28.4952   13.1786 C   0  0  0  0  0  0  0  0  0  0  0  0
    8.5135   30.3761   13.2926 H   0  0  0  0  0  0  0  0  0  0  0  0
    8.0493   28.3813   11.5352 H   0  0  0  0  0  0  0  0  0  0  0  0
   10.8344   27.5139   12.7942 N   0  0  0  0  0  0  0  0  0  0  0  0
   10.7688   26.1627   13.0978 C   0  0  0  0  0  0  0  0  0  0  0  0
   11.8857   25.5391   12.7856 N   0  0  0  0  0  0  0  0  0  0  0  0
   12.6823   26.5053   12.1607 C   0  0  0  0  0  0  0  0  0  0  0  0
   13.9509   26.4493   11.5593 C   0  0  0  0  0  0  0  0  0  0  0  0
   14.7383   25.3475   11.4963 N   0  0  0  0  0  0  0  0  0  0  0  0
   14.4112   27.6152   11.0204 N   0  0  0  0  0  0  0  0  0  0  0  0
   13.7073   28.7485   11.1522 C   0  0  0  0  0  0  0  0  0  0  0  0
   12.5014   28.9128   11.6857 N   0  0  0  0  0  0  0  0  0  0  0  0
   12.0465   27.7393   12.1609 C   0  0  0  0  0  0  0  0  0  0  0  0
   14.4253   24.4962   11.8790 H   0  0  0  0  0  0  0  0  0  0  0  0
   15.6232   25.3988   11.0677 H   0  0  0  0  0  0  0  0  0  0  0  0
    8.8968   29.1243   20.0065 O   0  0  0  0  0  0  0  0  0  0  0  0
    8.2091   28.9421   21.2997 P   0  0  0  0  0  0  0  0  0  0  0  0
    7.8590   27.6169   20.7954 O   0  0  0  0  0  0  0  0  0  0  0  0
    7.1331   29.8353   21.7320 O   0  0  0  0  0  0  0  0  0  0  0  0
    9.3018   28.8185   22.4264 O   0  0  0  0  0  0  0  0  0  0  0  0
    8.7951   27.9547   23.4863 C   0  0  0  0  0  0  0  0  0  0  0  0
    9.9134   27.4851   24.4183 C   0  0  0  0  0  0  0  0  0  0  0  0
   10.9354   28.5082   24.6461 O   0  0  0  0  0  0  0  0  0  0  0  0
    9.3604   27.1365   25.8026 C   0  0  0  0  0  0  0  0  0  0  0  0
    9.9739   26.0379   26.5595 O   0  0  0  0  0  0  0  0  0  0  0  0
    9.5087   28.4595   26.5141 C   0  0  0  0  0  0  0  0  0  0  0  0
    9.5070   28.2512   27.9138 O   0  0  0  0  0  0  0  0  0  0  0  0
   10.8609   28.9653   26.0160 C   0  0  0  0  0  0  0  0  0  0  0  0
   10.9048   26.2464   26.7348 H   0  0  0  0  0  0  0  0  0  0  0  0
   10.2085   27.6236   28.1481 H   0  0  0  0  0  0  0  0  0  0  0  0
   10.8978   30.4459   26.1206 N   0  0  0  0  0  0  0  0  0  0  0  0
   12.0592   31.0198   26.4384 C   0  0  0  0  0  0  0  0  0  0  0  0
   12.3963   32.3048   26.4876 C   0  0  0  0  0  0  0  0  0  0  0  0
   11.3303   33.0758   26.1587 C   0  0  0  0  0  0  0  0  0  0  0  0
   10.0479   32.6351   25.8240 C   0  0  0  0  0  0  0  0  0  0  0  0
    9.8206   31.2426   25.8555 C   0  0  0  0  0  0  0  0  0  0  0  0
   13.6788   32.7520   26.8916 C   0  0  0  0  0  0  0  0  0  0  0  0
   13.7630   33.8111   27.5407 O   0  0  0  0  0  0  0  0  0  0  0  0
   14.9163   31.8757   26.6814 C   0  0  0  0  0  0  0  0  0  0  0  0
  1  2  2  0  0  0
  1  3  1  0  0  0
  1  5  1  0  0  0
  1 28  1  0  0  0
  5  6  1  0  0  0
  6  7  1  0  0  0
  7  8  1  0  0  0
  7  9  1  0  0  0
  8 13  1  0  0  0
  9 10  1  0  0  0
  9 11  1  0  0  0
 11 12  1  0  0  0
 11 13  1  0  0  0
 13 16  1  0  0  0
 16 17  1  0  0  0
 16 25  1  0  0  0
 17 18  2  0  0  0
 18 19  1  0  0  0
 19 20  2  0  0  0
 19 25  1  0  0  0
 20 21  1  0  0  0
 20 22  1  0  0  0
 22 23  2  0  0  0
 23 24  1  0  0  0
 24 25  2  0  0  0
 28 29  1  0  0  0
 29 30  2  0  0  0
 29 31  1  0  0  0
 29 32  1  0  0  0
 32 33  1  0  0  0
 33 34  1  0  0  0
 34 35  1  0  0  0
 34 36  1  0  0  0
 35 40  1  0  0  0
 36 37  1  0  0  0
 36 38  1  0  0  0
 38 39  1  0  0  0
 38 40  1  0  0  0
 40 43  1  0  0  0
 43 44  2  0  0  0
 43 48  1  0  0  0
 44 45  1  0  0  0
 45 49  1  0  0  0
 45 46  2  0  0  0
 49 50  2  0  0  0
 49 51  1  0  0  0
 46 47  1  0  0  0
 47 48  2  0  0  0
  3  4  1  0  0  0
 10 14  1  0  0  0
 12 15  1  0  0  0
 21 26  1  0  0  0
 21 27  1  0  0  0
 37 41  1  0  0  0
 39 42  1  0  0  0
M  CHG 1  31  -1
M  CHG 1  43   1
M  END
> <minimizedAffinity>
-10.60646

$$$$
1DRV_A3D_A_301


 51 55  0  0  0  0  0  0  0  0999 V2000
    7.0555   28.4854   20.4482 P   0  0  0  0  0  0  0  0  0  0  0  0
    5.8758   27.5965   20.3968 O   0  0  0  0  0  0  0  0  0  0  0  0
    6.5941   29.8517   20.6975 O   0  0  0  0  0  0  0  0  0  0  0  0
    5.9135   29.8421   21.3886 H   0  0  0  0  0  0  0  0  0  0  0  0
    7.7873   28.0639   21.8180 O   0  0  0  0  0  0  0  0  0  0  0  0
    8.0060   29.0397   22.7921 C   0  0  0  0  0  0  0  0  0  0  0  0
    9.3590   29.6379   22.5138 C   0  0  0  0  0  0  0  0  0  0  0  0
    9.9331   30.3876   23.6229 O   0  0  0  0  0  0  0  0  0  0  0  0
   10.4266   28.5975   22.2244 C   0  0  0  0  0  0  0  0  0  0  0  0
   11.3379   29.2558   21.3239 O   0  0  0  0  0  0  0  0  0  0  0  0
   11.0453   28.3841   23.6185 C   0  0  0  0  0  0  0  0  0  0  0  0
   12.3335   27.7932   23.7249 O   0  0  0  0  0  0  0  0  0  0  0  0
   11.2055   29.8427   23.9741 C   0  0  0  0  0  0  0  0  0  0  0  0
   11.6216   30.0991   21.7102 H   0  0  0  0  0  0  0  0  0  0  0  0
   12.9750   28.3247   23.2280 H   0  0  0  0  0  0  0  0  0  0  0  0
   11.2755   29.8927   25.4069 N   0  0  0  0  0  0  0  0  0  0  0  0
   10.6398   29.0115   26.2680 C   0  0  0  0  0  0  0  0  0  0  0  0
   10.7244   29.4089   27.5205 N   0  0  0  0  0  0  0  0  0  0  0  0
   11.5342   30.5497   27.4888 C   0  0  0  0  0  0  0  0  0  0  0  0
   12.0356   31.3896   28.4976 C   0  0  0  0  0  0  0  0  0  0  0  0
   11.7741   31.2632   29.8218 N   0  0  0  0  0  0  0  0  0  0  0  0
   12.8308   32.4175   28.0820 N   0  0  0  0  0  0  0  0  0  0  0  0
   13.0297   32.6361   26.7744 C   0  0  0  0  0  0  0  0  0  0  0  0
   12.6185   31.9045   25.7442 N   0  0  0  0  0  0  0  0  0  0  0  0
   11.8825   30.8673   26.1831 C   0  0  0  0  0  0  0  0  0  0  0  0
   11.2027   30.5286   30.1428 H   0  0  0  0  0  0  0  0  0  0  0  0
   12.1557   31.9061   30.4624 H   0  0  0  0  0  0  0  0  0  0  0  0
    8.1133   28.5460   19.3668 O   0  0  0  0  0  0  0  0  0  0  0  0
    8.5522   29.5467   18.3745 P   0  0  0  0  0  0  0  0  0  0  0  0
    9.9035   29.0794   18.6720 O   0  0  0  0  0  0  0  0  0  0  0  0
    8.2513   30.9705   18.5323 O   0  0  0  0  0  0  0  0  0  0  0  0
    8.1128   29.0509   16.9463 O   0  0  0  0  0  0  0  0  0  0  0  0
    9.2721   29.0637   16.0620 C   0  0  0  0  0  0  0  0  0  0  0  0
    8.8684   29.2672   14.6007 C   0  0  0  0  0  0  0  0  0  0  0  0
    9.9656   29.0178   13.6642 O   0  0  0  0  0  0  0  0  0  0  0  0
    7.7543   28.2959   14.2015 C   0  0  0  0  0  0  0  0  0  0  0  0
    6.7366   28.7354   13.2386 O   0  0  0  0  0  0  0  0  0  0  0  0
    8.5601   27.1333   13.6749 C   0  0  0  0  0  0  0  0  0  0  0  0
    7.7520   26.3371   12.8289 O   0  0  0  0  0  0  0  0  0  0  0  0
    9.6863   27.8195   12.9047 C   0  0  0  0  0  0  0  0  0  0  0  0
    7.1620   28.9497   12.3937 H   0  0  0  0  0  0  0  0  0  0  0  0
    7.3874   26.8876   12.1183 H   0  0  0  0  0  0  0  0  0  0  0  0
   10.8568   26.9086   12.8353 N   0  0  0  0  0  0  0  0  0  0  0  0
   11.8467   27.2279   12.0002 C   0  0  0  0  0  0  0  0  0  0  0  0
   13.0375   26.6633   11.8252 C   0  0  0  0  0  0  0  0  0  0  0  0
   13.1736   25.6025   12.6589 C   0  0  0  0  0  0  0  0  0  0  0  0
   12.2299   25.1269   13.5721 C   0  0  0  0  0  0  0  0  0  0  0  0
   10.9896   25.7985   13.6198 C   0  0  0  0  0  0  0  0  0  0  0  0
   13.9671   27.1067   10.8520 C   0  0  0  0  0  0  0  0  0  0  0  0
   14.2625   26.3390    9.9174 O   0  0  0  0  0  0  0  0  0  0  0  0
   14.4729   28.5516   10.8525 C   0  0  0  0  0  0  0  0  0  0  0  0
  1  2  2  0  0  0
  1  3  1  0  0  0
  1  5  1  0  0  0
  1 28  1  0  0  0
  5  6  1  0  0  0
  6  7  1  0  0  0
  7  8  1  0  0  0
  7  9  1  0  0  0
  8 13  1  0  0  0
  9 10  1  0  0  0
  9 11  1  0  0  0
 11 12  1  0  0  0
 11 13  1  0  0  0
 13 16  1  0  0  0
 16 17  1  0  0  0
 16 25  1  0  0  0
 17 18  2  0  0  0
 18 19  1  0  0  0
 19 20  2  0  0  0
 19 25  1  0  0  0
 20 21  1  0  0  0
 20 22  1  0  0  0
 22 23  2  0  0  0
 23 24  1  0  0  0
 24 25  2  0  0  0
 28 29  1  0  0  0
 29 30  2  0  0  0
 29 31  1  0  0  0
 29 32  1  0  0  0
 32 33  1  0  0  0
 33 34  1  0  0  0
 34 35  1  0  0  0
 34 36  1  0  0  0
 35 40  1  0  0  0
 36 37  1  0  0  0
 36 38  1  0  0  0
 38 39  1  0  0  0
 38 40  1  0  0  0
 40 43  1  0  0  0
 43 44  2  0  0  0
 43 48  1  0  0  0
 44 45  1  0  0  0
 45 49  1  0  0  0
 45 46  2  0  0  0
 49 50  2  0  0  0
 49 51  1  0  0  0
 46 47  1  0  0  0
 47 48  2  0  0  0
  3  4  1  0  0  0
 10 14  1  0  0  0
 12 15  1  0  0  0
 21 26  1  0  0  0
 21 27  1  0  0  0
 37 41  1  0  0  0
 39 42  1  0  0  0
M  CHG 1  31  -1
M  CHG 1  43   1
M  END
> <minimizedAffinity>
-10.57166

$$$$
1DRV_A3D_A_301


 51 55  0  0  0  0  0  0  0  0999 V2000
    7.1055   28.6768   18.2391 P   0  0  0  0  0  0  0  0  0  0  0  0
    6.3762   29.8673   17.7541 O   0  0  0  0  0  0  0  0  0  0  0  0
    6.1293   27.7131   18.7497 O   0  0  0  0  0  0  0  0  0  0  0  0
    5.3800   27.6561   18.1363 H   0  0  0  0  0  0  0  0  0  0  0  0
    7.6578   27.9959   16.8897 O   0  0  0  0  0  0  0  0  0  0  0  0
    9.0129   28.1215   16.5783 C   0  0  0  0  0  0  0  0  0  0  0  0
    9.1004   29.0008   15.3596 C   0  0  0  0  0  0  0  0  0  0  0  0
   10.3043   28.8161   14.5608 O   0  0  0  0  0  0  0  0  0  0  0  0
    7.9900   28.7462   14.3557 C   0  0  0  0  0  0  0  0  0  0  0  0
    7.7784   30.0212   13.7198 O   0  0  0  0  0  0  0  0  0  0  0  0
    8.6501   27.7295   13.4059 C   0  0  0  0  0  0  0  0  0  0  0  0
    8.1037   27.5325   12.1088 O   0  0  0  0  0  0  0  0  0  0  0  0
    9.9531   28.4697   13.2208 C   0  0  0  0  0  0  0  0  0  0  0  0
    8.6233   30.3589   13.3833 H   0  0  0  0  0  0  0  0  0  0  0  0
    8.0947   28.3762   11.6302 H   0  0  0  0  0  0  0  0  0  0  0  0
   10.9093   27.4839   12.8033 N   0  0  0  0  0  0  0  0  0  0  0  0
   10.8479   26.1330   13.1089 C   0  0  0  0  0  0  0  0  0  0  0  0
   11.9506   25.5043   12.7587 N   0  0  0  0  0  0  0  0  0  0  0  0
   12.7298   26.4669   12.1071 C   0  0  0  0  0  0  0  0  0  0  0  0
   13.9769   26.4052   11.4628 C   0  0  0  0  0  0  0  0  0  0  0  0
   14.7566   25.2998   11.3729 N   0  0  0  0  0  0  0  0  0  0  0  0
   14.4240   27.5690   10.9086 N   0  0  0  0  0  0  0  0  0  0  0  0
   13.7303   28.7056   11.0644 C   0  0  0  0  0  0  0  0  0  0  0  0
   12.5440   28.8754   11.6387 N   0  0  0  0  0  0  0  0  0  0  0  0
   12.1001   27.7039   12.1291 C   0  0  0  0  0  0  0  0  0  0  0  0
   14.4529   24.4499   11.7660 H   0  0  0  0  0  0  0  0  0  0  0  0
   15.6266   25.3471   10.9144 H   0  0  0  0  0  0  0  0  0  0  0  0
    8.2544   28.7347   19.2233 O   0  0  0  0  0  0  0  0  0  0  0  0
    8.3928   28.9899   20.6704 P   0  0  0  0  0  0  0  0  0  0  0  0
    8.4372   27.5364   20.8052 O   0  0  0  0  0  0  0  0  0  0  0  0
    7.3800   29.7338   21.4212 O   0  0  0  0  0  0  0  0  0  0  0  0
    9.8212   29.5991   20.9297 O   0  0  0  0  0  0  0  0  0  0  0  0
    9.8541   30.1795   22.2670 C   0  0  0  0  0  0  0  0  0  0  0  0
   11.1550   29.8446   22.9986 C   0  0  0  0  0  0  0  0  0  0  0  0
   11.5027   30.8277   24.0261 O   0  0  0  0  0  0  0  0  0  0  0  0
   11.0411   28.5042   23.7295 C   0  0  0  0  0  0  0  0  0  0  0  0
   12.2278   27.6458   23.8334 O   0  0  0  0  0  0  0  0  0  0  0  0
   10.5544   28.9553   25.0852 C   0  0  0  0  0  0  0  0  0  0  0  0
   10.8320   27.9564   26.0483 O   0  0  0  0  0  0  0  0  0  0  0  0
   11.3648   30.2257   25.3335 C   0  0  0  0  0  0  0  0  0  0  0  0
   12.9221   28.1120   24.3248 H   0  0  0  0  0  0  0  0  0  0  0  0
   11.7813   27.7569   26.0428 H   0  0  0  0  0  0  0  0  0  0  0  0
   10.6278   31.0980   26.2825 N   0  0  0  0  0  0  0  0  0  0  0  0
    9.3288   30.8589   26.4690 C   0  0  0  0  0  0  0  0  0  0  0  0
    8.4710   31.4015   27.3276 C   0  0  0  0  0  0  0  0  0  0  0  0
    9.0998   32.3377   28.0806 C   0  0  0  0  0  0  0  0  0  0  0  0
   10.4406   32.7198   27.9964 C   0  0  0  0  0  0  0  0  0  0  0  0
   11.2253   32.0897   27.0071 C   0  0  0  0  0  0  0  0  0  0  0  0
    7.0964   31.0597   27.3663 C   0  0  0  0  0  0  0  0  0  0  0  0
    6.3055   31.6896   26.6399 O   0  0  0  0  0  0  0  0  0  0  0  0
    6.6143   29.8394   28.1550 C   0  0  0  0  0  0  0  0  0  0  0  0
  1  2  2  0  0  0
  1  3  1  0  0  0
  1  5  1  0  0  0
  1 28  1  0  0  0
  5  6  1  0  0  0
  6  7  1  0  0  0
  7  8  1  0  0  0
  7  9  1  0  0  0
  8 13  1  0  0  0
  9 10  1  0  0  0
  9 11  1  0  0  0
 11 12  1  0  0  0
 11 13  1  0  0  0
 13 16  1  0  0  0
 16 17  1  0  0  0
 16 25  1  0  0  0
 17 18  2  0  0  0
 18 19  1  0  0  0
 19 20  2  0  0  0
 19 25  1  0  0  0
 20 21  1  0  0  0
 20 22  1  0  0  0
 22 23  2  0  0  0
 23 24  1  0  0  0
 24 25  2  0  0  0
 28 29  1  0  0  0
 29 30  2  0  0  0
 29 31  1  0  0  0
 29 32  1  0  0  0
 32 33  1  0  0  0
 33 34  1  0  0  0
 34 35  1  0  0  0
 34 36  1  0  0  0
 35 40  1  0  0  0
 36 37  1  0  0  0
 36 38  1  0  0  0
 38 39  1  0  0  0
 38 40  1  0  0  0
 40 43  1  0  0  0
 43 44  2  0  0  0
 43 48  1  0  0  0
 44 45  1  0  0  0
 45 49  1  0  0  0
 45 46  2  0  0  0
 49 50  2  0  0  0
 49 51  1  0  0  0
 46 47  1  0  0  0
 47 48  2  0  0  0
  3  4  1  0  0  0
 10 14  1  0  0  0
 12 15  1  0  0  0
 21 26  1  0  0  0
 21 27  1  0  0  0
 37 41  1  0  0  0
 39 42  1  0  0  0
M  CHG 1  31  -1
M  CHG 1  43   1
M  END
> <minimizedAffinity>
-10.50130

$$$$
1DRV_A3D_A_301


 51 55  0  0  0  0  0  0  0  0999 V2000
    8.9009   29.0749   16.5484 P   0  0  0  0  0  0  0  0  0  0  0  0
    9.8081   29.8975   15.7209 O   0  0  0  0  0  0  0  0  0  0  0  0
    7.5414   29.5968   16.4022 O   0  0  0  0  0  0  0  0  0  0  0  0
    7.3683   29.7910   15.4678 H   0  0  0  0  0  0  0  0  0  0  0  0
    8.8623   27.6628   15.7777 O   0  0  0  0  0  0  0  0  0  0  0  0
    8.1074   27.5545   14.6084 C   0  0  0  0  0  0  0  0  0  0  0  0
    8.5816   26.3159   13.8965 C   0  0  0  0  0  0  0  0  0  0  0  0
    9.4181   26.5664   12.7306 O   0  0  0  0  0  0  0  0  0  0  0  0
    9.4641   25.4300   14.7579 C   0  0  0  0  0  0  0  0  0  0  0  0
    9.2151   24.0952   14.2772 O   0  0  0  0  0  0  0  0  0  0  0  0
   10.8727   25.9261   14.3815 C   0  0  0  0  0  0  0  0  0  0  0  0
   11.9971   25.1013   14.6556 O   0  0  0  0  0  0  0  0  0  0  0  0
   10.6785   25.9128   12.8842 C   0  0  0  0  0  0  0  0  0  0  0  0
    9.3474   24.0675   13.3166 H   0  0  0  0  0  0  0  0  0  0  0  0
   11.8881   24.2472   14.2089 H   0  0  0  0  0  0  0  0  0  0  0  0
   11.6597   26.8155   12.3525 N   0  0  0  0  0  0  0  0  0  0  0  0
   11.6271   28.1955   12.4813 C   0  0  0  0  0  0  0  0  0  0  0  0
   12.5453   28.7755   11.7367 N   0  0  0  0  0  0  0  0  0  0  0  0
   13.2748   27.7243   11.1699 C   0  0  0  0  0  0  0  0  0  0  0  0
   14.4045   27.6911   10.3351 C   0  0  0  0  0  0  0  0  0  0  0  0
   15.0441   28.7796    9.8412 N   0  0  0  0  0  0  0  0  0  0  0  0
   14.8623   26.4517    9.9942 N   0  0  0  0  0  0  0  0  0  0  0  0
   14.1973   25.3529   10.3788 C   0  0  0  0  0  0  0  0  0  0  0  0
   13.1349   25.2676   11.1724 N   0  0  0  0  0  0  0  0  0  0  0  0
   12.7359   26.4992   11.5385 C   0  0  0  0  0  0  0  0  0  0  0  0
   14.7301   29.6830   10.0747 H   0  0  0  0  0  0  0  0  0  0  0  0
   15.8225   28.6667    9.2491 H   0  0  0  0  0  0  0  0  0  0  0  0
    9.1285   28.7861   18.0170 O   0  0  0  0  0  0  0  0  0  0  0  0
    8.7552   29.4329   19.2901 P   0  0  0  0  0  0  0  0  0  0  0  0
    8.0216   28.2009   19.5676 O   0  0  0  0  0  0  0  0  0  0  0  0
    8.0303   30.7042   19.3242 O   0  0  0  0  0  0  0  0  0  0  0  0
   10.0387   29.5120   20.1984 O   0  0  0  0  0  0  0  0  0  0  0  0
    9.6885   29.0984   21.5521 C   0  0  0  0  0  0  0  0  0  0  0  0
   10.8723   28.4489   22.2707 C   0  0  0  0  0  0  0  0  0  0  0  0
   11.6853   29.4103   23.0177 O   0  0  0  0  0  0  0  0  0  0  0  0
   10.3904   27.4247   23.3016 C   0  0  0  0  0  0  0  0  0  0  0  0
   11.1958   26.2204   23.5404 O   0  0  0  0  0  0  0  0  0  0  0  0
   10.2879   28.2854   24.5373 C   0  0  0  0  0  0  0  0  0  0  0  0
   10.3214   27.4681   25.6920 O   0  0  0  0  0  0  0  0  0  0  0  0
   11.5234   29.1772   24.4357 C   0  0  0  0  0  0  0  0  0  0  0  0
   12.0712   26.4771   23.8702 H   0  0  0  0  0  0  0  0  0  0  0  0
   11.1269   26.9278   25.6824 H   0  0  0  0  0  0  0  0  0  0  0  0
   11.2836   30.4328   25.1910 N   0  0  0  0  0  0  0  0  0  0  0  0
   12.3401   31.0582   25.7126 C   0  0  0  0  0  0  0  0  0  0  0  0
   12.4243   32.2347   26.3259 C   0  0  0  0  0  0  0  0  0  0  0  0
   11.1981   32.8096   26.3945 C   0  0  0  0  0  0  0  0  0  0  0  0
    9.9960   32.2805   25.9195 C   0  0  0  0  0  0  0  0  0  0  0  0
   10.0488   31.0001   25.3284 C   0  0  0  0  0  0  0  0  0  0  0  0
   13.6333   32.7394   26.8658 C   0  0  0  0  0  0  0  0  0  0  0  0
   13.5980   33.8012   27.5150 O   0  0  0  0  0  0  0  0  0  0  0  0
   14.9246   31.9201   26.7967 C   0  0  0  0  0  0  0  0  0  0  0  0
  1  2  2  0  0  0
  1  3  1  0  0  0
  1  5  1  0  0  0
  1 28  1  0  0  0
  5  6  1  0  0  0
  6  7  1  0  0  0
  7  8  1  0  0  0
  7  9  1  0  0  0
  8 13  1  0  0  0
  9 10  1  0  0  0
  9 11  1  0  0  0
 11 12  1  0  0  0
 11 13  1  0  0  0
 13 16  1  0  0  0
 16 17  1  0  0  0
 16 25  1  0  0  0
 17 18  2  0  0  0
 18 19  1  0  0  0
 19 20  2  0  0  0
 19 25  1  0  0  0
 20 21  1  0  0  0
 20 22  1  0  0  0
 22 23  2  0  0  0
 23 24  1  0  0  0
 24 25  2  0  0  0
 28 29  1  0  0  0
 29 30  2  0  0  0
 29 31  1  0  0  0
 29 32  1  0  0  0
 32 33  1  0  0  0
 33 34  1  0  0  0
 34 35  1  0  0  0
 34 36  1  0  0  0
 35 40  1  0  0  0
 36 37  1  0  0  0
 36 38  1  0  0  0
 38 39  1  0  0  0
 38 40  1  0  0  0
 40 43  1  0  0  0
 43 44  2  0  0  0
 43 48  1  0  0  0
 44 45  1  0  0  0
 45 49  1  0  0  0
 45 46  2  0  0  0
 49 50  2  0  0  0
 49 51  1  0  0  0
 46 47  1  0  0  0
 47 48  2  0  0  0
  3  4  1  0  0  0
 10 14  1  0  0  0
 12 15  1  0  0  0
 21 26  1  0  0  0
 21 27  1  0  0  0
 37 41  1  0  0  0
 39 42  1  0  0  0
M  CHG 1  31  -1
M  CHG 1  43   1
M  END
> <minimizedAffinity>
-10.24689

$$$$
1DRV_A3D_A_301


 51 55  0  0  0  0  0  0  0  0999 V2000
    7.4461   28.9627   17.6795 P   0  0  0  0  0  0  0  0  0  0  0  0
    8.6289   29.3099   16.8641 O   0  0  0  0  0  0  0  0  0  0  0  0
    6.6643   30.1799   17.9015 O   0  0  0  0  0  0  0  0  0  0  0  0
    6.6022   30.6800   17.0726 H   0  0  0  0  0  0  0  0  0  0  0  0
    6.5376   28.0922   16.6762 O   0  0  0  0  0  0  0  0  0  0  0  0
    6.4576   28.4758   15.3362 C   0  0  0  0  0  0  0  0  0  0  0  0
    6.5006   27.2130   14.5181 C   0  0  0  0  0  0  0  0  0  0  0  0
    7.5247   27.1931   13.4825 O   0  0  0  0  0  0  0  0  0  0  0  0
    6.8296   25.9781   15.3382 C   0  0  0  0  0  0  0  0  0  0  0  0
    6.1453   24.9043   14.6649 O   0  0  0  0  0  0  0  0  0  0  0  0
    8.3576   25.8850   15.1695 C   0  0  0  0  0  0  0  0  0  0  0  0
    9.0138   24.6541   15.4418 O   0  0  0  0  0  0  0  0  0  0  0  0
    8.3891   26.0723   13.6716 C   0  0  0  0  0  0  0  0  0  0  0  0
    6.3911   24.9023   13.7266 H   0  0  0  0  0  0  0  0  0  0  0  0
    8.6414   23.9577   14.8786 H   0  0  0  0  0  0  0  0  0  0  0  0
    9.7117   26.5357   13.3612 N   0  0  0  0  0  0  0  0  0  0  0  0
   10.0756   27.8644   13.2057 C   0  0  0  0  0  0  0  0  0  0  0  0
   11.3013   27.9818   12.7391 N   0  0  0  0  0  0  0  0  0  0  0  0
   11.7966   26.6744   12.6780 C   0  0  0  0  0  0  0  0  0  0  0  0
   13.0487   26.1465   12.3201 C   0  0  0  0  0  0  0  0  0  0  0  0
   14.1088   26.8727   11.8880 N   0  0  0  0  0  0  0  0  0  0  0  0
   13.1745   24.7906   12.4053 N   0  0  0  0  0  0  0  0  0  0  0  0
   12.1194   24.0300   12.7303 C   0  0  0  0  0  0  0  0  0  0  0  0
   10.9033   24.4203   13.0968 N   0  0  0  0  0  0  0  0  0  0  0  0
   10.8210   25.7625   13.0570 C   0  0  0  0  0  0  0  0  0  0  0  0
   14.0392   27.8523   11.8191 H   0  0  0  0  0  0  0  0  0  0  0  0
   14.9482   26.4204   11.6430 H   0  0  0  0  0  0  0  0  0  0  0  0
    7.5180   28.2147   18.9937 O   0  0  0  0  0  0  0  0  0  0  0  0
    7.0176   28.4383   20.3642 P   0  0  0  0  0  0  0  0  0  0  0  0
    5.8541   27.6631   19.9420 O   0  0  0  0  0  0  0  0  0  0  0  0
    6.8077   29.7855   20.8968 O   0  0  0  0  0  0  0  0  0  0  0  0
    7.8990   27.5906   21.3558 O   0  0  0  0  0  0  0  0  0  0  0  0
    8.5015   28.4843   22.3379 C   0  0  0  0  0  0  0  0  0  0  0  0
    9.9052   28.9241   21.9184 C   0  0  0  0  0  0  0  0  0  0  0  0
   10.2895   30.2209   22.4785 O   0  0  0  0  0  0  0  0  0  0  0  0
   10.9595   27.9304   22.4131 C   0  0  0  0  0  0  0  0  0  0  0  0
   12.1492   27.6838   21.5885 O   0  0  0  0  0  0  0  0  0  0  0  0
   11.3184   28.5323   23.7500 C   0  0  0  0  0  0  0  0  0  0  0  0
   12.5872   28.0591   24.1610 O   0  0  0  0  0  0  0  0  0  0  0  0
   11.3383   30.0307   23.4555 C   0  0  0  0  0  0  0  0  0  0  0  0
   12.6482   28.5092   21.4858 H   0  0  0  0  0  0  0  0  0  0  0  0
   13.2443   28.2591   23.4761 H   0  0  0  0  0  0  0  0  0  0  0  0
   11.0827   30.7793   24.7121 N   0  0  0  0  0  0  0  0  0  0  0  0
   12.1323   31.2893   25.3585 C   0  0  0  0  0  0  0  0  0  0  0  0
   12.1810   32.0837   26.4234 C   0  0  0  0  0  0  0  0  0  0  0  0
   10.9248   32.3561   26.8553 C   0  0  0  0  0  0  0  0  0  0  0  0
    9.7290   31.8869   26.3069 C   0  0  0  0  0  0  0  0  0  0  0  0
    9.8299   31.0140   25.2026 C   0  0  0  0  0  0  0  0  0  0  0  0
   13.3964   32.5046   27.0179 C   0  0  0  0  0  0  0  0  0  0  0  0
   13.3457   33.1764   28.0649 O   0  0  0  0  0  0  0  0  0  0  0  0
   14.7429   32.0101   26.4831 C   0  0  0  0  0  0  0  0  0  0  0  0
  1  2  2  0  0  0
  1  3  1  0  0  0
  1  5  1  0  0  0
  1 28  1  0  0  0
  5  6  1  0  0  0
  6  7  1  0  0  0
  7  8  1  0  0  0
  7  9  1  0  0  0
  8 13  1  0  0  0
  9 10  1  0  0  0
  9 11  1  0  0  0
 11 12  1  0  0  0
 11 13  1  0  0  0
 13 16  1  0  0  0
 16 17  1  0  0  0
 16 25  1  0  0  0
 17 18  2  0  0  0
 18 19  1  0  0  0
 19 20  2  0  0  0
 19 25  1  0  0  0
 20 21  1  0  0  0
 20 22  1  0  0  0
 22 23  2  0  0  0
 23 24  1  0  0  0
 24 25  2  0  0  0
 28 29  1  0  0  0
 29 30  2  0  0  0
 29 31  1  0  0  0
 29 32  1  0  0  0
 32 33  1  0  0  0
 33 34  1  0  0  0
 34 35  1  0  0  0
 34 36  1  0  0  0
 35 40  1  0  0  0
 36 37  1  0  0  0
 36 38  1  0  0  0
 38 39  1  0  0  0
 38 40  1  0  0  0
 40 43  1  0  0  0
 43 44  2  0  0  0
 43 48  1  0  0  0
 44 45  1  0  0  0
 45 49  1  0  0  0
 45 46  2  0  0  0
 49 50  2  0  0  0
 49 51  1  0  0  0
 46 47  1  0  0  0
 47 48  2  0  0  0
  3  4  1  0  0  0
 10 14  1  0  0  0
 12 15  1  0  0  0
 21 26  1  0  0  0
 21 27  1  0  0  0
 37 41  1  0  0  0
 39 42  1  0  0  0
M  CHG 1  31  -1
M  CHG 1  43   1
M  END
> <minimizedAffinity>
-10.00538

$$$$
1DRV_A3D_A_301


 51 55  0  0  0  0  0  0  0  0999 V2000
    6.3635   28.8043   18.7000 P   0  0  0  0  0  0  0  0  0  0  0  0
    5.5418   29.6689   17.8272 O   0  0  0  0  0  0  0  0  0  0  0  0
    5.4663   28.0002   19.5308 O   0  0  0  0  0  0  0  0  0  0  0  0
    4.7408   27.6577   18.9855 H   0  0  0  0  0  0  0  0  0  0  0  0
    7.0088   27.7408   17.6791 O   0  0  0  0  0  0  0  0  0  0  0  0
    6.7476   27.8741   16.3142 C   0  0  0  0  0  0  0  0  0  0  0  0
    8.0447   28.2654   15.6583 C   0  0  0  0  0  0  0  0  0  0  0  0
    9.0151   27.1860   15.5359 O   0  0  0  0  0  0  0  0  0  0  0  0
    7.8749   28.7276   14.2219 C   0  0  0  0  0  0  0  0  0  0  0  0
    8.9328   29.6846   14.0227 O   0  0  0  0  0  0  0  0  0  0  0  0
    8.1204   27.4239   13.4397 C   0  0  0  0  0  0  0  0  0  0  0  0
    8.4499   27.4926   12.0589 O   0  0  0  0  0  0  0  0  0  0  0  0
    9.3769   27.0074   14.1661 C   0  0  0  0  0  0  0  0  0  0  0  0
    9.7810   29.2854   14.2717 H   0  0  0  0  0  0  0  0  0  0  0  0
    9.2516   28.0265   11.9439 H   0  0  0  0  0  0  0  0  0  0  0  0
    9.4934   25.5904   13.9691 N   0  0  0  0  0  0  0  0  0  0  0  0
    8.4364   24.6934   13.9821 C   0  0  0  0  0  0  0  0  0  0  0  0
    8.8568   23.4457   13.9652 N   0  0  0  0  0  0  0  0  0  0  0  0
   10.2478   23.5296   13.8377 C   0  0  0  0  0  0  0  0  0  0  0  0
   11.2525   22.5557   13.7091 C   0  0  0  0  0  0  0  0  0  0  0  0
   11.0486   21.2156   13.7222 N   0  0  0  0  0  0  0  0  0  0  0  0
   12.5280   23.0230   13.5813 N   0  0  0  0  0  0  0  0  0  0  0  0
   12.7814   24.3368   13.6659 C   0  0  0  0  0  0  0  0  0  0  0  0
   11.9148   25.3384   13.7731 N   0  0  0  0  0  0  0  0  0  0  0  0
   10.6613   24.8548   13.8426 C   0  0  0  0  0  0  0  0  0  0  0  0
   10.1361   20.8574   13.8135 H   0  0  0  0  0  0  0  0  0  0  0  0
   11.8130   20.6005   13.6405 H   0  0  0  0  0  0  0  0  0  0  0  0
    7.4776   29.3175   19.5874 O   0  0  0  0  0  0  0  0  0  0  0  0
    8.4235   30.4498   19.5457 P   0  0  0  0  0  0  0  0  0  0  0  0
    7.6278   31.0048   20.6374 O   0  0  0  0  0  0  0  0  0  0  0  0
    8.6112   31.2519   18.3358 O   0  0  0  0  0  0  0  0  0  0  0  0
    9.8137   29.9516   20.0914 O   0  0  0  0  0  0  0  0  0  0  0  0
    9.6347   29.4309   21.4416 C   0  0  0  0  0  0  0  0  0  0  0  0
   10.9747   29.1385   22.1190 C   0  0  0  0  0  0  0  0  0  0  0  0
   11.4628   30.2570   22.9277 O   0  0  0  0  0  0  0  0  0  0  0  0
   10.8534   27.9537   23.0808 C   0  0  0  0  0  0  0  0  0  0  0  0
   11.9971   27.0472   23.2429 O   0  0  0  0  0  0  0  0  0  0  0  0
   10.5116   28.6619   24.3693 C   0  0  0  0  0  0  0  0  0  0  0  0
   10.8184   27.8258   25.4690 O   0  0  0  0  0  0  0  0  0  0  0  0
   11.4074   29.8981   24.3274 C   0  0  0  0  0  0  0  0  0  0  0  0
   12.7555   27.5423   23.5901 H   0  0  0  0  0  0  0  0  0  0  0  0
   11.7515   27.5643   25.4260 H   0  0  0  0  0  0  0  0  0  0  0  0
   10.8037   30.9677   25.1617 N   0  0  0  0  0  0  0  0  0  0  0  0
    9.6051   30.7370   25.6998 C   0  0  0  0  0  0  0  0  0  0  0  0
    8.8984   31.4602   26.5629 C   0  0  0  0  0  0  0  0  0  0  0  0
    9.5740   32.5923   26.8802 C   0  0  0  0  0  0  0  0  0  0  0  0
   10.8204   32.9902   26.3912 C   0  0  0  0  0  0  0  0  0  0  0  0
   11.4372   32.1440   25.4452 C   0  0  0  0  0  0  0  0  0  0  0  0
    7.6054   31.0871   27.0066 C   0  0  0  0  0  0  0  0  0  0  0  0
    6.6281   31.7557   26.6224 O   0  0  0  0  0  0  0  0  0  0  0  0
    7.3924   29.7979   27.8042 C   0  0  0  0  0  0  0  0  0  0  0  0
  1  2  2  0  0  0
  1  3  1  0  0  0
  1  5  1  0  0  0
  1 28  1  0  0  0
  5  6  1  0  0  0
  6  7  1  0  0  0
  7  8  1  0  0  0
  7  9  1  0  0  0
  8 13  1  0  0  0
  9 10  1  0  0  0
  9 11  1  0  0  0
 11 12  1  0  0  0
 11 13  1  0  0  0
 13 16  1  0  0  0
 16 17  1  0  0  0
 16 25  1  0  0  0
 17 18  2  0  0  0
 18 19  1  0  0  0
 19 20  2  0  0  0
 19 25  1  0  0  0
 20 21  1  0  0  0
 20 22  1  0  0  0
 22 23  2  0  0  0
 23 24  1  0  0  0
 24 25  2  0  0  0
 28 29  1  0  0  0
 29 30  2  0  0  0
 29 31  1  0  0  0
 29 32  1  0  0  0
 32 33  1  0  0  0
 33 34  1  0  0  0
 34 35  1  0  0  0
 34 36  1  0  0  0
 35 40  1  0  0  0
 36 37  1  0  0  0
 36 38  1  0  0  0
 38 39  1  0  0  0
 38 40  1  0  0  0
 40 43  1  0  0  0
 43 44  2  0  0  0
 43 48  1  0  0  0
 44 45  1  0  0  0
 45 49  1  0  0  0
 45 46  2  0  0  0
 49 50  2  0  0  0
 49 51  1  0  0  0
 46 47  1  0  0  0
 47 48  2  0  0  0
  3  4  1  0  0  0
 10 14  1  0  0  0
 12 15  1  0  0  0
 21 26  1  0  0  0
 21 27  1  0  0  0
 37 41  1  0  0  0
 39 42  1  0  0  0
M  CHG 1  31  -1
M  CHG 1  43   1
M  END
> <minimizedAffinity>
-9.95049

$$$$
