5ENG_5QN_A_1201


 35 37  0  0  0  0  0  0  0  0999 V2000
   34.6971    2.1641   79.0324 C   0  0  0  0  0  0  0  0  0  0  0  0
   35.2765    1.1234   79.6428 C   0  0  0  0  0  0  0  0  0  0  0  0
   33.4763    2.5451   79.4935 C   0  0  0  0  0  0  0  0  0  0  0  0
   32.8090    1.8953   80.4675 C   0  0  0  0  0  0  0  0  0  0  0  0
   33.3566    0.7806   81.0874 C   0  0  0  0  0  0  0  0  0  0  0  0
   34.6272    0.3910   80.6288 C   0  0  0  0  0  0  0  0  0  0  0  0
   36.9981    1.5625   78.0277 N   0  0  0  0  0  0  0  0  0  0  0  0
   36.5413    0.7319   78.9408 C   0  0  0  0  0  0  0  0  0  0  0  0
   37.2079   -0.1636   79.2632 O   0  0  0  0  0  0  0  0  0  0  0  0
   36.4129    2.3187   77.7932 H   0  0  0  0  0  0  0  0  0  0  0  0
   38.1988    1.3123   76.0007 C   0  0  0  0  0  0  0  0  0  0  0  0
   39.3657    1.3548   75.2466 C   0  0  0  0  0  0  0  0  0  0  0  0
   40.5675    1.5627   75.8721 C   0  0  0  0  0  0  0  0  0  0  0  0
   40.6085    1.7470   77.2434 C   0  0  0  0  0  0  0  0  0  0  0  0
   39.4272    1.7330   77.9884 C   0  0  0  0  0  0  0  0  0  0  0  0
   38.2416    1.4906   77.3416 C   0  0  0  0  0  0  0  0  0  0  0  0
   41.9877    2.0343   77.8506 C   0  0  0  0  0  0  0  0  0  0  0  0
   42.1083    2.2229   79.3713 C   0  0  0  0  0  0  0  0  0  0  0  0
   42.9044    2.1261   77.1566 O   0  0  0  0  0  0  0  0  0  0  0  0
   36.9261    1.0853   75.4695 O   0  0  0  0  0  0  0  0  0  0  0  0
   35.5135    0.8630   73.6574 C   0  0  0  0  0  0  0  0  0  0  0  0
   36.6287    1.6899   74.2092 C   0  0  0  0  0  0  0  0  0  0  0  0
   32.6060    0.0165   82.2089 C   0  0  0  0  0  0  0  0  0  0  0  0
   31.9394   -1.0064   82.0632 O   0  0  0  0  0  0  0  0  0  0  0  0
   32.8179    0.4903   83.5329 O   0  0  0  0  0  0  0  0  0  0  0  0
   31.7844    0.3732   84.4676 C   0  0  0  0  0  0  0  0  0  0  0  0
   31.4937    2.3485   80.8764 O   0  0  0  0  0  0  0  0  0  0  0  0
   31.4418    3.4129   81.8919 C   0  0  0  0  0  0  0  0  0  0  0  0
   30.6449    4.7477   81.4907 C   0  0  0  0  0  0  0  0  0  0  0  0
   32.5751    5.7349   81.1223 C   0  0  0  0  0  0  0  0  0  0  0  0
   30.4057    6.8625   81.1385 C   0  0  0  0  0  0  0  0  0  0  0  0
   31.2532    5.8295   81.5730 N   0  0  0  0  0  0  0  0  0  0  0  0
   32.8048    6.3589   79.7295 C   0  0  0  0  0  0  0  0  0  0  0  0
   32.0740    7.5197   79.3925 N   0  0  0  0  0  0  0  0  0  0  0  0
   31.0593    7.9503   80.2595 C   0  0  0  0  0  0  0  0  0  0  0  0
 21 22  1  0  0  0
 22 20  1  0  0  0
 12 13  2  0  0  0
 12 11  1  0  0  0
 20 11  1  0  0  0
 13 14  1  0  0  0
 11 16  2  0  0  0
 19 17  2  0  0  0
 14 17  1  0  0  0
 14 15  2  0  0  0
 16 15  1  0  0  0
 16  7  1  0  0  0
 17 18  1  0  0  0
  7  8  1  0  0  0
  8  9  2  0  0  0
  8  2  1  0  0  0
  2  6  2  0  0  0
  2  1  1  0  0  0
  6  5  1  0  0  0
  1  3  2  0  0  0
 26 25  1  0  0  0
 25 23  1  0  0  0
  5 23  1  0  0  0
  5  4  2  0  0  0
 23 24  2  0  0  0
  3  4  1  0  0  0
  4 27  1  0  0  0
 27 28  1  0  0  0
 33 30  1  0  0  0
 33 34  2  0  0  0
 30 32  1  0  0  0
 28 29  1  0  0  0
 29 32  1  0  0  0
 34 35  1  0  0  0
 32 31  1  0  0  0
 35 31  1  0  0  0
  7 10  1  0  0  0
M  END
> <minimizedAffinity>
-7.71405

$$$$
5ENG_5QN_A_1201


 35 37  0  0  0  0  0  0  0  0999 V2000
   36.4871    1.3613   78.5445 C   0  0  0  0  0  0  0  0  0  0  0  0
   35.4546    1.8382   77.8388 C   0  0  0  0  0  0  0  0  0  0  0  0
   37.6685    1.2208   77.8866 C   0  0  0  0  0  0  0  0  0  0  0  0
   37.8255    1.4684   76.5712 C   0  0  0  0  0  0  0  0  0  0  0  0
   36.7636    1.9143   75.7965 C   0  0  0  0  0  0  0  0  0  0  0  0
   35.5426    2.0798   76.4734 C   0  0  0  0  0  0  0  0  0  0  0  0
   34.2398    2.3560   79.8441 N   0  0  0  0  0  0  0  0  0  0  0  0
   34.1951    1.8042   78.6500 C   0  0  0  0  0  0  0  0  0  0  0  0
   33.1653    1.4678   78.2296 O   0  0  0  0  0  0  0  0  0  0  0  0
   35.1269    2.6441   80.1592 H   0  0  0  0  0  0  0  0  0  0  0  0
   32.9822    1.6991   81.7415 C   0  0  0  0  0  0  0  0  0  0  0  0
   32.0179    1.9211   82.7177 C   0  0  0  0  0  0  0  0  0  0  0  0
   31.2240    3.0360   82.6424 C   0  0  0  0  0  0  0  0  0  0  0  0
   31.4002    3.9395   81.6086 C   0  0  0  0  0  0  0  0  0  0  0  0
   32.3923    3.7232   80.6496 C   0  0  0  0  0  0  0  0  0  0  0  0
   33.1511    2.5828   80.7304 C   0  0  0  0  0  0  0  0  0  0  0  0
   30.5100    5.1886   81.6373 C   0  0  0  0  0  0  0  0  0  0  0  0
   31.1660    6.5679   81.8114 C   0  0  0  0  0  0  0  0  0  0  0  0
   29.3658    5.0712   81.5510 O   0  0  0  0  0  0  0  0  0  0  0  0
   33.8284    0.5871   81.7093 O   0  0  0  0  0  0  0  0  0  0  0  0
   34.1959   -1.3882   80.5729 C   0  0  0  0  0  0  0  0  0  0  0  0
   33.2243   -0.6844   81.4631 C   0  0  0  0  0  0  0  0  0  0  0  0
   36.9210    2.2036   74.2810 C   0  0  0  0  0  0  0  0  0  0  0  0
   36.6093    1.4443   73.3656 O   0  0  0  0  0  0  0  0  0  0  0  0
   37.3556    3.5142   73.9404 O   0  0  0  0  0  0  0  0  0  0  0  0
   36.3977    4.5038   73.6984 C   0  0  0  0  0  0  0  0  0  0  0  0
   39.1138    1.2590   75.9395 O   0  0  0  0  0  0  0  0  0  0  0  0
   40.2326    2.0877   76.4175 C   0  0  0  0  0  0  0  0  0  0  0  0
   41.2773    1.3782   77.4089 C   0  0  0  0  0  0  0  0  0  0  0  0
   41.1756    2.2178   79.4389 C   0  0  0  0  0  0  0  0  0  0  0  0
   43.2410    1.7812   78.2056 C   0  0  0  0  0  0  0  0  0  0  0  0
   41.8723    2.0976   78.2309 N   0  0  0  0  0  0  0  0  0  0  0  0
   41.7743    1.3813   80.5895 C   0  0  0  0  0  0  0  0  0  0  0  0
   43.1785    1.2412   80.6486 N   0  0  0  0  0  0  0  0  0  0  0  0
   43.9471    1.7184   79.5771 C   0  0  0  0  0  0  0  0  0  0  0  0
 21 22  1  0  0  0
 22 20  1  0  0  0
 12 13  2  0  0  0
 12 11  1  0  0  0
 20 11  1  0  0  0
 13 14  1  0  0  0
 11 16  2  0  0  0
 19 17  2  0  0  0
 14 17  1  0  0  0
 14 15  2  0  0  0
 16 15  1  0  0  0
 16  7  1  0  0  0
 17 18  1  0  0  0
  7  8  1  0  0  0
  8  9  2  0  0  0
  8  2  1  0  0  0
  2  6  2  0  0  0
  2  1  1  0  0  0
  6  5  1  0  0  0
  1  3  2  0  0  0
 26 25  1  0  0  0
 25 23  1  0  0  0
  5 23  1  0  0  0
  5  4  2  0  0  0
 23 24  2  0  0  0
  3  4  1  0  0  0
  4 27  1  0  0  0
 27 28  1  0  0  0
 33 30  1  0  0  0
 33 34  2  0  0  0
 30 32  1  0  0  0
 28 29  1  0  0  0
 29 32  1  0  0  0
 34 35  1  0  0  0
 32 31  1  0  0  0
 35 31  1  0  0  0
  7 10  1  0  0  0
M  END
> <minimizedAffinity>
-7.57169

$$$$
5ENG_5QN_A_1201


 35 37  0  0  0  0  0  0  0  0999 V2000
   36.6448    0.9543   79.1013 C   0  0  0  0  0  0  0  0  0  0  0  0
   35.5211    1.4252   78.5472 C   0  0  0  0  0  0  0  0  0  0  0  0
   37.7482    0.9080   78.3083 C   0  0  0  0  0  0  0  0  0  0  0  0
   37.7448    1.2413   77.0026 C   0  0  0  0  0  0  0  0  0  0  0  0
   36.5853    1.6842   76.3814 C   0  0  0  0  0  0  0  0  0  0  0  0
   35.4438    1.7525   77.1991 C   0  0  0  0  0  0  0  0  0  0  0  0
   34.3005    0.1749   80.1940 N   0  0  0  0  0  0  0  0  0  0  0  0
   34.3643    1.2847   79.4894 C   0  0  0  0  0  0  0  0  0  0  0  0
   33.6285    2.1480   79.7413 O   0  0  0  0  0  0  0  0  0  0  0  0
   34.9512   -0.5270   79.9633 H   0  0  0  0  0  0  0  0  0  0  0  0
   33.0042   -1.4131   81.3819 C   0  0  0  0  0  0  0  0  0  0  0  0
   32.2218   -1.8047   82.4621 C   0  0  0  0  0  0  0  0  0  0  0  0
   31.8349   -0.8725   83.3896 C   0  0  0  0  0  0  0  0  0  0  0  0
   32.2403    0.4441   83.2546 C   0  0  0  0  0  0  0  0  0  0  0  0
   33.0517    0.8217   82.1823 C   0  0  0  0  0  0  0  0  0  0  0  0
   33.3974   -0.1247   81.2509 C   0  0  0  0  0  0  0  0  0  0  0  0
   31.8124    1.4058   84.3707 C   0  0  0  0  0  0  0  0  0  0  0  0
   30.4415    2.0947   84.2765 C   0  0  0  0  0  0  0  0  0  0  0  0
   32.5327    1.6128   85.2474 O   0  0  0  0  0  0  0  0  0  0  0  0
   33.4354   -2.2742   80.3690 O   0  0  0  0  0  0  0  0  0  0  0  0
   35.5909   -3.0997   80.3937 C   0  0  0  0  0  0  0  0  0  0  0  0
   34.1818   -3.4261   80.7670 C   0  0  0  0  0  0  0  0  0  0  0  0
   36.5580    2.0713   74.8799 C   0  0  0  0  0  0  0  0  0  0  0  0
   36.8869    3.1585   74.4092 O   0  0  0  0  0  0  0  0  0  0  0  0
   36.2338    1.0240   73.9739 O   0  0  0  0  0  0  0  0  0  0  0  0
   34.9808    1.0291   73.3533 C   0  0  0  0  0  0  0  0  0  0  0  0
   38.9601    1.1295   76.2194 O   0  0  0  0  0  0  0  0  0  0  0  0
   40.0313    2.0963   76.5104 C   0  0  0  0  0  0  0  0  0  0  0  0
   41.3439    1.5161   77.2304 C   0  0  0  0  0  0  0  0  0  0  0  0
   41.0778    2.2880   79.2723 C   0  0  0  0  0  0  0  0  0  0  0  0
   43.2364    1.8984   78.1924 C   0  0  0  0  0  0  0  0  0  0  0  0
   41.8683    2.2097   78.1197 N   0  0  0  0  0  0  0  0  0  0  0  0
   41.5885    1.4157   80.4387 C   0  0  0  0  0  0  0  0  0  0  0  0
   42.9845    1.2780   80.6039 N   0  0  0  0  0  0  0  0  0  0  0  0
   43.8326    1.7924   79.6125 C   0  0  0  0  0  0  0  0  0  0  0  0
 21 22  1  0  0  0
 22 20  1  0  0  0
 12 13  2  0  0  0
 12 11  1  0  0  0
 20 11  1  0  0  0
 13 14  1  0  0  0
 11 16  2  0  0  0
 19 17  2  0  0  0
 14 17  1  0  0  0
 14 15  2  0  0  0
 16 15  1  0  0  0
 16  7  1  0  0  0
 17 18  1  0  0  0
  7  8  1  0  0  0
  8  9  2  0  0  0
  8  2  1  0  0  0
  2  6  2  0  0  0
  2  1  1  0  0  0
  6  5  1  0  0  0
  1  3  2  0  0  0
 26 25  1  0  0  0
 25 23  1  0  0  0
  5 23  1  0  0  0
  5  4  2  0  0  0
 23 24  2  0  0  0
  3  4  1  0  0  0
  4 27  1  0  0  0
 27 28  1  0  0  0
 33 30  1  0  0  0
 33 34  2  0  0  0
 30 32  1  0  0  0
 28 29  1  0  0  0
 29 32  1  0  0  0
 34 35  1  0  0  0
 32 31  1  0  0  0
 35 31  1  0  0  0
  7 10  1  0  0  0
M  END
> <minimizedAffinity>
-7.52632

$$$$
5ENG_5QN_A_1201


 35 37  0  0  0  0  0  0  0  0999 V2000
   34.5267    1.0195   80.5056 C   0  0  0  0  0  0  0  0  0  0  0  0
   34.8511    1.7015   79.4005 C   0  0  0  0  0  0  0  0  0  0  0  0
   33.4731    1.4852   81.2278 C   0  0  0  0  0  0  0  0  0  0  0  0
   32.8010    2.6137   80.9267 C   0  0  0  0  0  0  0  0  0  0  0  0
   33.1432    3.3746   79.8174 C   0  0  0  0  0  0  0  0  0  0  0  0
   34.2201    2.8900   79.0547 C   0  0  0  0  0  0  0  0  0  0  0  0
   36.7110    1.9140   77.8969 N   0  0  0  0  0  0  0  0  0  0  0  0
   36.1084    1.1595   78.7912 C   0  0  0  0  0  0  0  0  0  0  0  0
   36.6512    0.2053   79.1722 O   0  0  0  0  0  0  0  0  0  0  0  0
   36.2282    2.7231   77.6113 H   0  0  0  0  0  0  0  0  0  0  0  0
   37.9963    1.3722   75.9818 C   0  0  0  0  0  0  0  0  0  0  0  0
   39.2011    1.2613   75.2975 C   0  0  0  0  0  0  0  0  0  0  0  0
   40.3799    1.4624   75.9674 C   0  0  0  0  0  0  0  0  0  0  0  0
   40.3616    1.7919   77.3118 C   0  0  0  0  0  0  0  0  0  0  0  0
   39.1449    1.9311   77.9832 C   0  0  0  0  0  0  0  0  0  0  0  0
   37.9810    1.6923   77.2967 C   0  0  0  0  0  0  0  0  0  0  0  0
   41.7235    2.0590   77.9656 C   0  0  0  0  0  0  0  0  0  0  0  0
   41.8053    2.1786   79.4959 C   0  0  0  0  0  0  0  0  0  0  0  0
   42.6564    2.1878   77.2996 O   0  0  0  0  0  0  0  0  0  0  0  0
   36.7406    1.1667   75.4033 O   0  0  0  0  0  0  0  0  0  0  0  0
   35.3850    0.8517   73.5617 C   0  0  0  0  0  0  0  0  0  0  0  0
   36.5561    1.6312   74.0645 C   0  0  0  0  0  0  0  0  0  0  0  0
   32.3849    4.6775   79.4531 C   0  0  0  0  0  0  0  0  0  0  0  0
   31.4066    4.7596   78.7128 O   0  0  0  0  0  0  0  0  0  0  0  0
   32.8010    5.8514   80.1397 O   0  0  0  0  0  0  0  0  0  0  0  0
   31.8829    6.5200   80.9555 C   0  0  0  0  0  0  0  0  0  0  0  0
   31.7095    3.0586   81.7714 O   0  0  0  0  0  0  0  0  0  0  0  0
   30.9067    2.0138   82.4278 C   0  0  0  0  0  0  0  0  0  0  0  0
   30.4342    2.3130   83.9328 C   0  0  0  0  0  0  0  0  0  0  0  0
   31.9795    1.0732   84.8872 C   0  0  0  0  0  0  0  0  0  0  0  0
   29.8626    1.7190   85.9262 C   0  0  0  0  0  0  0  0  0  0  0  0
   30.6294    1.4286   84.7853 N   0  0  0  0  0  0  0  0  0  0  0  0
   32.6810    1.6425   86.1386 C   0  0  0  0  0  0  0  0  0  0  0  0
   31.9327    1.7423   87.3324 N   0  0  0  0  0  0  0  0  0  0  0  0
   30.5552    1.4839   87.2857 C   0  0  0  0  0  0  0  0  0  0  0  0
 21 22  1  0  0  0
 22 20  1  0  0  0
 12 13  2  0  0  0
 12 11  1  0  0  0
 20 11  1  0  0  0
 13 14  1  0  0  0
 11 16  2  0  0  0
 19 17  2  0  0  0
 14 17  1  0  0  0
 14 15  2  0  0  0
 16 15  1  0  0  0
 16  7  1  0  0  0
 17 18  1  0  0  0
  7  8  1  0  0  0
  8  9  2  0  0  0
  8  2  1  0  0  0
  2  6  2  0  0  0
  2  1  1  0  0  0
  6  5  1  0  0  0
  1  3  2  0  0  0
 26 25  1  0  0  0
 25 23  1  0  0  0
  5 23  1  0  0  0
  5  4  2  0  0  0
 23 24  2  0  0  0
  3  4  1  0  0  0
  4 27  1  0  0  0
 27 28  1  0  0  0
 33 30  1  0  0  0
 33 34  2  0  0  0
 30 32  1  0  0  0
 28 29  1  0  0  0
 29 32  1  0  0  0
 34 35  1  0  0  0
 32 31  1  0  0  0
 35 31  1  0  0  0
  7 10  1  0  0  0
M  END
> <minimizedAffinity>
-7.46943

$$$$
5ENG_5QN_A_1201


 35 37  0  0  0  0  0  0  0  0999 V2000
   36.4938    0.9883   79.0192 C   0  0  0  0  0  0  0  0  0  0  0  0
   35.3973    1.5155   78.4613 C   0  0  0  0  0  0  0  0  0  0  0  0
   37.6246    0.9817   78.2646 C   0  0  0  0  0  0  0  0  0  0  0  0
   37.6732    1.4081   76.9871 C   0  0  0  0  0  0  0  0  0  0  0  0
   36.5429    1.9128   76.3590 C   0  0  0  0  0  0  0  0  0  0  0  0
   35.3735    1.9402   77.1387 C   0  0  0  0  0  0  0  0  0  0  0  0
   34.3006    1.7809   80.5808 N   0  0  0  0  0  0  0  0  0  0  0  0
   34.2053    1.3259   79.3494 C   0  0  0  0  0  0  0  0  0  0  0  0
   33.1719    0.9520   78.9718 O   0  0  0  0  0  0  0  0  0  0  0  0
   35.1875    2.1052   80.8591 H   0  0  0  0  0  0  0  0  0  0  0  0
   32.5429    2.9993   81.6001 C   0  0  0  0  0  0  0  0  0  0  0  0
   31.4395    3.1013   82.4393 C   0  0  0  0  0  0  0  0  0  0  0  0
   31.0962    2.0402   83.2363 C   0  0  0  0  0  0  0  0  0  0  0  0
   31.8369    0.8719   83.1862 C   0  0  0  0  0  0  0  0  0  0  0  0
   32.9254    0.7685   82.3172 C   0  0  0  0  0  0  0  0  0  0  0  0
   33.2669    1.8567   81.5544 C   0  0  0  0  0  0  0  0  0  0  0  0
   31.3446   -0.2843   84.0662 C   0  0  0  0  0  0  0  0  0  0  0  0
   31.7321   -1.7238   83.6914 C   0  0  0  0  0  0  0  0  0  0  0  0
   30.6757   -0.0574   84.9780 O   0  0  0  0  0  0  0  0  0  0  0  0
   32.9936    4.0248   80.7642 O   0  0  0  0  0  0  0  0  0  0  0  0
   33.0573    4.7725   78.5812 C   0  0  0  0  0  0  0  0  0  0  0  0
   32.1290    4.4244   79.6987 C   0  0  0  0  0  0  0  0  0  0  0  0
   36.5754    2.4073   74.8895 C   0  0  0  0  0  0  0  0  0  0  0  0
   36.7711    3.5642   74.5219 O   0  0  0  0  0  0  0  0  0  0  0  0
   36.4868    1.3975   73.8919 O   0  0  0  0  0  0  0  0  0  0  0  0
   35.2719    0.7293   73.7108 C   0  0  0  0  0  0  0  0  0  0  0  0
   38.9145    1.3338   76.2413 O   0  0  0  0  0  0  0  0  0  0  0  0
   39.9965    2.2413   76.6567 C   0  0  0  0  0  0  0  0  0  0  0  0
   41.2895    1.5583   77.3197 C   0  0  0  0  0  0  0  0  0  0  0  0
   41.2017    2.3161   79.3823 C   0  0  0  0  0  0  0  0  0  0  0  0
   43.2596    1.8222   78.1579 C   0  0  0  0  0  0  0  0  0  0  0  0
   41.9093    2.2098   78.1792 N   0  0  0  0  0  0  0  0  0  0  0  0
   41.7381    1.4013   80.5037 C   0  0  0  0  0  0  0  0  0  0  0  0
   43.1320    1.1842   80.5746 N   0  0  0  0  0  0  0  0  0  0  0  0
   43.9407    1.6642   79.5344 C   0  0  0  0  0  0  0  0  0  0  0  0
 21 22  1  0  0  0
 22 20  1  0  0  0
 12 13  2  0  0  0
 12 11  1  0  0  0
 20 11  1  0  0  0
 13 14  1  0  0  0
 11 16  2  0  0  0
 19 17  2  0  0  0
 14 17  1  0  0  0
 14 15  2  0  0  0
 16 15  1  0  0  0
 16  7  1  0  0  0
 17 18  1  0  0  0
  7  8  1  0  0  0
  8  9  2  0  0  0
  8  2  1  0  0  0
  2  6  2  0  0  0
  2  1  1  0  0  0
  6  5  1  0  0  0
  1  3  2  0  0  0
 26 25  1  0  0  0
 25 23  1  0  0  0
  5 23  1  0  0  0
  5  4  2  0  0  0
 23 24  2  0  0  0
  3  4  1  0  0  0
  4 27  1  0  0  0
 27 28  1  0  0  0
 33 30  1  0  0  0
 33 34  2  0  0  0
 30 32  1  0  0  0
 28 29  1  0  0  0
 29 32  1  0  0  0
 34 35  1  0  0  0
 32 31  1  0  0  0
 35 31  1  0  0  0
  7 10  1  0  0  0
M  END
> <minimizedAffinity>
-7.32776

$$$$
5ENG_5QN_A_1201


 35 37  0  0  0  0  0  0  0  0999 V2000
   35.6970    0.6563   79.5855 C   0  0  0  0  0  0  0  0  0  0  0  0
   36.2775    1.3738   78.6160 C   0  0  0  0  0  0  0  0  0  0  0  0
   34.4147    0.9769   79.9031 C   0  0  0  0  0  0  0  0  0  0  0  0
   33.7415    2.0039   79.3481 C   0  0  0  0  0  0  0  0  0  0  0  0
   34.3300    2.8021   78.3769 C   0  0  0  0  0  0  0  0  0  0  0  0
   35.6500    2.4657   78.0293 C   0  0  0  0  0  0  0  0  0  0  0  0
   38.5962    1.9892   78.5161 N   0  0  0  0  0  0  0  0  0  0  0  0
   37.7231    1.0052   78.4747 C   0  0  0  0  0  0  0  0  0  0  0  0
   38.1149   -0.0887   78.4903 O   0  0  0  0  0  0  0  0  0  0  0  0
   38.2263    2.9015   78.5191 H   0  0  0  0  0  0  0  0  0  0  0  0
   40.6911    2.2080   77.4312 C   0  0  0  0  0  0  0  0  0  0  0  0
   42.0805    2.2471   77.4313 C   0  0  0  0  0  0  0  0  0  0  0  0
   42.7653    1.9377   78.5777 C   0  0  0  0  0  0  0  0  0  0  0  0
   42.0703    1.6079   79.7285 C   0  0  0  0  0  0  0  0  0  0  0  0
   40.6737    1.6010   79.7265 C   0  0  0  0  0  0  0  0  0  0  0  0
   40.0138    1.8830   78.5570 C   0  0  0  0  0  0  0  0  0  0  0  0
   42.9154    1.3363   80.9797 C   0  0  0  0  0  0  0  0  0  0  0  0
   42.2557    0.6612   82.1929 C   0  0  0  0  0  0  0  0  0  0  0  0
   44.0217    1.6621   80.9980 O   0  0  0  0  0  0  0  0  0  0  0  0
   39.8959    2.4828   76.3151 O   0  0  0  0  0  0  0  0  0  0  0  0
   38.3627    1.6954   74.7796 C   0  0  0  0  0  0  0  0  0  0  0  0
   39.7064    1.4245   75.3736 C   0  0  0  0  0  0  0  0  0  0  0  0
   33.5749    3.9901   77.7261 C   0  0  0  0  0  0  0  0  0  0  0  0
   32.8222    3.9219   76.7562 O   0  0  0  0  0  0  0  0  0  0  0  0
   33.6836    5.2387   78.3982 O   0  0  0  0  0  0  0  0  0  0  0  0
   34.5570    6.2064   77.8921 C   0  0  0  0  0  0  0  0  0  0  0  0
   32.3860    2.2991   79.7702 O   0  0  0  0  0  0  0  0  0  0  0  0
   32.2055    2.7606   81.1563 C   0  0  0  0  0  0  0  0  0  0  0  0
   32.2073    4.3493   81.3884 C   0  0  0  0  0  0  0  0  0  0  0  0
   30.8340    5.6535   80.2708 C   0  0  0  0  0  0  0  0  0  0  0  0
   30.1571    4.0517   81.9894 C   0  0  0  0  0  0  0  0  0  0  0  0
   31.1066    4.9267   81.4356 N   0  0  0  0  0  0  0  0  0  0  0  0
   29.8034    4.9777   79.3415 C   0  0  0  0  0  0  0  0  0  0  0  0
   28.7414    4.2613   79.9363 N   0  0  0  0  0  0  0  0  0  0  0  0
   28.7645    4.0533   81.3229 C   0  0  0  0  0  0  0  0  0  0  0  0
 21 22  1  0  0  0
 22 20  1  0  0  0
 12 13  2  0  0  0
 12 11  1  0  0  0
 20 11  1  0  0  0
 13 14  1  0  0  0
 11 16  2  0  0  0
 19 17  2  0  0  0
 14 17  1  0  0  0
 14 15  2  0  0  0
 16 15  1  0  0  0
 16  7  1  0  0  0
 17 18  1  0  0  0
  7  8  1  0  0  0
  8  9  2  0  0  0
  8  2  1  0  0  0
  2  6  2  0  0  0
  2  1  1  0  0  0
  6  5  1  0  0  0
  1  3  2  0  0  0
 26 25  1  0  0  0
 25 23  1  0  0  0
  5 23  1  0  0  0
  5  4  2  0  0  0
 23 24  2  0  0  0
  3  4  1  0  0  0
  4 27  1  0  0  0
 27 28  1  0  0  0
 33 30  1  0  0  0
 33 34  2  0  0  0
 30 32  1  0  0  0
 28 29  1  0  0  0
 29 32  1  0  0  0
 34 35  1  0  0  0
 32 31  1  0  0  0
 35 31  1  0  0  0
  7 10  1  0  0  0
M  END
> <minimizedAffinity>
-7.32574

$$$$
5ENG_5QN_A_1201


 35 37  0  0  0  0  0  0  0  0999 V2000
   35.5313    1.6343   77.6977 C   0  0  0  0  0  0  0  0  0  0  0  0
   36.4036    0.9905   78.4827 C   0  0  0  0  0  0  0  0  0  0  0  0
   36.0101    2.1328   76.5270 C   0  0  0  0  0  0  0  0  0  0  0  0
   37.3059    2.0700   76.1622 C   0  0  0  0  0  0  0  0  0  0  0  0
   38.2480    1.4557   76.9755 C   0  0  0  0  0  0  0  0  0  0  0  0
   37.7577    0.9212   78.1798 C   0  0  0  0  0  0  0  0  0  0  0  0
   34.4630    0.7383   79.8741 N   0  0  0  0  0  0  0  0  0  0  0  0
   35.7717    0.6246   79.7914 C   0  0  0  0  0  0  0  0  0  0  0  0
   36.3424    0.1080   80.6617 O   0  0  0  0  0  0  0  0  0  0  0  0
   34.0125    1.1654   79.1101 H   0  0  0  0  0  0  0  0  0  0  0  0
   33.3817   -1.0134   81.0469 C   0  0  0  0  0  0  0  0  0  0  0  0
   32.6759   -1.5167   82.1335 C   0  0  0  0  0  0  0  0  0  0  0  0
   32.2128   -0.6571   83.0955 C   0  0  0  0  0  0  0  0  0  0  0  0
   32.4666    0.6995   82.9881 C   0  0  0  0  0  0  0  0  0  0  0  0
   33.2029    1.1918   81.9083 C   0  0  0  0  0  0  0  0  0  0  0  0
   33.6266    0.3136   80.9429 C   0  0  0  0  0  0  0  0  0  0  0  0
   31.9645    1.5791   84.1404 C   0  0  0  0  0  0  0  0  0  0  0  0
   32.4745    1.3052   85.5644 C   0  0  0  0  0  0  0  0  0  0  0  0
   31.1983    2.4137   83.9239 O   0  0  0  0  0  0  0  0  0  0  0  0
   33.8787   -1.7954   80.0005 O   0  0  0  0  0  0  0  0  0  0  0  0
   35.6726   -3.1952   80.3890 C   0  0  0  0  0  0  0  0  0  0  0  0
   34.1821   -3.1606   80.2946 C   0  0  0  0  0  0  0  0  0  0  0  0
   39.7444    1.3734   76.5766 C   0  0  0  0  0  0  0  0  0  0  0  0
   40.2382    0.5666   75.7911 O   0  0  0  0  0  0  0  0  0  0  0  0
   40.5805    2.4059   77.0841 O   0  0  0  0  0  0  0  0  0  0  0  0
   41.5953    2.0731   77.9868 C   0  0  0  0  0  0  0  0  0  0  0  0
   37.7391    2.6588   74.9098 O   0  0  0  0  0  0  0  0  0  0  0  0
   37.4514    1.8995   73.6820 C   0  0  0  0  0  0  0  0  0  0  0  0
   36.1833    2.3806   72.8228 C   0  0  0  0  0  0  0  0  0  0  0  0
   35.8662    4.3791   71.9616 C   0  0  0  0  0  0  0  0  0  0  0  0
   37.7226    2.8905   71.4000 C   0  0  0  0  0  0  0  0  0  0  0  0
   36.3987    3.0918   71.8252 N   0  0  0  0  0  0  0  0  0  0  0  0
   36.9239    5.4626   72.2605 C   0  0  0  0  0  0  0  0  0  0  0  0
   38.1951    5.3345   71.6582 N   0  0  0  0  0  0  0  0  0  0  0  0
   38.4928    4.1545   70.9615 C   0  0  0  0  0  0  0  0  0  0  0  0
 21 22  1  0  0  0
 22 20  1  0  0  0
 12 13  2  0  0  0
 12 11  1  0  0  0
 20 11  1  0  0  0
 13 14  1  0  0  0
 11 16  2  0  0  0
 19 17  2  0  0  0
 14 17  1  0  0  0
 14 15  2  0  0  0
 16 15  1  0  0  0
 16  7  1  0  0  0
 17 18  1  0  0  0
  7  8  1  0  0  0
  8  9  2  0  0  0
  8  2  1  0  0  0
  2  6  2  0  0  0
  2  1  1  0  0  0
  6  5  1  0  0  0
  1  3  2  0  0  0
 26 25  1  0  0  0
 25 23  1  0  0  0
  5 23  1  0  0  0
  5  4  2  0  0  0
 23 24  2  0  0  0
  3  4  1  0  0  0
  4 27  1  0  0  0
 27 28  1  0  0  0
 33 30  1  0  0  0
 33 34  2  0  0  0
 30 32  1  0  0  0
 28 29  1  0  0  0
 29 32  1  0  0  0
 34 35  1  0  0  0
 32 31  1  0  0  0
 35 31  1  0  0  0
  7 10  1  0  0  0
M  END
> <minimizedAffinity>
-7.19064

$$$$
5ENG_5QN_A_1201


 35 37  0  0  0  0  0  0  0  0999 V2000
   35.7028    0.7721   79.5943 C   0  0  0  0  0  0  0  0  0  0  0  0
   36.2869    1.4356   78.5892 C   0  0  0  0  0  0  0  0  0  0  0  0
   34.4273    1.1258   79.9047 C   0  0  0  0  0  0  0  0  0  0  0  0
   33.7652    2.1360   79.3070 C   0  0  0  0  0  0  0  0  0  0  0  0
   34.3585    2.8798   78.2964 C   0  0  0  0  0  0  0  0  0  0  0  0
   35.6712    2.5085   77.9566 C   0  0  0  0  0  0  0  0  0  0  0  0
   38.6144    2.0109   78.4592 N   0  0  0  0  0  0  0  0  0  0  0  0
   37.7261    1.0398   78.4562 C   0  0  0  0  0  0  0  0  0  0  0  0
   38.1010   -0.0588   78.5096 O   0  0  0  0  0  0  0  0  0  0  0  0
   38.2586    2.9284   78.4308 H   0  0  0  0  0  0  0  0  0  0  0  0
   40.7102    2.1861   77.3684 C   0  0  0  0  0  0  0  0  0  0  0  0
   42.1001    2.2046   77.3657 C   0  0  0  0  0  0  0  0  0  0  0  0
   42.7824    1.8984   78.5144 C   0  0  0  0  0  0  0  0  0  0  0  0
   42.0847    1.5922   79.6701 C   0  0  0  0  0  0  0  0  0  0  0  0
   40.6881    1.6061   79.6706 C   0  0  0  0  0  0  0  0  0  0  0  0
   40.0303    1.8842   78.4990 C   0  0  0  0  0  0  0  0  0  0  0  0
   42.9280    1.3226   80.9230 C   0  0  0  0  0  0  0  0  0  0  0  0
   42.2455    0.7363   82.1692 C   0  0  0  0  0  0  0  0  0  0  0  0
   44.0513    1.5843   80.9170 O   0  0  0  0  0  0  0  0  0  0  0  0
   39.9172    2.4597   76.2505 O   0  0  0  0  0  0  0  0  0  0  0  0
   38.5003    1.7548   74.5699 C   0  0  0  0  0  0  0  0  0  0  0  0
   39.7657    1.4147   75.2875 C   0  0  0  0  0  0  0  0  0  0  0  0
   33.6161    4.0476   77.5961 C   0  0  0  0  0  0  0  0  0  0  0  0
   33.8972    5.2408   77.6906 O   0  0  0  0  0  0  0  0  0  0  0  0
   32.5987    3.6739   76.6753 O   0  0  0  0  0  0  0  0  0  0  0  0
   32.9184    2.8015   75.6302 C   0  0  0  0  0  0  0  0  0  0  0  0
   32.4170    2.4701   79.7233 O   0  0  0  0  0  0  0  0  0  0  0  0
   31.7014    1.4681   80.5300 C   0  0  0  0  0  0  0  0  0  0  0  0
   31.0978    0.2088   79.7378 C   0  0  0  0  0  0  0  0  0  0  0  0
   31.8819   -1.8193   80.0663 C   0  0  0  0  0  0  0  0  0  0  0  0
   30.6126   -0.5255   81.7073 C   0  0  0  0  0  0  0  0  0  0  0  0
   30.9253   -0.8452   80.3754 N   0  0  0  0  0  0  0  0  0  0  0  0
   32.9603   -2.0013   81.1554 C   0  0  0  0  0  0  0  0  0  0  0  0
   32.5707   -1.8638   82.5061 N   0  0  0  0  0  0  0  0  0  0  0  0
   31.2761   -1.4050   82.7887 C   0  0  0  0  0  0  0  0  0  0  0  0
 21 22  1  0  0  0
 22 20  1  0  0  0
 12 13  2  0  0  0
 12 11  1  0  0  0
 20 11  1  0  0  0
 13 14  1  0  0  0
 11 16  2  0  0  0
 19 17  2  0  0  0
 14 17  1  0  0  0
 14 15  2  0  0  0
 16 15  1  0  0  0
 16  7  1  0  0  0
 17 18  1  0  0  0
  7  8  1  0  0  0
  8  9  2  0  0  0
  8  2  1  0  0  0
  2  6  2  0  0  0
  2  1  1  0  0  0
  6  5  1  0  0  0
  1  3  2  0  0  0
 26 25  1  0  0  0
 25 23  1  0  0  0
  5 23  1  0  0  0
  5  4  2  0  0  0
 23 24  2  0  0  0
  3  4  1  0  0  0
  4 27  1  0  0  0
 27 28  1  0  0  0
 33 30  1  0  0  0
 33 34  2  0  0  0
 30 32  1  0  0  0
 28 29  1  0  0  0
 29 32  1  0  0  0
 34 35  1  0  0  0
 32 31  1  0  0  0
 35 31  1  0  0  0
  7 10  1  0  0  0
M  END
> <minimizedAffinity>
-7.15310

$$$$
5ENG_5QN_A_1201


 35 37  0  0  0  0  0  0  0  0999 V2000
   35.7430    1.5534   77.6252 C   0  0  0  0  0  0  0  0  0  0  0  0
   36.6453    0.8878   78.3563 C   0  0  0  0  0  0  0  0  0  0  0  0
   36.1895    2.1394   76.4827 C   0  0  0  0  0  0  0  0  0  0  0  0
   37.4811    2.1392   76.0979 C   0  0  0  0  0  0  0  0  0  0  0  0
   38.4528    1.5034   76.8583 C   0  0  0  0  0  0  0  0  0  0  0  0
   37.9963    0.8791   78.0322 C   0  0  0  0  0  0  0  0  0  0  0  0
   34.7439    0.5714   79.7880 N   0  0  0  0  0  0  0  0  0  0  0  0
   36.0438    0.4207   79.6469 C   0  0  0  0  0  0  0  0  0  0  0  0
   36.6231   -0.1963   80.4431 O   0  0  0  0  0  0  0  0  0  0  0  0
   34.2848    1.0850   79.0847 H   0  0  0  0  0  0  0  0  0  0  0  0
   33.3160    0.9887   81.6319 C   0  0  0  0  0  0  0  0  0  0  0  0
   32.4078    0.5840   82.6033 C   0  0  0  0  0  0  0  0  0  0  0  0
   32.1457   -0.7511   82.7693 C   0  0  0  0  0  0  0  0  0  0  0  0
   32.7710   -1.6827   81.9586 C   0  0  0  0  0  0  0  0  0  0  0  0
   33.6589   -1.2640   80.9651 C   0  0  0  0  0  0  0  0  0  0  0  0
   33.9279    0.0758   80.8420 C   0  0  0  0  0  0  0  0  0  0  0  0
   32.3722   -3.1484   82.1731 C   0  0  0  0  0  0  0  0  0  0  0  0
   33.4371   -4.2436   82.0022 C   0  0  0  0  0  0  0  0  0  0  0  0
   31.2789   -3.4056   82.4360 O   0  0  0  0  0  0  0  0  0  0  0  0
   33.6727    2.3188   81.3931 O   0  0  0  0  0  0  0  0  0  0  0  0
   32.9623    3.8455   79.8142 C   0  0  0  0  0  0  0  0  0  0  0  0
   32.6125    3.2416   81.1350 C   0  0  0  0  0  0  0  0  0  0  0  0
   39.9450    1.4921   76.4358 C   0  0  0  0  0  0  0  0  0  0  0  0
   40.4273    0.8438   75.5091 O   0  0  0  0  0  0  0  0  0  0  0  0
   40.7909    2.4096   77.1178 O   0  0  0  0  0  0  0  0  0  0  0  0
   41.9199    1.9230   77.7842 C   0  0  0  0  0  0  0  0  0  0  0  0
   37.8783    2.8191   74.8803 O   0  0  0  0  0  0  0  0  0  0  0  0
   36.9698    2.7062   73.7276 C   0  0  0  0  0  0  0  0  0  0  0  0
   36.5228    4.0816   73.0304 C   0  0  0  0  0  0  0  0  0  0  0  0
   37.2473    5.4710   71.4874 C   0  0  0  0  0  0  0  0  0  0  0  0
   37.3426    3.0328   71.3329 C   0  0  0  0  0  0  0  0  0  0  0  0
   36.7392    4.2077   71.8120 N   0  0  0  0  0  0  0  0  0  0  0  0
   38.7601    5.4745   71.1817 C   0  0  0  0  0  0  0  0  0  0  0  0
   39.3071    4.3530   70.5198 N   0  0  0  0  0  0  0  0  0  0  0  0
   38.4957    3.2260   70.3248 C   0  0  0  0  0  0  0  0  0  0  0  0
 21 22  1  0  0  0
 22 20  1  0  0  0
 12 13  2  0  0  0
 12 11  1  0  0  0
 20 11  1  0  0  0
 13 14  1  0  0  0
 11 16  2  0  0  0
 19 17  2  0  0  0
 14 17  1  0  0  0
 14 15  2  0  0  0
 16 15  1  0  0  0
 16  7  1  0  0  0
 17 18  1  0  0  0
  7  8  1  0  0  0
  8  9  2  0  0  0
  8  2  1  0  0  0
  2  6  2  0  0  0
  2  1  1  0  0  0
  6  5  1  0  0  0
  1  3  2  0  0  0
 26 25  1  0  0  0
 25 23  1  0  0  0
  5 23  1  0  0  0
  5  4  2  0  0  0
 23 24  2  0  0  0
  3  4  1  0  0  0
  4 27  1  0  0  0
 27 28  1  0  0  0
 33 30  1  0  0  0
 33 34  2  0  0  0
 30 32  1  0  0  0
 28 29  1  0  0  0
 29 32  1  0  0  0
 34 35  1  0  0  0
 32 31  1  0  0  0
 35 31  1  0  0  0
  7 10  1  0  0  0
M  END
> <minimizedAffinity>
-7.09978

$$$$
5ENG_5QN_A_1201


 35 37  0  0  0  0  0  0  0  0999 V2000
   34.5228    2.1608   79.0169 C   0  0  0  0  0  0  0  0  0  0  0  0
   35.1718    1.2085   79.6978 C   0  0  0  0  0  0  0  0  0  0  0  0
   33.3023    2.5299   79.4886 C   0  0  0  0  0  0  0  0  0  0  0  0
   32.7012    1.9463   80.5441 C   0  0  0  0  0  0  0  0  0  0  0  0
   33.3222    0.9199   81.2424 C   0  0  0  0  0  0  0  0  0  0  0  0
   34.5928    0.5447   80.7722 C   0  0  0  0  0  0  0  0  0  0  0  0
   36.8821    1.6345   78.0672 N   0  0  0  0  0  0  0  0  0  0  0  0
   36.4281    0.8083   78.9857 C   0  0  0  0  0  0  0  0  0  0  0  0
   37.0921   -0.0907   79.3040 O   0  0  0  0  0  0  0  0  0  0  0  0
   36.2995    2.3938   77.8364 H   0  0  0  0  0  0  0  0  0  0  0  0
   38.0638    1.4007   76.0271 C   0  0  0  0  0  0  0  0  0  0  0  0
   39.2258    1.4369   75.2652 C   0  0  0  0  0  0  0  0  0  0  0  0
   40.4355    1.6131   75.8853 C   0  0  0  0  0  0  0  0  0  0  0  0
   40.4894    1.7719   77.2594 C   0  0  0  0  0  0  0  0  0  0  0  0
   39.3135    1.7645   78.0128 C   0  0  0  0  0  0  0  0  0  0  0  0
   38.1193    1.5539   77.3707 C   0  0  0  0  0  0  0  0  0  0  0  0
   41.8777    2.0248   77.8613 C   0  0  0  0  0  0  0  0  0  0  0  0
   42.0189    2.1400   79.3876 C   0  0  0  0  0  0  0  0  0  0  0  0
   42.7856    2.1463   77.1604 O   0  0  0  0  0  0  0  0  0  0  0  0
   36.7836    1.2049   75.5015 O   0  0  0  0  0  0  0  0  0  0  0  0
   35.3648    0.7388   73.7413 C   0  0  0  0  0  0  0  0  0  0  0  0
   36.5969    1.4964   74.1150 C   0  0  0  0  0  0  0  0  0  0  0  0
   32.6484    0.2329   82.4586 C   0  0  0  0  0  0  0  0  0  0  0  0
   32.5813    0.6886   83.5986 O   0  0  0  0  0  0  0  0  0  0  0  0
   31.9498   -0.9746   82.1818 O   0  0  0  0  0  0  0  0  0  0  0  0
   32.6070   -2.1949   82.3671 C   0  0  0  0  0  0  0  0  0  0  0  0
   31.3811    2.3781   80.9608 O   0  0  0  0  0  0  0  0  0  0  0  0
   30.2730    2.1317   80.0236 C   0  0  0  0  0  0  0  0  0  0  0  0
   29.8630    0.5976   79.7865 C   0  0  0  0  0  0  0  0  0  0  0  0
   30.8712   -1.1763   78.9661 C   0  0  0  0  0  0  0  0  0  0  0  0
   29.2421    0.1917   77.7609 C   0  0  0  0  0  0  0  0  0  0  0  0
   30.2453    0.0542   78.7349 N   0  0  0  0  0  0  0  0  0  0  0  0
   29.9955   -2.3971   78.6126 C   0  0  0  0  0  0  0  0  0  0  0  0
   29.1307   -2.2950   77.5005 N   0  0  0  0  0  0  0  0  0  0  0  0
   28.9811   -1.0474   76.8777 C   0  0  0  0  0  0  0  0  0  0  0  0
 21 22  1  0  0  0
 22 20  1  0  0  0
 12 13  2  0  0  0
 12 11  1  0  0  0
 20 11  1  0  0  0
 13 14  1  0  0  0
 11 16  2  0  0  0
 19 17  2  0  0  0
 14 17  1  0  0  0
 14 15  2  0  0  0
 16 15  1  0  0  0
 16  7  1  0  0  0
 17 18  1  0  0  0
  7  8  1  0  0  0
  8  9  2  0  0  0
  8  2  1  0  0  0
  2  6  2  0  0  0
  2  1  1  0  0  0
  6  5  1  0  0  0
  1  3  2  0  0  0
 26 25  1  0  0  0
 25 23  1  0  0  0
  5 23  1  0  0  0
  5  4  2  0  0  0
 23 24  2  0  0  0
  3  4  1  0  0  0
  4 27  1  0  0  0
 27 28  1  0  0  0
 33 30  1  0  0  0
 33 34  2  0  0  0
 30 32  1  0  0  0
 28 29  1  0  0  0
 29 32  1  0  0  0
 34 35  1  0  0  0
 32 31  1  0  0  0
 35 31  1  0  0  0
  7 10  1  0  0  0
M  END
> <minimizedAffinity>
-6.96337

$$$$
