5OQU_A4B_A_402


 19 20  0  0  0  0  0  0  0  0999 V2000
    3.8647  139.1310  350.4303 C   0  0  0  0  0  0  0  0  0  0  0  0
    2.8419  139.6092  349.1146 Cl  0  0  0  0  0  0  0  0  0  0  0  0
    3.9246  137.7901  350.7526 C   0  0  0  0  0  0  0  0  0  0  0  0
    4.7283  137.3539  351.7973 C   0  0  0  0  0  0  0  0  0  0  0  0
    5.4620  138.2947  352.5003 C   0  0  0  0  0  0  0  0  0  0  0  0
    5.4022  139.6379  352.1764 C   0  0  0  0  0  0  0  0  0  0  0  0
    4.5992  140.0854  351.1306 C   0  0  0  0  0  0  0  0  0  0  0  0
    3.5764  143.7187  351.1859 C   0  0  0  0  0  0  0  0  0  0  0  0
    4.4248  144.2774  350.2592 C   0  0  0  0  0  0  0  0  0  0  0  0
    5.3471  143.4895  349.5952 C   0  0  0  0  0  0  0  0  0  0  0  0
    5.4104  142.1325  349.8707 C   0  0  0  0  0  0  0  0  0  0  0  0
    4.5572  141.5440  350.8084 C   0  0  0  0  0  0  0  0  0  0  0  0
    3.6384  142.3645  351.4615 C   0  0  0  0  0  0  0  0  0  0  0  0
    6.2926  141.2865  349.2587 O   0  0  0  0  0  0  0  0  0  0  0  0
    6.5523  141.4977  347.8736 C   0  0  0  0  0  0  0  0  0  0  0  0
    4.7967  135.8904  352.1542 C   0  0  0  0  0  0  0  0  0  0  0  0
    5.6841  135.5651  353.2658 N   0  0  0  0  0  0  0  0  0  0  0  0
    5.3449  136.0168  354.1151 H   0  0  0  0  0  0  0  0  0  0  0  0
    6.6259  135.8966  353.0572 H   0  0  0  0  0  0  0  0  0  0  0  0
 15 14  1  0  0  0
 14 11  1  0  0  0
 10 11  2  0  0  0
 10  9  1  0  0  0
 11 12  1  0  0  0
  2  1  1  0  0  0
  9  8  2  0  0  0
 12  7  1  0  0  0
 12 13  2  0  0  0
  1  7  2  0  0  0
  1  3  1  0  0  0
  8 13  1  0  0  0
  7  6  1  0  0  0
  3  4  2  0  0  0
 17 16  1  0  0  0
  6  5  2  0  0  0
  4  5  1  0  0  0
  4 16  1  0  0  0
 17 18  1  0  0  0
 17 19  1  0  0  0
M  END
> <minimizedAffinity>
-8.06956

$$$$
5OQU_A4B_A_402


 19 20  0  0  0  0  0  0  0  0999 V2000
    4.1624  138.8892  350.2739 C   0  0  0  0  0  0  0  0  0  0  0  0
    3.2049  139.3515  348.9043 Cl  0  0  0  0  0  0  0  0  0  0  0  0
    3.9406  137.6462  350.8319 C   0  0  0  0  0  0  0  0  0  0  0  0
    4.6801  137.2270  351.9295 C   0  0  0  0  0  0  0  0  0  0  0  0
    5.6386  138.0841  352.4438 C   0  0  0  0  0  0  0  0  0  0  0  0
    5.8608  139.3290  351.8837 C   0  0  0  0  0  0  0  0  0  0  0  0
    5.1243  139.7588  350.7829 C   0  0  0  0  0  0  0  0  0  0  0  0
    6.4045  142.4574  348.4746 C   0  0  0  0  0  0  0  0  0  0  0  0
    5.9214  143.6021  349.0637 C   0  0  0  0  0  0  0  0  0  0  0  0
    5.1702  143.5255  350.2223 C   0  0  0  0  0  0  0  0  0  0  0  0
    4.9076  142.2864  350.7854 C   0  0  0  0  0  0  0  0  0  0  0  0
    5.3895  141.1104  350.2036 C   0  0  0  0  0  0  0  0  0  0  0  0
    6.1434  141.2203  349.0358 C   0  0  0  0  0  0  0  0  0  0  0  0
    4.1741  142.1254  351.9275 O   0  0  0  0  0  0  0  0  0  0  0  0
    2.8155  142.5544  351.9018 C   0  0  0  0  0  0  0  0  0  0  0  0
    4.4413  135.8706  352.5437 C   0  0  0  0  0  0  0  0  0  0  0  0
    5.5373  135.3587  353.3596 N   0  0  0  0  0  0  0  0  0  0  0  0
    5.6833  135.9758  354.1586 H   0  0  0  0  0  0  0  0  0  0  0  0
    6.3890  135.3204  352.7996 H   0  0  0  0  0  0  0  0  0  0  0  0
 15 14  1  0  0  0
 14 11  1  0  0  0
 10 11  2  0  0  0
 10  9  1  0  0  0
 11 12  1  0  0  0
  2  1  1  0  0  0
  9  8  2  0  0  0
 12  7  1  0  0  0
 12 13  2  0  0  0
  1  7  2  0  0  0
  1  3  1  0  0  0
  8 13  1  0  0  0
  7  6  1  0  0  0
  3  4  2  0  0  0
 17 16  1  0  0  0
  6  5  2  0  0  0
  4  5  1  0  0  0
  4 16  1  0  0  0
 17 18  1  0  0  0
 17 19  1  0  0  0
M  END
> <minimizedAffinity>
-7.13627

$$$$
5OQU_A4B_A_402


 19 20  0  0  0  0  0  0  0  0999 V2000
    5.1033  141.7500  349.8597 C   0  0  0  0  0  0  0  0  0  0  0  0
    6.1966  140.8348  348.8731 Cl  0  0  0  0  0  0  0  0  0  0  0  0
    5.0095  143.1091  349.6369 C   0  0  0  0  0  0  0  0  0  0  0  0
    4.1492  143.8880  350.3988 C   0  0  0  0  0  0  0  0  0  0  0  0
    3.3941  143.2675  351.3799 C   0  0  0  0  0  0  0  0  0  0  0  0
    3.4880  141.9057  351.6021 C   0  0  0  0  0  0  0  0  0  0  0  0
    4.3480  141.1158  350.8435 C   0  0  0  0  0  0  0  0  0  0  0  0
    5.4433  137.8141  352.3093 C   0  0  0  0  0  0  0  0  0  0  0  0
    4.6236  136.9189  351.6633 C   0  0  0  0  0  0  0  0  0  0  0  0
    3.6977  137.3647  350.7379 C   0  0  0  0  0  0  0  0  0  0  0  0
    3.6017  138.7206  350.4664 C   0  0  0  0  0  0  0  0  0  0  0  0
    4.4255  139.6477  351.1110 C   0  0  0  0  0  0  0  0  0  0  0  0
    5.3487  139.1675  352.0390 C   0  0  0  0  0  0  0  0  0  0  0  0
    2.7138  139.2412  349.5670 O   0  0  0  0  0  0  0  0  0  0  0  0
    2.9801  139.0296  348.1832 C   0  0  0  0  0  0  0  0  0  0  0  0
    4.0434  145.3732  350.1603 C   0  0  0  0  0  0  0  0  0  0  0  0
    4.7044  145.8549  348.9520 N   0  0  0  0  0  0  0  0  0  0  0  0
    4.2639  145.4354  348.1332 H   0  0  0  0  0  0  0  0  0  0  0  0
    5.6906  145.5958  348.9776 H   0  0  0  0  0  0  0  0  0  0  0  0
 15 14  1  0  0  0
 14 11  1  0  0  0
 10 11  2  0  0  0
 10  9  1  0  0  0
 11 12  1  0  0  0
  2  1  1  0  0  0
  9  8  2  0  0  0
 12  7  1  0  0  0
 12 13  2  0  0  0
  1  7  2  0  0  0
  1  3  1  0  0  0
  8 13  1  0  0  0
  7  6  1  0  0  0
  3  4  2  0  0  0
 17 16  1  0  0  0
  6  5  2  0  0  0
  4  5  1  0  0  0
  4 16  1  0  0  0
 17 18  1  0  0  0
 17 19  1  0  0  0
M  END
> <minimizedAffinity>
-6.41333

$$$$
5OQU_A4B_A_402


 19 20  0  0  0  0  0  0  0  0999 V2000
    5.2051  140.7207  351.8066 C   0  0  0  0  0  0  0  0  0  0  0  0
    5.8447  141.8170  352.9878 Cl  0  0  0  0  0  0  0  0  0  0  0  0
    5.1173  139.3842  352.1409 C   0  0  0  0  0  0  0  0  0  0  0  0
    4.6124  138.4645  351.2318 C   0  0  0  0  0  0  0  0  0  0  0  0
    4.2025  138.9225  349.9908 C   0  0  0  0  0  0  0  0  0  0  0  0
    4.2900  140.2618  349.6568 C   0  0  0  0  0  0  0  0  0  0  0  0
    4.7951  141.1921  350.5615 C   0  0  0  0  0  0  0  0  0  0  0  0
    6.0707  144.4033  349.0415 C   0  0  0  0  0  0  0  0  0  0  0  0
    5.0933  145.3041  349.3934 C   0  0  0  0  0  0  0  0  0  0  0  0
    3.9990  144.8915  350.1314 C   0  0  0  0  0  0  0  0  0  0  0  0
    3.8944  143.5632  350.5138 C   0  0  0  0  0  0  0  0  0  0  0  0
    4.8767  142.6312  350.1674 C   0  0  0  0  0  0  0  0  0  0  0  0
    5.9676  143.0775  349.4227 C   0  0  0  0  0  0  0  0  0  0  0  0
    2.8458  143.0762  351.2428 O   0  0  0  0  0  0  0  0  0  0  0  0
    1.6756  143.8845  351.3315 C   0  0  0  0  0  0  0  0  0  0  0  0
    4.5152  137.0033  351.5913 C   0  0  0  0  0  0  0  0  0  0  0  0
    5.6899  136.4499  352.2568 N   0  0  0  0  0  0  0  0  0  0  0  0
    5.8280  136.9214  353.1506 H   0  0  0  0  0  0  0  0  0  0  0  0
    6.5112  136.5893  351.6683 H   0  0  0  0  0  0  0  0  0  0  0  0
 15 14  1  0  0  0
 14 11  1  0  0  0
 10 11  2  0  0  0
 10  9  1  0  0  0
 11 12  1  0  0  0
  2  1  1  0  0  0
  9  8  2  0  0  0
 12  7  1  0  0  0
 12 13  2  0  0  0
  1  7  2  0  0  0
  1  3  1  0  0  0
  8 13  1  0  0  0
  7  6  1  0  0  0
  3  4  2  0  0  0
 17 16  1  0  0  0
  6  5  2  0  0  0
  4  5  1  0  0  0
  4 16  1  0  0  0
 17 18  1  0  0  0
 17 19  1  0  0  0
M  END
> <minimizedAffinity>
-6.00609

$$$$
5OQU_A4B_A_402


 19 20  0  0  0  0  0  0  0  0999 V2000
    5.2511  138.4623  350.8657 C   0  0  0  0  0  0  0  0  0  0  0  0
    5.7261  139.2087  349.3746 Cl  0  0  0  0  0  0  0  0  0  0  0  0
    5.4757  137.1085  351.0151 C   0  0  0  0  0  0  0  0  0  0  0  0
    5.1145  136.4619  352.1893 C   0  0  0  0  0  0  0  0  0  0  0  0
    4.5277  137.2078  353.1978 C   0  0  0  0  0  0  0  0  0  0  0  0
    4.3036  138.5643  353.0478 C   0  0  0  0  0  0  0  0  0  0  0  0
    4.6622  139.2220  351.8740 C   0  0  0  0  0  0  0  0  0  0  0  0
    5.1078  142.9583  352.1766 C   0  0  0  0  0  0  0  0  0  0  0  0
    3.9895  143.4407  351.5385 C   0  0  0  0  0  0  0  0  0  0  0  0
    3.0655  142.5664  350.9961 C   0  0  0  0  0  0  0  0  0  0  0  0
    3.2750  141.2001  351.1000 C   0  0  0  0  0  0  0  0  0  0  0  0
    4.4045  140.6883  351.7450 C   0  0  0  0  0  0  0  0  0  0  0  0
    5.3179  141.5950  352.2813 C   0  0  0  0  0  0  0  0  0  0  0  0
    2.4110  140.2711  350.5912 O   0  0  0  0  0  0  0  0  0  0  0  0
    2.4241  140.0645  349.1813 C   0  0  0  0  0  0  0  0  0  0  0  0
    5.3567  134.9830  352.3575 C   0  0  0  0  0  0  0  0  0  0  0  0
    6.2806  134.6248  353.4284 N   0  0  0  0  0  0  0  0  0  0  0  0
    5.8938  134.9210  354.3245 H   0  0  0  0  0  0  0  0  0  0  0  0
    7.1759  135.0888  353.2745 H   0  0  0  0  0  0  0  0  0  0  0  0
 15 14  1  0  0  0
 14 11  1  0  0  0
 10 11  2  0  0  0
 10  9  1  0  0  0
 11 12  1  0  0  0
  2  1  1  0  0  0
  9  8  2  0  0  0
 12  7  1  0  0  0
 12 13  2  0  0  0
  1  7  2  0  0  0
  1  3  1  0  0  0
  8 13  1  0  0  0
  7  6  1  0  0  0
  3  4  2  0  0  0
 17 16  1  0  0  0
  6  5  2  0  0  0
  4  5  1  0  0  0
  4 16  1  0  0  0
 17 18  1  0  0  0
 17 19  1  0  0  0
M  END
> <minimizedAffinity>
-5.70941

$$$$
5OQU_A4B_A_402


 19 20  0  0  0  0  0  0  0  0999 V2000
    5.2026  140.3037  350.1125 C   0  0  0  0  0  0  0  0  0  0  0  0
    6.1451  141.1983  348.9646 Cl  0  0  0  0  0  0  0  0  0  0  0  0
    5.4450  138.9506  350.2384 C   0  0  0  0  0  0  0  0  0  0  0  0
    4.7186  138.1881  351.1429 C   0  0  0  0  0  0  0  0  0  0  0  0
    3.7524  138.8187  351.9089 C   0  0  0  0  0  0  0  0  0  0  0  0
    3.5106  140.1745  351.7828 C   0  0  0  0  0  0  0  0  0  0  0  0
    4.2336  140.9480  350.8784 C   0  0  0  0  0  0  0  0  0  0  0  0
    2.6778  144.1973  349.7510 C   0  0  0  0  0  0  0  0  0  0  0  0
    3.3527  145.1252  350.5086 C   0  0  0  0  0  0  0  0  0  0  0  0
    4.3274  144.7192  351.4016 C   0  0  0  0  0  0  0  0  0  0  0  0
    4.6190  143.3699  351.5277 C   0  0  0  0  0  0  0  0  0  0  0  0
    3.9456  142.4100  350.7669 C   0  0  0  0  0  0  0  0  0  0  0  0
    2.9681  142.8505  349.8756 C   0  0  0  0  0  0  0  0  0  0  0  0
    5.5668  142.8877  352.3865 O   0  0  0  0  0  0  0  0  0  0  0  0
    5.2045  142.7563  353.7583 C   0  0  0  0  0  0  0  0  0  0  0  0
    4.9786  136.7094  351.2839 C   0  0  0  0  0  0  0  0  0  0  0  0
    5.4853  136.2913  352.5868 N   0  0  0  0  0  0  0  0  0  0  0  0
    4.7890  136.4950  353.3037 H   0  0  0  0  0  0  0  0  0  0  0  0
    6.3460  136.7974  352.7952 H   0  0  0  0  0  0  0  0  0  0  0  0
 15 14  1  0  0  0
 14 11  1  0  0  0
 10 11  2  0  0  0
 10  9  1  0  0  0
 11 12  1  0  0  0
  2  1  1  0  0  0
  9  8  2  0  0  0
 12  7  1  0  0  0
 12 13  2  0  0  0
  1  7  2  0  0  0
  1  3  1  0  0  0
  8 13  1  0  0  0
  7  6  1  0  0  0
  3  4  2  0  0  0
 17 16  1  0  0  0
  6  5  2  0  0  0
  4  5  1  0  0  0
  4 16  1  0  0  0
 17 18  1  0  0  0
 17 19  1  0  0  0
M  END
> <minimizedAffinity>
-5.27240

$$$$
