3EBO_57D_A_940
  RCSB PDB12061708263D
Coordinates from PDB:3EBO:A:940 Model:1 without hydrogens
 19 21  0  0  0  0            999 V2000
   38.0080   34.8180   29.2280   C 0  0  0  0  0  0  0  0  0  0  0  0
   37.1260   34.2620   30.1620   C 0  0  0  0  0  0  0  0  0  0  0  0
   36.9250   34.8990   31.3890   C 0  0  0  0  0  0  0  0  0  0  0  0
   37.6280   36.0800   31.6630   C 0  0  0  0  0  0  0  0  0  0  0  0
   37.5320   36.7360   32.8950   C 0  0  0  0  0  0  0  0  0  0  0  0
   38.2630   37.9000   33.1250   C 0  0  0  0  0  0  0  0  0  0  0  0
   39.1070   38.4050   32.1410   C 0  0  0  0  0  0  0  0  0  0  0  0
   39.2260   37.7520   30.9250   C 0  0  0  0  0  0  0  0  0  0  0  0
   38.4930   36.5890   30.6900   C 0  0  0  0  0  0  0  0  0  0  0  0
   38.6660   35.9860   29.4870   O 0  0  0  0  0  0  0  0  0  0  0  0
   36.1450   34.4180   32.2160   O 0  0  0  0  0  0  0  0  0  0  0  0
   36.7190   36.2810   33.8900   O 0  0  0  0  0  0  0  0  0  0  0  0
   39.8200   39.5380   32.3690   O 0  0  0  0  0  0  0  0  0  0  0  0
   38.6830   35.0410   26.9230   C 0  0  0  0  0  0  0  0  0  0  0  0
   38.9820   34.4750   25.6860   C 0  0  0  0  0  0  0  0  0  0  0  0
   38.8890   33.0960   25.5120   C 0  0  0  0  0  0  0  0  0  0  0  0
   38.4960   32.2820   26.5760   C 0  0  0  0  0  0  0  0  0  0  0  0
   38.2010   32.8460   27.8160   C 0  0  0  0  0  0  0  0  0  0  0  0
   38.2770   34.2310   27.9910   C 0  0  0  0  0  0  0  0  0  0  0  0
  1  2  2  0  0  0  0
  1 10  1  0  0  0  0
  1 19  1  0  0  0  0
  2  3  1  0  0  0  0
  3  4  1  0  0  0  0
  3 11  2  0  0  0  0
  4  5  2  0  0  0  0
  4  9  1  0  0  0  0
  5  6  1  0  0  0  0
  5 12  1  0  0  0  0
  6  7  2  0  0  0  0
  7  8  1  0  0  0  0
  7 13  1  0  0  0  0
  8  9  2  0  0  0  0
  9 10  1  0  0  0  0
 14 15  2  0  0  0  0
 14 19  1  0  0  0  0
 15 16  1  0  0  0  0
 16 17  2  0  0  0  0
 17 18  1  0  0  0  0
 18 19  2  0  0  0  0
A    1
C2
A    2
C3
A    3
C4
A    4
C5
A    5
C6
A    6
C7
A    7
C8
A    8
C9
A    9
C10
A   10
O1
A   11
O4
A   12
O5
A   13
O7
A   14
C2'
A   15
C3'
A   16
C4'
A   17
C5'
A   18
C6'
A   19
C1'
M  END
>  <InstanceId>
3EBO_57D_A_940

>  <ChemCompId>
57D

>  <PdbId>
3EBO

>  <ChainId>
A

>  <ResidueNumber>
940

>  <InsertionCode>


>  <Model>
1

>  <AltIds>


>  <MissingHeavyAtoms>
0

>  <ObservedFormula>
C15 O4

>  <Name>
chrysin

>  <SystematicName>
5,7-dihydroxy-2-phenyl-chromen-4-one

>  <Synonyms>
5,7-dihydroxy-2-phenyl-4H-chromen-4-one

>  <Type>
NON-POLYMER

>  <Formula>
C15 H10 O4

>  <MolecularWeight>
254.237

>  <ModifiedDate>
2011-06-04

>  <Parent>


>  <OneLetterCode>


>  <SubcomponentList>


>  <AmbiguousFlag>
N

>  <InChI>
InChI=1S/C15H10O4/c16-10-6-11(17)15-12(18)8-13(19-14(15)7-10)9-4-2-1-3-5-9/h1-8,16-17H

>  <InChIKey>
RTIXKCRFFJGDFG-UHFFFAOYSA-N

>  <SMILES>
c1ccc(cc1)C2=CC(=O)c3c(cc(cc3O2)O)O

$$$$
