4CWN_6LV_A_1224


 27 30  0  0  0  0  0  0  0  0999 V2000
   10.8885   14.6243   26.5314 N   0  0  0  0  0  0  0  0  0  0  0  0
    9.6793   14.2295   26.0555 C   0  0  0  0  0  0  0  0  0  0  0  0
    9.5591   13.1050   25.3091 N   0  0  0  0  0  0  0  0  0  0  0  0
    8.1919   13.1606   25.0810 N   0  0  0  0  0  0  0  0  0  0  0  0
    7.6022   14.2130   25.6444 C   0  0  0  0  0  0  0  0  0  0  0  0
    8.5463   14.9352   26.3049 N   0  0  0  0  0  0  0  0  0  0  0  0
    7.4865   12.2792   24.3439 C   0  0  0  0  0  0  0  0  0  0  0  0
    6.1565   12.4467   24.1957 N   0  0  0  0  0  0  0  0  0  0  0  0
    5.5174   13.5077   24.7702 C   0  0  0  0  0  0  0  0  0  0  0  0
    4.1455   13.6717   24.6064 C   0  0  0  0  0  0  0  0  0  0  0  0
    3.4843   14.7491   25.1946 C   0  0  0  0  0  0  0  0  0  0  0  0
    4.2052   15.6811   25.9463 C   0  0  0  0  0  0  0  0  0  0  0  0
    5.5878   15.5247   26.1218 C   0  0  0  0  0  0  0  0  0  0  0  0
    6.2358   14.4364   25.5318 C   0  0  0  0  0  0  0  0  0  0  0  0
   11.6929   14.0920   26.3342 H   0  0  0  0  0  0  0  0  0  0  0  0
   10.9607   15.4429   27.0737 H   0  0  0  0  0  0  0  0  0  0  0  0
    8.1449   11.0914   23.6929 C   0  0  0  0  0  0  0  0  0  0  0  0
    7.1011   10.0758   23.2981 C   0  0  0  0  0  0  0  0  0  0  0  0
    6.7231    9.0951   24.2107 C   0  0  0  0  0  0  0  0  0  0  0  0
    5.7690    8.1350   23.8777 C   0  0  0  0  0  0  0  0  0  0  0  0
    5.1938    8.1688   22.6042 C   0  0  0  0  0  0  0  0  0  0  0  0
    5.5726    9.1550   21.6883 C   0  0  0  0  0  0  0  0  0  0  0  0
    6.5294   10.1196   22.0312 C   0  0  0  0  0  0  0  0  0  0  0  0
    5.4304    7.1898   24.8242 O   0  0  0  0  0  0  0  0  0  0  0  0
    6.2987    6.0877   25.1299 C   0  0  0  0  0  0  0  0  0  0  0  0
    4.9901    9.1483   20.4453 O   0  0  0  0  0  0  0  0  0  0  0  0
    4.4984    7.9642   19.8147 C   0  0  0  0  0  0  0  0  0  0  0  0
  1  2  1  0  0  0
  2  3  2  0  0  0
  2  6  1  0  0  0
  3  4  1  0  0  0
  4  5  1  0  0  0
  4  7  1  0  0  0
  5  6  2  0  0  0
  5 14  1  0  0  0
  7  8  2  0  0  0
  7 17  1  0  0  0
  8  9  1  0  0  0
  9 10  1  0  0  0
  9 14  2  0  0  0
 10 11  2  0  0  0
 11 12  1  0  0  0
 12 13  2  0  0  0
 13 14  1  0  0  0
 17 18  1  0  0  0
 18 19  1  0  0  0
 18 23  2  0  0  0
 19 20  2  0  0  0
 20 24  1  0  0  0
 20 21  1  0  0  0
 24 25  1  0  0  0
 21 22  2  0  0  0
 22 23  1  0  0  0
 22 26  1  0  0  0
 26 27  1  0  0  0
  1 15  1  0  0  0
  1 16  1  0  0  0
M  END
> <minimizedAffinity>
-10.34354

$$$$
4CWN_6LV_A_1224


 27 30  0  0  0  0  0  0  0  0999 V2000
   10.8679   14.4846   26.4005 N   0  0  0  0  0  0  0  0  0  0  0  0
    9.6400   14.1216   25.9475 C   0  0  0  0  0  0  0  0  0  0  0  0
    9.4774   13.0041   25.1986 N   0  0  0  0  0  0  0  0  0  0  0  0
    8.1076   13.0940   24.9986 N   0  0  0  0  0  0  0  0  0  0  0  0
    7.5552   14.1576   25.5787 C   0  0  0  0  0  0  0  0  0  0  0  0
    8.5297   14.8533   26.2231 N   0  0  0  0  0  0  0  0  0  0  0  0
    7.3662   12.2336   24.2720 C   0  0  0  0  0  0  0  0  0  0  0  0
    6.0379   12.4341   24.1517 N   0  0  0  0  0  0  0  0  0  0  0  0
    5.4366   13.5074   24.7439 C   0  0  0  0  0  0  0  0  0  0  0  0
    4.0660   13.7054   24.6088 C   0  0  0  0  0  0  0  0  0  0  0  0
    3.4434   14.7955   25.2152 C   0  0  0  0  0  0  0  0  0  0  0  0
    4.2017   15.7060   25.9563 C   0  0  0  0  0  0  0  0  0  0  0  0
    5.5834   15.5152   26.1029 C   0  0  0  0  0  0  0  0  0  0  0  0
    6.1927   14.4146   25.4949 C   0  0  0  0  0  0  0  0  0  0  0  0
   11.6548   13.9339   26.1844 H   0  0  0  0  0  0  0  0  0  0  0  0
   10.9709   15.2984   26.9448 H   0  0  0  0  0  0  0  0  0  0  0  0
    7.9822   11.0336   23.6023 C   0  0  0  0  0  0  0  0  0  0  0  0
    6.9100   10.0301   23.2554 C   0  0  0  0  0  0  0  0  0  0  0  0
    6.4103    9.9861   21.9570 C   0  0  0  0  0  0  0  0  0  0  0  0
    5.4132    9.0789   21.6026 C   0  0  0  0  0  0  0  0  0  0  0  0
    4.9160    8.2084   22.5766 C   0  0  0  0  0  0  0  0  0  0  0  0
    5.4192    8.2518   23.8803 C   0  0  0  0  0  0  0  0  0  0  0  0
    6.4245    9.1636   24.2286 C   0  0  0  0  0  0  0  0  0  0  0  0
    4.9595    9.0777   20.2995 O   0  0  0  0  0  0  0  0  0  0  0  0
    4.4204    7.8932   19.6924 C   0  0  0  0  0  0  0  0  0  0  0  0
    4.8982    7.3856   24.8092 O   0  0  0  0  0  0  0  0  0  0  0  0
    4.0164    6.3124   24.4745 C   0  0  0  0  0  0  0  0  0  0  0  0
  1  2  1  0  0  0
  2  3  2  0  0  0
  2  6  1  0  0  0
  3  4  1  0  0  0
  4  5  1  0  0  0
  4  7  1  0  0  0
  5  6  2  0  0  0
  5 14  1  0  0  0
  7  8  2  0  0  0
  7 17  1  0  0  0
  8  9  1  0  0  0
  9 10  1  0  0  0
  9 14  2  0  0  0
 10 11  2  0  0  0
 11 12  1  0  0  0
 12 13  2  0  0  0
 13 14  1  0  0  0
 17 18  1  0  0  0
 18 19  1  0  0  0
 18 23  2  0  0  0
 19 20  2  0  0  0
 20 24  1  0  0  0
 20 21  1  0  0  0
 24 25  1  0  0  0
 21 22  2  0  0  0
 22 23  1  0  0  0
 22 26  1  0  0  0
 26 27  1  0  0  0
  1 15  1  0  0  0
  1 16  1  0  0  0
M  END
> <minimizedAffinity>
-10.31786

$$$$
4CWN_6LV_A_1224


 27 30  0  0  0  0  0  0  0  0999 V2000
    7.7507    9.4328   23.2523 N   0  0  0  0  0  0  0  0  0  0  0  0
    6.7693   10.3088   23.5904 C   0  0  0  0  0  0  0  0  0  0  0  0
    5.4629    9.9755   23.4551 N   0  0  0  0  0  0  0  0  0  0  0  0
    4.9052   11.1635   23.9047 N   0  0  0  0  0  0  0  0  0  0  0  0
    5.8098   12.0743   24.2581 C   0  0  0  0  0  0  0  0  0  0  0  0
    7.0493   11.5454   24.0765 N   0  0  0  0  0  0  0  0  0  0  0  0
    3.5854   11.4318   23.9685 C   0  0  0  0  0  0  0  0  0  0  0  0
    3.1695   12.6312   24.4240 N   0  0  0  0  0  0  0  0  0  0  0  0
    4.0696   13.5839   24.8068 C   0  0  0  0  0  0  0  0  0  0  0  0
    3.6279   14.8189   25.2711 C   0  0  0  0  0  0  0  0  0  0  0  0
    4.5403   15.7949   25.6694 C   0  0  0  0  0  0  0  0  0  0  0  0
    5.9119   15.5380   25.5917 C   0  0  0  0  0  0  0  0  0  0  0  0
    6.3695   14.2956   25.1289 C   0  0  0  0  0  0  0  0  0  0  0  0
    5.4433   13.3247   24.7393 C   0  0  0  0  0  0  0  0  0  0  0  0
    7.5170    8.5428   22.9024 H   0  0  0  0  0  0  0  0  0  0  0  0
    8.6958    9.6880   23.3572 H   0  0  0  0  0  0  0  0  0  0  0  0
    2.5537   10.4133   23.5610 C   0  0  0  0  0  0  0  0  0  0  0  0
    1.2423   10.7045   24.2485 C   0  0  0  0  0  0  0  0  0  0  0  0
    0.3225   11.5497   23.6345 C   0  0  0  0  0  0  0  0  0  0  0  0
   -0.8949   11.8488   24.2441 C   0  0  0  0  0  0  0  0  0  0  0  0
   -1.1811   11.2861   25.4912 C   0  0  0  0  0  0  0  0  0  0  0  0
   -0.2576   10.4360   26.1069 C   0  0  0  0  0  0  0  0  0  0  0  0
    0.9626   10.1363   25.4864 C   0  0  0  0  0  0  0  0  0  0  0  0
   -1.7696   12.6893   23.5865 O   0  0  0  0  0  0  0  0  0  0  0  0
   -1.8967   12.6718   22.1562 C   0  0  0  0  0  0  0  0  0  0  0  0
   -0.5734    9.9106   27.3352 O   0  0  0  0  0  0  0  0  0  0  0  0
    0.0338    8.7304   27.8642 C   0  0  0  0  0  0  0  0  0  0  0  0
  1  2  1  0  0  0
  2  3  2  0  0  0
  2  6  1  0  0  0
  3  4  1  0  0  0
  4  5  1  0  0  0
  4  7  1  0  0  0
  5  6  2  0  0  0
  5 14  1  0  0  0
  7  8  2  0  0  0
  7 17  1  0  0  0
  8  9  1  0  0  0
  9 10  1  0  0  0
  9 14  2  0  0  0
 10 11  2  0  0  0
 11 12  1  0  0  0
 12 13  2  0  0  0
 13 14  1  0  0  0
 17 18  1  0  0  0
 18 19  1  0  0  0
 18 23  2  0  0  0
 19 20  2  0  0  0
 20 24  1  0  0  0
 20 21  1  0  0  0
 24 25  1  0  0  0
 21 22  2  0  0  0
 22 23  1  0  0  0
 22 26  1  0  0  0
 26 27  1  0  0  0
  1 15  1  0  0  0
  1 16  1  0  0  0
M  END
> <minimizedAffinity>
-10.31734

$$$$
4CWN_6LV_A_1224


 27 30  0  0  0  0  0  0  0  0999 V2000
    7.7630    9.1322   22.9261 N   0  0  0  0  0  0  0  0  0  0  0  0
    6.8245   10.0277   23.3287 C   0  0  0  0  0  0  0  0  0  0  0  0
    5.5047    9.7269   23.2669 N   0  0  0  0  0  0  0  0  0  0  0  0
    5.0031   10.9231   23.7588 N   0  0  0  0  0  0  0  0  0  0  0  0
    5.9486   11.8086   24.0668 C   0  0  0  0  0  0  0  0  0  0  0  0
    7.1622   11.2523   23.8084 N   0  0  0  0  0  0  0  0  0  0  0  0
    3.6962   11.2220   23.9019 C   0  0  0  0  0  0  0  0  0  0  0  0
    3.3368   12.4262   24.3915 N   0  0  0  0  0  0  0  0  0  0  0  0
    4.2805   13.3533   24.7295 C   0  0  0  0  0  0  0  0  0  0  0  0
    3.8966   14.5936   25.2297 C   0  0  0  0  0  0  0  0  0  0  0  0
    4.8541   15.5436   25.5826 C   0  0  0  0  0  0  0  0  0  0  0  0
    6.2122   15.2550   25.4227 C   0  0  0  0  0  0  0  0  0  0  0  0
    6.6118   14.0070   24.9231 C   0  0  0  0  0  0  0  0  0  0  0  0
    5.6412   13.0624   24.5796 C   0  0  0  0  0  0  0  0  0  0  0  0
    7.4878    8.2516   22.5826 H   0  0  0  0  0  0  0  0  0  0  0  0
    8.7185    9.3638   22.9779 H   0  0  0  0  0  0  0  0  0  0  0  0
    2.6181   10.2325   23.5463 C   0  0  0  0  0  0  0  0  0  0  0  0
    1.3218   10.6204   24.2143 C   0  0  0  0  0  0  0  0  0  0  0  0
    1.0295   10.1203   25.4800 C   0  0  0  0  0  0  0  0  0  0  0  0
   -0.1623   10.4495   26.1236 C   0  0  0  0  0  0  0  0  0  0  0  0
   -1.0684   11.2935   25.4751 C   0  0  0  0  0  0  0  0  0  0  0  0
   -0.7737   11.7970   24.2045 C   0  0  0  0  0  0  0  0  0  0  0  0
    0.4281   11.4651   23.5650 C   0  0  0  0  0  0  0  0  0  0  0  0
   -0.3964    9.9277   27.3793 O   0  0  0  0  0  0  0  0  0  0  0  0
   -0.0393    8.5767   27.7103 C   0  0  0  0  0  0  0  0  0  0  0  0
   -1.6938   12.6159   23.5984 O   0  0  0  0  0  0  0  0  0  0  0  0
   -1.8644   12.6924   22.1819 C   0  0  0  0  0  0  0  0  0  0  0  0
  1  2  1  0  0  0
  2  3  2  0  0  0
  2  6  1  0  0  0
  3  4  1  0  0  0
  4  5  1  0  0  0
  4  7  1  0  0  0
  5  6  2  0  0  0
  5 14  1  0  0  0
  7  8  2  0  0  0
  7 17  1  0  0  0
  8  9  1  0  0  0
  9 10  1  0  0  0
  9 14  2  0  0  0
 10 11  2  0  0  0
 11 12  1  0  0  0
 12 13  2  0  0  0
 13 14  1  0  0  0
 17 18  1  0  0  0
 18 19  1  0  0  0
 18 23  2  0  0  0
 19 20  2  0  0  0
 20 24  1  0  0  0
 20 21  1  0  0  0
 24 25  1  0  0  0
 21 22  2  0  0  0
 22 23  1  0  0  0
 22 26  1  0  0  0
 26 27  1  0  0  0
  1 15  1  0  0  0
  1 16  1  0  0  0
M  END
> <minimizedAffinity>
-10.20330

$$$$
4CWN_6LV_A_1224


 27 30  0  0  0  0  0  0  0  0999 V2000
    8.3802    9.7035   23.5455 N   0  0  0  0  0  0  0  0  0  0  0  0
    7.2865   10.4684   23.7972 C   0  0  0  0  0  0  0  0  0  0  0  0
    6.0373    9.9824   23.5986 N   0  0  0  0  0  0  0  0  0  0  0  0
    5.3213   11.1093   23.9752 N   0  0  0  0  0  0  0  0  0  0  0  0
    6.0928   12.1281   24.3488 C   0  0  0  0  0  0  0  0  0  0  0  0
    7.3934   11.7419   24.2564 N   0  0  0  0  0  0  0  0  0  0  0  0
    3.9781   11.2243   23.9542 C   0  0  0  0  0  0  0  0  0  0  0  0
    3.4011   12.3793   24.3445 N   0  0  0  0  0  0  0  0  0  0  0  0
    4.1616   13.4398   24.7457 C   0  0  0  0  0  0  0  0  0  0  0  0
    3.5544   14.6273   25.1421 C   0  0  0  0  0  0  0  0  0  0  0  0
    4.3235   15.7130   25.5588 C   0  0  0  0  0  0  0  0  0  0  0  0
    5.7176   15.6149   25.5684 C   0  0  0  0  0  0  0  0  0  0  0  0
    6.3413   14.4220   25.1748 C   0  0  0  0  0  0  0  0  0  0  0  0
    5.5574   13.3401   24.7658 C   0  0  0  0  0  0  0  0  0  0  0  0
    8.2714    8.7832   23.2130 H   0  0  0  0  0  0  0  0  0  0  0  0
    9.2818   10.0692   23.6957 H   0  0  0  0  0  0  0  0  0  0  0  0
    3.0961   10.0824   23.5229 C   0  0  0  0  0  0  0  0  0  0  0  0
    1.9509    9.9213   24.4922 C   0  0  0  0  0  0  0  0  0  0  0  0
    0.6979   10.4279   24.1590 C   0  0  0  0  0  0  0  0  0  0  0  0
   -0.3807   10.3058   25.0333 C   0  0  0  0  0  0  0  0  0  0  0  0
   -0.1856    9.6647   26.2600 C   0  0  0  0  0  0  0  0  0  0  0  0
    1.0726    9.1546   26.5937 C   0  0  0  0  0  0  0  0  0  0  0  0
    2.1516    9.2772   25.7082 C   0  0  0  0  0  0  0  0  0  0  0  0
   -1.6004   10.8233   24.6478 O   0  0  0  0  0  0  0  0  0  0  0  0
   -1.7204   11.7040   23.5200 C   0  0  0  0  0  0  0  0  0  0  0  0
    1.2245    8.5394   27.8115 O   0  0  0  0  0  0  0  0  0  0  0  0
    0.6978    7.2449   28.1085 C   0  0  0  0  0  0  0  0  0  0  0  0
  1  2  1  0  0  0
  2  3  2  0  0  0
  2  6  1  0  0  0
  3  4  1  0  0  0
  4  5  1  0  0  0
  4  7  1  0  0  0
  5  6  2  0  0  0
  5 14  1  0  0  0
  7  8  2  0  0  0
  7 17  1  0  0  0
  8  9  1  0  0  0
  9 10  1  0  0  0
  9 14  2  0  0  0
 10 11  2  0  0  0
 11 12  1  0  0  0
 12 13  2  0  0  0
 13 14  1  0  0  0
 17 18  1  0  0  0
 18 19  1  0  0  0
 18 23  2  0  0  0
 19 20  2  0  0  0
 20 24  1  0  0  0
 20 21  1  0  0  0
 24 25  1  0  0  0
 21 22  2  0  0  0
 22 23  1  0  0  0
 22 26  1  0  0  0
 26 27  1  0  0  0
  1 15  1  0  0  0
  1 16  1  0  0  0
M  END
> <minimizedAffinity>
-10.13142

$$$$
4CWN_6LV_A_1224


 27 30  0  0  0  0  0  0  0  0999 V2000
   10.8485   14.5483   26.4717 N   0  0  0  0  0  0  0  0  0  0  0  0
    9.6235   14.1864   26.0100 C   0  0  0  0  0  0  0  0  0  0  0  0
    9.4680   13.0785   25.2455 N   0  0  0  0  0  0  0  0  0  0  0  0
    8.0985   13.1654   25.0425 N   0  0  0  0  0  0  0  0  0  0  0  0
    7.5398   14.2187   25.6351 C   0  0  0  0  0  0  0  0  0  0  0  0
    8.5094   14.9097   26.2919 N   0  0  0  0  0  0  0  0  0  0  0  0
    7.3630   12.3118   24.3020 C   0  0  0  0  0  0  0  0  0  0  0  0
    6.0342   12.5084   24.1802 N   0  0  0  0  0  0  0  0  0  0  0  0
    5.4266   13.5711   24.7850 C   0  0  0  0  0  0  0  0  0  0  0  0
    4.0556   13.7652   24.6482 C   0  0  0  0  0  0  0  0  0  0  0  0
    3.4265   14.8445   25.2673 C   0  0  0  0  0  0  0  0  0  0  0  0
    4.1787   15.7480   26.0231 C   0  0  0  0  0  0  0  0  0  0  0  0
    5.5607   15.5610   26.1714 C   0  0  0  0  0  0  0  0  0  0  0  0
    6.1765   14.4712   25.5505 C   0  0  0  0  0  0  0  0  0  0  0  0
   11.6385   14.0039   26.2507 H   0  0  0  0  0  0  0  0  0  0  0  0
   10.9465   15.3551   27.0273 H   0  0  0  0  0  0  0  0  0  0  0  0
    7.9860   11.1235   23.6181 C   0  0  0  0  0  0  0  0  0  0  0  0
    7.0475    9.9435   23.6788 C   0  0  0  0  0  0  0  0  0  0  0  0
    7.4871    8.7498   24.2440 C   0  0  0  0  0  0  0  0  0  0  0  0
    6.6512    7.6363   24.3087 C   0  0  0  0  0  0  0  0  0  0  0  0
    5.3560    7.7341   23.7924 C   0  0  0  0  0  0  0  0  0  0  0  0
    4.9142    8.9337   23.2262 C   0  0  0  0  0  0  0  0  0  0  0  0
    5.7585   10.0504   23.1681 C   0  0  0  0  0  0  0  0  0  0  0  0
    7.1396    6.4811   24.8840 O   0  0  0  0  0  0  0  0  0  0  0  0
    6.2623    5.4891   25.4395 C   0  0  0  0  0  0  0  0  0  0  0  0
    3.6381    8.9858   22.7229 O   0  0  0  0  0  0  0  0  0  0  0  0
    2.4684    8.9447   23.5423 C   0  0  0  0  0  0  0  0  0  0  0  0
  1  2  1  0  0  0
  2  3  2  0  0  0
  2  6  1  0  0  0
  3  4  1  0  0  0
  4  5  1  0  0  0
  4  7  1  0  0  0
  5  6  2  0  0  0
  5 14  1  0  0  0
  7  8  2  0  0  0
  7 17  1  0  0  0
  8  9  1  0  0  0
  9 10  1  0  0  0
  9 14  2  0  0  0
 10 11  2  0  0  0
 11 12  1  0  0  0
 12 13  2  0  0  0
 13 14  1  0  0  0
 17 18  1  0  0  0
 18 19  1  0  0  0
 18 23  2  0  0  0
 19 20  2  0  0  0
 20 24  1  0  0  0
 20 21  1  0  0  0
 24 25  1  0  0  0
 21 22  2  0  0  0
 22 23  1  0  0  0
 22 26  1  0  0  0
 26 27  1  0  0  0
  1 15  1  0  0  0
  1 16  1  0  0  0
M  END
> <minimizedAffinity>
-10.11468

$$$$
4CWN_6LV_A_1224


 27 30  0  0  0  0  0  0  0  0999 V2000
    8.4867    9.8904   23.1740 N   0  0  0  0  0  0  0  0  0  0  0  0
    7.3887   10.6142   23.5136 C   0  0  0  0  0  0  0  0  0  0  0  0
    6.1435   10.1026   23.3590 N   0  0  0  0  0  0  0  0  0  0  0  0
    5.4200   11.1931   23.8191 N   0  0  0  0  0  0  0  0  0  0  0  0
    6.1841   12.2165   24.1954 C   0  0  0  0  0  0  0  0  0  0  0  0
    7.4873   11.8702   24.0202 N   0  0  0  0  0  0  0  0  0  0  0  0
    4.0751   11.2721   23.8720 C   0  0  0  0  0  0  0  0  0  0  0  0
    3.4903   12.3938   24.3398 N   0  0  0  0  0  0  0  0  0  0  0  0
    4.2438   13.4575   24.7460 C   0  0  0  0  0  0  0  0  0  0  0  0
    3.6284   14.6107   25.2229 C   0  0  0  0  0  0  0  0  0  0  0  0
    4.3906   15.6991   25.6451 C   0  0  0  0  0  0  0  0  0  0  0  0
    5.7854   15.6389   25.5791 C   0  0  0  0  0  0  0  0  0  0  0  0
    6.4175   14.4807   25.1039 C   0  0  0  0  0  0  0  0  0  0  0  0
    5.6408   13.3953   24.6903 C   0  0  0  0  0  0  0  0  0  0  0  0
    8.3839    8.9819   22.8089 H   0  0  0  0  0  0  0  0  0  0  0  0
    9.3854   10.2743   23.2930 H   0  0  0  0  0  0  0  0  0  0  0  0
    3.2008   10.1250   23.4386 C   0  0  0  0  0  0  0  0  0  0  0  0
    2.0178    9.9993   24.3669 C   0  0  0  0  0  0  0  0  0  0  0  0
    2.1798    9.3708   25.5982 C   0  0  0  0  0  0  0  0  0  0  0  0
    1.1076    9.2283   26.4773 C   0  0  0  0  0  0  0  0  0  0  0  0
   -0.1432    9.7268   26.1022 C   0  0  0  0  0  0  0  0  0  0  0  0
   -0.3053   10.3595   24.8659 C   0  0  0  0  0  0  0  0  0  0  0  0
    0.7780   10.5029   23.9888 C   0  0  0  0  0  0  0  0  0  0  0  0
    1.3284    8.6005   27.6861 O   0  0  0  0  0  0  0  0  0  0  0  0
    2.2697    7.5234   27.8127 C   0  0  0  0  0  0  0  0  0  0  0  0
   -1.5517   10.8277   24.5318 O   0  0  0  0  0  0  0  0  0  0  0  0
   -1.7867   11.7354   23.4538 C   0  0  0  0  0  0  0  0  0  0  0  0
  1  2  1  0  0  0
  2  3  2  0  0  0
  2  6  1  0  0  0
  3  4  1  0  0  0
  4  5  1  0  0  0
  4  7  1  0  0  0
  5  6  2  0  0  0
  5 14  1  0  0  0
  7  8  2  0  0  0
  7 17  1  0  0  0
  8  9  1  0  0  0
  9 10  1  0  0  0
  9 14  2  0  0  0
 10 11  2  0  0  0
 11 12  1  0  0  0
 12 13  2  0  0  0
 13 14  1  0  0  0
 17 18  1  0  0  0
 18 19  1  0  0  0
 18 23  2  0  0  0
 19 20  2  0  0  0
 20 24  1  0  0  0
 20 21  1  0  0  0
 24 25  1  0  0  0
 21 22  2  0  0  0
 22 23  1  0  0  0
 22 26  1  0  0  0
 26 27  1  0  0  0
  1 15  1  0  0  0
  1 16  1  0  0  0
M  END
> <minimizedAffinity>
-10.01699

$$$$
4CWN_6LV_A_1224


 27 30  0  0  0  0  0  0  0  0999 V2000
   -2.0879   11.8563   23.7116 N   0  0  0  0  0  0  0  0  0  0  0  0
   -1.0413   11.2207   24.2994 C   0  0  0  0  0  0  0  0  0  0  0  0
    0.1875   11.2303   23.7285 N   0  0  0  0  0  0  0  0  0  0  0  0
    0.8549   10.4681   24.6762 N   0  0  0  0  0  0  0  0  0  0  0  0
    0.0771   10.0699   25.6808 C   0  0  0  0  0  0  0  0  0  0  0  0
   -1.1766   10.5548   25.4750 N   0  0  0  0  0  0  0  0  0  0  0  0
    2.1539   10.1116   24.6180 C   0  0  0  0  0  0  0  0  0  0  0  0
    2.6854    9.3630   25.6060 N   0  0  0  0  0  0  0  0  0  0  0  0
    1.9197    8.9480   26.6575 C   0  0  0  0  0  0  0  0  0  0  0  0
    2.4789    8.1725   27.6684 C   0  0  0  0  0  0  0  0  0  0  0  0
    1.7054    7.7495   28.7485 C   0  0  0  0  0  0  0  0  0  0  0  0
    0.3529    8.0958   28.8134 C   0  0  0  0  0  0  0  0  0  0  0  0
   -0.2214    8.8802   27.8024 C   0  0  0  0  0  0  0  0  0  0  0  0
    0.5677    9.3023   26.7294 C   0  0  0  0  0  0  0  0  0  0  0  0
   -1.9594   12.3311   22.8588 H   0  0  0  0  0  0  0  0  0  0  0  0
   -2.9750   11.8422   24.1384 H   0  0  0  0  0  0  0  0  0  0  0  0
    3.0403   10.5469   23.4809 C   0  0  0  0  0  0  0  0  0  0  0  0
    3.9702   11.6420   23.9425 C   0  0  0  0  0  0  0  0  0  0  0  0
    5.3461   11.4405   23.8810 C   0  0  0  0  0  0  0  0  0  0  0  0
    6.2350   12.4258   24.3073 C   0  0  0  0  0  0  0  0  0  0  0  0
    5.7225   13.6278   24.8035 C   0  0  0  0  0  0  0  0  0  0  0  0
    4.3405   13.8306   24.8638 C   0  0  0  0  0  0  0  0  0  0  0  0
    3.4526   12.8373   24.4297 C   0  0  0  0  0  0  0  0  0  0  0  0
    7.5885   12.1721   24.2187 O   0  0  0  0  0  0  0  0  0  0  0  0
    8.0879   10.9343   23.6889 C   0  0  0  0  0  0  0  0  0  0  0  0
    3.8777   15.0217   25.3654 O   0  0  0  0  0  0  0  0  0  0  0  0
    4.7262   16.0071   25.9573 C   0  0  0  0  0  0  0  0  0  0  0  0
  1  2  1  0  0  0
  2  3  2  0  0  0
  2  6  1  0  0  0
  3  4  1  0  0  0
  4  5  1  0  0  0
  4  7  1  0  0  0
  5  6  2  0  0  0
  5 14  1  0  0  0
  7  8  2  0  0  0
  7 17  1  0  0  0
  8  9  1  0  0  0
  9 10  1  0  0  0
  9 14  2  0  0  0
 10 11  2  0  0  0
 11 12  1  0  0  0
 12 13  2  0  0  0
 13 14  1  0  0  0
 17 18  1  0  0  0
 18 19  1  0  0  0
 18 23  2  0  0  0
 19 20  2  0  0  0
 20 24  1  0  0  0
 20 21  1  0  0  0
 24 25  1  0  0  0
 21 22  2  0  0  0
 22 23  1  0  0  0
 22 26  1  0  0  0
 26 27  1  0  0  0
  1 15  1  0  0  0
  1 16  1  0  0  0
M  END
> <minimizedAffinity>
-9.90020

$$$$
4CWN_6LV_A_1224


 27 30  0  0  0  0  0  0  0  0999 V2000
   -2.0908   12.0994   23.8671 N   0  0  0  0  0  0  0  0  0  0  0  0
   -1.0564   11.4041   24.4069 C   0  0  0  0  0  0  0  0  0  0  0  0
    0.1553   11.3778   23.8011 N   0  0  0  0  0  0  0  0  0  0  0  0
    0.8156   10.5621   24.7082 N   0  0  0  0  0  0  0  0  0  0  0  0
    0.0497   10.1691   25.7240 C   0  0  0  0  0  0  0  0  0  0  0  0
   -1.1872   10.7119   25.5679 N   0  0  0  0  0  0  0  0  0  0  0  0
    2.0959   10.1529   24.6027 C   0  0  0  0  0  0  0  0  0  0  0  0
    2.6222    9.3553   25.5545 N   0  0  0  0  0  0  0  0  0  0  0  0
    1.8691    8.9437   26.6164 C   0  0  0  0  0  0  0  0  0  0  0  0
    2.4225    8.1175   27.5895 C   0  0  0  0  0  0  0  0  0  0  0  0
    1.6620    7.6975   28.6800 C   0  0  0  0  0  0  0  0  0  0  0  0
    0.3280    8.0985   28.7934 C   0  0  0  0  0  0  0  0  0  0  0  0
   -0.2401    8.9343   27.8209 C   0  0  0  0  0  0  0  0  0  0  0  0
    0.5361    9.3525   26.7370 C   0  0  0  0  0  0  0  0  0  0  0  0
   -1.9659   12.5920   23.0239 H   0  0  0  0  0  0  0  0  0  0  0  0
   -2.9654   12.1108   24.3190 H   0  0  0  0  0  0  0  0  0  0  0  0
    2.9680   10.5821   23.4524 C   0  0  0  0  0  0  0  0  0  0  0  0
    3.9667   11.6124   23.9193 C   0  0  0  0  0  0  0  0  0  0  0  0
    3.5099   12.8268   24.4235 C   0  0  0  0  0  0  0  0  0  0  0  0
    4.4034   13.8057   24.8553 C   0  0  0  0  0  0  0  0  0  0  0  0
    5.7752   13.5508   24.7725 C   0  0  0  0  0  0  0  0  0  0  0  0
    6.2337   12.3303   24.2675 C   0  0  0  0  0  0  0  0  0  0  0  0
    5.3298   11.3491   23.8390 C   0  0  0  0  0  0  0  0  0  0  0  0
    3.8929   14.9884   25.3499 O   0  0  0  0  0  0  0  0  0  0  0  0
    4.7476   16.0080   25.8903 C   0  0  0  0  0  0  0  0  0  0  0  0
    7.5887   12.1226   24.1952 O   0  0  0  0  0  0  0  0  0  0  0  0
    8.1728   10.9054   23.7276 C   0  0  0  0  0  0  0  0  0  0  0  0
  1  2  1  0  0  0
  2  3  2  0  0  0
  2  6  1  0  0  0
  3  4  1  0  0  0
  4  5  1  0  0  0
  4  7  1  0  0  0
  5  6  2  0  0  0
  5 14  1  0  0  0
  7  8  2  0  0  0
  7 17  1  0  0  0
  8  9  1  0  0  0
  9 10  1  0  0  0
  9 14  2  0  0  0
 10 11  2  0  0  0
 11 12  1  0  0  0
 12 13  2  0  0  0
 13 14  1  0  0  0
 17 18  1  0  0  0
 18 19  1  0  0  0
 18 23  2  0  0  0
 19 20  2  0  0  0
 20 24  1  0  0  0
 20 21  1  0  0  0
 24 25  1  0  0  0
 21 22  2  0  0  0
 22 23  1  0  0  0
 22 26  1  0  0  0
 26 27  1  0  0  0
  1 15  1  0  0  0
  1 16  1  0  0  0
M  END
> <minimizedAffinity>
-9.87191

$$$$
4CWN_6LV_A_1224


 27 30  0  0  0  0  0  0  0  0999 V2000
    1.3946    8.3036   27.6024 N   0  0  0  0  0  0  0  0  0  0  0  0
    1.3924    9.1096   26.5092 C   0  0  0  0  0  0  0  0  0  0  0  0
    2.5367    9.3615   25.8287 N   0  0  0  0  0  0  0  0  0  0  0  0
    2.0125   10.2041   24.8594 N   0  0  0  0  0  0  0  0  0  0  0  0
    0.7021   10.4054   24.9834 C   0  0  0  0  0  0  0  0  0  0  0  0
    0.2546    9.6926   26.0515 N   0  0  0  0  0  0  0  0  0  0  0  0
    2.7207   10.8097   23.8850 C   0  0  0  0  0  0  0  0  0  0  0  0
    2.0907   11.6110   23.0017 N   0  0  0  0  0  0  0  0  0  0  0  0
    0.7459   11.8294   23.0918 C   0  0  0  0  0  0  0  0  0  0  0  0
    0.1084   12.6615   22.1769 C   0  0  0  0  0  0  0  0  0  0  0  0
   -1.2654   12.8851   22.2584 C   0  0  0  0  0  0  0  0  0  0  0  0
   -2.0098   12.2788   23.2741 C   0  0  0  0  0  0  0  0  0  0  0  0
   -1.3792   11.4350   24.2000 C   0  0  0  0  0  0  0  0  0  0  0  0
   -0.0029   11.2151   24.1020 C   0  0  0  0  0  0  0  0  0  0  0  0
    2.2354    7.8947   27.9109 H   0  0  0  0  0  0  0  0  0  0  0  0
    0.5554    8.1282   28.0864 H   0  0  0  0  0  0  0  0  0  0  0  0
    4.2048   10.5982   23.7420 C   0  0  0  0  0  0  0  0  0  0  0  0
    4.9465   11.8377   24.1787 C   0  0  0  0  0  0  0  0  0  0  0  0
    4.2261   12.9718   24.5424 C   0  0  0  0  0  0  0  0  0  0  0  0
    4.8774   14.1376   24.9420 C   0  0  0  0  0  0  0  0  0  0  0  0
    6.2748   14.1537   24.9708 C   0  0  0  0  0  0  0  0  0  0  0  0
    6.9980   13.0138   24.6069 C   0  0  0  0  0  0  0  0  0  0  0  0
    6.3367   11.8440   24.2101 C   0  0  0  0  0  0  0  0  0  0  0  0
    4.1114   15.2295   25.2956 O   0  0  0  0  0  0  0  0  0  0  0  0
    4.5317   16.1417   26.3220 C   0  0  0  0  0  0  0  0  0  0  0  0
    8.3691   13.0735   24.6407 O   0  0  0  0  0  0  0  0  0  0  0  0
    9.1041   13.6353   25.7296 C   0  0  0  0  0  0  0  0  0  0  0  0
  1  2  1  0  0  0
  2  3  2  0  0  0
  2  6  1  0  0  0
  3  4  1  0  0  0
  4  5  1  0  0  0
  4  7  1  0  0  0
  5  6  2  0  0  0
  5 14  1  0  0  0
  7  8  2  0  0  0
  7 17  1  0  0  0
  8  9  1  0  0  0
  9 10  1  0  0  0
  9 14  2  0  0  0
 10 11  2  0  0  0
 11 12  1  0  0  0
 12 13  2  0  0  0
 13 14  1  0  0  0
 17 18  1  0  0  0
 18 19  1  0  0  0
 18 23  2  0  0  0
 19 20  2  0  0  0
 20 24  1  0  0  0
 20 21  1  0  0  0
 24 25  1  0  0  0
 21 22  2  0  0  0
 22 23  1  0  0  0
 22 26  1  0  0  0
 26 27  1  0  0  0
  1 15  1  0  0  0
  1 16  1  0  0  0
M  END
> <minimizedAffinity>
-9.68933

$$$$
