5NAU_DZ0_A_611
  RCSB PDB05121802163D
Coordinates from PDB:5NAU:A:611 Model:1 without hydrogens
 26 29  0  0  0  0            999 V2000
  111.7250  123.6330  183.7230   O 0  0  0  0  0  0  0  0  0  0  0  0
  111.7780  124.8350  183.7770   C 0  0  0  0  0  0  0  0  0  0  0  0
  110.8730  125.6170  184.3210   C 0  0  0  0  0  0  0  0  0  0  0  0
  109.7530  125.2740  184.9040   C 0  0  0  0  0  0  0  0  0  0  0  0
  108.9240  126.2370  185.4080   C 0  0  0  0  0  0  0  0  0  0  0  0
  109.3190  127.5430  185.2950   C 0  0  0  0  0  0  0  0  0  0  0  0
  108.5490  128.5530  185.7850   O 0  0  0  0  0  0  0  0  0  0  0  0
  107.2640  128.3250  186.3820   C 0  0  0  0  0  0  0  0  0  0  0  0
  110.5120  127.8140  184.6750   C 0  0  0  0  0  0  0  0  0  0  0  0
  111.2730  126.8530  184.1970   C 0  0  0  0  0  0  0  0  0  0  0  0
  112.4520  126.8380  183.5750   C 0  0  0  0  0  0  0  0  0  0  0  0
  112.7500  125.5760  183.3200   C 0  0  0  0  0  0  0  0  0  0  0  0
  113.8370  125.1360  182.7160   C 0  0  0  0  0  0  0  0  0  0  0  0
  115.0140  125.9020  182.1440   C 0  0  0  0  0  0  0  0  0  0  0  0
  115.2080  125.2410  180.8140   C 0  0  0  0  0  0  0  0  0  0  0  0
  116.3950  125.8150  180.1350   C 0  0  0  0  0  0  0  0  0  0  0  0
  114.8490  127.3610  181.9720   C 0  0  0  0  0  0  0  0  0  0  0  0
  116.0340  127.9390  181.1700   C 0  0  0  0  0  0  0  0  0  0  0  0
  116.2440  127.2370  179.8960   N 0  0  0  0  0  0  0  0  0  0  0  0
  117.4500  127.7060  179.2000   C 0  0  0  0  0  0  0  0  0  0  0  0
  117.4240  127.4570  177.8400   C 0  0  0  0  0  0  0  0  0  0  0  0
  116.6360  128.2250  177.0060   C 0  0  0  0  0  0  0  0  0  0  0  0
  116.5770  128.0090  175.6500   C 0  0  0  0  0  0  0  0  0  0  0  0
  117.3280  126.9940  175.1150   C 0  0  0  0  0  0  0  0  0  0  0  0
  118.1240  126.2380  175.9470   C 0  0  0  0  0  0  0  0  0  0  0  0
  118.1880  126.4530  177.3030   C 0  0  0  0  0  0  0  0  0  0  0  0
 24 23  2  0  0  0  0
 24 25  1  0  0  0  0
 23 22  1  0  0  0  0
 25 26  2  0  0  0  0
 22 21  2  0  0  0  0
 26 21  1  0  0  0  0
 21 20  1  0  0  0  0
 20 19  1  0  0  0  0
 19 16  1  0  0  0  0
 19 18  1  0  0  0  0
 16 15  1  0  0  0  0
 15 14  1  0  0  0  0
 18 17  1  0  0  0  0
 17 14  1  0  0  0  0
 14 13  1  0  0  0  0
 13 12  2  0  0  0  0
 12 11  1  0  0  0  0
 12  2  1  0  0  0  0
 11 10  1  0  0  0  0
  1  2  2  0  0  0  0
  2  3  1  0  0  0  0
 10  3  2  0  0  0  0
 10  9  1  0  0  0  0
  3  4  1  0  0  0  0
  9  6  2  0  0  0  0
  4  5  2  0  0  0  0
  6  5  1  0  0  0  0
  6  7  1  0  0  0  0
  7  8  1  0  0  0  0
A    1
OAC
A    2
CAU
A    3
CAZ
A    4
CAK
A    5
CAY
A    6
CAX
A    7
OAR
A    8
CAA
A    9
CAJ
A   10
CAW
A   11
CAP
A   12
CAT
A   13
CAD
A   14
CBA
A   15
CAM
A   16
CAO
A   17
CAL
A   18
CAN
A   19
NBB
A   20
CAQ
A   21
CAV
A   22
CAH
A   23
CAF
A   24
CAE
A   25
CAG
A   26
CAI
M  END
>  <InstanceId>
5NAU_DZ0_A_611

>  <ChemCompId>
DZ0

>  <PdbId>
5NAU

>  <ChainId>
A

>  <ResidueNumber>
611

>  <InsertionCode>


>  <Model>
1

>  <AltIds>


>  <MissingHeavyAtoms>
0

>  <ObservedFormula>
C23 N O2

>  <Name>
(2~{E})-5-methoxy-2-[[1-(phenylmethyl)piperidin-4-yl]methylidene]-3~{H}-inden-1-one

>  <SystematicName>
(2~{E})-5-methoxy-2-[[1-(phenylmethyl)piperidin-4-yl]methylidene]-3~{H}-inden-1-one

>  <Synonyms>


>  <Type>
NON-POLYMER

>  <Formula>
C23 H25 N O2

>  <MolecularWeight>
347.45

>  <ModifiedDate>
2018-04-27

>  <Parent>


>  <OneLetterCode>


>  <SubcomponentList>


>  <AmbiguousFlag>
N

>  <InChI>
InChI=1S/C23H25NO2/c1-26-21-7-8-22-19(15-21)14-20(23(22)25)13-17-9-11-24(12-10-17)16-18-5-3-2-4-6-18/h2-8,13,15,17H,9-12,14,16H2,1H3/b20-13+

>  <InChIKey>
CNIWTTNRVIMZIP-DEDYPNTBSA-N

>  <SMILES>
COc1ccc2c(c1)C/C(=C\C3CCN(CC3)Cc4ccccc4)/C2=O

$$$$
