3NHI_EAH_A_1
  RCSB PDB12061709553D
Coordinates from PDB:3NHI:A:1 Model:1 without hydrogens
 23 22  0  0  0  0            999 V2000
   -0.6050   -5.8570   22.7740   O 0  0  0  0  0  0  0  0  0  0  0  0
   -1.4870   -4.9750   22.6150   C 0  0  0  0  0  0  0  0  0  0  0  0
   -1.5320   -3.9300   23.3090   O 0  0  0  0  0  0  0  0  0  0  0  0
   -2.5300   -5.1860   21.5350   C 0  0  0  0  0  0  0  0  0  0  0  0
   -3.7070   -4.2230   21.7060   C 0  0  0  0  0  0  0  0  0  0  0  0
   -3.5220   -2.9580   20.8710   C 0  0  0  0  0  0  0  0  0  0  0  0
   -4.6810   -2.0080   21.0890   C 0  0  0  0  0  0  0  0  0  0  0  0
   -5.7670   -2.5060   20.4960   O 0  0  0  0  0  0  0  0  0  0  0  0
   -4.3550   -0.6360   20.5050   C 0  0  0  0  0  0  0  0  0  0  0  0
   -5.5560    0.2940   20.5670   C 0  0  0  0  0  0  0  0  0  0  0  0
   -6.1240    0.5090   19.1800   C 0  0  0  0  0  0  0  0  0  0  0  0
   -7.3970    1.2140   19.2750   C 0  0  0  0  0  0  0  0  0  0  0  0
   -8.0020    1.2610   18.0890   C 0  0  0  0  0  0  0  0  0  0  0  0
   -9.2700    1.9700   18.2410   C 0  0  0  0  0  0  0  0  0  0  0  0
  -10.1590    2.1170   17.2550   C 0  0  0  0  0  0  0  0  0  0  0  0
   -9.9510    1.5850   15.8560   C 0  0  0  0  0  0  0  0  0  0  0  0
   -9.3680    2.6990   15.0140   C 0  0  0  0  0  0  0  0  0  0  0  0
   -9.7440    2.9740   13.7630   C 0  0  0  0  0  0  0  0  0  0  0  0
  -10.7970    2.1920   13.0160   C 0  0  0  0  0  0  0  0  0  0  0  0
  -10.1080    1.2150   12.0760   C 0  0  0  0  0  0  0  0  0  0  0  0
   -9.9750   -0.1550   12.7260   C 0  0  0  0  0  0  0  0  0  0  0  0
   -9.7060   -1.2180   11.6740   C 0  0  0  0  0  0  0  0  0  0  0  0
   -9.4770   -2.5650   12.3200   C 0  0  0  0  0  0  0  0  0  0  0  0
  2  1  2  0  0  0  0
  2  3  1  0  0  0  0
  4  2  1  0  0  0  0
  5  4  1  0  0  0  0
  6  5  1  0  0  0  0
  7  6  1  0  0  0  0
  7  9  1  0  0  0  0
  8  7  1  0  0  0  0
 10  9  1  0  0  0  0
 11 10  2  0  0  0  0
 12 11  1  0  0  0  0
 13 12  2  0  0  0  0
 14 13  1  0  0  0  0
 15 14  2  0  0  0  0
 16 15  1  0  0  0  0
 17 16  1  0  0  0  0
 18 17  2  0  0  0  0
 19 18  1  0  0  0  0
 19 20  1  0  0  0  0
 20 21  1  0  0  0  0
 22 21  1  0  0  0  0
 22 23  1  0  0  0  0
A    1
O1
A    2
C1
A    3
O2
A    4
C2
A    5
C3
A    6
C4
A    7
C5
A    8
O3
A    9
C6
A   10
C7
A   11
C8
A   12
C9
A   13
C10
A   14
C11
A   15
C12
A   16
C13
A   17
C14
A   18
C15
A   19
C16
A   20
C17
A   21
C18
A   22
C19
A   23
C20
M  END
>  <InstanceId>
3NHI_EAH_A_1

>  <ChemCompId>
EAH

>  <PdbId>
3NHI

>  <ChainId>
A

>  <ResidueNumber>
1

>  <InsertionCode>


>  <Model>
1

>  <AltIds>


>  <MissingHeavyAtoms>
0

>  <ObservedFormula>
C20 O3

>  <Name>
(5S,7E,9E,11Z,14Z)-5-hydroxyicosa-7,9,11,14-tetraenoic acid

>  <SystematicName>
(5S,9E,11Z,14Z)-5-hydroxyicosa-7,9,11,14-tetraenoic acid

>  <Synonyms>


>  <Type>
NON-POLYMER

>  <Formula>
C20 H32 O3

>  <MolecularWeight>
320.466

>  <ModifiedDate>
2011-06-04

>  <Parent>


>  <OneLetterCode>


>  <SubcomponentList>


>  <AmbiguousFlag>
N

>  <InChI>
InChI=1S/C20H32O3/c1-2-3-4-5-6-7-8-9-10-11-12-13-14-16-19(21)17-15-18-20(22)23/h6-7,9-14,19,21H,2-5,8,15-18H2,1H3,(H,22,23)/b7-6-,10-9-,12-11+,14-13+/t19-/m1/s1

>  <InChIKey>
DVGDBDLZYCUGNU-LBIUVHPXSA-N

>  <SMILES>
CCCCC\C=C/C\C=C/C=C/C=CC[C@H](CCCC(=O)O)O

$$$$
