1UCN_ADP_A_1160


 34 36  0  0  0  0  0  0  0  0999 V2000
  -11.6364   96.8339   20.5229 C   0  0  0  0  0  0  0  0  0  0  0  0
  -12.6319   96.2653   21.4114 O   0  0  0  0  0  0  0  0  0  0  0  0
  -10.4965   95.8298   20.5712 C   0  0  0  0  0  0  0  0  0  0  0  0
   -9.2674   96.4358   20.1868 O   0  0  0  0  0  0  0  0  0  0  0  0
  -10.4967   95.4239   22.0415 C   0  0  0  0  0  0  0  0  0  0  0  0
   -9.8358   96.3514   22.8790 O   0  0  0  0  0  0  0  0  0  0  0  0
  -11.9956   95.4190   22.3558 C   0  0  0  0  0  0  0  0  0  0  0  0
   -9.0938   97.2030   20.7544 H   0  0  0  0  0  0  0  0  0  0  0  0
  -10.2480   97.2242   22.7836 H   0  0  0  0  0  0  0  0  0  0  0  0
  -12.5792   94.0811   22.2561 N   0  0  0  0  0  0  0  0  0  0  0  0
  -12.8140   93.3309   21.1304 C   0  0  0  0  0  0  0  0  0  0  0  0
  -13.3216   92.1486   21.3813 N   0  0  0  0  0  0  0  0  0  0  0  0
  -13.4332   92.1206   22.7652 C   0  0  0  0  0  0  0  0  0  0  0  0
  -13.9032   91.1414   23.6578 C   0  0  0  0  0  0  0  0  0  0  0  0
  -14.3679   89.9474   23.2715 N   0  0  0  0  0  0  0  0  0  0  0  0
  -13.8823   91.4326   24.9790 N   0  0  0  0  0  0  0  0  0  0  0  0
  -13.4225   92.6303   25.3628 C   0  0  0  0  0  0  0  0  0  0  0  0
  -12.9566   93.6323   24.6195 N   0  0  0  0  0  0  0  0  0  0  0  0
  -12.9887   93.3076   23.3151 C   0  0  0  0  0  0  0  0  0  0  0  0
  -14.3922   89.7146   22.3152 H   0  0  0  0  0  0  0  0  0  0  0  0
  -14.6855   89.3018   23.9435 H   0  0  0  0  0  0  0  0  0  0  0  0
  -12.2581   97.0532   19.1672 C   0  0  0  0  0  0  0  0  0  0  0  0
  -12.0234   98.3834   18.7311 O   0  0  0  0  0  0  0  0  0  0  0  0
  -10.6223   98.8010   18.0995 P   0  0  0  0  0  0  0  0  0  0  0  0
   -9.7440   99.2339   19.2187 O   0  0  0  0  0  0  0  0  0  0  0  0
  -10.8925   99.7358   16.9760 O   0  0  0  0  0  0  0  0  0  0  0  0
  -10.0533  100.0069   16.5720 H   0  0  0  0  0  0  0  0  0  0  0  0
   -9.9831   97.4894   17.4497 O   0  0  0  0  0  0  0  0  0  0  0  0
   -8.7447   97.5290   16.4504 P   0  0  0  0  0  0  0  0  0  0  0  0
   -8.1007   96.1910   16.4921 O   0  0  0  0  0  0  0  0  0  0  0  0
   -7.9431   98.7275   16.7970 O   0  0  0  0  0  0  0  0  0  0  0  0
   -9.3240   97.7413   14.9808 O   0  0  0  0  0  0  0  0  0  0  0  0
   -7.1760   98.7853   16.2062 H   0  0  0  0  0  0  0  0  0  0  0  0
   -8.5915   97.7699   14.3455 H   0  0  0  0  0  0  0  0  0  0  0  0
 29 30  2  0  0  0
 29 31  1  0  0  0
 29 32  1  0  0  0
 29 28  1  0  0  0
 24 25  2  0  0  0
 24 26  1  0  0  0
 24 28  1  0  0  0
 24 23  1  0  0  0
 23 22  1  0  0  0
 22  1  1  0  0  0
  1  2  1  0  0  0
  1  3  1  0  0  0
  2  7  1  0  0  0
  3  4  1  0  0  0
  3  5  1  0  0  0
  5  6  1  0  0  0
  5  7  1  0  0  0
  7 10  1  0  0  0
 10 11  1  0  0  0
 10 19  1  0  0  0
 11 12  2  0  0  0
 12 13  1  0  0  0
 13 14  1  0  0  0
 13 19  2  0  0  0
 14 15  1  0  0  0
 14 16  2  0  0  0
 16 17  1  0  0  0
 17 18  2  0  0  0
 18 19  1  0  0  0
 31 33  1  0  0  0
 32 34  1  0  0  0
 26 27  1  0  0  0
  4  8  1  0  0  0
  6  9  1  0  0  0
 15 20  1  0  0  0
 15 21  1  0  0  0
M  END
> <minimizedAffinity>
-9.39729

$$$$
1UCN_ADP_A_1160


 34 36  0  0  0  0  0  0  0  0999 V2000
  -11.7035   96.9707   20.7848 C   0  0  0  0  0  0  0  0  0  0  0  0
  -12.5768   96.2828   21.7164 O   0  0  0  0  0  0  0  0  0  0  0  0
  -10.6045   95.9579   20.5079 C   0  0  0  0  0  0  0  0  0  0  0  0
   -9.4250   96.6019   20.0393 O   0  0  0  0  0  0  0  0  0  0  0  0
  -10.4028   95.3288   21.8827 C   0  0  0  0  0  0  0  0  0  0  0  0
   -9.5940   96.1072   22.7421 O   0  0  0  0  0  0  0  0  0  0  0  0
  -11.8384   95.2927   22.4148 C   0  0  0  0  0  0  0  0  0  0  0  0
   -9.1432   97.2696   20.6840 H   0  0  0  0  0  0  0  0  0  0  0  0
   -9.9851   96.9891   22.8433 H   0  0  0  0  0  0  0  0  0  0  0  0
  -12.4765   93.9934   22.2023 N   0  0  0  0  0  0  0  0  0  0  0  0
  -12.7589   93.3617   21.0164 C   0  0  0  0  0  0  0  0  0  0  0  0
  -13.3093   92.1814   21.1659 N   0  0  0  0  0  0  0  0  0  0  0  0
  -13.4002   92.0280   22.5431 C   0  0  0  0  0  0  0  0  0  0  0  0
  -13.8949   90.9882   23.3497 C   0  0  0  0  0  0  0  0  0  0  0  0
  -14.4130   89.8545   22.8629 N   0  0  0  0  0  0  0  0  0  0  0  0
  -13.8416   91.1532   24.6916 N   0  0  0  0  0  0  0  0  0  0  0  0
  -13.3283   92.2911   25.1762 C   0  0  0  0  0  0  0  0  0  0  0  0
  -12.8344   93.3398   24.5205 N   0  0  0  0  0  0  0  0  0  0  0  0
  -12.8999   93.1403   23.1924 C   0  0  0  0  0  0  0  0  0  0  0  0
  -14.4616   89.7134   21.8898 H   0  0  0  0  0  0  0  0  0  0  0  0
  -14.7456   89.1614   23.4780 H   0  0  0  0  0  0  0  0  0  0  0  0
  -12.5097   97.4050   19.5874 C   0  0  0  0  0  0  0  0  0  0  0  0
  -11.6909   98.1323   18.6844 O   0  0  0  0  0  0  0  0  0  0  0  0
  -11.5167   97.6563   17.1746 P   0  0  0  0  0  0  0  0  0  0  0  0
  -11.3269   98.8761   16.3454 O   0  0  0  0  0  0  0  0  0  0  0  0
  -12.6311   96.7237   16.8622 O   0  0  0  0  0  0  0  0  0  0  0  0
  -12.5490   96.4175   15.9454 H   0  0  0  0  0  0  0  0  0  0  0  0
  -10.1741   96.7945   17.0990 O   0  0  0  0  0  0  0  0  0  0  0  0
   -8.8343   97.3292   16.4261 P   0  0  0  0  0  0  0  0  0  0  0  0
   -7.9004   96.1783   16.3264 O   0  0  0  0  0  0  0  0  0  0  0  0
   -8.4172   98.5343   17.1831 O   0  0  0  0  0  0  0  0  0  0  0  0
   -9.1954   97.7888   14.9433 O   0  0  0  0  0  0  0  0  0  0  0  0
   -7.6000   98.8899   16.8002 H   0  0  0  0  0  0  0  0  0  0  0  0
   -8.3969   98.1213   14.5043 H   0  0  0  0  0  0  0  0  0  0  0  0
 29 30  2  0  0  0
 29 31  1  0  0  0
 29 32  1  0  0  0
 29 28  1  0  0  0
 24 25  2  0  0  0
 24 26  1  0  0  0
 24 28  1  0  0  0
 24 23  1  0  0  0
 23 22  1  0  0  0
 22  1  1  0  0  0
  1  2  1  0  0  0
  1  3  1  0  0  0
  2  7  1  0  0  0
  3  4  1  0  0  0
  3  5  1  0  0  0
  5  6  1  0  0  0
  5  7  1  0  0  0
  7 10  1  0  0  0
 10 11  1  0  0  0
 10 19  1  0  0  0
 11 12  2  0  0  0
 12 13  1  0  0  0
 13 14  1  0  0  0
 13 19  2  0  0  0
 14 15  1  0  0  0
 14 16  2  0  0  0
 16 17  1  0  0  0
 17 18  2  0  0  0
 18 19  1  0  0  0
 31 33  1  0  0  0
 32 34  1  0  0  0
 26 27  1  0  0  0
  4  8  1  0  0  0
  6  9  1  0  0  0
 15 20  1  0  0  0
 15 21  1  0  0  0
M  END
> <minimizedAffinity>
-9.26436

$$$$
1UCN_ADP_A_1160


 34 36  0  0  0  0  0  0  0  0999 V2000
  -11.3036   96.3716   21.8972 C   0  0  0  0  0  0  0  0  0  0  0  0
  -12.6121   95.7459   21.9074 O   0  0  0  0  0  0  0  0  0  0  0  0
  -10.5551   95.6573   23.0106 C   0  0  0  0  0  0  0  0  0  0  0  0
   -9.4699   96.4476   23.4831 O   0  0  0  0  0  0  0  0  0  0  0  0
  -11.6434   95.4936   24.0666 C   0  0  0  0  0  0  0  0  0  0  0  0
  -11.8580   96.6601   24.8358 O   0  0  0  0  0  0  0  0  0  0  0  0
  -12.8723   95.2136   23.1966 C   0  0  0  0  0  0  0  0  0  0  0  0
   -9.8012   97.3126   23.7712 H   0  0  0  0  0  0  0  0  0  0  0  0
  -12.0849   97.3977   24.2482 H   0  0  0  0  0  0  0  0  0  0  0  0
  -13.1465   93.7823   23.0675 N   0  0  0  0  0  0  0  0  0  0  0  0
  -13.5386   92.8945   24.0388 C   0  0  0  0  0  0  0  0  0  0  0  0
  -13.7361   91.6780   23.5921 N   0  0  0  0  0  0  0  0  0  0  0  0
  -13.4496   91.7700   22.2364 C   0  0  0  0  0  0  0  0  0  0  0  0
  -13.4683   90.8224   21.1980 C   0  0  0  0  0  0  0  0  0  0  0  0
  -13.8042   89.5388   21.3713 N   0  0  0  0  0  0  0  0  0  0  0  0
  -13.1241   91.2410   19.9582 N   0  0  0  0  0  0  0  0  0  0  0  0
  -12.7825   92.5246   19.7883 C   0  0  0  0  0  0  0  0  0  0  0  0
  -12.7252   93.5077   20.6851 N   0  0  0  0  0  0  0  0  0  0  0  0
  -13.0762   93.0576   21.9025 C   0  0  0  0  0  0  0  0  0  0  0  0
  -14.0580   89.2127   22.2649 H   0  0  0  0  0  0  0  0  0  0  0  0
  -13.7975   88.9204   20.6052 H   0  0  0  0  0  0  0  0  0  0  0  0
  -10.7081   96.2389   20.5187 C   0  0  0  0  0  0  0  0  0  0  0  0
  -10.8565   97.4556   19.8028 O   0  0  0  0  0  0  0  0  0  0  0  0
   -9.6287   98.0957   19.0160 P   0  0  0  0  0  0  0  0  0  0  0  0
   -8.4137   97.3231   19.3881 O   0  0  0  0  0  0  0  0  0  0  0  0
   -9.6614   99.5642   19.2426 O   0  0  0  0  0  0  0  0  0  0  0  0
   -8.9218   99.9804   18.7729 H   0  0  0  0  0  0  0  0  0  0  0  0
   -9.8953   97.8749   17.4567 O   0  0  0  0  0  0  0  0  0  0  0  0
   -8.7269   97.7759   16.3802 P   0  0  0  0  0  0  0  0  0  0  0  0
   -7.7254   98.8197   16.7181 O   0  0  0  0  0  0  0  0  0  0  0  0
   -9.3650   97.7937   15.0416 O   0  0  0  0  0  0  0  0  0  0  0  0
   -8.0268   96.3560   16.5649 O   0  0  0  0  0  0  0  0  0  0  0  0
   -8.6809   97.7347   14.3565 H   0  0  0  0  0  0  0  0  0  0  0  0
   -7.3074   96.2640   15.9209 H   0  0  0  0  0  0  0  0  0  0  0  0
 29 30  2  0  0  0
 29 31  1  0  0  0
 29 32  1  0  0  0
 29 28  1  0  0  0
 24 25  2  0  0  0
 24 26  1  0  0  0
 24 28  1  0  0  0
 24 23  1  0  0  0
 23 22  1  0  0  0
 22  1  1  0  0  0
  1  2  1  0  0  0
  1  3  1  0  0  0
  2  7  1  0  0  0
  3  4  1  0  0  0
  3  5  1  0  0  0
  5  6  1  0  0  0
  5  7  1  0  0  0
  7 10  1  0  0  0
 10 11  1  0  0  0
 10 19  1  0  0  0
 11 12  2  0  0  0
 12 13  1  0  0  0
 13 14  1  0  0  0
 13 19  2  0  0  0
 14 15  1  0  0  0
 14 16  2  0  0  0
 16 17  1  0  0  0
 17 18  2  0  0  0
 18 19  1  0  0  0
 31 33  1  0  0  0
 32 34  1  0  0  0
 26 27  1  0  0  0
  4  8  1  0  0  0
  6  9  1  0  0  0
 15 20  1  0  0  0
 15 21  1  0  0  0
M  END
> <minimizedAffinity>
-8.29382

$$$$
1UCN_ADP_A_1160


 34 36  0  0  0  0  0  0  0  0999 V2000
  -11.7670   96.5108   22.0484 C   0  0  0  0  0  0  0  0  0  0  0  0
  -13.0195   95.7998   22.2201 O   0  0  0  0  0  0  0  0  0  0  0  0
  -10.7707   95.6793   22.8397 C   0  0  0  0  0  0  0  0  0  0  0  0
   -9.6371   96.4572   23.2078 O   0  0  0  0  0  0  0  0  0  0  0  0
  -11.5980   95.2676   24.0531 C   0  0  0  0  0  0  0  0  0  0  0  0
  -11.6815   96.2742   25.0422 O   0  0  0  0  0  0  0  0  0  0  0  0
  -12.9757   95.0466   23.4216 C   0  0  0  0  0  0  0  0  0  0  0  0
   -9.9281   97.2375   23.7052 H   0  0  0  0  0  0  0  0  0  0  0  0
  -12.0559   97.0799   24.6529 H   0  0  0  0  0  0  0  0  0  0  0  0
  -13.2212   93.6398   23.1037 N   0  0  0  0  0  0  0  0  0  0  0  0
  -13.1092   93.0034   21.8922 C   0  0  0  0  0  0  0  0  0  0  0  0
  -13.3693   91.7197   21.9451 N   0  0  0  0  0  0  0  0  0  0  0  0
  -13.6785   91.4970   23.2804 C   0  0  0  0  0  0  0  0  0  0  0  0
  -14.0446   90.3381   23.9873 C   0  0  0  0  0  0  0  0  0  0  0  0
  -14.1651   89.1314   23.4216 N   0  0  0  0  0  0  0  0  0  0  0  0
  -14.2886   90.4605   25.3126 N   0  0  0  0  0  0  0  0  0  0  0  0
  -14.1734   91.6701   25.8752 C   0  0  0  0  0  0  0  0  0  0  0  0
  -13.8387   92.8317   25.3161 N   0  0  0  0  0  0  0  0  0  0  0  0
  -13.6004   92.6724   24.0024 C   0  0  0  0  0  0  0  0  0  0  0  0
  -13.9923   89.0196   22.4589 H   0  0  0  0  0  0  0  0  0  0  0  0
  -14.4264   88.3554   23.9682 H   0  0  0  0  0  0  0  0  0  0  0  0
  -11.4800   96.6483   20.5749 C   0  0  0  0  0  0  0  0  0  0  0  0
  -10.3693   97.5084   20.3713 O   0  0  0  0  0  0  0  0  0  0  0  0
  -10.0836   98.1496   18.9418 P   0  0  0  0  0  0  0  0  0  0  0  0
   -9.4693   99.4844   19.1705 O   0  0  0  0  0  0  0  0  0  0  0  0
  -11.3310   98.0443   18.1406 O   0  0  0  0  0  0  0  0  0  0  0  0
  -11.1845   98.4287   17.2621 H   0  0  0  0  0  0  0  0  0  0  0  0
   -9.0020   97.2270   18.2138 O   0  0  0  0  0  0  0  0  0  0  0  0
   -8.5612   97.4341   16.6983 P   0  0  0  0  0  0  0  0  0  0  0  0
   -7.9358   96.1659   16.2430 O   0  0  0  0  0  0  0  0  0  0  0  0
   -7.7733   98.6891   16.6412 O   0  0  0  0  0  0  0  0  0  0  0  0
   -9.8870   97.6544   15.8415 O   0  0  0  0  0  0  0  0  0  0  0  0
   -7.4860   98.8493   15.7287 H   0  0  0  0  0  0  0  0  0  0  0  0
   -9.6518   97.7841   14.9094 H   0  0  0  0  0  0  0  0  0  0  0  0
 29 30  2  0  0  0
 29 31  1  0  0  0
 29 32  1  0  0  0
 29 28  1  0  0  0
 24 25  2  0  0  0
 24 26  1  0  0  0
 24 28  1  0  0  0
 24 23  1  0  0  0
 23 22  1  0  0  0
 22  1  1  0  0  0
  1  2  1  0  0  0
  1  3  1  0  0  0
  2  7  1  0  0  0
  3  4  1  0  0  0
  3  5  1  0  0  0
  5  6  1  0  0  0
  5  7  1  0  0  0
  7 10  1  0  0  0
 10 11  1  0  0  0
 10 19  1  0  0  0
 11 12  2  0  0  0
 12 13  1  0  0  0
 13 14  1  0  0  0
 13 19  2  0  0  0
 14 15  1  0  0  0
 14 16  2  0  0  0
 16 17  1  0  0  0
 17 18  2  0  0  0
 18 19  1  0  0  0
 31 33  1  0  0  0
 32 34  1  0  0  0
 26 27  1  0  0  0
  4  8  1  0  0  0
  6  9  1  0  0  0
 15 20  1  0  0  0
 15 21  1  0  0  0
M  END
> <minimizedAffinity>
-8.22035

$$$$
1UCN_ADP_A_1160


 34 36  0  0  0  0  0  0  0  0999 V2000
  -11.7883   96.7806   20.8755 C   0  0  0  0  0  0  0  0  0  0  0  0
  -12.7260   96.2545   21.8490 O   0  0  0  0  0  0  0  0  0  0  0  0
  -10.6239   95.8055   20.9348 C   0  0  0  0  0  0  0  0  0  0  0  0
   -9.4296   96.4085   20.4494 O   0  0  0  0  0  0  0  0  0  0  0  0
  -10.5435   95.5020   22.4274 C   0  0  0  0  0  0  0  0  0  0  0  0
   -9.8649   96.4982   23.1661 O   0  0  0  0  0  0  0  0  0  0  0  0
  -12.0249   95.4884   22.8157 C   0  0  0  0  0  0  0  0  0  0  0  0
   -9.2469   97.2163   20.9542 H   0  0  0  0  0  0  0  0  0  0  0  0
  -10.3018   97.3538   23.0324 H   0  0  0  0  0  0  0  0  0  0  0  0
  -12.5808   94.1352   22.8362 N   0  0  0  0  0  0  0  0  0  0  0  0
  -13.0507   93.4185   23.9089 C   0  0  0  0  0  0  0  0  0  0  0  0
  -13.5179   92.2362   23.5891 N   0  0  0  0  0  0  0  0  0  0  0  0
  -13.3386   92.1678   22.2137 C   0  0  0  0  0  0  0  0  0  0  0  0
  -13.6308   91.1685   21.2690 C   0  0  0  0  0  0  0  0  0  0  0  0
  -14.1920   89.9944   21.5809 N   0  0  0  0  0  0  0  0  0  0  0  0
  -13.3219   91.4163   19.9752 N   0  0  0  0  0  0  0  0  0  0  0  0
  -12.7548   92.5894   19.6663 C   0  0  0  0  0  0  0  0  0  0  0  0
  -12.4303   93.6052   20.4643 N   0  0  0  0  0  0  0  0  0  0  0  0
  -12.7540   93.3263   21.7393 C   0  0  0  0  0  0  0  0  0  0  0  0
  -14.4250   89.7932   22.5160 H   0  0  0  0  0  0  0  0  0  0  0  0
  -14.3719   89.3319   20.8752 H   0  0  0  0  0  0  0  0  0  0  0  0
  -12.4798   96.8934   19.5407 C   0  0  0  0  0  0  0  0  0  0  0  0
  -11.6358   96.4039   18.5098 O   0  0  0  0  0  0  0  0  0  0  0  0
  -11.6705   97.0445   17.0522 P   0  0  0  0  0  0  0  0  0  0  0  0
  -11.5953   98.5206   17.2158 O   0  0  0  0  0  0  0  0  0  0  0  0
  -12.8178   96.4455   16.3213 O   0  0  0  0  0  0  0  0  0  0  0  0
  -12.8624   96.8194   15.4274 H   0  0  0  0  0  0  0  0  0  0  0  0
  -10.3515   96.5648   16.2898 O   0  0  0  0  0  0  0  0  0  0  0  0
   -8.9070   97.1614   16.5918 P   0  0  0  0  0  0  0  0  0  0  0  0
   -8.7132   98.3266   15.6911 O   0  0  0  0  0  0  0  0  0  0  0  0
   -7.9474   96.0325   16.5289 O   0  0  0  0  0  0  0  0  0  0  0  0
   -8.9188   97.7050   18.0901 O   0  0  0  0  0  0  0  0  0  0  0  0
   -7.0519   96.3590   16.7087 H   0  0  0  0  0  0  0  0  0  0  0  0
   -8.0493   98.0766   18.3061 H   0  0  0  0  0  0  0  0  0  0  0  0
 29 30  2  0  0  0
 29 31  1  0  0  0
 29 32  1  0  0  0
 29 28  1  0  0  0
 24 25  2  0  0  0
 24 26  1  0  0  0
 24 28  1  0  0  0
 24 23  1  0  0  0
 23 22  1  0  0  0
 22  1  1  0  0  0
  1  2  1  0  0  0
  1  3  1  0  0  0
  2  7  1  0  0  0
  3  4  1  0  0  0
  3  5  1  0  0  0
  5  6  1  0  0  0
  5  7  1  0  0  0
  7 10  1  0  0  0
 10 11  1  0  0  0
 10 19  1  0  0  0
 11 12  2  0  0  0
 12 13  1  0  0  0
 13 14  1  0  0  0
 13 19  2  0  0  0
 14 15  1  0  0  0
 14 16  2  0  0  0
 16 17  1  0  0  0
 17 18  2  0  0  0
 18 19  1  0  0  0
 31 33  1  0  0  0
 32 34  1  0  0  0
 26 27  1  0  0  0
  4  8  1  0  0  0
  6  9  1  0  0  0
 15 20  1  0  0  0
 15 21  1  0  0  0
M  END
> <minimizedAffinity>
-8.15625

$$$$
1UCN_ADP_A_1160


 34 36  0  0  0  0  0  0  0  0999 V2000
  -10.1899   97.7688   16.4037 C   0  0  0  0  0  0  0  0  0  0  0  0
  -11.2448   97.8037   17.3986 O   0  0  0  0  0  0  0  0  0  0  0  0
   -9.1390   96.8642   17.0261 C   0  0  0  0  0  0  0  0  0  0  0  0
   -7.8571   97.1067   16.4572 O   0  0  0  0  0  0  0  0  0  0  0  0
   -9.1987   97.2758   18.4935 C   0  0  0  0  0  0  0  0  0  0  0  0
   -8.4771   98.4588   18.7736 O   0  0  0  0  0  0  0  0  0  0  0  0
  -10.6980   97.5278   18.6784 C   0  0  0  0  0  0  0  0  0  0  0  0
   -7.6298   98.0440   16.5600 H   0  0  0  0  0  0  0  0  0  0  0  0
   -8.8132   99.1812   18.2204 H   0  0  0  0  0  0  0  0  0  0  0  0
  -11.3895   96.3698   19.2453 N   0  0  0  0  0  0  0  0  0  0  0  0
  -12.1334   95.4148   18.5973 C   0  0  0  0  0  0  0  0  0  0  0  0
  -12.5978   94.4803   19.3907 N   0  0  0  0  0  0  0  0  0  0  0  0
  -12.1327   94.8478   20.6465 C   0  0  0  0  0  0  0  0  0  0  0  0
  -12.2808   94.2676   21.9185 C   0  0  0  0  0  0  0  0  0  0  0  0
  -12.9693   93.1427   22.1449 N   0  0  0  0  0  0  0  0  0  0  0  0
  -11.6923   94.8897   22.9661 N   0  0  0  0  0  0  0  0  0  0  0  0
  -11.0089   96.0185   22.7380 C   0  0  0  0  0  0  0  0  0  0  0  0
  -10.8010   96.6610   21.5901 N   0  0  0  0  0  0  0  0  0  0  0  0
  -11.3958   96.0142   20.5723 C   0  0  0  0  0  0  0  0  0  0  0  0
  -13.4056   92.6737   21.3973 H   0  0  0  0  0  0  0  0  0  0  0  0
  -13.0397   92.7842   23.0591 H   0  0  0  0  0  0  0  0  0  0  0  0
  -10.7675   97.2959   15.0940 C   0  0  0  0  0  0  0  0  0  0  0  0
   -9.7283   96.8644   14.2288 O   0  0  0  0  0  0  0  0  0  0  0  0
   -9.8774   95.5278   13.3758 P   0  0  0  0  0  0  0  0  0  0  0  0
  -10.1266   95.9285   11.9656 O   0  0  0  0  0  0  0  0  0  0  0  0
  -10.8557   94.6524   14.0729 O   0  0  0  0  0  0  0  0  0  0  0  0
  -10.9658   93.8284   13.5730 H   0  0  0  0  0  0  0  0  0  0  0  0
   -8.4737   94.7680   13.4321 O   0  0  0  0  0  0  0  0  0  0  0  0
   -7.9344   93.8487   12.2498 P   0  0  0  0  0  0  0  0  0  0  0  0
   -6.9246   94.6399   11.5007 O   0  0  0  0  0  0  0  0  0  0  0  0
   -9.1201   93.3243   11.5299 O   0  0  0  0  0  0  0  0  0  0  0  0
   -7.1828   92.6097   12.9135 O   0  0  0  0  0  0  0  0  0  0  0  0
   -8.8296   92.7569   10.7988 H   0  0  0  0  0  0  0  0  0  0  0  0
   -6.8409   92.0280   12.2167 H   0  0  0  0  0  0  0  0  0  0  0  0
 29 30  2  0  0  0
 29 31  1  0  0  0
 29 32  1  0  0  0
 29 28  1  0  0  0
 24 25  2  0  0  0
 24 26  1  0  0  0
 24 28  1  0  0  0
 24 23  1  0  0  0
 23 22  1  0  0  0
 22  1  1  0  0  0
  1  2  1  0  0  0
  1  3  1  0  0  0
  2  7  1  0  0  0
  3  4  1  0  0  0
  3  5  1  0  0  0
  5  6  1  0  0  0
  5  7  1  0  0  0
  7 10  1  0  0  0
 10 11  1  0  0  0
 10 19  1  0  0  0
 11 12  2  0  0  0
 12 13  1  0  0  0
 13 14  1  0  0  0
 13 19  2  0  0  0
 14 15  1  0  0  0
 14 16  2  0  0  0
 16 17  1  0  0  0
 17 18  2  0  0  0
 18 19  1  0  0  0
 31 33  1  0  0  0
 32 34  1  0  0  0
 26 27  1  0  0  0
  4  8  1  0  0  0
  6  9  1  0  0  0
 15 20  1  0  0  0
 15 21  1  0  0  0
M  END
> <minimizedAffinity>
-7.55443

$$$$
1UCN_ADP_A_1160


 34 36  0  0  0  0  0  0  0  0999 V2000
  -11.1990   96.4741   21.4116 C   0  0  0  0  0  0  0  0  0  0  0  0
  -12.4795   95.8146   21.2407 O   0  0  0  0  0  0  0  0  0  0  0  0
  -10.4592   95.5748   22.3883 C   0  0  0  0  0  0  0  0  0  0  0  0
   -9.4250   96.2895   23.0554 O   0  0  0  0  0  0  0  0  0  0  0  0
  -11.5749   95.1625   23.3432 C   0  0  0  0  0  0  0  0  0  0  0  0
  -11.8645   96.1403   24.3222 O   0  0  0  0  0  0  0  0  0  0  0  0
  -12.7606   95.0230   22.3840 C   0  0  0  0  0  0  0  0  0  0  0  0
   -9.8020   97.0660   23.4979 H   0  0  0  0  0  0  0  0  0  0  0  0
  -12.1023   96.9737   23.8864 H   0  0  0  0  0  0  0  0  0  0  0  0
  -12.9697   93.6391   21.9576 N   0  0  0  0  0  0  0  0  0  0  0  0
  -12.7842   93.0891   20.7133 C   0  0  0  0  0  0  0  0  0  0  0  0
  -13.0293   91.8023   20.6640 N   0  0  0  0  0  0  0  0  0  0  0  0
  -13.4067   91.4848   21.9621 C   0  0  0  0  0  0  0  0  0  0  0  0
  -13.7945   90.2764   22.5670 C   0  0  0  0  0  0  0  0  0  0  0  0
  -13.8680   89.1105   21.9144 N   0  0  0  0  0  0  0  0  0  0  0  0
  -14.1109   90.3044   23.8823 N   0  0  0  0  0  0  0  0  0  0  0  0
  -14.0424   91.4734   24.5318 C   0  0  0  0  0  0  0  0  0  0  0  0
  -13.6940   92.6741   24.0726 N   0  0  0  0  0  0  0  0  0  0  0  0
  -13.3834   92.6083   22.7660 C   0  0  0  0  0  0  0  0  0  0  0  0
  -13.6423   89.0671   20.9571 H   0  0  0  0  0  0  0  0  0  0  0  0
  -14.1478   88.2960   22.3915 H   0  0  0  0  0  0  0  0  0  0  0  0
  -10.5520   96.6448   20.0607 C   0  0  0  0  0  0  0  0  0  0  0  0
  -11.3691   97.4507   19.2256 O   0  0  0  0  0  0  0  0  0  0  0  0
  -11.1197   97.5141   17.6539 P   0  0  0  0  0  0  0  0  0  0  0  0
  -12.4299   97.2853   16.9886 O   0  0  0  0  0  0  0  0  0  0  0  0
   -9.9730   96.6218   17.3409 O   0  0  0  0  0  0  0  0  0  0  0  0
   -9.7989   96.6416   16.3868 H   0  0  0  0  0  0  0  0  0  0  0  0
  -10.6428   98.9984   17.3070 O   0  0  0  0  0  0  0  0  0  0  0  0
   -9.2955   99.6326   17.8693 P   0  0  0  0  0  0  0  0  0  0  0  0
   -9.1585  100.9838   17.2674 O   0  0  0  0  0  0  0  0  0  0  0  0
   -8.2206   98.6338   17.6544 O   0  0  0  0  0  0  0  0  0  0  0  0
   -9.4761   99.8199   19.4418 O   0  0  0  0  0  0  0  0  0  0  0  0
   -7.3803   98.9867   17.9863 H   0  0  0  0  0  0  0  0  0  0  0  0
   -8.6690  100.2061   19.8163 H   0  0  0  0  0  0  0  0  0  0  0  0
 29 30  2  0  0  0
 29 31  1  0  0  0
 29 32  1  0  0  0
 29 28  1  0  0  0
 24 25  2  0  0  0
 24 26  1  0  0  0
 24 28  1  0  0  0
 24 23  1  0  0  0
 23 22  1  0  0  0
 22  1  1  0  0  0
  1  2  1  0  0  0
  1  3  1  0  0  0
  2  7  1  0  0  0
  3  4  1  0  0  0
  3  5  1  0  0  0
  5  6  1  0  0  0
  5  7  1  0  0  0
  7 10  1  0  0  0
 10 11  1  0  0  0
 10 19  1  0  0  0
 11 12  2  0  0  0
 12 13  1  0  0  0
 13 14  1  0  0  0
 13 19  2  0  0  0
 14 15  1  0  0  0
 14 16  2  0  0  0
 16 17  1  0  0  0
 17 18  2  0  0  0
 18 19  1  0  0  0
 31 33  1  0  0  0
 32 34  1  0  0  0
 26 27  1  0  0  0
  4  8  1  0  0  0
  6  9  1  0  0  0
 15 20  1  0  0  0
 15 21  1  0  0  0
M  END
> <minimizedAffinity>
-7.49519

$$$$
1UCN_ADP_A_1160


 34 36  0  0  0  0  0  0  0  0999 V2000
  -10.1315   97.4935   16.4147 C   0  0  0  0  0  0  0  0  0  0  0  0
  -11.2485   97.5524   17.3381 O   0  0  0  0  0  0  0  0  0  0  0  0
   -9.0783   96.7043   17.1750 C   0  0  0  0  0  0  0  0  0  0  0  0
   -7.7764   96.9697   16.6648 O   0  0  0  0  0  0  0  0  0  0  0  0
   -9.2530   97.2331   18.5949 C   0  0  0  0  0  0  0  0  0  0  0  0
   -8.6117   98.4739   18.8138 O   0  0  0  0  0  0  0  0  0  0  0  0
  -10.7719   97.4154   18.6674 C   0  0  0  0  0  0  0  0  0  0  0  0
   -7.6039   97.9236   16.6992 H   0  0  0  0  0  0  0  0  0  0  0  0
   -8.9477   99.1276   18.1808 H   0  0  0  0  0  0  0  0  0  0  0  0
  -11.4390   96.2720   19.2904 N   0  0  0  0  0  0  0  0  0  0  0  0
  -12.1861   95.2868   18.6934 C   0  0  0  0  0  0  0  0  0  0  0  0
  -12.6237   94.3773   19.5299 N   0  0  0  0  0  0  0  0  0  0  0  0
  -12.1361   94.7947   20.7613 C   0  0  0  0  0  0  0  0  0  0  0  0
  -12.2511   94.2596   22.0563 C   0  0  0  0  0  0  0  0  0  0  0  0
  -12.9227   93.1369   22.3379 N   0  0  0  0  0  0  0  0  0  0  0  0
  -11.6471   94.9251   23.0678 N   0  0  0  0  0  0  0  0  0  0  0  0
  -10.9808   96.0515   22.7845 C   0  0  0  0  0  0  0  0  0  0  0  0
  -10.8041   96.6539   21.6099 N   0  0  0  0  0  0  0  0  0  0  0  0
  -11.4133   95.9648   20.6292 C   0  0  0  0  0  0  0  0  0  0  0  0
  -13.3696   92.6368   21.6172 H   0  0  0  0  0  0  0  0  0  0  0  0
  -12.9698   92.8111   23.2657 H   0  0  0  0  0  0  0  0  0  0  0  0
  -10.5990   96.8813   15.1189 C   0  0  0  0  0  0  0  0  0  0  0  0
   -9.5982   96.0218   14.5952 O   0  0  0  0  0  0  0  0  0  0  0  0
   -9.6087   95.5952   13.0608 P   0  0  0  0  0  0  0  0  0  0  0  0
   -8.7357   94.3986   12.9284 O   0  0  0  0  0  0  0  0  0  0  0  0
   -9.3181   96.8076   12.2516 O   0  0  0  0  0  0  0  0  0  0  0  0
   -9.3184   96.5754   11.3098 H   0  0  0  0  0  0  0  0  0  0  0  0
  -11.1018   95.1592   12.6980 O   0  0  0  0  0  0  0  0  0  0  0  0
  -11.6877   93.7141   13.0176 P   0  0  0  0  0  0  0  0  0  0  0  0
  -13.1505   93.7647   12.7640 O   0  0  0  0  0  0  0  0  0  0  0  0
  -11.2012   93.3350   14.3662 O   0  0  0  0  0  0  0  0  0  0  0  0
  -11.0499   92.6978   11.9684 O   0  0  0  0  0  0  0  0  0  0  0  0
  -11.5395   92.4556   14.5966 H   0  0  0  0  0  0  0  0  0  0  0  0
  -11.3882   91.8045   12.1369 H   0  0  0  0  0  0  0  0  0  0  0  0
 29 30  2  0  0  0
 29 31  1  0  0  0
 29 32  1  0  0  0
 29 28  1  0  0  0
 24 25  2  0  0  0
 24 26  1  0  0  0
 24 28  1  0  0  0
 24 23  1  0  0  0
 23 22  1  0  0  0
 22  1  1  0  0  0
  1  2  1  0  0  0
  1  3  1  0  0  0
  2  7  1  0  0  0
  3  4  1  0  0  0
  3  5  1  0  0  0
  5  6  1  0  0  0
  5  7  1  0  0  0
  7 10  1  0  0  0
 10 11  1  0  0  0
 10 19  1  0  0  0
 11 12  2  0  0  0
 12 13  1  0  0  0
 13 14  1  0  0  0
 13 19  2  0  0  0
 14 15  1  0  0  0
 14 16  2  0  0  0
 16 17  1  0  0  0
 17 18  2  0  0  0
 18 19  1  0  0  0
 31 33  1  0  0  0
 32 34  1  0  0  0
 26 27  1  0  0  0
  4  8  1  0  0  0
  6  9  1  0  0  0
 15 20  1  0  0  0
 15 21  1  0  0  0
M  END
> <minimizedAffinity>
-7.36356

$$$$
1UCN_ADP_A_1160


 34 36  0  0  0  0  0  0  0  0999 V2000
  -10.6333   97.6076   16.9889 C   0  0  0  0  0  0  0  0  0  0  0  0
  -11.4948   97.6684   18.1542 O   0  0  0  0  0  0  0  0  0  0  0  0
   -9.5220   96.6613   17.4127 C   0  0  0  0  0  0  0  0  0  0  0  0
   -8.3524   96.8656   16.6280 O   0  0  0  0  0  0  0  0  0  0  0  0
   -9.3080   97.0598   18.8694 C   0  0  0  0  0  0  0  0  0  0  0  0
   -8.5069   98.2145   19.0228 O   0  0  0  0  0  0  0  0  0  0  0  0
  -10.7415   97.3609   19.3166 C   0  0  0  0  0  0  0  0  0  0  0  0
   -8.0775   97.7936   16.6929 H   0  0  0  0  0  0  0  0  0  0  0  0
   -8.9093   98.9535   18.5403 H   0  0  0  0  0  0  0  0  0  0  0  0
  -11.3632   96.2216   19.9918 N   0  0  0  0  0  0  0  0  0  0  0  0
  -12.0673   95.1795   19.4408 C   0  0  0  0  0  0  0  0  0  0  0  0
  -12.4699   94.2930   20.3185 N   0  0  0  0  0  0  0  0  0  0  0  0
  -12.0040   94.7875   21.5296 C   0  0  0  0  0  0  0  0  0  0  0  0
  -12.1013   94.3095   22.8482 C   0  0  0  0  0  0  0  0  0  0  0  0
  -12.7272   93.1747   23.1813 N   0  0  0  0  0  0  0  0  0  0  0  0
  -11.5287   95.0461   23.8281 N   0  0  0  0  0  0  0  0  0  0  0  0
  -10.9082   96.1845   23.4931 C   0  0  0  0  0  0  0  0  0  0  0  0
  -10.7524   96.7378   22.2917 N   0  0  0  0  0  0  0  0  0  0  0  0
  -11.3295   95.9789   21.3435 C   0  0  0  0  0  0  0  0  0  0  0  0
  -13.1508   92.6233   22.4843 H   0  0  0  0  0  0  0  0  0  0  0  0
  -12.7641   92.8911   24.1234 H   0  0  0  0  0  0  0  0  0  0  0  0
  -11.4487   97.1682   15.7996 C   0  0  0  0  0  0  0  0  0  0  0  0
  -10.8952   95.9888   15.2362 O   0  0  0  0  0  0  0  0  0  0  0  0
  -10.4740   95.9363   13.7012 P   0  0  0  0  0  0  0  0  0  0  0  0
   -9.2600   96.7810   13.5466 O   0  0  0  0  0  0  0  0  0  0  0  0
  -11.6827   96.2344   12.8893 O   0  0  0  0  0  0  0  0  0  0  0  0
  -11.4537   96.2089   11.9471 H   0  0  0  0  0  0  0  0  0  0  0  0
  -10.0703   94.4269   13.3697 O   0  0  0  0  0  0  0  0  0  0  0  0
   -8.8969   94.0411   12.3656 P   0  0  0  0  0  0  0  0  0  0  0  0
   -9.2521   92.7358   11.7519 O   0  0  0  0  0  0  0  0  0  0  0  0
   -7.6235   94.1639   13.1156 O   0  0  0  0  0  0  0  0  0  0  0  0
   -8.8835   95.1335   11.2050 O   0  0  0  0  0  0  0  0  0  0  0  0
   -6.8820   93.9355   12.5334 H   0  0  0  0  0  0  0  0  0  0  0  0
   -8.1766   94.9260   10.5739 H   0  0  0  0  0  0  0  0  0  0  0  0
 29 30  2  0  0  0
 29 31  1  0  0  0
 29 32  1  0  0  0
 29 28  1  0  0  0
 24 25  2  0  0  0
 24 26  1  0  0  0
 24 28  1  0  0  0
 24 23  1  0  0  0
 23 22  1  0  0  0
 22  1  1  0  0  0
  1  2  1  0  0  0
  1  3  1  0  0  0
  2  7  1  0  0  0
  3  4  1  0  0  0
  3  5  1  0  0  0
  5  6  1  0  0  0
  5  7  1  0  0  0
  7 10  1  0  0  0
 10 11  1  0  0  0
 10 19  1  0  0  0
 11 12  2  0  0  0
 12 13  1  0  0  0
 13 14  1  0  0  0
 13 19  2  0  0  0
 14 15  1  0  0  0
 14 16  2  0  0  0
 16 17  1  0  0  0
 17 18  2  0  0  0
 18 19  1  0  0  0
 31 33  1  0  0  0
 32 34  1  0  0  0
 26 27  1  0  0  0
  4  8  1  0  0  0
  6  9  1  0  0  0
 15 20  1  0  0  0
 15 21  1  0  0  0
M  END
> <minimizedAffinity>
-7.30011

$$$$
1UCN_ADP_A_1160


 34 36  0  0  0  0  0  0  0  0999 V2000
  -11.1769   96.6454   21.3746 C   0  0  0  0  0  0  0  0  0  0  0  0
  -12.4120   95.9664   21.0324 O   0  0  0  0  0  0  0  0  0  0  0  0
  -10.4555   95.6500   22.2684 C   0  0  0  0  0  0  0  0  0  0  0  0
   -9.4984   96.3061   23.0925 O   0  0  0  0  0  0  0  0  0  0  0  0
  -11.6058   95.0676   23.0833 C   0  0  0  0  0  0  0  0  0  0  0  0
  -12.0000   95.8899   24.1636 O   0  0  0  0  0  0  0  0  0  0  0  0
  -12.7237   95.0150   22.0378 C   0  0  0  0  0  0  0  0  0  0  0  0
   -9.9379   96.9993   23.6094 H   0  0  0  0  0  0  0  0  0  0  0  0
  -12.2503   96.7653   23.8290 H   0  0  0  0  0  0  0  0  0  0  0  0
  -12.8407   93.6957   21.4163 N   0  0  0  0  0  0  0  0  0  0  0  0
  -12.5746   93.3335   20.1190 C   0  0  0  0  0  0  0  0  0  0  0  0
  -12.7485   92.0560   19.8821 N   0  0  0  0  0  0  0  0  0  0  0  0
  -13.1620   91.5435   21.1047 C   0  0  0  0  0  0  0  0  0  0  0  0
  -13.5097   90.2458   21.5190 C   0  0  0  0  0  0  0  0  0  0  0  0
  -13.4938   89.1799   20.7101 N   0  0  0  0  0  0  0  0  0  0  0  0
  -13.8816   90.0757   22.8088 N   0  0  0  0  0  0  0  0  0  0  0  0
  -13.9026   91.1448   23.6148 C   0  0  0  0  0  0  0  0  0  0  0  0
  -13.5999   92.4127   23.3417 N   0  0  0  0  0  0  0  0  0  0  0  0
  -13.2322   92.5441   22.0550 C   0  0  0  0  0  0  0  0  0  0  0  0
  -13.2264   89.2809   19.7680 H   0  0  0  0  0  0  0  0  0  0  0  0
  -13.7494   88.2948   21.0572 H   0  0  0  0  0  0  0  0  0  0  0  0
  -10.4586   97.0248   20.1048 C   0  0  0  0  0  0  0  0  0  0  0  0
  -11.3725   97.0657   19.0196 O   0  0  0  0  0  0  0  0  0  0  0  0
  -10.9273   97.6264   17.5970 P   0  0  0  0  0  0  0  0  0  0  0  0
   -9.5266   98.1079   17.7299 O   0  0  0  0  0  0  0  0  0  0  0  0
  -11.9827   98.5622   17.1283 O   0  0  0  0  0  0  0  0  0  0  0  0
  -11.7360   98.9195   16.2609 H   0  0  0  0  0  0  0  0  0  0  0  0
  -10.9315   96.3965   16.5780 O   0  0  0  0  0  0  0  0  0  0  0  0
  -10.0366   96.3542   15.2623 P   0  0  0  0  0  0  0  0  0  0  0  0
  -10.6107   95.3137   14.3709 O   0  0  0  0  0  0  0  0  0  0  0  0
   -8.6248   96.2320   15.6992 O   0  0  0  0  0  0  0  0  0  0  0  0
  -10.1977   97.7607   14.5300 O   0  0  0  0  0  0  0  0  0  0  0  0
   -8.0467   96.2031   14.9208 H   0  0  0  0  0  0  0  0  0  0  0  0
   -9.6625   97.7673   13.7211 H   0  0  0  0  0  0  0  0  0  0  0  0
 29 30  2  0  0  0
 29 31  1  0  0  0
 29 32  1  0  0  0
 29 28  1  0  0  0
 24 25  2  0  0  0
 24 26  1  0  0  0
 24 28  1  0  0  0
 24 23  1  0  0  0
 23 22  1  0  0  0
 22  1  1  0  0  0
  1  2  1  0  0  0
  1  3  1  0  0  0
  2  7  1  0  0  0
  3  4  1  0  0  0
  3  5  1  0  0  0
  5  6  1  0  0  0
  5  7  1  0  0  0
  7 10  1  0  0  0
 10 11  1  0  0  0
 10 19  1  0  0  0
 11 12  2  0  0  0
 12 13  1  0  0  0
 13 14  1  0  0  0
 13 19  2  0  0  0
 14 15  1  0  0  0
 14 16  2  0  0  0
 16 17  1  0  0  0
 17 18  2  0  0  0
 18 19  1  0  0  0
 31 33  1  0  0  0
 32 34  1  0  0  0
 26 27  1  0  0  0
  4  8  1  0  0  0
  6  9  1  0  0  0
 15 20  1  0  0  0
 15 21  1  0  0  0
M  END
> <minimizedAffinity>
-7.11480

$$$$
