1UCN_ADP_A_1160
  RCSB PDB12061704123D
Coordinates from PDB:1UCN:A:1160 Model:1 without hydrogens
 27 29  0  0  0  0            999 V2000
   -8.7700   96.8750   16.0660   P 0  0  0  0  0  0  0  0  0  0  0  0
   -8.8350   97.6750   14.8160   O 0  0  0  0  0  0  0  0  0  0  0  0
   -7.6870   95.8750   16.2280   O 0  0  0  0  0  0  0  0  0  0  0  0
   -8.6760   97.8940   17.2880   O 0  0  0  0  0  0  0  0  0  0  0  0
  -11.5710   96.8260   16.1870   P 0  0  0  0  0  0  0  0  0  0  0  0
  -11.3610   98.2290   15.7410   O 0  0  0  0  0  0  0  0  0  0  0  0
  -12.4890   95.9430   15.4210   O 0  0  0  0  0  0  0  0  0  0  0  0
  -10.1510   96.0950   16.2010   O 0  0  0  0  0  0  0  0  0  0  0  0
  -12.0920   96.8800   17.6910   O 0  0  0  0  0  0  0  0  0  0  0  0
  -11.8230   98.0040   18.5150   C 0  0  0  0  0  0  0  0  0  0  0  0
  -11.4430   97.5520   19.9020   C 0  0  0  0  0  0  0  0  0  0  0  0
  -12.5530   96.8180   20.4790   O 0  0  0  0  0  0  0  0  0  0  0  0
  -10.2840   96.5720   19.9820   C 0  0  0  0  0  0  0  0  0  0  0  0
   -9.0360   97.2550   19.9420   O 0  0  0  0  0  0  0  0  0  0  0  0
  -10.5270   95.9070   21.3330   C 0  0  0  0  0  0  0  0  0  0  0  0
  -10.0700   96.6770   22.4270   O 0  0  0  0  0  0  0  0  0  0  0  0
  -12.0560   95.8240   21.3610   C 0  0  0  0  0  0  0  0  0  0  0  0
  -12.5490   94.5180   20.9230   N 0  0  0  0  0  0  0  0  0  0  0  0
  -12.6720   94.0340   19.6440   C 0  0  0  0  0  0  0  0  0  0  0  0
  -13.1190   92.8030   19.5870   N 0  0  0  0  0  0  0  0  0  0  0  0
  -13.3080   92.4550   20.9180   C 0  0  0  0  0  0  0  0  0  0  0  0
  -13.7670   91.2770   21.5330   C 0  0  0  0  0  0  0  0  0  0  0  0
  -14.1340   90.1820   20.8570   N 0  0  0  0  0  0  0  0  0  0  0  0
  -13.8400   91.2600   22.8840   N 0  0  0  0  0  0  0  0  0  0  0  0
  -13.4780   92.3590   23.5580   C 0  0  0  0  0  0  0  0  0  0  0  0
  -13.0330   93.5250   23.0930   N 0  0  0  0  0  0  0  0  0  0  0  0
  -12.9700   93.5050   21.7500   C 0  0  0  0  0  0  0  0  0  0  0  0
  1  2  2  0  0  0  0
  1  3  1  0  0  0  0
  1  4  1  0  0  0  0
  1  8  1  0  0  0  0
  5  6  2  0  0  0  0
  5  7  1  0  0  0  0
  5  8  1  0  0  0  0
  5  9  1  0  0  0  0
  9 10  1  0  0  0  0
 10 11  1  0  0  0  0
 11 12  1  0  0  0  0
 11 13  1  0  0  0  0
 12 17  1  0  0  0  0
 13 14  1  0  0  0  0
 13 15  1  0  0  0  0
 15 16  1  0  0  0  0
 15 17  1  0  0  0  0
 17 18  1  0  0  0  0
 18 19  1  0  0  0  0
 18 27  1  0  0  0  0
 19 20  2  0  0  0  0
 20 21  1  0  0  0  0
 21 22  1  0  0  0  0
 21 27  2  0  0  0  0
 22 23  1  0  0  0  0
 22 24  2  0  0  0  0
 24 25  1  0  0  0  0
 25 26  2  0  0  0  0
 26 27  1  0  0  0  0
A    1
PB
A    2
O1B
A    3
O2B
A    4
O3B
A    5
PA
A    6
O1A
A    7
O2A
A    8
O3A
A    9
O5'
A   10
C5'
A   11
C4'
A   12
O4'
A   13
C3'
A   14
O3'
A   15
C2'
A   16
O2'
A   17
C1'
A   18
N9
A   19
C8
A   20
N7
A   21
C5
A   22
C6
A   23
N6
A   24
N1
A   25
C2
A   26
N3
A   27
C4
M  END
>  <InstanceId>
1UCN_ADP_A_1160

>  <ChemCompId>
ADP

>  <PdbId>
1UCN

>  <ChainId>
A

>  <ResidueNumber>
1160

>  <InsertionCode>


>  <Model>
1

>  <AltIds>


>  <MissingHeavyAtoms>
0

>  <ObservedFormula>
C10 N5 O10 P2

>  <Name>
ADENOSINE-5'-DIPHOSPHATE

>  <SystematicName>
[(2R,3S,4R,5R)-5-(6-aminopurin-9-yl)-3,4-dihydroxy-oxolan-2-yl]methyl phosphono hydrogen phosphate

>  <Synonyms>


>  <Type>
NON-POLYMER

>  <Formula>
C10 H15 N5 O10 P2

>  <MolecularWeight>
427.201

>  <ModifiedDate>
2011-06-04

>  <Parent>
A

>  <OneLetterCode>


>  <SubcomponentList>


>  <AmbiguousFlag>
N

>  <InChI>
InChI=1S/C10H15N5O10P2/c11-8-5-9(13-2-12-8)15(3-14-5)10-7(17)6(16)4(24-10)1-23-27(21,22)25-26(18,19)20/h2-4,6-7,10,16-17H,1H2,(H,21,22)(H2,11,12,13)(H2,18,19,20)/t4-,6-,7-,10-/m1/s1

>  <InChIKey>
XTWYTFMLZFPYCI-KQYNXXCUSA-N

>  <SMILES>
c1nc(c2c(n1)n(cn2)[C@H]3[C@@H]([C@@H]([C@H](O3)CO[P@](=O)(O)OP(=O)(O)O)O)O)N

$$$$
