6HSH_GOK_A_504
  RCSB PDB11101803503D
Coordinates from PDB:6HSH:A:504 Model:1 without hydrogens
 29 32  0  0  0  0            999 V2000
   46.5350   30.8240   85.0260   N 0  0  0  0  0  0  0  0  0  0  0  0
   46.7280   31.9360   86.9740   O 0  0  0  0  0  0  0  0  0  0  0  0
   43.2900   34.3860   84.3150   C 0  0  0  0  0  0  0  0  0  0  0  0
   45.2900   32.8550   85.3080   C 0  0  0  0  0  0  0  0  0  0  0  0
   44.2690   33.3720   86.0940   C 0  0  0  0  0  0  0  0  0  0  0  0
   40.9530   35.1810   84.5570   C 0  0  0  0  0  0  0  0  0  0  0  0
   42.1720   34.9450   83.7790   N 0  0  0  0  0  0  0  0  0  0  0  0
   42.0470   35.3430   82.3740   C 0  0  0  0  0  0  0  0  0  0  0  0
   40.4440   43.1660   83.4450   C 0  0  0  0  0  0  0  0  0  0  0  0
   46.2680   31.8480   85.8360   C 0  0  0  0  0  0  0  0  0  0  0  0
   47.2620   29.7120   85.4590   O 0  0  0  0  0  0  0  0  0  0  0  0
   44.2470   34.0050   83.4580   N 0  0  0  0  0  0  0  0  0  0  0  0
   45.2250   33.2470   83.9750   C 0  0  0  0  0  0  0  0  0  0  0  0
   43.2640   34.1260   85.6280   N 0  0  0  0  0  0  0  0  0  0  0  0
   40.5160   36.6360   84.4740   C 0  0  0  0  0  0  0  0  0  0  0  0
   41.6080   36.7970   82.2520   C 0  0  0  0  0  0  0  0  0  0  0  0
   40.3300   37.0870   83.0340   C 0  0  0  0  0  0  0  0  0  0  0  0
   39.9980   38.5670   82.9910   C 0  0  0  0  0  0  0  0  0  0  0  0
   39.8840   39.0980   81.6300   N 0  0  0  0  0  0  0  0  0  0  0  0
   39.0460   40.2880   81.5070   C 0  0  0  0  0  0  0  0  0  0  0  0
   39.4130   41.3780   82.4760   C 0  0  0  0  0  0  0  0  0  0  0  0
   39.4740   42.6860   84.2970   N 0  0  0  0  0  0  0  0  0  0  0  0
   38.8610   41.6160   83.6960   C 0  0  0  0  0  0  0  0  0  0  0  0
   40.4300   42.3740   82.2910   C 0  0  0  0  0  0  0  0  0  0  0  0
   41.3190   42.6770   81.2620   C 0  0  0  0  0  0  0  0  0  0  0  0
   42.1960   43.7420   81.3990   C 0  0  0  0  0  0  0  0  0  0  0  0
   42.1970   44.5120   82.5530   C 0  0  0  0  0  0  0  0  0  0  0  0
   41.3200   44.2330   83.5900   C 0  0  0  0  0  0  0  0  0  0  0  0
   39.1600   43.2160   85.6180   C 0  0  0  0  0  0  0  0  0  0  0  0
 25 26  2  0  0  0  0
 25 24  1  0  0  0  0
 26 27  1  0  0  0  0
 20 19  1  0  0  0  0
 20 21  1  0  0  0  0
 19 18  1  0  0  0  0
 16  8  1  0  0  0  0
 16 17  1  0  0  0  0
 24 21  1  0  0  0  0
 24  9  2  0  0  0  0
  8  7  1  0  0  0  0
 21 23  2  0  0  0  0
 27 28  2  0  0  0  0
 18 17  1  0  0  0  0
 17 15  1  0  0  0  0
  9 28  1  0  0  0  0
  9 22  1  0  0  0  0
 12 13  2  0  0  0  0
 12  3  1  0  0  0  0
 23 22  1  0  0  0  0
  7  3  1  0  0  0  0
  7  6  1  0  0  0  0
 13  4  1  0  0  0  0
 22 29  1  0  0  0  0
  3 14  2  0  0  0  0
 15  6  1  0  0  0  0
  1 11  1  0  0  0  0
  1 10  1  0  0  0  0
  4 10  1  0  0  0  0
  4  5  2  0  0  0  0
 14  5  1  0  0  0  0
 10  2  2  0  0  0  0
A    1
N1
A    2
O3
A    3
C5
A    4
C8
A    5
C9
A    6
C14
A    7
N15
A    8
C16
A    9
C34
A   10
C2
A   11
O4
A   12
N6
A   13
C7
A   14
N10
A   15
C13
A   16
C17
A   17
C18
A   18
C27
A   19
N29
A   20
C30
A   21
C31
A   22
N32
A   23
C33
A   24
C35
A   25
C36
A   26
C37
A   27
C38
A   28
C39
A   29
C44
M  END
>  <InstanceId>
6HSH_GOK_A_504

>  <ChemCompId>
GOK

>  <PdbId>
6HSH

>  <ChainId>
A

>  <ResidueNumber>
504

>  <InsertionCode>


>  <Model>
1

>  <AltIds>


>  <MissingHeavyAtoms>
0

>  <ObservedFormula>
C21 N6 O2

>  <Name>
2-[4-[[(1-methylindol-3-yl)methylamino]methyl]piperidin-1-yl]-~{N}-oxidanyl-pyrimidine-5-carboxamide

>  <SystematicName>
2-[4-[[(1-methylindol-3-yl)methylamino]methyl]piperidin-1-yl]-~{N}-oxidanyl-pyrimidine-5-carboxamide

>  <Synonyms>


>  <Type>
NON-POLYMER

>  <Formula>
C21 H26 N6 O2

>  <MolecularWeight>
394.47

>  <ModifiedDate>
2018-10-26

>  <Parent>


>  <OneLetterCode>


>  <SubcomponentList>


>  <AmbiguousFlag>
N

>  <InChI>
InChI=1S/C21H26N6O2/c1-26-14-17(18-4-2-3-5-19(18)26)11-22-10-15-6-8-27(9-7-15)21-23-12-16(13-24-21)20(28)25-29/h2-5,12-15,22,29H,6-11H2,1H3,(H,25,28)

>  <InChIKey>
PAWIYAYFNXQGAP-UHFFFAOYSA-N

>  <SMILES>
Cn1cc(c2c1cccc2)CNCC3CCN(CC3)c4ncc(cn4)C(=O)NO

$$$$
