2WF5_BG6_A_1831


 22 22  0  0  0  0  0  0  0  0999 V2000
    9.9701   -5.4193   11.3365 C   0  0  0  0  0  0  0  0  0  0  0  0
   10.7759   -4.3276   11.9662 C   0  0  0  0  0  0  0  0  0  0  0  0
    8.5784   -5.1030   11.4404 O   0  0  0  0  0  0  0  0  0  0  0  0
   10.1533   -6.6196   12.0635 O   0  0  0  0  0  0  0  0  0  0  0  0
   12.2581   -4.6865   12.1217 C   0  0  0  0  0  0  0  0  0  0  0  0
   10.6656   -3.1438   11.1997 O   0  0  0  0  0  0  0  0  0  0  0  0
   12.3621   -6.0582   12.8274 C   0  0  0  0  0  0  0  0  0  0  0  0
   12.9270   -3.6692   12.8318 O   0  0  0  0  0  0  0  0  0  0  0  0
   11.4868   -7.0757   12.0998 C   0  0  0  0  0  0  0  0  0  0  0  0
   13.7173   -6.5014   12.8214 O   0  0  0  0  0  0  0  0  0  0  0  0
    8.3354   -5.0166   12.3755 H   0  0  0  0  0  0  0  0  0  0  0  0
   11.0326   -3.2962   10.3148 H   0  0  0  0  0  0  0  0  0  0  0  0
   12.5248   -3.5689   13.7088 H   0  0  0  0  0  0  0  0  0  0  0  0
   14.0242   -6.5908   11.9056 H   0  0  0  0  0  0  0  0  0  0  0  0
   11.5460   -8.4860   12.7611 C   0  0  0  0  0  0  0  0  0  0  0  0
   12.6539   -9.1274   12.2186 O   0  0  0  0  0  0  0  0  0  0  0  0
   13.5612  -10.1261   13.1081 P   0  0  0  0  0  0  0  0  0  0  0  0
   14.3607   -9.1434   13.9507 O   0  0  0  0  0  0  0  0  0  0  0  0
   12.6076  -10.9478   13.9242 O   0  0  0  0  0  0  0  0  0  0  0  0
   14.3874  -10.9685   12.1858 O   0  0  0  0  0  0  0  0  0  0  0  0
   13.7574   -8.6383   14.5180 H   0  0  0  0  0  0  0  0  0  0  0  0
   12.0942  -10.3652   14.5055 H   0  0  0  0  0  0  0  0  0  0  0  0
  1  2  1  0  0  0
  1  3  1  0  0  0
  1  4  1  0  0  0
  2  5  1  0  0  0
  2  6  1  0  0  0
  4  9  1  0  0  0
  5  7  1  0  0  0
  5  8  1  0  0  0
  7  9  1  0  0  0
  7 10  1  0  0  0
  9 15  1  0  0  0
 15 16  1  0  0  0
 16 17  1  0  0  0
 17 18  1  0  0  0
 17 19  1  0  0  0
 17 20  2  0  0  0
  3 11  1  0  0  0
  6 12  1  0  0  0
  8 13  1  0  0  0
 10 14  1  0  0  0
 18 21  1  0  0  0
 19 22  1  0  0  0
M  END
> <minimizedAffinity>
-9.08417

$$$$
2WF5_BG6_A_1831


 22 22  0  0  0  0  0  0  0  0999 V2000
   11.2552   -9.7776   12.8704 C   0  0  0  0  0  0  0  0  0  0  0  0
   12.6879  -10.1892   12.7452 C   0  0  0  0  0  0  0  0  0  0  0  0
   10.4202  -10.7763   12.2760 O   0  0  0  0  0  0  0  0  0  0  0  0
   11.0382   -8.5936   12.1263 O   0  0  0  0  0  0  0  0  0  0  0  0
   13.6696   -9.0774   13.1324 C   0  0  0  0  0  0  0  0  0  0  0  0
   12.9352  -11.3248   13.5516 O   0  0  0  0  0  0  0  0  0  0  0  0
   13.2936   -7.7946   12.3555 C   0  0  0  0  0  0  0  0  0  0  0  0
   14.9915   -9.4911   12.8714 O   0  0  0  0  0  0  0  0  0  0  0  0
   11.8100   -7.4934   12.5525 C   0  0  0  0  0  0  0  0  0  0  0  0
   14.0719   -6.6984   12.8303 O   0  0  0  0  0  0  0  0  0  0  0  0
   10.6504  -10.8742   11.3388 H   0  0  0  0  0  0  0  0  0  0  0  0
   12.7826  -11.0997   14.4826 H   0  0  0  0  0  0  0  0  0  0  0  0
   15.0868   -9.6923   11.9273 H   0  0  0  0  0  0  0  0  0  0  0  0
   13.8957   -6.5616   13.7743 H   0  0  0  0  0  0  0  0  0  0  0  0
   11.3624   -6.2072   11.7939 C   0  0  0  0  0  0  0  0  0  0  0  0
   11.4075   -5.1704   12.7191 O   0  0  0  0  0  0  0  0  0  0  0  0
   12.1187   -3.7632   12.3645 P   0  0  0  0  0  0  0  0  0  0  0  0
   11.2199   -3.2378   11.2550 O   0  0  0  0  0  0  0  0  0  0  0  0
   12.0497   -2.9302   13.6102 O   0  0  0  0  0  0  0  0  0  0  0  0
   13.5301   -4.0351   11.9435 O   0  0  0  0  0  0  0  0  0  0  0  0
   10.3280   -3.0875   11.6054 H   0  0  0  0  0  0  0  0  0  0  0  0
   11.1213   -2.7784   13.8467 H   0  0  0  0  0  0  0  0  0  0  0  0
  1  2  1  0  0  0
  1  3  1  0  0  0
  1  4  1  0  0  0
  2  5  1  0  0  0
  2  6  1  0  0  0
  4  9  1  0  0  0
  5  7  1  0  0  0
  5  8  1  0  0  0
  7  9  1  0  0  0
  7 10  1  0  0  0
  9 15  1  0  0  0
 15 16  1  0  0  0
 16 17  1  0  0  0
 17 18  1  0  0  0
 17 19  1  0  0  0
 17 20  2  0  0  0
  3 11  1  0  0  0
  6 12  1  0  0  0
  8 13  1  0  0  0
 10 14  1  0  0  0
 18 21  1  0  0  0
 19 22  1  0  0  0
M  END
> <minimizedAffinity>
-8.90440

$$$$
2WF5_BG6_A_1831


 22 22  0  0  0  0  0  0  0  0999 V2000
   12.4059   -4.3972   12.6053 C   0  0  0  0  0  0  0  0  0  0  0  0
   11.1117   -4.4398   11.8563 C   0  0  0  0  0  0  0  0  0  0  0  0
   13.1493   -3.2422   12.2038 O   0  0  0  0  0  0  0  0  0  0  0  0
   13.1958   -5.5148   12.2452 O   0  0  0  0  0  0  0  0  0  0  0  0
   10.3558   -5.7613   12.0355 C   0  0  0  0  0  0  0  0  0  0  0  0
   10.2802   -3.3727   12.2700 O   0  0  0  0  0  0  0  0  0  0  0  0
   11.3220   -6.9281   11.7266 C   0  0  0  0  0  0  0  0  0  0  0  0
    9.2158   -5.7790   11.2070 O   0  0  0  0  0  0  0  0  0  0  0  0
   12.6036   -6.7600   12.5389 C   0  0  0  0  0  0  0  0  0  0  0  0
   10.7024   -8.1680   12.0609 O   0  0  0  0  0  0  0  0  0  0  0  0
   13.3256   -3.2862   11.2510 H   0  0  0  0  0  0  0  0  0  0  0  0
   10.0694   -3.4733   13.2114 H   0  0  0  0  0  0  0  0  0  0  0  0
    9.4878   -5.6852   10.2806 H   0  0  0  0  0  0  0  0  0  0  0  0
   10.4855   -8.1765   13.0063 H   0  0  0  0  0  0  0  0  0  0  0  0
   13.6252   -7.9075   12.2750 C   0  0  0  0  0  0  0  0  0  0  0  0
   13.4023   -8.8650   13.2581 O   0  0  0  0  0  0  0  0  0  0  0  0
   13.3916  -10.4416   12.9031 P   0  0  0  0  0  0  0  0  0  0  0  0
   13.0057  -11.0534   14.2417 O   0  0  0  0  0  0  0  0  0  0  0  0
   12.3366  -10.6304   11.8534 O   0  0  0  0  0  0  0  0  0  0  0  0
   14.7527  -10.8291   12.4130 O   0  0  0  0  0  0  0  0  0  0  0  0
   12.1160  -10.7560   14.4886 H   0  0  0  0  0  0  0  0  0  0  0  0
   11.4739  -10.3686   12.2113 H   0  0  0  0  0  0  0  0  0  0  0  0
  1  2  1  0  0  0
  1  3  1  0  0  0
  1  4  1  0  0  0
  2  5  1  0  0  0
  2  6  1  0  0  0
  4  9  1  0  0  0
  5  7  1  0  0  0
  5  8  1  0  0  0
  7  9  1  0  0  0
  7 10  1  0  0  0
  9 15  1  0  0  0
 15 16  1  0  0  0
 16 17  1  0  0  0
 17 18  1  0  0  0
 17 19  1  0  0  0
 17 20  2  0  0  0
  3 11  1  0  0  0
  6 12  1  0  0  0
  8 13  1  0  0  0
 10 14  1  0  0  0
 18 21  1  0  0  0
 19 22  1  0  0  0
M  END
> <minimizedAffinity>
-8.85978

$$$$
2WF5_BG6_A_1831


 22 22  0  0  0  0  0  0  0  0999 V2000
   13.2249   -8.8092   12.4618 C   0  0  0  0  0  0  0  0  0  0  0  0
   12.3530   -9.8131   13.1472 C   0  0  0  0  0  0  0  0  0  0  0  0
   14.4346   -8.6424   13.2079 O   0  0  0  0  0  0  0  0  0  0  0  0
   12.5849   -7.5470   12.4680 O   0  0  0  0  0  0  0  0  0  0  0  0
   10.9383   -9.8816   12.5610 C   0  0  0  0  0  0  0  0  0  0  0  0
   12.9456  -11.0955   13.0741 O   0  0  0  0  0  0  0  0  0  0  0  0
   10.3576   -8.4498   12.5052 C   0  0  0  0  0  0  0  0  0  0  0  0
   10.1405  -10.7513   13.3315 O   0  0  0  0  0  0  0  0  0  0  0  0
   11.3446   -7.5244   11.7981 C   0  0  0  0  0  0  0  0  0  0  0  0
    9.1195   -8.4594   11.7981 O   0  0  0  0  0  0  0  0  0  0  0  0
   14.2226   -8.3331   14.1025 H   0  0  0  0  0  0  0  0  0  0  0  0
   13.0176  -11.3659   12.1453 H   0  0  0  0  0  0  0  0  0  0  0  0
   10.0968  -10.4265   14.2444 H   0  0  0  0  0  0  0  0  0  0  0  0
    9.2660   -8.7787   10.8939 H   0  0  0  0  0  0  0  0  0  0  0  0
   10.8193   -6.0597   11.7060 C   0  0  0  0  0  0  0  0  0  0  0  0
   11.4511   -5.3518   12.7222 O   0  0  0  0  0  0  0  0  0  0  0  0
   12.1908   -3.9455   12.4271 P   0  0  0  0  0  0  0  0  0  0  0  0
   11.3722   -3.4083   11.2625 O   0  0  0  0  0  0  0  0  0  0  0  0
   12.0403   -3.1207   13.6711 O   0  0  0  0  0  0  0  0  0  0  0  0
   13.6265   -4.2211   12.1017 O   0  0  0  0  0  0  0  0  0  0  0  0
   10.4590   -3.2562   11.5522 H   0  0  0  0  0  0  0  0  0  0  0  0
   11.0985   -2.9662   13.8446 H   0  0  0  0  0  0  0  0  0  0  0  0
  1  2  1  0  0  0
  1  3  1  0  0  0
  1  4  1  0  0  0
  2  5  1  0  0  0
  2  6  1  0  0  0
  4  9  1  0  0  0
  5  7  1  0  0  0
  5  8  1  0  0  0
  7  9  1  0  0  0
  7 10  1  0  0  0
  9 15  1  0  0  0
 15 16  1  0  0  0
 16 17  1  0  0  0
 17 18  1  0  0  0
 17 19  1  0  0  0
 17 20  2  0  0  0
  3 11  1  0  0  0
  6 12  1  0  0  0
  8 13  1  0  0  0
 10 14  1  0  0  0
 18 21  1  0  0  0
 19 22  1  0  0  0
M  END
> <minimizedAffinity>
-8.68777

$$$$
2WF5_BG6_A_1831


 22 22  0  0  0  0  0  0  0  0999 V2000
   10.8098   -9.9803   12.5156 C   0  0  0  0  0  0  0  0  0  0  0  0
   10.2253   -8.6048   12.4509 C   0  0  0  0  0  0  0  0  0  0  0  0
    9.9996  -10.8014   13.3624 O   0  0  0  0  0  0  0  0  0  0  0  0
   12.0834   -9.9227   13.1298 O   0  0  0  0  0  0  0  0  0  0  0  0
   11.1490   -7.5898   11.7678 C   0  0  0  0  0  0  0  0  0  0  0  0
    8.9888   -8.6384   11.7646 O   0  0  0  0  0  0  0  0  0  0  0  0
   12.5446   -7.6704   12.4281 C   0  0  0  0  0  0  0  0  0  0  0  0
   10.5915   -6.2982   11.8546 O   0  0  0  0  0  0  0  0  0  0  0  0
   13.0197   -9.1212   12.4452 C   0  0  0  0  0  0  0  0  0  0  0  0
   13.4710   -6.8719   11.6953 O   0  0  0  0  0  0  0  0  0  0  0  0
    9.9702  -10.4176   14.2528 H   0  0  0  0  0  0  0  0  0  0  0  0
    9.1338   -8.9309   10.8512 H   0  0  0  0  0  0  0  0  0  0  0  0
   10.4791   -6.0566   12.7872 H   0  0  0  0  0  0  0  0  0  0  0  0
   13.5308   -7.1998   10.7844 H   0  0  0  0  0  0  0  0  0  0  0  0
   14.4263   -9.2747   13.0991 C   0  0  0  0  0  0  0  0  0  0  0  0
   15.3456   -8.8077   12.1664 O   0  0  0  0  0  0  0  0  0  0  0  0
   16.6255   -9.6958   11.7362 P   0  0  0  0  0  0  0  0  0  0  0  0
   17.0482   -9.0157   10.4425 O   0  0  0  0  0  0  0  0  0  0  0  0
   17.6369   -9.5364   12.8326 O   0  0  0  0  0  0  0  0  0  0  0  0
   16.1860  -11.1184   11.5747 O   0  0  0  0  0  0  0  0  0  0  0  0
   17.3172   -8.1028   10.6301 H   0  0  0  0  0  0  0  0  0  0  0  0
   17.8933   -8.6035   12.9029 H   0  0  0  0  0  0  0  0  0  0  0  0
  1  2  1  0  0  0
  1  3  1  0  0  0
  1  4  1  0  0  0
  2  5  1  0  0  0
  2  6  1  0  0  0
  4  9  1  0  0  0
  5  7  1  0  0  0
  5  8  1  0  0  0
  7  9  1  0  0  0
  7 10  1  0  0  0
  9 15  1  0  0  0
 15 16  1  0  0  0
 16 17  1  0  0  0
 17 18  1  0  0  0
 17 19  1  0  0  0
 17 20  2  0  0  0
  3 11  1  0  0  0
  6 12  1  0  0  0
  8 13  1  0  0  0
 10 14  1  0  0  0
 18 21  1  0  0  0
 19 22  1  0  0  0
M  END
> <minimizedAffinity>
-8.63148

$$$$
2WF5_BG6_A_1831


 22 22  0  0  0  0  0  0  0  0999 V2000
   11.3279   -7.1414   12.0501 C   0  0  0  0  0  0  0  0  0  0  0  0
   10.6129   -8.4544   12.1006 C   0  0  0  0  0  0  0  0  0  0  0  0
   10.8218   -6.3664   10.9588 O   0  0  0  0  0  0  0  0  0  0  0  0
   12.6978   -7.3612   11.7709 O   0  0  0  0  0  0  0  0  0  0  0  0
   11.2481   -9.4484   13.0795 C   0  0  0  0  0  0  0  0  0  0  0  0
    9.2598   -8.2526   12.4606 O   0  0  0  0  0  0  0  0  0  0  0  0
   12.7602   -9.5455   12.7723 C   0  0  0  0  0  0  0  0  0  0  0  0
   10.6026  -10.6976   12.9823 O   0  0  0  0  0  0  0  0  0  0  0  0
   13.3656   -8.1445   12.7343 C   0  0  0  0  0  0  0  0  0  0  0  0
   13.4076  -10.3196   13.7796 O   0  0  0  0  0  0  0  0  0  0  0  0
   10.9634   -6.8467   10.1280 H   0  0  0  0  0  0  0  0  0  0  0  0
    9.2158   -7.8684   13.3502 H   0  0  0  0  0  0  0  0  0  0  0  0
   10.6877  -11.0360   12.0773 H   0  0  0  0  0  0  0  0  0  0  0  0
   13.2851   -9.8945   14.6428 H   0  0  0  0  0  0  0  0  0  0  0  0
   14.8941   -8.1695   12.4291 C   0  0  0  0  0  0  0  0  0  0  0  0
   15.1728   -9.4350   11.9253 O   0  0  0  0  0  0  0  0  0  0  0  0
   16.6860   -9.8808   11.5738 P   0  0  0  0  0  0  0  0  0  0  0  0
   16.4998  -11.3522   11.2345 O   0  0  0  0  0  0  0  0  0  0  0  0
   17.1027   -9.0606   10.3888 O   0  0  0  0  0  0  0  0  0  0  0  0
   17.5488   -9.6241   12.7707 O   0  0  0  0  0  0  0  0  0  0  0  0
   15.9323  -11.4344   10.4522 H   0  0  0  0  0  0  0  0  0  0  0  0
   16.5200   -9.2570    9.6386 H   0  0  0  0  0  0  0  0  0  0  0  0
  1  2  1  0  0  0
  1  3  1  0  0  0
  1  4  1  0  0  0
  2  5  1  0  0  0
  2  6  1  0  0  0
  4  9  1  0  0  0
  5  7  1  0  0  0
  5  8  1  0  0  0
  7  9  1  0  0  0
  7 10  1  0  0  0
  9 15  1  0  0  0
 15 16  1  0  0  0
 16 17  1  0  0  0
 17 18  1  0  0  0
 17 19  1  0  0  0
 17 20  2  0  0  0
  3 11  1  0  0  0
  6 12  1  0  0  0
  8 13  1  0  0  0
 10 14  1  0  0  0
 18 21  1  0  0  0
 19 22  1  0  0  0
M  END
> <minimizedAffinity>
-8.47797

$$$$
2WF5_BG6_A_1831


 22 22  0  0  0  0  0  0  0  0999 V2000
   12.9052   -5.3711   12.7642 C   0  0  0  0  0  0  0  0  0  0  0  0
   11.7726   -5.9832   12.0023 C   0  0  0  0  0  0  0  0  0  0  0  0
   13.3170   -4.1641   12.1150 O   0  0  0  0  0  0  0  0  0  0  0  0
   14.0233   -6.2377   12.7235 O   0  0  0  0  0  0  0  0  0  0  0  0
   11.4226   -7.3980   12.4774 C   0  0  0  0  0  0  0  0  0  0  0  0
   10.6239   -5.1642   12.1059 O   0  0  0  0  0  0  0  0  0  0  0  0
   12.7168   -8.2434   12.5051 C   0  0  0  0  0  0  0  0  0  0  0  0
   10.4380   -7.9570   11.6380 O   0  0  0  0  0  0  0  0  0  0  0  0
   13.7935   -7.5051   13.2965 C   0  0  0  0  0  0  0  0  0  0  0  0
   12.4549   -9.5053   13.1150 O   0  0  0  0  0  0  0  0  0  0  0  0
   13.6038   -4.3651   11.2105 H   0  0  0  0  0  0  0  0  0  0  0  0
   10.3480   -5.1100   13.0342 H   0  0  0  0  0  0  0  0  0  0  0  0
   10.7723   -7.9949   10.7282 H   0  0  0  0  0  0  0  0  0  0  0  0
   12.1458   -9.3671   14.0240 H   0  0  0  0  0  0  0  0  0  0  0  0
   15.1296   -8.3053   13.3649 C   0  0  0  0  0  0  0  0  0  0  0  0
   15.2953   -8.8992   12.1188 O   0  0  0  0  0  0  0  0  0  0  0  0
   16.6249   -9.7479   11.7668 P   0  0  0  0  0  0  0  0  0  0  0  0
   17.1288   -9.0254   10.5262 O   0  0  0  0  0  0  0  0  0  0  0  0
   17.5458   -9.5952   12.9411 O   0  0  0  0  0  0  0  0  0  0  0  0
   16.2327  -11.1750   11.5375 O   0  0  0  0  0  0  0  0  0  0  0  0
   17.3611   -8.1120   10.7560 H   0  0  0  0  0  0  0  0  0  0  0  0
   17.7740   -8.6591   13.0535 H   0  0  0  0  0  0  0  0  0  0  0  0
  1  2  1  0  0  0
  1  3  1  0  0  0
  1  4  1  0  0  0
  2  5  1  0  0  0
  2  6  1  0  0  0
  4  9  1  0  0  0
  5  7  1  0  0  0
  5  8  1  0  0  0
  7  9  1  0  0  0
  7 10  1  0  0  0
  9 15  1  0  0  0
 15 16  1  0  0  0
 16 17  1  0  0  0
 17 18  1  0  0  0
 17 19  1  0  0  0
 17 20  2  0  0  0
  3 11  1  0  0  0
  6 12  1  0  0  0
  8 13  1  0  0  0
 10 14  1  0  0  0
 18 21  1  0  0  0
 19 22  1  0  0  0
M  END
> <minimizedAffinity>
-8.43069

$$$$
2WF5_BG6_A_1831


 22 22  0  0  0  0  0  0  0  0999 V2000
   11.0190   -4.4105   11.8875 C   0  0  0  0  0  0  0  0  0  0  0  0
   12.2688   -4.6567   12.6718 C   0  0  0  0  0  0  0  0  0  0  0  0
   10.3089   -3.3075   12.4592 O   0  0  0  0  0  0  0  0  0  0  0  0
   10.1613   -5.5300   12.0041 O   0  0  0  0  0  0  0  0  0  0  0  0
   12.9722   -5.9638   12.2888 C   0  0  0  0  0  0  0  0  0  0  0  0
   13.1686   -3.5795   12.4952 O   0  0  0  0  0  0  0  0  0  0  0  0
   11.9390   -7.1129   12.3385 C   0  0  0  0  0  0  0  0  0  0  0  0
   14.0651   -6.1914   13.1491 O   0  0  0  0  0  0  0  0  0  0  0  0
   10.7108   -6.7328   11.5152 C   0  0  0  0  0  0  0  0  0  0  0  0
   12.5183   -8.3046   11.8119 O   0  0  0  0  0  0  0  0  0  0  0  0
   10.0810   -3.5118   13.3796 H   0  0  0  0  0  0  0  0  0  0  0  0
   13.4237   -3.5211   11.5612 H   0  0  0  0  0  0  0  0  0  0  0  0
   13.7494   -6.2503   14.0643 H   0  0  0  0  0  0  0  0  0  0  0  0
   12.7839   -8.1554   10.8910 H   0  0  0  0  0  0  0  0  0  0  0  0
    9.6256   -7.8518   11.5219 C   0  0  0  0  0  0  0  0  0  0  0  0
    9.9486   -8.7052   12.5710 O   0  0  0  0  0  0  0  0  0  0  0  0
    9.8376  -10.3093   12.4089 P   0  0  0  0  0  0  0  0  0  0  0  0
   11.1630  -10.6411   11.7395 O   0  0  0  0  0  0  0  0  0  0  0  0
    9.7336  -10.8672   13.7976 O   0  0  0  0  0  0  0  0  0  0  0  0
    8.6290  -10.6224   11.5818 O   0  0  0  0  0  0  0  0  0  0  0  0
   11.8928  -10.4107   12.3354 H   0  0  0  0  0  0  0  0  0  0  0  0
   10.5341  -10.6423   14.2972 H   0  0  0  0  0  0  0  0  0  0  0  0
  1  2  1  0  0  0
  1  3  1  0  0  0
  1  4  1  0  0  0
  2  5  1  0  0  0
  2  6  1  0  0  0
  4  9  1  0  0  0
  5  7  1  0  0  0
  5  8  1  0  0  0
  7  9  1  0  0  0
  7 10  1  0  0  0
  9 15  1  0  0  0
 15 16  1  0  0  0
 16 17  1  0  0  0
 17 18  1  0  0  0
 17 19  1  0  0  0
 17 20  2  0  0  0
  3 11  1  0  0  0
  6 12  1  0  0  0
  8 13  1  0  0  0
 10 14  1  0  0  0
 18 21  1  0  0  0
 19 22  1  0  0  0
M  END
> <minimizedAffinity>
-7.93244

$$$$
2WF5_BG6_A_1831


 22 22  0  0  0  0  0  0  0  0999 V2000
   10.7447   -4.5943   11.9473 C   0  0  0  0  0  0  0  0  0  0  0  0
    9.8646   -5.5966   11.2701 C   0  0  0  0  0  0  0  0  0  0  0  0
   10.8067   -3.4042   11.1550 O   0  0  0  0  0  0  0  0  0  0  0  0
   12.0677   -5.0931   12.0072 O   0  0  0  0  0  0  0  0  0  0  0  0
    9.9279   -6.9860   11.9145 C   0  0  0  0  0  0  0  0  0  0  0  0
    8.5242   -5.1444   11.2785 O   0  0  0  0  0  0  0  0  0  0  0  0
   11.4109   -7.4051   12.0389 C   0  0  0  0  0  0  0  0  0  0  0  0
    9.1762   -7.9035   11.1532 O   0  0  0  0  0  0  0  0  0  0  0  0
   12.1998   -6.2960   12.7304 C   0  0  0  0  0  0  0  0  0  0  0  0
   11.5095   -8.6078   12.7982 O   0  0  0  0  0  0  0  0  0  0  0  0
   11.1679   -3.6167   10.2802 H   0  0  0  0  0  0  0  0  0  0  0  0
    8.2155   -5.0653   12.1947 H   0  0  0  0  0  0  0  0  0  0  0  0
    9.5354   -7.9479   10.2533 H   0  0  0  0  0  0  0  0  0  0  0  0
   11.1450   -8.4610   13.6851 H   0  0  0  0  0  0  0  0  0  0  0  0
   13.7084   -6.6551   12.8896 C   0  0  0  0  0  0  0  0  0  0  0  0
   13.9493   -7.7245   12.0344 O   0  0  0  0  0  0  0  0  0  0  0  0
   14.9657   -8.9118   12.4457 P   0  0  0  0  0  0  0  0  0  0  0  0
   14.1488  -10.1474   12.0977 O   0  0  0  0  0  0  0  0  0  0  0  0
   16.1758   -8.7520   11.5734 O   0  0  0  0  0  0  0  0  0  0  0  0
   15.2951   -8.7750   13.9002 O   0  0  0  0  0  0  0  0  0  0  0  0
   13.9778  -10.1636   11.1430 H   0  0  0  0  0  0  0  0  0  0  0  0
   15.9186   -8.8476   10.6430 H   0  0  0  0  0  0  0  0  0  0  0  0
  1  2  1  0  0  0
  1  3  1  0  0  0
  1  4  1  0  0  0
  2  5  1  0  0  0
  2  6  1  0  0  0
  4  9  1  0  0  0
  5  7  1  0  0  0
  5  8  1  0  0  0
  7  9  1  0  0  0
  7 10  1  0  0  0
  9 15  1  0  0  0
 15 16  1  0  0  0
 16 17  1  0  0  0
 17 18  1  0  0  0
 17 19  1  0  0  0
 17 20  2  0  0  0
  3 11  1  0  0  0
  6 12  1  0  0  0
  8 13  1  0  0  0
 10 14  1  0  0  0
 18 21  1  0  0  0
 19 22  1  0  0  0
M  END
> <minimizedAffinity>
-7.90179

$$$$
2WF5_BG6_A_1831


 22 22  0  0  0  0  0  0  0  0999 V2000
   12.6888   -9.8447   12.8088 C   0  0  0  0  0  0  0  0  0  0  0  0
   13.6850   -8.7463   12.6121 C   0  0  0  0  0  0  0  0  0  0  0  0
   13.2029  -11.0579   12.2505 O   0  0  0  0  0  0  0  0  0  0  0  0
   11.5111   -9.5486   12.0821 O   0  0  0  0  0  0  0  0  0  0  0  0
   13.1286   -7.3601   12.9568 C   0  0  0  0  0  0  0  0  0  0  0  0
   14.8343   -8.9912   13.3997 O   0  0  0  0  0  0  0  0  0  0  0  0
   11.7915   -7.1645   12.2057 C   0  0  0  0  0  0  0  0  0  0  0  0
   14.0744   -6.3676   12.6299 O   0  0  0  0  0  0  0  0  0  0  0  0
   10.8738   -8.3543   12.4760 C   0  0  0  0  0  0  0  0  0  0  0  0
   11.1618   -5.9641   12.6478 O   0  0  0  0  0  0  0  0  0  0  0  0
   13.3677  -10.9333   11.3028 H   0  0  0  0  0  0  0  0  0  0  0  0
   14.5892   -8.9905   14.3382 H   0  0  0  0  0  0  0  0  0  0  0  0
   14.2725   -6.4097   11.6813 H   0  0  0  0  0  0  0  0  0  0  0  0
   10.9860   -6.0229   13.5999 H   0  0  0  0  0  0  0  0  0  0  0  0
    9.5027   -8.2205   11.7465 C   0  0  0  0  0  0  0  0  0  0  0  0
    8.7893   -9.3780   12.0371 O   0  0  0  0  0  0  0  0  0  0  0  0
    7.5515   -9.8521   11.1124 P   0  0  0  0  0  0  0  0  0  0  0  0
    6.3728   -9.6504   12.0531 O   0  0  0  0  0  0  0  0  0  0  0  0
    7.5219   -8.9199    9.9373 O   0  0  0  0  0  0  0  0  0  0  0  0
    7.7811  -11.2737   10.7008 O   0  0  0  0  0  0  0  0  0  0  0  0
    6.2910   -8.7089   12.2716 H   0  0  0  0  0  0  0  0  0  0  0  0
    7.3715   -8.0133   10.2475 H   0  0  0  0  0  0  0  0  0  0  0  0
  1  2  1  0  0  0
  1  3  1  0  0  0
  1  4  1  0  0  0
  2  5  1  0  0  0
  2  6  1  0  0  0
  4  9  1  0  0  0
  5  7  1  0  0  0
  5  8  1  0  0  0
  7  9  1  0  0  0
  7 10  1  0  0  0
  9 15  1  0  0  0
 15 16  1  0  0  0
 16 17  1  0  0  0
 17 18  1  0  0  0
 17 19  1  0  0  0
 17 20  2  0  0  0
  3 11  1  0  0  0
  6 12  1  0  0  0
  8 13  1  0  0  0
 10 14  1  0  0  0
 18 21  1  0  0  0
 19 22  1  0  0  0
M  END
> <minimizedAffinity>
-7.51082

$$$$
