1OKL_MNS_A_862


 19 20  0  0  0  0  0  0  0  0999 V2000
   -5.0588    2.8131   15.6797 C   0  0  0  0  0  0  0  0  0  0  0  0
   -5.8501    3.4823   16.6342 C   0  0  0  0  0  0  0  0  0  0  0  0
   -6.1544    4.8239   16.4245 C   0  0  0  0  0  0  0  0  0  0  0  0
   -5.6799    5.4898   15.2870 C   0  0  0  0  0  0  0  0  0  0  0  0
   -4.8819    4.8838   14.2888 C   0  0  0  0  0  0  0  0  0  0  0  0
   -4.3874    5.5492   13.1171 C   0  0  0  0  0  0  0  0  0  0  0  0
   -3.6018    4.8215   12.2036 C   0  0  0  0  0  0  0  0  0  0  0  0
   -3.2887    3.4670   12.4055 C   0  0  0  0  0  0  0  0  0  0  0  0
   -3.7790    2.8243   13.5571 C   0  0  0  0  0  0  0  0  0  0  0  0
   -4.5731    3.5036   14.5098 C   0  0  0  0  0  0  0  0  0  0  0  0
   -4.6585    1.1617   15.8949 S   0  0  0  0  0  0  0  0  0  0  0  0
   -3.3363    1.0646   16.5864 O   0  0  0  0  0  0  0  0  0  0  0  0
   -4.5925    0.4956   14.5564 O   0  0  0  0  0  0  0  0  0  0  0  0
   -5.7093    0.5018   16.7296 N   0  0  0  0  0  0  0  0  0  0  0  0
   -5.7539    0.9561   17.6417 H   0  0  0  0  0  0  0  0  0  0  0  0
   -5.4772   -0.4839   16.8517 H   0  0  0  0  0  0  0  0  0  0  0  0
   -4.7220    7.0244   12.8898 N   0  0  0  0  0  0  0  0  0  0  0  0
   -3.7092    7.6482   12.6565 C   0  0  0  0  0  0  0  0  0  0  0  0
   -5.8593    7.1253   12.2010 C   0  0  0  0  0  0  0  0  0  0  0  0
  1  2  2  0  0  0
  1 10  1  0  0  0
  1 11  1  0  0  0
  2  3  1  0  0  0
  3  4  2  0  0  0
  4  5  1  0  0  0
  5  6  2  0  0  0
  5 10  1  0  0  0
  6  7  1  0  0  0
  6 17  1  0  0  0
  7  8  2  0  0  0
  8  9  1  0  0  0
  9 10  2  0  0  0
 17 18  1  0  0  0
 17 19  1  0  0  0
 11 12  2  0  0  0
 11 13  2  0  0  0
 11 14  1  0  0  0
 14 15  1  0  0  0
 14 16  1  0  0  0
M  END
> <minimizedAffinity>
-6.96013

$$$$
1OKL_MNS_A_862


 19 20  0  0  0  0  0  0  0  0999 V2000
   -5.8246    3.2195   16.5172 C   0  0  0  0  0  0  0  0  0  0  0  0
   -6.2109    4.5154   16.9130 C   0  0  0  0  0  0  0  0  0  0  0  0
   -5.9499    5.5794   16.0550 C   0  0  0  0  0  0  0  0  0  0  0  0
   -5.3151    5.3604   14.8255 C   0  0  0  0  0  0  0  0  0  0  0  0
   -4.8996    4.0900   14.3631 C   0  0  0  0  0  0  0  0  0  0  0  0
   -4.2489    3.8462   13.1072 C   0  0  0  0  0  0  0  0  0  0  0  0
   -3.8894    2.5267   12.7736 C   0  0  0  0  0  0  0  0  0  0  0  0
   -4.1481    1.4454   13.6323 C   0  0  0  0  0  0  0  0  0  0  0  0
   -4.7869    1.6956   14.8607 C   0  0  0  0  0  0  0  0  0  0  0  0
   -5.1716    2.9995   15.2497 C   0  0  0  0  0  0  0  0  0  0  0  0
   -6.1252    1.8789   17.5400 S   0  0  0  0  0  0  0  0  0  0  0  0
   -6.3026    2.3638   18.9433 O   0  0  0  0  0  0  0  0  0  0  0  0
   -4.9672    0.9341   17.4616 O   0  0  0  0  0  0  0  0  0  0  0  0
   -7.3694    1.1818   17.0905 N   0  0  0  0  0  0  0  0  0  0  0  0
   -8.1584    1.8261   17.1441 H   0  0  0  0  0  0  0  0  0  0  0  0
   -7.5454    0.3779   17.6932 H   0  0  0  0  0  0  0  0  0  0  0  0
   -3.9618    5.0177   12.1666 N   0  0  0  0  0  0  0  0  0  0  0  0
   -2.8912    5.5162   12.4400 C   0  0  0  0  0  0  0  0  0  0  0  0
   -4.3735    4.7152   10.9349 C   0  0  0  0  0  0  0  0  0  0  0  0
  1  2  2  0  0  0
  1 10  1  0  0  0
  1 11  1  0  0  0
  2  3  1  0  0  0
  3  4  2  0  0  0
  4  5  1  0  0  0
  5  6  2  0  0  0
  5 10  1  0  0  0
  6  7  1  0  0  0
  6 17  1  0  0  0
  7  8  2  0  0  0
  8  9  1  0  0  0
  9 10  2  0  0  0
 17 18  1  0  0  0
 17 19  1  0  0  0
 11 12  2  0  0  0
 11 13  2  0  0  0
 11 14  1  0  0  0
 14 15  1  0  0  0
 14 16  1  0  0  0
M  END
> <minimizedAffinity>
-6.86735

$$$$
1OKL_MNS_A_862


 19 20  0  0  0  0  0  0  0  0999 V2000
   -5.4567    1.8271   16.0777 C   0  0  0  0  0  0  0  0  0  0  0  0
   -4.7127    1.0785   15.1443 C   0  0  0  0  0  0  0  0  0  0  0  0
   -4.0852    1.7508   14.1000 C   0  0  0  0  0  0  0  0  0  0  0  0
   -4.1955    3.1425   13.9839 C   0  0  0  0  0  0  0  0  0  0  0  0
   -4.9242    3.9575   14.8812 C   0  0  0  0  0  0  0  0  0  0  0  0
   -5.0479    5.3838   14.7789 C   0  0  0  0  0  0  0  0  0  0  0  0
   -5.8065    6.0706   15.7455 C   0  0  0  0  0  0  0  0  0  0  0  0
   -6.4441    5.4019   16.8037 C   0  0  0  0  0  0  0  0  0  0  0  0
   -6.3158    4.0037   16.8948 C   0  0  0  0  0  0  0  0  0  0  0  0
   -5.5667    3.2603   15.9537 C   0  0  0  0  0  0  0  0  0  0  0  0
   -6.2464    1.0435   17.3800 S   0  0  0  0  0  0  0  0  0  0  0  0
   -5.8925   -0.4092   17.3643 O   0  0  0  0  0  0  0  0  0  0  0  0
   -7.7254    1.2173   17.2314 O   0  0  0  0  0  0  0  0  0  0  0  0
   -5.7993    1.6535   18.6700 N   0  0  0  0  0  0  0  0  0  0  0  0
   -4.7913    1.5349   18.7708 H   0  0  0  0  0  0  0  0  0  0  0  0
   -6.2751    1.1939   19.4464 H   0  0  0  0  0  0  0  0  0  0  0  0
   -4.3584    6.1201   13.6291 N   0  0  0  0  0  0  0  0  0  0  0  0
   -5.1882    6.5973   12.8854 C   0  0  0  0  0  0  0  0  0  0  0  0
   -3.2825    6.7606   14.0879 C   0  0  0  0  0  0  0  0  0  0  0  0
  1  2  2  0  0  0
  1 10  1  0  0  0
  1 11  1  0  0  0
  2  3  1  0  0  0
  3  4  2  0  0  0
  4  5  1  0  0  0
  5  6  2  0  0  0
  5 10  1  0  0  0
  6  7  1  0  0  0
  6 17  1  0  0  0
  7  8  2  0  0  0
  8  9  1  0  0  0
  9 10  2  0  0  0
 17 18  1  0  0  0
 17 19  1  0  0  0
 11 12  2  0  0  0
 11 13  2  0  0  0
 11 14  1  0  0  0
 14 15  1  0  0  0
 14 16  1  0  0  0
M  END
> <minimizedAffinity>
-6.84500

$$$$
1OKL_MNS_A_862


 19 20  0  0  0  0  0  0  0  0999 V2000
   -4.6135    4.3977   13.6047 C   0  0  0  0  0  0  0  0  0  0  0  0
   -4.0829    3.2090   13.0655 C   0  0  0  0  0  0  0  0  0  0  0  0
   -4.2377    2.0258   13.7813 C   0  0  0  0  0  0  0  0  0  0  0  0
   -4.9070    2.0232   15.0120 C   0  0  0  0  0  0  0  0  0  0  0  0
   -5.4640    3.1756   15.6138 C   0  0  0  0  0  0  0  0  0  0  0  0
   -6.1532    3.1923   16.8727 C   0  0  0  0  0  0  0  0  0  0  0  0
   -6.6587    4.4148   17.3538 C   0  0  0  0  0  0  0  0  0  0  0  0
   -6.5080    5.6150   16.6395 C   0  0  0  0  0  0  0  0  0  0  0  0
   -5.8312    5.5871   15.4062 C   0  0  0  0  0  0  0  0  0  0  0  0
   -5.3022    4.3893   14.8723 C   0  0  0  0  0  0  0  0  0  0  0  0
   -4.4476    5.8783   12.7597 S   0  0  0  0  0  0  0  0  0  0  0  0
   -3.6302    6.8224   13.5822 O   0  0  0  0  0  0  0  0  0  0  0  0
   -5.8062    6.4537   12.5090 O   0  0  0  0  0  0  0  0  0  0  0  0
   -3.7621    5.6298   11.4542 N   0  0  0  0  0  0  0  0  0  0  0  0
   -2.8362    5.2376   11.6255 H   0  0  0  0  0  0  0  0  0  0  0  0
   -3.6701    6.5092   10.9456 H   0  0  0  0  0  0  0  0  0  0  0  0
   -6.3207    1.8906   17.6583 N   0  0  0  0  0  0  0  0  0  0  0  0
   -6.0542    2.0740   18.8265 C   0  0  0  0  0  0  0  0  0  0  0  0
   -7.3900    1.2313   17.2110 C   0  0  0  0  0  0  0  0  0  0  0  0
  1  2  2  0  0  0
  1 10  1  0  0  0
  1 11  1  0  0  0
  2  3  1  0  0  0
  3  4  2  0  0  0
  4  5  1  0  0  0
  5  6  2  0  0  0
  5 10  1  0  0  0
  6  7  1  0  0  0
  6 17  1  0  0  0
  7  8  2  0  0  0
  8  9  1  0  0  0
  9 10  2  0  0  0
 17 18  1  0  0  0
 17 19  1  0  0  0
 11 12  2  0  0  0
 11 13  2  0  0  0
 11 14  1  0  0  0
 14 15  1  0  0  0
 14 16  1  0  0  0
M  END
> <minimizedAffinity>
-6.74548

$$$$
1OKL_MNS_A_862


 19 20  0  0  0  0  0  0  0  0999 V2000
   -4.4122    1.9162   14.2158 C   0  0  0  0  0  0  0  0  0  0  0  0
   -4.2724    1.1296   13.0552 C   0  0  0  0  0  0  0  0  0  0  0  0
   -4.1357    1.7714   11.8281 C   0  0  0  0  0  0  0  0  0  0  0  0
   -4.1390    3.1704   11.7546 C   0  0  0  0  0  0  0  0  0  0  0  0
   -4.2750    4.0227   12.8751 C   0  0  0  0  0  0  0  0  0  0  0  0
   -4.2799    5.4570   12.8195 C   0  0  0  0  0  0  0  0  0  0  0  0
   -4.4236    6.1823   14.0172 C   0  0  0  0  0  0  0  0  0  0  0  0
   -4.5623    5.5446   15.2612 C   0  0  0  0  0  0  0  0  0  0  0  0
   -4.5556    4.1383   15.3044 C   0  0  0  0  0  0  0  0  0  0  0  0
   -4.4144    3.3566   14.1345 C   0  0  0  0  0  0  0  0  0  0  0  0
   -4.5831    1.1710   15.7484 S   0  0  0  0  0  0  0  0  0  0  0  0
   -5.8487    1.6479   16.3862 O   0  0  0  0  0  0  0  0  0  0  0  0
   -3.4068    1.5299   16.6011 O   0  0  0  0  0  0  0  0  0  0  0  0
   -4.6391   -0.3132   15.5744 N   0  0  0  0  0  0  0  0  0  0  0  0
   -5.4409   -0.5574   14.9931 H   0  0  0  0  0  0  0  0  0  0  0  0
   -4.7322   -0.7593   16.4869 H   0  0  0  0  0  0  0  0  0  0  0  0
   -4.1311    6.1599   11.4692 N   0  0  0  0  0  0  0  0  0  0  0  0
   -5.1265    6.8079   11.2271 C   0  0  0  0  0  0  0  0  0  0  0  0
   -2.8794    6.5969   11.3267 C   0  0  0  0  0  0  0  0  0  0  0  0
  1  2  2  0  0  0
  1 10  1  0  0  0
  1 11  1  0  0  0
  2  3  1  0  0  0
  3  4  2  0  0  0
  4  5  1  0  0  0
  5  6  2  0  0  0
  5 10  1  0  0  0
  6  7  1  0  0  0
  6 17  1  0  0  0
  7  8  2  0  0  0
  8  9  1  0  0  0
  9 10  2  0  0  0
 17 18  1  0  0  0
 17 19  1  0  0  0
 11 12  2  0  0  0
 11 13  2  0  0  0
 11 14  1  0  0  0
 14 15  1  0  0  0
 14 16  1  0  0  0
M  END
> <minimizedAffinity>
-6.68863

$$$$
1OKL_MNS_A_862


 19 20  0  0  0  0  0  0  0  0999 V2000
   -4.8573    2.8243   15.1125 C   0  0  0  0  0  0  0  0  0  0  0  0
   -5.4108    3.8659   15.8831 C   0  0  0  0  0  0  0  0  0  0  0  0
   -5.4855    5.1390   15.3263 C   0  0  0  0  0  0  0  0  0  0  0  0
   -5.0173    5.3740   14.0270 C   0  0  0  0  0  0  0  0  0  0  0  0
   -4.4503    4.3792   13.1967 C   0  0  0  0  0  0  0  0  0  0  0  0
   -3.9662    4.6007   11.8638 C   0  0  0  0  0  0  0  0  0  0  0  0
   -3.4248    3.5157   11.1490 C   0  0  0  0  0  0  0  0  0  0  0  0
   -3.3446    2.2266   11.7014 C   0  0  0  0  0  0  0  0  0  0  0  0
   -3.8225    2.0204   13.0086 C   0  0  0  0  0  0  0  0  0  0  0  0
   -4.3771    3.0717   13.7748 C   0  0  0  0  0  0  0  0  0  0  0  0
   -4.7447    1.2407   15.7554 S   0  0  0  0  0  0  0  0  0  0  0  0
   -4.7363    0.2553   14.6308 O   0  0  0  0  0  0  0  0  0  0  0  0
   -5.9165    0.9921   16.6523 O   0  0  0  0  0  0  0  0  0  0  0  0
   -3.4788    1.1138   16.5413 N   0  0  0  0  0  0  0  0  0  0  0  0
   -2.6804    1.2833   15.9296 H   0  0  0  0  0  0  0  0  0  0  0  0
   -3.4141    0.1739   16.9322 H   0  0  0  0  0  0  0  0  0  0  0  0
   -4.0481    6.0015   11.2548 N   0  0  0  0  0  0  0  0  0  0  0  0
   -2.9603    6.5350   11.2943 C   0  0  0  0  0  0  0  0  0  0  0  0
   -4.8533    5.9821   10.1921 C   0  0  0  0  0  0  0  0  0  0  0  0
  1  2  2  0  0  0
  1 10  1  0  0  0
  1 11  1  0  0  0
  2  3  1  0  0  0
  3  4  2  0  0  0
  4  5  1  0  0  0
  5  6  2  0  0  0
  5 10  1  0  0  0
  6  7  1  0  0  0
  6 17  1  0  0  0
  7  8  2  0  0  0
  8  9  1  0  0  0
  9 10  2  0  0  0
 17 18  1  0  0  0
 17 19  1  0  0  0
 11 12  2  0  0  0
 11 13  2  0  0  0
 11 14  1  0  0  0
 14 15  1  0  0  0
 14 16  1  0  0  0
M  END
> <minimizedAffinity>
-5.94815

$$$$
1OKL_MNS_A_862


 19 20  0  0  0  0  0  0  0  0999 V2000
   -3.7166    3.2453   11.5122 C   0  0  0  0  0  0  0  0  0  0  0  0
   -3.5715    1.9006   11.1174 C   0  0  0  0  0  0  0  0  0  0  0  0
   -3.9046    0.9003   12.0255 C   0  0  0  0  0  0  0  0  0  0  0  0
   -4.3725    1.2297   13.3042 C   0  0  0  0  0  0  0  0  0  0  0  0
   -4.5429    2.5545   13.7691 C   0  0  0  0  0  0  0  0  0  0  0  0
   -5.0214    2.9112   15.0745 C   0  0  0  0  0  0  0  0  0  0  0  0
   -5.1425    4.2742   15.4042 C   0  0  0  0  0  0  0  0  0  0  0  0
   -4.8090    5.2921   14.4953 C   0  0  0  0  0  0  0  0  0  0  0  0
   -4.3415    4.9314   13.2181 C   0  0  0  0  0  0  0  0  0  0  0  0
   -4.1994    3.5790   12.8301 C   0  0  0  0  0  0  0  0  0  0  0  0
   -3.3193    4.5109   10.4286 S   0  0  0  0  0  0  0  0  0  0  0  0
   -2.2454    5.3560   11.0356 O   0  0  0  0  0  0  0  0  0  0  0  0
   -4.5414    5.3349   10.1692 O   0  0  0  0  0  0  0  0  0  0  0  0
   -2.8291    3.9265    9.1424 N   0  0  0  0  0  0  0  0  0  0  0  0
   -1.9962    3.3650    9.3196 H   0  0  0  0  0  0  0  0  0  0  0  0
   -2.6002    4.6787    8.4926 H   0  0  0  0  0  0  0  0  0  0  0  0
   -5.3853    1.8095   16.0713 N   0  0  0  0  0  0  0  0  0  0  0  0
   -4.3824    1.3822   16.6014 C   0  0  0  0  0  0  0  0  0  0  0  0
   -6.5094    2.1362   16.7100 C   0  0  0  0  0  0  0  0  0  0  0  0
  1  2  2  0  0  0
  1 10  1  0  0  0
  1 11  1  0  0  0
  2  3  1  0  0  0
  3  4  2  0  0  0
  4  5  1  0  0  0
  5  6  2  0  0  0
  5 10  1  0  0  0
  6  7  1  0  0  0
  6 17  1  0  0  0
  7  8  2  0  0  0
  8  9  1  0  0  0
  9 10  2  0  0  0
 17 18  1  0  0  0
 17 19  1  0  0  0
 11 12  2  0  0  0
 11 13  2  0  0  0
 11 14  1  0  0  0
 14 15  1  0  0  0
 14 16  1  0  0  0
M  END
> <minimizedAffinity>
-5.78877

$$$$
1OKL_MNS_A_862


 19 20  0  0  0  0  0  0  0  0999 V2000
   -5.1289    3.3740   15.0432 C   0  0  0  0  0  0  0  0  0  0  0  0
   -5.2337    2.4582   16.1088 C   0  0  0  0  0  0  0  0  0  0  0  0
   -4.8810    1.1310   15.8835 C   0  0  0  0  0  0  0  0  0  0  0  0
   -4.4331    0.7202   14.6213 C   0  0  0  0  0  0  0  0  0  0  0  0
   -4.3031    1.5817   13.5072 C   0  0  0  0  0  0  0  0  0  0  0  0
   -3.8457    1.1794   12.2075 C   0  0  0  0  0  0  0  0  0  0  0  0
   -3.7649    2.1456   11.1870 C   0  0  0  0  0  0  0  0  0  0  0  0
   -4.1185    3.4878   11.4035 C   0  0  0  0  0  0  0  0  0  0  0  0
   -4.5650    3.8715   12.6815 C   0  0  0  0  0  0  0  0  0  0  0  0
   -4.6666    2.9456   13.7455 C   0  0  0  0  0  0  0  0  0  0  0  0
   -5.5515    5.0178   15.2729 S   0  0  0  0  0  0  0  0  0  0  0  0
   -4.3159    5.8564   15.1955 O   0  0  0  0  0  0  0  0  0  0  0  0
   -6.1996    5.1740   16.6128 O   0  0  0  0  0  0  0  0  0  0  0  0
   -6.5088    5.4375   14.2035 N   0  0  0  0  0  0  0  0  0  0  0  0
   -6.0666    5.3309   13.2905 H   0  0  0  0  0  0  0  0  0  0  0  0
   -6.7684    6.4139   14.3436 H   0  0  0  0  0  0  0  0  0  0  0  0
   -3.4602   -0.2804   11.9622 N   0  0  0  0  0  0  0  0  0  0  0  0
   -4.3884   -0.8754   11.4584 C   0  0  0  0  0  0  0  0  0  0  0  0
   -2.1939   -0.3464   11.5496 C   0  0  0  0  0  0  0  0  0  0  0  0
  1  2  2  0  0  0
  1 10  1  0  0  0
  1 11  1  0  0  0
  2  3  1  0  0  0
  3  4  2  0  0  0
  4  5  1  0  0  0
  5  6  2  0  0  0
  5 10  1  0  0  0
  6  7  1  0  0  0
  6 17  1  0  0  0
  7  8  2  0  0  0
  8  9  1  0  0  0
  9 10  2  0  0  0
 17 18  1  0  0  0
 17 19  1  0  0  0
 11 12  2  0  0  0
 11 13  2  0  0  0
 11 14  1  0  0  0
 14 15  1  0  0  0
 14 16  1  0  0  0
M  END
> <minimizedAffinity>
-5.70269

$$$$
1OKL_MNS_A_862


 19 20  0  0  0  0  0  0  0  0999 V2000
   -3.9754    3.4602   13.0227 C   0  0  0  0  0  0  0  0  0  0  0  0
   -4.1152    4.8622   13.0225 C   0  0  0  0  0  0  0  0  0  0  0  0
   -4.6603    5.4773   14.1455 C   0  0  0  0  0  0  0  0  0  0  0  0
   -5.0609    4.7130   15.2491 C   0  0  0  0  0  0  0  0  0  0  0  0
   -4.9513    3.3047   15.3199 C   0  0  0  0  0  0  0  0  0  0  0  0
   -5.3553    2.5054   16.4415 C   0  0  0  0  0  0  0  0  0  0  0  0
   -5.1878    1.1093   16.3757 C   0  0  0  0  0  0  0  0  0  0  0  0
   -4.6387    0.4782   15.2472 C   0  0  0  0  0  0  0  0  0  0  0  0
   -4.2455    1.2713   14.1536 C   0  0  0  0  0  0  0  0  0  0  0  0
   -4.3891    2.6780   14.1622 C   0  0  0  0  0  0  0  0  0  0  0  0
   -3.3095    2.6588   11.6632 S   0  0  0  0  0  0  0  0  0  0  0  0
   -4.3640    1.8067   11.0324 O   0  0  0  0  0  0  0  0  0  0  0  0
   -2.1587    1.8125   12.1091 O   0  0  0  0  0  0  0  0  0  0  0  0
   -2.8295    3.6739   10.6756 N   0  0  0  0  0  0  0  0  0  0  0  0
   -3.6143    4.2505   10.3720 H   0  0  0  0  0  0  0  0  0  0  0  0
   -2.4248    3.1986    9.8690 H   0  0  0  0  0  0  0  0  0  0  0  0
   -5.9557    3.1839   17.6739 N   0  0  0  0  0  0  0  0  0  0  0  0
   -6.8434    3.9390   17.3404 C   0  0  0  0  0  0  0  0  0  0  0  0
   -6.0320    2.3073   18.6759 C   0  0  0  0  0  0  0  0  0  0  0  0
  1  2  2  0  0  0
  1 10  1  0  0  0
  1 11  1  0  0  0
  2  3  1  0  0  0
  3  4  2  0  0  0
  4  5  1  0  0  0
  5  6  2  0  0  0
  5 10  1  0  0  0
  6  7  1  0  0  0
  6 17  1  0  0  0
  7  8  2  0  0  0
  8  9  1  0  0  0
  9 10  2  0  0  0
 17 18  1  0  0  0
 17 19  1  0  0  0
 11 12  2  0  0  0
 11 13  2  0  0  0
 11 14  1  0  0  0
 14 15  1  0  0  0
 14 16  1  0  0  0
M  END
> <minimizedAffinity>
-5.64176

$$$$
1OKL_MNS_A_862


 19 20  0  0  0  0  0  0  0  0999 V2000
   -4.5202    5.8142   13.9218 C   0  0  0  0  0  0  0  0  0  0  0  0
   -3.1163    5.7066   13.8712 C   0  0  0  0  0  0  0  0  0  0  0  0
   -2.4154    6.5387   13.0036 C   0  0  0  0  0  0  0  0  0  0  0  0
   -3.0972    7.4609   12.1990 C   0  0  0  0  0  0  0  0  0  0  0  0
   -4.5021    7.6240   12.1962 C   0  0  0  0  0  0  0  0  0  0  0  0
   -5.2176    8.5632   11.3801 C   0  0  0  0  0  0  0  0  0  0  0  0
   -6.6206    8.6186   11.4799 C   0  0  0  0  0  0  0  0  0  0  0  0
   -7.3380    7.7834   12.3523 C   0  0  0  0  0  0  0  0  0  0  0  0
   -6.6266    6.8668   13.1482 C   0  0  0  0  0  0  0  0  0  0  0  0
   -5.2173    6.7659   13.0913 C   0  0  0  0  0  0  0  0  0  0  0  0
   -5.4256    4.8112   14.9745 S   0  0  0  0  0  0  0  0  0  0  0  0
   -6.3640    3.9736   14.1659 O   0  0  0  0  0  0  0  0  0  0  0  0
   -6.1920    5.6705   15.9304 O   0  0  0  0  0  0  0  0  0  0  0  0
   -4.4939    3.9244   15.7372 N   0  0  0  0  0  0  0  0  0  0  0  0
   -3.9718    3.3389   15.0852 H   0  0  0  0  0  0  0  0  0  0  0  0
   -5.0307    3.3323   16.3710 H   0  0  0  0  0  0  0  0  0  0  0  0
   -4.4449    9.4755   10.4260 N   0  0  0  0  0  0  0  0  0  0  0  0
   -4.6784    9.1672    9.2772 C   0  0  0  0  0  0  0  0  0  0  0  0
   -4.4446   10.7221   10.8994 C   0  0  0  0  0  0  0  0  0  0  0  0
  1  2  2  0  0  0
  1 10  1  0  0  0
  1 11  1  0  0  0
  2  3  1  0  0  0
  3  4  2  0  0  0
  4  5  1  0  0  0
  5  6  2  0  0  0
  5 10  1  0  0  0
  6  7  1  0  0  0
  6 17  1  0  0  0
  7  8  2  0  0  0
  8  9  1  0  0  0
  9 10  2  0  0  0
 17 18  1  0  0  0
 17 19  1  0  0  0
 11 12  2  0  0  0
 11 13  2  0  0  0
 11 14  1  0  0  0
 14 15  1  0  0  0
 14 16  1  0  0  0
M  END
> <minimizedAffinity>
-5.50880

$$$$
