4ASD_BAX_A_1500
  RCSB PDB12061711433D
Coordinates from PDB:4ASD:A:1500 Model:1 without hydrogens
 32 34  0  0  0  0            999 V2000
  -28.0550   -1.7890   -7.5940   C 0  0  0  0  0  0  0  0  0  0  0  0
  -28.2850   -2.8510   -8.4880   C 0  0  0  0  0  0  0  0  0  0  0  0
  -28.9910   -3.9770   -8.0560   C 0  0  0  0  0  0  0  0  0  0  0  0
  -29.4670   -4.0490   -6.7420   C 0  0  0  0  0  0  0  0  0  0  0  0
  -26.7470   -2.0750  -10.2510   C 0  0  0  0  0  0  0  0  0  0  0  0
  -25.3410   -1.7590  -12.2560   C 0  0  0  0  0  0  0  0  0  0  0  0
  -25.4650   -1.3400  -13.5760   C 0  0  0  0  0  0  0  0  0  0  0  0
  -24.3430   -0.8720  -14.2610   C 0  0  0  0  0  0  0  0  0  0  0  0
  -23.1120   -0.8220  -13.6040   C 0  0  0  0  0  0  0  0  0  0  0  0
  -22.9590   -1.2340  -12.2870   C 0  0  0  0  0  0  0  0  0  0  0  0
  -24.0840   -1.7010  -11.6170   C 0  0  0  0  0  0  0  0  0  0  0  0
  -22.0130   -0.3720  -14.2990   O 0  0  0  0  0  0  0  0  0  0  0  0
  -22.5430    2.0480  -13.9900   C 0  0  0  0  0  0  0  0  0  0  0  0
  -21.9920    3.3280  -14.1160   C 0  0  0  0  0  0  0  0  0  0  0  0
  -19.9370    2.4950  -14.8610   C 0  0  0  0  0  0  0  0  0  0  0  0
  -20.3980    1.1840  -14.7780   C 0  0  0  0  0  0  0  0  0  0  0  0
  -18.0330    3.9880  -15.4040   N 0  0  0  0  0  0  0  0  0  0  0  0
  -16.6770    4.2420  -15.8730   C 0  0  0  0  0  0  0  0  0  0  0  0
  -29.2370   -2.9750   -5.8670   C 0  0  0  0  0  0  0  0  0  0  0  0
  -28.5180   -1.8380   -6.2740   C 0  0  0  0  0  0  0  0  0  0  0  0
  -28.2400   -0.6760   -5.3510   C 0  0  0  0  0  0  0  0  0  0  0  0
  -27.4630   -1.0490   -4.3100   F 0  0  0  0  0  0  0  0  0  0  0  0
  -29.3580   -0.1020   -4.8300   F 0  0  0  0  0  0  0  0  0  0  0  0
  -27.5590    0.3410   -5.9330   F 0  0  0  0  0  0  0  0  0  0  0  0
  -29.8410   -3.1030   -4.2550  Cl 0  0  0  0  0  0  0  0  0  0  0  0
  -27.8280   -2.8300   -9.8150   N 0  0  0  0  0  0  0  0  0  0  0  0
  -26.5060   -2.2230  -11.6110   N 0  0  0  0  0  0  0  0  0  0  0  0
  -26.0690   -1.3750   -9.5210   O 0  0  0  0  0  0  0  0  0  0  0  0
  -21.7060    0.9720  -14.3350   C 0  0  0  0  0  0  0  0  0  0  0  0
  -20.7260    3.5610  -14.5500   N 0  0  0  0  0  0  0  0  0  0  0  0
  -18.5340    2.7020  -15.3410   C 0  0  0  0  0  0  0  0  0  0  0  0
  -17.8770    1.7200  -15.6900   O 0  0  0  0  0  0  0  0  0  0  0  0
  1  2  2  0  0  0  0
  1 20  1  0  0  0  0
  2  3  1  0  0  0  0
  2 26  1  0  0  0  0
  3  4  2  0  0  0  0
  4 19  1  0  0  0  0
  5 26  1  0  0  0  0
  5 27  1  0  0  0  0
  5 28  2  0  0  0  0
  6  7  2  0  0  0  0
  6 11  1  0  0  0  0
  6 27  1  0  0  0  0
  7  8  1  0  0  0  0
  8  9  2  0  0  0  0
  9 10  1  0  0  0  0
  9 12  1  0  0  0  0
 10 11  2  0  0  0  0
 12 29  1  0  0  0  0
 13 14  2  0  0  0  0
 13 29  1  0  0  0  0
 14 30  1  0  0  0  0
 15 16  1  0  0  0  0
 15 30  2  0  0  0  0
 15 31  1  0  0  0  0
 16 29  2  0  0  0  0
 17 18  1  0  0  0  0
 17 31  1  0  0  0  0
 19 20  2  0  0  0  0
 19 25  1  0  0  0  0
 20 21  1  0  0  0  0
 21 22  1  0  0  0  0
 21 23  1  0  0  0  0
 21 24  1  0  0  0  0
 31 32  2  0  0  0  0
A    1
C1
A    2
C2
A    3
C3
A    4
C4
A    5
C13
A    6
C16
A    7
C17
A    8
C18
A    9
C19
A   10
C20
A   11
C21
A   12
O22
A   13
C24
A   14
C25
A   15
C27
A   16
C28
A   17
N30
A   18
C31
A   19
C5
A   20
C6
A   21
C7
A   22
F8
A   23
F9
A   24
F10
A   25
CL11
A   26
N12
A   27
N14
A   28
O15
A   29
C23
A   30
N26
A   31
C29
A   32
O32
M  END
>  <InstanceId>
4ASD_BAX_A_1500

>  <ChemCompId>
BAX

>  <PdbId>
4ASD

>  <ChainId>
A

>  <ResidueNumber>
1500

>  <InsertionCode>


>  <Model>
1

>  <AltIds>


>  <MissingHeavyAtoms>
0

>  <ObservedFormula>
C21 N4 O3 F3 Cl

>  <Name>
4-{4-[({[4-CHLORO-3-(TRIFLUOROMETHYL)PHENYL]AMINO}CARBONYL)AMINO]PHENOXY}-N-METHYLPYRIDINE-2-CARBOXAMIDE

>  <SystematicName>
4-[4-[[4-chloro-3-(trifluoromethyl)phenyl]carbamoylamino]phenoxy]-N-methyl-pyridine-2-carboxamide

>  <Synonyms>
Sorafenib

>  <Type>
NON-POLYMER

>  <Formula>
C21 H16 Cl F3 N4 O3

>  <MolecularWeight>
464.825

>  <ModifiedDate>
2012-09-20

>  <Parent>


>  <OneLetterCode>


>  <SubcomponentList>


>  <AmbiguousFlag>
N

>  <InChI>
InChI=1S/C21H16ClF3N4O3/c1-26-19(30)18-11-15(8-9-27-18)32-14-5-2-12(3-6-14)28-20(31)29-13-4-7-17(22)16(10-13)21(23,24)25/h2-11H,1H3,(H,26,30)(H2,28,29,31)

>  <InChIKey>
MLDQJTXFUGDVEO-UHFFFAOYSA-N

>  <SMILES>
CNC(=O)c1cc(ccn1)Oc2ccc(cc2)NC(=O)Nc3ccc(c(c3)C(F)(F)F)Cl

$$$$
