5FH7_5XL_A_803


 20 22  0  0  0  0  0  0  0  0999 V2000
   13.1036    7.5152   29.5148 C   0  0  0  0  0  0  0  0  0  0  0  0
   13.0889    6.6700   28.2614 C   0  0  0  0  0  0  0  0  0  0  0  0
   11.6095    4.7009   27.6410 C   0  0  0  0  0  0  0  0  0  0  0  0
   10.6705    3.7614   28.1310 C   0  0  0  0  0  0  0  0  0  0  0  0
   12.0582    4.6796   26.3200 C   0  0  0  0  0  0  0  0  0  0  0  0
   11.5668    3.7443   25.4461 C   0  0  0  0  0  0  0  0  0  0  0  0
   10.6285    2.8302   25.8642 C   0  0  0  0  0  0  0  0  0  0  0  0
   10.1685    2.8629   27.1718 C   0  0  0  0  0  0  0  0  0  0  0  0
   10.3063    3.7950   29.5771 C   0  0  0  0  0  0  0  0  0  0  0  0
   11.6850    5.6812   29.8629 C   0  0  0  0  0  0  0  0  0  0  0  0
   12.0849    5.6357   28.5501 N   0  0  0  0  0  0  0  0  0  0  0  0
   10.8300    4.8179   30.3596 N   0  0  0  0  0  0  0  0  0  0  0  0
   12.3065    6.7568   30.5318 C   0  0  0  0  0  0  0  0  0  0  0  0
    8.8670    1.7750   27.5293 Cl  0  0  0  0  0  0  0  0  0  0  0  0
    9.6556    2.8719   30.1197 O   0  0  0  0  0  0  0  0  0  0  0  0
   10.5551    4.8960   31.3017 H   0  0  0  0  0  0  0  0  0  0  0  0
   12.1569    6.9976   31.8530 C   0  0  0  0  0  0  0  0  0  0  0  0
   11.5362    7.9613   32.5267 N   0  0  0  0  0  0  0  0  0  0  0  0
   11.9423    8.4392   33.8753 C   0  0  0  0  0  0  0  0  0  0  0  0
   10.4201    8.6905   31.9731 C   0  0  0  0  0  0  0  0  0  0  0  0
  6  7  2  0  0  0
  6  5  1  0  0  0
  7  8  1  0  0  0
  5  3  2  0  0  0
  8 14  1  0  0  0
  8  4  2  0  0  0
  3  4  1  0  0  0
  3 11  1  0  0  0
  4  9  1  0  0  0
  2 11  1  0  0  0
  2  1  2  0  0  0
 11 10  1  0  0  0
  9 15  2  0  0  0
  9 12  1  0  0  0
  1 13  1  0  0  0
 10 12  1  0  0  0
 10 13  2  0  0  0
 13 17  1  0  0  0
 17 18  1  0  0  0
 19 18  1  0  0  0
 18 20  1  0  0  0
 12 16  1  0  0  0
M  END
> <minimizedAffinity>
-8.04391

$$$$
5FH7_5XL_A_803


 20 22  0  0  0  0  0  0  0  0999 V2000
   12.2886    6.4406   31.3012 C   0  0  0  0  0  0  0  0  0  0  0  0
   11.1924    5.4622   30.9452 C   0  0  0  0  0  0  0  0  0  0  0  0
   10.7839    4.1873   28.7868 C   0  0  0  0  0  0  0  0  0  0  0  0
   11.1494    4.0758   27.4236 C   0  0  0  0  0  0  0  0  0  0  0  0
    9.7926    3.3869   29.3557 C   0  0  0  0  0  0  0  0  0  0  0  0
    9.1594    2.4385   28.5945 C   0  0  0  0  0  0  0  0  0  0  0  0
    9.5011    2.2680   27.2735 C   0  0  0  0  0  0  0  0  0  0  0  0
   10.4991    3.0504   26.7129 C   0  0  0  0  0  0  0  0  0  0  0  0
   12.1560    5.0263   26.8683 C   0  0  0  0  0  0  0  0  0  0  0  0
   12.4134    5.9761   29.0065 C   0  0  0  0  0  0  0  0  0  0  0  0
   11.4456    5.1547   29.5301 N   0  0  0  0  0  0  0  0  0  0  0  0
   12.7681    5.9157   27.7441 N   0  0  0  0  0  0  0  0  0  0  0  0
   12.9307    6.8289   30.0044 C   0  0  0  0  0  0  0  0  0  0  0  0
   10.9560    2.6259   25.0954 Cl  0  0  0  0  0  0  0  0  0  0  0  0
   12.3667    5.1261   25.6372 O   0  0  0  0  0  0  0  0  0  0  0  0
   13.4793    6.5100   27.4121 H   0  0  0  0  0  0  0  0  0  0  0  0
   13.8429    7.7948   29.7581 C   0  0  0  0  0  0  0  0  0  0  0  0
   14.1309    8.9376   30.3736 N   0  0  0  0  0  0  0  0  0  0  0  0
   13.1196    9.8407   30.9849 C   0  0  0  0  0  0  0  0  0  0  0  0
   15.4892    9.3888   30.5615 C   0  0  0  0  0  0  0  0  0  0  0  0
  6  7  2  0  0  0
  6  5  1  0  0  0
  7  8  1  0  0  0
  5  3  2  0  0  0
  8 14  1  0  0  0
  8  4  2  0  0  0
  3  4  1  0  0  0
  3 11  1  0  0  0
  4  9  1  0  0  0
  2 11  1  0  0  0
  2  1  2  0  0  0
 11 10  1  0  0  0
  9 15  2  0  0  0
  9 12  1  0  0  0
  1 13  1  0  0  0
 10 12  1  0  0  0
 10 13  2  0  0  0
 13 17  1  0  0  0
 17 18  1  0  0  0
 19 18  1  0  0  0
 18 20  1  0  0  0
 12 16  1  0  0  0
M  END
> <minimizedAffinity>
-6.53093

$$$$
5FH7_5XL_A_803


 20 22  0  0  0  0  0  0  0  0999 V2000
   13.8037    9.3841   30.7899 C   0  0  0  0  0  0  0  0  0  0  0  0
   13.8176    8.5347   29.5393 C   0  0  0  0  0  0  0  0  0  0  0  0
   12.5079    6.4307   28.9837 C   0  0  0  0  0  0  0  0  0  0  0  0
   11.6837    5.4088   29.5137 C   0  0  0  0  0  0  0  0  0  0  0  0
   12.9016    6.4451   27.6452 C   0  0  0  0  0  0  0  0  0  0  0  0
   12.4657    5.4627   26.7938 C   0  0  0  0  0  0  0  0  0  0  0  0
   11.6367    4.4658   27.2518 C   0  0  0  0  0  0  0  0  0  0  0  0
   11.2302    4.4616   28.5775 C   0  0  0  0  0  0  0  0  0  0  0  0
   11.3781    5.4153   30.9737 C   0  0  0  0  0  0  0  0  0  0  0  0
   12.5817    7.4254   31.1992 C   0  0  0  0  0  0  0  0  0  0  0  0
   12.9294    7.4112   29.8709 N   0  0  0  0  0  0  0  0  0  0  0  0
   11.8340    6.4875   31.7323 N   0  0  0  0  0  0  0  0  0  0  0  0
   13.1252    8.5588   31.8402 C   0  0  0  0  0  0  0  0  0  0  0  0
   10.0539    3.2570   28.9904 Cl  0  0  0  0  0  0  0  0  0  0  0  0
   10.8411    4.4375   31.5442 O   0  0  0  0  0  0  0  0  0  0  0  0
   11.5921    6.5441   32.6849 H   0  0  0  0  0  0  0  0  0  0  0  0
   13.0081    8.7913   33.1661 C   0  0  0  0  0  0  0  0  0  0  0  0
   11.9835    8.6986   34.0083 N   0  0  0  0  0  0  0  0  0  0  0  0
   11.9979    7.9027   35.2646 C   0  0  0  0  0  0  0  0  0  0  0  0
   10.7535    9.4268   33.8061 C   0  0  0  0  0  0  0  0  0  0  0  0
  6  7  2  0  0  0
  6  5  1  0  0  0
  7  8  1  0  0  0
  5  3  2  0  0  0
  8 14  1  0  0  0
  8  4  2  0  0  0
  3  4  1  0  0  0
  3 11  1  0  0  0
  4  9  1  0  0  0
  2 11  1  0  0  0
  2  1  2  0  0  0
 11 10  1  0  0  0
  9 15  2  0  0  0
  9 12  1  0  0  0
  1 13  1  0  0  0
 10 12  1  0  0  0
 10 13  2  0  0  0
 13 17  1  0  0  0
 17 18  1  0  0  0
 19 18  1  0  0  0
 18 20  1  0  0  0
 12 16  1  0  0  0
M  END
> <minimizedAffinity>
-6.07326

$$$$
5FH7_5XL_A_803


 20 22  0  0  0  0  0  0  0  0999 V2000
   12.3568    7.2151   32.3870 C   0  0  0  0  0  0  0  0  0  0  0  0
   11.4613    6.1502   31.7956 C   0  0  0  0  0  0  0  0  0  0  0  0
   11.4235    5.1695   29.4530 C   0  0  0  0  0  0  0  0  0  0  0  0
   11.9019    5.3206   28.1291 C   0  0  0  0  0  0  0  0  0  0  0  0
   10.5344    4.1545   29.8080 C   0  0  0  0  0  0  0  0  0  0  0  0
   10.1197    3.2486   28.8660 C   0  0  0  0  0  0  0  0  0  0  0  0
   10.5810    3.3322   27.5733 C   0  0  0  0  0  0  0  0  0  0  0  0
   11.4790    4.3295   27.2246 C   0  0  0  0  0  0  0  0  0  0  0  0
   12.7809    6.4826   27.8096 C   0  0  0  0  0  0  0  0  0  0  0  0
   12.7237    7.1262   30.0730 C   0  0  0  0  0  0  0  0  0  0  0  0
   11.8644    6.1009   30.3827 N   0  0  0  0  0  0  0  0  0  0  0  0
   13.1758    7.3104   28.8545 N   0  0  0  0  0  0  0  0  0  0  0  0
   13.0221    7.8856   31.2240 C   0  0  0  0  0  0  0  0  0  0  0  0
   12.1163    4.2265   25.6157 Cl  0  0  0  0  0  0  0  0  0  0  0  0
   13.0631    6.7974   26.6302 O   0  0  0  0  0  0  0  0  0  0  0  0
   13.8048    8.0468   28.6776 H   0  0  0  0  0  0  0  0  0  0  0  0
   13.7830    9.0021   31.2022 C   0  0  0  0  0  0  0  0  0  0  0  0
   14.8758    9.3323   30.5206 N   0  0  0  0  0  0  0  0  0  0  0  0
   16.2376    8.8100   30.8120 C   0  0  0  0  0  0  0  0  0  0  0  0
   14.8308   10.2033   29.3703 C   0  0  0  0  0  0  0  0  0  0  0  0
  6  7  2  0  0  0
  6  5  1  0  0  0
  7  8  1  0  0  0
  5  3  2  0  0  0
  8 14  1  0  0  0
  8  4  2  0  0  0
  3  4  1  0  0  0
  3 11  1  0  0  0
  4  9  1  0  0  0
  2 11  1  0  0  0
  2  1  2  0  0  0
 11 10  1  0  0  0
  9 15  2  0  0  0
  9 12  1  0  0  0
  1 13  1  0  0  0
 10 12  1  0  0  0
 10 13  2  0  0  0
 13 17  1  0  0  0
 17 18  1  0  0  0
 19 18  1  0  0  0
 18 20  1  0  0  0
 12 16  1  0  0  0
M  END
> <minimizedAffinity>
-6.04208

$$$$
5FH7_5XL_A_803


 20 22  0  0  0  0  0  0  0  0999 V2000
   10.8789    4.3055   29.7271 C   0  0  0  0  0  0  0  0  0  0  0  0
   11.2093    4.9181   31.0692 C   0  0  0  0  0  0  0  0  0  0  0  0
   12.3642    7.1122   31.6191 C   0  0  0  0  0  0  0  0  0  0  0  0
   13.1185    8.1861   31.0877 C   0  0  0  0  0  0  0  0  0  0  0  0
   12.0576    7.0233   32.9774 C   0  0  0  0  0  0  0  0  0  0  0  0
   12.4673    8.0100   33.8367 C   0  0  0  0  0  0  0  0  0  0  0  0
   13.1745    9.0908   33.3649 C   0  0  0  0  0  0  0  0  0  0  0  0
   13.4632    9.1889   32.0123 C   0  0  0  0  0  0  0  0  0  0  0  0
   13.4798    8.1651   29.6406 C   0  0  0  0  0  0  0  0  0  0  0  0
   12.2581    6.1699   29.3821 C   0  0  0  0  0  0  0  0  0  0  0  0
   11.9626    6.1319   30.7225 N   0  0  0  0  0  0  0  0  0  0  0  0
   12.9691    7.1388   28.8541 N   0  0  0  0  0  0  0  0  0  0  0  0
   11.6881    5.0627   28.7189 C   0  0  0  0  0  0  0  0  0  0  0  0
   14.2065   10.6746   31.5167 Cl  0  0  0  0  0  0  0  0  0  0  0  0
   14.3162    8.9607   29.1533 O   0  0  0  0  0  0  0  0  0  0  0  0
   13.1436    7.1386   27.8851 H   0  0  0  0  0  0  0  0  0  0  0  0
   11.8794    4.8020   27.4068 C   0  0  0  0  0  0  0  0  0  0  0  0
   11.3211    3.9302   26.5726 N   0  0  0  0  0  0  0  0  0  0  0  0
   10.1226    3.1098   26.8930 C   0  0  0  0  0  0  0  0  0  0  0  0
   11.8027    3.7381   25.2254 C   0  0  0  0  0  0  0  0  0  0  0  0
  6  7  2  0  0  0
  6  5  1  0  0  0
  7  8  1  0  0  0
  5  3  2  0  0  0
  8 14  1  0  0  0
  8  4  2  0  0  0
  3  4  1  0  0  0
  3 11  1  0  0  0
  4  9  1  0  0  0
  2 11  1  0  0  0
  2  1  2  0  0  0
 11 10  1  0  0  0
  9 15  2  0  0  0
  9 12  1  0  0  0
  1 13  1  0  0  0
 10 12  1  0  0  0
 10 13  2  0  0  0
 13 17  1  0  0  0
 17 18  1  0  0  0
 19 18  1  0  0  0
 18 20  1  0  0  0
 12 16  1  0  0  0
M  END
> <minimizedAffinity>
-5.82223

$$$$
5FH7_5XL_A_803


 20 22  0  0  0  0  0  0  0  0999 V2000
   14.1369    8.9353   29.0032 C   0  0  0  0  0  0  0  0  0  0  0  0
   13.7691    7.8135   28.0587 C   0  0  0  0  0  0  0  0  0  0  0  0
   12.2138    5.8357   28.4050 C   0  0  0  0  0  0  0  0  0  0  0  0
   11.4820    5.0950   29.3644 C   0  0  0  0  0  0  0  0  0  0  0  0
   12.2514    5.4705   27.0588 C   0  0  0  0  0  0  0  0  0  0  0  0
   11.5428    4.3793   26.6265 C   0  0  0  0  0  0  0  0  0  0  0  0
   10.7898    3.6458   27.5130 C   0  0  0  0  0  0  0  0  0  0  0  0
   10.7373    4.0193   28.8472 C   0  0  0  0  0  0  0  0  0  0  0  0
   11.5621    5.4978   30.7984 C   0  0  0  0  0  0  0  0  0  0  0  0
   12.9238    7.3197   30.1929 C   0  0  0  0  0  0  0  0  0  0  0  0
   12.9176    6.9358   28.8746 N   0  0  0  0  0  0  0  0  0  0  0  0
   12.2726    6.6500   31.1152 N   0  0  0  0  0  0  0  0  0  0  0  0
   13.6930    8.4902   30.3632 C   0  0  0  0  0  0  0  0  0  0  0  0
    9.6232    3.1225   29.8269 Cl  0  0  0  0  0  0  0  0  0  0  0  0
   11.1208    4.7704   31.7182 O   0  0  0  0  0  0  0  0  0  0  0  0
   12.2876    6.9689   32.0465 H   0  0  0  0  0  0  0  0  0  0  0  0
   13.9366    9.0518   31.5678 C   0  0  0  0  0  0  0  0  0  0  0  0
   13.1573    9.6869   32.4380 N   0  0  0  0  0  0  0  0  0  0  0  0
   11.8061   10.2218   32.1213 C   0  0  0  0  0  0  0  0  0  0  0  0
   13.5352    9.8680   33.8194 C   0  0  0  0  0  0  0  0  0  0  0  0
  6  7  2  0  0  0
  6  5  1  0  0  0
  7  8  1  0  0  0
  5  3  2  0  0  0
  8 14  1  0  0  0
  8  4  2  0  0  0
  3  4  1  0  0  0
  3 11  1  0  0  0
  4  9  1  0  0  0
  2 11  1  0  0  0
  2  1  2  0  0  0
 11 10  1  0  0  0
  9 15  2  0  0  0
  9 12  1  0  0  0
  1 13  1  0  0  0
 10 12  1  0  0  0
 10 13  2  0  0  0
 13 17  1  0  0  0
 17 18  1  0  0  0
 19 18  1  0  0  0
 18 20  1  0  0  0
 12 16  1  0  0  0
M  END
> <minimizedAffinity>
-5.80346

$$$$
5FH7_5XL_A_803


 20 22  0  0  0  0  0  0  0  0999 V2000
   13.0126   10.0381   33.9394 C   0  0  0  0  0  0  0  0  0  0  0  0
   13.5818    9.8093   32.5576 C   0  0  0  0  0  0  0  0  0  0  0  0
   13.0164    8.0292   30.8365 C   0  0  0  0  0  0  0  0  0  0  0  0
   12.3385    6.8053   30.6197 C   0  0  0  0  0  0  0  0  0  0  0  0
   13.7613    8.6510   29.8338 C   0  0  0  0  0  0  0  0  0  0  0  0
   13.8296    8.0893   28.5849 C   0  0  0  0  0  0  0  0  0  0  0  0
   13.1620    6.9181   28.3139 C   0  0  0  0  0  0  0  0  0  0  0  0
   12.4065    6.3097   29.3047 C   0  0  0  0  0  0  0  0  0  0  0  0
   11.6359    6.1589   31.7657 C   0  0  0  0  0  0  0  0  0  0  0  0
   12.2190    7.9853   33.1311 C   0  0  0  0  0  0  0  0  0  0  0  0
   12.9249    8.5726   32.1103 N   0  0  0  0  0  0  0  0  0  0  0  0
   11.5917    6.8428   32.9753 N   0  0  0  0  0  0  0  0  0  0  0  0
   12.2754    8.7829   34.2936 C   0  0  0  0  0  0  0  0  0  0  0  0
   11.4778    4.9378   28.7944 Cl  0  0  0  0  0  0  0  0  0  0  0  0
   11.2031    4.9847   31.7025 O   0  0  0  0  0  0  0  0  0  0  0  0
   11.0815    6.4641   33.7273 H   0  0  0  0  0  0  0  0  0  0  0  0
   11.7333    8.4149   35.4755 C   0  0  0  0  0  0  0  0  0  0  0  0
   12.0472    7.4657   36.3520 N   0  0  0  0  0  0  0  0  0  0  0  0
   13.4240    7.2039   36.8500 C   0  0  0  0  0  0  0  0  0  0  0  0
   11.0480    6.6200   36.9604 C   0  0  0  0  0  0  0  0  0  0  0  0
  6  7  2  0  0  0
  6  5  1  0  0  0
  7  8  1  0  0  0
  5  3  2  0  0  0
  8 14  1  0  0  0
  8  4  2  0  0  0
  3  4  1  0  0  0
  3 11  1  0  0  0
  4  9  1  0  0  0
  2 11  1  0  0  0
  2  1  2  0  0  0
 11 10  1  0  0  0
  9 15  2  0  0  0
  9 12  1  0  0  0
  1 13  1  0  0  0
 10 12  1  0  0  0
 10 13  2  0  0  0
 13 17  1  0  0  0
 17 18  1  0  0  0
 19 18  1  0  0  0
 18 20  1  0  0  0
 12 16  1  0  0  0
M  END
> <minimizedAffinity>
-5.41943

$$$$
5FH7_5XL_A_803


 20 22  0  0  0  0  0  0  0  0999 V2000
   12.3892    5.0646   26.8511 C   0  0  0  0  0  0  0  0  0  0  0  0
   12.9295    6.4062   27.2914 C   0  0  0  0  0  0  0  0  0  0  0  0
   13.0612    7.4275   29.6131 C   0  0  0  0  0  0  0  0  0  0  0  0
   12.6276    7.3061   30.9554 C   0  0  0  0  0  0  0  0  0  0  0  0
   13.8608    8.4883   29.1862 C   0  0  0  0  0  0  0  0  0  0  0  0
   14.2724    9.4388   30.0846 C   0  0  0  0  0  0  0  0  0  0  0  0
   13.9056    9.3483   31.4067 C   0  0  0  0  0  0  0  0  0  0  0  0
   13.1266    8.2842   31.8350 C   0  0  0  0  0  0  0  0  0  0  0  0
   11.7031    6.1921   31.3150 C   0  0  0  0  0  0  0  0  0  0  0  0
   11.8272    5.3978   29.1029 C   0  0  0  0  0  0  0  0  0  0  0  0
   12.6295    6.4478   28.7300 N   0  0  0  0  0  0  0  0  0  0  0  0
   11.3902    5.2593   30.3328 N   0  0  0  0  0  0  0  0  0  0  0  0
   11.5847    4.5466   28.0040 C   0  0  0  0  0  0  0  0  0  0  0  0
   12.8750    8.1890   33.5476 Cl  0  0  0  0  0  0  0  0  0  0  0  0
   11.1146    6.1481   32.4203 O   0  0  0  0  0  0  0  0  0  0  0  0
   10.8317    4.4821   30.5636 H   0  0  0  0  0  0  0  0  0  0  0  0
   10.7654    3.4736   28.0606 C   0  0  0  0  0  0  0  0  0  0  0  0
   10.0811    2.8147   27.1303 N   0  0  0  0  0  0  0  0  0  0  0  0
   10.4056    2.8314   25.6789 C   0  0  0  0  0  0  0  0  0  0  0  0
    8.9693    1.9544   27.4583 C   0  0  0  0  0  0  0  0  0  0  0  0
  6  7  2  0  0  0
  6  5  1  0  0  0
  7  8  1  0  0  0
  5  3  2  0  0  0
  8 14  1  0  0  0
  8  4  2  0  0  0
  3  4  1  0  0  0
  3 11  1  0  0  0
  4  9  1  0  0  0
  2 11  1  0  0  0
  2  1  2  0  0  0
 11 10  1  0  0  0
  9 15  2  0  0  0
  9 12  1  0  0  0
  1 13  1  0  0  0
 10 12  1  0  0  0
 10 13  2  0  0  0
 13 17  1  0  0  0
 17 18  1  0  0  0
 19 18  1  0  0  0
 18 20  1  0  0  0
 12 16  1  0  0  0
M  END
> <minimizedAffinity>
-5.40664

$$$$
5FH7_5XL_A_803


 20 22  0  0  0  0  0  0  0  0999 V2000
   12.3749    7.7566   31.6525 C   0  0  0  0  0  0  0  0  0  0  0  0
   11.3176    8.4668   30.8380 C   0  0  0  0  0  0  0  0  0  0  0  0
    9.5267   10.1114   31.5718 C   0  0  0  0  0  0  0  0  0  0  0  0
    8.8605   10.6726   32.6879 C   0  0  0  0  0  0  0  0  0  0  0  0
    9.1805   10.4396   30.2606 C   0  0  0  0  0  0  0  0  0  0  0  0
    8.1848   11.3522   30.0245 C   0  0  0  0  0  0  0  0  0  0  0  0
    7.5293   11.9505   31.0747 C   0  0  0  0  0  0  0  0  0  0  0  0
    7.8857   11.6386   32.3779 C   0  0  0  0  0  0  0  0  0  0  0  0
    9.2292   10.2057   34.0557 C   0  0  0  0  0  0  0  0  0  0  0  0
   10.8914    8.8277   33.1186 C   0  0  0  0  0  0  0  0  0  0  0  0
   10.5312    9.1936   31.8452 N   0  0  0  0  0  0  0  0  0  0  0  0
   10.2869    9.3119   34.1785 N   0  0  0  0  0  0  0  0  0  0  0  0
   11.9629    7.9103   33.0848 C   0  0  0  0  0  0  0  0  0  0  0  0
    7.1080   12.5816   33.6072 Cl  0  0  0  0  0  0  0  0  0  0  0  0
    8.5432   10.4948   35.0636 O   0  0  0  0  0  0  0  0  0  0  0  0
   10.5876    9.0376   35.0749 H   0  0  0  0  0  0  0  0  0  0  0  0
   12.4741    7.3222   34.1888 C   0  0  0  0  0  0  0  0  0  0  0  0
   12.9756    7.8125   35.3183 N   0  0  0  0  0  0  0  0  0  0  0  0
   12.5835    7.3574   36.6789 C   0  0  0  0  0  0  0  0  0  0  0  0
   14.0148    8.8145   35.3273 C   0  0  0  0  0  0  0  0  0  0  0  0
  6  7  2  0  0  0
  6  5  1  0  0  0
  7  8  1  0  0  0
  5  3  2  0  0  0
  8 14  1  0  0  0
  8  4  2  0  0  0
  3  4  1  0  0  0
  3 11  1  0  0  0
  4  9  1  0  0  0
  2 11  1  0  0  0
  2  1  2  0  0  0
 11 10  1  0  0  0
  9 15  2  0  0  0
  9 12  1  0  0  0
  1 13  1  0  0  0
 10 12  1  0  0  0
 10 13  2  0  0  0
 13 17  1  0  0  0
 17 18  1  0  0  0
 19 18  1  0  0  0
 18 20  1  0  0  0
 12 16  1  0  0  0
M  END
> <minimizedAffinity>
-5.05261

$$$$
