4OKS_2T9_A_701


 38 41  0  0  0  0  0  0  0  0999 V2000
  -17.9556  -33.9617   31.0189 N   0  0  0  0  0  0  0  0  0  0  0  0
  -17.4678  -33.6346   29.7828 C   0  0  0  0  0  0  0  0  0  0  0  0
  -16.2445  -34.3121   29.6082 C   0  0  0  0  0  0  0  0  0  0  0  0
  -16.0480  -35.0868   30.8327 C   0  0  0  0  0  0  0  0  0  0  0  0
  -17.1153  -34.8450   31.6299 C   0  0  0  0  0  0  0  0  0  0  0  0
  -17.9500  -32.7798   28.8027 C   0  0  0  0  0  0  0  0  0  0  0  0
  -17.2184  -32.6062   27.6287 C   0  0  0  0  0  0  0  0  0  0  0  0
  -15.9983  -33.2851   27.4660 C   0  0  0  0  0  0  0  0  0  0  0  0
  -15.5050  -34.1277   28.4371 C   0  0  0  0  0  0  0  0  0  0  0  0
  -17.7392  -31.6838   26.5752 C   0  0  0  0  0  0  0  0  0  0  0  0
  -18.6284  -32.1380   25.5921 C   0  0  0  0  0  0  0  0  0  0  0  0
  -19.1114  -31.2659   24.6104 C   0  0  0  0  0  0  0  0  0  0  0  0
  -20.0110  -31.7130   23.6284 N   0  0  0  0  0  0  0  0  0  0  0  0
  -18.6917  -29.9430   24.5994 C   0  0  0  0  0  0  0  0  0  0  0  0
  -17.7954  -29.4909   25.5649 C   0  0  0  0  0  0  0  0  0  0  0  0
  -17.3837  -28.1589   25.5565 N   0  0  0  0  0  0  0  0  0  0  0  0
  -17.3158  -30.3531   26.5455 C   0  0  0  0  0  0  0  0  0  0  0  0
  -20.3427  -31.0883   22.9437 H   0  0  0  0  0  0  0  0  0  0  0  0
  -20.3097  -32.6511   23.6250 H   0  0  0  0  0  0  0  0  0  0  0  0
  -16.7503  -27.8351   26.2371 H   0  0  0  0  0  0  0  0  0  0  0  0
  -17.7264  -27.5421   24.8700 H   0  0  0  0  0  0  0  0  0  0  0  0
  -19.2326  -33.4118   31.4916 C   0  0  0  0  0  0  0  0  0  0  0  0
  -18.5327  -31.8560   34.8467 C   0  0  0  0  0  0  0  0  0  0  0  0
  -19.3512  -32.5925   35.6891 C   0  0  0  0  0  0  0  0  0  0  0  0
  -20.1407  -33.6040   35.1611 C   0  0  0  0  0  0  0  0  0  0  0  0
  -18.4998  -32.1170   33.4876 C   0  0  0  0  0  0  0  0  0  0  0  0
  -19.2929  -33.1183   32.9628 C   0  0  0  0  0  0  0  0  0  0  0  0
  -20.1106  -33.8697   33.7956 C   0  0  0  0  0  0  0  0  0  0  0  0
  -17.4976  -29.7656   34.6704 O   0  0  0  0  0  0  0  0  0  0  0  0
  -17.6833  -30.7631   35.3722 N   0  0  0  0  0  0  0  0  0  0  0  0
  -17.1891  -30.8509   36.4928 O   0  0  0  0  0  0  0  0  0  0  0  0
  -20.8783  -34.8667   33.2689 O   0  0  0  0  0  0  0  0  0  0  0  0
  -20.9148  -36.0916   34.0054 C   0  0  0  0  0  0  0  0  0  0  0  0
  -14.8582  -35.9837   31.1114 C   0  0  0  0  0  0  0  0  0  0  0  0
  -15.1510  -37.3758   30.5832 C   0  0  0  0  0  0  0  0  0  0  0  0
  -15.5254  -38.3448   31.4333 O   0  0  0  0  0  0  0  0  0  0  0  0
  -15.0283  -37.6426   29.4110 O   0  0  0  0  0  0  0  0  0  0  0  0
  -14.7677  -36.9780   28.8040 H   0  0  0  0  0  0  0  0  0  0  0  0
 31 30  2  0  0  0
 30 29  1  0  0  0
 30 23  1  0  0  0
 24 23  2  0  0  0
 24 25  1  0  0  0
 23 26  1  0  0  0
 25 28  2  0  0  0
 26 27  2  0  0  0
 28 27  1  0  0  0
 28 32  1  0  0  0
 33 32  1  0  0  0
 27 22  1  0  0  0
 22  1  1  0  0  0
  1  5  1  0  0  0
  1  2  1  0  0  0
  5  4  2  0  0  0
  2  6  2  0  0  0
  2  3  1  0  0  0
 16 15  1  0  0  0
  6  7  1  0  0  0
  4  3  1  0  0  0
  4 34  1  0  0  0
 17 15  2  0  0  0
 17 10  1  0  0  0
 15 14  1  0  0  0
  3  9  2  0  0  0
 34 35  1  0  0  0
  7 10  1  0  0  0
  7  8  2  0  0  0
 10 11  2  0  0  0
 36 35  2  0  0  0
 14 12  2  0  0  0
 35 37  1  0  0  0
  9  8  1  0  0  0
 11 12  1  0  0  0
 12 13  1  0  0  0
 37 38  1  0  0  0
 13 18  1  0  0  0
 13 19  1  0  0  0
 16 20  1  0  0  0
 16 21  1  0  0  0
M  CHG 1  29  -1
M  CHG 1  30   1
M  END
> <minimizedAffinity>
-8.42690

$$$$
4OKS_2T9_A_701


 38 41  0  0  0  0  0  0  0  0999 V2000
  -18.5116  -31.6494   31.3413 N   0  0  0  0  0  0  0  0  0  0  0  0
  -18.8887  -32.1590   32.5541 C   0  0  0  0  0  0  0  0  0  0  0  0
  -18.2384  -31.4127   33.5571 C   0  0  0  0  0  0  0  0  0  0  0  0
  -17.4553  -30.4022   32.8473 C   0  0  0  0  0  0  0  0  0  0  0  0
  -17.6747  -30.5884   31.5243 C   0  0  0  0  0  0  0  0  0  0  0  0
  -19.7073  -33.2285   32.8856 C   0  0  0  0  0  0  0  0  0  0  0  0
  -19.8958  -33.5526   34.2284 C   0  0  0  0  0  0  0  0  0  0  0  0
  -19.2404  -32.8030   35.2207 C   0  0  0  0  0  0  0  0  0  0  0  0
  -18.4170  -31.7462   34.9022 C   0  0  0  0  0  0  0  0  0  0  0  0
  -20.7768  -34.7060   34.5829 C   0  0  0  0  0  0  0  0  0  0  0  0
  -21.6576  -35.2582   33.6434 C   0  0  0  0  0  0  0  0  0  0  0  0
  -22.4778  -36.3391   33.9848 C   0  0  0  0  0  0  0  0  0  0  0  0
  -23.3555  -36.9033   33.0442 N   0  0  0  0  0  0  0  0  0  0  0  0
  -22.4315  -36.8575   35.2715 C   0  0  0  0  0  0  0  0  0  0  0  0
  -21.5691  -36.3016   36.2134 C   0  0  0  0  0  0  0  0  0  0  0  0
  -21.5183  -36.8315   37.5020 N   0  0  0  0  0  0  0  0  0  0  0  0
  -20.7487  -35.2297   35.8774 C   0  0  0  0  0  0  0  0  0  0  0  0
  -23.9268  -37.6637   33.2984 H   0  0  0  0  0  0  0  0  0  0  0  0
  -23.3992  -36.5384   32.1309 H   0  0  0  0  0  0  0  0  0  0  0  0
  -20.9102  -36.4416   38.1710 H   0  0  0  0  0  0  0  0  0  0  0  0
  -22.0905  -37.5955   37.7430 H   0  0  0  0  0  0  0  0  0  0  0  0
  -19.0337  -32.2191   30.0924 C   0  0  0  0  0  0  0  0  0  0  0  0
  -17.8366  -30.4494   26.9937 C   0  0  0  0  0  0  0  0  0  0  0  0
  -16.8189  -31.2820   26.5539 C   0  0  0  0  0  0  0  0  0  0  0  0
  -16.5169  -32.4294   27.2731 C   0  0  0  0  0  0  0  0  0  0  0  0
  -18.5484  -30.7495   28.1424 C   0  0  0  0  0  0  0  0  0  0  0  0
  -18.2403  -31.8875   28.8617 C   0  0  0  0  0  0  0  0  0  0  0  0
  -17.2299  -32.7349   28.4283 C   0  0  0  0  0  0  0  0  0  0  0  0
  -18.4897  -28.2051   26.9007 O   0  0  0  0  0  0  0  0  0  0  0  0
  -18.1812  -29.2118   26.2578 N   0  0  0  0  0  0  0  0  0  0  0  0
  -18.1437  -29.1935   25.0306 O   0  0  0  0  0  0  0  0  0  0  0  0
  -16.9444  -33.8644   29.1378 O   0  0  0  0  0  0  0  0  0  0  0  0
  -15.6927  -33.8765   29.8288 C   0  0  0  0  0  0  0  0  0  0  0  0
  -16.5797  -29.3578   33.5110 C   0  0  0  0  0  0  0  0  0  0  0  0
  -16.9686  -27.9840   32.9969 C   0  0  0  0  0  0  0  0  0  0  0  0
  -16.5367  -27.5775   31.7928 O   0  0  0  0  0  0  0  0  0  0  0  0
  -17.6403  -27.2306   33.6614 O   0  0  0  0  0  0  0  0  0  0  0  0
  -17.9499  -27.4986   34.5042 H   0  0  0  0  0  0  0  0  0  0  0  0
 31 30  2  0  0  0
 30 29  1  0  0  0
 30 23  1  0  0  0
 24 23  2  0  0  0
 24 25  1  0  0  0
 23 26  1  0  0  0
 25 28  2  0  0  0
 26 27  2  0  0  0
 28 27  1  0  0  0
 28 32  1  0  0  0
 33 32  1  0  0  0
 27 22  1  0  0  0
 22  1  1  0  0  0
  1  5  1  0  0  0
  1  2  1  0  0  0
  5  4  2  0  0  0
  2  6  2  0  0  0
  2  3  1  0  0  0
 16 15  1  0  0  0
  6  7  1  0  0  0
  4  3  1  0  0  0
  4 34  1  0  0  0
 17 15  2  0  0  0
 17 10  1  0  0  0
 15 14  1  0  0  0
  3  9  2  0  0  0
 34 35  1  0  0  0
  7 10  1  0  0  0
  7  8  2  0  0  0
 10 11  2  0  0  0
 36 35  2  0  0  0
 14 12  2  0  0  0
 35 37  1  0  0  0
  9  8  1  0  0  0
 11 12  1  0  0  0
 12 13  1  0  0  0
 37 38  1  0  0  0
 13 18  1  0  0  0
 13 19  1  0  0  0
 16 20  1  0  0  0
 16 21  1  0  0  0
M  CHG 1  29  -1
M  CHG 1  30   1
M  END
> <minimizedAffinity>
-8.41586

$$$$
4OKS_2T9_A_701


 38 41  0  0  0  0  0  0  0  0999 V2000
  -18.5201  -31.6870   31.3569 N   0  0  0  0  0  0  0  0  0  0  0  0
  -18.8876  -32.1971   32.5724 C   0  0  0  0  0  0  0  0  0  0  0  0
  -18.2279  -31.4525   33.5705 C   0  0  0  0  0  0  0  0  0  0  0  0
  -17.4496  -30.4423   32.8549 C   0  0  0  0  0  0  0  0  0  0  0  0
  -17.6804  -30.6271   31.5337 C   0  0  0  0  0  0  0  0  0  0  0  0
  -19.7046  -33.2659   32.9100 C   0  0  0  0  0  0  0  0  0  0  0  0
  -19.8822  -33.5909   34.2540 C   0  0  0  0  0  0  0  0  0  0  0  0
  -19.2175  -32.8429   35.2414 C   0  0  0  0  0  0  0  0  0  0  0  0
  -18.3956  -31.7868   34.9168 C   0  0  0  0  0  0  0  0  0  0  0  0
  -20.7616  -34.7435   34.6151 C   0  0  0  0  0  0  0  0  0  0  0  0
  -20.6919  -35.3364   35.8828 C   0  0  0  0  0  0  0  0  0  0  0  0
  -21.5205  -36.4146   36.2117 C   0  0  0  0  0  0  0  0  0  0  0  0
  -21.4623  -37.0066   37.4843 N   0  0  0  0  0  0  0  0  0  0  0  0
  -22.4072  -36.9133   35.2673 C   0  0  0  0  0  0  0  0  0  0  0  0
  -22.4686  -36.3374   34.0006 C   0  0  0  0  0  0  0  0  0  0  0  0
  -23.3675  -36.8347   33.0579 N   0  0  0  0  0  0  0  0  0  0  0  0
  -21.6498  -35.2625   33.6704 C   0  0  0  0  0  0  0  0  0  0  0  0
  -22.0514  -37.7648   37.7019 H   0  0  0  0  0  0  0  0  0  0  0  0
  -20.8324  -36.6633   38.1585 H   0  0  0  0  0  0  0  0  0  0  0  0
  -23.4142  -36.4307   32.1613 H   0  0  0  0  0  0  0  0  0  0  0  0
  -23.9554  -37.5899   33.2888 H   0  0  0  0  0  0  0  0  0  0  0  0
  -19.0534  -32.2550   30.1120 C   0  0  0  0  0  0  0  0  0  0  0  0
  -17.8555  -30.4469   27.0359 C   0  0  0  0  0  0  0  0  0  0  0  0
  -16.8769  -31.3025   26.5539 C   0  0  0  0  0  0  0  0  0  0  0  0
  -16.6017  -32.4784   27.2370 C   0  0  0  0  0  0  0  0  0  0  0  0
  -18.5548  -30.7522   28.1910 C   0  0  0  0  0  0  0  0  0  0  0  0
  -18.2732  -31.9189   28.8742 C   0  0  0  0  0  0  0  0  0  0  0  0
  -17.3022  -32.7894   28.3983 C   0  0  0  0  0  0  0  0  0  0  0  0
  -18.1176  -29.1493   25.1071 O   0  0  0  0  0  0  0  0  0  0  0  0
  -18.1704  -29.1789   26.3394 N   0  0  0  0  0  0  0  0  0  0  0  0
  -18.4912  -28.1844   26.9843 O   0  0  0  0  0  0  0  0  0  0  0  0
  -17.0430  -33.9465   29.0725 O   0  0  0  0  0  0  0  0  0  0  0  0
  -15.7760  -34.0237   29.7305 C   0  0  0  0  0  0  0  0  0  0  0  0
  -16.5671  -29.3996   33.5120 C   0  0  0  0  0  0  0  0  0  0  0  0
  -16.9932  -28.0209   33.0425 C   0  0  0  0  0  0  0  0  0  0  0  0
  -16.5820  -27.5686   31.8475 O   0  0  0  0  0  0  0  0  0  0  0  0
  -17.6766  -27.3039   33.7347 O   0  0  0  0  0  0  0  0  0  0  0  0
  -17.9721  -27.6041   34.5717 H   0  0  0  0  0  0  0  0  0  0  0  0
 31 30  2  0  0  0
 30 29  1  0  0  0
 30 23  1  0  0  0
 24 23  2  0  0  0
 24 25  1  0  0  0
 23 26  1  0  0  0
 25 28  2  0  0  0
 26 27  2  0  0  0
 28 27  1  0  0  0
 28 32  1  0  0  0
 33 32  1  0  0  0
 27 22  1  0  0  0
 22  1  1  0  0  0
  1  5  1  0  0  0
  1  2  1  0  0  0
  5  4  2  0  0  0
  2  6  2  0  0  0
  2  3  1  0  0  0
 16 15  1  0  0  0
  6  7  1  0  0  0
  4  3  1  0  0  0
  4 34  1  0  0  0
 17 15  2  0  0  0
 17 10  1  0  0  0
 15 14  1  0  0  0
  3  9  2  0  0  0
 34 35  1  0  0  0
  7 10  1  0  0  0
  7  8  2  0  0  0
 10 11  2  0  0  0
 36 35  2  0  0  0
 14 12  2  0  0  0
 35 37  1  0  0  0
  9  8  1  0  0  0
 11 12  1  0  0  0
 12 13  1  0  0  0
 37 38  1  0  0  0
 13 18  1  0  0  0
 13 19  1  0  0  0
 16 20  1  0  0  0
 16 21  1  0  0  0
M  CHG 1  29  -1
M  CHG 1  30   1
M  END
> <minimizedAffinity>
-8.35749

$$$$
4OKS_2T9_A_701


 38 41  0  0  0  0  0  0  0  0999 V2000
  -18.8908  -32.3665   31.5149 N   0  0  0  0  0  0  0  0  0  0  0  0
  -19.4142  -33.0506   32.5783 C   0  0  0  0  0  0  0  0  0  0  0  0
  -19.0305  -32.3779   33.7556 C   0  0  0  0  0  0  0  0  0  0  0  0
  -18.2503  -31.2241   33.3105 C   0  0  0  0  0  0  0  0  0  0  0  0
  -18.2171  -31.2665   31.9576 C   0  0  0  0  0  0  0  0  0  0  0  0
  -20.1577  -34.2198   32.6411 C   0  0  0  0  0  0  0  0  0  0  0  0
  -20.5387  -34.7200   33.8853 C   0  0  0  0  0  0  0  0  0  0  0  0
  -20.1486  -34.0423   35.0535 C   0  0  0  0  0  0  0  0  0  0  0  0
  -19.4013  -32.8867   35.0031 C   0  0  0  0  0  0  0  0  0  0  0  0
  -21.3383  -35.9804   33.9504 C   0  0  0  0  0  0  0  0  0  0  0  0
  -22.7323  -35.9599   33.8101 C   0  0  0  0  0  0  0  0  0  0  0  0
  -23.4721  -37.1459   33.8713 C   0  0  0  0  0  0  0  0  0  0  0  0
  -24.8688  -37.1329   33.7212 N   0  0  0  0  0  0  0  0  0  0  0  0
  -22.8208  -38.3518   34.0912 C   0  0  0  0  0  0  0  0  0  0  0  0
  -21.4370  -38.3750   34.2473 C   0  0  0  0  0  0  0  0  0  0  0  0
  -20.7853  -39.5894   34.4582 N   0  0  0  0  0  0  0  0  0  0  0  0
  -20.6968  -37.1991   34.1829 C   0  0  0  0  0  0  0  0  0  0  0  0
  -25.3766  -37.9751   33.7666 H   0  0  0  0  0  0  0  0  0  0  0  0
  -25.3398  -36.2816   33.5707 H   0  0  0  0  0  0  0  0  0  0  0  0
  -19.8073  -39.6105   34.5691 H   0  0  0  0  0  0  0  0  0  0  0  0
  -21.3032  -40.4259   34.4963 H   0  0  0  0  0  0  0  0  0  0  0  0
  -19.1256  -32.8235   30.1391 C   0  0  0  0  0  0  0  0  0  0  0  0
  -18.2173  -30.1912   27.6068 C   0  0  0  0  0  0  0  0  0  0  0  0
  -17.0279  -30.6796   27.0882 C   0  0  0  0  0  0  0  0  0  0  0  0
  -16.5144  -31.8759   27.5680 C   0  0  0  0  0  0  0  0  0  0  0  0
  -18.8921  -30.8818   28.5987 C   0  0  0  0  0  0  0  0  0  0  0  0
  -18.3747  -32.0678   29.0812 C   0  0  0  0  0  0  0  0  0  0  0  0
  -17.1894  -32.5734   28.5650 C   0  0  0  0  0  0  0  0  0  0  0  0
  -20.0152  -28.8223   27.0017 O   0  0  0  0  0  0  0  0  0  0  0  0
  -18.7912  -28.9137   27.1263 N   0  0  0  0  0  0  0  0  0  0  0  0
  -18.0554  -27.9639   26.8729 O   0  0  0  0  0  0  0  0  0  0  0  0
  -16.6955  -33.7537   29.0379 O   0  0  0  0  0  0  0  0  0  0  0  0
  -15.7365  -34.4144   28.2083 C   0  0  0  0  0  0  0  0  0  0  0  0
  -17.6196  -30.1957   34.2284 C   0  0  0  0  0  0  0  0  0  0  0  0
  -16.7590  -30.9080   35.2554 C   0  0  0  0  0  0  0  0  0  0  0  0
  -15.7947  -31.7480   34.8477 O   0  0  0  0  0  0  0  0  0  0  0  0
  -16.9394  -30.7571   36.4408 O   0  0  0  0  0  0  0  0  0  0  0  0
  -17.6083  -30.1745   36.7424 H   0  0  0  0  0  0  0  0  0  0  0  0
 31 30  2  0  0  0
 30 29  1  0  0  0
 30 23  1  0  0  0
 24 23  2  0  0  0
 24 25  1  0  0  0
 23 26  1  0  0  0
 25 28  2  0  0  0
 26 27  2  0  0  0
 28 27  1  0  0  0
 28 32  1  0  0  0
 33 32  1  0  0  0
 27 22  1  0  0  0
 22  1  1  0  0  0
  1  5  1  0  0  0
  1  2  1  0  0  0
  5  4  2  0  0  0
  2  6  2  0  0  0
  2  3  1  0  0  0
 16 15  1  0  0  0
  6  7  1  0  0  0
  4  3  1  0  0  0
  4 34  1  0  0  0
 17 15  2  0  0  0
 17 10  1  0  0  0
 15 14  1  0  0  0
  3  9  2  0  0  0
 34 35  1  0  0  0
  7 10  1  0  0  0
  7  8  2  0  0  0
 10 11  2  0  0  0
 36 35  2  0  0  0
 14 12  2  0  0  0
 35 37  1  0  0  0
  9  8  1  0  0  0
 11 12  1  0  0  0
 12 13  1  0  0  0
 37 38  1  0  0  0
 13 18  1  0  0  0
 13 19  1  0  0  0
 16 20  1  0  0  0
 16 21  1  0  0  0
M  CHG 1  29  -1
M  CHG 1  30   1
M  END
> <minimizedAffinity>
-8.27927

$$$$
4OKS_2T9_A_701


 38 41  0  0  0  0  0  0  0  0999 V2000
  -17.4025  -33.7692   31.1381 N   0  0  0  0  0  0  0  0  0  0  0  0
  -17.1083  -33.6822   29.8044 C   0  0  0  0  0  0  0  0  0  0  0  0
  -16.0266  -34.5469   29.5435 C   0  0  0  0  0  0  0  0  0  0  0  0
  -15.7085  -35.1736   30.8258 C   0  0  0  0  0  0  0  0  0  0  0  0
  -16.5787  -34.6767   31.7362 C   0  0  0  0  0  0  0  0  0  0  0  0
  -17.6519  -32.9032   28.7938 C   0  0  0  0  0  0  0  0  0  0  0  0
  -17.1271  -32.9939   27.5054 C   0  0  0  0  0  0  0  0  0  0  0  0
  -16.0465  -33.8580   27.2567 C   0  0  0  0  0  0  0  0  0  0  0  0
  -15.4922  -34.6277   28.2550 C   0  0  0  0  0  0  0  0  0  0  0  0
  -17.7134  -32.1527   26.4188 C   0  0  0  0  0  0  0  0  0  0  0  0
  -18.5975  -32.6992   25.4790 C   0  0  0  0  0  0  0  0  0  0  0  0
  -19.1422  -31.9028   24.4658 C   0  0  0  0  0  0  0  0  0  0  0  0
  -20.0368  -32.4427   23.5270 N   0  0  0  0  0  0  0  0  0  0  0  0
  -18.7893  -30.5632   24.3799 C   0  0  0  0  0  0  0  0  0  0  0  0
  -17.8984  -30.0194   25.3021 C   0  0  0  0  0  0  0  0  0  0  0  0
  -17.5540  -28.6709   25.2184 N   0  0  0  0  0  0  0  0  0  0  0  0
  -17.3576  -30.8061   26.3137 C   0  0  0  0  0  0  0  0  0  0  0  0
  -20.4124  -31.8706   22.8193 H   0  0  0  0  0  0  0  0  0  0  0  0
  -20.2883  -33.3933   23.5767 H   0  0  0  0  0  0  0  0  0  0  0  0
  -16.9247  -28.2824   25.8682 H   0  0  0  0  0  0  0  0  0  0  0  0
  -17.9402  -28.1073   24.5096 H   0  0  0  0  0  0  0  0  0  0  0  0
  -18.4986  -32.9825   31.7181 C   0  0  0  0  0  0  0  0  0  0  0  0
  -17.2356  -29.5424   32.5767 C   0  0  0  0  0  0  0  0  0  0  0  0
  -17.2232  -29.5708   33.9627 C   0  0  0  0  0  0  0  0  0  0  0  0
  -17.6316  -30.7193   34.6255 C   0  0  0  0  0  0  0  0  0  0  0  0
  -17.6548  -30.6441   31.8509 C   0  0  0  0  0  0  0  0  0  0  0  0
  -18.0693  -31.7832   32.5127 C   0  0  0  0  0  0  0  0  0  0  0  0
  -18.0537  -31.8291   33.9000 C   0  0  0  0  0  0  0  0  0  0  0  0
  -17.0133  -27.2253   32.3435 O   0  0  0  0  0  0  0  0  0  0  0  0
  -16.8157  -28.3318   31.8348 N   0  0  0  0  0  0  0  0  0  0  0  0
  -16.2687  -28.4380   30.7407 O   0  0  0  0  0  0  0  0  0  0  0  0
  -18.4505  -32.9647   34.5431 O   0  0  0  0  0  0  0  0  0  0  0  0
  -19.4754  -32.8075   35.5275 C   0  0  0  0  0  0  0  0  0  0  0  0
  -14.6047  -36.1890   31.0461 C   0  0  0  0  0  0  0  0  0  0  0  0
  -15.1241  -37.5712   30.6964 C   0  0  0  0  0  0  0  0  0  0  0  0
  -15.6222  -38.3588   31.6625 O   0  0  0  0  0  0  0  0  0  0  0  0
  -15.0752  -37.9941   29.5654 O   0  0  0  0  0  0  0  0  0  0  0  0
  -14.7304  -37.4574   28.8791 H   0  0  0  0  0  0  0  0  0  0  0  0
 31 30  2  0  0  0
 30 29  1  0  0  0
 30 23  1  0  0  0
 24 23  2  0  0  0
 24 25  1  0  0  0
 23 26  1  0  0  0
 25 28  2  0  0  0
 26 27  2  0  0  0
 28 27  1  0  0  0
 28 32  1  0  0  0
 33 32  1  0  0  0
 27 22  1  0  0  0
 22  1  1  0  0  0
  1  5  1  0  0  0
  1  2  1  0  0  0
  5  4  2  0  0  0
  2  6  2  0  0  0
  2  3  1  0  0  0
 16 15  1  0  0  0
  6  7  1  0  0  0
  4  3  1  0  0  0
  4 34  1  0  0  0
 17 15  2  0  0  0
 17 10  1  0  0  0
 15 14  1  0  0  0
  3  9  2  0  0  0
 34 35  1  0  0  0
  7 10  1  0  0  0
  7  8  2  0  0  0
 10 11  2  0  0  0
 36 35  2  0  0  0
 14 12  2  0  0  0
 35 37  1  0  0  0
  9  8  1  0  0  0
 11 12  1  0  0  0
 12 13  1  0  0  0
 37 38  1  0  0  0
 13 18  1  0  0  0
 13 19  1  0  0  0
 16 20  1  0  0  0
 16 21  1  0  0  0
M  CHG 1  29  -1
M  CHG 1  30   1
M  END
> <minimizedAffinity>
-8.25792

$$$$
4OKS_2T9_A_701


 38 41  0  0  0  0  0  0  0  0999 V2000
  -17.9534  -33.8947   31.0736 N   0  0  0  0  0  0  0  0  0  0  0  0
  -17.4951  -33.6844   29.8014 C   0  0  0  0  0  0  0  0  0  0  0  0
  -16.3033  -34.4199   29.6446 C   0  0  0  0  0  0  0  0  0  0  0  0
  -16.0945  -35.1032   30.9205 C   0  0  0  0  0  0  0  0  0  0  0  0
  -17.1256  -34.7590   31.7275 C   0  0  0  0  0  0  0  0  0  0  0  0
  -17.9783  -32.8912   28.7713 C   0  0  0  0  0  0  0  0  0  0  0  0
  -17.2801  -32.8384   27.5658 C   0  0  0  0  0  0  0  0  0  0  0  0
  -16.0911  -33.5742   27.4211 C   0  0  0  0  0  0  0  0  0  0  0  0
  -15.5966  -34.3564   28.4409 C   0  0  0  0  0  0  0  0  0  0  0  0
  -17.8018  -31.9820   26.4583 C   0  0  0  0  0  0  0  0  0  0  0  0
  -17.4647  -30.6245   26.3742 C   0  0  0  0  0  0  0  0  0  0  0  0
  -17.9575  -29.8312   25.3325 C   0  0  0  0  0  0  0  0  0  0  0  0
  -17.6149  -28.4722   25.2372 N   0  0  0  0  0  0  0  0  0  0  0  0
  -18.8027  -30.3897   24.3837 C   0  0  0  0  0  0  0  0  0  0  0  0
  -19.1535  -31.7348   24.4723 C   0  0  0  0  0  0  0  0  0  0  0  0
  -19.9948  -32.2946   23.5118 N   0  0  0  0  0  0  0  0  0  0  0  0
  -18.6626  -32.5285   25.5038 C   0  0  0  0  0  0  0  0  0  0  0  0
  -17.9691  -27.9258   24.4987 H   0  0  0  0  0  0  0  0  0  0  0  0
  -17.0207  -28.0660   25.9089 H   0  0  0  0  0  0  0  0  0  0  0  0
  -20.2453  -33.2449   23.5706 H   0  0  0  0  0  0  0  0  0  0  0  0
  -20.3385  -31.7397   22.7748 H   0  0  0  0  0  0  0  0  0  0  0  0
  -19.1936  -33.2608   31.5392 C   0  0  0  0  0  0  0  0  0  0  0  0
  -18.4748  -31.7683   34.9189 C   0  0  0  0  0  0  0  0  0  0  0  0
  -19.3107  -32.5006   35.7479 C   0  0  0  0  0  0  0  0  0  0  0  0
  -20.1181  -33.4883   35.2026 C   0  0  0  0  0  0  0  0  0  0  0  0
  -18.4422  -32.0100   33.5563 C   0  0  0  0  0  0  0  0  0  0  0  0
  -19.2532  -32.9877   33.0143 C   0  0  0  0  0  0  0  0  0  0  0  0
  -20.0886  -33.7347   33.8335 C   0  0  0  0  0  0  0  0  0  0  0  0
  -17.4046  -29.6927   34.7801 O   0  0  0  0  0  0  0  0  0  0  0  0
  -17.6057  -30.7003   35.4631 N   0  0  0  0  0  0  0  0  0  0  0  0
  -17.1105  -30.8179   36.5805 O   0  0  0  0  0  0  0  0  0  0  0  0
  -20.8740  -34.7084   33.2897 O   0  0  0  0  0  0  0  0  0  0  0  0
  -20.8804  -35.9668   33.9684 C   0  0  0  0  0  0  0  0  0  0  0  0
  -14.9291  -36.0206   31.2338 C   0  0  0  0  0  0  0  0  0  0  0  0
  -13.9534  -35.2925   32.1397 C   0  0  0  0  0  0  0  0  0  0  0  0
  -13.6125  -34.0232   31.8668 O   0  0  0  0  0  0  0  0  0  0  0  0
  -13.4511  -35.8401   33.0926 O   0  0  0  0  0  0  0  0  0  0  0  0
  -13.6780  -36.7259   33.2973 H   0  0  0  0  0  0  0  0  0  0  0  0
 31 30  2  0  0  0
 30 29  1  0  0  0
 30 23  1  0  0  0
 24 23  2  0  0  0
 24 25  1  0  0  0
 23 26  1  0  0  0
 25 28  2  0  0  0
 26 27  2  0  0  0
 28 27  1  0  0  0
 28 32  1  0  0  0
 33 32  1  0  0  0
 27 22  1  0  0  0
 22  1  1  0  0  0
  1  5  1  0  0  0
  1  2  1  0  0  0
  5  4  2  0  0  0
  2  6  2  0  0  0
  2  3  1  0  0  0
 16 15  1  0  0  0
  6  7  1  0  0  0
  4  3  1  0  0  0
  4 34  1  0  0  0
 17 15  2  0  0  0
 17 10  1  0  0  0
 15 14  1  0  0  0
  3  9  2  0  0  0
 34 35  1  0  0  0
  7 10  1  0  0  0
  7  8  2  0  0  0
 10 11  2  0  0  0
 36 35  2  0  0  0
 14 12  2  0  0  0
 35 37  1  0  0  0
  9  8  1  0  0  0
 11 12  1  0  0  0
 12 13  1  0  0  0
 37 38  1  0  0  0
 13 18  1  0  0  0
 13 19  1  0  0  0
 16 20  1  0  0  0
 16 21  1  0  0  0
M  CHG 1  29  -1
M  CHG 1  30   1
M  END
> <minimizedAffinity>
-8.08170

$$$$
4OKS_2T9_A_701


 38 41  0  0  0  0  0  0  0  0999 V2000
  -18.9242  -32.2388   30.1960 N   0  0  0  0  0  0  0  0  0  0  0  0
  -17.8784  -32.9286   29.6452 C   0  0  0  0  0  0  0  0  0  0  0  0
  -17.7572  -32.5272   28.2998 C   0  0  0  0  0  0  0  0  0  0  0  0
  -18.8036  -31.5267   28.0941 C   0  0  0  0  0  0  0  0  0  0  0  0
  -19.4567  -31.3888   29.2720 C   0  0  0  0  0  0  0  0  0  0  0  0
  -17.0401  -33.8995   30.1728 C   0  0  0  0  0  0  0  0  0  0  0  0
  -16.0595  -34.4684   29.3613 C   0  0  0  0  0  0  0  0  0  0  0  0
  -15.9489  -34.0623   28.0201 C   0  0  0  0  0  0  0  0  0  0  0  0
  -16.7830  -33.1072   27.4831 C   0  0  0  0  0  0  0  0  0  0  0  0
  -15.1587  -35.5150   29.9315 C   0  0  0  0  0  0  0  0  0  0  0  0
  -14.6827  -35.4208   31.2461 C   0  0  0  0  0  0  0  0  0  0  0  0
  -13.8404  -36.4068   31.7713 C   0  0  0  0  0  0  0  0  0  0  0  0
  -13.3682  -36.3230   33.0916 N   0  0  0  0  0  0  0  0  0  0  0  0
  -13.4583  -37.4790   30.9769 C   0  0  0  0  0  0  0  0  0  0  0  0
  -13.9161  -37.5686   29.6645 C   0  0  0  0  0  0  0  0  0  0  0  0
  -13.5381  -38.6521   28.8728 N   0  0  0  0  0  0  0  0  0  0  0  0
  -14.7571  -36.5929   29.1393 C   0  0  0  0  0  0  0  0  0  0  0  0
  -12.7761  -37.0242   33.4481 H   0  0  0  0  0  0  0  0  0  0  0  0
  -13.6293  -35.5632   33.6605 H   0  0  0  0  0  0  0  0  0  0  0  0
  -13.8593  -38.7194   27.9446 H   0  0  0  0  0  0  0  0  0  0  0  0
  -12.9499  -39.3500   29.2419 H   0  0  0  0  0  0  0  0  0  0  0  0
  -19.2973  -32.4379   31.6023 C   0  0  0  0  0  0  0  0  0  0  0  0
  -17.4219  -29.5168   33.0572 C   0  0  0  0  0  0  0  0  0  0  0  0
  -17.2053  -29.9273   34.3636 C   0  0  0  0  0  0  0  0  0  0  0  0
  -17.6755  -31.1655   34.7768 C   0  0  0  0  0  0  0  0  0  0  0  0
  -18.1048  -30.3266   32.1660 C   0  0  0  0  0  0  0  0  0  0  0  0
  -18.5798  -31.5549   32.5818 C   0  0  0  0  0  0  0  0  0  0  0  0
  -18.3624  -31.9827   33.8844 C   0  0  0  0  0  0  0  0  0  0  0  0
  -15.9214  -28.1512   31.8926 O   0  0  0  0  0  0  0  0  0  0  0  0
  -16.9431  -28.1986   32.5825 N   0  0  0  0  0  0  0  0  0  0  0  0
  -17.5662  -27.1786   32.8636 O   0  0  0  0  0  0  0  0  0  0  0  0
  -18.8223  -33.2044   34.2800 O   0  0  0  0  0  0  0  0  0  0  0  0
  -19.9102  -33.1994   35.2078 C   0  0  0  0  0  0  0  0  0  0  0  0
  -19.0674  -30.8016   26.7893 C   0  0  0  0  0  0  0  0  0  0  0  0
  -19.2980  -29.3296   27.0769 C   0  0  0  0  0  0  0  0  0  0  0  0
  -18.2498  -28.5272   27.3204 O   0  0  0  0  0  0  0  0  0  0  0  0
  -20.4122  -28.8638   27.1190 O   0  0  0  0  0  0  0  0  0  0  0  0
  -21.1549  -29.4100   26.9516 H   0  0  0  0  0  0  0  0  0  0  0  0
 31 30  2  0  0  0
 30 29  1  0  0  0
 30 23  1  0  0  0
 24 23  2  0  0  0
 24 25  1  0  0  0
 23 26  1  0  0  0
 25 28  2  0  0  0
 26 27  2  0  0  0
 28 27  1  0  0  0
 28 32  1  0  0  0
 33 32  1  0  0  0
 27 22  1  0  0  0
 22  1  1  0  0  0
  1  5  1  0  0  0
  1  2  1  0  0  0
  5  4  2  0  0  0
  2  6  2  0  0  0
  2  3  1  0  0  0
 16 15  1  0  0  0
  6  7  1  0  0  0
  4  3  1  0  0  0
  4 34  1  0  0  0
 17 15  2  0  0  0
 17 10  1  0  0  0
 15 14  1  0  0  0
  3  9  2  0  0  0
 34 35  1  0  0  0
  7 10  1  0  0  0
  7  8  2  0  0  0
 10 11  2  0  0  0
 36 35  2  0  0  0
 14 12  2  0  0  0
 35 37  1  0  0  0
  9  8  1  0  0  0
 11 12  1  0  0  0
 12 13  1  0  0  0
 37 38  1  0  0  0
 13 18  1  0  0  0
 13 19  1  0  0  0
 16 20  1  0  0  0
 16 21  1  0  0  0
M  CHG 1  29  -1
M  CHG 1  30   1
M  END
> <minimizedAffinity>
-7.85617

$$$$
4OKS_2T9_A_701


 38 41  0  0  0  0  0  0  0  0999 V2000
  -18.2523  -34.1478   31.4704 N   0  0  0  0  0  0  0  0  0  0  0  0
  -17.7128  -33.7159   30.2892 C   0  0  0  0  0  0  0  0  0  0  0  0
  -16.4416  -34.3085   30.1529 C   0  0  0  0  0  0  0  0  0  0  0  0
  -16.2709  -35.1458   31.3395 C   0  0  0  0  0  0  0  0  0  0  0  0
  -17.3968  -35.0172   32.0803 C   0  0  0  0  0  0  0  0  0  0  0  0
  -18.1877  -32.8308   29.3328 C   0  0  0  0  0  0  0  0  0  0  0  0
  -17.3996  -32.5415   28.2198 C   0  0  0  0  0  0  0  0  0  0  0  0
  -16.1321  -33.1365   28.0949 C   0  0  0  0  0  0  0  0  0  0  0  0
  -15.6463  -34.0082   29.0439 C   0  0  0  0  0  0  0  0  0  0  0  0
  -17.9127  -31.5866   27.1917 C   0  0  0  0  0  0  0  0  0  0  0  0
  -17.4040  -31.5883   25.8861 C   0  0  0  0  0  0  0  0  0  0  0  0
  -17.8921  -30.6908   24.9301 C   0  0  0  0  0  0  0  0  0  0  0  0
  -17.3932  -30.6945   23.6169 N   0  0  0  0  0  0  0  0  0  0  0  0
  -18.8765  -29.7783   25.2832 C   0  0  0  0  0  0  0  0  0  0  0  0
  -19.3738  -29.7622   26.5841 C   0  0  0  0  0  0  0  0  0  0  0  0
  -20.3696  -28.8507   26.9325 N   0  0  0  0  0  0  0  0  0  0  0  0
  -18.8948  -30.6554   27.5369 C   0  0  0  0  0  0  0  0  0  0  0  0
  -17.7459  -30.0573   22.9545 H   0  0  0  0  0  0  0  0  0  0  0  0
  -16.6908  -31.3343   23.3590 H   0  0  0  0  0  0  0  0  0  0  0  0
  -20.7240  -28.8359   27.8509 H   0  0  0  0  0  0  0  0  0  0  0  0
  -20.7184  -28.2219   26.2601 H   0  0  0  0  0  0  0  0  0  0  0  0
  -19.5870  -33.7041   31.8929 C   0  0  0  0  0  0  0  0  0  0  0  0
  -20.8638  -34.9920   35.1910 C   0  0  0  0  0  0  0  0  0  0  0  0
  -20.4169  -34.0245   36.0778 C   0  0  0  0  0  0  0  0  0  0  0  0
  -19.6910  -32.9433   35.5993 C   0  0  0  0  0  0  0  0  0  0  0  0
  -20.5892  -34.8915   33.8379 C   0  0  0  0  0  0  0  0  0  0  0  0
  -19.8590  -33.8190   33.3649 C   0  0  0  0  0  0  0  0  0  0  0  0
  -19.4127  -32.8381   34.2400 C   0  0  0  0  0  0  0  0  0  0  0  0
  -21.7191  -36.3666   36.8797 O   0  0  0  0  0  0  0  0  0  0  0  0
  -21.6332  -36.1646   35.6656 N   0  0  0  0  0  0  0  0  0  0  0  0
  -22.1842  -36.9082   34.8587 O   0  0  0  0  0  0  0  0  0  0  0  0
  -18.7056  -31.7751   33.7598 O   0  0  0  0  0  0  0  0  0  0  0  0
  -17.9121  -31.0626   34.7121 C   0  0  0  0  0  0  0  0  0  0  0  0
  -15.0464  -35.9876   31.6396 C   0  0  0  0  0  0  0  0  0  0  0  0
  -15.2059  -37.3474   30.9853 C   0  0  0  0  0  0  0  0  0  0  0  0
  -14.9519  -37.4891   29.6749 O   0  0  0  0  0  0  0  0  0  0  0  0
  -15.5848  -38.3074   31.6139 O   0  0  0  0  0  0  0  0  0  0  0  0
  -15.7666  -38.2259   32.5295 H   0  0  0  0  0  0  0  0  0  0  0  0
 31 30  2  0  0  0
 30 29  1  0  0  0
 30 23  1  0  0  0
 24 23  2  0  0  0
 24 25  1  0  0  0
 23 26  1  0  0  0
 25 28  2  0  0  0
 26 27  2  0  0  0
 28 27  1  0  0  0
 28 32  1  0  0  0
 33 32  1  0  0  0
 27 22  1  0  0  0
 22  1  1  0  0  0
  1  5  1  0  0  0
  1  2  1  0  0  0
  5  4  2  0  0  0
  2  6  2  0  0  0
  2  3  1  0  0  0
 16 15  1  0  0  0
  6  7  1  0  0  0
  4  3  1  0  0  0
  4 34  1  0  0  0
 17 15  2  0  0  0
 17 10  1  0  0  0
 15 14  1  0  0  0
  3  9  2  0  0  0
 34 35  1  0  0  0
  7 10  1  0  0  0
  7  8  2  0  0  0
 10 11  2  0  0  0
 36 35  2  0  0  0
 14 12  2  0  0  0
 35 37  1  0  0  0
  9  8  1  0  0  0
 11 12  1  0  0  0
 12 13  1  0  0  0
 37 38  1  0  0  0
 13 18  1  0  0  0
 13 19  1  0  0  0
 16 20  1  0  0  0
 16 21  1  0  0  0
M  CHG 1  29  -1
M  CHG 1  30   1
M  END
> <minimizedAffinity>
-7.85557

$$$$
4OKS_2T9_A_701


 38 41  0  0  0  0  0  0  0  0999 V2000
  -16.1969  -31.2097   26.7637 N   0  0  0  0  0  0  0  0  0  0  0  0
  -17.0532  -31.2515   27.8304 C   0  0  0  0  0  0  0  0  0  0  0  0
  -18.3177  -31.6510   27.3536 C   0  0  0  0  0  0  0  0  0  0  0  0
  -18.1451  -31.8635   25.9172 C   0  0  0  0  0  0  0  0  0  0  0  0
  -16.8490  -31.5972   25.6304 C   0  0  0  0  0  0  0  0  0  0  0  0
  -16.8666  -30.9425   29.1696 C   0  0  0  0  0  0  0  0  0  0  0  0
  -17.9427  -31.0457   30.0499 C   0  0  0  0  0  0  0  0  0  0  0  0
  -19.2002  -31.4428   29.5632 C   0  0  0  0  0  0  0  0  0  0  0  0
  -19.3992  -31.7415   28.2337 C   0  0  0  0  0  0  0  0  0  0  0  0
  -17.7395  -30.7109   31.4917 C   0  0  0  0  0  0  0  0  0  0  0  0
  -17.0107  -29.5770   31.8746 C   0  0  0  0  0  0  0  0  0  0  0  0
  -16.8270  -29.2713   33.2275 C   0  0  0  0  0  0  0  0  0  0  0  0
  -16.1060  -28.1305   33.6173 N   0  0  0  0  0  0  0  0  0  0  0  0
  -17.3562  -30.1091   34.1995 C   0  0  0  0  0  0  0  0  0  0  0  0
  -18.0675  -31.2460   33.8237 C   0  0  0  0  0  0  0  0  0  0  0  0
  -18.6060  -32.0798   34.8029 N   0  0  0  0  0  0  0  0  0  0  0  0
  -18.2565  -31.5516   32.4799 C   0  0  0  0  0  0  0  0  0  0  0  0
  -15.9846  -27.9277   34.5731 H   0  0  0  0  0  0  0  0  0  0  0  0
  -15.7222  -27.5337   32.9349 H   0  0  0  0  0  0  0  0  0  0  0  0
  -19.1095  -32.8844   34.5417 H   0  0  0  0  0  0  0  0  0  0  0  0
  -18.4826  -31.8638   35.7555 H   0  0  0  0  0  0  0  0  0  0  0  0
  -14.7899  -30.8296   26.9448 C   0  0  0  0  0  0  0  0  0  0  0  0
  -14.6199  -27.3194   25.5973 C   0  0  0  0  0  0  0  0  0  0  0  0
  -13.9586  -26.6460   26.6128 C   0  0  0  0  0  0  0  0  0  0  0  0
  -13.5657  -27.3394   27.7485 C   0  0  0  0  0  0  0  0  0  0  0  0
  -14.8947  -28.6716   25.7081 C   0  0  0  0  0  0  0  0  0  0  0  0
  -14.5106  -29.3580   26.8432 C   0  0  0  0  0  0  0  0  0  0  0  0
  -13.8398  -28.6986   27.8641 C   0  0  0  0  0  0  0  0  0  0  0  0
  -14.3957  -26.7326   23.3438 O   0  0  0  0  0  0  0  0  0  0  0  0
  -15.0625  -26.6112   24.3747 N   0  0  0  0  0  0  0  0  0  0  0  0
  -16.0837  -25.9297   24.3926 O   0  0  0  0  0  0  0  0  0  0  0  0
  -13.4513  -29.3898   28.9741 O   0  0  0  0  0  0  0  0  0  0  0  0
  -13.7378  -28.7753   30.2329 C   0  0  0  0  0  0  0  0  0  0  0  0
  -19.2404  -32.3048   24.9668 C   0  0  0  0  0  0  0  0  0  0  0  0
  -19.5164  -31.1900   23.9749 C   0  0  0  0  0  0  0  0  0  0  0  0
  -19.6028  -29.9219   24.4064 O   0  0  0  0  0  0  0  0  0  0  0  0
  -19.6884  -31.4206   22.8012 O   0  0  0  0  0  0  0  0  0  0  0  0
  -19.6316  -32.3002   22.4833 H   0  0  0  0  0  0  0  0  0  0  0  0
 31 30  2  0  0  0
 30 29  1  0  0  0
 30 23  1  0  0  0
 24 23  2  0  0  0
 24 25  1  0  0  0
 23 26  1  0  0  0
 25 28  2  0  0  0
 26 27  2  0  0  0
 28 27  1  0  0  0
 28 32  1  0  0  0
 33 32  1  0  0  0
 27 22  1  0  0  0
 22  1  1  0  0  0
  1  5  1  0  0  0
  1  2  1  0  0  0
  5  4  2  0  0  0
  2  6  2  0  0  0
  2  3  1  0  0  0
 16 15  1  0  0  0
  6  7  1  0  0  0
  4  3  1  0  0  0
  4 34  1  0  0  0
 17 15  2  0  0  0
 17 10  1  0  0  0
 15 14  1  0  0  0
  3  9  2  0  0  0
 34 35  1  0  0  0
  7 10  1  0  0  0
  7  8  2  0  0  0
 10 11  2  0  0  0
 36 35  2  0  0  0
 14 12  2  0  0  0
 35 37  1  0  0  0
  9  8  1  0  0  0
 11 12  1  0  0  0
 12 13  1  0  0  0
 37 38  1  0  0  0
 13 18  1  0  0  0
 13 19  1  0  0  0
 16 20  1  0  0  0
 16 21  1  0  0  0
M  CHG 1  29  -1
M  CHG 1  30   1
M  END
> <minimizedAffinity>
-7.81461

$$$$
4OKS_2T9_A_701


 38 41  0  0  0  0  0  0  0  0999 V2000
  -18.8455  -32.6196   32.0797 N   0  0  0  0  0  0  0  0  0  0  0  0
  -19.4736  -33.1875   33.1549 C   0  0  0  0  0  0  0  0  0  0  0  0
  -19.1376  -32.4352   34.2981 C   0  0  0  0  0  0  0  0  0  0  0  0
  -18.2721  -31.3588   33.8178 C   0  0  0  0  0  0  0  0  0  0  0  0
  -18.1493  -31.5170   32.4788 C   0  0  0  0  0  0  0  0  0  0  0  0
  -20.2772  -34.3132   33.2589 C   0  0  0  0  0  0  0  0  0  0  0  0
  -20.7665  -34.6889   34.5091 C   0  0  0  0  0  0  0  0  0  0  0  0
  -20.4232  -33.9326   35.6432 C   0  0  0  0  0  0  0  0  0  0  0  0
  -19.6173  -32.8197   35.5529 C   0  0  0  0  0  0  0  0  0  0  0  0
  -21.6307  -35.9026   34.6188 C   0  0  0  0  0  0  0  0  0  0  0  0
  -22.2929  -36.4220   33.4984 C   0  0  0  0  0  0  0  0  0  0  0  0
  -23.0991  -37.5599   33.6112 C   0  0  0  0  0  0  0  0  0  0  0  0
  -23.7572  -38.0912   32.4896 N   0  0  0  0  0  0  0  0  0  0  0  0
  -23.2589  -38.1693   34.8480 C   0  0  0  0  0  0  0  0  0  0  0  0
  -22.6156  -37.6471   35.9676 C   0  0  0  0  0  0  0  0  0  0  0  0
  -22.7707  -38.2677   37.2064 N   0  0  0  0  0  0  0  0  0  0  0  0
  -21.8096  -36.5185   35.8595 C   0  0  0  0  0  0  0  0  0  0  0  0
  -24.3214  -38.8925   32.5837 H   0  0  0  0  0  0  0  0  0  0  0  0
  -23.6543  -37.6622   31.6095 H   0  0  0  0  0  0  0  0  0  0  0  0
  -22.3178  -37.9020   38.0003 H   0  0  0  0  0  0  0  0  0  0  0  0
  -23.3331  -39.0717   37.2872 H   0  0  0  0  0  0  0  0  0  0  0  0
  -19.0089  -33.1806   30.7324 C   0  0  0  0  0  0  0  0  0  0  0  0
  -15.7173  -34.9362   30.2320 C   0  0  0  0  0  0  0  0  0  0  0  0
  -15.3747  -34.5574   28.9430 C   0  0  0  0  0  0  0  0  0  0  0  0
  -16.2233  -33.7245   28.2281 C   0  0  0  0  0  0  0  0  0  0  0  0
  -16.8966  -34.4959   30.8080 C   0  0  0  0  0  0  0  0  0  0  0  0
  -17.7441  -33.6741   30.0914 C   0  0  0  0  0  0  0  0  0  0  0  0
  -17.4096  -33.2796   28.8032 C   0  0  0  0  0  0  0  0  0  0  0  0
  -15.2343  -36.9724   31.2774 O   0  0  0  0  0  0  0  0  0  0  0  0
  -14.8416  -35.8311   31.0222 N   0  0  0  0  0  0  0  0  0  0  0  0
  -13.7405  -35.4402   31.3997 O   0  0  0  0  0  0  0  0  0  0  0  0
  -18.2466  -32.4550   28.1102 O   0  0  0  0  0  0  0  0  0  0  0  0
  -17.8320  -32.1004   26.7886 C   0  0  0  0  0  0  0  0  0  0  0  0
  -17.6547  -30.2854   34.6921 C   0  0  0  0  0  0  0  0  0  0  0  0
  -16.7052  -30.9356   35.6812 C   0  0  0  0  0  0  0  0  0  0  0  0
  -15.8667  -31.8974   35.2647 O   0  0  0  0  0  0  0  0  0  0  0  0
  -16.7041  -30.6254   36.8492 O   0  0  0  0  0  0  0  0  0  0  0  0
  -17.2831  -29.9560   37.1566 H   0  0  0  0  0  0  0  0  0  0  0  0
 31 30  2  0  0  0
 30 29  1  0  0  0
 30 23  1  0  0  0
 24 23  2  0  0  0
 24 25  1  0  0  0
 23 26  1  0  0  0
 25 28  2  0  0  0
 26 27  2  0  0  0
 28 27  1  0  0  0
 28 32  1  0  0  0
 33 32  1  0  0  0
 27 22  1  0  0  0
 22  1  1  0  0  0
  1  5  1  0  0  0
  1  2  1  0  0  0
  5  4  2  0  0  0
  2  6  2  0  0  0
  2  3  1  0  0  0
 16 15  1  0  0  0
  6  7  1  0  0  0
  4  3  1  0  0  0
  4 34  1  0  0  0
 17 15  2  0  0  0
 17 10  1  0  0  0
 15 14  1  0  0  0
  3  9  2  0  0  0
 34 35  1  0  0  0
  7 10  1  0  0  0
  7  8  2  0  0  0
 10 11  2  0  0  0
 36 35  2  0  0  0
 14 12  2  0  0  0
 35 37  1  0  0  0
  9  8  1  0  0  0
 11 12  1  0  0  0
 12 13  1  0  0  0
 37 38  1  0  0  0
 13 18  1  0  0  0
 13 19  1  0  0  0
 16 20  1  0  0  0
 16 21  1  0  0  0
M  CHG 1  29  -1
M  CHG 1  30   1
M  END
> <minimizedAffinity>
-7.62207

$$$$
