2XJ1_XJ1_A_1307


 29 31  0  0  0  0  0  0  0  0999 V2000
  -22.6965  -35.1795   -4.5854 C   0  0  0  0  0  0  0  0  0  0  0  0
  -22.6450  -35.3702   -3.2509 N   0  0  0  0  0  0  0  0  0  0  0  0
  -22.7119  -36.2945   -5.4285 C   0  0  0  0  0  0  0  0  0  0  0  0
  -22.7002  -37.5190   -4.9053 N   0  0  0  0  0  0  0  0  0  0  0  0
  -22.6765  -37.7110   -3.5754 C   0  0  0  0  0  0  0  0  0  0  0  0
  -22.6297  -36.6124   -2.7072 C   0  0  0  0  0  0  0  0  0  0  0  0
  -22.6344  -36.7426   -1.2930 C   0  0  0  0  0  0  0  0  0  0  0  0
  -22.4730  -35.5909   -0.5191 C   0  0  0  0  0  0  0  0  0  0  0  0
  -22.8390  -37.9544   -0.6285 C   0  0  0  0  0  0  0  0  0  0  0  0
  -22.8668  -38.0029    0.7801 C   0  0  0  0  0  0  0  0  0  0  0  0
  -22.6940  -36.8356    1.5234 C   0  0  0  0  0  0  0  0  0  0  0  0
  -22.4767  -35.6191    0.8744 C   0  0  0  0  0  0  0  0  0  0  0  0
  -22.3328  -34.4351    1.6097 C   0  0  0  0  0  0  0  0  0  0  0  0
  -21.7735  -33.2424    1.1443 C   0  0  0  0  0  0  0  0  0  0  0  0
  -21.7134  -32.1106    1.9731 C   0  0  0  0  0  0  0  0  0  0  0  0
  -21.0391  -31.1531    1.5646 O   0  0  0  0  0  0  0  0  0  0  0  0
  -22.3412  -32.0862    3.0637 O   0  0  0  0  0  0  0  0  0  0  0  0
  -22.8389  -32.8325    3.3346 H   0  0  0  0  0  0  0  0  0  0  0  0
  -22.6484  -33.9521   -5.1194 N   0  0  0  0  0  0  0  0  0  0  0  0
  -22.6050  -33.9437   -6.1029 H   0  0  0  0  0  0  0  0  0  0  0  0
  -22.6868  -31.5141   -5.5994 C   0  0  0  0  0  0  0  0  0  0  0  0
  -22.8185  -30.1151   -4.9598 C   0  0  0  0  0  0  0  0  0  0  0  0
  -21.6249  -29.8166   -4.0349 C   0  0  0  0  0  0  0  0  0  0  0  0
  -21.7412  -28.4824   -3.4046 N   0  0  0  0  0  0  0  0  0  0  0  0
  -21.5580  -30.9093   -2.9694 C   0  0  0  0  0  0  0  0  0  0  0  0
  -21.4647  -32.3260   -3.5740 C   0  0  0  0  0  0  0  0  0  0  0  0
  -22.6485  -32.6015   -4.5020 C   0  0  0  0  0  0  0  0  0  0  0  0
  -22.5895  -28.4462   -2.8393 H   0  0  0  0  0  0  0  0  0  0  0  0
  -21.7852  -27.7664   -4.1298 H   0  0  0  0  0  0  0  0  0  0  0  0
 21 22  1  0  0  0
 21 27  1  0  0  0
 22 23  1  0  0  0
 23 24  1  0  0  0
 23 25  1  0  0  0
 25 26  1  0  0  0
 26 27  1  0  0  0
 27 19  1  0  0  0
 19  1  1  0  0  0
  1  2  2  0  0  0
  1  3  1  0  0  0
  2  6  1  0  0  0
  3  4  2  0  0  0
  4  5  1  0  0  0
  5  6  2  0  0  0
  6  7  1  0  0  0
  7  8  1  0  0  0
  7  9  2  0  0  0
  8 12  2  0  0  0
  9 10  1  0  0  0
 10 11  2  0  0  0
 11 12  1  0  0  0
 12 13  1  0  0  0
 13 14  2  0  0  0
 14 15  1  0  0  0
 15 16  2  0  0  0
 15 17  1  0  0  0
 24 28  1  0  0  0
 24 29  1  0  0  0
 19 20  1  0  0  0
 17 18  1  0  0  0
M  END
> <minimizedAffinity>
-10.49784

$$$$
2XJ1_XJ1_A_1307


 29 31  0  0  0  0  0  0  0  0999 V2000
  -22.5314  -35.5496   -5.0321 C   0  0  0  0  0  0  0  0  0  0  0  0
  -22.3648  -34.3515   -4.4350 N   0  0  0  0  0  0  0  0  0  0  0  0
  -22.7634  -35.5929   -6.4099 C   0  0  0  0  0  0  0  0  0  0  0  0
  -22.7921  -34.4613   -7.1113 N   0  0  0  0  0  0  0  0  0  0  0  0
  -22.5992  -33.2687   -6.5226 C   0  0  0  0  0  0  0  0  0  0  0  0
  -22.3949  -33.1926   -5.1386 C   0  0  0  0  0  0  0  0  0  0  0  0
  -22.1539  -31.9699   -4.4577 C   0  0  0  0  0  0  0  0  0  0  0  0
  -21.7169  -32.0225   -3.1319 C   0  0  0  0  0  0  0  0  0  0  0  0
  -22.2839  -30.7135   -5.0546 C   0  0  0  0  0  0  0  0  0  0  0  0
  -21.9928  -29.5415   -4.3274 C   0  0  0  0  0  0  0  0  0  0  0  0
  -21.5665  -29.6287   -3.0024 C   0  0  0  0  0  0  0  0  0  0  0  0
  -21.4431  -30.8760   -2.3881 C   0  0  0  0  0  0  0  0  0  0  0  0
  -20.9861  -30.9777   -1.0676 C   0  0  0  0  0  0  0  0  0  0  0  0
  -21.4106  -31.9141   -0.1216 C   0  0  0  0  0  0  0  0  0  0  0  0
  -20.8515  -31.9322    1.1662 C   0  0  0  0  0  0  0  0  0  0  0  0
  -21.1435  -30.9887    1.9164 O   0  0  0  0  0  0  0  0  0  0  0  0
  -20.1098  -32.8838    1.5248 O   0  0  0  0  0  0  0  0  0  0  0  0
  -19.9145  -33.5771    0.9255 H   0  0  0  0  0  0  0  0  0  0  0  0
  -22.5630  -36.6862   -4.3240 N   0  0  0  0  0  0  0  0  0  0  0  0
  -22.2723  -37.4808   -4.8274 H   0  0  0  0  0  0  0  0  0  0  0  0
  -21.9679  -36.2907   -1.9438 C   0  0  0  0  0  0  0  0  0  0  0  0
  -22.4467  -36.4739   -0.4876 C   0  0  0  0  0  0  0  0  0  0  0  0
  -22.5322  -37.9657   -0.1184 C   0  0  0  0  0  0  0  0  0  0  0  0
  -23.0006  -38.1593    1.2724 N   0  0  0  0  0  0  0  0  0  0  0  0
  -23.4778  -38.6508   -1.1033 C   0  0  0  0  0  0  0  0  0  0  0  0
  -23.0508  -38.4555   -2.5733 C   0  0  0  0  0  0  0  0  0  0  0  0
  -22.9554  -36.9691   -2.9200 C   0  0  0  0  0  0  0  0  0  0  0  0
  -23.9332  -37.7594    1.3758 H   0  0  0  0  0  0  0  0  0  0  0  0
  -22.3586  -37.6955    1.9151 H   0  0  0  0  0  0  0  0  0  0  0  0
 21 22  1  0  0  0
 21 27  1  0  0  0
 22 23  1  0  0  0
 23 24  1  0  0  0
 23 25  1  0  0  0
 25 26  1  0  0  0
 26 27  1  0  0  0
 27 19  1  0  0  0
 19  1  1  0  0  0
  1  2  2  0  0  0
  1  3  1  0  0  0
  2  6  1  0  0  0
  3  4  2  0  0  0
  4  5  1  0  0  0
  5  6  2  0  0  0
  6  7  1  0  0  0
  7  8  1  0  0  0
  7  9  2  0  0  0
  8 12  2  0  0  0
  9 10  1  0  0  0
 10 11  2  0  0  0
 11 12  1  0  0  0
 12 13  1  0  0  0
 13 14  2  0  0  0
 14 15  1  0  0  0
 15 16  2  0  0  0
 15 17  1  0  0  0
 24 28  1  0  0  0
 24 29  1  0  0  0
 19 20  1  0  0  0
 17 18  1  0  0  0
M  END
> <minimizedAffinity>
-10.08596

$$$$
2XJ1_XJ1_A_1307


 29 31  0  0  0  0  0  0  0  0999 V2000
  -22.9759  -37.5935   -1.5817 C   0  0  0  0  0  0  0  0  0  0  0  0
  -22.5451  -36.3426   -1.3184 N   0  0  0  0  0  0  0  0  0  0  0  0
  -23.1138  -38.4985   -0.5252 C   0  0  0  0  0  0  0  0  0  0  0  0
  -22.8431  -38.1084    0.7189 N   0  0  0  0  0  0  0  0  0  0  0  0
  -22.4400  -36.8547    0.9865 C   0  0  0  0  0  0  0  0  0  0  0  0
  -22.2638  -35.9352   -0.0559 C   0  0  0  0  0  0  0  0  0  0  0  0
  -21.8708  -34.5875    0.1588 C   0  0  0  0  0  0  0  0  0  0  0  0
  -21.6935  -33.7617   -0.9539 C   0  0  0  0  0  0  0  0  0  0  0  0
  -21.6963  -34.0251    1.4257 C   0  0  0  0  0  0  0  0  0  0  0  0
  -21.3397  -32.6683    1.5641 C   0  0  0  0  0  0  0  0  0  0  0  0
  -21.1623  -31.8732    0.4322 C   0  0  0  0  0  0  0  0  0  0  0  0
  -21.3212  -32.4233   -0.8408 C   0  0  0  0  0  0  0  0  0  0  0  0
  -21.1761  -31.6268   -1.9843 C   0  0  0  0  0  0  0  0  0  0  0  0
  -21.9214  -30.4853   -2.2898 C   0  0  0  0  0  0  0  0  0  0  0  0
  -21.6588  -29.7524   -3.4583 C   0  0  0  0  0  0  0  0  0  0  0  0
  -21.3395  -30.4013   -4.4659 O   0  0  0  0  0  0  0  0  0  0  0  0
  -21.7707  -28.4988   -3.4620 O   0  0  0  0  0  0  0  0  0  0  0  0
  -22.0143  -28.0479   -2.6776 H   0  0  0  0  0  0  0  0  0  0  0  0
  -23.1926  -38.0096   -2.8363 N   0  0  0  0  0  0  0  0  0  0  0  0
  -23.8093  -38.7739   -2.9048 H   0  0  0  0  0  0  0  0  0  0  0  0
  -23.3875  -36.2224   -4.5520 C   0  0  0  0  0  0  0  0  0  0  0  0
  -22.7604  -35.6540   -5.8432 C   0  0  0  0  0  0  0  0  0  0  0  0
  -22.8932  -36.6526   -7.0070 C   0  0  0  0  0  0  0  0  0  0  0  0
  -22.2866  -36.1272   -8.2509 N   0  0  0  0  0  0  0  0  0  0  0  0
  -22.2231  -37.9622   -6.5950 C   0  0  0  0  0  0  0  0  0  0  0  0
  -22.7994  -38.5400   -5.2853 C   0  0  0  0  0  0  0  0  0  0  0  0
  -22.6743  -37.5309   -4.1431 C   0  0  0  0  0  0  0  0  0  0  0  0
  -21.2925  -35.9571   -8.0989 H   0  0  0  0  0  0  0  0  0  0  0  0
  -22.7453  -35.2537   -8.5101 H   0  0  0  0  0  0  0  0  0  0  0  0
 21 22  1  0  0  0
 21 27  1  0  0  0
 22 23  1  0  0  0
 23 24  1  0  0  0
 23 25  1  0  0  0
 25 26  1  0  0  0
 26 27  1  0  0  0
 27 19  1  0  0  0
 19  1  1  0  0  0
  1  2  2  0  0  0
  1  3  1  0  0  0
  2  6  1  0  0  0
  3  4  2  0  0  0
  4  5  1  0  0  0
  5  6  2  0  0  0
  6  7  1  0  0  0
  7  8  1  0  0  0
  7  9  2  0  0  0
  8 12  2  0  0  0
  9 10  1  0  0  0
 10 11  2  0  0  0
 11 12  1  0  0  0
 12 13  1  0  0  0
 13 14  2  0  0  0
 14 15  1  0  0  0
 15 16  2  0  0  0
 15 17  1  0  0  0
 24 28  1  0  0  0
 24 29  1  0  0  0
 19 20  1  0  0  0
 17 18  1  0  0  0
M  END
> <minimizedAffinity>
-9.95651

$$$$
2XJ1_XJ1_A_1307


 29 31  0  0  0  0  0  0  0  0999 V2000
  -21.3008  -32.3826   -0.4230 C   0  0  0  0  0  0  0  0  0  0  0  0
  -21.6796  -33.6525   -0.6753 N   0  0  0  0  0  0  0  0  0  0  0  0
  -21.3555  -31.9082    0.8908 C   0  0  0  0  0  0  0  0  0  0  0  0
  -21.7546  -32.7178    1.8699 N   0  0  0  0  0  0  0  0  0  0  0  0
  -22.1063  -33.9914    1.6244 C   0  0  0  0  0  0  0  0  0  0  0  0
  -22.0904  -34.4849    0.3132 C   0  0  0  0  0  0  0  0  0  0  0  0
  -22.4194  -35.8274   -0.0126 C   0  0  0  0  0  0  0  0  0  0  0  0
  -22.5971  -36.1604   -1.3576 C   0  0  0  0  0  0  0  0  0  0  0  0
  -22.5297  -36.8485    0.9346 C   0  0  0  0  0  0  0  0  0  0  0  0
  -22.8244  -38.1677    0.5345 C   0  0  0  0  0  0  0  0  0  0  0  0
  -23.0042  -38.4650   -0.8161 C   0  0  0  0  0  0  0  0  0  0  0  0
  -22.9091  -37.4536   -1.7735 C   0  0  0  0  0  0  0  0  0  0  0  0
  -23.0569  -37.7460   -3.1357 C   0  0  0  0  0  0  0  0  0  0  0  0
  -22.4475  -37.0650   -4.1925 C   0  0  0  0  0  0  0  0  0  0  0  0
  -22.6524  -37.4755   -5.5195 C   0  0  0  0  0  0  0  0  0  0  0  0
  -23.8134  -37.4136   -5.9515 O   0  0  0  0  0  0  0  0  0  0  0  0
  -21.6832  -37.8630   -6.2228 O   0  0  0  0  0  0  0  0  0  0  0  0
  -20.8214  -37.8944   -5.8563 H   0  0  0  0  0  0  0  0  0  0  0  0
  -20.9556  -31.5459   -1.4103 N   0  0  0  0  0  0  0  0  0  0  0  0
  -20.2704  -30.8862   -1.1562 H   0  0  0  0  0  0  0  0  0  0  0  0
  -20.4249  -32.1461   -3.7628 C   0  0  0  0  0  0  0  0  0  0  0  0
  -20.9667  -32.1389   -5.2084 C   0  0  0  0  0  0  0  0  0  0  0  0
  -21.1562  -30.6994   -5.7195 C   0  0  0  0  0  0  0  0  0  0  0  0
  -21.6860  -30.6747   -7.1015 N   0  0  0  0  0  0  0  0  0  0  0  0
  -22.1051  -29.9729   -4.7680 C   0  0  0  0  0  0  0  0  0  0  0  0
  -21.6136  -29.9937   -3.3054 C   0  0  0  0  0  0  0  0  0  0  0  0
  -21.4154  -31.4294   -2.8175 C   0  0  0  0  0  0  0  0  0  0  0  0
  -22.5957  -31.1354   -7.1251 H   0  0  0  0  0  0  0  0  0  0  0  0
  -21.0408  -31.1640   -7.7217 H   0  0  0  0  0  0  0  0  0  0  0  0
 21 22  1  0  0  0
 21 27  1  0  0  0
 22 23  1  0  0  0
 23 24  1  0  0  0
 23 25  1  0  0  0
 25 26  1  0  0  0
 26 27  1  0  0  0
 27 19  1  0  0  0
 19  1  1  0  0  0
  1  2  2  0  0  0
  1  3  1  0  0  0
  2  6  1  0  0  0
  3  4  2  0  0  0
  4  5  1  0  0  0
  5  6  2  0  0  0
  6  7  1  0  0  0
  7  8  1  0  0  0
  7  9  2  0  0  0
  8 12  2  0  0  0
  9 10  1  0  0  0
 10 11  2  0  0  0
 11 12  1  0  0  0
 12 13  1  0  0  0
 13 14  2  0  0  0
 14 15  1  0  0  0
 15 16  2  0  0  0
 15 17  1  0  0  0
 24 28  1  0  0  0
 24 29  1  0  0  0
 19 20  1  0  0  0
 17 18  1  0  0  0
M  END
> <minimizedAffinity>
-9.87248

$$$$
2XJ1_XJ1_A_1307


 29 31  0  0  0  0  0  0  0  0999 V2000
  -21.6009  -33.2534    0.6256 C   0  0  0  0  0  0  0  0  0  0  0  0
  -21.5098  -32.9841   -0.6930 N   0  0  0  0  0  0  0  0  0  0  0  0
  -21.2850  -32.2490    1.5452 C   0  0  0  0  0  0  0  0  0  0  0  0
  -20.9249  -31.0433    1.1093 N   0  0  0  0  0  0  0  0  0  0  0  0
  -20.8599  -30.7651   -0.2038 C   0  0  0  0  0  0  0  0  0  0  0  0
  -21.1415  -31.7609   -1.1483 C   0  0  0  0  0  0  0  0  0  0  0  0
  -21.1224  -31.5272   -2.5489 C   0  0  0  0  0  0  0  0  0  0  0  0
  -21.5316  -30.2772   -3.0197 C   0  0  0  0  0  0  0  0  0  0  0  0
  -20.6715  -32.4629   -3.4832 C   0  0  0  0  0  0  0  0  0  0  0  0
  -20.6470  -32.1485   -4.8572 C   0  0  0  0  0  0  0  0  0  0  0  0
  -21.0704  -30.8939   -5.2949 C   0  0  0  0  0  0  0  0  0  0  0  0
  -21.5349  -29.9524   -4.3751 C   0  0  0  0  0  0  0  0  0  0  0  0
  -21.9334  -28.6780   -4.7996 C   0  0  0  0  0  0  0  0  0  0  0  0
  -21.6551  -27.4722   -4.1512 C   0  0  0  0  0  0  0  0  0  0  0  0
  -22.0865  -26.2521   -4.6960 C   0  0  0  0  0  0  0  0  0  0  0  0
  -22.0052  -26.1293   -5.9275 O   0  0  0  0  0  0  0  0  0  0  0  0
  -22.5500  -25.3505   -3.9501 O   0  0  0  0  0  0  0  0  0  0  0  0
  -22.5933  -25.4851   -3.0238 H   0  0  0  0  0  0  0  0  0  0  0  0
  -21.9045  -34.4799    1.0702 N   0  0  0  0  0  0  0  0  0  0  0  0
  -22.1559  -34.5112    2.0215 H   0  0  0  0  0  0  0  0  0  0  0  0
  -22.5197  -35.6593   -1.0289 C   0  0  0  0  0  0  0  0  0  0  0  0
  -22.4288  -37.0047   -1.7807 C   0  0  0  0  0  0  0  0  0  0  0  0
  -23.2194  -38.1020   -1.0458 C   0  0  0  0  0  0  0  0  0  0  0  0
  -23.1334  -39.4021   -1.7483 N   0  0  0  0  0  0  0  0  0  0  0  0
  -22.6684  -38.2218    0.3740 C   0  0  0  0  0  0  0  0  0  0  0  0
  -22.7080  -36.8846    1.1432 C   0  0  0  0  0  0  0  0  0  0  0  0
  -21.9318  -35.8013    0.3932 C   0  0  0  0  0  0  0  0  0  0  0  0
  -22.1588  -39.6994   -1.7952 H   0  0  0  0  0  0  0  0  0  0  0  0
  -23.5045  -39.3032   -2.6932 H   0  0  0  0  0  0  0  0  0  0  0  0
 21 22  1  0  0  0
 21 27  1  0  0  0
 22 23  1  0  0  0
 23 24  1  0  0  0
 23 25  1  0  0  0
 25 26  1  0  0  0
 26 27  1  0  0  0
 27 19  1  0  0  0
 19  1  1  0  0  0
  1  2  2  0  0  0
  1  3  1  0  0  0
  2  6  1  0  0  0
  3  4  2  0  0  0
  4  5  1  0  0  0
  5  6  2  0  0  0
  6  7  1  0  0  0
  7  8  1  0  0  0
  7  9  2  0  0  0
  8 12  2  0  0  0
  9 10  1  0  0  0
 10 11  2  0  0  0
 11 12  1  0  0  0
 12 13  1  0  0  0
 13 14  2  0  0  0
 14 15  1  0  0  0
 15 16  2  0  0  0
 15 17  1  0  0  0
 24 28  1  0  0  0
 24 29  1  0  0  0
 19 20  1  0  0  0
 17 18  1  0  0  0
M  END
> <minimizedAffinity>
-9.76741

$$$$
2XJ1_XJ1_A_1307


 29 31  0  0  0  0  0  0  0  0999 V2000
  -23.0161  -35.6727   -5.0898 C   0  0  0  0  0  0  0  0  0  0  0  0
  -22.8800  -35.6398   -3.7482 N   0  0  0  0  0  0  0  0  0  0  0  0
  -22.9319  -36.9027   -5.7488 C   0  0  0  0  0  0  0  0  0  0  0  0
  -22.7443  -38.0179   -5.0456 N   0  0  0  0  0  0  0  0  0  0  0  0
  -22.6358  -37.9902   -3.7064 C   0  0  0  0  0  0  0  0  0  0  0  0
  -22.6858  -36.7686   -3.0222 C   0  0  0  0  0  0  0  0  0  0  0  0
  -22.6092  -36.6700   -1.6075 C   0  0  0  0  0  0  0  0  0  0  0  0
  -22.4190  -35.4084   -1.0386 C   0  0  0  0  0  0  0  0  0  0  0  0
  -22.7607  -37.7600   -0.7468 C   0  0  0  0  0  0  0  0  0  0  0  0
  -22.7086  -37.5818    0.6505 C   0  0  0  0  0  0  0  0  0  0  0  0
  -22.5090  -36.3097    1.1861 C   0  0  0  0  0  0  0  0  0  0  0  0
  -22.3439  -35.2124    0.3393 C   0  0  0  0  0  0  0  0  0  0  0  0
  -22.1739  -33.9253    0.8660 C   0  0  0  0  0  0  0  0  0  0  0  0
  -21.1480  -33.0342    0.5413 C   0  0  0  0  0  0  0  0  0  0  0  0
  -21.1041  -31.7547    1.1180 C   0  0  0  0  0  0  0  0  0  0  0  0
  -20.5920  -30.8521    0.4388 O   0  0  0  0  0  0  0  0  0  0  0  0
  -21.5883  -31.5555    2.2626 O   0  0  0  0  0  0  0  0  0  0  0  0
  -21.9660  -32.2667    2.7417 H   0  0  0  0  0  0  0  0  0  0  0  0
  -23.1452  -34.5495   -5.8081 N   0  0  0  0  0  0  0  0  0  0  0  0
  -24.0379  -34.4274   -6.2050 H   0  0  0  0  0  0  0  0  0  0  0  0
  -22.1739  -32.4229   -4.9657 C   0  0  0  0  0  0  0  0  0  0  0  0
  -21.0897  -31.3544   -5.2229 C   0  0  0  0  0  0  0  0  0  0  0  0
  -21.3603  -30.5987   -6.5362 C   0  0  0  0  0  0  0  0  0  0  0  0
  -20.3229  -29.5771   -6.8035 N   0  0  0  0  0  0  0  0  0  0  0  0
  -21.4161  -31.6170   -7.6736 C   0  0  0  0  0  0  0  0  0  0  0  0
  -22.4639  -32.7237   -7.4315 C   0  0  0  0  0  0  0  0  0  0  0  0
  -22.1908  -33.4545   -6.1162 C   0  0  0  0  0  0  0  0  0  0  0  0
  -19.4130  -30.0304   -6.8873 H   0  0  0  0  0  0  0  0  0  0  0  0
  -20.2996  -28.9071   -6.0348 H   0  0  0  0  0  0  0  0  0  0  0  0
 21 22  1  0  0  0
 21 27  1  0  0  0
 22 23  1  0  0  0
 23 24  1  0  0  0
 23 25  1  0  0  0
 25 26  1  0  0  0
 26 27  1  0  0  0
 27 19  1  0  0  0
 19  1  1  0  0  0
  1  2  2  0  0  0
  1  3  1  0  0  0
  2  6  1  0  0  0
  3  4  2  0  0  0
  4  5  1  0  0  0
  5  6  2  0  0  0
  6  7  1  0  0  0
  7  8  1  0  0  0
  7  9  2  0  0  0
  8 12  2  0  0  0
  9 10  1  0  0  0
 10 11  2  0  0  0
 11 12  1  0  0  0
 12 13  1  0  0  0
 13 14  2  0  0  0
 14 15  1  0  0  0
 15 16  2  0  0  0
 15 17  1  0  0  0
 24 28  1  0  0  0
 24 29  1  0  0  0
 19 20  1  0  0  0
 17 18  1  0  0  0
M  END
> <minimizedAffinity>
-9.60171

$$$$
2XJ1_XJ1_A_1307


 29 31  0  0  0  0  0  0  0  0999 V2000
  -22.8172  -37.2590   -3.6490 C   0  0  0  0  0  0  0  0  0  0  0  0
  -22.6045  -36.5508   -2.5208 N   0  0  0  0  0  0  0  0  0  0  0  0
  -23.0968  -38.6249   -3.5483 C   0  0  0  0  0  0  0  0  0  0  0  0
  -23.1725  -39.1974   -2.3483 N   0  0  0  0  0  0  0  0  0  0  0  0
  -22.9879  -38.4878   -1.2221 C   0  0  0  0  0  0  0  0  0  0  0  0
  -22.6761  -37.1237   -1.2938 C   0  0  0  0  0  0  0  0  0  0  0  0
  -22.4993  -36.3086   -0.1444 C   0  0  0  0  0  0  0  0  0  0  0  0
  -22.1122  -34.9788   -0.3259 C   0  0  0  0  0  0  0  0  0  0  0  0
  -22.7369  -36.7489    1.1601 C   0  0  0  0  0  0  0  0  0  0  0  0
  -22.5751  -35.8726    2.2524 C   0  0  0  0  0  0  0  0  0  0  0  0
  -22.1794  -34.5528    2.0371 C   0  0  0  0  0  0  0  0  0  0  0  0
  -21.9265  -34.1010    0.7408 C   0  0  0  0  0  0  0  0  0  0  0  0
  -21.5586  -32.7691    0.5096 C   0  0  0  0  0  0  0  0  0  0  0  0
  -21.2848  -32.1972   -0.7353 C   0  0  0  0  0  0  0  0  0  0  0  0
  -20.9543  -30.8365   -0.8391 C   0  0  0  0  0  0  0  0  0  0  0  0
  -20.2989  -30.3471    0.0932 O   0  0  0  0  0  0  0  0  0  0  0  0
  -21.3000  -30.1729   -1.8512 O   0  0  0  0  0  0  0  0  0  0  0  0
  -21.7952  -30.5824   -2.5331 H   0  0  0  0  0  0  0  0  0  0  0  0
  -22.6840  -36.7027   -4.8602 N   0  0  0  0  0  0  0  0  0  0  0  0
  -22.9387  -37.2952   -5.6041 H   0  0  0  0  0  0  0  0  0  0  0  0
  -22.6940  -34.2868   -4.2782 C   0  0  0  0  0  0  0  0  0  0  0  0
  -22.1072  -32.9080   -4.6500 C   0  0  0  0  0  0  0  0  0  0  0  0
  -22.5660  -32.4734   -6.0535 C   0  0  0  0  0  0  0  0  0  0  0  0
  -22.0029  -31.1572   -6.4301 N   0  0  0  0  0  0  0  0  0  0  0  0
  -22.1369  -33.5462   -7.0527 C   0  0  0  0  0  0  0  0  0  0  0  0
  -22.6742  -34.9468   -6.6905 C   0  0  0  0  0  0  0  0  0  0  0  0
  -22.2231  -35.3575   -5.2882 C   0  0  0  0  0  0  0  0  0  0  0  0
  -20.9844  -31.2132   -6.4392 H   0  0  0  0  0  0  0  0  0  0  0  0
  -22.2987  -30.4544   -5.7527 H   0  0  0  0  0  0  0  0  0  0  0  0
 21 22  1  0  0  0
 21 27  1  0  0  0
 22 23  1  0  0  0
 23 24  1  0  0  0
 23 25  1  0  0  0
 25 26  1  0  0  0
 26 27  1  0  0  0
 27 19  1  0  0  0
 19  1  1  0  0  0
  1  2  2  0  0  0
  1  3  1  0  0  0
  2  6  1  0  0  0
  3  4  2  0  0  0
  4  5  1  0  0  0
  5  6  2  0  0  0
  6  7  1  0  0  0
  7  8  1  0  0  0
  7  9  2  0  0  0
  8 12  2  0  0  0
  9 10  1  0  0  0
 10 11  2  0  0  0
 11 12  1  0  0  0
 12 13  1  0  0  0
 13 14  2  0  0  0
 14 15  1  0  0  0
 15 16  2  0  0  0
 15 17  1  0  0  0
 24 28  1  0  0  0
 24 29  1  0  0  0
 19 20  1  0  0  0
 17 18  1  0  0  0
M  END
> <minimizedAffinity>
-9.36786

$$$$
2XJ1_XJ1_A_1307


 29 31  0  0  0  0  0  0  0  0999 V2000
  -21.4739  -33.4902    0.2209 C   0  0  0  0  0  0  0  0  0  0  0  0
  -21.5482  -32.9403   -1.0087 N   0  0  0  0  0  0  0  0  0  0  0  0
  -20.9918  -32.7163    1.2806 C   0  0  0  0  0  0  0  0  0  0  0  0
  -20.6385  -31.4502    1.0672 N   0  0  0  0  0  0  0  0  0  0  0  0
  -20.7374  -30.8925   -0.1515 C   0  0  0  0  0  0  0  0  0  0  0  0
  -21.1884  -31.6531   -1.2382 C   0  0  0  0  0  0  0  0  0  0  0  0
  -21.3465  -31.1189   -2.5445 C   0  0  0  0  0  0  0  0  0  0  0  0
  -21.3242  -31.9986   -3.6295 C   0  0  0  0  0  0  0  0  0  0  0  0
  -21.5711  -29.7647   -2.8045 C   0  0  0  0  0  0  0  0  0  0  0  0
  -21.7552  -29.3101   -4.1260 C   0  0  0  0  0  0  0  0  0  0  0  0
  -21.7188  -30.2137   -5.1877 C   0  0  0  0  0  0  0  0  0  0  0  0
  -21.4835  -31.5681   -4.9455 C   0  0  0  0  0  0  0  0  0  0  0  0
  -21.4756  -32.4896   -6.0008 C   0  0  0  0  0  0  0  0  0  0  0  0
  -22.4392  -33.4727   -6.2396 C   0  0  0  0  0  0  0  0  0  0  0  0
  -22.3339  -34.3202   -7.3541 C   0  0  0  0  0  0  0  0  0  0  0  0
  -23.3957  -34.7130   -7.8607 O   0  0  0  0  0  0  0  0  0  0  0  0
  -21.2038  -34.6336   -7.8109 O   0  0  0  0  0  0  0  0  0  0  0  0
  -20.4262  -34.3144   -7.3969 H   0  0  0  0  0  0  0  0  0  0  0  0
  -21.7711  -34.7793    0.4303 N   0  0  0  0  0  0  0  0  0  0  0  0
  -21.9847  -34.9949    1.3669 H   0  0  0  0  0  0  0  0  0  0  0  0
  -22.5511  -35.5457   -1.8013 C   0  0  0  0  0  0  0  0  0  0  0  0
  -22.5064  -36.7149   -2.8085 C   0  0  0  0  0  0  0  0  0  0  0  0
  -23.2124  -37.9593   -2.2410 C   0  0  0  0  0  0  0  0  0  0  0  0
  -23.1690  -39.0939   -3.1907 N   0  0  0  0  0  0  0  0  0  0  0  0
  -22.5367  -38.3361   -0.9238 C   0  0  0  0  0  0  0  0  0  0  0  0
  -22.5285  -37.1766    0.0946 C   0  0  0  0  0  0  0  0  0  0  0  0
  -21.8379  -35.9434   -0.4893 C   0  0  0  0  0  0  0  0  0  0  0  0
  -22.1979  -39.3448   -3.3764 H   0  0  0  0  0  0  0  0  0  0  0  0
  -23.6234  -38.8245   -4.0632 H   0  0  0  0  0  0  0  0  0  0  0  0
 21 22  1  0  0  0
 21 27  1  0  0  0
 22 23  1  0  0  0
 23 24  1  0  0  0
 23 25  1  0  0  0
 25 26  1  0  0  0
 26 27  1  0  0  0
 27 19  1  0  0  0
 19  1  1  0  0  0
  1  2  2  0  0  0
  1  3  1  0  0  0
  2  6  1  0  0  0
  3  4  2  0  0  0
  4  5  1  0  0  0
  5  6  2  0  0  0
  6  7  1  0  0  0
  7  8  1  0  0  0
  7  9  2  0  0  0
  8 12  2  0  0  0
  9 10  1  0  0  0
 10 11  2  0  0  0
 11 12  1  0  0  0
 12 13  1  0  0  0
 13 14  2  0  0  0
 14 15  1  0  0  0
 15 16  2  0  0  0
 15 17  1  0  0  0
 24 28  1  0  0  0
 24 29  1  0  0  0
 19 20  1  0  0  0
 17 18  1  0  0  0
M  END
> <minimizedAffinity>
-9.27960

$$$$
2XJ1_XJ1_A_1307


 29 31  0  0  0  0  0  0  0  0999 V2000
  -21.9238  -34.1043   -5.2886 C   0  0  0  0  0  0  0  0  0  0  0  0
  -21.9062  -33.7685   -3.9822 N   0  0  0  0  0  0  0  0  0  0  0  0
  -21.3036  -33.2590   -6.2133 C   0  0  0  0  0  0  0  0  0  0  0  0
  -20.6885  -32.1558   -5.7915 N   0  0  0  0  0  0  0  0  0  0  0  0
  -20.6464  -31.8337   -4.4875 C   0  0  0  0  0  0  0  0  0  0  0  0
  -21.2854  -32.6462   -3.5417 C   0  0  0  0  0  0  0  0  0  0  0  0
  -21.2539  -32.3820   -2.1467 C   0  0  0  0  0  0  0  0  0  0  0  0
  -21.5562  -33.4234   -1.2661 C   0  0  0  0  0  0  0  0  0  0  0  0
  -20.8906  -31.1482   -1.6011 C   0  0  0  0  0  0  0  0  0  0  0  0
  -20.8467  -30.9680   -0.2037 C   0  0  0  0  0  0  0  0  0  0  0  0
  -21.1625  -32.0264    0.6479 C   0  0  0  0  0  0  0  0  0  0  0  0
  -21.5390  -33.2618    0.1182 C   0  0  0  0  0  0  0  0  0  0  0  0
  -21.8283  -34.3409    0.9636 C   0  0  0  0  0  0  0  0  0  0  0  0
  -22.4362  -35.5405    0.5849 C   0  0  0  0  0  0  0  0  0  0  0  0
  -22.6459  -36.5627    1.5244 C   0  0  0  0  0  0  0  0  0  0  0  0
  -22.9857  -37.6698    1.0803 O   0  0  0  0  0  0  0  0  0  0  0  0
  -22.4691  -36.3455    2.7515 O   0  0  0  0  0  0  0  0  0  0  0  0
  -22.2122  -35.4933    3.0441 H   0  0  0  0  0  0  0  0  0  0  0  0
  -22.5911  -35.1803   -5.7258 N   0  0  0  0  0  0  0  0  0  0  0  0
  -23.2939  -34.9764   -6.3843 H   0  0  0  0  0  0  0  0  0  0  0  0
  -22.7972  -37.4804   -6.6438 C   0  0  0  0  0  0  0  0  0  0  0  0
  -22.5425  -38.9737   -6.3459 C   0  0  0  0  0  0  0  0  0  0  0  0
  -23.4240  -39.4624   -5.1826 C   0  0  0  0  0  0  0  0  0  0  0  0
  -23.1840  -40.8907   -4.8767 N   0  0  0  0  0  0  0  0  0  0  0  0
  -23.1299  -38.5952   -3.9598 C   0  0  0  0  0  0  0  0  0  0  0  0
  -23.3369  -37.0905   -4.2330 C   0  0  0  0  0  0  0  0  0  0  0  0
  -22.4665  -36.6239   -5.4007 C   0  0  0  0  0  0  0  0  0  0  0  0
  -22.2096  -41.0211   -4.6047 H   0  0  0  0  0  0  0  0  0  0  0  0
  -23.3846  -41.4538   -5.7032 H   0  0  0  0  0  0  0  0  0  0  0  0
 21 22  1  0  0  0
 21 27  1  0  0  0
 22 23  1  0  0  0
 23 24  1  0  0  0
 23 25  1  0  0  0
 25 26  1  0  0  0
 26 27  1  0  0  0
 27 19  1  0  0  0
 19  1  1  0  0  0
  1  2  2  0  0  0
  1  3  1  0  0  0
  2  6  1  0  0  0
  3  4  2  0  0  0
  4  5  1  0  0  0
  5  6  2  0  0  0
  6  7  1  0  0  0
  7  8  1  0  0  0
  7  9  2  0  0  0
  8 12  2  0  0  0
  9 10  1  0  0  0
 10 11  2  0  0  0
 11 12  1  0  0  0
 12 13  1  0  0  0
 13 14  2  0  0  0
 14 15  1  0  0  0
 15 16  2  0  0  0
 15 17  1  0  0  0
 24 28  1  0  0  0
 24 29  1  0  0  0
 19 20  1  0  0  0
 17 18  1  0  0  0
M  END
> <minimizedAffinity>
-9.20431

$$$$
2XJ1_XJ1_A_1307


 29 31  0  0  0  0  0  0  0  0999 V2000
  -22.1080  -35.3055   -4.6067 C   0  0  0  0  0  0  0  0  0  0  0  0
  -22.3658  -35.6082   -3.3177 N   0  0  0  0  0  0  0  0  0  0  0  0
  -21.2154  -34.2685   -4.8932 C   0  0  0  0  0  0  0  0  0  0  0  0
  -20.6188  -33.6160   -3.8974 N   0  0  0  0  0  0  0  0  0  0  0  0
  -20.8535  -33.9342   -2.6131 C   0  0  0  0  0  0  0  0  0  0  0  0
  -21.7664  -34.9486   -2.2956 C   0  0  0  0  0  0  0  0  0  0  0  0
  -22.0378  -35.3564   -0.9627 C   0  0  0  0  0  0  0  0  0  0  0  0
  -21.9344  -34.4071    0.0569 C   0  0  0  0  0  0  0  0  0  0  0  0
  -22.4497  -36.6459   -0.6170 C   0  0  0  0  0  0  0  0  0  0  0  0
  -22.7368  -36.9705    0.7244 C   0  0  0  0  0  0  0  0  0  0  0  0
  -22.6154  -36.0011    1.7197 C   0  0  0  0  0  0  0  0  0  0  0  0
  -22.1935  -34.7115    1.3921 C   0  0  0  0  0  0  0  0  0  0  0  0
  -22.0978  -33.7212    2.3785 C   0  0  0  0  0  0  0  0  0  0  0  0
  -21.8656  -32.3614    2.1570 C   0  0  0  0  0  0  0  0  0  0  0  0
  -21.8211  -31.4599    3.2326 C   0  0  0  0  0  0  0  0  0  0  0  0
  -22.8333  -31.3895    3.9459 O   0  0  0  0  0  0  0  0  0  0  0  0
  -20.7832  -30.7832    3.4534 O   0  0  0  0  0  0  0  0  0  0  0  0
  -20.0402  -30.8672    2.8886 H   0  0  0  0  0  0  0  0  0  0  0  0
  -22.7490  -35.9175   -5.6111 N   0  0  0  0  0  0  0  0  0  0  0  0
  -23.0227  -35.3141   -6.3392 H   0  0  0  0  0  0  0  0  0  0  0  0
  -23.2010  -37.6421   -7.3423 C   0  0  0  0  0  0  0  0  0  0  0  0
  -23.4611  -39.1465   -7.5714 C   0  0  0  0  0  0  0  0  0  0  0  0
  -24.7910  -39.5806   -6.9293 C   0  0  0  0  0  0  0  0  0  0  0  0
  -25.0505  -41.0239   -7.1305 N   0  0  0  0  0  0  0  0  0  0  0  0
  -24.7360  -39.2480   -5.4393 C   0  0  0  0  0  0  0  0  0  0  0  0
  -24.4388  -37.7575   -5.1721 C   0  0  0  0  0  0  0  0  0  0  0  0
  -23.1231  -37.3379   -5.8291 C   0  0  0  0  0  0  0  0  0  0  0  0
  -24.3039  -41.5672   -6.6972 H   0  0  0  0  0  0  0  0  0  0  0  0
  -25.0833  -41.2274   -8.1295 H   0  0  0  0  0  0  0  0  0  0  0  0
 21 22  1  0  0  0
 21 27  1  0  0  0
 22 23  1  0  0  0
 23 24  1  0  0  0
 23 25  1  0  0  0
 25 26  1  0  0  0
 26 27  1  0  0  0
 27 19  1  0  0  0
 19  1  1  0  0  0
  1  2  2  0  0  0
  1  3  1  0  0  0
  2  6  1  0  0  0
  3  4  2  0  0  0
  4  5  1  0  0  0
  5  6  2  0  0  0
  6  7  1  0  0  0
  7  8  1  0  0  0
  7  9  2  0  0  0
  8 12  2  0  0  0
  9 10  1  0  0  0
 10 11  2  0  0  0
 11 12  1  0  0  0
 12 13  1  0  0  0
 13 14  2  0  0  0
 14 15  1  0  0  0
 15 16  2  0  0  0
 15 17  1  0  0  0
 24 28  1  0  0  0
 24 29  1  0  0  0
 19 20  1  0  0  0
 17 18  1  0  0  0
M  END
> <minimizedAffinity>
-8.78232

$$$$
