4XY8_43U_A_201


 22 24  0  0  0  0  0  0  0  0999 V2000
   14.9392   23.3805  -20.3892 C   0  0  0  0  0  0  0  0  0  0  0  0
   17.7541   24.5568  -18.4864 C   0  0  0  0  0  0  0  0  0  0  0  0
   16.7070   23.9766  -19.1835 C   0  0  0  0  0  0  0  0  0  0  0  0
   16.6224   22.6103  -19.2670 C   0  0  0  0  0  0  0  0  0  0  0  0
   18.4520   22.3275  -17.9742 C   0  0  0  0  0  0  0  0  0  0  0  0
   19.3425   21.5548  -17.3293 N   0  0  0  0  0  0  0  0  0  0  0  0
   18.5780   23.6542  -17.8529 N   0  0  0  0  0  0  0  0  0  0  0  0
   15.5481   22.2518  -20.0181 N   0  0  0  0  0  0  0  0  0  0  0  0
   17.4934   21.7868  -18.6676 N   0  0  0  0  0  0  0  0  0  0  0  0
   15.6063   24.4331  -19.9226 N   0  0  0  0  0  0  0  0  0  0  0  0
   20.0660   21.9693  -16.8059 H   0  0  0  0  0  0  0  0  0  0  0  0
   19.2715   20.5742  -17.3804 H   0  0  0  0  0  0  0  0  0  0  0  0
   15.2716   21.3347  -20.2453 H   0  0  0  0  0  0  0  0  0  0  0  0
   18.3194   28.2092  -18.9861 C   0  0  0  0  0  0  0  0  0  0  0  0
   18.0767   26.8913  -19.3065 C   0  0  0  0  0  0  0  0  0  0  0  0
   17.9599   25.9612  -18.2181 C   0  0  0  0  0  0  0  0  0  0  0  0
   18.5039   28.6914  -17.7089 C   0  0  0  0  0  0  0  0  0  0  0  0
   18.3826   29.4571  -20.3901 Br  0  0  0  0  0  0  0  0  0  0  0  0
   18.3995   27.8108  -16.6403 C   0  0  0  0  0  0  0  0  0  0  0  0
   18.1523   26.4855  -16.9077 C   0  0  0  0  0  0  0  0  0  0  0  0
   17.9766   25.5974  -15.9056 O   0  0  0  0  0  0  0  0  0  0  0  0
   18.1219   25.9817  -14.5120 C   0  0  0  0  0  0  0  0  0  0  0  0
 18 14  1  0  0  0
  6  5  1  0  0  0
  5  7  2  0  0  0
  5  9  1  0  0  0
 15 14  2  0  0  0
 15 16  1  0  0  0
  7  2  1  0  0  0
 14 17  1  0  0  0
  9  4  2  0  0  0
  2 16  1  0  0  0
  2  3  2  0  0  0
 16 20  2  0  0  0
 17 19  2  0  0  0
  4  3  1  0  0  0
  4  8  1  0  0  0
  3 10  1  0  0  0
  8  1  1  0  0  0
 20 19  1  0  0  0
 20 21  1  0  0  0
 10  1  2  0  0  0
 21 22  1  0  0  0
  6 11  1  0  0  0
  6 12  1  0  0  0
  8 13  1  0  0  0
M  END
> <minimizedAffinity>
-8.05636

$$$$
4XY8_43U_A_201


 22 24  0  0  0  0  0  0  0  0999 V2000
   19.3182   21.7250  -17.2709 C   0  0  0  0  0  0  0  0  0  0  0  0
   17.3863   24.4679  -18.5638 C   0  0  0  0  0  0  0  0  0  0  0  0
   18.0515   23.3286  -18.1416 C   0  0  0  0  0  0  0  0  0  0  0  0
   17.5975   22.0945  -18.5313 C   0  0  0  0  0  0  0  0  0  0  0  0
   15.9472   22.9961  -19.7812 C   0  0  0  0  0  0  0  0  0  0  0  0
   14.9025   22.8946  -20.6205 N   0  0  0  0  0  0  0  0  0  0  0  0
   16.3519   24.2249  -19.4390 N   0  0  0  0  0  0  0  0  0  0  0  0
   18.3668   21.1172  -17.9836 N   0  0  0  0  0  0  0  0  0  0  0  0
   16.5466   21.9269  -19.3458 N   0  0  0  0  0  0  0  0  0  0  0  0
   19.1580   23.0447  -17.3285 N   0  0  0  0  0  0  0  0  0  0  0  0
   14.4526   23.7072  -20.9469 H   0  0  0  0  0  0  0  0  0  0  0  0
   14.5872   22.0077  -20.9090 H   0  0  0  0  0  0  0  0  0  0  0  0
   18.2457   20.1462  -18.0918 H   0  0  0  0  0  0  0  0  0  0  0  0
   18.2930   28.0372  -19.1531 C   0  0  0  0  0  0  0  0  0  0  0  0
   17.8844   26.7522  -19.4360 C   0  0  0  0  0  0  0  0  0  0  0  0
   17.7631   25.8428  -18.3307 C   0  0  0  0  0  0  0  0  0  0  0  0
   18.6373   28.5002  -17.9022 C   0  0  0  0  0  0  0  0  0  0  0  0
   18.3679   29.2674  -20.5721 Br  0  0  0  0  0  0  0  0  0  0  0  0
   18.5319   27.6387  -16.8182 C   0  0  0  0  0  0  0  0  0  0  0  0
   18.1226   26.3469  -17.0477 C   0  0  0  0  0  0  0  0  0  0  0  0
   17.9401   25.4854  -16.0239 O   0  0  0  0  0  0  0  0  0  0  0  0
   18.0841   25.9043  -14.6402 C   0  0  0  0  0  0  0  0  0  0  0  0
 18 14  1  0  0  0
  6  5  1  0  0  0
  5  7  2  0  0  0
  5  9  1  0  0  0
 15 14  2  0  0  0
 15 16  1  0  0  0
  7  2  1  0  0  0
 14 17  1  0  0  0
  9  4  2  0  0  0
  2 16  1  0  0  0
  2  3  2  0  0  0
 16 20  2  0  0  0
 17 19  2  0  0  0
  4  3  1  0  0  0
  4  8  1  0  0  0
  3 10  1  0  0  0
  8  1  1  0  0  0
 20 19  1  0  0  0
 20 21  1  0  0  0
 10  1  2  0  0  0
 21 22  1  0  0  0
  6 11  1  0  0  0
  6 12  1  0  0  0
  8 13  1  0  0  0
M  END
> <minimizedAffinity>
-7.93161

$$$$
4XY8_43U_A_201


 22 24  0  0  0  0  0  0  0  0999 V2000
   18.9774   21.7626  -17.3178 C   0  0  0  0  0  0  0  0  0  0  0  0
   17.2177   24.4554  -18.9241 C   0  0  0  0  0  0  0  0  0  0  0  0
   17.8104   23.3324  -18.3704 C   0  0  0  0  0  0  0  0  0  0  0  0
   17.2713   22.0940  -18.6083 C   0  0  0  0  0  0  0  0  0  0  0  0
   15.6708   22.9490  -19.9521 C   0  0  0  0  0  0  0  0  0  0  0  0
   14.6125   22.8187  -20.7701 N   0  0  0  0  0  0  0  0  0  0  0  0
   16.1600   24.1798  -19.7607 N   0  0  0  0  0  0  0  0  0  0  0  0
   17.9800   21.1396  -17.9498 N   0  0  0  0  0  0  0  0  0  0  0  0
   16.2026   21.9015  -19.3937 N   0  0  0  0  0  0  0  0  0  0  0  0
   18.9046   23.0738  -17.5325 N   0  0  0  0  0  0  0  0  0  0  0  0
   14.2139   23.6149  -21.1901 H   0  0  0  0  0  0  0  0  0  0  0  0
   14.2358   21.9269  -20.9493 H   0  0  0  0  0  0  0  0  0  0  0  0
   17.7935   20.1729  -17.9406 H   0  0  0  0  0  0  0  0  0  0  0  0
   18.9145   27.5608  -17.7465 C   0  0  0  0  0  0  0  0  0  0  0  0
   18.5391   26.2356  -17.7787 C   0  0  0  0  0  0  0  0  0  0  0  0
   17.6876   25.8199  -18.8583 C   0  0  0  0  0  0  0  0  0  0  0  0
   18.4990   28.5224  -18.6412 C   0  0  0  0  0  0  0  0  0  0  0  0
   20.1032   28.1043  -16.3958 Br  0  0  0  0  0  0  0  0  0  0  0  0
   17.6725   28.1457  -19.6915 C   0  0  0  0  0  0  0  0  0  0  0  0
   17.2744   26.8325  -19.7710 C   0  0  0  0  0  0  0  0  0  0  0  0
   16.5245   26.3971  -20.8063 O   0  0  0  0  0  0  0  0  0  0  0  0
   15.5465   27.2549  -21.4531 C   0  0  0  0  0  0  0  0  0  0  0  0
 18 14  1  0  0  0
  6  5  1  0  0  0
  5  7  2  0  0  0
  5  9  1  0  0  0
 15 14  2  0  0  0
 15 16  1  0  0  0
  7  2  1  0  0  0
 14 17  1  0  0  0
  9  4  2  0  0  0
  2 16  1  0  0  0
  2  3  2  0  0  0
 16 20  2  0  0  0
 17 19  2  0  0  0
  4  3  1  0  0  0
  4  8  1  0  0  0
  3 10  1  0  0  0
  8  1  1  0  0  0
 20 19  1  0  0  0
 20 21  1  0  0  0
 10  1  2  0  0  0
 21 22  1  0  0  0
  6 11  1  0  0  0
  6 12  1  0  0  0
  8 13  1  0  0  0
M  END
> <minimizedAffinity>
-6.54312

$$$$
4XY8_43U_A_201


 22 24  0  0  0  0  0  0  0  0999 V2000
   13.1678   23.7152  -22.0300 C   0  0  0  0  0  0  0  0  0  0  0  0
   15.8690   25.5785  -20.5604 C   0  0  0  0  0  0  0  0  0  0  0  0
   14.8085   24.9680  -21.2098 C   0  0  0  0  0  0  0  0  0  0  0  0
   14.0979   25.6661  -22.1524 C   0  0  0  0  0  0  0  0  0  0  0  0
   15.4253   27.4804  -21.9407 C   0  0  0  0  0  0  0  0  0  0  0  0
   15.7956   28.7270  -22.2795 N   0  0  0  0  0  0  0  0  0  0  0  0
   16.1582   26.8434  -21.0198 N   0  0  0  0  0  0  0  0  0  0  0  0
   13.0865   24.9002  -22.6396 N   0  0  0  0  0  0  0  0  0  0  0  0
   14.4019   26.9197  -22.5154 N   0  0  0  0  0  0  0  0  0  0  0  0
   14.1742   23.7185  -21.1594 N   0  0  0  0  0  0  0  0  0  0  0  0
   16.5709   29.1465  -21.8413 H   0  0  0  0  0  0  0  0  0  0  0  0
   15.2915   29.2208  -22.9661 H   0  0  0  0  0  0  0  0  0  0  0  0
   12.4208   25.1681  -23.3136 H   0  0  0  0  0  0  0  0  0  0  0  0
   17.5076   23.0998  -18.3065 C   0  0  0  0  0  0  0  0  0  0  0  0
   16.6377   23.5977  -19.2518 C   0  0  0  0  0  0  0  0  0  0  0  0
   16.7798   24.9812  -19.6116 C   0  0  0  0  0  0  0  0  0  0  0  0
   18.4682   23.8370  -17.6496 C   0  0  0  0  0  0  0  0  0  0  0  0
   17.3992   21.2700  -17.8906 Br  0  0  0  0  0  0  0  0  0  0  0  0
   18.6223   25.1775  -17.9774 C   0  0  0  0  0  0  0  0  0  0  0  0
   17.7819   25.7204  -18.9197 C   0  0  0  0  0  0  0  0  0  0  0  0
   17.9287   27.0005  -19.3240 O   0  0  0  0  0  0  0  0  0  0  0  0
   18.3059   28.0541  -18.3976 C   0  0  0  0  0  0  0  0  0  0  0  0
 18 14  1  0  0  0
  6  5  1  0  0  0
  5  7  2  0  0  0
  5  9  1  0  0  0
 15 14  2  0  0  0
 15 16  1  0  0  0
  7  2  1  0  0  0
 14 17  1  0  0  0
  9  4  2  0  0  0
  2 16  1  0  0  0
  2  3  2  0  0  0
 16 20  2  0  0  0
 17 19  2  0  0  0
  4  3  1  0  0  0
  4  8  1  0  0  0
  3 10  1  0  0  0
  8  1  1  0  0  0
 20 19  1  0  0  0
 20 21  1  0  0  0
 10  1  2  0  0  0
 21 22  1  0  0  0
  6 11  1  0  0  0
  6 12  1  0  0  0
  8 13  1  0  0  0
M  END
> <minimizedAffinity>
-6.18070

$$$$
4XY8_43U_A_201


 22 24  0  0  0  0  0  0  0  0999 V2000
   17.1851   21.1640  -18.4791 C   0  0  0  0  0  0  0  0  0  0  0  0
   16.9101   24.6563  -19.2889 C   0  0  0  0  0  0  0  0  0  0  0  0
   17.0983   23.3482  -18.8736 C   0  0  0  0  0  0  0  0  0  0  0  0
   17.9764   23.0798  -17.8549 C   0  0  0  0  0  0  0  0  0  0  0  0
   18.4402   25.2693  -17.5562 C   0  0  0  0  0  0  0  0  0  0  0  0
   19.0657   26.2749  -16.9209 N   0  0  0  0  0  0  0  0  0  0  0  0
   17.5893   25.5891  -18.5384 N   0  0  0  0  0  0  0  0  0  0  0  0
   18.0367   21.7412  -17.6282 N   0  0  0  0  0  0  0  0  0  0  0  0
   18.6487   24.0360  -17.1995 N   0  0  0  0  0  0  0  0  0  0  0  0
   16.6141   22.0869  -19.2489 N   0  0  0  0  0  0  0  0  0  0  0  0
   18.9042   27.2065  -17.1951 H   0  0  0  0  0  0  0  0  0  0  0  0
   19.6855   26.0798  -16.1813 H   0  0  0  0  0  0  0  0  0  0  0  0
   18.6009   21.2842  -16.9633 H   0  0  0  0  0  0  0  0  0  0  0  0
   14.0847   24.7849  -21.7199 C   0  0  0  0  0  0  0  0  0  0  0  0
   14.9174   24.2829  -20.7437 C   0  0  0  0  0  0  0  0  0  0  0  0
   15.9722   25.1386  -20.2761 C   0  0  0  0  0  0  0  0  0  0  0  0
   14.2155   26.0221  -22.3114 C   0  0  0  0  0  0  0  0  0  0  0  0
   12.6424   23.7169  -22.2782 Br  0  0  0  0  0  0  0  0  0  0  0  0
   15.2299   26.8660  -21.8789 C   0  0  0  0  0  0  0  0  0  0  0  0
   16.0842   26.4133  -20.9020 C   0  0  0  0  0  0  0  0  0  0  0  0
   17.0474   27.2145  -20.3979 O   0  0  0  0  0  0  0  0  0  0  0  0
   17.0370   28.6505  -20.6181 C   0  0  0  0  0  0  0  0  0  0  0  0
 18 14  1  0  0  0
  6  5  1  0  0  0
  5  7  2  0  0  0
  5  9  1  0  0  0
 15 14  2  0  0  0
 15 16  1  0  0  0
  7  2  1  0  0  0
 14 17  1  0  0  0
  9  4  2  0  0  0
  2 16  1  0  0  0
  2  3  2  0  0  0
 16 20  2  0  0  0
 17 19  2  0  0  0
  4  3  1  0  0  0
  4  8  1  0  0  0
  3 10  1  0  0  0
  8  1  1  0  0  0
 20 19  1  0  0  0
 20 21  1  0  0  0
 10  1  2  0  0  0
 21 22  1  0  0  0
  6 11  1  0  0  0
  6 12  1  0  0  0
  8 13  1  0  0  0
M  END
> <minimizedAffinity>
-6.04029

$$$$
4XY8_43U_A_201


 22 24  0  0  0  0  0  0  0  0999 V2000
   15.7482   28.4493  -22.4371 C   0  0  0  0  0  0  0  0  0  0  0  0
   15.6192   25.3435  -20.6301 C   0  0  0  0  0  0  0  0  0  0  0  0
   15.5498   26.5036  -21.3839 C   0  0  0  0  0  0  0  0  0  0  0  0
   14.5376   26.6602  -22.2960 C   0  0  0  0  0  0  0  0  0  0  0  0
   13.6060   24.6806  -21.7377 C   0  0  0  0  0  0  0  0  0  0  0  0
   12.6501   23.7431  -21.8538 N   0  0  0  0  0  0  0  0  0  0  0  0
   14.5660   24.4794  -20.8273 N   0  0  0  0  0  0  0  0  0  0  0  0
   14.6727   27.8450  -22.9478 N   0  0  0  0  0  0  0  0  0  0  0  0
   13.5699   25.7509  -22.4761 N   0  0  0  0  0  0  0  0  0  0  0  0
   16.3081   27.6763  -21.5099 N   0  0  0  0  0  0  0  0  0  0  0  0
   12.6824   22.9350  -21.2924 H   0  0  0  0  0  0  0  0  0  0  0  0
   11.9175   23.8645  -22.5002 H   0  0  0  0  0  0  0  0  0  0  0  0
   14.0888   28.1917  -23.6606 H   0  0  0  0  0  0  0  0  0  0  0  0
   18.2074   25.7343  -17.9734 C   0  0  0  0  0  0  0  0  0  0  0  0
   17.3001   26.0946  -18.9458 C   0  0  0  0  0  0  0  0  0  0  0  0
   16.5514   25.0392  -19.5694 C   0  0  0  0  0  0  0  0  0  0  0  0
   18.4825   24.4404  -17.5891 C   0  0  0  0  0  0  0  0  0  0  0  0
   19.1290   27.1074  -17.0802 Br  0  0  0  0  0  0  0  0  0  0  0  0
   17.7743   23.4025  -18.1803 C   0  0  0  0  0  0  0  0  0  0  0  0
   16.8530   23.7109  -19.1524 C   0  0  0  0  0  0  0  0  0  0  0  0
   16.0901   22.7486  -19.7145 O   0  0  0  0  0  0  0  0  0  0  0  0
   15.3548   21.7902  -18.9075 C   0  0  0  0  0  0  0  0  0  0  0  0
 18 14  1  0  0  0
  6  5  1  0  0  0
  5  7  2  0  0  0
  5  9  1  0  0  0
 15 14  2  0  0  0
 15 16  1  0  0  0
  7  2  1  0  0  0
 14 17  1  0  0  0
  9  4  2  0  0  0
  2 16  1  0  0  0
  2  3  2  0  0  0
 16 20  2  0  0  0
 17 19  2  0  0  0
  4  3  1  0  0  0
  4  8  1  0  0  0
  3 10  1  0  0  0
  8  1  1  0  0  0
 20 19  1  0  0  0
 20 21  1  0  0  0
 10  1  2  0  0  0
 21 22  1  0  0  0
  6 11  1  0  0  0
  6 12  1  0  0  0
  8 13  1  0  0  0
M  END
> <minimizedAffinity>
-5.91308

$$$$
4XY8_43U_A_201


 22 24  0  0  0  0  0  0  0  0999 V2000
   18.3388   22.2544  -18.0211 C   0  0  0  0  0  0  0  0  0  0  0  0
   16.7497   25.1226  -19.4963 C   0  0  0  0  0  0  0  0  0  0  0  0
   17.2677   23.9410  -18.9919 C   0  0  0  0  0  0  0  0  0  0  0  0
   16.6211   22.7570  -19.2388 C   0  0  0  0  0  0  0  0  0  0  0  0
   15.0495   23.7741  -20.5014 C   0  0  0  0  0  0  0  0  0  0  0  0
   13.9560   23.7516  -21.2822 N   0  0  0  0  0  0  0  0  0  0  0  0
   15.6441   24.9558  -20.2992 N   0  0  0  0  0  0  0  0  0  0  0  0
   17.2721   21.7311  -18.6301 N   0  0  0  0  0  0  0  0  0  0  0  0
   15.5133   22.6726  -19.9882 N   0  0  0  0  0  0  0  0  0  0  0  0
   18.3659   23.5725  -18.2018 N   0  0  0  0  0  0  0  0  0  0  0  0
   13.6093   24.5884  -21.6681 H   0  0  0  0  0  0  0  0  0  0  0  0
   13.5015   22.8984  -21.4684 H   0  0  0  0  0  0  0  0  0  0  0  0
   17.0076   20.7828  -18.6368 H   0  0  0  0  0  0  0  0  0  0  0  0
   18.6521   28.0816  -18.2575 C   0  0  0  0  0  0  0  0  0  0  0  0
   18.1659   26.7931  -18.3003 C   0  0  0  0  0  0  0  0  0  0  0  0
   17.3316   26.4423  -19.4158 C   0  0  0  0  0  0  0  0  0  0  0  0
   18.3616   29.0672  -19.1749 C   0  0  0  0  0  0  0  0  0  0  0  0
   19.8207   28.5332  -16.8564 Br  0  0  0  0  0  0  0  0  0  0  0  0
   17.5540   28.7534  -20.2601 C   0  0  0  0  0  0  0  0  0  0  0  0
   17.0486   27.4786  -20.3513 C   0  0  0  0  0  0  0  0  0  0  0  0
   16.3117   27.0998  -21.4177 O   0  0  0  0  0  0  0  0  0  0  0  0
   15.4959   28.0483  -22.1563 C   0  0  0  0  0  0  0  0  0  0  0  0
 18 14  1  0  0  0
  6  5  1  0  0  0
  5  7  2  0  0  0
  5  9  1  0  0  0
 15 14  2  0  0  0
 15 16  1  0  0  0
  7  2  1  0  0  0
 14 17  1  0  0  0
  9  4  2  0  0  0
  2 16  1  0  0  0
  2  3  2  0  0  0
 16 20  2  0  0  0
 17 19  2  0  0  0
  4  3  1  0  0  0
  4  8  1  0  0  0
  3 10  1  0  0  0
  8  1  1  0  0  0
 20 19  1  0  0  0
 20 21  1  0  0  0
 10  1  2  0  0  0
 21 22  1  0  0  0
  6 11  1  0  0  0
  6 12  1  0  0  0
  8 13  1  0  0  0
M  END
> <minimizedAffinity>
-5.72677

$$$$
4XY8_43U_A_201


 22 24  0  0  0  0  0  0  0  0999 V2000
   14.8100   23.2257  -20.0450 C   0  0  0  0  0  0  0  0  0  0  0  0
   17.7320   24.9571  -18.8651 C   0  0  0  0  0  0  0  0  0  0  0  0
   16.6587   24.1767  -19.2626 C   0  0  0  0  0  0  0  0  0  0  0  0
   16.6820   22.8246  -19.0346 C   0  0  0  0  0  0  0  0  0  0  0  0
   18.6782   22.9442  -17.9860 C   0  0  0  0  0  0  0  0  0  0  0  0
   19.7064   22.3885  -17.3228 N   0  0  0  0  0  0  0  0  0  0  0  0
   18.7041   24.2688  -18.1750 N   0  0  0  0  0  0  0  0  0  0  0  0
   15.5558   22.2461  -19.5286 N   0  0  0  0  0  0  0  0  0  0  0  0
   17.6895   22.2081  -18.4014 N   0  0  0  0  0  0  0  0  0  0  0  0
   15.4381   24.3920  -19.9182 N   0  0  0  0  0  0  0  0  0  0  0  0
   20.4522   22.9504  -17.0107 H   0  0  0  0  0  0  0  0  0  0  0  0
   19.7140   21.4195  -17.1490 H   0  0  0  0  0  0  0  0  0  0  0  0
   15.3325   21.2875  -19.5094 H   0  0  0  0  0  0  0  0  0  0  0  0
   18.6045   28.4851  -18.0279 C   0  0  0  0  0  0  0  0  0  0  0  0
   18.5695   27.1116  -17.9252 C   0  0  0  0  0  0  0  0  0  0  0  0
   17.8488   26.3949  -18.9403 C   0  0  0  0  0  0  0  0  0  0  0  0
   17.9644   29.2220  -18.9999 C   0  0  0  0  0  0  0  0  0  0  0  0
   19.6199   29.4347  -16.7630 Br  0  0  0  0  0  0  0  0  0  0  0  0
   17.2581   28.5519  -19.9901 C   0  0  0  0  0  0  0  0  0  0  0  0
   17.1982   27.1799  -19.9351 C   0  0  0  0  0  0  0  0  0  0  0  0
   16.5808   26.4737  -20.9066 O   0  0  0  0  0  0  0  0  0  0  0  0
   15.5699   27.0738  -21.7602 C   0  0  0  0  0  0  0  0  0  0  0  0
 18 14  1  0  0  0
  6  5  1  0  0  0
  5  7  2  0  0  0
  5  9  1  0  0  0
 15 14  2  0  0  0
 15 16  1  0  0  0
  7  2  1  0  0  0
 14 17  1  0  0  0
  9  4  2  0  0  0
  2 16  1  0  0  0
  2  3  2  0  0  0
 16 20  2  0  0  0
 17 19  2  0  0  0
  4  3  1  0  0  0
  4  8  1  0  0  0
  3 10  1  0  0  0
  8  1  1  0  0  0
 20 19  1  0  0  0
 20 21  1  0  0  0
 10  1  2  0  0  0
 21 22  1  0  0  0
  6 11  1  0  0  0
  6 12  1  0  0  0
  8 13  1  0  0  0
M  END
> <minimizedAffinity>
-5.65714

$$$$
4XY8_43U_A_201


 22 24  0  0  0  0  0  0  0  0999 V2000
   14.4643   24.6117  -20.9785 C   0  0  0  0  0  0  0  0  0  0  0  0
   17.1348   24.2067  -18.6053 C   0  0  0  0  0  0  0  0  0  0  0  0
   16.1011   24.2258  -19.5273 C   0  0  0  0  0  0  0  0  0  0  0  0
   15.6659   23.0498  -20.0827 C   0  0  0  0  0  0  0  0  0  0  0  0
   17.1095   21.8278  -18.8492 C   0  0  0  0  0  0  0  0  0  0  0  0
   17.6381   20.6574  -18.4534 N   0  0  0  0  0  0  0  0  0  0  0  0
   17.5671   22.9438  -18.2694 N   0  0  0  0  0  0  0  0  0  0  0  0
   14.6753   23.2934  -20.9805 N   0  0  0  0  0  0  0  0  0  0  0  0
   16.1699   21.8539  -19.7483 N   0  0  0  0  0  0  0  0  0  0  0  0
   15.3035   25.2064  -20.1343 N   0  0  0  0  0  0  0  0  0  0  0  0
   18.3491   20.6435  -17.7726 H   0  0  0  0  0  0  0  0  0  0  0  0
   17.3145   19.8138  -18.8444 H   0  0  0  0  0  0  0  0  0  0  0  0
   14.2032   22.6252  -21.5281 H   0  0  0  0  0  0  0  0  0  0  0  0
   18.2583   26.3475  -15.7656 C   0  0  0  0  0  0  0  0  0  0  0  0
   17.7910   25.2332  -16.4276 C   0  0  0  0  0  0  0  0  0  0  0  0
   17.6645   25.3222  -17.8557 C   0  0  0  0  0  0  0  0  0  0  0  0
   18.5676   27.5500  -16.3622 C   0  0  0  0  0  0  0  0  0  0  0  0
   18.5195   26.2206  -13.9086 Br  0  0  0  0  0  0  0  0  0  0  0  0
   18.4497   27.6619  -17.7413 C   0  0  0  0  0  0  0  0  0  0  0  0
   17.9929   26.5753  -18.4482 C   0  0  0  0  0  0  0  0  0  0  0  0
   17.9204   26.6062  -19.7964 O   0  0  0  0  0  0  0  0  0  0  0  0
   17.6332   27.8350  -20.5164 C   0  0  0  0  0  0  0  0  0  0  0  0
 18 14  1  0  0  0
  6  5  1  0  0  0
  5  7  2  0  0  0
  5  9  1  0  0  0
 15 14  2  0  0  0
 15 16  1  0  0  0
  7  2  1  0  0  0
 14 17  1  0  0  0
  9  4  2  0  0  0
  2 16  1  0  0  0
  2  3  2  0  0  0
 16 20  2  0  0  0
 17 19  2  0  0  0
  4  3  1  0  0  0
  4  8  1  0  0  0
  3 10  1  0  0  0
  8  1  1  0  0  0
 20 19  1  0  0  0
 20 21  1  0  0  0
 10  1  2  0  0  0
 21 22  1  0  0  0
  6 11  1  0  0  0
  6 12  1  0  0  0
  8 13  1  0  0  0
M  END
> <minimizedAffinity>
-5.56064

$$$$
4XY8_43U_A_201


 22 24  0  0  0  0  0  0  0  0999 V2000
   15.6365   31.6115  -19.3479 C   0  0  0  0  0  0  0  0  0  0  0  0
   17.9841   28.9481  -19.9157 C   0  0  0  0  0  0  0  0  0  0  0  0
   17.0990   30.0100  -19.8280 C   0  0  0  0  0  0  0  0  0  0  0  0
   16.9478   30.8569  -20.8961 C   0  0  0  0  0  0  0  0  0  0  0  0
   18.3918   29.6668  -22.1599 C   0  0  0  0  0  0  0  0  0  0  0  0
   19.0495   29.4306  -23.3078 N   0  0  0  0  0  0  0  0  0  0  0  0
   18.5715   28.8047  -21.1523 N   0  0  0  0  0  0  0  0  0  0  0  0
   16.0637   31.8430  -20.5914 N   0  0  0  0  0  0  0  0  0  0  0  0
   17.5942   30.6893  -22.0580 N   0  0  0  0  0  0  0  0  0  0  0  0
   16.2397   30.5341  -18.8518 N   0  0  0  0  0  0  0  0  0  0  0  0
   19.6520   28.6553  -23.3793 H   0  0  0  0  0  0  0  0  0  0  0  0
   18.9289   30.0329  -24.0772 H   0  0  0  0  0  0  0  0  0  0  0  0
   15.7903   32.5864  -21.1762 H   0  0  0  0  0  0  0  0  0  0  0  0
   17.9860   25.6304  -18.2121 C   0  0  0  0  0  0  0  0  0  0  0  0
   17.7838   26.5647  -19.2043 C   0  0  0  0  0  0  0  0  0  0  0  0
   18.2109   27.9099  -18.9371 C   0  0  0  0  0  0  0  0  0  0  0  0
   18.5219   25.8978  -16.9715 C   0  0  0  0  0  0  0  0  0  0  0  0
   17.5199   23.8466  -18.5773 Br  0  0  0  0  0  0  0  0  0  0  0  0
   18.9389   27.1917  -16.6882 C   0  0  0  0  0  0  0  0  0  0  0  0
   18.7639   28.1594  -17.6483 C   0  0  0  0  0  0  0  0  0  0  0  0
   19.2095   29.4191  -17.4519 O   0  0  0  0  0  0  0  0  0  0  0  0
   20.6022   29.6959  -17.1450 C   0  0  0  0  0  0  0  0  0  0  0  0
 18 14  1  0  0  0
  6  5  1  0  0  0
  5  7  2  0  0  0
  5  9  1  0  0  0
 15 14  2  0  0  0
 15 16  1  0  0  0
  7  2  1  0  0  0
 14 17  1  0  0  0
  9  4  2  0  0  0
  2 16  1  0  0  0
  2  3  2  0  0  0
 16 20  2  0  0  0
 17 19  2  0  0  0
  4  3  1  0  0  0
  4  8  1  0  0  0
  3 10  1  0  0  0
  8  1  1  0  0  0
 20 19  1  0  0  0
 20 21  1  0  0  0
 10  1  2  0  0  0
 21 22  1  0  0  0
  6 11  1  0  0  0
  6 12  1  0  0  0
  8 13  1  0  0  0
M  END
> <minimizedAffinity>
-5.43652

$$$$
