2I2C_DTA_A_273


 46 51  0  0  0  0  0  0  0  0999 V2000
   12.7617    9.8703   12.0867 S   0  0  0  0  0  0  0  0  0  0  0  0
   13.2274    9.8919   10.3116 C   0  0  0  0  0  0  0  0  0  0  0  0
   16.3897    8.4605    9.2066 C   0  0  0  0  0  0  0  0  0  0  0  0
   15.1221    8.4330    9.9032 O   0  0  0  0  0  0  0  0  0  0  0  0
   16.3179    9.6463    8.2348 C   0  0  0  0  0  0  0  0  0  0  0  0
   17.4430   10.5054    8.4518 O   0  0  0  0  0  0  0  0  0  0  0  0
   15.0077   10.3462    8.6296 C   0  0  0  0  0  0  0  0  0  0  0  0
   15.1615   11.7619    8.6718 O   0  0  0  0  0  0  0  0  0  0  0  0
   14.7308    9.7995   10.0290 C   0  0  0  0  0  0  0  0  0  0  0  0
   17.4627   10.7840    9.3807 H   0  0  0  0  0  0  0  0  0  0  0  0
   15.8697   11.9918    9.2935 H   0  0  0  0  0  0  0  0  0  0  0  0
   18.6859    3.4936    6.7111 N   0  0  0  0  0  0  0  0  0  0  0  0
   18.7268    4.6022    7.4651 C   0  0  0  0  0  0  0  0  0  0  0  0
   19.8635    4.9245    8.1006 N   0  0  0  0  0  0  0  0  0  0  0  0
   19.9704    5.9977    8.8669 C   0  0  0  0  0  0  0  0  0  0  0  0
   18.9474    6.8194    9.0380 N   0  0  0  0  0  0  0  0  0  0  0  0
   17.7699    6.5559    8.4316 C   0  0  0  0  0  0  0  0  0  0  0  0
   17.6196    5.4410    7.6240 C   0  0  0  0  0  0  0  0  0  0  0  0
   16.3633    5.4462    7.1704 N   0  0  0  0  0  0  0  0  0  0  0  0
   15.7465    6.5282    7.6686 C   0  0  0  0  0  0  0  0  0  0  0  0
   16.6118    7.2051    8.4384 N   0  0  0  0  0  0  0  0  0  0  0  0
   17.8564    3.2485    6.2408 H   0  0  0  0  0  0  0  0  0  0  0  0
   19.4853    2.9251    6.6279 H   0  0  0  0  0  0  0  0  0  0  0  0
   14.4513   10.3536   13.1353 S   0  0  0  0  0  0  0  0  0  0  0  0
   14.8038    8.8727   14.1702 C   0  0  0  0  0  0  0  0  0  0  0  0
   16.2762    8.3700   14.1255 C   0  0  0  0  0  0  0  0  0  0  0  0
   17.0480    9.1695   13.1809 O   0  0  0  0  0  0  0  0  0  0  0  0
   16.9882    8.5020   15.4832 C   0  0  0  0  0  0  0  0  0  0  0  0
   17.7649    7.3186   15.7420 O   0  0  0  0  0  0  0  0  0  0  0  0
   17.8977    9.7162   15.2989 C   0  0  0  0  0  0  0  0  0  0  0  0
   19.0703    9.6310   16.1259 O   0  0  0  0  0  0  0  0  0  0  0  0
   18.2808    9.5631   13.8387 C   0  0  0  0  0  0  0  0  0  0  0  0
   18.3914    7.1776   15.0151 H   0  0  0  0  0  0  0  0  0  0  0  0
   19.5388    8.8026   15.9383 H   0  0  0  0  0  0  0  0  0  0  0  0
   18.7555   10.8374   13.2325 N   0  0  0  0  0  0  0  0  0  0  0  0
   18.0069   11.8808   12.8584 C   0  0  0  0  0  0  0  0  0  0  0  0
   18.7925   12.8334   12.3555 N   0  0  0  0  0  0  0  0  0  0  0  0
   20.0467   12.3864   12.3964 C   0  0  0  0  0  0  0  0  0  0  0  0
   20.0221   11.1140   12.9534 C   0  0  0  0  0  0  0  0  0  0  0  0
   21.1691   10.4265   13.1221 N   0  0  0  0  0  0  0  0  0  0  0  0
   22.3264   10.9587   12.7492 C   0  0  0  0  0  0  0  0  0  0  0  0
   22.3874   12.1735   12.2126 N   0  0  0  0  0  0  0  0  0  0  0  0
   21.2812   12.9139   12.0130 C   0  0  0  0  0  0  0  0  0  0  0  0
   21.3705   14.1286   11.4690 N   0  0  0  0  0  0  0  0  0  0  0  0
   20.5573   14.6649   11.3258 H   0  0  0  0  0  0  0  0  0  0  0  0
   22.2495   14.4889   11.2107 H   0  0  0  0  0  0  0  0  0  0  0  0
 12 13  1  0  0  0
 13 18  2  0  0  0
 13 14  1  0  0  0
 14 15  2  0  0  0
 15 16  1  0  0  0
 16 17  2  0  0  0
 17 18  1  0  0  0
 17 21  1  0  0  0
 18 19  1  0  0  0
 19 20  2  0  0  0
 20 21  1  0  0  0
 21  3  1  0  0  0
  3  5  1  0  0  0
  3  4  1  0  0  0
  4  9  1  0  0  0
  5  6  1  0  0  0
  5  7  1  0  0  0
  7  8  1  0  0  0
  7  9  1  0  0  0
  9  2  1  0  0  0
  2  1  1  0  0  0
  1 24  1  0  0  0
 24 25  1  0  0  0
 25 26  1  0  0  0
 26 27  1  0  0  0
 26 28  1  0  0  0
 27 32  1  0  0  0
 28 30  1  0  0  0
 28 29  1  0  0  0
 30 32  1  0  0  0
 30 31  1  0  0  0
 32 35  1  0  0  0
 35 36  1  0  0  0
 35 39  1  0  0  0
 36 37  2  0  0  0
 37 38  1  0  0  0
 38 43  1  0  0  0
 38 39  2  0  0  0
 39 40  1  0  0  0
 40 41  2  0  0  0
 41 42  1  0  0  0
 42 43  2  0  0  0
 43 44  1  0  0  0
 12 22  1  0  0  0
 12 23  1  0  0  0
  6 10  1  0  0  0
  8 11  1  0  0  0
 29 33  1  0  0  0
 31 34  1  0  0  0
 44 45  1  0  0  0
 44 46  1  0  0  0
M  END
> <minimizedAffinity>
-10.59788

$$$$
2I2C_DTA_A_273


 46 51  0  0  0  0  0  0  0  0999 V2000
   14.8050    6.3388   12.3257 S   0  0  0  0  0  0  0  0  0  0  0  0
   14.9866    7.9634   13.1599 C   0  0  0  0  0  0  0  0  0  0  0  0
   18.1872    9.6165   13.7018 C   0  0  0  0  0  0  0  0  0  0  0  0
   17.1378    9.0498   12.8829 O   0  0  0  0  0  0  0  0  0  0  0  0
   17.5752    9.8306   15.0930 C   0  0  0  0  0  0  0  0  0  0  0  0
   18.3943    9.1861   16.0751 O   0  0  0  0  0  0  0  0  0  0  0  0
   16.2045    9.1440   14.9842 C   0  0  0  0  0  0  0  0  0  0  0  0
   15.9120    8.3701   16.1440 O   0  0  0  0  0  0  0  0  0  0  0  0
   16.3673    8.2362   13.7663 C   0  0  0  0  0  0  0  0  0  0  0  0
   18.4913    8.2476   15.8499 H   0  0  0  0  0  0  0  0  0  0  0  0
   16.6116    7.7117   16.2782 H   0  0  0  0  0  0  0  0  0  0  0  0
   21.4202   14.2001   11.5323 N   0  0  0  0  0  0  0  0  0  0  0  0
   21.2450   12.9613   12.0156 C   0  0  0  0  0  0  0  0  0  0  0  0
   22.3050   12.1493   12.1457 N   0  0  0  0  0  0  0  0  0  0  0  0
   22.2022   10.9135   12.6067 C   0  0  0  0  0  0  0  0  0  0  0  0
   21.0320   10.4166   12.9737 N   0  0  0  0  0  0  0  0  0  0  0  0
   19.9204   11.1759   12.8669 C   0  0  0  0  0  0  0  0  0  0  0  0
   19.9885   12.4730   12.3867 C   0  0  0  0  0  0  0  0  0  0  0  0
   18.7469   12.9653   12.3963 N   0  0  0  0  0  0  0  0  0  0  0  0
   17.9274   12.0155   12.8713 C   0  0  0  0  0  0  0  0  0  0  0  0
   18.6504   10.9230   13.1595 N   0  0  0  0  0  0  0  0  0  0  0  0
   20.6487   14.8035   11.4330 H   0  0  0  0  0  0  0  0  0  0  0  0
   22.3204   14.5061   11.2767 H   0  0  0  0  0  0  0  0  0  0  0  0
   13.4547    6.6117   10.8123 S   0  0  0  0  0  0  0  0  0  0  0  0
   13.4055    8.4325   10.5469 C   0  0  0  0  0  0  0  0  0  0  0  0
   14.5589    9.0049    9.6725 C   0  0  0  0  0  0  0  0  0  0  0  0
   15.5334    7.9584    9.3848 O   0  0  0  0  0  0  0  0  0  0  0  0
   14.0676    9.5217    8.3090 C   0  0  0  0  0  0  0  0  0  0  0  0
   14.7119   10.7711    8.0017 O   0  0  0  0  0  0  0  0  0  0  0  0
   14.5045    8.4327    7.3298 C   0  0  0  0  0  0  0  0  0  0  0  0
   14.7467    8.9659    6.0171 O   0  0  0  0  0  0  0  0  0  0  0  0
   15.8128    7.9939    7.9607 C   0  0  0  0  0  0  0  0  0  0  0  0
   15.6743   10.6517    8.0199 H   0  0  0  0  0  0  0  0  0  0  0  0
   15.4021    9.6788    6.0735 H   0  0  0  0  0  0  0  0  0  0  0  0
   16.2325    6.6332    7.5261 N   0  0  0  0  0  0  0  0  0  0  0  0
   15.4871    5.7246    6.8874 C   0  0  0  0  0  0  0  0  0  0  0  0
   16.2126    4.6271    6.6719 N   0  0  0  0  0  0  0  0  0  0  0  0
   17.4222    4.8340    7.1902 C   0  0  0  0  0  0  0  0  0  0  0  0
   17.4334    6.1114    7.7359 C   0  0  0  0  0  0  0  0  0  0  0  0
   18.5492    6.5864    8.3242 N   0  0  0  0  0  0  0  0  0  0  0  0
   19.6397    5.8329    8.3922 C   0  0  0  0  0  0  0  0  0  0  0  0
   19.6647    4.6059    7.8810 N   0  0  0  0  0  0  0  0  0  0  0  0
   18.5859    4.0680    7.2821 C   0  0  0  0  0  0  0  0  0  0  0  0
   18.6371    2.8328    6.7810 N   0  0  0  0  0  0  0  0  0  0  0  0
   17.8443    2.4455    6.3443 H   0  0  0  0  0  0  0  0  0  0  0  0
   19.4677    2.3086    6.8478 H   0  0  0  0  0  0  0  0  0  0  0  0
 12 13  1  0  0  0
 13 18  2  0  0  0
 13 14  1  0  0  0
 14 15  2  0  0  0
 15 16  1  0  0  0
 16 17  2  0  0  0
 17 18  1  0  0  0
 17 21  1  0  0  0
 18 19  1  0  0  0
 19 20  2  0  0  0
 20 21  1  0  0  0
 21  3  1  0  0  0
  3  5  1  0  0  0
  3  4  1  0  0  0
  4  9  1  0  0  0
  5  6  1  0  0  0
  5  7  1  0  0  0
  7  8  1  0  0  0
  7  9  1  0  0  0
  9  2  1  0  0  0
  2  1  1  0  0  0
  1 24  1  0  0  0
 24 25  1  0  0  0
 25 26  1  0  0  0
 26 27  1  0  0  0
 26 28  1  0  0  0
 27 32  1  0  0  0
 28 30  1  0  0  0
 28 29  1  0  0  0
 30 32  1  0  0  0
 30 31  1  0  0  0
 32 35  1  0  0  0
 35 36  1  0  0  0
 35 39  1  0  0  0
 36 37  2  0  0  0
 37 38  1  0  0  0
 38 43  1  0  0  0
 38 39  2  0  0  0
 39 40  1  0  0  0
 40 41  2  0  0  0
 41 42  1  0  0  0
 42 43  2  0  0  0
 43 44  1  0  0  0
 12 22  1  0  0  0
 12 23  1  0  0  0
  6 10  1  0  0  0
  8 11  1  0  0  0
 29 33  1  0  0  0
 31 34  1  0  0  0
 44 45  1  0  0  0
 44 46  1  0  0  0
M  END
> <minimizedAffinity>
-9.94447

$$$$
2I2C_DTA_A_273


 46 51  0  0  0  0  0  0  0  0999 V2000
   11.7148    6.7592   10.0507 S   0  0  0  0  0  0  0  0  0  0  0  0
   11.3451    8.0760    8.8270 C   0  0  0  0  0  0  0  0  0  0  0  0
   14.2551    7.3643    6.7543 C   0  0  0  0  0  0  0  0  0  0  0  0
   13.5433    7.4546    8.0106 O   0  0  0  0  0  0  0  0  0  0  0  0
   13.1851    7.3893    5.6542 C   0  0  0  0  0  0  0  0  0  0  0  0
   13.4914    8.4300    4.7191 O   0  0  0  0  0  0  0  0  0  0  0  0
   11.8941    7.7060    6.4256 C   0  0  0  0  0  0  0  0  0  0  0  0
   11.0984    8.6705    5.7428 O   0  0  0  0  0  0  0  0  0  0  0  0
   12.4102    8.2798    7.7441 C   0  0  0  0  0  0  0  0  0  0  0  0
   13.5644    9.2755    5.1889 H   0  0  0  0  0  0  0  0  0  0  0  0
   11.6174    9.4781    5.6040 H   0  0  0  0  0  0  0  0  0  0  0  0
   18.4250    3.0492    7.1553 N   0  0  0  0  0  0  0  0  0  0  0  0
   17.9313    4.2807    7.3524 C   0  0  0  0  0  0  0  0  0  0  0  0
   18.6706    5.1896    8.0059 N   0  0  0  0  0  0  0  0  0  0  0  0
   18.2417    6.4186    8.2423 C   0  0  0  0  0  0  0  0  0  0  0  0
   17.0483    6.8162    7.8318 N   0  0  0  0  0  0  0  0  0  0  0  0
   16.2473    5.9533    7.1703 C   0  0  0  0  0  0  0  0  0  0  0  0
   16.6611    4.6584    6.9065 C   0  0  0  0  0  0  0  0  0  0  0  0
   15.6699    4.0515    6.2483 N   0  0  0  0  0  0  0  0  0  0  0  0
   14.6707    4.9336    6.0972 C   0  0  0  0  0  0  0  0  0  0  0  0
   15.0294    6.0966    6.6614 N   0  0  0  0  0  0  0  0  0  0  0  0
   17.8902    2.3752    6.6769 H   0  0  0  0  0  0  0  0  0  0  0  0
   19.3222    2.8193    7.4891 H   0  0  0  0  0  0  0  0  0  0  0  0
   12.4756    7.6989   11.7018 S   0  0  0  0  0  0  0  0  0  0  0  0
   14.2620    7.9375   11.3275 C   0  0  0  0  0  0  0  0  0  0  0  0
   14.7186    9.4200   11.1992 C   0  0  0  0  0  0  0  0  0  0  0  0
   15.9496    9.6299   11.9528 O   0  0  0  0  0  0  0  0  0  0  0  0
   15.0302    9.8198    9.7464 C   0  0  0  0  0  0  0  0  0  0  0  0
   14.4927   11.1269    9.4759 O   0  0  0  0  0  0  0  0  0  0  0  0
   16.5574    9.8422    9.6963 C   0  0  0  0  0  0  0  0  0  0  0  0
   17.0424   10.7767    8.7177 O   0  0  0  0  0  0  0  0  0  0  0  0
   16.8787   10.3405   11.0930 C   0  0  0  0  0  0  0  0  0  0  0  0
   14.8531   11.7631   10.1133 H   0  0  0  0  0  0  0  0  0  0  0  0
   16.6786   11.6567    8.9028 H   0  0  0  0  0  0  0  0  0  0  0  0
   18.2664   10.0073   11.5170 N   0  0  0  0  0  0  0  0  0  0  0  0
   18.8415    8.7996   11.5185 C   0  0  0  0  0  0  0  0  0  0  0  0
   20.0917    8.9037   11.9697 N   0  0  0  0  0  0  0  0  0  0  0  0
   20.3075   10.1832   12.2709 C   0  0  0  0  0  0  0  0  0  0  0  0
   19.1436   10.8852   11.9841 C   0  0  0  0  0  0  0  0  0  0  0  0
   19.0880   12.2163   12.1890 N   0  0  0  0  0  0  0  0  0  0  0  0
   20.1422   12.8610   12.6735 C   0  0  0  0  0  0  0  0  0  0  0  0
   21.2720   12.2213   12.9594 N   0  0  0  0  0  0  0  0  0  0  0  0
   21.3959   10.8928   12.7819 C   0  0  0  0  0  0  0  0  0  0  0  0
   22.5399   10.2752   13.0807 N   0  0  0  0  0  0  0  0  0  0  0  0
   22.6238    9.3033   12.9484 H   0  0  0  0  0  0  0  0  0  0  0  0
   23.3004   10.7914   13.4335 H   0  0  0  0  0  0  0  0  0  0  0  0
 12 13  1  0  0  0
 13 18  2  0  0  0
 13 14  1  0  0  0
 14 15  2  0  0  0
 15 16  1  0  0  0
 16 17  2  0  0  0
 17 18  1  0  0  0
 17 21  1  0  0  0
 18 19  1  0  0  0
 19 20  2  0  0  0
 20 21  1  0  0  0
 21  3  1  0  0  0
  3  5  1  0  0  0
  3  4  1  0  0  0
  4  9  1  0  0  0
  5  6  1  0  0  0
  5  7  1  0  0  0
  7  8  1  0  0  0
  7  9  1  0  0  0
  9  2  1  0  0  0
  2  1  1  0  0  0
  1 24  1  0  0  0
 24 25  1  0  0  0
 25 26  1  0  0  0
 26 27  1  0  0  0
 26 28  1  0  0  0
 27 32  1  0  0  0
 28 30  1  0  0  0
 28 29  1  0  0  0
 30 32  1  0  0  0
 30 31  1  0  0  0
 32 35  1  0  0  0
 35 36  1  0  0  0
 35 39  1  0  0  0
 36 37  2  0  0  0
 37 38  1  0  0  0
 38 43  1  0  0  0
 38 39  2  0  0  0
 39 40  1  0  0  0
 40 41  2  0  0  0
 41 42  1  0  0  0
 42 43  2  0  0  0
 43 44  1  0  0  0
 12 22  1  0  0  0
 12 23  1  0  0  0
  6 10  1  0  0  0
  8 11  1  0  0  0
 29 33  1  0  0  0
 31 34  1  0  0  0
 44 45  1  0  0  0
 44 46  1  0  0  0
M  END
> <minimizedAffinity>
-9.94061

$$$$
2I2C_DTA_A_273


 46 51  0  0  0  0  0  0  0  0999 V2000
   11.4805    6.9553    8.3860 S   0  0  0  0  0  0  0  0  0  0  0  0
   11.3990    6.2670    6.6866 C   0  0  0  0  0  0  0  0  0  0  0  0
   14.8490    5.1321    6.4043 C   0  0  0  0  0  0  0  0  0  0  0  0
   13.7961    6.1224    6.3434 O   0  0  0  0  0  0  0  0  0  0  0  0
   14.2787    3.9502    7.2002 C   0  0  0  0  0  0  0  0  0  0  0  0
   14.4262    2.7486    6.4351 O   0  0  0  0  0  0  0  0  0  0  0  0
   12.7957    4.3188    7.3642 C   0  0  0  0  0  0  0  0  0  0  0  0
   11.9479    3.1971    7.1348 O   0  0  0  0  0  0  0  0  0  0  0  0
   12.5804    5.3777    6.2841 C   0  0  0  0  0  0  0  0  0  0  0  0
   13.9972    2.8599    5.5723 H   0  0  0  0  0  0  0  0  0  0  0  0
   12.1134    2.8429    6.2470 H   0  0  0  0  0  0  0  0  0  0  0  0
   20.3140    5.9484    8.7786 N   0  0  0  0  0  0  0  0  0  0  0  0
   19.3707    5.2660    8.1124 C   0  0  0  0  0  0  0  0  0  0  0  0
   19.6580    4.0491    7.6264 N   0  0  0  0  0  0  0  0  0  0  0  0
   18.7783    3.3261    6.9527 C   0  0  0  0  0  0  0  0  0  0  0  0
   17.5531    3.7740    6.7309 N   0  0  0  0  0  0  0  0  0  0  0  0
   17.1941    4.9930    7.1878 C   0  0  0  0  0  0  0  0  0  0  0  0
   18.0884    5.7791    7.8948 C   0  0  0  0  0  0  0  0  0  0  0  0
   17.4565    6.9128    8.2106 N   0  0  0  0  0  0  0  0  0  0  0  0
   16.2078    6.8408    7.7259 C   0  0  0  0  0  0  0  0  0  0  0  0
   16.0514    5.6634    7.1024 N   0  0  0  0  0  0  0  0  0  0  0  0
   20.1129    6.8421    9.1391 H   0  0  0  0  0  0  0  0  0  0  0  0
   21.2075    5.5554    8.9070 H   0  0  0  0  0  0  0  0  0  0  0  0
   12.5646    8.6864    8.2590 S   0  0  0  0  0  0  0  0  0  0  0  0
   13.3098    8.8997    9.9286 C   0  0  0  0  0  0  0  0  0  0  0  0
   14.1623   10.1889   10.1126 C   0  0  0  0  0  0  0  0  0  0  0  0
   15.1288    9.9987   11.1883 O   0  0  0  0  0  0  0  0  0  0  0  0
   14.9796   10.5421    8.8576 C   0  0  0  0  0  0  0  0  0  0  0  0
   14.9138   11.9594    8.6176 O   0  0  0  0  0  0  0  0  0  0  0  0
   16.4028   10.1207    9.2213 C   0  0  0  0  0  0  0  0  0  0  0  0
   17.3834   10.9142    8.5324 O   0  0  0  0  0  0  0  0  0  0  0  0
   16.4229   10.4437   10.7037 C   0  0  0  0  0  0  0  0  0  0  0  0
   15.2285   12.4352    9.4022 H   0  0  0  0  0  0  0  0  0  0  0  0
   17.2302   11.8533    8.7212 H   0  0  0  0  0  0  0  0  0  0  0  0
   17.4845    9.7029   11.4390 N   0  0  0  0  0  0  0  0  0  0  0  0
   17.5236    8.3904   11.6937 C   0  0  0  0  0  0  0  0  0  0  0  0
   18.6311    8.1036   12.3783 N   0  0  0  0  0  0  0  0  0  0  0  0
   19.2926    9.2434   12.5727 C   0  0  0  0  0  0  0  0  0  0  0  0
   18.5605   10.2620   11.9759 C   0  0  0  0  0  0  0  0  0  0  0  0
   19.0108   11.5318   12.0151 N   0  0  0  0  0  0  0  0  0  0  0  0
   20.1515   11.8161   12.6313 C   0  0  0  0  0  0  0  0  0  0  0  0
   20.8777   10.8667   13.2133 N   0  0  0  0  0  0  0  0  0  0  0  0
   20.4862    9.5788   13.2145 C   0  0  0  0  0  0  0  0  0  0  0  0
   21.2322    8.6467   13.8096 N   0  0  0  0  0  0  0  0  0  0  0  0
   20.9400    7.7066   13.8067 H   0  0  0  0  0  0  0  0  0  0  0  0
   22.0750    8.8989   14.2516 H   0  0  0  0  0  0  0  0  0  0  0  0
 12 13  1  0  0  0
 13 18  2  0  0  0
 13 14  1  0  0  0
 14 15  2  0  0  0
 15 16  1  0  0  0
 16 17  2  0  0  0
 17 18  1  0  0  0
 17 21  1  0  0  0
 18 19  1  0  0  0
 19 20  2  0  0  0
 20 21  1  0  0  0
 21  3  1  0  0  0
  3  5  1  0  0  0
  3  4  1  0  0  0
  4  9  1  0  0  0
  5  6  1  0  0  0
  5  7  1  0  0  0
  7  8  1  0  0  0
  7  9  1  0  0  0
  9  2  1  0  0  0
  2  1  1  0  0  0
  1 24  1  0  0  0
 24 25  1  0  0  0
 25 26  1  0  0  0
 26 27  1  0  0  0
 26 28  1  0  0  0
 27 32  1  0  0  0
 28 30  1  0  0  0
 28 29  1  0  0  0
 30 32  1  0  0  0
 30 31  1  0  0  0
 32 35  1  0  0  0
 35 36  1  0  0  0
 35 39  1  0  0  0
 36 37  2  0  0  0
 37 38  1  0  0  0
 38 43  1  0  0  0
 38 39  2  0  0  0
 39 40  1  0  0  0
 40 41  2  0  0  0
 41 42  1  0  0  0
 42 43  2  0  0  0
 43 44  1  0  0  0
 12 22  1  0  0  0
 12 23  1  0  0  0
  6 10  1  0  0  0
  8 11  1  0  0  0
 29 33  1  0  0  0
 31 34  1  0  0  0
 44 45  1  0  0  0
 44 46  1  0  0  0
M  END
> <minimizedAffinity>
-9.75053

$$$$
2I2C_DTA_A_273


 46 51  0  0  0  0  0  0  0  0999 V2000
   14.9756    9.4809   14.0612 S   0  0  0  0  0  0  0  0  0  0  0  0
   16.5030    8.6831   13.4297 C   0  0  0  0  0  0  0  0  0  0  0  0
   20.0855    9.3090   13.6408 C   0  0  0  0  0  0  0  0  0  0  0  0
   18.8929    8.5072   13.8074 O   0  0  0  0  0  0  0  0  0  0  0  0
   19.7059   10.4458   12.6820 C   0  0  0  0  0  0  0  0  0  0  0  0
   20.0337   11.7030   13.2844 O   0  0  0  0  0  0  0  0  0  0  0  0
   18.1844   10.2877   12.5332 C   0  0  0  0  0  0  0  0  0  0  0  0
   17.5182   11.5457   12.5918 O   0  0  0  0  0  0  0  0  0  0  0  0
   17.8057    9.4289   13.7387 C   0  0  0  0  0  0  0  0  0  0  0  0
   19.5900   11.7752   14.1439 H   0  0  0  0  0  0  0  0  0  0  0  0
   17.7333   11.9868   13.4284 H   0  0  0  0  0  0  0  0  0  0  0  0
   23.5006    5.7469   10.2031 N   0  0  0  0  0  0  0  0  0  0  0  0
   22.3647    6.3696   10.5512 C   0  0  0  0  0  0  0  0  0  0  0  0
   21.2690    6.2129    9.7930 N   0  0  0  0  0  0  0  0  0  0  0  0
   20.1193    6.8046   10.0732 C   0  0  0  0  0  0  0  0  0  0  0  0
   19.9934    7.5840   11.1351 N   0  0  0  0  0  0  0  0  0  0  0  0
   21.0561    7.7907   11.9422 C   0  0  0  0  0  0  0  0  0  0  0  0
   22.2760    7.1901   11.6797 C   0  0  0  0  0  0  0  0  0  0  0  0
   23.1228    7.5767   12.6377 N   0  0  0  0  0  0  0  0  0  0  0  0
   22.4590    8.3858   13.4767 C   0  0  0  0  0  0  0  0  0  0  0  0
   21.1943    8.5124   13.0480 N   0  0  0  0  0  0  0  0  0  0  0  0
   24.3099    5.8556   10.7530 H   0  0  0  0  0  0  0  0  0  0  0  0
   23.5249    5.1812    9.3977 H   0  0  0  0  0  0  0  0  0  0  0  0
   13.4833    8.9983   12.7466 S   0  0  0  0  0  0  0  0  0  0  0  0
   13.5700   10.2913   11.4394 C   0  0  0  0  0  0  0  0  0  0  0  0
   14.7502   10.1393   10.4361 C   0  0  0  0  0  0  0  0  0  0  0  0
   15.0688    8.7282   10.2505 O   0  0  0  0  0  0  0  0  0  0  0  0
   14.4147   10.6917    9.0396 C   0  0  0  0  0  0  0  0  0  0  0  0
   15.5374   11.4315    8.5268 O   0  0  0  0  0  0  0  0  0  0  0  0
   14.1666    9.4368    8.2034 C   0  0  0  0  0  0  0  0  0  0  0  0
   14.4843    9.6511    6.8181 O   0  0  0  0  0  0  0  0  0  0  0  0
   15.1692    8.4815    8.8235 C   0  0  0  0  0  0  0  0  0  0  0  0
   16.3217   10.8610    8.5133 H   0  0  0  0  0  0  0  0  0  0  0  0
   15.4018    9.9561    6.7402 H   0  0  0  0  0  0  0  0  0  0  0  0
   14.8378    7.0532    8.5650 N   0  0  0  0  0  0  0  0  0  0  0  0
   13.6505    6.4586    8.7259 C   0  0  0  0  0  0  0  0  0  0  0  0
   13.7500    5.1712    8.3943 N   0  0  0  0  0  0  0  0  0  0  0  0
   15.0121    4.9427    8.0348 C   0  0  0  0  0  0  0  0  0  0  0  0
   15.7050    6.1417    8.1458 C   0  0  0  0  0  0  0  0  0  0  0  0
   17.0145    6.1984    7.8317 N   0  0  0  0  0  0  0  0  0  0  0  0
   17.6500    5.1072    7.4229 C   0  0  0  0  0  0  0  0  0  0  0  0
   17.0188    3.9431    7.3053 N   0  0  0  0  0  0  0  0  0  0  0  0
   15.7128    3.8144    7.6046 C   0  0  0  0  0  0  0  0  0  0  0  0
   15.1048    2.6334    7.4813 N   0  0  0  0  0  0  0  0  0  0  0  0
   14.1493    2.5463    7.7019 H   0  0  0  0  0  0  0  0  0  0  0  0
   15.6116    1.8490    7.1697 H   0  0  0  0  0  0  0  0  0  0  0  0
 12 13  1  0  0  0
 13 18  2  0  0  0
 13 14  1  0  0  0
 14 15  2  0  0  0
 15 16  1  0  0  0
 16 17  2  0  0  0
 17 18  1  0  0  0
 17 21  1  0  0  0
 18 19  1  0  0  0
 19 20  2  0  0  0
 20 21  1  0  0  0
 21  3  1  0  0  0
  3  5  1  0  0  0
  3  4  1  0  0  0
  4  9  1  0  0  0
  5  6  1  0  0  0
  5  7  1  0  0  0
  7  8  1  0  0  0
  7  9  1  0  0  0
  9  2  1  0  0  0
  2  1  1  0  0  0
  1 24  1  0  0  0
 24 25  1  0  0  0
 25 26  1  0  0  0
 26 27  1  0  0  0
 26 28  1  0  0  0
 27 32  1  0  0  0
 28 30  1  0  0  0
 28 29  1  0  0  0
 30 32  1  0  0  0
 30 31  1  0  0  0
 32 35  1  0  0  0
 35 36  1  0  0  0
 35 39  1  0  0  0
 36 37  2  0  0  0
 37 38  1  0  0  0
 38 43  1  0  0  0
 38 39  2  0  0  0
 39 40  1  0  0  0
 40 41  2  0  0  0
 41 42  1  0  0  0
 42 43  2  0  0  0
 43 44  1  0  0  0
 12 22  1  0  0  0
 12 23  1  0  0  0
  6 10  1  0  0  0
  8 11  1  0  0  0
 29 33  1  0  0  0
 31 34  1  0  0  0
 44 45  1  0  0  0
 44 46  1  0  0  0
M  END
> <minimizedAffinity>
-9.67586

$$$$
2I2C_DTA_A_273


 46 51  0  0  0  0  0  0  0  0999 V2000
   11.8576    8.0541    9.6304 S   0  0  0  0  0  0  0  0  0  0  0  0
   11.3193    6.5789    8.6805 C   0  0  0  0  0  0  0  0  0  0  0  0
   12.3747    4.8535    5.6507 C   0  0  0  0  0  0  0  0  0  0  0  0
   12.0088    4.9215    7.0488 O   0  0  0  0  0  0  0  0  0  0  0  0
   11.8788    6.1596    5.0151 C   0  0  0  0  0  0  0  0  0  0  0  0
   12.9669    6.8006    4.3397 O   0  0  0  0  0  0  0  0  0  0  0  0
   11.4187    6.9878    6.2252 C   0  0  0  0  0  0  0  0  0  0  0  0
   11.8416    8.3444    6.1238 O   0  0  0  0  0  0  0  0  0  0  0  0
   12.1135    6.3007    7.3997 C   0  0  0  0  0  0  0  0  0  0  0  0
   13.6964    6.9418    4.9632 H   0  0  0  0  0  0  0  0  0  0  0  0
   12.8073    8.3765    6.0380 H   0  0  0  0  0  0  0  0  0  0  0  0
   10.6966   -0.6205    3.8098 N   0  0  0  0  0  0  0  0  0  0  0  0
   11.4250    0.2472    4.5280 C   0  0  0  0  0  0  0  0  0  0  0  0
   12.3542   -0.2177    5.3767 N   0  0  0  0  0  0  0  0  0  0  0  0
   13.1009    0.5812    6.1213 C   0  0  0  0  0  0  0  0  0  0  0  0
   12.9688    1.8962    6.0563 N   0  0  0  0  0  0  0  0  0  0  0  0
   12.0503    2.4354    5.2261 C   0  0  0  0  0  0  0  0  0  0  0  0
   11.2492    1.6310    4.4332 C   0  0  0  0  0  0  0  0  0  0  0  0
   10.4502    2.4375    3.7294 N   0  0  0  0  0  0  0  0  0  0  0  0
   10.7417    3.7039    4.0618 C   0  0  0  0  0  0  0  0  0  0  0  0
   11.7227    3.6976    4.9768 N   0  0  0  0  0  0  0  0  0  0  0  0
   10.0123   -0.2892    3.1843 H   0  0  0  0  0  0  0  0  0  0  0  0
   10.8462   -1.5885    3.9082 H   0  0  0  0  0  0  0  0  0  0  0  0
   13.4777    7.4720   10.7369 S   0  0  0  0  0  0  0  0  0  0  0  0
   14.3711    9.0344   11.1230 C   0  0  0  0  0  0  0  0  0  0  0  0
   15.3615    9.5187   10.0244 C   0  0  0  0  0  0  0  0  0  0  0  0
   16.2069    8.4118    9.5916 O   0  0  0  0  0  0  0  0  0  0  0  0
   14.6430   10.0297    8.7633 C   0  0  0  0  0  0  0  0  0  0  0  0
   15.2789   11.2326    8.2951 O   0  0  0  0  0  0  0  0  0  0  0  0
   14.8258    8.8943    7.7569 C   0  0  0  0  0  0  0  0  0  0  0  0
   14.8367    9.3810    6.4044 O   0  0  0  0  0  0  0  0  0  0  0  0
   16.2072    8.3969    8.1400 C   0  0  0  0  0  0  0  0  0  0  0  0
   16.2193   11.0590    8.1325 H   0  0  0  0  0  0  0  0  0  0  0  0
   15.5263   10.0565    6.3094 H   0  0  0  0  0  0  0  0  0  0  0  0
   16.4645    7.0044    7.6804 N   0  0  0  0  0  0  0  0  0  0  0  0
   15.6145    6.1976    7.0356 C   0  0  0  0  0  0  0  0  0  0  0  0
   16.2077    5.0280    6.7960 N   0  0  0  0  0  0  0  0  0  0  0  0
   17.4373    5.0866    7.3049 C   0  0  0  0  0  0  0  0  0  0  0  0
   17.5995    6.3453    7.8699 C   0  0  0  0  0  0  0  0  0  0  0  0
   18.7673    6.6798    8.4539 N   0  0  0  0  0  0  0  0  0  0  0  0
   19.7648    5.8054    8.4992 C   0  0  0  0  0  0  0  0  0  0  0  0
   19.6447    4.5922    7.9691 N   0  0  0  0  0  0  0  0  0  0  0  0
   18.5063    4.1911    7.3732 C   0  0  0  0  0  0  0  0  0  0  0  0
   18.4115    2.9665    6.8528 N   0  0  0  0  0  0  0  0  0  0  0  0
   17.5759    2.6796    6.4184 H   0  0  0  0  0  0  0  0  0  0  0  0
   19.1771    2.3496    6.9031 H   0  0  0  0  0  0  0  0  0  0  0  0
 12 13  1  0  0  0
 13 18  2  0  0  0
 13 14  1  0  0  0
 14 15  2  0  0  0
 15 16  1  0  0  0
 16 17  2  0  0  0
 17 18  1  0  0  0
 17 21  1  0  0  0
 18 19  1  0  0  0
 19 20  2  0  0  0
 20 21  1  0  0  0
 21  3  1  0  0  0
  3  5  1  0  0  0
  3  4  1  0  0  0
  4  9  1  0  0  0
  5  6  1  0  0  0
  5  7  1  0  0  0
  7  8  1  0  0  0
  7  9  1  0  0  0
  9  2  1  0  0  0
  2  1  1  0  0  0
  1 24  1  0  0  0
 24 25  1  0  0  0
 25 26  1  0  0  0
 26 27  1  0  0  0
 26 28  1  0  0  0
 27 32  1  0  0  0
 28 30  1  0  0  0
 28 29  1  0  0  0
 30 32  1  0  0  0
 30 31  1  0  0  0
 32 35  1  0  0  0
 35 36  1  0  0  0
 35 39  1  0  0  0
 36 37  2  0  0  0
 37 38  1  0  0  0
 38 43  1  0  0  0
 38 39  2  0  0  0
 39 40  1  0  0  0
 40 41  2  0  0  0
 41 42  1  0  0  0
 42 43  2  0  0  0
 43 44  1  0  0  0
 12 22  1  0  0  0
 12 23  1  0  0  0
  6 10  1  0  0  0
  8 11  1  0  0  0
 29 33  1  0  0  0
 31 34  1  0  0  0
 44 45  1  0  0  0
 44 46  1  0  0  0
M  END
> <minimizedAffinity>
-9.61796

$$$$
2I2C_DTA_A_273


 46 51  0  0  0  0  0  0  0  0999 V2000
   16.5100    9.4207   12.3096 S   0  0  0  0  0  0  0  0  0  0  0  0
   15.0174    9.1875   11.2674 C   0  0  0  0  0  0  0  0  0  0  0  0
   15.9379    8.0720    7.9240 C   0  0  0  0  0  0  0  0  0  0  0  0
   16.1354    8.2069    9.3508 O   0  0  0  0  0  0  0  0  0  0  0  0
   14.4588    8.3898    7.6652 C   0  0  0  0  0  0  0  0  0  0  0  0
   14.3618    9.4163    6.6713 O   0  0  0  0  0  0  0  0  0  0  0  0
   13.9637    8.8967    9.0290 C   0  0  0  0  0  0  0  0  0  0  0  0
   13.1353   10.0476    8.8916 O   0  0  0  0  0  0  0  0  0  0  0  0
   15.2584    9.2572    9.7556 C   0  0  0  0  0  0  0  0  0  0  0  0
   14.8663   10.1933    6.9586 H   0  0  0  0  0  0  0  0  0  0  0  0
   13.6248   10.7448    8.4278 H   0  0  0  0  0  0  0  0  0  0  0  0
   18.4880    2.7612    6.7147 N   0  0  0  0  0  0  0  0  0  0  0  0
   18.4597    4.0094    7.2051 C   0  0  0  0  0  0  0  0  0  0  0  0
   19.5499    4.5035    7.8111 N   0  0  0  0  0  0  0  0  0  0  0  0
   19.5875    5.7222    8.3246 C   0  0  0  0  0  0  0  0  0  0  0  0
   18.5378    6.5249    8.2560 N   0  0  0  0  0  0  0  0  0  0  0  0
   17.4039    6.0931    7.6632 C   0  0  0  0  0  0  0  0  0  0  0  0
   17.3263    4.8232    7.1165 C   0  0  0  0  0  0  0  0  0  0  0  0
   16.0987    4.6842    6.6087 N   0  0  0  0  0  0  0  0  0  0  0  0
   15.4295    5.8270    6.8219 C   0  0  0  0  0  0  0  0  0  0  0  0
   16.2329    6.6868    7.4659 N   0  0  0  0  0  0  0  0  0  0  0  0
   17.6932    2.3896    6.2683 H   0  0  0  0  0  0  0  0  0  0  0  0
   19.3037    2.2167    6.8012 H   0  0  0  0  0  0  0  0  0  0  0  0
   17.9053    8.0862   11.6311 S   0  0  0  0  0  0  0  0  0  0  0  0
   18.0282    6.8167   12.9583 C   0  0  0  0  0  0  0  0  0  0  0  0
   19.1351    7.0763   14.0213 C   0  0  0  0  0  0  0  0  0  0  0  0
   20.2165    7.8596   13.4346 O   0  0  0  0  0  0  0  0  0  0  0  0
   18.6217    7.8858   15.2249 C   0  0  0  0  0  0  0  0  0  0  0  0
   19.1417    7.3266   16.4445 O   0  0  0  0  0  0  0  0  0  0  0  0
   19.1868    9.2858   14.9878 C   0  0  0  0  0  0  0  0  0  0  0  0
   19.4003    9.9880   16.2237 O   0  0  0  0  0  0  0  0  0  0  0  0
   20.5199    8.9474   14.3468 C   0  0  0  0  0  0  0  0  0  0  0  0
   20.1107    7.3091   16.4048 H   0  0  0  0  0  0  0  0  0  0  0  0
   19.9785    9.4624   16.7985 H   0  0  0  0  0  0  0  0  0  0  0  0
   21.0844   10.0800   13.5626 N   0  0  0  0  0  0  0  0  0  0  0  0
   22.3534   10.2356   13.1694 C   0  0  0  0  0  0  0  0  0  0  0  0
   22.4712   11.3771   12.4908 N   0  0  0  0  0  0  0  0  0  0  0  0
   21.2727   11.9578   12.4655 C   0  0  0  0  0  0  0  0  0  0  0  0
   20.3902   11.1319   13.1502 C   0  0  0  0  0  0  0  0  0  0  0  0
   19.0932   11.4786   13.2703 N   0  0  0  0  0  0  0  0  0  0  0  0
   18.6550   12.6146   12.7422 C   0  0  0  0  0  0  0  0  0  0  0  0
   19.4712   13.4292   12.0806 N   0  0  0  0  0  0  0  0  0  0  0  0
   20.7780   13.1465   11.9252 C   0  0  0  0  0  0  0  0  0  0  0  0
   21.5758   13.9835   11.2601 N   0  0  0  0  0  0  0  0  0  0  0  0
   22.5307   13.7705   11.1501 H   0  0  0  0  0  0  0  0  0  0  0  0
   21.2097   14.8142   10.8791 H   0  0  0  0  0  0  0  0  0  0  0  0
 12 13  1  0  0  0
 13 18  2  0  0  0
 13 14  1  0  0  0
 14 15  2  0  0  0
 15 16  1  0  0  0
 16 17  2  0  0  0
 17 18  1  0  0  0
 17 21  1  0  0  0
 18 19  1  0  0  0
 19 20  2  0  0  0
 20 21  1  0  0  0
 21  3  1  0  0  0
  3  5  1  0  0  0
  3  4  1  0  0  0
  4  9  1  0  0  0
  5  6  1  0  0  0
  5  7  1  0  0  0
  7  8  1  0  0  0
  7  9  1  0  0  0
  9  2  1  0  0  0
  2  1  1  0  0  0
  1 24  1  0  0  0
 24 25  1  0  0  0
 25 26  1  0  0  0
 26 27  1  0  0  0
 26 28  1  0  0  0
 27 32  1  0  0  0
 28 30  1  0  0  0
 28 29  1  0  0  0
 30 32  1  0  0  0
 30 31  1  0  0  0
 32 35  1  0  0  0
 35 36  1  0  0  0
 35 39  1  0  0  0
 36 37  2  0  0  0
 37 38  1  0  0  0
 38 43  1  0  0  0
 38 39  2  0  0  0
 39 40  1  0  0  0
 40 41  2  0  0  0
 41 42  1  0  0  0
 42 43  2  0  0  0
 43 44  1  0  0  0
 12 22  1  0  0  0
 12 23  1  0  0  0
  6 10  1  0  0  0
  8 11  1  0  0  0
 29 33  1  0  0  0
 31 34  1  0  0  0
 44 45  1  0  0  0
 44 46  1  0  0  0
M  END
> <minimizedAffinity>
-9.37782

$$$$
2I2C_DTA_A_273


 46 51  0  0  0  0  0  0  0  0999 V2000
   13.2119    6.8683    8.2672 S   0  0  0  0  0  0  0  0  0  0  0  0
   12.7608    8.6444    8.3692 C   0  0  0  0  0  0  0  0  0  0  0  0
   15.3847   10.3163   10.2639 C   0  0  0  0  0  0  0  0  0  0  0  0
   14.0438    9.8106   10.0658 O   0  0  0  0  0  0  0  0  0  0  0  0
   16.2609    9.6296    9.2073 C   0  0  0  0  0  0  0  0  0  0  0  0
   16.9650   10.6252    8.4562 O   0  0  0  0  0  0  0  0  0  0  0  0
   15.2387    8.8960    8.3247 C   0  0  0  0  0  0  0  0  0  0  0  0
   15.5403    9.0426    6.9401 O   0  0  0  0  0  0  0  0  0  0  0  0
   13.9241    9.5987    8.6598 C   0  0  0  0  0  0  0  0  0  0  0  0
   16.3296   11.2469    8.0681 H   0  0  0  0  0  0  0  0  0  0  0  0
   15.5695    9.9853    6.7136 H   0  0  0  0  0  0  0  0  0  0  0  0
   18.6380    9.7989   15.2956 N   0  0  0  0  0  0  0  0  0  0  0  0
   18.3990   10.2162   14.0434 C   0  0  0  0  0  0  0  0  0  0  0  0
   19.3159   10.9657   13.4130 N   0  0  0  0  0  0  0  0  0  0  0  0
   19.1409   11.4179   12.1821 C   0  0  0  0  0  0  0  0  0  0  0  0
   18.0396   11.1408   11.5029 N   0  0  0  0  0  0  0  0  0  0  0  0
   17.0711   10.3941   12.0758 C   0  0  0  0  0  0  0  0  0  0  0  0
   17.2179    9.9052   13.3631 C   0  0  0  0  0  0  0  0  0  0  0  0
   16.1130    9.2128   13.6528 N   0  0  0  0  0  0  0  0  0  0  0  0
   15.3026    9.2583   12.5849 C   0  0  0  0  0  0  0  0  0  0  0  0
   15.8940    9.9808   11.6217 N   0  0  0  0  0  0  0  0  0  0  0  0
   17.9714    9.2485   15.7667 H   0  0  0  0  0  0  0  0  0  0  0  0
   19.4800   10.0430   15.7436 H   0  0  0  0  0  0  0  0  0  0  0  0
   12.8936    6.2996    6.3273 S   0  0  0  0  0  0  0  0  0  0  0  0
   12.4472    4.5166    6.4257 C   0  0  0  0  0  0  0  0  0  0  0  0
   13.6523    3.5387    6.5444 C   0  0  0  0  0  0  0  0  0  0  0  0
   14.8591    4.2752    6.9030 O   0  0  0  0  0  0  0  0  0  0  0  0
   13.4507    2.4817    7.6443 C   0  0  0  0  0  0  0  0  0  0  0  0
   13.8870    1.1956    7.1686 O   0  0  0  0  0  0  0  0  0  0  0  0
   14.3453    2.9689    8.7835 C   0  0  0  0  0  0  0  0  0  0  0  0
   14.8177    1.8775    9.5909 O   0  0  0  0  0  0  0  0  0  0  0  0
   15.4971    3.5709    8.0004 C   0  0  0  0  0  0  0  0  0  0  0  0
   14.8128    1.2529    6.8847 H   0  0  0  0  0  0  0  0  0  0  0  0
   15.2754    1.2335    9.0282 H   0  0  0  0  0  0  0  0  0  0  0  0
   16.2844    4.5508    8.7983 N   0  0  0  0  0  0  0  0  0  0  0  0
   15.8695    5.2397    9.8672 C   0  0  0  0  0  0  0  0  0  0  0  0
   16.8590    6.0184   10.3052 N   0  0  0  0  0  0  0  0  0  0  0  0
   17.9046    5.8344    9.5005 C   0  0  0  0  0  0  0  0  0  0  0  0
   17.5371    4.9008    8.5396 C   0  0  0  0  0  0  0  0  0  0  0  0
   18.4189    4.5194    7.5943 N   0  0  0  0  0  0  0  0  0  0  0  0
   19.6395    5.0400    7.5721 C   0  0  0  0  0  0  0  0  0  0  0  0
   20.0253    5.9358    8.4756 N   0  0  0  0  0  0  0  0  0  0  0  0
   19.1955    6.3633    9.4454 C   0  0  0  0  0  0  0  0  0  0  0  0
   19.6071    7.2661   10.3371 N   0  0  0  0  0  0  0  0  0  0  0  0
   18.9949    7.5744   11.0438 H   0  0  0  0  0  0  0  0  0  0  0  0
   20.5229    7.6239   10.2884 H   0  0  0  0  0  0  0  0  0  0  0  0
 12 13  1  0  0  0
 13 18  2  0  0  0
 13 14  1  0  0  0
 14 15  2  0  0  0
 15 16  1  0  0  0
 16 17  2  0  0  0
 17 18  1  0  0  0
 17 21  1  0  0  0
 18 19  1  0  0  0
 19 20  2  0  0  0
 20 21  1  0  0  0
 21  3  1  0  0  0
  3  5  1  0  0  0
  3  4  1  0  0  0
  4  9  1  0  0  0
  5  6  1  0  0  0
  5  7  1  0  0  0
  7  8  1  0  0  0
  7  9  1  0  0  0
  9  2  1  0  0  0
  2  1  1  0  0  0
  1 24  1  0  0  0
 24 25  1  0  0  0
 25 26  1  0  0  0
 26 27  1  0  0  0
 26 28  1  0  0  0
 27 32  1  0  0  0
 28 30  1  0  0  0
 28 29  1  0  0  0
 30 32  1  0  0  0
 30 31  1  0  0  0
 32 35  1  0  0  0
 35 36  1  0  0  0
 35 39  1  0  0  0
 36 37  2  0  0  0
 37 38  1  0  0  0
 38 43  1  0  0  0
 38 39  2  0  0  0
 39 40  1  0  0  0
 40 41  2  0  0  0
 41 42  1  0  0  0
 42 43  2  0  0  0
 43 44  1  0  0  0
 12 22  1  0  0  0
 12 23  1  0  0  0
  6 10  1  0  0  0
  8 11  1  0  0  0
 29 33  1  0  0  0
 31 34  1  0  0  0
 44 45  1  0  0  0
 44 46  1  0  0  0
M  END
> <minimizedAffinity>
-9.29808

$$$$
2I2C_DTA_A_273


 46 51  0  0  0  0  0  0  0  0999 V2000
   15.9242    6.2591   10.8852 S   0  0  0  0  0  0  0  0  0  0  0  0
   15.5957    4.5035   11.3076 C   0  0  0  0  0  0  0  0  0  0  0  0
   13.4191    3.9602    8.4374 C   0  0  0  0  0  0  0  0  0  0  0  0
   13.9185    4.7130    9.5674 O   0  0  0  0  0  0  0  0  0  0  0  0
   14.4811    2.8956    8.1300 C   0  0  0  0  0  0  0  0  0  0  0  0
   13.8651    1.6028    8.1141 O   0  0  0  0  0  0  0  0  0  0  0  0
   15.4596    3.0238    9.3083 C   0  0  0  0  0  0  0  0  0  0  0  0
   15.8551    1.7476    9.8028 O   0  0  0  0  0  0  0  0  0  0  0  0
   14.6403    3.7708   10.3594 C   0  0  0  0  0  0  0  0  0  0  0  0
   13.4151    1.4487    8.9595 H   0  0  0  0  0  0  0  0  0  0  0  0
   15.0686    1.2457   10.0680 H   0  0  0  0  0  0  0  0  0  0  0  0
   11.8951    6.2767    3.1006 N   0  0  0  0  0  0  0  0  0  0  0  0
   11.9369    5.3205    4.0404 C   0  0  0  0  0  0  0  0  0  0  0  0
   11.3303    4.1459    3.8118 N   0  0  0  0  0  0  0  0  0  0  0  0
   11.3249    3.1637    4.6982 C   0  0  0  0  0  0  0  0  0  0  0  0
   11.9337    3.2941    5.8658 N   0  0  0  0  0  0  0  0  0  0  0  0
   12.5622    4.4510    6.1663 C   0  0  0  0  0  0  0  0  0  0  0  0
   12.5871    5.5018    5.2648 C   0  0  0  0  0  0  0  0  0  0  0  0
   13.2724    6.4969    5.8343 N   0  0  0  0  0  0  0  0  0  0  0  0
   13.6702    6.0858    7.0475 C   0  0  0  0  0  0  0  0  0  0  0  0
   13.2348    4.8325    7.2455 N   0  0  0  0  0  0  0  0  0  0  0  0
   12.3372    7.1420    3.2589 H   0  0  0  0  0  0  0  0  0  0  0  0
   11.4225    6.1132    2.2526 H   0  0  0  0  0  0  0  0  0  0  0  0
   14.9154    7.3858   12.2639 S   0  0  0  0  0  0  0  0  0  0  0  0
   13.8679    8.5246   11.2669 C   0  0  0  0  0  0  0  0  0  0  0  0
   14.4923    9.9224   10.9865 C   0  0  0  0  0  0  0  0  0  0  0  0
   15.6804   10.1127   11.8108 O   0  0  0  0  0  0  0  0  0  0  0  0
   14.9513   10.0836    9.5267 C   0  0  0  0  0  0  0  0  0  0  0  0
   14.5815   11.3869    9.0417 O   0  0  0  0  0  0  0  0  0  0  0  0
   16.4714    9.9480    9.6076 C   0  0  0  0  0  0  0  0  0  0  0  0
   17.1261   10.6849    8.5615 O   0  0  0  0  0  0  0  0  0  0  0  0
   16.7422   10.6016   10.9499 C   0  0  0  0  0  0  0  0  0  0  0  0
   14.9618   12.0668    9.6196 H   0  0  0  0  0  0  0  0  0  0  0  0
   16.8484   11.6136    8.5976 H   0  0  0  0  0  0  0  0  0  0  0  0
   18.0502   10.1953   11.5335 N   0  0  0  0  0  0  0  0  0  0  0  0
   18.5259    8.9516   11.6598 C   0  0  0  0  0  0  0  0  0  0  0  0
   19.7291    8.9923   12.2324 N   0  0  0  0  0  0  0  0  0  0  0  0
   20.0134   10.2689   12.4853 C   0  0  0  0  0  0  0  0  0  0  0  0
   18.9425   11.0345   12.0416 C   0  0  0  0  0  0  0  0  0  0  0  0
   18.9713   12.3761   12.1678 N   0  0  0  0  0  0  0  0  0  0  0  0
   20.0191   12.9713   12.7240 C   0  0  0  0  0  0  0  0  0  0  0  0
   21.0612   12.2702   13.1600 N   0  0  0  0  0  0  0  0  0  0  0  0
   21.0977   10.9278   13.0680 C   0  0  0  0  0  0  0  0  0  0  0  0
   22.1543   10.2485   13.5170 N   0  0  0  0  0  0  0  0  0  0  0  0
   22.1744    9.2667   13.4466 H   0  0  0  0  0  0  0  0  0  0  0  0
   22.9138   10.7289   13.9189 H   0  0  0  0  0  0  0  0  0  0  0  0
 12 13  1  0  0  0
 13 18  2  0  0  0
 13 14  1  0  0  0
 14 15  2  0  0  0
 15 16  1  0  0  0
 16 17  2  0  0  0
 17 18  1  0  0  0
 17 21  1  0  0  0
 18 19  1  0  0  0
 19 20  2  0  0  0
 20 21  1  0  0  0
 21  3  1  0  0  0
  3  5  1  0  0  0
  3  4  1  0  0  0
  4  9  1  0  0  0
  5  6  1  0  0  0
  5  7  1  0  0  0
  7  8  1  0  0  0
  7  9  1  0  0  0
  9  2  1  0  0  0
  2  1  1  0  0  0
  1 24  1  0  0  0
 24 25  1  0  0  0
 25 26  1  0  0  0
 26 27  1  0  0  0
 26 28  1  0  0  0
 27 32  1  0  0  0
 28 30  1  0  0  0
 28 29  1  0  0  0
 30 32  1  0  0  0
 30 31  1  0  0  0
 32 35  1  0  0  0
 35 36  1  0  0  0
 35 39  1  0  0  0
 36 37  2  0  0  0
 37 38  1  0  0  0
 38 43  1  0  0  0
 38 39  2  0  0  0
 39 40  1  0  0  0
 40 41  2  0  0  0
 41 42  1  0  0  0
 42 43  2  0  0  0
 43 44  1  0  0  0
 12 22  1  0  0  0
 12 23  1  0  0  0
  6 10  1  0  0  0
  8 11  1  0  0  0
 29 33  1  0  0  0
 31 34  1  0  0  0
 44 45  1  0  0  0
 44 46  1  0  0  0
M  END
> <minimizedAffinity>
-9.01667

$$$$
2I2C_DTA_A_273


 46 51  0  0  0  0  0  0  0  0999 V2000
   12.8828    9.2152   12.3757 S   0  0  0  0  0  0  0  0  0  0  0  0
   12.8515    7.7887   11.2215 C   0  0  0  0  0  0  0  0  0  0  0  0
   14.4617    7.3876    7.9785 C   0  0  0  0  0  0  0  0  0  0  0  0
   14.4327    7.3925    9.4249 O   0  0  0  0  0  0  0  0  0  0  0  0
   12.9977    7.3239    7.5219 C   0  0  0  0  0  0  0  0  0  0  0  0
   12.7370    8.4013    6.6151 O   0  0  0  0  0  0  0  0  0  0  0  0
   12.2124    7.5047    8.8306 C   0  0  0  0  0  0  0  0  0  0  0  0
   11.1143    8.3969    8.6643 O   0  0  0  0  0  0  0  0  0  0  0  0
   13.2494    8.1082    9.7764 C   0  0  0  0  0  0  0  0  0  0  0  0
   12.9592    9.2437    7.0416 H   0  0  0  0  0  0  0  0  0  0  0  0
   11.4387    9.2525    8.3423 H   0  0  0  0  0  0  0  0  0  0  0  0
   18.5835    3.2166    6.6434 N   0  0  0  0  0  0  0  0  0  0  0  0
   18.1444    4.3494    7.2117 C   0  0  0  0  0  0  0  0  0  0  0  0
   18.9912    5.0909    7.9417 N   0  0  0  0  0  0  0  0  0  0  0  0
   18.6224    6.2135    8.5368 C   0  0  0  0  0  0  0  0  0  0  0  0
   17.3840    6.6675    8.4311 N   0  0  0  0  0  0  0  0  0  0  0  0
   16.4757    5.9709    7.7145 C   0  0  0  0  0  0  0  0  0  0  0  0
   16.8243    4.7907    7.0795 C   0  0  0  0  0  0  0  0  0  0  0  0
   15.7322    4.3365    6.4589 N   0  0  0  0  0  0  0  0  0  0  0  0
   14.7337    5.2022    6.6890 C   0  0  0  0  0  0  0  0  0  0  0  0
   15.1940    6.2016    7.4563 N   0  0  0  0  0  0  0  0  0  0  0  0
   17.9698    2.6655    6.1058 H   0  0  0  0  0  0  0  0  0  0  0  0
   19.5195    2.9361    6.7638 H   0  0  0  0  0  0  0  0  0  0  0  0
   14.5430    8.9763   13.5481 S   0  0  0  0  0  0  0  0  0  0  0  0
   15.2761    7.3769   13.0071 C   0  0  0  0  0  0  0  0  0  0  0  0
   16.7985    7.2180   13.2895 C   0  0  0  0  0  0  0  0  0  0  0  0
   17.5502    8.2312   12.5575 O   0  0  0  0  0  0  0  0  0  0  0  0
   17.1484    7.4127   14.7752 C   0  0  0  0  0  0  0  0  0  0  0  0
   18.1029    6.4167   15.1846 O   0  0  0  0  0  0  0  0  0  0  0  0
   17.7694    8.8083   14.8215 C   0  0  0  0  0  0  0  0  0  0  0  0
   18.7216    8.9299   15.8914 O   0  0  0  0  0  0  0  0  0  0  0  0
   18.4852    8.8434   13.4841 C   0  0  0  0  0  0  0  0  0  0  0  0
   18.8875    6.4680   14.6166 H   0  0  0  0  0  0  0  0  0  0  0  0
   19.3985    8.2410   15.8018 H   0  0  0  0  0  0  0  0  0  0  0  0
   18.7716   10.2293   13.0217 N   0  0  0  0  0  0  0  0  0  0  0  0
   17.8801   11.1831   12.7306 C   0  0  0  0  0  0  0  0  0  0  0  0
   18.5208   12.2880   12.3485 N   0  0  0  0  0  0  0  0  0  0  0  0
   19.8272   12.0301   12.3826 C   0  0  0  0  0  0  0  0  0  0  0  0
   19.9861   10.7177   12.8097 C   0  0  0  0  0  0  0  0  0  0  0  0
   21.2209   10.1943   12.9437 N   0  0  0  0  0  0  0  0  0  0  0  0
   22.2904   10.9275   12.6604 C   0  0  0  0  0  0  0  0  0  0  0  0
   22.1758   12.1865   12.2491 N   0  0  0  0  0  0  0  0  0  0  0  0
   20.9738   12.7713   12.0907 C   0  0  0  0  0  0  0  0  0  0  0  0
   20.8873   14.0351   11.6728 N   0  0  0  0  0  0  0  0  0  0  0  0
   20.0049   14.4567   11.5591 H   0  0  0  0  0  0  0  0  0  0  0  0
   21.7059   14.5463   11.4780 H   0  0  0  0  0  0  0  0  0  0  0  0
 12 13  1  0  0  0
 13 18  2  0  0  0
 13 14  1  0  0  0
 14 15  2  0  0  0
 15 16  1  0  0  0
 16 17  2  0  0  0
 17 18  1  0  0  0
 17 21  1  0  0  0
 18 19  1  0  0  0
 19 20  2  0  0  0
 20 21  1  0  0  0
 21  3  1  0  0  0
  3  5  1  0  0  0
  3  4  1  0  0  0
  4  9  1  0  0  0
  5  6  1  0  0  0
  5  7  1  0  0  0
  7  8  1  0  0  0
  7  9  1  0  0  0
  9  2  1  0  0  0
  2  1  1  0  0  0
  1 24  1  0  0  0
 24 25  1  0  0  0
 25 26  1  0  0  0
 26 27  1  0  0  0
 26 28  1  0  0  0
 27 32  1  0  0  0
 28 30  1  0  0  0
 28 29  1  0  0  0
 30 32  1  0  0  0
 30 31  1  0  0  0
 32 35  1  0  0  0
 35 36  1  0  0  0
 35 39  1  0  0  0
 36 37  2  0  0  0
 37 38  1  0  0  0
 38 43  1  0  0  0
 38 39  2  0  0  0
 39 40  1  0  0  0
 40 41  2  0  0  0
 41 42  1  0  0  0
 42 43  2  0  0  0
 43 44  1  0  0  0
 12 22  1  0  0  0
 12 23  1  0  0  0
  6 10  1  0  0  0
  8 11  1  0  0  0
 29 33  1  0  0  0
 31 34  1  0  0  0
 44 45  1  0  0  0
 44 46  1  0  0  0
M  END
> <minimizedAffinity>
-8.97511

$$$$
