5MEK_A3P_A_401


 34 36  0  0  0  0  0  0  0  0999 V2000
   32.7830   32.1492   23.8403 C   0  0  0  0  0  0  0  0  0  0  0  0
   32.7975   33.4476   24.5264 O   0  0  0  0  0  0  0  0  0  0  0  0
   34.2828   31.8695   23.4633 C   0  0  0  0  0  0  0  0  0  0  0  0
   34.9181   32.5291   24.7173 C   0  0  0  0  0  0  0  0  0  0  0  0
   36.3466   32.7639   24.6272 O   0  0  0  0  0  0  0  0  0  0  0  0
   34.1481   33.8679   24.7919 C   0  0  0  0  0  0  0  0  0  0  0  0
   36.5328   33.3360   23.8663 H   0  0  0  0  0  0  0  0  0  0  0  0
   34.1400   34.5256   26.1191 N   0  0  0  0  0  0  0  0  0  0  0  0
   34.1684   33.9057   27.3095 C   0  0  0  0  0  0  0  0  0  0  0  0
   34.1791   34.7548   28.3501 N   0  0  0  0  0  0  0  0  0  0  0  0
   34.0838   35.9513   27.7499 C   0  0  0  0  0  0  0  0  0  0  0  0
   34.0161   37.3167   28.2339 C   0  0  0  0  0  0  0  0  0  0  0  0
   33.9977   37.4966   29.5448 N   0  0  0  0  0  0  0  0  0  0  0  0
   33.9261   38.2947   27.3530 N   0  0  0  0  0  0  0  0  0  0  0  0
   33.9242   38.0984   26.0299 C   0  0  0  0  0  0  0  0  0  0  0  0
   33.9978   36.9105   25.4791 N   0  0  0  0  0  0  0  0  0  0  0  0
   34.0727   35.8353   26.3035 C   0  0  0  0  0  0  0  0  0  0  0  0
   34.0690   36.7225   30.1489 H   0  0  0  0  0  0  0  0  0  0  0  0
   33.9126   38.4045   29.9159 H   0  0  0  0  0  0  0  0  0  0  0  0
   32.1312   31.0069   24.6343 C   0  0  0  0  0  0  0  0  0  0  0  0
   30.8683   31.4649   25.1057 O   0  0  0  0  0  0  0  0  0  0  0  0
   30.4713   30.9047   26.4762 P   0  0  0  0  0  0  0  0  0  0  0  0
   28.9035   30.5254   26.2005 O   0  0  0  0  0  0  0  0  0  0  0  0
   31.2682   29.7049   26.9736 O   0  0  0  0  0  0  0  0  0  0  0  0
   30.6091   32.0489   27.4628 O   0  0  0  0  0  0  0  0  0  0  0  0
   30.9358   29.4343   27.8438 H   0  0  0  0  0  0  0  0  0  0  0  0
   30.3672   31.7414   28.3504 H   0  0  0  0  0  0  0  0  0  0  0  0
   34.5809   32.5777   22.2653 O   0  0  0  0  0  0  0  0  0  0  0  0
   35.6320   31.9583   21.1441 P   0  0  0  0  0  0  0  0  0  0  0  0
   34.8283   30.9109   20.4712 O   0  0  0  0  0  0  0  0  0  0  0  0
   36.8467   31.4372   21.9702 O   0  0  0  0  0  0  0  0  0  0  0  0
   36.0296   33.1422   20.2410 O   0  0  0  0  0  0  0  0  0  0  0  0
   37.5072   31.0575   21.3697 H   0  0  0  0  0  0  0  0  0  0  0  0
   36.6491   32.8359   19.5604 H   0  0  0  0  0  0  0  0  0  0  0  0
 29 30  2  0  0  0
 29 31  1  0  0  0
 29 32  1  0  0  0
 29 28  1  0  0  0
 22 23  2  0  0  0
 22 24  1  0  0  0
 22 25  1  0  0  0
 22 21  1  0  0  0
 21 20  1  0  0  0
 20  1  1  0  0  0
  1  2  1  0  0  0
  1  3  1  0  0  0
  2  6  1  0  0  0
  3 28  1  0  0  0
  3  4  1  0  0  0
  4  5  1  0  0  0
  4  6  1  0  0  0
  6  8  1  0  0  0
  8  9  1  0  0  0
  8 17  1  0  0  0
  9 10  2  0  0  0
 10 11  1  0  0  0
 11 12  1  0  0  0
 11 17  2  0  0  0
 12 13  1  0  0  0
 12 14  2  0  0  0
 14 15  1  0  0  0
 15 16  2  0  0  0
 16 17  1  0  0  0
 31 33  1  0  0  0
 32 34  1  0  0  0
 24 26  1  0  0  0
 25 27  1  0  0  0
  5  7  1  0  0  0
 13 18  1  0  0  0
 13 19  1  0  0  0
M  END
> <minimizedAffinity>
-13.43267

$$$$
5MEK_A3P_A_401


 34 36  0  0  0  0  0  0  0  0999 V2000
   32.7613   31.8412   24.5246 C   0  0  0  0  0  0  0  0  0  0  0  0
   32.6960   33.2973   24.7056 O   0  0  0  0  0  0  0  0  0  0  0  0
   34.2477   31.5477   24.1073 C   0  0  0  0  0  0  0  0  0  0  0  0
   34.9082   32.6552   24.9722 C   0  0  0  0  0  0  0  0  0  0  0  0
   36.2934   32.9388   24.6490 O   0  0  0  0  0  0  0  0  0  0  0  0
   34.0128   33.8758   24.6566 C   0  0  0  0  0  0  0  0  0  0  0  0
   36.3596   33.2107   23.7203 H   0  0  0  0  0  0  0  0  0  0  0  0
   34.0412   34.9640   25.6611 N   0  0  0  0  0  0  0  0  0  0  0  0
   34.3292   36.2534   25.4230 C   0  0  0  0  0  0  0  0  0  0  0  0
   34.2533   37.0256   26.5193 N   0  0  0  0  0  0  0  0  0  0  0  0
   33.9688   36.1355   27.4826 C   0  0  0  0  0  0  0  0  0  0  0  0
   33.7651   36.2345   28.9150 C   0  0  0  0  0  0  0  0  0  0  0  0
   33.9184   37.4261   29.4697 N   0  0  0  0  0  0  0  0  0  0  0  0
   33.4908   35.1352   29.5908 N   0  0  0  0  0  0  0  0  0  0  0  0
   33.3593   33.9321   29.0212 C   0  0  0  0  0  0  0  0  0  0  0  0
   33.5047   33.7261   27.7342 N   0  0  0  0  0  0  0  0  0  0  0  0
   33.8097   34.7936   26.9539 C   0  0  0  0  0  0  0  0  0  0  0  0
   34.1226   38.2082   28.9076 H   0  0  0  0  0  0  0  0  0  0  0  0
   33.8281   37.5306   30.4444 H   0  0  0  0  0  0  0  0  0  0  0  0
   32.2947   31.0188   25.7353 C   0  0  0  0  0  0  0  0  0  0  0  0
   31.0119   30.4806   25.4324 O   0  0  0  0  0  0  0  0  0  0  0  0
   30.0672   30.3991   26.6368 P   0  0  0  0  0  0  0  0  0  0  0  0
   30.4566   31.7847   27.4154 O   0  0  0  0  0  0  0  0  0  0  0  0
   28.5778   30.3208   26.3247 O   0  0  0  0  0  0  0  0  0  0  0  0
   30.4846   29.1727   27.4263 O   0  0  0  0  0  0  0  0  0  0  0  0
   28.0759   30.2732   27.1533 H   0  0  0  0  0  0  0  0  0  0  0  0
   29.9120   29.0782   28.2035 H   0  0  0  0  0  0  0  0  0  0  0  0
   34.3765   31.7969   22.7119 O   0  0  0  0  0  0  0  0  0  0  0  0
   35.4889   30.9792   21.7957 P   0  0  0  0  0  0  0  0  0  0  0  0
   36.7194   31.7888   21.9577 O   0  0  0  0  0  0  0  0  0  0  0  0
   34.8918   30.9565   20.3561 O   0  0  0  0  0  0  0  0  0  0  0  0
   35.5686   29.5621   22.3963 O   0  0  0  0  0  0  0  0  0  0  0  0
   35.4985   30.4878   19.7618 H   0  0  0  0  0  0  0  0  0  0  0  0
   36.2100   29.0343   21.8955 H   0  0  0  0  0  0  0  0  0  0  0  0
 29 30  2  0  0  0
 29 31  1  0  0  0
 29 32  1  0  0  0
 29 28  1  0  0  0
 22 23  2  0  0  0
 22 24  1  0  0  0
 22 25  1  0  0  0
 22 21  1  0  0  0
 21 20  1  0  0  0
 20  1  1  0  0  0
  1  2  1  0  0  0
  1  3  1  0  0  0
  2  6  1  0  0  0
  3 28  1  0  0  0
  3  4  1  0  0  0
  4  5  1  0  0  0
  4  6  1  0  0  0
  6  8  1  0  0  0
  8  9  1  0  0  0
  8 17  1  0  0  0
  9 10  2  0  0  0
 10 11  1  0  0  0
 11 12  1  0  0  0
 11 17  2  0  0  0
 12 13  1  0  0  0
 12 14  2  0  0  0
 14 15  1  0  0  0
 15 16  2  0  0  0
 16 17  1  0  0  0
 31 33  1  0  0  0
 32 34  1  0  0  0
 24 26  1  0  0  0
 25 27  1  0  0  0
  5  7  1  0  0  0
 13 18  1  0  0  0
 13 19  1  0  0  0
M  END
> <minimizedAffinity>
-12.07580

$$$$
5MEK_A3P_A_401


 34 36  0  0  0  0  0  0  0  0999 V2000
   33.7749   32.6233   25.5819 C   0  0  0  0  0  0  0  0  0  0  0  0
   34.3073   33.5047   26.6291 O   0  0  0  0  0  0  0  0  0  0  0  0
   32.3083   32.2884   26.0364 C   0  0  0  0  0  0  0  0  0  0  0  0
   31.9946   33.6628   26.6874 C   0  0  0  0  0  0  0  0  0  0  0  0
   30.8083   33.6878   27.5214 O   0  0  0  0  0  0  0  0  0  0  0  0
   33.2642   33.9052   27.5361 C   0  0  0  0  0  0  0  0  0  0  0  0
   30.9010   33.0374   28.2351 H   0  0  0  0  0  0  0  0  0  0  0  0
   33.5290   35.3169   27.8983 N   0  0  0  0  0  0  0  0  0  0  0  0
   33.7224   35.7927   29.1386 C   0  0  0  0  0  0  0  0  0  0  0  0
   33.9686   37.1127   29.1685 N   0  0  0  0  0  0  0  0  0  0  0  0
   33.8493   37.4599   27.8776 C   0  0  0  0  0  0  0  0  0  0  0  0
   33.9558   38.7155   27.1599 C   0  0  0  0  0  0  0  0  0  0  0  0
   34.1764   39.8072   27.8746 N   0  0  0  0  0  0  0  0  0  0  0  0
   33.7788   38.7120   25.8525 N   0  0  0  0  0  0  0  0  0  0  0  0
   33.5351   37.6043   25.1436 C   0  0  0  0  0  0  0  0  0  0  0  0
   33.4344   36.4131   25.6831 N   0  0  0  0  0  0  0  0  0  0  0  0
   33.5804   36.3142   27.0285 C   0  0  0  0  0  0  0  0  0  0  0  0
   34.3005   39.7409   28.8490 H   0  0  0  0  0  0  0  0  0  0  0  0
   34.2164   40.6856   27.4319 H   0  0  0  0  0  0  0  0  0  0  0  0
   33.8563   33.1918   24.1570 C   0  0  0  0  0  0  0  0  0  0  0  0
   33.9501   32.0966   23.2521 O   0  0  0  0  0  0  0  0  0  0  0  0
   35.3720   31.8179   22.7522 P   0  0  0  0  0  0  0  0  0  0  0  0
   35.4137   32.7730   21.4241 O   0  0  0  0  0  0  0  0  0  0  0  0
   36.5047   32.1387   23.7197 O   0  0  0  0  0  0  0  0  0  0  0  0
   35.4175   30.3456   22.3892 O   0  0  0  0  0  0  0  0  0  0  0  0
   37.3549   31.9257   23.3042 H   0  0  0  0  0  0  0  0  0  0  0  0
   36.3035   30.1197   22.0653 H   0  0  0  0  0  0  0  0  0  0  0  0
   32.3671   31.2343   26.9909 O   0  0  0  0  0  0  0  0  0  0  0  0
   31.1240   30.1498   27.1458 P   0  0  0  0  0  0  0  0  0  0  0  0
   31.6713   29.1415   28.0837 O   0  0  0  0  0  0  0  0  0  0  0  0
   30.8512   29.6351   25.7000 O   0  0  0  0  0  0  0  0  0  0  0  0
   29.9292   30.9547   27.6933 O   0  0  0  0  0  0  0  0  0  0  0  0
   30.1272   28.9899   25.7177 H   0  0  0  0  0  0  0  0  0  0  0  0
   29.1665   30.3658   27.8048 H   0  0  0  0  0  0  0  0  0  0  0  0
 29 30  2  0  0  0
 29 31  1  0  0  0
 29 32  1  0  0  0
 29 28  1  0  0  0
 22 23  2  0  0  0
 22 24  1  0  0  0
 22 25  1  0  0  0
 22 21  1  0  0  0
 21 20  1  0  0  0
 20  1  1  0  0  0
  1  2  1  0  0  0
  1  3  1  0  0  0
  2  6  1  0  0  0
  3 28  1  0  0  0
  3  4  1  0  0  0
  4  5  1  0  0  0
  4  6  1  0  0  0
  6  8  1  0  0  0
  8  9  1  0  0  0
  8 17  1  0  0  0
  9 10  2  0  0  0
 10 11  1  0  0  0
 11 12  1  0  0  0
 11 17  2  0  0  0
 12 13  1  0  0  0
 12 14  2  0  0  0
 14 15  1  0  0  0
 15 16  2  0  0  0
 16 17  1  0  0  0
 31 33  1  0  0  0
 32 34  1  0  0  0
 24 26  1  0  0  0
 25 27  1  0  0  0
  5  7  1  0  0  0
 13 18  1  0  0  0
 13 19  1  0  0  0
M  END
> <minimizedAffinity>
-10.43329

$$$$
