5MEK_A3P_A_401
  RCSB PDB12061719023D
Coordinates from PDB:5MEK:A:401 Model:1 without hydrogens
 27 29  0  0  0  0            999 V2000
   35.5350   31.2920   21.9140   P 0  0  0  0  0  0  0  0  0  0  0  0
   35.2050   31.8010   20.5620   O 0  0  0  0  0  0  0  0  0  0  0  0
   35.5400   29.7400   22.0580   O 0  0  0  0  0  0  0  0  0  0  0  0
   36.7900   31.9220   22.5490   O 0  0  0  0  0  0  0  0  0  0  0  0
   29.8480   30.1310   26.7750   P 0  0  0  0  0  0  0  0  0  0  0  0
   28.2800   30.2700   26.3280   O 0  0  0  0  0  0  0  0  0  0  0  0
   30.2380   28.6820   27.0400   O 0  0  0  0  0  0  0  0  0  0  0  0
   30.1620   30.9720   27.9980   O 0  0  0  0  0  0  0  0  0  0  0  0
   30.5380   30.8160   25.5900   O 0  0  0  0  0  0  0  0  0  0  0  0
   31.9410   30.5840   25.5210   C 0  0  0  0  0  0  0  0  0  0  0  0
   32.5420   31.6030   24.5410   C 0  0  0  0  0  0  0  0  0  0  0  0
   32.5780   32.9860   25.0340   O 0  0  0  0  0  0  0  0  0  0  0  0
   34.0240   31.2760   24.1330   C 0  0  0  0  0  0  0  0  0  0  0  0
   34.2560   31.8070   22.8330   O 0  0  0  0  0  0  0  0  0  0  0  0
   34.7140   32.1090   25.2470   C 0  0  0  0  0  0  0  0  0  0  0  0
   36.1340   32.3320   25.0530   O 0  0  0  0  0  0  0  0  0  0  0  0
   33.9360   33.4430   25.1690   C 0  0  0  0  0  0  0  0  0  0  0  0
   33.9870   34.2830   26.3880   N 0  0  0  0  0  0  0  0  0  0  0  0
   34.1480   33.8430   27.6460   C 0  0  0  0  0  0  0  0  0  0  0  0
   34.1830   34.8320   28.5540   N 0  0  0  0  0  0  0  0  0  0  0  0
   33.9630   35.9230   27.8040   C 0  0  0  0  0  0  0  0  0  0  0  0
   33.8430   37.3380   28.0980   C 0  0  0  0  0  0  0  0  0  0  0  0
   33.9140   37.7030   29.3680   N 0  0  0  0  0  0  0  0  0  0  0  0
   33.6210   38.1730   27.1010   N 0  0  0  0  0  0  0  0  0  0  0  0
   33.5300   37.7890   25.8230   C 0  0  0  0  0  0  0  0  0  0  0  0
   33.6390   36.5400   25.4380   N 0  0  0  0  0  0  0  0  0  0  0  0
   33.8480   35.6000   26.3940   C 0  0  0  0  0  0  0  0  0  0  0  0
  1  2  2  0  0  0  0
  1  3  1  0  0  0  0
  1  4  1  0  0  0  0
  1 14  1  0  0  0  0
  5  6  2  0  0  0  0
  5  7  1  0  0  0  0
  5  8  1  0  0  0  0
  5  9  1  0  0  0  0
  9 10  1  0  0  0  0
 10 11  1  0  0  0  0
 11 12  1  0  0  0  0
 11 13  1  0  0  0  0
 12 17  1  0  0  0  0
 13 14  1  0  0  0  0
 13 15  1  0  0  0  0
 15 16  1  0  0  0  0
 15 17  1  0  0  0  0
 17 18  1  0  0  0  0
 18 19  1  0  0  0  0
 18 27  1  0  0  0  0
 19 20  2  0  0  0  0
 20 21  1  0  0  0  0
 21 22  1  0  0  0  0
 21 27  2  0  0  0  0
 22 23  1  0  0  0  0
 22 24  2  0  0  0  0
 24 25  1  0  0  0  0
 25 26  2  0  0  0  0
 26 27  1  0  0  0  0
A    1
P1
A    2
O1P
A    3
O2P
A    4
O3P
A    5
P2
A    6
O4P
A    7
O5P
A    8
O6P
A    9
O5'
A   10
C5'
A   11
C4'
A   12
O4'
A   13
C3'
A   14
O3'
A   15
C2'
A   16
O2'
A   17
C1'
A   18
N9
A   19
C8
A   20
N7
A   21
C5
A   22
C6
A   23
N6
A   24
N1
A   25
C2
A   26
N3
A   27
C4
M  END
>  <InstanceId>
5MEK_A3P_A_401

>  <ChemCompId>
A3P

>  <PdbId>
5MEK

>  <ChainId>
A

>  <ResidueNumber>
401

>  <InsertionCode>


>  <Model>
1

>  <AltIds>


>  <MissingHeavyAtoms>
0

>  <ObservedFormula>
C10 N5 O10 P2

>  <Name>
ADENOSINE-3'-5'-DIPHOSPHATE

>  <SystematicName>
[(2R,3S,4R,5R)-5-(6-aminopurin-9-yl)-4-hydroxy-2-(phosphonooxymethyl)oxolan-3-yl] dihydrogen phosphate

>  <Synonyms>


>  <Type>
RNA LINKING

>  <Formula>
C10 H15 N5 O10 P2

>  <MolecularWeight>
427.201

>  <ModifiedDate>
2011-06-04

>  <Parent>
A

>  <OneLetterCode>
A

>  <SubcomponentList>


>  <AmbiguousFlag>
N

>  <InChI>
InChI=1S/C10H15N5O10P2/c11-8-5-9(13-2-12-8)15(3-14-5)10-6(16)7(25-27(20,21)22)4(24-10)1-23-26(17,18)19/h2-4,6-7,10,16H,1H2,(H2,11,12,13)(H2,17,18,19)(H2,20,21,22)/t4-,6-,7-,10-/m1/s1

>  <InChIKey>
WHTCPDAXWFLDIH-KQYNXXCUSA-N

>  <SMILES>
c1nc(c2c(n1)n(cn2)[C@H]3[C@@H]([C@@H]([C@H](O3)COP(=O)(O)O)OP(=O)(O)O)O)N

$$$$
