1Z71_L17_A_1001


 35 37  0  0  0  0  0  0  0  0999 V2000
   18.2381  -15.3099   22.5903 C   0  0  0  0  0  0  0  0  0  0  0  0
   17.6296  -14.1901   22.0859 N   0  0  0  0  0  0  0  0  0  0  0  0
   18.2397  -13.4653   21.1260 C   0  0  0  0  0  0  0  0  0  0  0  0
   19.5191  -13.8664   20.6424 C   0  0  0  0  0  0  0  0  0  0  0  0
   20.1760  -15.0285   21.1347 C   0  0  0  0  0  0  0  0  0  0  0  0
   19.5227  -15.7769   22.1391 C   0  0  0  0  0  0  0  0  0  0  0  0
   16.3935  -13.8521   22.5890 O   0  0  0  0  0  0  0  0  0  0  0  0
   20.2881  -12.9413   19.4290 Cl  0  0  0  0  0  0  0  0  0  0  0  0
   17.5365  -15.9251   23.6560 N   0  0  0  0  0  0  0  0  0  0  0  0
   16.6327  -15.5947   23.8639 H   0  0  0  0  0  0  0  0  0  0  0  0
   18.0795  -17.0425   24.4845 C   0  0  0  0  0  0  0  0  0  0  0  0
   18.7318  -16.6111   25.7796 C   0  0  0  0  0  0  0  0  0  0  0  0
   19.0453  -17.7703   26.3975 F   0  0  0  0  0  0  0  0  0  0  0  0
   17.7819  -15.9632   26.4932 F   0  0  0  0  0  0  0  0  0  0  0  0
   20.0029  -14.3596   25.8515 C   0  0  0  0  0  0  0  0  0  0  0  0
   20.0019  -15.7811   25.5903 C   0  0  0  0  0  0  0  0  0  0  0  0
   21.1523  -16.3822   25.0329 N   0  0  0  0  0  0  0  0  0  0  0  0
   22.3141  -15.7107   24.6871 C   0  0  0  0  0  0  0  0  0  0  0  0
   22.3560  -14.2938   24.9251 C   0  0  0  0  0  0  0  0  0  0  0  0
   21.2046  -13.6405   25.5147 C   0  0  0  0  0  0  0  0  0  0  0  0
   21.1127  -17.7139   24.7727 O   0  0  0  0  0  0  0  0  0  0  0  0
   17.5336  -12.2247   20.5966 C   0  0  0  0  0  0  0  0  0  0  0  0
   16.0707  -12.5318   20.2741 C   0  0  0  0  0  0  0  0  0  0  0  0
   15.1946  -11.7530   20.9150 N   0  0  0  0  0  0  0  0  0  0  0  0
   15.7689  -13.4046   19.4646 O   0  0  0  0  0  0  0  0  0  0  0  0
   15.5018  -11.0019   21.4724 H   0  0  0  0  0  0  0  0  0  0  0  0
   13.7643  -12.0435   20.7686 C   0  0  0  0  0  0  0  0  0  0  0  0
   13.1802  -11.2887   19.5784 C   0  0  0  0  0  0  0  0  0  0  0  0
   12.9621  -11.6917   21.9581 C   0  0  0  0  0  0  0  0  0  0  0  0
   13.0225  -10.3735   22.5401 C   0  0  0  0  0  0  0  0  0  0  0  0
   12.1414  -10.1031   23.6526 C   0  0  0  0  0  0  0  0  0  0  0  0
   11.2390  -11.1167   24.1810 C   0  0  0  0  0  0  0  0  0  0  0  0
   12.0418  -12.6856   22.4759 C   0  0  0  0  0  0  0  0  0  0  0  0
   11.1619  -12.4250   23.5897 C   0  0  0  0  0  0  0  0  0  0  0  0
   12.1401   -8.5272   24.3489 Cl  0  0  0  0  0  0  0  0  0  0  0  0
 15 16  1  0  0  0
 15 20  2  0  0  0
 16 17  2  0  0  0
 16 12  1  0  0  0
 17 18  1  0  0  0
 17 21  1  0  0  0
 18 19  2  0  0  0
 19 20  1  0  0  0
 12 11  1  0  0  0
 12 13  1  0  0  0
 12 14  1  0  0  0
 11  9  1  0  0  0
  9  1  1  0  0  0
  1  2  1  0  0  0
  1  6  2  0  0  0
  2  3  2  0  0  0
  2  7  1  0  0  0
  3  4  1  0  0  0
  3 22  1  0  0  0
  4  5  2  0  0  0
  4  8  1  0  0  0
  5  6  1  0  0  0
 22 23  1  0  0  0
 23 24  1  0  0  0
 23 25  2  0  0  0
 24 27  1  0  0  0
 27 29  1  0  0  0
 27 28  1  0  0  0
 29 30  1  0  0  0
 29 33  2  0  0  0
 30 31  2  0  0  0
 31 32  1  0  0  0
 31 35  1  0  0  0
 32 34  2  0  0  0
 33 34  1  0  0  0
  9 10  1  0  0  0
 24 26  1  0  0  0
M  CHG 1   2   1
M  CHG 1   7  -1
M  CHG 1  17   1
M  CHG 1  21  -1
M  END
> <minimizedAffinity>
-10.52536

$$$$
1Z71_L17_A_1001


 35 37  0  0  0  0  0  0  0  0999 V2000
   18.2453  -15.4225   22.4871 C   0  0  0  0  0  0  0  0  0  0  0  0
   17.7073  -14.2245   22.0947 N   0  0  0  0  0  0  0  0  0  0  0  0
   18.3739  -13.4381   21.2252 C   0  0  0  0  0  0  0  0  0  0  0  0
   19.6395  -13.8562   20.7200 C   0  0  0  0  0  0  0  0  0  0  0  0
   20.2238  -15.0976   21.0966 C   0  0  0  0  0  0  0  0  0  0  0  0
   19.5120  -15.9097   22.0073 C   0  0  0  0  0  0  0  0  0  0  0  0
   16.4812  -13.8734   22.6132 O   0  0  0  0  0  0  0  0  0  0  0  0
   20.4804  -12.8533   19.6217 Cl  0  0  0  0  0  0  0  0  0  0  0  0
   17.4912  -16.1061   23.4721 N   0  0  0  0  0  0  0  0  0  0  0  0
   16.5356  -15.8847   23.5563 H   0  0  0  0  0  0  0  0  0  0  0  0
   18.0521  -17.1408   24.3910 C   0  0  0  0  0  0  0  0  0  0  0  0
   18.6018  -16.6002   25.6927 C   0  0  0  0  0  0  0  0  0  0  0  0
   18.8462  -17.7018   26.4347 F   0  0  0  0  0  0  0  0  0  0  0  0
   17.6061  -15.8840   26.2645 F   0  0  0  0  0  0  0  0  0  0  0  0
   19.9076  -14.3678   25.7316 C   0  0  0  0  0  0  0  0  0  0  0  0
   19.8954  -15.7999   25.5373 C   0  0  0  0  0  0  0  0  0  0  0  0
   21.0640  -16.4446   25.0746 N   0  0  0  0  0  0  0  0  0  0  0  0
   22.2554  -15.8083   24.7643 C   0  0  0  0  0  0  0  0  0  0  0  0
   22.3096  -14.3825   24.9381 C   0  0  0  0  0  0  0  0  0  0  0  0
   21.1390  -13.6842   25.4303 C   0  0  0  0  0  0  0  0  0  0  0  0
   21.0150  -17.7863   24.8749 O   0  0  0  0  0  0  0  0  0  0  0  0
   17.7454  -12.1121   20.8194 C   0  0  0  0  0  0  0  0  0  0  0  0
   16.5630  -12.3407   19.8768 C   0  0  0  0  0  0  0  0  0  0  0  0
   15.3825  -11.9720   20.3817 N   0  0  0  0  0  0  0  0  0  0  0  0
   16.7298  -12.7947   18.7480 O   0  0  0  0  0  0  0  0  0  0  0  0
   15.3269  -11.5180   21.2535 H   0  0  0  0  0  0  0  0  0  0  0  0
   14.1708  -12.2596   19.6065 C   0  0  0  0  0  0  0  0  0  0  0  0
   13.0501  -11.2943   19.9804 C   0  0  0  0  0  0  0  0  0  0  0  0
   13.6586  -13.6326   19.7928 C   0  0  0  0  0  0  0  0  0  0  0  0
   13.6046  -14.5679   18.6963 C   0  0  0  0  0  0  0  0  0  0  0  0
   13.1629  -15.9103   18.9962 C   0  0  0  0  0  0  0  0  0  0  0  0
   12.7714  -16.3070   20.3416 C   0  0  0  0  0  0  0  0  0  0  0  0
   13.2906  -14.0449   21.1335 C   0  0  0  0  0  0  0  0  0  0  0  0
   12.8438  -15.3824   21.4404 C   0  0  0  0  0  0  0  0  0  0  0  0
   13.1302  -17.0778   17.7297 Cl  0  0  0  0  0  0  0  0  0  0  0  0
 15 16  1  0  0  0
 15 20  2  0  0  0
 16 17  2  0  0  0
 16 12  1  0  0  0
 17 18  1  0  0  0
 17 21  1  0  0  0
 18 19  2  0  0  0
 19 20  1  0  0  0
 12 11  1  0  0  0
 12 13  1  0  0  0
 12 14  1  0  0  0
 11  9  1  0  0  0
  9  1  1  0  0  0
  1  2  1  0  0  0
  1  6  2  0  0  0
  2  3  2  0  0  0
  2  7  1  0  0  0
  3  4  1  0  0  0
  3 22  1  0  0  0
  4  5  2  0  0  0
  4  8  1  0  0  0
  5  6  1  0  0  0
 22 23  1  0  0  0
 23 24  1  0  0  0
 23 25  2  0  0  0
 24 27  1  0  0  0
 27 29  1  0  0  0
 27 28  1  0  0  0
 29 30  1  0  0  0
 29 33  2  0  0  0
 30 31  2  0  0  0
 31 32  1  0  0  0
 31 35  1  0  0  0
 32 34  2  0  0  0
 33 34  1  0  0  0
  9 10  1  0  0  0
 24 26  1  0  0  0
M  CHG 1   2   1
M  CHG 1   7  -1
M  CHG 1  17   1
M  CHG 1  21  -1
M  END
> <minimizedAffinity>
-9.83238

$$$$
1Z71_L17_A_1001


 35 37  0  0  0  0  0  0  0  0999 V2000
   16.2846  -15.6227   21.4400 C   0  0  0  0  0  0  0  0  0  0  0  0
   16.2697  -14.4363   20.7537 N   0  0  0  0  0  0  0  0  0  0  0  0
   15.7374  -14.3796   19.5159 C   0  0  0  0  0  0  0  0  0  0  0  0
   15.1950  -15.5576   18.9244 C   0  0  0  0  0  0  0  0  0  0  0  0
   15.1836  -16.8039   19.6107 C   0  0  0  0  0  0  0  0  0  0  0  0
   15.7441  -16.8456   20.9068 C   0  0  0  0  0  0  0  0  0  0  0  0
   16.8052  -13.3308   21.3754 O   0  0  0  0  0  0  0  0  0  0  0  0
   14.5257  -15.4796   17.3543 Cl  0  0  0  0  0  0  0  0  0  0  0  0
   16.9543  -15.5670   22.6868 N   0  0  0  0  0  0  0  0  0  0  0  0
   16.6993  -14.8532   23.3151 H   0  0  0  0  0  0  0  0  0  0  0  0
   18.0221  -16.5213   23.1098 C   0  0  0  0  0  0  0  0  0  0  0  0
   19.4345  -16.0055   22.9423 C   0  0  0  0  0  0  0  0  0  0  0  0
   19.3391  -15.0856   21.9581 F   0  0  0  0  0  0  0  0  0  0  0  0
   20.1785  -17.0504   22.5113 F   0  0  0  0  0  0  0  0  0  0  0  0
   19.3095  -15.4210   25.4589 C   0  0  0  0  0  0  0  0  0  0  0  0
   20.0085  -15.3448   24.1961 C   0  0  0  0  0  0  0  0  0  0  0  0
   21.1674  -14.5435   24.0949 N   0  0  0  0  0  0  0  0  0  0  0  0
   21.7050  -13.7863   25.1235 C   0  0  0  0  0  0  0  0  0  0  0  0
   21.0378  -13.8289   26.3959 C   0  0  0  0  0  0  0  0  0  0  0  0
   19.8567  -14.6545   26.5487 C   0  0  0  0  0  0  0  0  0  0  0  0
   21.7873  -14.4690   22.8895 O   0  0  0  0  0  0  0  0  0  0  0  0
   15.7459  -13.0444   18.7843 C   0  0  0  0  0  0  0  0  0  0  0  0
   14.3700  -12.3807   18.8555 C   0  0  0  0  0  0  0  0  0  0  0  0
   14.0215  -11.9751   20.0797 N   0  0  0  0  0  0  0  0  0  0  0  0
   13.6888  -12.2221   17.8460 O   0  0  0  0  0  0  0  0  0  0  0  0
   14.6553  -12.0374   20.8306 H   0  0  0  0  0  0  0  0  0  0  0  0
   12.6724  -11.4349   20.2789 C   0  0  0  0  0  0  0  0  0  0  0  0
   12.5460  -10.0534   19.6440 C   0  0  0  0  0  0  0  0  0  0  0  0
   12.2860  -11.3109   21.6992 C   0  0  0  0  0  0  0  0  0  0  0  0
   12.4785  -10.0789   22.4238 C   0  0  0  0  0  0  0  0  0  0  0  0
   11.9958  -10.0322   23.7847 C   0  0  0  0  0  0  0  0  0  0  0  0
   11.3557  -11.1801   24.4119 C   0  0  0  0  0  0  0  0  0  0  0  0
   11.6248  -12.4397   22.3250 C   0  0  0  0  0  0  0  0  0  0  0  0
   11.1442  -12.4028   23.6854 C   0  0  0  0  0  0  0  0  0  0  0  0
   12.1566   -8.5658   24.6745 Cl  0  0  0  0  0  0  0  0  0  0  0  0
 15 16  1  0  0  0
 15 20  2  0  0  0
 16 17  2  0  0  0
 16 12  1  0  0  0
 17 18  1  0  0  0
 17 21  1  0  0  0
 18 19  2  0  0  0
 19 20  1  0  0  0
 12 11  1  0  0  0
 12 13  1  0  0  0
 12 14  1  0  0  0
 11  9  1  0  0  0
  9  1  1  0  0  0
  1  2  1  0  0  0
  1  6  2  0  0  0
  2  3  2  0  0  0
  2  7  1  0  0  0
  3  4  1  0  0  0
  3 22  1  0  0  0
  4  5  2  0  0  0
  4  8  1  0  0  0
  5  6  1  0  0  0
 22 23  1  0  0  0
 23 24  1  0  0  0
 23 25  2  0  0  0
 24 27  1  0  0  0
 27 29  1  0  0  0
 27 28  1  0  0  0
 29 30  1  0  0  0
 29 33  2  0  0  0
 30 31  2  0  0  0
 31 32  1  0  0  0
 31 35  1  0  0  0
 32 34  2  0  0  0
 33 34  1  0  0  0
  9 10  1  0  0  0
 24 26  1  0  0  0
M  CHG 1   2   1
M  CHG 1   7  -1
M  CHG 1  17   1
M  CHG 1  21  -1
M  END
> <minimizedAffinity>
-9.56302

$$$$
1Z71_L17_A_1001


 35 37  0  0  0  0  0  0  0  0999 V2000
   14.0382  -17.2424   19.9698 C   0  0  0  0  0  0  0  0  0  0  0  0
   14.6343  -17.6708   21.1273 N   0  0  0  0  0  0  0  0  0  0  0  0
   15.6973  -18.4989   21.0723 C   0  0  0  0  0  0  0  0  0  0  0  0
   16.1946  -18.9285   19.8074 C   0  0  0  0  0  0  0  0  0  0  0  0
   15.6081  -18.4961   18.5853 C   0  0  0  0  0  0  0  0  0  0  0  0
   14.4962  -17.6281   18.6609 C   0  0  0  0  0  0  0  0  0  0  0  0
   14.1128  -17.2217   22.3197 O   0  0  0  0  0  0  0  0  0  0  0  0
   17.5393  -19.9807   19.7449 Cl  0  0  0  0  0  0  0  0  0  0  0  0
   12.8779  -16.4545   20.1681 N   0  0  0  0  0  0  0  0  0  0  0  0
   12.2401  -16.7403   20.8616 H   0  0  0  0  0  0  0  0  0  0  0  0
   12.5597  -15.2185   19.3932 C   0  0  0  0  0  0  0  0  0  0  0  0
   13.5319  -14.0770   19.5952 C   0  0  0  0  0  0  0  0  0  0  0  0
   13.8610  -13.6935   18.3427 F   0  0  0  0  0  0  0  0  0  0  0  0
   14.6200  -14.6001   20.2064 F   0  0  0  0  0  0  0  0  0  0  0  0
   12.8837  -11.5769   19.7358 C   0  0  0  0  0  0  0  0  0  0  0  0
   12.9432  -12.8842   20.3493 C   0  0  0  0  0  0  0  0  0  0  0  0
   12.5704  -13.0296   21.7040 N   0  0  0  0  0  0  0  0  0  0  0  0
   12.1547  -11.9983   22.5312 C   0  0  0  0  0  0  0  0  0  0  0  0
   12.0861  -10.6799   21.9627 C   0  0  0  0  0  0  0  0  0  0  0  0
   12.4402  -10.4899   20.5703 C   0  0  0  0  0  0  0  0  0  0  0  0
   12.6627  -14.2638   22.2614 O   0  0  0  0  0  0  0  0  0  0  0  0
   16.3269  -18.9571   22.3805 C   0  0  0  0  0  0  0  0  0  0  0  0
   17.5623  -18.1175   22.7088 C   0  0  0  0  0  0  0  0  0  0  0  0
   17.2966  -16.8362   22.9773 N   0  0  0  0  0  0  0  0  0  0  0  0
   18.6813  -18.6222   22.7454 O   0  0  0  0  0  0  0  0  0  0  0  0
   16.3676  -16.5152   23.0333 H   0  0  0  0  0  0  0  0  0  0  0  0
   18.4218  -15.9186   23.1866 C   0  0  0  0  0  0  0  0  0  0  0  0
   18.2530  -15.1482   24.4926 C   0  0  0  0  0  0  0  0  0  0  0  0
   18.5907  -14.9292   22.1028 C   0  0  0  0  0  0  0  0  0  0  0  0
   17.4943  -14.0997   21.6672 C   0  0  0  0  0  0  0  0  0  0  0  0
   17.7794  -13.1077   20.6563 C   0  0  0  0  0  0  0  0  0  0  0  0
   19.1099  -12.9553   20.0841 C   0  0  0  0  0  0  0  0  0  0  0  0
   19.9174  -14.7521   21.5446 C   0  0  0  0  0  0  0  0  0  0  0  0
   20.2093  -13.7669   20.5312 C   0  0  0  0  0  0  0  0  0  0  0  0
   16.5141  -12.0585   20.1402 Cl  0  0  0  0  0  0  0  0  0  0  0  0
 15 16  1  0  0  0
 15 20  2  0  0  0
 16 17  2  0  0  0
 16 12  1  0  0  0
 17 18  1  0  0  0
 17 21  1  0  0  0
 18 19  2  0  0  0
 19 20  1  0  0  0
 12 11  1  0  0  0
 12 13  1  0  0  0
 12 14  1  0  0  0
 11  9  1  0  0  0
  9  1  1  0  0  0
  1  2  1  0  0  0
  1  6  2  0  0  0
  2  3  2  0  0  0
  2  7  1  0  0  0
  3  4  1  0  0  0
  3 22  1  0  0  0
  4  5  2  0  0  0
  4  8  1  0  0  0
  5  6  1  0  0  0
 22 23  1  0  0  0
 23 24  1  0  0  0
 23 25  2  0  0  0
 24 27  1  0  0  0
 27 29  1  0  0  0
 27 28  1  0  0  0
 29 30  1  0  0  0
 29 33  2  0  0  0
 30 31  2  0  0  0
 31 32  1  0  0  0
 31 35  1  0  0  0
 32 34  2  0  0  0
 33 34  1  0  0  0
  9 10  1  0  0  0
 24 26  1  0  0  0
M  CHG 1   2   1
M  CHG 1   7  -1
M  CHG 1  17   1
M  CHG 1  21  -1
M  END
> <minimizedAffinity>
-9.11029

$$$$
1Z71_L17_A_1001


 35 37  0  0  0  0  0  0  0  0999 V2000
   16.1050  -13.4507   21.0669 C   0  0  0  0  0  0  0  0  0  0  0  0
   16.1238  -14.8027   21.2913 N   0  0  0  0  0  0  0  0  0  0  0  0
   17.3007  -15.4537   21.3907 C   0  0  0  0  0  0  0  0  0  0  0  0
   18.5222  -14.7313   21.2578 C   0  0  0  0  0  0  0  0  0  0  0  0
   18.5416  -13.3261   21.0350 C   0  0  0  0  0  0  0  0  0  0  0  0
   17.3002  -12.6595   20.9345 C   0  0  0  0  0  0  0  0  0  0  0  0
   14.9138  -15.4478   21.4135 O   0  0  0  0  0  0  0  0  0  0  0  0
   20.0097  -15.5629   21.3809 Cl  0  0  0  0  0  0  0  0  0  0  0  0
   14.8092  -12.9067   20.8900 N   0  0  0  0  0  0  0  0  0  0  0  0
   14.0384  -13.5111   20.9895 H   0  0  0  0  0  0  0  0  0  0  0  0
   14.5369  -11.4755   20.5623 C   0  0  0  0  0  0  0  0  0  0  0  0
   13.0704  -11.1113   20.4875 C   0  0  0  0  0  0  0  0  0  0  0  0
   12.5386  -12.0370   19.6603 F   0  0  0  0  0  0  0  0  0  0  0  0
   13.0044   -9.8932   19.9017 F   0  0  0  0  0  0  0  0  0  0  0  0
   12.3677  -10.0287   22.7290 C   0  0  0  0  0  0  0  0  0  0  0  0
   12.3469  -11.1630   21.8335 C   0  0  0  0  0  0  0  0  0  0  0  0
   11.7596  -12.3733   22.2647 N   0  0  0  0  0  0  0  0  0  0  0  0
   11.1974  -12.5858   23.5134 C   0  0  0  0  0  0  0  0  0  0  0  0
   11.2017  -11.4850   24.4377 C   0  0  0  0  0  0  0  0  0  0  0  0
   11.7761  -10.2190   24.0284 C   0  0  0  0  0  0  0  0  0  0  0  0
   11.7792  -13.4299   21.4128 O   0  0  0  0  0  0  0  0  0  0  0  0
   17.2788  -16.9565   21.6338 C   0  0  0  0  0  0  0  0  0  0  0  0
   18.0582  -17.3103   22.9011 C   0  0  0  0  0  0  0  0  0  0  0  0
   17.8521  -16.4725   23.9211 N   0  0  0  0  0  0  0  0  0  0  0  0
   18.7752  -18.3062   22.9480 O   0  0  0  0  0  0  0  0  0  0  0  0
   17.1852  -15.7514   23.8540 H   0  0  0  0  0  0  0  0  0  0  0  0
   18.6430  -16.6525   25.1433 C   0  0  0  0  0  0  0  0  0  0  0  0
   17.8374  -16.2407   26.3718 C   0  0  0  0  0  0  0  0  0  0  0  0
   19.9020  -15.8799   25.1551 C   0  0  0  0  0  0  0  0  0  0  0  0
   21.1501  -16.4740   24.7438 C   0  0  0  0  0  0  0  0  0  0  0  0
   22.3111  -15.6148   24.7145 C   0  0  0  0  0  0  0  0  0  0  0  0
   22.2375  -14.2117   25.0978 C   0  0  0  0  0  0  0  0  0  0  0  0
   19.8347  -14.4756   25.5105 C   0  0  0  0  0  0  0  0  0  0  0  0
   20.9906  -13.6118   25.4886 C   0  0  0  0  0  0  0  0  0  0  0  0
   23.8144  -16.2655   24.1810 Cl  0  0  0  0  0  0  0  0  0  0  0  0
 15 16  1  0  0  0
 15 20  2  0  0  0
 16 17  2  0  0  0
 16 12  1  0  0  0
 17 18  1  0  0  0
 17 21  1  0  0  0
 18 19  2  0  0  0
 19 20  1  0  0  0
 12 11  1  0  0  0
 12 13  1  0  0  0
 12 14  1  0  0  0
 11  9  1  0  0  0
  9  1  1  0  0  0
  1  2  1  0  0  0
  1  6  2  0  0  0
  2  3  2  0  0  0
  2  7  1  0  0  0
  3  4  1  0  0  0
  3 22  1  0  0  0
  4  5  2  0  0  0
  4  8  1  0  0  0
  5  6  1  0  0  0
 22 23  1  0  0  0
 23 24  1  0  0  0
 23 25  2  0  0  0
 24 27  1  0  0  0
 27 29  1  0  0  0
 27 28  1  0  0  0
 29 30  1  0  0  0
 29 33  2  0  0  0
 30 31  2  0  0  0
 31 32  1  0  0  0
 31 35  1  0  0  0
 32 34  2  0  0  0
 33 34  1  0  0  0
  9 10  1  0  0  0
 24 26  1  0  0  0
M  CHG 1   2   1
M  CHG 1   7  -1
M  CHG 1  17   1
M  CHG 1  21  -1
M  END
> <minimizedAffinity>
-9.08804

$$$$
1Z71_L17_A_1001


 35 37  0  0  0  0  0  0  0  0999 V2000
   13.3871  -15.5561   19.5909 C   0  0  0  0  0  0  0  0  0  0  0  0
   13.5166  -16.5899   20.4814 N   0  0  0  0  0  0  0  0  0  0  0  0
   14.0551  -17.7603   20.0827 C   0  0  0  0  0  0  0  0  0  0  0  0
   14.4846  -17.9180   18.7328 C   0  0  0  0  0  0  0  0  0  0  0  0
   14.3757  -16.8637   17.7835 C   0  0  0  0  0  0  0  0  0  0  0  0
   13.8104  -15.6441   18.2179 C   0  0  0  0  0  0  0  0  0  0  0  0
   13.0869  -16.3799   21.7724 O   0  0  0  0  0  0  0  0  0  0  0  0
   15.1625  -19.4047   18.2333 Cl  0  0  0  0  0  0  0  0  0  0  0  0
   12.7225  -14.4183   20.1105 N   0  0  0  0  0  0  0  0  0  0  0  0
   11.8656  -14.5576   20.5749 H   0  0  0  0  0  0  0  0  0  0  0  0
   13.2377  -13.0212   19.9993 C   0  0  0  0  0  0  0  0  0  0  0  0
   13.9351  -12.5033   21.2380 C   0  0  0  0  0  0  0  0  0  0  0  0
   14.9375  -11.7350   20.7598 F   0  0  0  0  0  0  0  0  0  0  0  0
   14.4557  -13.5821   21.8675 F   0  0  0  0  0  0  0  0  0  0  0  0
   13.2782  -10.2416   22.3072 C   0  0  0  0  0  0  0  0  0  0  0  0
   13.0423  -11.6585   22.1474 C   0  0  0  0  0  0  0  0  0  0  0  0
   12.0566  -12.2886   22.9391 N   0  0  0  0  0  0  0  0  0  0  0  0
   11.2804  -11.6567   23.8977 C   0  0  0  0  0  0  0  0  0  0  0  0
   11.4865  -10.2476   24.0930 C   0  0  0  0  0  0  0  0  0  0  0  0
   12.4738   -9.5579   23.2871 C   0  0  0  0  0  0  0  0  0  0  0  0
   11.8760  -13.6254   22.7872 O   0  0  0  0  0  0  0  0  0  0  0  0
   14.1756  -18.8861   21.1006 C   0  0  0  0  0  0  0  0  0  0  0  0
   15.5697  -18.8995   21.7290 C   0  0  0  0  0  0  0  0  0  0  0  0
   15.8114  -17.8694   22.5445 N   0  0  0  0  0  0  0  0  0  0  0  0
   16.3582  -19.8139   21.5047 O   0  0  0  0  0  0  0  0  0  0  0  0
   15.1016  -17.2238   22.7648 H   0  0  0  0  0  0  0  0  0  0  0  0
   17.1594  -17.7231   23.1042 C   0  0  0  0  0  0  0  0  0  0  0  0
   17.1243  -17.8205   24.6263 C   0  0  0  0  0  0  0  0  0  0  0  0
   17.8126  -16.4456   22.7532 C   0  0  0  0  0  0  0  0  0  0  0  0
   19.1142  -16.1019   23.2707 C   0  0  0  0  0  0  0  0  0  0  0  0
   19.7032  -14.8672   22.8063 C   0  0  0  0  0  0  0  0  0  0  0  0
   19.0131  -13.9926   21.8684 C   0  0  0  0  0  0  0  0  0  0  0  0
   17.1451  -15.5799   21.8002 C   0  0  0  0  0  0  0  0  0  0  0  0
   17.7246  -14.3426   21.3351 C   0  0  0  0  0  0  0  0  0  0  0  0
   21.2786  -14.4385   23.3565 Cl  0  0  0  0  0  0  0  0  0  0  0  0
 15 16  1  0  0  0
 15 20  2  0  0  0
 16 17  2  0  0  0
 16 12  1  0  0  0
 17 18  1  0  0  0
 17 21  1  0  0  0
 18 19  2  0  0  0
 19 20  1  0  0  0
 12 11  1  0  0  0
 12 13  1  0  0  0
 12 14  1  0  0  0
 11  9  1  0  0  0
  9  1  1  0  0  0
  1  2  1  0  0  0
  1  6  2  0  0  0
  2  3  2  0  0  0
  2  7  1  0  0  0
  3  4  1  0  0  0
  3 22  1  0  0  0
  4  5  2  0  0  0
  4  8  1  0  0  0
  5  6  1  0  0  0
 22 23  1  0  0  0
 23 24  1  0  0  0
 23 25  2  0  0  0
 24 27  1  0  0  0
 27 29  1  0  0  0
 27 28  1  0  0  0
 29 30  1  0  0  0
 29 33  2  0  0  0
 30 31  2  0  0  0
 31 32  1  0  0  0
 31 35  1  0  0  0
 32 34  2  0  0  0
 33 34  1  0  0  0
  9 10  1  0  0  0
 24 26  1  0  0  0
M  CHG 1   2   1
M  CHG 1   7  -1
M  CHG 1  17   1
M  CHG 1  21  -1
M  END
> <minimizedAffinity>
-9.02879

$$$$
1Z71_L17_A_1001


 35 37  0  0  0  0  0  0  0  0999 V2000
   16.3027  -13.3759   21.2448 C   0  0  0  0  0  0  0  0  0  0  0  0
   17.3487  -13.8455   21.9959 N   0  0  0  0  0  0  0  0  0  0  0  0
   18.6120  -13.7345   21.5371 C   0  0  0  0  0  0  0  0  0  0  0  0
   18.8535  -13.1311   20.2685 C   0  0  0  0  0  0  0  0  0  0  0  0
   17.7939  -12.6230   19.4663 C   0  0  0  0  0  0  0  0  0  0  0  0
   16.4769  -12.7463   19.9621 C   0  0  0  0  0  0  0  0  0  0  0  0
   17.0560  -14.4165   23.2139 O   0  0  0  0  0  0  0  0  0  0  0  0
   20.4562  -12.9972   19.6916 Cl  0  0  0  0  0  0  0  0  0  0  0  0
   15.0246  -13.6378   21.7962 N   0  0  0  0  0  0  0  0  0  0  0  0
   14.8933  -13.4653   22.7566 H   0  0  0  0  0  0  0  0  0  0  0  0
   13.8637  -14.1588   21.0149 C   0  0  0  0  0  0  0  0  0  0  0  0
   12.7717  -13.1451   20.7521 C   0  0  0  0  0  0  0  0  0  0  0  0
   11.6858  -13.8930   20.4598 F   0  0  0  0  0  0  0  0  0  0  0  0
   13.1474  -12.4487   19.6544 F   0  0  0  0  0  0  0  0  0  0  0  0
   11.4529  -12.6244   22.9154 C   0  0  0  0  0  0  0  0  0  0  0  0
   12.4572  -12.2453   21.9476 C   0  0  0  0  0  0  0  0  0  0  0  0
   13.0606  -10.9715   22.0406 N   0  0  0  0  0  0  0  0  0  0  0  0
   12.7577  -10.0139   22.9955 C   0  0  0  0  0  0  0  0  0  0  0  0
   11.7598  -10.3477   23.9748 C   0  0  0  0  0  0  0  0  0  0  0  0
   11.1302  -11.6522   23.9280 C   0  0  0  0  0  0  0  0  0  0  0  0
   13.9804  -10.6320   21.1018 O   0  0  0  0  0  0  0  0  0  0  0  0
   19.7454  -14.2743   22.3986 C   0  0  0  0  0  0  0  0  0  0  0  0
   19.9101  -15.7806   22.1928 C   0  0  0  0  0  0  0  0  0  0  0  0
   19.1445  -16.5283   22.9925 N   0  0  0  0  0  0  0  0  0  0  0  0
   20.6661  -16.2249   21.3330 O   0  0  0  0  0  0  0  0  0  0  0  0
   18.4822  -16.1115   23.5898 H   0  0  0  0  0  0  0  0  0  0  0  0
   19.3141  -17.9850   22.9596 C   0  0  0  0  0  0  0  0  0  0  0  0
   18.1611  -18.6449   22.2094 C   0  0  0  0  0  0  0  0  0  0  0  0
   19.3887  -18.6046   24.2985 C   0  0  0  0  0  0  0  0  0  0  0  0
   20.6555  -18.9469   24.8968 C   0  0  0  0  0  0  0  0  0  0  0  0
   20.6284  -19.4747   26.2413 C   0  0  0  0  0  0  0  0  0  0  0  0
   19.3792  -19.6714   26.9636 C   0  0  0  0  0  0  0  0  0  0  0  0
   18.1526  -18.7809   25.0359 C   0  0  0  0  0  0  0  0  0  0  0  0
   18.1165  -19.3120   26.3774 C   0  0  0  0  0  0  0  0  0  0  0  0
   22.1197  -19.8505   27.0177 Cl  0  0  0  0  0  0  0  0  0  0  0  0
 15 16  1  0  0  0
 15 20  2  0  0  0
 16 17  2  0  0  0
 16 12  1  0  0  0
 17 18  1  0  0  0
 17 21  1  0  0  0
 18 19  2  0  0  0
 19 20  1  0  0  0
 12 11  1  0  0  0
 12 13  1  0  0  0
 12 14  1  0  0  0
 11  9  1  0  0  0
  9  1  1  0  0  0
  1  2  1  0  0  0
  1  6  2  0  0  0
  2  3  2  0  0  0
  2  7  1  0  0  0
  3  4  1  0  0  0
  3 22  1  0  0  0
  4  5  2  0  0  0
  4  8  1  0  0  0
  5  6  1  0  0  0
 22 23  1  0  0  0
 23 24  1  0  0  0
 23 25  2  0  0  0
 24 27  1  0  0  0
 27 29  1  0  0  0
 27 28  1  0  0  0
 29 30  1  0  0  0
 29 33  2  0  0  0
 30 31  2  0  0  0
 31 32  1  0  0  0
 31 35  1  0  0  0
 32 34  2  0  0  0
 33 34  1  0  0  0
  9 10  1  0  0  0
 24 26  1  0  0  0
M  CHG 1   2   1
M  CHG 1   7  -1
M  CHG 1  17   1
M  CHG 1  21  -1
M  END
> <minimizedAffinity>
-9.02039

$$$$
1Z71_L17_A_1001


 35 37  0  0  0  0  0  0  0  0999 V2000
   14.7798  -15.7247   21.3597 C   0  0  0  0  0  0  0  0  0  0  0  0
   16.0826  -16.1506   21.3519 N   0  0  0  0  0  0  0  0  0  0  0  0
   16.3611  -17.4690   21.2958 C   0  0  0  0  0  0  0  0  0  0  0  0
   15.2964  -18.4155   21.2486 C   0  0  0  0  0  0  0  0  0  0  0  0
   13.9326  -18.0100   21.2444 C   0  0  0  0  0  0  0  0  0  0  0  0
   13.6584  -16.6254   21.3025 C   0  0  0  0  0  0  0  0  0  0  0  0
   17.0694  -15.1917   21.3967 O   0  0  0  0  0  0  0  0  0  0  0  0
   15.6562  -20.0845   21.1815 Cl  0  0  0  0  0  0  0  0  0  0  0  0
   14.6244  -14.3255   21.5154 N   0  0  0  0  0  0  0  0  0  0  0  0
   14.7036  -13.9514   22.4226 H   0  0  0  0  0  0  0  0  0  0  0  0
   14.3480  -13.3812   20.3922 C   0  0  0  0  0  0  0  0  0  0  0  0
   12.9492  -12.8049   20.3794 C   0  0  0  0  0  0  0  0  0  0  0  0
   12.1533  -13.8665   20.1277 F   0  0  0  0  0  0  0  0  0  0  0  0
   12.8956  -11.9446   19.3362 F   0  0  0  0  0  0  0  0  0  0  0  0
   11.5658  -12.8069   22.5649 C   0  0  0  0  0  0  0  0  0  0  0  0
   12.5290  -12.1621   21.7016 C   0  0  0  0  0  0  0  0  0  0  0  0
   12.9878  -10.8657   22.0247 N   0  0  0  0  0  0  0  0  0  0  0  0
   12.5744  -10.1240   23.1199 C   0  0  0  0  0  0  0  0  0  0  0  0
   11.6125  -10.7257   24.0023 C   0  0  0  0  0  0  0  0  0  0  0  0
   11.1308  -12.0628   23.7189 C   0  0  0  0  0  0  0  0  0  0  0  0
   13.8712  -10.2738   21.1810 O   0  0  0  0  0  0  0  0  0  0  0  0
   17.8208  -17.9015   21.2955 C   0  0  0  0  0  0  0  0  0  0  0  0
   18.3179  -18.1265   22.7241 C   0  0  0  0  0  0  0  0  0  0  0  0
   18.6505  -17.0054   23.3700 N   0  0  0  0  0  0  0  0  0  0  0  0
   18.3609  -19.2531   23.2111 O   0  0  0  0  0  0  0  0  0  0  0  0
   18.4956  -16.1234   22.9610 H   0  0  0  0  0  0  0  0  0  0  0  0
   19.2521  -17.1196   24.7030 C   0  0  0  0  0  0  0  0  0  0  0  0
   18.1715  -17.1870   25.7778 C   0  0  0  0  0  0  0  0  0  0  0  0
   20.1537  -16.0008   25.0454 C   0  0  0  0  0  0  0  0  0  0  0  0
   21.3631  -15.7568   24.2985 C   0  0  0  0  0  0  0  0  0  0  0  0
   22.1370  -14.5915   24.6594 C   0  0  0  0  0  0  0  0  0  0  0  0
   21.7301  -13.7044   25.7403 C   0  0  0  0  0  0  0  0  0  0  0  0
   19.7445  -15.0970   26.1031 C   0  0  0  0  0  0  0  0  0  0  0  0
   20.5144  -13.9337   26.4730 C   0  0  0  0  0  0  0  0  0  0  0  0
   23.5627  -14.2293   23.7626 Cl  0  0  0  0  0  0  0  0  0  0  0  0
 15 16  1  0  0  0
 15 20  2  0  0  0
 16 17  2  0  0  0
 16 12  1  0  0  0
 17 18  1  0  0  0
 17 21  1  0  0  0
 18 19  2  0  0  0
 19 20  1  0  0  0
 12 11  1  0  0  0
 12 13  1  0  0  0
 12 14  1  0  0  0
 11  9  1  0  0  0
  9  1  1  0  0  0
  1  2  1  0  0  0
  1  6  2  0  0  0
  2  3  2  0  0  0
  2  7  1  0  0  0
  3  4  1  0  0  0
  3 22  1  0  0  0
  4  5  2  0  0  0
  4  8  1  0  0  0
  5  6  1  0  0  0
 22 23  1  0  0  0
 23 24  1  0  0  0
 23 25  2  0  0  0
 24 27  1  0  0  0
 27 29  1  0  0  0
 27 28  1  0  0  0
 29 30  1  0  0  0
 29 33  2  0  0  0
 30 31  2  0  0  0
 31 32  1  0  0  0
 31 35  1  0  0  0
 32 34  2  0  0  0
 33 34  1  0  0  0
  9 10  1  0  0  0
 24 26  1  0  0  0
M  CHG 1   2   1
M  CHG 1   7  -1
M  CHG 1  17   1
M  CHG 1  21  -1
M  END
> <minimizedAffinity>
-8.94592

$$$$
1Z71_L17_A_1001


 35 37  0  0  0  0  0  0  0  0999 V2000
   16.2262  -13.7916   21.3382 C   0  0  0  0  0  0  0  0  0  0  0  0
   17.1065  -14.8009   21.6300 N   0  0  0  0  0  0  0  0  0  0  0  0
   18.4159  -14.6590   21.3395 C   0  0  0  0  0  0  0  0  0  0  0  0
   18.8783  -13.4586   20.7256 C   0  0  0  0  0  0  0  0  0  0  0  0
   17.9956  -12.3859   20.4179 C   0  0  0  0  0  0  0  0  0  0  0  0
   16.6276  -12.5504   20.7297 C   0  0  0  0  0  0  0  0  0  0  0  0
   16.6039  -15.9362   22.2247 O   0  0  0  0  0  0  0  0  0  0  0  0
   20.5377  -13.2870   20.3568 Cl  0  0  0  0  0  0  0  0  0  0  0  0
   14.8710  -14.1038   21.6068 N   0  0  0  0  0  0  0  0  0  0  0  0
   14.6821  -14.7792   22.2977 H   0  0  0  0  0  0  0  0  0  0  0  0
   13.7102  -13.4744   20.9094 C   0  0  0  0  0  0  0  0  0  0  0  0
   12.4724  -13.3094   21.7635 C   0  0  0  0  0  0  0  0  0  0  0  0
   12.6109  -14.2378   22.7345 F   0  0  0  0  0  0  0  0  0  0  0  0
   11.4170  -13.6314   20.9801 F   0  0  0  0  0  0  0  0  0  0  0  0
   13.2325  -10.8525   22.0388 C   0  0  0  0  0  0  0  0  0  0  0  0
   12.3374  -11.9272   22.4031 C   0  0  0  0  0  0  0  0  0  0  0  0
   11.4130  -11.7308   23.4530 N   0  0  0  0  0  0  0  0  0  0  0  0
   11.2915  -10.5707   24.2013 C   0  0  0  0  0  0  0  0  0  0  0  0
   12.1667   -9.4780   23.8757 C   0  0  0  0  0  0  0  0  0  0  0  0
   13.1164   -9.6301   22.7918 C   0  0  0  0  0  0  0  0  0  0  0  0
   10.6039  -12.7668   23.7917 O   0  0  0  0  0  0  0  0  0  0  0  0
   19.3601  -15.8056   21.6735 C   0  0  0  0  0  0  0  0  0  0  0  0
   20.0141  -15.5868   23.0384 C   0  0  0  0  0  0  0  0  0  0  0  0
   21.3450  -15.4792   22.9958 N   0  0  0  0  0  0  0  0  0  0  0  0
   19.3371  -15.4900   24.0585 O   0  0  0  0  0  0  0  0  0  0  0  0
   21.8218  -15.4617   22.1346 H   0  0  0  0  0  0  0  0  0  0  0  0
   22.0793  -15.3879   24.2624 C   0  0  0  0  0  0  0  0  0  0  0  0
   23.0701  -14.2283   24.2284 C   0  0  0  0  0  0  0  0  0  0  0  0
   22.8348  -16.6114   24.6003 C   0  0  0  0  0  0  0  0  0  0  0  0
   24.0141  -16.9922   23.8626 C   0  0  0  0  0  0  0  0  0  0  0  0
   24.7286  -18.1617   24.3197 C   0  0  0  0  0  0  0  0  0  0  0  0
   24.2760  -18.9386   25.4654 C   0  0  0  0  0  0  0  0  0  0  0  0
   22.4072  -17.3775   25.7550 C   0  0  0  0  0  0  0  0  0  0  0  0
   23.1124  -18.5495   26.2151 C   0  0  0  0  0  0  0  0  0  0  0  0
   26.1720  -18.6270   23.5024 Cl  0  0  0  0  0  0  0  0  0  0  0  0
 15 16  1  0  0  0
 15 20  2  0  0  0
 16 17  2  0  0  0
 16 12  1  0  0  0
 17 18  1  0  0  0
 17 21  1  0  0  0
 18 19  2  0  0  0
 19 20  1  0  0  0
 12 11  1  0  0  0
 12 13  1  0  0  0
 12 14  1  0  0  0
 11  9  1  0  0  0
  9  1  1  0  0  0
  1  2  1  0  0  0
  1  6  2  0  0  0
  2  3  2  0  0  0
  2  7  1  0  0  0
  3  4  1  0  0  0
  3 22  1  0  0  0
  4  5  2  0  0  0
  4  8  1  0  0  0
  5  6  1  0  0  0
 22 23  1  0  0  0
 23 24  1  0  0  0
 23 25  2  0  0  0
 24 27  1  0  0  0
 27 29  1  0  0  0
 27 28  1  0  0  0
 29 30  1  0  0  0
 29 33  2  0  0  0
 30 31  2  0  0  0
 31 32  1  0  0  0
 31 35  1  0  0  0
 32 34  2  0  0  0
 33 34  1  0  0  0
  9 10  1  0  0  0
 24 26  1  0  0  0
M  CHG 1   2   1
M  CHG 1   7  -1
M  CHG 1  17   1
M  CHG 1  21  -1
M  END
> <minimizedAffinity>
-8.85509

$$$$
1Z71_L17_A_1001


 35 37  0  0  0  0  0  0  0  0999 V2000
   16.4290  -14.1089   21.2368 C   0  0  0  0  0  0  0  0  0  0  0  0
   17.5029  -14.9121   21.5199 N   0  0  0  0  0  0  0  0  0  0  0  0
   18.7448  -14.5302   21.1584 C   0  0  0  0  0  0  0  0  0  0  0  0
   18.9344  -13.2918   20.4787 C   0  0  0  0  0  0  0  0  0  0  0  0
   17.8449  -12.4276   20.1775 C   0  0  0  0  0  0  0  0  0  0  0  0
   16.5510  -12.8422   20.5640 C   0  0  0  0  0  0  0  0  0  0  0  0
   17.2602  -16.0955   22.1802 O   0  0  0  0  0  0  0  0  0  0  0  0
   20.5100  -12.8159   20.0201 Cl  0  0  0  0  0  0  0  0  0  0  0  0
   15.1748  -14.6675   21.5849 N   0  0  0  0  0  0  0  0  0  0  0  0
   14.8971  -14.6238   22.5285 H   0  0  0  0  0  0  0  0  0  0  0  0
   14.2466  -15.3185   20.6131 C   0  0  0  0  0  0  0  0  0  0  0  0
   12.8082  -14.8589   20.7065 C   0  0  0  0  0  0  0  0  0  0  0  0
   12.2629  -15.6589   21.6480 F   0  0  0  0  0  0  0  0  0  0  0  0
   12.2399  -15.1229   19.5071 F   0  0  0  0  0  0  0  0  0  0  0  0
   12.1425  -13.0606   22.4424 C   0  0  0  0  0  0  0  0  0  0  0  0
   12.6479  -13.3988   21.1312 C   0  0  0  0  0  0  0  0  0  0  0  0
   12.8737  -12.3692   20.1908 N   0  0  0  0  0  0  0  0  0  0  0  0
   12.6327  -11.0223   20.4106 C   0  0  0  0  0  0  0  0  0  0  0  0
   12.1242  -10.6422   21.7002 C   0  0  0  0  0  0  0  0  0  0  0  0
   11.8976  -11.6650   22.7015 C   0  0  0  0  0  0  0  0  0  0  0  0
   13.3222  -12.7190   18.9584 O   0  0  0  0  0  0  0  0  0  0  0  0
   19.9104  -15.4536   21.4855 C   0  0  0  0  0  0  0  0  0  0  0  0
   20.1165  -15.5486   22.9978 C   0  0  0  0  0  0  0  0  0  0  0  0
   20.0596  -16.7932   23.4799 N   0  0  0  0  0  0  0  0  0  0  0  0
   20.3458  -14.5476   23.6712 O   0  0  0  0  0  0  0  0  0  0  0  0
   19.9759  -17.5648   22.8743 H   0  0  0  0  0  0  0  0  0  0  0  0
   20.1247  -16.9829   24.9330 C   0  0  0  0  0  0  0  0  0  0  0  0
   21.5576  -17.2619   25.3763 C   0  0  0  0  0  0  0  0  0  0  0  0
   19.2809  -18.0908   25.4256 C   0  0  0  0  0  0  0  0  0  0  0  0
   17.9397  -18.2880   24.9333 C   0  0  0  0  0  0  0  0  0  0  0  0
   17.2235  -19.4455   25.4172 C   0  0  0  0  0  0  0  0  0  0  0  0
   17.8159  -20.3703   26.3736 C   0  0  0  0  0  0  0  0  0  0  0  0
   19.8705  -19.0316   26.3585 C   0  0  0  0  0  0  0  0  0  0  0  0
   19.1600  -20.1875   26.8504 C   0  0  0  0  0  0  0  0  0  0  0  0
   15.6372  -19.7522   24.8191 Cl  0  0  0  0  0  0  0  0  0  0  0  0
 15 16  1  0  0  0
 15 20  2  0  0  0
 16 17  2  0  0  0
 16 12  1  0  0  0
 17 18  1  0  0  0
 17 21  1  0  0  0
 18 19  2  0  0  0
 19 20  1  0  0  0
 12 11  1  0  0  0
 12 13  1  0  0  0
 12 14  1  0  0  0
 11  9  1  0  0  0
  9  1  1  0  0  0
  1  2  1  0  0  0
  1  6  2  0  0  0
  2  3  2  0  0  0
  2  7  1  0  0  0
  3  4  1  0  0  0
  3 22  1  0  0  0
  4  5  2  0  0  0
  4  8  1  0  0  0
  5  6  1  0  0  0
 22 23  1  0  0  0
 23 24  1  0  0  0
 23 25  2  0  0  0
 24 27  1  0  0  0
 27 29  1  0  0  0
 27 28  1  0  0  0
 29 30  1  0  0  0
 29 33  2  0  0  0
 30 31  2  0  0  0
 31 32  1  0  0  0
 31 35  1  0  0  0
 32 34  2  0  0  0
 33 34  1  0  0  0
  9 10  1  0  0  0
 24 26  1  0  0  0
M  CHG 1   2   1
M  CHG 1   7  -1
M  CHG 1  17   1
M  CHG 1  21  -1
M  END
> <minimizedAffinity>
-8.67782

$$$$
