5I8G_69E_A_1404


 31 35  0  0  0  0  0  0  0  0999 V2000
   31.4279   12.8998   14.8547 C   0  0  0  0  0  0  0  0  0  0  0  0
   31.3998   12.6266   16.2306 C   0  0  0  0  0  0  0  0  0  0  0  0
   32.4448   11.9714   16.8150 C   0  0  0  0  0  0  0  0  0  0  0  0
   33.5326   11.5554   16.0448 C   0  0  0  0  0  0  0  0  0  0  0  0
   33.5794   11.8112   14.6672 C   0  0  0  0  0  0  0  0  0  0  0  0
   32.5152   12.4975   14.0754 C   0  0  0  0  0  0  0  0  0  0  0  0
   34.8593   11.2389   14.1935 C   0  0  0  0  0  0  0  0  0  0  0  0
   35.4609   10.7004   15.2157 N   0  0  0  0  0  0  0  0  0  0  0  0
   34.6878   10.8815   16.3530 N   0  0  0  0  0  0  0  0  0  0  0  0
   35.0584   10.4285   17.6866 C   0  0  0  0  0  0  0  0  0  0  0  0
   26.5589   12.1045   14.6241 C   0  0  0  0  0  0  0  0  0  0  0  0
   26.2208   12.4946   13.2215 C   0  0  0  0  0  0  0  0  0  0  0  0
   30.5504   15.0332   14.0392 C   0  0  0  0  0  0  0  0  0  0  0  0
   28.1766   13.9296   13.1732 C   0  0  0  0  0  0  0  0  0  0  0  0
   28.4179   15.2864   12.9973 C   0  0  0  0  0  0  0  0  0  0  0  0
   29.6027   15.8393   13.4487 C   0  0  0  0  0  0  0  0  0  0  0  0
   30.3302   13.6607   14.2025 C   0  0  0  0  0  0  0  0  0  0  0  0
   29.1247   13.0876   13.7759 C   0  0  0  0  0  0  0  0  0  0  0  0
   27.3578    9.8407   13.9847 C   0  0  0  0  0  0  0  0  0  0  0  0
   27.7592   11.1642   14.6353 C   0  0  0  0  0  0  0  0  0  0  0  0
   25.2597   12.0510   12.6254 O   0  0  0  0  0  0  0  0  0  0  0  0
   26.9989   13.3932   12.6334 N   0  0  0  0  0  0  0  0  0  0  0  0
   28.9418   11.7036   13.9191 N   0  0  0  0  0  0  0  0  0  0  0  0
   26.7265   13.7107   11.7422 H   0  0  0  0  0  0  0  0  0  0  0  0
   29.6057   11.0833   13.5400 H   0  0  0  0  0  0  0  0  0  0  0  0
   35.3998   11.1997   12.8178 C   0  0  0  0  0  0  0  0  0  0  0  0
   34.6149   11.2406   11.6469 C   0  0  0  0  0  0  0  0  0  0  0  0
   35.4295   11.2180   10.6312 N   0  0  0  0  0  0  0  0  0  0  0  0
   36.7373   11.1852   11.1229 N   0  0  0  0  0  0  0  0  0  0  0  0
   36.7084   11.1837   12.4658 C   0  0  0  0  0  0  0  0  0  0  0  0
   37.9535   11.1595   10.3275 C   0  0  0  0  0  0  0  0  0  0  0  0
 31 29  1  0  0  0
 29 28  1  0  0  0
 29 30  1  0  0  0
 22 14  1  0  0  0
 22 12  1  0  0  0
 15 16  2  0  0  0
 15 14  1  0  0  0
 28 27  2  0  0  0
 21 12  2  0  0  0
 30 26  2  0  0  0
 16 13  1  0  0  0
 14 18  2  0  0  0
 12 11  1  0  0  0
 13 17  2  0  0  0
 27 26  1  0  0  0
 18 17  1  0  0  0
 18 23  1  0  0  0
 26  7  1  0  0  0
 17  1  1  0  0  0
 23 20  1  0  0  0
  6  1  2  0  0  0
  6  5  1  0  0  0
 19 20  1  0  0  0
 11 20  1  0  0  0
  1  2  1  0  0  0
  7  5  1  0  0  0
  7  8  2  0  0  0
  5  4  2  0  0  0
  8  9  1  0  0  0
  2  3  2  0  0  0
  4  3  1  0  0  0
  4  9  1  0  0  0
  9 10  1  0  0  0
 22 24  1  0  0  0
 23 25  1  0  0  0
M  END
> <minimizedAffinity>
-10.01231

$$$$
5I8G_69E_A_1404


 31 35  0  0  0  0  0  0  0  0999 V2000
   31.3529   13.1147   14.6597 C   0  0  0  0  0  0  0  0  0  0  0  0
   32.4254   12.5611   13.9443 C   0  0  0  0  0  0  0  0  0  0  0  0
   33.4152   11.8968   14.6091 C   0  0  0  0  0  0  0  0  0  0  0  0
   33.3737   11.7830   16.0001 C   0  0  0  0  0  0  0  0  0  0  0  0
   32.3157   12.3340   16.7365 C   0  0  0  0  0  0  0  0  0  0  0  0
   31.2951   12.9987   16.0506 C   0  0  0  0  0  0  0  0  0  0  0  0
   32.6027   12.0185   18.1536 C   0  0  0  0  0  0  0  0  0  0  0  0
   33.7279   11.3638   18.1991 N   0  0  0  0  0  0  0  0  0  0  0  0
   34.2166   11.1978   16.9116 N   0  0  0  0  0  0  0  0  0  0  0  0
   35.4459   10.4920   16.5773 C   0  0  0  0  0  0  0  0  0  0  0  0
   26.4960   12.2228   14.5776 C   0  0  0  0  0  0  0  0  0  0  0  0
   26.1319   12.4765   13.1504 C   0  0  0  0  0  0  0  0  0  0  0  0
   30.4271   15.1494   13.6649 C   0  0  0  0  0  0  0  0  0  0  0  0
   28.0614   13.9324   12.9405 C   0  0  0  0  0  0  0  0  0  0  0  0
   28.2764   15.2709   12.6369 C   0  0  0  0  0  0  0  0  0  0  0  0
   29.4575   15.8821   13.0174 C   0  0  0  0  0  0  0  0  0  0  0  0
   30.2332   13.7944   13.9571 C   0  0  0  0  0  0  0  0  0  0  0  0
   29.0323   13.1650   13.6035 C   0  0  0  0  0  0  0  0  0  0  0  0
   27.3255    9.9230   14.1369 C   0  0  0  0  0  0  0  0  0  0  0  0
   27.7126   11.3072   14.6568 C   0  0  0  0  0  0  0  0  0  0  0  0
   25.1706   11.9643   12.6123 O   0  0  0  0  0  0  0  0  0  0  0  0
   26.8860   13.3296   12.4703 N   0  0  0  0  0  0  0  0  0  0  0  0
   28.8756   11.7973   13.8761 N   0  0  0  0  0  0  0  0  0  0  0  0
   26.5959   13.5591   11.5580 H   0  0  0  0  0  0  0  0  0  0  0  0
   29.5449   11.1555   13.5455 H   0  0  0  0  0  0  0  0  0  0  0  0
   31.8285   12.3906   19.3571 C   0  0  0  0  0  0  0  0  0  0  0  0
   30.4206   12.4376   19.4215 C   0  0  0  0  0  0  0  0  0  0  0  0
   30.0974   12.7723   20.6377 N   0  0  0  0  0  0  0  0  0  0  0  0
   31.2751   12.9232   21.3750 N   0  0  0  0  0  0  0  0  0  0  0  0
   32.3313   12.6776   20.5824 C   0  0  0  0  0  0  0  0  0  0  0  0
   31.3687   13.2850   22.7795 C   0  0  0  0  0  0  0  0  0  0  0  0
 31 29  1  0  0  0
 29 28  1  0  0  0
 29 30  1  0  0  0
 22 14  1  0  0  0
 22 12  1  0  0  0
 15 16  2  0  0  0
 15 14  1  0  0  0
 28 27  2  0  0  0
 21 12  2  0  0  0
 30 26  2  0  0  0
 16 13  1  0  0  0
 14 18  2  0  0  0
 12 11  1  0  0  0
 13 17  2  0  0  0
 27 26  1  0  0  0
 18 17  1  0  0  0
 18 23  1  0  0  0
 26  7  1  0  0  0
 17  1  1  0  0  0
 23 20  1  0  0  0
  6  1  2  0  0  0
  6  5  1  0  0  0
 19 20  1  0  0  0
 11 20  1  0  0  0
  1  2  1  0  0  0
  7  5  1  0  0  0
  7  8  2  0  0  0
  5  4  2  0  0  0
  8  9  1  0  0  0
  2  3  2  0  0  0
  4  3  1  0  0  0
  4  9  1  0  0  0
  9 10  1  0  0  0
 22 24  1  0  0  0
 23 25  1  0  0  0
M  END
> <minimizedAffinity>
-9.97960

$$$$
5I8G_69E_A_1404


 31 35  0  0  0  0  0  0  0  0999 V2000
   31.2539   12.9110   14.8101 C   0  0  0  0  0  0  0  0  0  0  0  0
   31.4371   14.1705   14.2197 C   0  0  0  0  0  0  0  0  0  0  0  0
   30.4141   14.7528   13.5289 C   0  0  0  0  0  0  0  0  0  0  0  0
   29.1924   14.0908   13.3916 C   0  0  0  0  0  0  0  0  0  0  0  0
   28.9885   12.8288   13.9669 C   0  0  0  0  0  0  0  0  0  0  0  0
   30.0330   12.2433   14.6882 C   0  0  0  0  0  0  0  0  0  0  0  0
   27.6003   12.4478   13.6235 C   0  0  0  0  0  0  0  0  0  0  0  0
   27.0862   13.4075   12.9083 N   0  0  0  0  0  0  0  0  0  0  0  0
   28.0214   14.4205   12.7562 N   0  0  0  0  0  0  0  0  0  0  0  0
   27.7863   15.6623   12.0326 C   0  0  0  0  0  0  0  0  0  0  0  0
   36.0628   12.2312   13.9133 C   0  0  0  0  0  0  0  0  0  0  0  0
   36.3178   10.8660   14.4653 C   0  0  0  0  0  0  0  0  0  0  0  0
   32.1512   12.3007   17.0030 C   0  0  0  0  0  0  0  0  0  0  0  0
   34.4175   11.1359   15.9495 C   0  0  0  0  0  0  0  0  0  0  0  0
   34.2149   11.1452   17.3239 C   0  0  0  0  0  0  0  0  0  0  0  0
   33.0851   11.7458   17.8494 C   0  0  0  0  0  0  0  0  0  0  0  0
   32.3314   12.2785   15.6151 C   0  0  0  0  0  0  0  0  0  0  0  0
   33.4827   11.6986   15.0660 C   0  0  0  0  0  0  0  0  0  0  0  0
   35.1390   11.3798   11.7701 C   0  0  0  0  0  0  0  0  0  0  0  0
   34.8323   12.2147   13.0130 C   0  0  0  0  0  0  0  0  0  0  0  0
   37.2186   10.1518   14.0727 O   0  0  0  0  0  0  0  0  0  0  0  0
   35.5348   10.4503   15.4518 N   0  0  0  0  0  0  0  0  0  0  0  0
   33.6240   11.6578   13.6704 N   0  0  0  0  0  0  0  0  0  0  0  0
   35.7568    9.5871   15.8700 H   0  0  0  0  0  0  0  0  0  0  0  0
   32.9132   11.2550   13.1210 H   0  0  0  0  0  0  0  0  0  0  0  0
   26.8777   11.2002   13.9511 C   0  0  0  0  0  0  0  0  0  0  0  0
   27.3949   10.1613   14.7521 C   0  0  0  0  0  0  0  0  0  0  0  0
   26.4732    9.2461   14.8456 N   0  0  0  0  0  0  0  0  0  0  0  0
   25.3523    9.6831   14.1345 N   0  0  0  0  0  0  0  0  0  0  0  0
   25.6074   10.8875   13.5972 C   0  0  0  0  0  0  0  0  0  0  0  0
   24.0959    8.9676   13.9873 C   0  0  0  0  0  0  0  0  0  0  0  0
 31 29  1  0  0  0
 29 28  1  0  0  0
 29 30  1  0  0  0
 22 14  1  0  0  0
 22 12  1  0  0  0
 15 16  2  0  0  0
 15 14  1  0  0  0
 28 27  2  0  0  0
 21 12  2  0  0  0
 30 26  2  0  0  0
 16 13  1  0  0  0
 14 18  2  0  0  0
 12 11  1  0  0  0
 13 17  2  0  0  0
 27 26  1  0  0  0
 18 17  1  0  0  0
 18 23  1  0  0  0
 26  7  1  0  0  0
 17  1  1  0  0  0
 23 20  1  0  0  0
  6  1  2  0  0  0
  6  5  1  0  0  0
 19 20  1  0  0  0
 11 20  1  0  0  0
  1  2  1  0  0  0
  7  5  1  0  0  0
  7  8  2  0  0  0
  5  4  2  0  0  0
  8  9  1  0  0  0
  2  3  2  0  0  0
  4  3  1  0  0  0
  4  9  1  0  0  0
  9 10  1  0  0  0
 22 24  1  0  0  0
 23 25  1  0  0  0
M  END
> <minimizedAffinity>
-8.95445

$$$$
5I8G_69E_A_1404


 31 35  0  0  0  0  0  0  0  0999 V2000
   30.3334   12.3283   15.2841 C   0  0  0  0  0  0  0  0  0  0  0  0
   30.2564   12.1842   16.6775 C   0  0  0  0  0  0  0  0  0  0  0  0
   31.3877   11.9326   17.3985 C   0  0  0  0  0  0  0  0  0  0  0  0
   32.6180   11.7993   16.7519 C   0  0  0  0  0  0  0  0  0  0  0  0
   32.7182   11.9324   15.3599 C   0  0  0  0  0  0  0  0  0  0  0  0
   31.5601   12.2070   14.6269 C   0  0  0  0  0  0  0  0  0  0  0  0
   34.1491   11.7358   15.0374 C   0  0  0  0  0  0  0  0  0  0  0  0
   34.7826   11.4996   16.1508 N   0  0  0  0  0  0  0  0  0  0  0  0
   33.8859   11.5387   17.2083 N   0  0  0  0  0  0  0  0  0  0  0  0
   34.2449   11.3413   18.6058 C   0  0  0  0  0  0  0  0  0  0  0  0
   29.7606   14.9360   11.1291 C   0  0  0  0  0  0  0  0  0  0  0  0
   28.4895   15.6831   11.3738 C   0  0  0  0  0  0  0  0  0  0  0  0
   28.0669   11.7487   14.5676 C   0  0  0  0  0  0  0  0  0  0  0  0
   27.8156   13.9725   12.9570 C   0  0  0  0  0  0  0  0  0  0  0  0
   26.7626   13.0733   13.0705 C   0  0  0  0  0  0  0  0  0  0  0  0
   26.8992   11.9500   13.8660 C   0  0  0  0  0  0  0  0  0  0  0  0
   29.1273   12.6580   14.4804 C   0  0  0  0  0  0  0  0  0  0  0  0
   29.0175   13.7876   13.6586 C   0  0  0  0  0  0  0  0  0  0  0  0
   31.1539   16.5430   12.4129 C   0  0  0  0  0  0  0  0  0  0  0  0
   30.6989   15.0868   12.3215 C   0  0  0  0  0  0  0  0  0  0  0  0
   28.2247   16.7345   10.8261 O   0  0  0  0  0  0  0  0  0  0  0  0
   27.6106   15.1371   12.2035 N   0  0  0  0  0  0  0  0  0  0  0  0
   30.0808   14.7024   13.6148 N   0  0  0  0  0  0  0  0  0  0  0  0
   26.7404   15.5877   12.2984 H   0  0  0  0  0  0  0  0  0  0  0  0
   30.4206   15.0939   14.4518 H   0  0  0  0  0  0  0  0  0  0  0  0
   34.8055   11.7393   13.7125 C   0  0  0  0  0  0  0  0  0  0  0  0
   35.6659   10.7261   13.2418 C   0  0  0  0  0  0  0  0  0  0  0  0
   36.0260   11.0515   12.0333 N   0  0  0  0  0  0  0  0  0  0  0  0
   35.3946   12.2528   11.6998 N   0  0  0  0  0  0  0  0  0  0  0  0
   34.6406   12.6618   12.7335 C   0  0  0  0  0  0  0  0  0  0  0  0
   35.5159   12.9657   10.4390 C   0  0  0  0  0  0  0  0  0  0  0  0
 31 29  1  0  0  0
 29 28  1  0  0  0
 29 30  1  0  0  0
 22 14  1  0  0  0
 22 12  1  0  0  0
 15 16  2  0  0  0
 15 14  1  0  0  0
 28 27  2  0  0  0
 21 12  2  0  0  0
 30 26  2  0  0  0
 16 13  1  0  0  0
 14 18  2  0  0  0
 12 11  1  0  0  0
 13 17  2  0  0  0
 27 26  1  0  0  0
 18 17  1  0  0  0
 18 23  1  0  0  0
 26  7  1  0  0  0
 17  1  1  0  0  0
 23 20  1  0  0  0
  6  1  2  0  0  0
  6  5  1  0  0  0
 19 20  1  0  0  0
 11 20  1  0  0  0
  1  2  1  0  0  0
  7  5  1  0  0  0
  7  8  2  0  0  0
  5  4  2  0  0  0
  8  9  1  0  0  0
  2  3  2  0  0  0
  4  3  1  0  0  0
  4  9  1  0  0  0
  9 10  1  0  0  0
 22 24  1  0  0  0
 23 25  1  0  0  0
M  END
> <minimizedAffinity>
-8.24139

$$$$
5I8G_69E_A_1404


 31 35  0  0  0  0  0  0  0  0999 V2000
   30.9376   12.6332   14.6629 C   0  0  0  0  0  0  0  0  0  0  0  0
   32.0699   12.3457   13.8859 C   0  0  0  0  0  0  0  0  0  0  0  0
   33.2550   12.0499   14.4950 C   0  0  0  0  0  0  0  0  0  0  0  0
   33.3487   12.0513   15.8881 C   0  0  0  0  0  0  0  0  0  0  0  0
   32.2325   12.3423   16.6848 C   0  0  0  0  0  0  0  0  0  0  0  0
   31.0164   12.6280   16.0576 C   0  0  0  0  0  0  0  0  0  0  0  0
   32.7000   12.2464   18.0856 C   0  0  0  0  0  0  0  0  0  0  0  0
   33.9669   11.9440   18.0660 N   0  0  0  0  0  0  0  0  0  0  0  0
   34.3885   11.8112   16.7513 N   0  0  0  0  0  0  0  0  0  0  0  0
   35.7421   11.4561   16.3478 C   0  0  0  0  0  0  0  0  0  0  0  0
   29.6878   15.2688   10.6774 C   0  0  0  0  0  0  0  0  0  0  0  0
   28.4182   15.9349   11.0997 C   0  0  0  0  0  0  0  0  0  0  0  0
   28.6344   11.9315   14.2276 C   0  0  0  0  0  0  0  0  0  0  0  0
   28.0519   14.1621   12.7151 C   0  0  0  0  0  0  0  0  0  0  0  0
   27.0752   13.2002   12.9406 C   0  0  0  0  0  0  0  0  0  0  0  0
   27.3766   12.0743   13.6855 C   0  0  0  0  0  0  0  0  0  0  0  0
   29.6213   12.9035   14.0275 C   0  0  0  0  0  0  0  0  0  0  0  0
   29.3426   14.0377   13.2532 C   0  0  0  0  0  0  0  0  0  0  0  0
   31.1408   16.9349   11.8107 C   0  0  0  0  0  0  0  0  0  0  0  0
   30.7614   15.4558   11.7437 C   0  0  0  0  0  0  0  0  0  0  0  0
   28.0258   16.9775   10.6151 O   0  0  0  0  0  0  0  0  0  0  0  0
   27.6858   15.3244   12.0215 N   0  0  0  0  0  0  0  0  0  0  0  0
   30.3376   15.0147   13.0958 N   0  0  0  0  0  0  0  0  0  0  0  0
   26.8109   15.7209   12.2371 H   0  0  0  0  0  0  0  0  0  0  0  0
   30.7595   15.4121   13.8917 H   0  0  0  0  0  0  0  0  0  0  0  0
   31.9402   12.4880   19.3308 C   0  0  0  0  0  0  0  0  0  0  0  0
   30.5341   12.4524   19.4312 C   0  0  0  0  0  0  0  0  0  0  0  0
   30.2268   12.6806   20.6759 N   0  0  0  0  0  0  0  0  0  0  0  0
   31.4144   12.8430   21.3946 N   0  0  0  0  0  0  0  0  0  0  0  0
   32.4602   12.7137   20.5617 C   0  0  0  0  0  0  0  0  0  0  0  0
   31.5268   13.1077   22.8193 C   0  0  0  0  0  0  0  0  0  0  0  0
 31 29  1  0  0  0
 29 28  1  0  0  0
 29 30  1  0  0  0
 22 14  1  0  0  0
 22 12  1  0  0  0
 15 16  2  0  0  0
 15 14  1  0  0  0
 28 27  2  0  0  0
 21 12  2  0  0  0
 30 26  2  0  0  0
 16 13  1  0  0  0
 14 18  2  0  0  0
 12 11  1  0  0  0
 13 17  2  0  0  0
 27 26  1  0  0  0
 18 17  1  0  0  0
 18 23  1  0  0  0
 26  7  1  0  0  0
 17  1  1  0  0  0
 23 20  1  0  0  0
  6  1  2  0  0  0
  6  5  1  0  0  0
 19 20  1  0  0  0
 11 20  1  0  0  0
  1  2  1  0  0  0
  7  5  1  0  0  0
  7  8  2  0  0  0
  5  4  2  0  0  0
  8  9  1  0  0  0
  2  3  2  0  0  0
  4  3  1  0  0  0
  4  9  1  0  0  0
  9 10  1  0  0  0
 22 24  1  0  0  0
 23 25  1  0  0  0
M  END
> <minimizedAffinity>
-8.19398

$$$$
5I8G_69E_A_1404


 31 35  0  0  0  0  0  0  0  0999 V2000
   32.6054   13.4639   14.9262 C   0  0  0  0  0  0  0  0  0  0  0  0
   33.0792   14.7777   14.7930 C   0  0  0  0  0  0  0  0  0  0  0  0
   32.2404   15.7618   14.3559 C   0  0  0  0  0  0  0  0  0  0  0  0
   30.9181   15.4616   14.0229 C   0  0  0  0  0  0  0  0  0  0  0  0
   30.4245   14.1548   14.1415 C   0  0  0  0  0  0  0  0  0  0  0  0
   31.2818   13.1531   14.6057 C   0  0  0  0  0  0  0  0  0  0  0  0
   29.0097   14.2170   13.7120 C   0  0  0  0  0  0  0  0  0  0  0  0
   28.7474   15.4466   13.3712 N   0  0  0  0  0  0  0  0  0  0  0  0
   29.8793   16.2270   13.5551 N   0  0  0  0  0  0  0  0  0  0  0  0
   29.9487   17.6587   13.2972 C   0  0  0  0  0  0  0  0  0  0  0  0
   36.8190   11.5234   13.2315 C   0  0  0  0  0  0  0  0  0  0  0  0
   36.6564   10.0655   13.5174 C   0  0  0  0  0  0  0  0  0  0  0  0
   33.4420   12.1866   16.8381 C   0  0  0  0  0  0  0  0  0  0  0  0
   35.0924   10.6108   15.2904 C   0  0  0  0  0  0  0  0  0  0  0  0
   35.0276   10.4110   16.6637 C   0  0  0  0  0  0  0  0  0  0  0  0
   34.2114   11.2152   17.4387 C   0  0  0  0  0  0  0  0  0  0  0  0
   33.4804   12.3840   15.4530 C   0  0  0  0  0  0  0  0  0  0  0  0
   34.3215   11.5971   14.6549 C   0  0  0  0  0  0  0  0  0  0  0  0
   35.4786   11.4388   11.1415 C   0  0  0  0  0  0  0  0  0  0  0  0
   35.5772   12.0654   12.5321 C   0  0  0  0  0  0  0  0  0  0  0  0
   37.2316    9.2002   12.8880 O   0  0  0  0  0  0  0  0  0  0  0  0
   35.8711    9.7260   14.5309 N   0  0  0  0  0  0  0  0  0  0  0  0
   34.3164   11.7907   13.2650 N   0  0  0  0  0  0  0  0  0  0  0  0
   35.8316    8.7719   14.7702 H   0  0  0  0  0  0  0  0  0  0  0  0
   33.4665   11.7436   12.7703 H   0  0  0  0  0  0  0  0  0  0  0  0
   28.0267   13.1172   13.6107 C   0  0  0  0  0  0  0  0  0  0  0  0
   26.8110   13.1919   12.8999 C   0  0  0  0  0  0  0  0  0  0  0  0
   26.2255   12.0336   13.0072 N   0  0  0  0  0  0  0  0  0  0  0  0
   27.0529   11.1960   13.7602 N   0  0  0  0  0  0  0  0  0  0  0  0
   28.1598   11.8676   14.1178 C   0  0  0  0  0  0  0  0  0  0  0  0
   26.7823    9.8120   14.1119 C   0  0  0  0  0  0  0  0  0  0  0  0
 31 29  1  0  0  0
 29 28  1  0  0  0
 29 30  1  0  0  0
 22 14  1  0  0  0
 22 12  1  0  0  0
 15 16  2  0  0  0
 15 14  1  0  0  0
 28 27  2  0  0  0
 21 12  2  0  0  0
 30 26  2  0  0  0
 16 13  1  0  0  0
 14 18  2  0  0  0
 12 11  1  0  0  0
 13 17  2  0  0  0
 27 26  1  0  0  0
 18 17  1  0  0  0
 18 23  1  0  0  0
 26  7  1  0  0  0
 17  1  1  0  0  0
 23 20  1  0  0  0
  6  1  2  0  0  0
  6  5  1  0  0  0
 19 20  1  0  0  0
 11 20  1  0  0  0
  1  2  1  0  0  0
  7  5  1  0  0  0
  7  8  2  0  0  0
  5  4  2  0  0  0
  8  9  1  0  0  0
  2  3  2  0  0  0
  4  3  1  0  0  0
  4  9  1  0  0  0
  9 10  1  0  0  0
 22 24  1  0  0  0
 23 25  1  0  0  0
M  END
> <minimizedAffinity>
-7.57063

$$$$
5I8G_69E_A_1404


 31 35  0  0  0  0  0  0  0  0999 V2000
   30.5454   12.5843   15.3923 C   0  0  0  0  0  0  0  0  0  0  0  0
   29.4570   11.7081   15.5197 C   0  0  0  0  0  0  0  0  0  0  0  0
   28.3077   11.9461   14.8230 C   0  0  0  0  0  0  0  0  0  0  0  0
   28.2048   13.0687   13.9992 C   0  0  0  0  0  0  0  0  0  0  0  0
   29.2767   13.9617   13.8616 C   0  0  0  0  0  0  0  0  0  0  0  0
   30.4582   13.7053   14.5633 C   0  0  0  0  0  0  0  0  0  0  0  0
   28.8131   15.0076   12.9229 C   0  0  0  0  0  0  0  0  0  0  0  0
   27.5875   14.7267   12.5827 N   0  0  0  0  0  0  0  0  0  0  0  0
   27.1921   13.5549   13.2108 N   0  0  0  0  0  0  0  0  0  0  0  0
   25.8887   12.9264   13.0459 C   0  0  0  0  0  0  0  0  0  0  0  0
   35.2447   13.2267   14.0151 C   0  0  0  0  0  0  0  0  0  0  0  0
   35.9255   12.0168   14.5688 C   0  0  0  0  0  0  0  0  0  0  0  0
   31.7796   12.3617   17.4932 C   0  0  0  0  0  0  0  0  0  0  0  0
   34.1738   11.8222   16.2363 C   0  0  0  0  0  0  0  0  0  0  0  0
   34.1063   11.8452   17.6238 C   0  0  0  0  0  0  0  0  0  0  0  0
   32.9071   12.1333   18.2501 C   0  0  0  0  0  0  0  0  0  0  0  0
   31.8281   12.3194   16.0950 C   0  0  0  0  0  0  0  0  0  0  0  0
   33.0398   12.0559   15.4424 C   0  0  0  0  0  0  0  0  0  0  0  0
   34.4028   12.0426   12.0000 C   0  0  0  0  0  0  0  0  0  0  0  0
   33.9904   12.8216   13.2486 C   0  0  0  0  0  0  0  0  0  0  0  0
   36.9505   11.5628   14.1009 O   0  0  0  0  0  0  0  0  0  0  0  0
   35.3875   11.4506   15.6407 N   0  0  0  0  0  0  0  0  0  0  0  0
   33.0556   11.9845   14.0409 N   0  0  0  0  0  0  0  0  0  0  0  0
   35.8824   10.7062   16.0532 H   0  0  0  0  0  0  0  0  0  0  0  0
   32.4394   11.3719   13.5780 H   0  0  0  0  0  0  0  0  0  0  0  0
   29.5331   16.2101   12.4521 C   0  0  0  0  0  0  0  0  0  0  0  0
   29.4735   16.7163   11.1372 C   0  0  0  0  0  0  0  0  0  0  0  0
   30.2044   17.7935   11.1013 N   0  0  0  0  0  0  0  0  0  0  0  0
   30.7230   18.0104   12.3808 N   0  0  0  0  0  0  0  0  0  0  0  0
   30.2976   17.0384   13.2045 C   0  0  0  0  0  0  0  0  0  0  0  0
   31.5861   19.1084   12.7829 C   0  0  0  0  0  0  0  0  0  0  0  0
 31 29  1  0  0  0
 29 28  1  0  0  0
 29 30  1  0  0  0
 22 14  1  0  0  0
 22 12  1  0  0  0
 15 16  2  0  0  0
 15 14  1  0  0  0
 28 27  2  0  0  0
 21 12  2  0  0  0
 30 26  2  0  0  0
 16 13  1  0  0  0
 14 18  2  0  0  0
 12 11  1  0  0  0
 13 17  2  0  0  0
 27 26  1  0  0  0
 18 17  1  0  0  0
 18 23  1  0  0  0
 26  7  1  0  0  0
 17  1  1  0  0  0
 23 20  1  0  0  0
  6  1  2  0  0  0
  6  5  1  0  0  0
 19 20  1  0  0  0
 11 20  1  0  0  0
  1  2  1  0  0  0
  7  5  1  0  0  0
  7  8  2  0  0  0
  5  4  2  0  0  0
  8  9  1  0  0  0
  2  3  2  0  0  0
  4  3  1  0  0  0
  4  9  1  0  0  0
  9 10  1  0  0  0
 22 24  1  0  0  0
 23 25  1  0  0  0
M  END
> <minimizedAffinity>
-7.40888

$$$$
5I8G_69E_A_1404


 31 35  0  0  0  0  0  0  0  0999 V2000
   32.8850   13.3145   15.1835 C   0  0  0  0  0  0  0  0  0  0  0  0
   33.2456   14.6385   14.8913 C   0  0  0  0  0  0  0  0  0  0  0  0
   32.3041   15.5140   14.4330 C   0  0  0  0  0  0  0  0  0  0  0  0
   30.9881   15.0912   14.2358 C   0  0  0  0  0  0  0  0  0  0  0  0
   30.6062   13.7714   14.5144 C   0  0  0  0  0  0  0  0  0  0  0  0
   31.5694   12.8823   14.9999 C   0  0  0  0  0  0  0  0  0  0  0  0
   29.1633   13.6925   14.1952 C   0  0  0  0  0  0  0  0  0  0  0  0
   28.7833   14.8613   13.7636 N   0  0  0  0  0  0  0  0  0  0  0  0
   29.8623   15.7327   13.7832 N   0  0  0  0  0  0  0  0  0  0  0  0
   29.8025   17.1334   13.3886 C   0  0  0  0  0  0  0  0  0  0  0  0
   33.6973   11.7100   19.7833 C   0  0  0  0  0  0  0  0  0  0  0  0
   35.1886   11.6441   19.8578 C   0  0  0  0  0  0  0  0  0  0  0  0
   34.3401   11.3757   14.8511 C   0  0  0  0  0  0  0  0  0  0  0  0
   35.2760   11.4093   17.4445 C   0  0  0  0  0  0  0  0  0  0  0  0
   35.7444   10.4566   16.5483 C   0  0  0  0  0  0  0  0  0  0  0  0
   35.2594   10.4324   15.2531 C   0  0  0  0  0  0  0  0  0  0  0  0
   33.8764   12.3552   15.7369 C   0  0  0  0  0  0  0  0  0  0  0  0
   34.3360   12.3787   17.0604 C   0  0  0  0  0  0  0  0  0  0  0  0
   33.6111   14.1525   20.2284 C   0  0  0  0  0  0  0  0  0  0  0  0
   33.2562   13.0576   19.2228 C   0  0  0  0  0  0  0  0  0  0  0  0
   35.8027   11.7282   20.9025 O   0  0  0  0  0  0  0  0  0  0  0  0
   35.8484   11.4496   18.7238 N   0  0  0  0  0  0  0  0  0  0  0  0
   33.8826   13.3915   17.9196 N   0  0  0  0  0  0  0  0  0  0  0  0
   36.8227   11.3227   18.7857 H   0  0  0  0  0  0  0  0  0  0  0  0
   33.9813   14.3346   17.6546 H   0  0  0  0  0  0  0  0  0  0  0  0
   28.2630   12.5224   14.2753 C   0  0  0  0  0  0  0  0  0  0  0  0
   28.2917   11.5581   15.3037 C   0  0  0  0  0  0  0  0  0  0  0  0
   27.3425   10.7005   15.0600 N   0  0  0  0  0  0  0  0  0  0  0  0
   26.6794   11.1040   13.8978 N   0  0  0  0  0  0  0  0  0  0  0  0
   27.2460   12.2282   13.4293 C   0  0  0  0  0  0  0  0  0  0  0  0
   25.5505   10.4324   13.2759 C   0  0  0  0  0  0  0  0  0  0  0  0
 31 29  1  0  0  0
 29 28  1  0  0  0
 29 30  1  0  0  0
 22 14  1  0  0  0
 22 12  1  0  0  0
 15 16  2  0  0  0
 15 14  1  0  0  0
 28 27  2  0  0  0
 21 12  2  0  0  0
 30 26  2  0  0  0
 16 13  1  0  0  0
 14 18  2  0  0  0
 12 11  1  0  0  0
 13 17  2  0  0  0
 27 26  1  0  0  0
 18 17  1  0  0  0
 18 23  1  0  0  0
 26  7  1  0  0  0
 17  1  1  0  0  0
 23 20  1  0  0  0
  6  1  2  0  0  0
  6  5  1  0  0  0
 19 20  1  0  0  0
 11 20  1  0  0  0
  1  2  1  0  0  0
  7  5  1  0  0  0
  7  8  2  0  0  0
  5  4  2  0  0  0
  8  9  1  0  0  0
  2  3  2  0  0  0
  4  3  1  0  0  0
  4  9  1  0  0  0
  9 10  1  0  0  0
 22 24  1  0  0  0
 23 25  1  0  0  0
M  END
> <minimizedAffinity>
-7.19249

$$$$
5I8G_69E_A_1404


 31 35  0  0  0  0  0  0  0  0999 V2000
   31.5920   12.9126   15.1488 C   0  0  0  0  0  0  0  0  0  0  0  0
   30.6749   12.0866   15.8161 C   0  0  0  0  0  0  0  0  0  0  0  0
   29.3608   12.0932   15.4473 C   0  0  0  0  0  0  0  0  0  0  0  0
   28.9230   12.9332   14.4215 C   0  0  0  0  0  0  0  0  0  0  0  0
   29.8198   13.7720   13.7452 C   0  0  0  0  0  0  0  0  0  0  0  0
   31.1679   13.7498   14.1142 C   0  0  0  0  0  0  0  0  0  0  0  0
   29.0132   14.4985   12.7394 C   0  0  0  0  0  0  0  0  0  0  0  0
   27.7764   14.1075   12.8584 N   0  0  0  0  0  0  0  0  0  0  0  0
   27.6891   13.1546   13.8626 N   0  0  0  0  0  0  0  0  0  0  0  0
   26.4612   12.4786   14.2579 C   0  0  0  0  0  0  0  0  0  0  0  0
   35.6434   12.9455   12.3244 C   0  0  0  0  0  0  0  0  0  0  0  0
   36.5524   11.9915   13.0296 C   0  0  0  0  0  0  0  0  0  0  0  0
   33.3807   13.4120   16.7419 C   0  0  0  0  0  0  0  0  0  0  0  0
   35.3625   12.4231   15.0995 C   0  0  0  0  0  0  0  0  0  0  0  0
   35.6855   12.9291   16.3524 C   0  0  0  0  0  0  0  0  0  0  0  0
   34.6905   13.4400   17.1662 C   0  0  0  0  0  0  0  0  0  0  0  0
   33.0381   12.8846   15.4915 C   0  0  0  0  0  0  0  0  0  0  0  0
   34.0356   12.3873   14.6423 C   0  0  0  0  0  0  0  0  0  0  0  0
   34.3733   11.1501   11.1690 C   0  0  0  0  0  0  0  0  0  0  0  0
   34.2635   12.3229   12.1430 C   0  0  0  0  0  0  0  0  0  0  0  0
   37.4396   11.3835   12.4647 O   0  0  0  0  0  0  0  0  0  0  0  0
   36.3872   11.8443   14.3373 N   0  0  0  0  0  0  0  0  0  0  0  0
   33.6633   11.8320   13.4084 N   0  0  0  0  0  0  0  0  0  0  0  0
   37.0393   11.2808   14.8132 H   0  0  0  0  0  0  0  0  0  0  0  0
   32.9963   11.1085   13.3819 H   0  0  0  0  0  0  0  0  0  0  0  0
   29.4509   15.5321   11.7770 C   0  0  0  0  0  0  0  0  0  0  0  0
   29.8137   16.8494   12.1256 C   0  0  0  0  0  0  0  0  0  0  0  0
   30.1694   17.4580   11.0307 N   0  0  0  0  0  0  0  0  0  0  0  0
   30.0651   16.5492    9.9742 N   0  0  0  0  0  0  0  0  0  0  0  0
   29.6322   15.3676   10.4441 C   0  0  0  0  0  0  0  0  0  0  0  0
   30.3731   16.8151    8.5789 C   0  0  0  0  0  0  0  0  0  0  0  0
 31 29  1  0  0  0
 29 28  1  0  0  0
 29 30  1  0  0  0
 22 14  1  0  0  0
 22 12  1  0  0  0
 15 16  2  0  0  0
 15 14  1  0  0  0
 28 27  2  0  0  0
 21 12  2  0  0  0
 30 26  2  0  0  0
 16 13  1  0  0  0
 14 18  2  0  0  0
 12 11  1  0  0  0
 13 17  2  0  0  0
 27 26  1  0  0  0
 18 17  1  0  0  0
 18 23  1  0  0  0
 26  7  1  0  0  0
 17  1  1  0  0  0
 23 20  1  0  0  0
  6  1  2  0  0  0
  6  5  1  0  0  0
 19 20  1  0  0  0
 11 20  1  0  0  0
  1  2  1  0  0  0
  7  5  1  0  0  0
  7  8  2  0  0  0
  5  4  2  0  0  0
  8  9  1  0  0  0
  2  3  2  0  0  0
  4  3  1  0  0  0
  4  9  1  0  0  0
  9 10  1  0  0  0
 22 24  1  0  0  0
 23 25  1  0  0  0
M  END
> <minimizedAffinity>
-7.17650

$$$$
5I8G_69E_A_1404


 31 35  0  0  0  0  0  0  0  0999 V2000
   33.1335   12.4253   14.2509 C   0  0  0  0  0  0  0  0  0  0  0  0
   33.8716   12.5495   15.4375 C   0  0  0  0  0  0  0  0  0  0  0  0
   33.2353   12.4885   16.6435 C   0  0  0  0  0  0  0  0  0  0  0  0
   31.8501   12.3223   16.6995 C   0  0  0  0  0  0  0  0  0  0  0  0
   31.0910   12.2028   15.5269 C   0  0  0  0  0  0  0  0  0  0  0  0
   31.7485   12.2486   14.2942 C   0  0  0  0  0  0  0  0  0  0  0  0
   29.6882   12.0389   15.9689 C   0  0  0  0  0  0  0  0  0  0  0  0
   29.6703   12.0793   17.2707 N   0  0  0  0  0  0  0  0  0  0  0  0
   30.9638   12.2420   17.7444 N   0  0  0  0  0  0  0  0  0  0  0  0
   31.3274   12.3073   19.1531 C   0  0  0  0  0  0  0  0  0  0  0  0
   34.7070   16.1217   11.3780 C   0  0  0  0  0  0  0  0  0  0  0  0
   34.3569   15.6512   10.0033 C   0  0  0  0  0  0  0  0  0  0  0  0
   34.5651   11.2957   12.6196 C   0  0  0  0  0  0  0  0  0  0  0  0
   34.4193   13.3591   10.7964 C   0  0  0  0  0  0  0  0  0  0  0  0
   35.1499   12.2161   10.4964 C   0  0  0  0  0  0  0  0  0  0  0  0
   35.2347   11.1907   11.4208 C   0  0  0  0  0  0  0  0  0  0  0  0
   33.8070   12.4317   12.9258 C   0  0  0  0  0  0  0  0  0  0  0  0
   33.7315   13.4922   12.0131 C   0  0  0  0  0  0  0  0  0  0  0  0
   32.4159   16.9498   11.8645 C   0  0  0  0  0  0  0  0  0  0  0  0
   33.5070   15.9752   12.3071 C   0  0  0  0  0  0  0  0  0  0  0  0
   34.1642   16.4096    9.0741 O   0  0  0  0  0  0  0  0  0  0  0  0
   34.2937   14.3415    9.8040 N   0  0  0  0  0  0  0  0  0  0  0  0
   32.9370   14.6052   12.3282 N   0  0  0  0  0  0  0  0  0  0  0  0
   34.1461   14.0330    8.8808 H   0  0  0  0  0  0  0  0  0  0  0  0
   31.9905   14.4756   12.5661 H   0  0  0  0  0  0  0  0  0  0  0  0
   28.4700   11.9024   15.1421 C   0  0  0  0  0  0  0  0  0  0  0  0
   27.6681   12.9799   14.7126 C   0  0  0  0  0  0  0  0  0  0  0  0
   26.7079   12.4850   13.9855 N   0  0  0  0  0  0  0  0  0  0  0  0
   26.8843   11.1003   13.9158 N   0  0  0  0  0  0  0  0  0  0  0  0
   27.9737   10.7541   14.6211 C   0  0  0  0  0  0  0  0  0  0  0  0
   26.0383   10.1618   13.1976 C   0  0  0  0  0  0  0  0  0  0  0  0
 31 29  1  0  0  0
 29 28  1  0  0  0
 29 30  1  0  0  0
 22 14  1  0  0  0
 22 12  1  0  0  0
 15 16  2  0  0  0
 15 14  1  0  0  0
 28 27  2  0  0  0
 21 12  2  0  0  0
 30 26  2  0  0  0
 16 13  1  0  0  0
 14 18  2  0  0  0
 12 11  1  0  0  0
 13 17  2  0  0  0
 27 26  1  0  0  0
 18 17  1  0  0  0
 18 23  1  0  0  0
 26  7  1  0  0  0
 17  1  1  0  0  0
 23 20  1  0  0  0
  6  1  2  0  0  0
  6  5  1  0  0  0
 19 20  1  0  0  0
 11 20  1  0  0  0
  1  2  1  0  0  0
  7  5  1  0  0  0
  7  8  2  0  0  0
  5  4  2  0  0  0
  8  9  1  0  0  0
  2  3  2  0  0  0
  4  3  1  0  0  0
  4  9  1  0  0  0
  9 10  1  0  0  0
 22 24  1  0  0  0
 23 25  1  0  0  0
M  END
> <minimizedAffinity>
-7.12759

$$$$
