2P4J_23I_A_501


 54 55  0  0  0  0  0  0  0  0999 V2000
   -3.4159   -3.9350   30.0396 C   0  0  0  0  0  0  0  0  0  0  0  0
   -4.4375   -3.8168   29.3336 O   0  0  0  0  0  0  0  0  0  0  0  0
   -3.4815   -4.2825   31.3414 N   0  0  0  0  0  0  0  0  0  0  0  0
   -2.6294   -4.3506   31.8298 H   0  0  0  0  0  0  0  0  0  0  0  0
    0.5911   -3.4946   28.4755 C   0  0  0  0  0  0  0  0  0  0  0  0
   -2.0385   -3.7582   29.4959 C   0  0  0  0  0  0  0  0  0  0  0  0
    0.3401   -4.4050   29.5340 C   0  0  0  0  0  0  0  0  0  0  0  0
   -0.4587   -2.6996   27.9096 C   0  0  0  0  0  0  0  0  0  0  0  0
   -1.7758   -2.8595   28.4472 C   0  0  0  0  0  0  0  0  0  0  0  0
   -0.9664   -4.5071   30.0087 C   0  0  0  0  0  0  0  0  0  0  0  0
    1.4362   -5.2390   30.1144 C   0  0  0  0  0  0  0  0  0  0  0  0
    1.3779   -5.4651   31.4402 N   0  0  0  0  0  0  0  0  0  0  0  0
    2.3424   -5.7177   29.4121 O   0  0  0  0  0  0  0  0  0  0  0  0
    0.6313   -5.0637   31.9409 H   0  0  0  0  0  0  0  0  0  0  0  0
    2.3453   -6.2645   32.1878 C   0  0  0  0  0  0  0  0  0  0  0  0
    1.5065   -7.0717   33.1970 C   0  0  0  0  0  0  0  0  0  0  0  0
    4.7920   -5.5338   32.3376 C   0  0  0  0  0  0  0  0  0  0  0  0
    5.8413   -4.7630   32.8873 C   0  0  0  0  0  0  0  0  0  0  0  0
    5.5643   -3.8454   33.9291 C   0  0  0  0  0  0  0  0  0  0  0  0
    4.2387   -3.6977   34.4200 C   0  0  0  0  0  0  0  0  0  0  0  0
    3.1870   -4.4685   33.8688 C   0  0  0  0  0  0  0  0  0  0  0  0
    3.4545   -5.3962   32.8225 C   0  0  0  0  0  0  0  0  0  0  0  0
   -0.1856   -1.7706   26.7885 N   0  0  0  0  0  0  0  0  0  0  0  0
   -1.2595   -0.8166   26.3507 C   0  0  0  0  0  0  0  0  0  0  0  0
    2.6372   -1.8999   26.1846 C   0  0  0  0  0  0  0  0  0  0  0  0
    1.3591   -0.9057   26.9130 S   0  0  0  0  0  0  0  0  0  0  0  0
    1.3084    0.4307   26.0839 O   0  0  0  0  0  0  0  0  0  0  0  0
    1.7604   -0.4801   28.3737 O   0  0  0  0  0  0  0  0  0  0  0  0
   -4.7105   -4.5690   32.0980 C   0  0  0  0  0  0  0  0  0  0  0  0
   -5.1002   -3.4349   33.0864 C   0  0  0  0  0  0  0  0  0  0  0  0
   -4.0416   -3.1457   33.9791 O   0  0  0  0  0  0  0  0  0  0  0  0
   -3.2766   -2.8207   33.4790 H   0  0  0  0  0  0  0  0  0  0  0  0
   -5.4331   -2.1183   32.3589 C   0  0  0  0  0  0  0  0  0  0  0  0
   -6.7423   -1.4426   32.7882 C   0  0  0  0  0  0  0  0  0  0  0  0
   -6.5549    0.1011   32.7145 C   0  0  0  0  0  0  0  0  0  0  0  0
   -7.9466   -1.8928   31.8969 C   0  0  0  0  0  0  0  0  0  0  0  0
   -7.7853   -2.2808   30.7367 O   0  0  0  0  0  0  0  0  0  0  0  0
   -9.1641   -1.8124   32.4553 N   0  0  0  0  0  0  0  0  0  0  0  0
   -9.2367   -1.5046   33.3876 H   0  0  0  0  0  0  0  0  0  0  0  0
  -10.4056   -2.1686   31.7243 C   0  0  0  0  0  0  0  0  0  0  0  0
  -12.0163   -0.6509   30.6307 O   0  0  0  0  0  0  0  0  0  0  0  0
  -10.8286   -0.8778   30.9161 C   0  0  0  0  0  0  0  0  0  0  0  0
   -9.8326   -0.0433   30.5888 N   0  0  0  0  0  0  0  0  0  0  0  0
   -8.9181   -0.2930   30.8546 H   0  0  0  0  0  0  0  0  0  0  0  0
  -10.0137    1.2169   29.8612 C   0  0  0  0  0  0  0  0  0  0  0  0
   -9.4944    0.9920   28.4442 C   0  0  0  0  0  0  0  0  0  0  0  0
   -9.2043    2.2953   30.5841 C   0  0  0  0  0  0  0  0  0  0  0  0
  -11.4692   -2.7467   32.7382 C   0  0  0  0  0  0  0  0  0  0  0  0
  -11.5815   -1.8735   34.0066 C   0  0  0  0  0  0  0  0  0  0  0  0
  -11.1906   -4.1903   33.2304 C   0  0  0  0  0  0  0  0  0  0  0  0
   -4.4673   -5.9631   32.7825 C   0  0  0  0  0  0  0  0  0  0  0  0
   -3.6058   -7.0006   31.9767 C   0  0  0  0  0  0  0  0  0  0  0  0
   -3.0205   -8.0852   32.8906 C   0  0  0  0  0  0  0  0  0  0  0  0
   -4.4247   -7.6997   30.8882 C   0  0  0  0  0  0  0  0  0  0  0  0
 41 42  2  0  0  0
 17 22  2  0  0  0
 17 18  1  0  0  0
 18 19  2  0  0  0
 19 20  1  0  0  0
 20 21  2  0  0  0
 21 22  1  0  0  0
 22 15  1  0  0  0
 25 26  1  0  0  0
 11  7  1  0  0  0
 11 13  2  0  0  0
 11 12  1  0  0  0
  1  2  2  0  0  0
  1  6  1  0  0  0
  1  3  1  0  0  0
  5  8  1  0  0  0
  5  7  2  0  0  0
  6  9  1  0  0  0
  6 10  2  0  0  0
 36 37  2  0  0  0
 36 34  1  0  0  0
 36 38  1  0  0  0
 29  3  1  0  0  0
 29 30  1  0  0  0
 29 51  1  0  0  0
 30 33  1  0  0  0
 30 31  1  0  0  0
 51 52  1  0  0  0
 52 54  1  0  0  0
 52 53  1  0  0  0
 15 12  1  0  0  0
 15 16  1  0  0  0
  7 10  1  0  0  0
  8 23  1  0  0  0
  8  9  2  0  0  0
 23 24  1  0  0  0
 23 26  1  0  0  0
 26 27  2  0  0  0
 26 28  2  0  0  0
 33 34  1  0  0  0
 34 35  1  0  0  0
 38 40  1  0  0  0
 40 42  1  0  0  0
 40 48  1  0  0  0
 48 49  1  0  0  0
 48 50  1  0  0  0
 42 43  1  0  0  0
 43 45  1  0  0  0
 45 47  1  0  0  0
 45 46  1  0  0  0
 12 14  1  0  0  0
  3  4  1  0  0  0
 31 32  1  0  0  0
 38 39  1  0  0  0
 43 44  1  0  0  0
M  END
> <minimizedAffinity>
-11.14390

$$$$
2P4J_23I_A_501


 54 55  0  0  0  0  0  0  0  0999 V2000
   -5.8453   -2.8819   32.8191 C   0  0  0  0  0  0  0  0  0  0  0  0
   -5.4465   -3.0231   33.9926 O   0  0  0  0  0  0  0  0  0  0  0  0
   -5.1969   -3.4312   31.7714 N   0  0  0  0  0  0  0  0  0  0  0  0
   -5.5745   -3.2694   30.8767 H   0  0  0  0  0  0  0  0  0  0  0  0
   -9.5012   -0.7644   31.8986 C   0  0  0  0  0  0  0  0  0  0  0  0
   -7.0964   -2.1450   32.4788 C   0  0  0  0  0  0  0  0  0  0  0  0
   -9.5453   -1.9465   32.6815 C   0  0  0  0  0  0  0  0  0  0  0  0
   -8.2633   -0.2515   31.3899 C   0  0  0  0  0  0  0  0  0  0  0  0
   -7.0671   -0.9724   31.7039 C   0  0  0  0  0  0  0  0  0  0  0  0
   -8.3416   -2.5973   32.9461 C   0  0  0  0  0  0  0  0  0  0  0  0
  -10.8375   -2.4722   33.2180 C   0  0  0  0  0  0  0  0  0  0  0  0
  -11.9587   -1.8827   32.7621 N   0  0  0  0  0  0  0  0  0  0  0  0
  -10.8807   -3.4159   34.0249 O   0  0  0  0  0  0  0  0  0  0  0  0
  -11.8587   -1.1443   32.1187 H   0  0  0  0  0  0  0  0  0  0  0  0
  -13.3132   -2.2624   33.1554 C   0  0  0  0  0  0  0  0  0  0  0  0
  -13.4600   -3.7344   32.7250 C   0  0  0  0  0  0  0  0  0  0  0  0
  -14.2427   -0.8837   31.2117 C   0  0  0  0  0  0  0  0  0  0  0  0
  -15.1918   -0.0127   30.6303 C   0  0  0  0  0  0  0  0  0  0  0  0
  -16.2897    0.4407   31.4004 C   0  0  0  0  0  0  0  0  0  0  0  0
  -16.4392    0.0224   32.7504 C   0  0  0  0  0  0  0  0  0  0  0  0
  -15.4896   -0.8511   33.3329 C   0  0  0  0  0  0  0  0  0  0  0  0
  -14.3802   -1.3114   32.5686 C   0  0  0  0  0  0  0  0  0  0  0  0
   -8.2304    0.9974   30.5938 N   0  0  0  0  0  0  0  0  0  0  0  0
   -6.9699    1.8131   30.5640 C   0  0  0  0  0  0  0  0  0  0  0  0
  -10.3125    1.8515   28.7814 C   0  0  0  0  0  0  0  0  0  0  0  0
   -8.8676    0.8329   28.9456 S   0  0  0  0  0  0  0  0  0  0  0  0
   -7.8238    1.3695   27.8974 O   0  0  0  0  0  0  0  0  0  0  0  0
   -9.1847   -0.6442   28.5058 O   0  0  0  0  0  0  0  0  0  0  0  0
   -3.9767   -4.2503   31.8440 C   0  0  0  0  0  0  0  0  0  0  0  0
   -3.2565   -4.3997   30.4751 C   0  0  0  0  0  0  0  0  0  0  0  0
   -4.1854   -4.4556   29.4097 O   0  0  0  0  0  0  0  0  0  0  0  0
   -4.6802   -3.6223   29.3680 H   0  0  0  0  0  0  0  0  0  0  0  0
   -2.3192   -3.2134   30.1785 C   0  0  0  0  0  0  0  0  0  0  0  0
   -1.3804   -3.4010   28.9792 C   0  0  0  0  0  0  0  0  0  0  0  0
   -1.3928   -2.0982   28.1271 C   0  0  0  0  0  0  0  0  0  0  0  0
    0.0766   -3.7474   29.4318 C   0  0  0  0  0  0  0  0  0  0  0  0
    0.9497   -2.8805   29.5259 O   0  0  0  0  0  0  0  0  0  0  0  0
    0.3291   -5.0398   29.6896 N   0  0  0  0  0  0  0  0  0  0  0  0
   -0.4055   -5.6901   29.6077 H   0  0  0  0  0  0  0  0  0  0  0  0
    1.6711   -5.5286   30.0931 C   0  0  0  0  0  0  0  0  0  0  0  0
    3.0766   -5.1406   28.1013 O   0  0  0  0  0  0  0  0  0  0  0  0
    2.4061   -5.9532   28.7598 C   0  0  0  0  0  0  0  0  0  0  0  0
    2.2792   -7.2403   28.4094 N   0  0  0  0  0  0  0  0  0  0  0  0
    1.7334   -7.8218   28.9866 H   0  0  0  0  0  0  0  0  0  0  0  0
    2.8991   -7.8405   27.2238 C   0  0  0  0  0  0  0  0  0  0  0  0
    1.9350   -8.9041   26.7068 C   0  0  0  0  0  0  0  0  0  0  0  0
    4.2300   -8.4603   27.6544 C   0  0  0  0  0  0  0  0  0  0  0  0
    1.5171   -6.6438   31.2003 C   0  0  0  0  0  0  0  0  0  0  0  0
    0.0336   -6.9588   31.4902 C   0  0  0  0  0  0  0  0  0  0  0  0
    2.1624   -6.3046   32.5686 C   0  0  0  0  0  0  0  0  0  0  0  0
   -4.4230   -5.6131   32.4879 C   0  0  0  0  0  0  0  0  0  0  0  0
   -3.7031   -6.9071   31.9632 C   0  0  0  0  0  0  0  0  0  0  0  0
   -3.3398   -7.8600   33.1096 C   0  0  0  0  0  0  0  0  0  0  0  0
   -4.5737   -7.6821   30.9705 C   0  0  0  0  0  0  0  0  0  0  0  0
 41 42  2  0  0  0
 17 22  2  0  0  0
 17 18  1  0  0  0
 18 19  2  0  0  0
 19 20  1  0  0  0
 20 21  2  0  0  0
 21 22  1  0  0  0
 22 15  1  0  0  0
 25 26  1  0  0  0
 11  7  1  0  0  0
 11 13  2  0  0  0
 11 12  1  0  0  0
  1  2  2  0  0  0
  1  6  1  0  0  0
  1  3  1  0  0  0
  5  8  1  0  0  0
  5  7  2  0  0  0
  6  9  1  0  0  0
  6 10  2  0  0  0
 36 37  2  0  0  0
 36 34  1  0  0  0
 36 38  1  0  0  0
 29  3  1  0  0  0
 29 30  1  0  0  0
 29 51  1  0  0  0
 30 33  1  0  0  0
 30 31  1  0  0  0
 51 52  1  0  0  0
 52 54  1  0  0  0
 52 53  1  0  0  0
 15 12  1  0  0  0
 15 16  1  0  0  0
  7 10  1  0  0  0
  8 23  1  0  0  0
  8  9  2  0  0  0
 23 24  1  0  0  0
 23 26  1  0  0  0
 26 27  2  0  0  0
 26 28  2  0  0  0
 33 34  1  0  0  0
 34 35  1  0  0  0
 38 40  1  0  0  0
 40 42  1  0  0  0
 40 48  1  0  0  0
 48 49  1  0  0  0
 48 50  1  0  0  0
 42 43  1  0  0  0
 43 45  1  0  0  0
 45 47  1  0  0  0
 45 46  1  0  0  0
 12 14  1  0  0  0
  3  4  1  0  0  0
 31 32  1  0  0  0
 38 39  1  0  0  0
 43 44  1  0  0  0
M  END
> <minimizedAffinity>
-9.91566

$$$$
2P4J_23I_A_501


 54 55  0  0  0  0  0  0  0  0999 V2000
   -5.5398   -2.8739   31.9051 C   0  0  0  0  0  0  0  0  0  0  0  0
   -5.6059   -3.1872   33.1108 O   0  0  0  0  0  0  0  0  0  0  0  0
   -6.5040   -2.1505   31.2994 N   0  0  0  0  0  0  0  0  0  0  0  0
   -6.3782   -1.9485   30.3440 H   0  0  0  0  0  0  0  0  0  0  0  0
   -2.1232   -3.8124   29.4266 C   0  0  0  0  0  0  0  0  0  0  0  0
   -4.3702   -3.2215   31.0475 C   0  0  0  0  0  0  0  0  0  0  0  0
   -2.6881   -2.5118   29.3910 C   0  0  0  0  0  0  0  0  0  0  0  0
   -2.6668   -4.8399   30.2652 C   0  0  0  0  0  0  0  0  0  0  0  0
   -3.8007   -4.5066   31.0730 C   0  0  0  0  0  0  0  0  0  0  0  0
   -3.7924   -2.2592   30.2029 C   0  0  0  0  0  0  0  0  0  0  0  0
   -2.1117   -1.4408   28.5222 C   0  0  0  0  0  0  0  0  0  0  0  0
   -1.4196   -1.8531   27.4437 N   0  0  0  0  0  0  0  0  0  0  0  0
   -2.2777   -0.2339   28.7662 O   0  0  0  0  0  0  0  0  0  0  0  0
   -1.3288   -2.8230   27.3012 H   0  0  0  0  0  0  0  0  0  0  0  0
   -0.7940   -0.9618   26.4701 C   0  0  0  0  0  0  0  0  0  0  0  0
   -1.7040   -1.0195   25.2282 C   0  0  0  0  0  0  0  0  0  0  0  0
    1.4491   -1.8957   27.2696 C   0  0  0  0  0  0  0  0  0  0  0  0
    2.8037   -2.2489   27.0753 C   0  0  0  0  0  0  0  0  0  0  0  0
    3.4067   -2.0419   25.8113 C   0  0  0  0  0  0  0  0  0  0  0  0
    2.6554   -1.4832   24.7420 C   0  0  0  0  0  0  0  0  0  0  0  0
    1.2981   -1.1305   24.9357 C   0  0  0  0  0  0  0  0  0  0  0  0
    0.6821   -1.3320   26.2033 C   0  0  0  0  0  0  0  0  0  0  0  0
   -2.0512   -6.1867   30.3096 N   0  0  0  0  0  0  0  0  0  0  0  0
   -0.5555   -6.3059   30.3678 C   0  0  0  0  0  0  0  0  0  0  0  0
   -1.8816   -8.8183   31.4909 C   0  0  0  0  0  0  0  0  0  0  0  0
   -2.7789   -7.2862   31.4975 S   0  0  0  0  0  0  0  0  0  0  0  0
   -2.6399   -6.6957   32.9495 O   0  0  0  0  0  0  0  0  0  0  0  0
   -4.3170   -7.5502   31.2958 O   0  0  0  0  0  0  0  0  0  0  0  0
   -7.7265   -1.6360   31.9363 C   0  0  0  0  0  0  0  0  0  0  0  0
   -8.9999   -1.8343   31.0680 C   0  0  0  0  0  0  0  0  0  0  0  0
   -9.8800   -2.7737   31.6547 O   0  0  0  0  0  0  0  0  0  0  0  0
  -10.1845   -2.4395   32.5128 H   0  0  0  0  0  0  0  0  0  0  0  0
   -9.7996   -0.5280   30.9014 C   0  0  0  0  0  0  0  0  0  0  0  0
  -10.8191   -0.5228   29.7545 C   0  0  0  0  0  0  0  0  0  0  0  0
  -10.1464   -1.1239   28.4858 C   0  0  0  0  0  0  0  0  0  0  0  0
  -12.1109   -1.3247   30.1233 C   0  0  0  0  0  0  0  0  0  0  0  0
  -12.7130   -2.0043   29.2877 O   0  0  0  0  0  0  0  0  0  0  0  0
  -12.5393   -1.2145   31.3901 N   0  0  0  0  0  0  0  0  0  0  0  0
  -12.0169   -0.6665   32.0194 H   0  0  0  0  0  0  0  0  0  0  0  0
  -13.7687   -1.8855   31.8810 C   0  0  0  0  0  0  0  0  0  0  0  0
  -16.1063   -1.1008   31.9961 O   0  0  0  0  0  0  0  0  0  0  0  0
  -14.9117   -0.7943   31.8462 C   0  0  0  0  0  0  0  0  0  0  0  0
  -14.5042    0.4704   31.6733 N   0  0  0  0  0  0  0  0  0  0  0  0
  -13.5390    0.6314   31.5653 H   0  0  0  0  0  0  0  0  0  0  0  0
  -15.4000    1.6307   31.6341 C   0  0  0  0  0  0  0  0  0  0  0  0
  -14.7212    2.6889   30.7695 C   0  0  0  0  0  0  0  0  0  0  0  0
  -15.5890    2.1249   33.0697 C   0  0  0  0  0  0  0  0  0  0  0  0
  -13.4804   -2.5615   33.2786 C   0  0  0  0  0  0  0  0  0  0  0  0
  -12.3553   -1.8318   34.0440 C   0  0  0  0  0  0  0  0  0  0  0  0
  -13.0618   -4.0530   33.2130 C   0  0  0  0  0  0  0  0  0  0  0  0
   -7.4166   -0.1360   32.2901 C   0  0  0  0  0  0  0  0  0  0  0  0
   -6.4557    0.6322   31.3132 C   0  0  0  0  0  0  0  0  0  0  0  0
   -7.0949    1.9235   30.7858 C   0  0  0  0  0  0  0  0  0  0  0  0
   -5.1348    1.0081   31.9899 C   0  0  0  0  0  0  0  0  0  0  0  0
 41 42  2  0  0  0
 17 22  2  0  0  0
 17 18  1  0  0  0
 18 19  2  0  0  0
 19 20  1  0  0  0
 20 21  2  0  0  0
 21 22  1  0  0  0
 22 15  1  0  0  0
 25 26  1  0  0  0
 11  7  1  0  0  0
 11 13  2  0  0  0
 11 12  1  0  0  0
  1  2  2  0  0  0
  1  6  1  0  0  0
  1  3  1  0  0  0
  5  8  1  0  0  0
  5  7  2  0  0  0
  6  9  1  0  0  0
  6 10  2  0  0  0
 36 37  2  0  0  0
 36 34  1  0  0  0
 36 38  1  0  0  0
 29  3  1  0  0  0
 29 30  1  0  0  0
 29 51  1  0  0  0
 30 33  1  0  0  0
 30 31  1  0  0  0
 51 52  1  0  0  0
 52 54  1  0  0  0
 52 53  1  0  0  0
 15 12  1  0  0  0
 15 16  1  0  0  0
  7 10  1  0  0  0
  8 23  1  0  0  0
  8  9  2  0  0  0
 23 24  1  0  0  0
 23 26  1  0  0  0
 26 27  2  0  0  0
 26 28  2  0  0  0
 33 34  1  0  0  0
 34 35  1  0  0  0
 38 40  1  0  0  0
 40 42  1  0  0  0
 40 48  1  0  0  0
 48 49  1  0  0  0
 48 50  1  0  0  0
 42 43  1  0  0  0
 43 45  1  0  0  0
 45 47  1  0  0  0
 45 46  1  0  0  0
 12 14  1  0  0  0
  3  4  1  0  0  0
 31 32  1  0  0  0
 38 39  1  0  0  0
 43 44  1  0  0  0
M  END
> <minimizedAffinity>
-9.67251

$$$$
2P4J_23I_A_501


 54 55  0  0  0  0  0  0  0  0999 V2000
   -2.5302   -2.5827   29.4541 C   0  0  0  0  0  0  0  0  0  0  0  0
   -3.1941   -1.5461   29.2522 O   0  0  0  0  0  0  0  0  0  0  0  0
   -3.0445   -3.6471   30.1041 N   0  0  0  0  0  0  0  0  0  0  0  0
   -2.4538   -4.4252   30.2259 H   0  0  0  0  0  0  0  0  0  0  0  0
    1.5030   -3.1586   28.0055 C   0  0  0  0  0  0  0  0  0  0  0  0
   -1.1377   -2.7562   28.9493 C   0  0  0  0  0  0  0  0  0  0  0  0
    1.0190   -3.9429   29.0838 C   0  0  0  0  0  0  0  0  0  0  0  0
    0.6845   -2.1611   27.3814 C   0  0  0  0  0  0  0  0  0  0  0  0
   -0.6453   -1.9857   27.8814 C   0  0  0  0  0  0  0  0  0  0  0  0
   -0.2854   -3.7162   29.5196 C   0  0  0  0  0  0  0  0  0  0  0  0
    1.8729   -4.9886   29.7251 C   0  0  0  0  0  0  0  0  0  0  0  0
    1.8786   -5.0137   31.0712 N   0  0  0  0  0  0  0  0  0  0  0  0
    2.5271   -5.8063   29.0566 O   0  0  0  0  0  0  0  0  0  0  0  0
    1.3341   -4.3434   31.5439 H   0  0  0  0  0  0  0  0  0  0  0  0
    2.6362   -5.9660   31.8790 C   0  0  0  0  0  0  0  0  0  0  0  0
    1.5745   -6.7821   32.6410 C   0  0  0  0  0  0  0  0  0  0  0  0
    3.2174   -4.5135   33.9027 C   0  0  0  0  0  0  0  0  0  0  0  0
    4.1326   -3.8554   34.7552 C   0  0  0  0  0  0  0  0  0  0  0  0
    5.5210   -3.9445   34.4939 C   0  0  0  0  0  0  0  0  0  0  0  0
    5.9941   -4.6922   33.3817 C   0  0  0  0  0  0  0  0  0  0  0  0
    5.0780   -5.3527   32.5282 C   0  0  0  0  0  0  0  0  0  0  0  0
    3.6793   -5.2679   32.7800 C   0  0  0  0  0  0  0  0  0  0  0  0
    1.1957   -1.3664   26.2405 N   0  0  0  0  0  0  0  0  0  0  0  0
    2.5035   -1.7493   25.6098 C   0  0  0  0  0  0  0  0  0  0  0  0
    0.7037   -1.4613   23.3947 C   0  0  0  0  0  0  0  0  0  0  0  0
   -0.0036   -1.0515   24.9708 S   0  0  0  0  0  0  0  0  0  0  0  0
   -1.2552   -1.9876   25.1535 O   0  0  0  0  0  0  0  0  0  0  0  0
   -0.5739    0.4150   24.9517 O   0  0  0  0  0  0  0  0  0  0  0  0
   -4.4079   -3.7511   30.6476 C   0  0  0  0  0  0  0  0  0  0  0  0
   -4.5751   -3.0462   32.0224 C   0  0  0  0  0  0  0  0  0  0  0  0
   -3.3274   -2.8758   32.6670 O   0  0  0  0  0  0  0  0  0  0  0  0
   -2.7628   -2.2974   32.1309 H   0  0  0  0  0  0  0  0  0  0  0  0
   -5.1934   -1.6418   31.8845 C   0  0  0  0  0  0  0  0  0  0  0  0
   -6.4461   -1.3885   32.7339 C   0  0  0  0  0  0  0  0  0  0  0  0
   -6.6400    0.1480   32.8916 C   0  0  0  0  0  0  0  0  0  0  0  0
   -7.7187   -2.0403   32.0990 C   0  0  0  0  0  0  0  0  0  0  0  0
   -7.7192   -2.4686   30.9417 O   0  0  0  0  0  0  0  0  0  0  0  0
   -8.8136   -2.0873   32.8733 N   0  0  0  0  0  0  0  0  0  0  0  0
   -8.7572   -1.7397   33.7927 H   0  0  0  0  0  0  0  0  0  0  0  0
  -10.1062   -2.6420   32.3999 C   0  0  0  0  0  0  0  0  0  0  0  0
  -10.2650   -0.4134   31.3502 O   0  0  0  0  0  0  0  0  0  0  0  0
  -10.7065   -1.5736   31.4016 C   0  0  0  0  0  0  0  0  0  0  0  0
  -11.6933   -2.0093   30.6067 N   0  0  0  0  0  0  0  0  0  0  0  0
  -11.9846   -2.9444   30.7065 H   0  0  0  0  0  0  0  0  0  0  0  0
  -12.3684   -1.1862   29.5982 C   0  0  0  0  0  0  0  0  0  0  0  0
  -13.7349   -0.8159   30.1670 C   0  0  0  0  0  0  0  0  0  0  0  0
  -12.5058   -2.0243   28.3256 C   0  0  0  0  0  0  0  0  0  0  0  0
  -11.0019   -3.0298   33.6411 C   0  0  0  0  0  0  0  0  0  0  0  0
  -12.0217   -4.1334   33.2860 C   0  0  0  0  0  0  0  0  0  0  0  0
  -11.8218   -1.8631   34.2497 C   0  0  0  0  0  0  0  0  0  0  0  0
   -4.7356   -5.2884   30.6691 C   0  0  0  0  0  0  0  0  0  0  0  0
   -3.7490   -6.2058   31.4771 C   0  0  0  0  0  0  0  0  0  0  0  0
   -4.4992   -7.2612   32.3002 C   0  0  0  0  0  0  0  0  0  0  0  0
   -2.7700   -6.9407   30.5574 C   0  0  0  0  0  0  0  0  0  0  0  0
 41 42  2  0  0  0
 17 22  2  0  0  0
 17 18  1  0  0  0
 18 19  2  0  0  0
 19 20  1  0  0  0
 20 21  2  0  0  0
 21 22  1  0  0  0
 22 15  1  0  0  0
 25 26  1  0  0  0
 11  7  1  0  0  0
 11 13  2  0  0  0
 11 12  1  0  0  0
  1  2  2  0  0  0
  1  6  1  0  0  0
  1  3  1  0  0  0
  5  8  1  0  0  0
  5  7  2  0  0  0
  6  9  1  0  0  0
  6 10  2  0  0  0
 36 37  2  0  0  0
 36 34  1  0  0  0
 36 38  1  0  0  0
 29  3  1  0  0  0
 29 30  1  0  0  0
 29 51  1  0  0  0
 30 33  1  0  0  0
 30 31  1  0  0  0
 51 52  1  0  0  0
 52 54  1  0  0  0
 52 53  1  0  0  0
 15 12  1  0  0  0
 15 16  1  0  0  0
  7 10  1  0  0  0
  8 23  1  0  0  0
  8  9  2  0  0  0
 23 24  1  0  0  0
 23 26  1  0  0  0
 26 27  2  0  0  0
 26 28  2  0  0  0
 33 34  1  0  0  0
 34 35  1  0  0  0
 38 40  1  0  0  0
 40 42  1  0  0  0
 40 48  1  0  0  0
 48 49  1  0  0  0
 48 50  1  0  0  0
 42 43  1  0  0  0
 43 45  1  0  0  0
 45 47  1  0  0  0
 45 46  1  0  0  0
 12 14  1  0  0  0
  3  4  1  0  0  0
 31 32  1  0  0  0
 38 39  1  0  0  0
 43 44  1  0  0  0
M  END
> <minimizedAffinity>
-9.59553

$$$$
2P4J_23I_A_501


 54 55  0  0  0  0  0  0  0  0999 V2000
   -5.5973   -3.2466   32.5200 C   0  0  0  0  0  0  0  0  0  0  0  0
   -5.2910   -3.7644   33.6128 O   0  0  0  0  0  0  0  0  0  0  0  0
   -4.9130   -3.5077   31.3871 N   0  0  0  0  0  0  0  0  0  0  0  0
   -5.2163   -3.0555   30.5669 H   0  0  0  0  0  0  0  0  0  0  0  0
   -9.0355   -0.6552   32.1196 C   0  0  0  0  0  0  0  0  0  0  0  0
   -6.7731   -2.3432   32.3603 C   0  0  0  0  0  0  0  0  0  0  0  0
   -9.1858   -1.9498   32.6795 C   0  0  0  0  0  0  0  0  0  0  0  0
   -7.7606   -0.1801   31.6684 C   0  0  0  0  0  0  0  0  0  0  0  0
   -6.6383   -1.0578   31.8071 C   0  0  0  0  0  0  0  0  0  0  0  0
   -8.0497   -2.7507   32.7818 C   0  0  0  0  0  0  0  0  0  0  0  0
  -10.5154   -2.4371   33.1576 C   0  0  0  0  0  0  0  0  0  0  0  0
  -11.5897   -2.0291   32.4563 N   0  0  0  0  0  0  0  0  0  0  0  0
  -10.6266   -3.1950   34.1358 O   0  0  0  0  0  0  0  0  0  0  0  0
  -11.4355   -1.4343   31.6871 H   0  0  0  0  0  0  0  0  0  0  0  0
  -12.9681   -2.4075   32.7570 C   0  0  0  0  0  0  0  0  0  0  0  0
  -13.1432   -3.8107   32.1453 C   0  0  0  0  0  0  0  0  0  0  0  0
  -14.9357   -0.8302   33.1854 C   0  0  0  0  0  0  0  0  0  0  0  0
  -15.8868    0.1316   32.7758 C   0  0  0  0  0  0  0  0  0  0  0  0
  -15.8975    0.5775   31.4323 C   0  0  0  0  0  0  0  0  0  0  0  0
  -14.9568    0.0631   30.4993 C   0  0  0  0  0  0  0  0  0  0  0  0
  -14.0030   -0.8993   30.9093 C   0  0  0  0  0  0  0  0  0  0  0  0
  -13.9846   -1.3568   32.2573 C   0  0  0  0  0  0  0  0  0  0  0  0
   -7.6149    1.1834   31.1079 N   0  0  0  0  0  0  0  0  0  0  0  0
   -6.2389    1.7186   30.8340 C   0  0  0  0  0  0  0  0  0  0  0  0
  -10.1105    0.4914   29.8261 C   0  0  0  0  0  0  0  0  0  0  0  0
   -8.6683    1.5217   29.7203 S   0  0  0  0  0  0  0  0  0  0  0  0
   -9.1798    3.0090   29.7690 O   0  0  0  0  0  0  0  0  0  0  0  0
   -7.9798    1.3590   28.3148 O   0  0  0  0  0  0  0  0  0  0  0  0
   -3.7545   -4.4066   31.2656 C   0  0  0  0  0  0  0  0  0  0  0  0
   -2.7380   -3.9531   30.1811 C   0  0  0  0  0  0  0  0  0  0  0  0
   -1.7517   -3.0986   30.7273 O   0  0  0  0  0  0  0  0  0  0  0  0
   -1.2403   -3.5808   31.3957 H   0  0  0  0  0  0  0  0  0  0  0  0
   -1.9884   -5.1434   29.5526 C   0  0  0  0  0  0  0  0  0  0  0  0
   -0.7302   -5.5989   30.3037 C   0  0  0  0  0  0  0  0  0  0  0  0
   -0.4058   -7.0646   29.8914 C   0  0  0  0  0  0  0  0  0  0  0  0
    0.4896   -4.6636   30.0122 C   0  0  0  0  0  0  0  0  0  0  0  0
    1.2532   -4.2953   30.9088 O   0  0  0  0  0  0  0  0  0  0  0  0
    0.6458   -4.2671   28.7398 N   0  0  0  0  0  0  0  0  0  0  0  0
    0.0136   -4.5972   28.0612 H   0  0  0  0  0  0  0  0  0  0  0  0
    1.7331   -3.3509   28.3142 C   0  0  0  0  0  0  0  0  0  0  0  0
    1.6617   -0.8839   28.3641 O   0  0  0  0  0  0  0  0  0  0  0  0
    1.0600   -1.9374   28.0963 C   0  0  0  0  0  0  0  0  0  0  0  0
   -0.1780   -1.9547   27.5839 N   0  0  0  0  0  0  0  0  0  0  0  0
   -0.5850   -2.8311   27.3955 H   0  0  0  0  0  0  0  0  0  0  0  0
   -0.9671   -0.7554   27.2850 C   0  0  0  0  0  0  0  0  0  0  0  0
   -2.1331   -0.7324   28.2688 C   0  0  0  0  0  0  0  0  0  0  0  0
   -1.4613   -0.8680   25.8414 C   0  0  0  0  0  0  0  0  0  0  0  0
    2.4919   -3.9699   27.0755 C   0  0  0  0  0  0  0  0  0  0  0  0
    3.1721   -5.3089   27.4342 C   0  0  0  0  0  0  0  0  0  0  0  0
    3.5998   -3.0714   26.4679 C   0  0  0  0  0  0  0  0  0  0  0  0
   -4.3569   -5.8383   31.0239 C   0  0  0  0  0  0  0  0  0  0  0  0
   -4.0729   -6.9161   32.1309 C   0  0  0  0  0  0  0  0  0  0  0  0
   -3.4342   -8.1809   31.5424 C   0  0  0  0  0  0  0  0  0  0  0  0
   -3.1368   -6.3838   33.2193 C   0  0  0  0  0  0  0  0  0  0  0  0
 41 42  2  0  0  0
 17 22  2  0  0  0
 17 18  1  0  0  0
 18 19  2  0  0  0
 19 20  1  0  0  0
 20 21  2  0  0  0
 21 22  1  0  0  0
 22 15  1  0  0  0
 25 26  1  0  0  0
 11  7  1  0  0  0
 11 13  2  0  0  0
 11 12  1  0  0  0
  1  2  2  0  0  0
  1  6  1  0  0  0
  1  3  1  0  0  0
  5  8  1  0  0  0
  5  7  2  0  0  0
  6  9  1  0  0  0
  6 10  2  0  0  0
 36 37  2  0  0  0
 36 34  1  0  0  0
 36 38  1  0  0  0
 29  3  1  0  0  0
 29 30  1  0  0  0
 29 51  1  0  0  0
 30 33  1  0  0  0
 30 31  1  0  0  0
 51 52  1  0  0  0
 52 54  1  0  0  0
 52 53  1  0  0  0
 15 12  1  0  0  0
 15 16  1  0  0  0
  7 10  1  0  0  0
  8 23  1  0  0  0
  8  9  2  0  0  0
 23 24  1  0  0  0
 23 26  1  0  0  0
 26 27  2  0  0  0
 26 28  2  0  0  0
 33 34  1  0  0  0
 34 35  1  0  0  0
 38 40  1  0  0  0
 40 42  1  0  0  0
 40 48  1  0  0  0
 48 49  1  0  0  0
 48 50  1  0  0  0
 42 43  1  0  0  0
 43 45  1  0  0  0
 45 47  1  0  0  0
 45 46  1  0  0  0
 12 14  1  0  0  0
  3  4  1  0  0  0
 31 32  1  0  0  0
 38 39  1  0  0  0
 43 44  1  0  0  0
M  END
> <minimizedAffinity>
-9.52070

$$$$
2P4J_23I_A_501


 54 55  0  0  0  0  0  0  0  0999 V2000
   -5.8805   -2.6392   32.1242 C   0  0  0  0  0  0  0  0  0  0  0  0
   -5.9162   -2.8634   33.3508 O   0  0  0  0  0  0  0  0  0  0  0  0
   -6.8262   -1.9047   31.5028 N   0  0  0  0  0  0  0  0  0  0  0  0
   -6.7273   -1.7773   30.5316 H   0  0  0  0  0  0  0  0  0  0  0  0
   -2.6175   -3.9490   29.6075 C   0  0  0  0  0  0  0  0  0  0  0  0
   -4.7671   -3.1134   31.2526 C   0  0  0  0  0  0  0  0  0  0  0  0
   -3.0017   -2.5836   29.6155 C   0  0  0  0  0  0  0  0  0  0  0  0
   -3.2962   -4.9205   30.4138 C   0  0  0  0  0  0  0  0  0  0  0  0
   -4.3761   -4.4637   31.2349 C   0  0  0  0  0  0  0  0  0  0  0  0
   -4.0633   -2.2108   30.4381 C   0  0  0  0  0  0  0  0  0  0  0  0
   -2.2847   -1.5725   28.7804 C   0  0  0  0  0  0  0  0  0  0  0  0
   -1.4396   -2.0555   27.8503 N   0  0  0  0  0  0  0  0  0  0  0  0
   -2.4710   -0.3520   28.9188 O   0  0  0  0  0  0  0  0  0  0  0  0
   -1.3402   -3.0328   27.7853 H   0  0  0  0  0  0  0  0  0  0  0  0
   -0.6600   -1.2306   26.9308 C   0  0  0  0  0  0  0  0  0  0  0  0
   -1.5174   -1.1292   25.6548 C   0  0  0  0  0  0  0  0  0  0  0  0
    1.5390   -1.2713   25.6248 C   0  0  0  0  0  0  0  0  0  0  0  0
    2.8447   -1.7524   25.3782 C   0  0  0  0  0  0  0  0  0  0  0  0
    3.3888   -2.7590   26.2117 C   0  0  0  0  0  0  0  0  0  0  0  0
    2.6283   -3.2832   27.2919 C   0  0  0  0  0  0  0  0  0  0  0  0
    1.3208   -2.8007   27.5402 C   0  0  0  0  0  0  0  0  0  0  0  0
    0.7626   -1.7903   26.7069 C   0  0  0  0  0  0  0  0  0  0  0  0
   -2.8681   -6.3387   30.4129 N   0  0  0  0  0  0  0  0  0  0  0  0
   -1.5409   -6.7019   29.8115 C   0  0  0  0  0  0  0  0  0  0  0  0
   -1.9263   -8.5304   32.0435 C   0  0  0  0  0  0  0  0  0  0  0  0
   -3.0552   -7.1616   31.9740 S   0  0  0  0  0  0  0  0  0  0  0  0
   -2.6590   -6.1982   33.1535 O   0  0  0  0  0  0  0  0  0  0  0  0
   -4.5191   -7.6409   32.2954 O   0  0  0  0  0  0  0  0  0  0  0  0
   -7.9919   -1.2766   32.1442 C   0  0  0  0  0  0  0  0  0  0  0  0
   -9.1434   -2.2779   32.4380 C   0  0  0  0  0  0  0  0  0  0  0  0
   -8.9007   -3.0049   33.6270 O   0  0  0  0  0  0  0  0  0  0  0  0
   -8.8723   -2.3936   34.3796 H   0  0  0  0  0  0  0  0  0  0  0  0
  -10.4977   -1.5680   32.6261 C   0  0  0  0  0  0  0  0  0  0  0  0
  -11.6251   -2.4416   33.1923 C   0  0  0  0  0  0  0  0  0  0  0  0
  -11.8973   -2.0134   34.6640 C   0  0  0  0  0  0  0  0  0  0  0  0
  -12.9305   -2.3297   32.3374 C   0  0  0  0  0  0  0  0  0  0  0  0
  -13.5388   -3.3305   31.9485 O   0  0  0  0  0  0  0  0  0  0  0  0
  -13.3385   -1.0883   32.0323 N   0  0  0  0  0  0  0  0  0  0  0  0
  -12.8218   -0.3237   32.3752 H   0  0  0  0  0  0  0  0  0  0  0  0
  -14.5371   -0.8214   31.1987 C   0  0  0  0  0  0  0  0  0  0  0  0
  -14.8025    0.3152   29.0236 O   0  0  0  0  0  0  0  0  0  0  0  0
  -14.0247   -0.0354   29.9267 C   0  0  0  0  0  0  0  0  0  0  0  0
  -12.7148    0.2460   29.9047 N   0  0  0  0  0  0  0  0  0  0  0  0
  -12.1656   -0.0638   30.6608 H   0  0  0  0  0  0  0  0  0  0  0  0
  -12.0447    0.9846   28.8296 C   0  0  0  0  0  0  0  0  0  0  0  0
  -10.9656    0.0664   28.2635 C   0  0  0  0  0  0  0  0  0  0  0  0
  -11.4343    2.2480   29.4395 C   0  0  0  0  0  0  0  0  0  0  0  0
  -15.6409   -0.1068   32.0728 C   0  0  0  0  0  0  0  0  0  0  0  0
  -15.2332    1.3371   32.4377 C   0  0  0  0  0  0  0  0  0  0  0  0
  -15.9772   -0.8125   33.4118 C   0  0  0  0  0  0  0  0  0  0  0  0
   -8.3996   -0.0862   31.2019 C   0  0  0  0  0  0  0  0  0  0  0  0
   -7.6166    1.2621   31.3944 C   0  0  0  0  0  0  0  0  0  0  0  0
   -6.1130    1.0240   31.5860 C   0  0  0  0  0  0  0  0  0  0  0  0
   -7.7917    2.2000   30.1969 C   0  0  0  0  0  0  0  0  0  0  0  0
 41 42  2  0  0  0
 17 22  2  0  0  0
 17 18  1  0  0  0
 18 19  2  0  0  0
 19 20  1  0  0  0
 20 21  2  0  0  0
 21 22  1  0  0  0
 22 15  1  0  0  0
 25 26  1  0  0  0
 11  7  1  0  0  0
 11 13  2  0  0  0
 11 12  1  0  0  0
  1  2  2  0  0  0
  1  6  1  0  0  0
  1  3  1  0  0  0
  5  8  1  0  0  0
  5  7  2  0  0  0
  6  9  1  0  0  0
  6 10  2  0  0  0
 36 37  2  0  0  0
 36 34  1  0  0  0
 36 38  1  0  0  0
 29  3  1  0  0  0
 29 30  1  0  0  0
 29 51  1  0  0  0
 30 33  1  0  0  0
 30 31  1  0  0  0
 51 52  1  0  0  0
 52 54  1  0  0  0
 52 53  1  0  0  0
 15 12  1  0  0  0
 15 16  1  0  0  0
  7 10  1  0  0  0
  8 23  1  0  0  0
  8  9  2  0  0  0
 23 24  1  0  0  0
 23 26  1  0  0  0
 26 27  2  0  0  0
 26 28  2  0  0  0
 33 34  1  0  0  0
 34 35  1  0  0  0
 38 40  1  0  0  0
 40 42  1  0  0  0
 40 48  1  0  0  0
 48 49  1  0  0  0
 48 50  1  0  0  0
 42 43  1  0  0  0
 43 45  1  0  0  0
 45 47  1  0  0  0
 45 46  1  0  0  0
 12 14  1  0  0  0
  3  4  1  0  0  0
 31 32  1  0  0  0
 38 39  1  0  0  0
 43 44  1  0  0  0
M  END
> <minimizedAffinity>
-9.49720

$$$$
2P4J_23I_A_501


 54 55  0  0  0  0  0  0  0  0999 V2000
   -0.1814   -3.2483   28.9776 C   0  0  0  0  0  0  0  0  0  0  0  0
    0.0362   -2.8825   30.1502 O   0  0  0  0  0  0  0  0  0  0  0  0
   -1.2489   -4.0054   28.6501 N   0  0  0  0  0  0  0  0  0  0  0  0
   -1.3468   -4.2549   27.7028 H   0  0  0  0  0  0  0  0  0  0  0  0
    2.3478   -2.1264   25.6548 C   0  0  0  0  0  0  0  0  0  0  0  0
    0.6830   -2.8371   27.8340 C   0  0  0  0  0  0  0  0  0  0  0  0
    2.7584   -3.1543   26.5419 C   0  0  0  0  0  0  0  0  0  0  0  0
    1.1060   -1.4342   25.8376 C   0  0  0  0  0  0  0  0  0  0  0  0
    0.2882   -1.8201   26.9473 C   0  0  0  0  0  0  0  0  0  0  0  0
    1.9123   -3.4760   27.6018 C   0  0  0  0  0  0  0  0  0  0  0  0
    4.0496   -3.8800   26.3416 C   0  0  0  0  0  0  0  0  0  0  0  0
    4.7968   -4.0866   27.4422 N   0  0  0  0  0  0  0  0  0  0  0  0
    4.4082   -4.2910   25.2254 O   0  0  0  0  0  0  0  0  0  0  0  0
    4.4551   -3.7423   28.2990 H   0  0  0  0  0  0  0  0  0  0  0  0
    6.0792   -4.7859   27.4539 C   0  0  0  0  0  0  0  0  0  0  0  0
    6.1137   -5.5414   28.7962 C   0  0  0  0  0  0  0  0  0  0  0  0
    8.5939   -4.3642   27.2508 C   0  0  0  0  0  0  0  0  0  0  0  0
    9.7149   -3.5277   27.0483 C   0  0  0  0  0  0  0  0  0  0  0  0
    9.5234   -2.1442   26.8173 C   0  0  0  0  0  0  0  0  0  0  0  0
    8.2118   -1.5978   26.7875 C   0  0  0  0  0  0  0  0  0  0  0  0
    7.0884   -2.4353   26.9890 C   0  0  0  0  0  0  0  0  0  0  0  0
    7.2693   -3.8277   27.2246 C   0  0  0  0  0  0  0  0  0  0  0  0
    0.6795   -0.3794   24.8889 N   0  0  0  0  0  0  0  0  0  0  0  0
    1.6741    0.1646   23.9041 C   0  0  0  0  0  0  0  0  0  0  0  0
   -0.9372    0.2682   22.5832 C   0  0  0  0  0  0  0  0  0  0  0  0
   -0.8519   -0.7168   24.0579 S   0  0  0  0  0  0  0  0  0  0  0  0
   -0.9048   -2.2192   23.5928 O   0  0  0  0  0  0  0  0  0  0  0  0
   -2.1398   -0.5024   24.9362 O   0  0  0  0  0  0  0  0  0  0  0  0
   -2.2803   -4.4922   29.5797 C   0  0  0  0  0  0  0  0  0  0  0  0
   -2.9733   -3.3528   30.3776 C   0  0  0  0  0  0  0  0  0  0  0  0
   -2.8049   -2.1023   29.7379 O   0  0  0  0  0  0  0  0  0  0  0  0
   -3.2321   -2.1243   28.8673 H   0  0  0  0  0  0  0  0  0  0  0  0
   -4.4917   -3.5766   30.5114 C   0  0  0  0  0  0  0  0  0  0  0  0
   -4.9772   -3.9719   31.9125 C   0  0  0  0  0  0  0  0  0  0  0  0
   -3.7363   -4.2197   32.8192 C   0  0  0  0  0  0  0  0  0  0  0  0
   -5.9029   -2.8757   32.5361 C   0  0  0  0  0  0  0  0  0  0  0  0
   -6.0816   -2.7941   33.7543 O   0  0  0  0  0  0  0  0  0  0  0  0
   -6.5080   -2.0452   31.6730 N   0  0  0  0  0  0  0  0  0  0  0  0
   -6.3242   -2.1476   30.7113 H   0  0  0  0  0  0  0  0  0  0  0  0
   -7.4431   -0.9787   32.1097 C   0  0  0  0  0  0  0  0  0  0  0  0
   -9.3856   -1.7883   30.8194 O   0  0  0  0  0  0  0  0  0  0  0  0
   -8.8988   -1.5712   31.9417 C   0  0  0  0  0  0  0  0  0  0  0  0
   -9.5513   -1.8444   33.0797 N   0  0  0  0  0  0  0  0  0  0  0  0
   -9.0952   -1.6467   33.9295 H   0  0  0  0  0  0  0  0  0  0  0  0
  -10.8992   -2.4183   33.1439 C   0  0  0  0  0  0  0  0  0  0  0  0
  -11.5627   -1.8585   34.3987 C   0  0  0  0  0  0  0  0  0  0  0  0
  -10.7570   -3.9396   33.2231 C   0  0  0  0  0  0  0  0  0  0  0  0
   -7.1287    0.3547   31.3245 C   0  0  0  0  0  0  0  0  0  0  0  0
   -5.7447    0.9259   31.7017 C   0  0  0  0  0  0  0  0  0  0  0  0
   -8.1458    1.5035   31.5472 C   0  0  0  0  0  0  0  0  0  0  0  0
   -1.5634   -5.5634   30.4795 C   0  0  0  0  0  0  0  0  0  0  0  0
   -2.1637   -7.0149   30.4572 C   0  0  0  0  0  0  0  0  0  0  0  0
   -1.5126   -7.8828   29.3724 C   0  0  0  0  0  0  0  0  0  0  0  0
   -1.9803   -7.7294   31.7988 C   0  0  0  0  0  0  0  0  0  0  0  0
 41 42  2  0  0  0
 17 22  2  0  0  0
 17 18  1  0  0  0
 18 19  2  0  0  0
 19 20  1  0  0  0
 20 21  2  0  0  0
 21 22  1  0  0  0
 22 15  1  0  0  0
 25 26  1  0  0  0
 11  7  1  0  0  0
 11 13  2  0  0  0
 11 12  1  0  0  0
  1  2  2  0  0  0
  1  6  1  0  0  0
  1  3  1  0  0  0
  5  8  1  0  0  0
  5  7  2  0  0  0
  6  9  1  0  0  0
  6 10  2  0  0  0
 36 37  2  0  0  0
 36 34  1  0  0  0
 36 38  1  0  0  0
 29  3  1  0  0  0
 29 30  1  0  0  0
 29 51  1  0  0  0
 30 33  1  0  0  0
 30 31  1  0  0  0
 51 52  1  0  0  0
 52 54  1  0  0  0
 52 53  1  0  0  0
 15 12  1  0  0  0
 15 16  1  0  0  0
  7 10  1  0  0  0
  8 23  1  0  0  0
  8  9  2  0  0  0
 23 24  1  0  0  0
 23 26  1  0  0  0
 26 27  2  0  0  0
 26 28  2  0  0  0
 33 34  1  0  0  0
 34 35  1  0  0  0
 38 40  1  0  0  0
 40 42  1  0  0  0
 40 48  1  0  0  0
 48 49  1  0  0  0
 48 50  1  0  0  0
 42 43  1  0  0  0
 43 45  1  0  0  0
 45 47  1  0  0  0
 45 46  1  0  0  0
 12 14  1  0  0  0
  3  4  1  0  0  0
 31 32  1  0  0  0
 38 39  1  0  0  0
 43 44  1  0  0  0
M  END
> <minimizedAffinity>
-9.26498

$$$$
2P4J_23I_A_501


 54 55  0  0  0  0  0  0  0  0999 V2000
   -2.0976   -2.0276   28.8810 C   0  0  0  0  0  0  0  0  0  0  0  0
   -2.2753   -0.7933   28.9113 O   0  0  0  0  0  0  0  0  0  0  0  0
   -1.1817   -2.5995   28.0723 N   0  0  0  0  0  0  0  0  0  0  0  0
   -1.1060   -3.5806   28.1054 H   0  0  0  0  0  0  0  0  0  0  0  0
   -4.3075   -4.7184   31.4448 C   0  0  0  0  0  0  0  0  0  0  0  0
   -2.8380   -2.9682   29.7705 C   0  0  0  0  0  0  0  0  0  0  0  0
   -4.6965   -3.3581   31.3426 C   0  0  0  0  0  0  0  0  0  0  0  0
   -3.1818   -5.2296   30.7196 C   0  0  0  0  0  0  0  0  0  0  0  0
   -2.4632   -4.3186   29.8811 C   0  0  0  0  0  0  0  0  0  0  0  0
   -3.9493   -2.5282   30.5086 C   0  0  0  0  0  0  0  0  0  0  0  0
   -5.8770   -2.8318   32.0932 C   0  0  0  0  0  0  0  0  0  0  0  0
   -6.6782   -1.9795   31.4269 N   0  0  0  0  0  0  0  0  0  0  0  0
   -6.1217   -3.1758   33.2617 O   0  0  0  0  0  0  0  0  0  0  0  0
   -6.4343   -1.7509   30.5008 H   0  0  0  0  0  0  0  0  0  0  0  0
   -7.8842   -1.3703   31.9820 C   0  0  0  0  0  0  0  0  0  0  0  0
   -8.9870   -2.4326   31.8118 C   0  0  0  0  0  0  0  0  0  0  0  0
   -7.2166    1.0294   31.4002 C   0  0  0  0  0  0  0  0  0  0  0  0
   -7.4602    2.2960   30.8227 C   0  0  0  0  0  0  0  0  0  0  0  0
   -8.6924    2.5428   30.1707 C   0  0  0  0  0  0  0  0  0  0  0  0
   -9.6796    1.5232   30.0950 C   0  0  0  0  0  0  0  0  0  0  0  0
   -9.4355    0.2537   30.6721 C   0  0  0  0  0  0  0  0  0  0  0  0
   -8.2010   -0.0047   31.3324 C   0  0  0  0  0  0  0  0  0  0  0  0
   -2.8021   -6.6582   30.8178 N   0  0  0  0  0  0  0  0  0  0  0  0
   -1.8995   -7.2488   29.7732 C   0  0  0  0  0  0  0  0  0  0  0  0
   -2.9050   -8.7731   32.7840 C   0  0  0  0  0  0  0  0  0  0  0  0
   -2.2515   -7.1610   32.4283 S   0  0  0  0  0  0  0  0  0  0  0  0
   -0.6844   -7.3009   32.4538 O   0  0  0  0  0  0  0  0  0  0  0  0
   -2.6037   -6.1579   33.5884 O   0  0  0  0  0  0  0  0  0  0  0  0
   -0.2855   -1.8908   27.1453 C   0  0  0  0  0  0  0  0  0  0  0  0
    1.0011   -1.3505   27.8293 C   0  0  0  0  0  0  0  0  0  0  0  0
    1.2249   -1.9836   29.0745 O   0  0  0  0  0  0  0  0  0  0  0  0
    1.3690   -2.9324   28.9335 H   0  0  0  0  0  0  0  0  0  0  0  0
    2.2607   -1.5989   26.9777 C   0  0  0  0  0  0  0  0  0  0  0  0
    2.3542   -2.9875   26.3313 C   0  0  0  0  0  0  0  0  0  0  0  0
    3.0709   -2.8508   24.9561 C   0  0  0  0  0  0  0  0  0  0  0  0
    3.1129   -4.0038   27.2474 C   0  0  0  0  0  0  0  0  0  0  0  0
    4.3402   -3.9735   27.3719 O   0  0  0  0  0  0  0  0  0  0  0  0
    2.3588   -4.9219   27.8710 N   0  0  0  0  0  0  0  0  0  0  0  0
    1.3828   -4.8965   27.7447 H   0  0  0  0  0  0  0  0  0  0  0  0
    2.9367   -5.9743   28.7435 C   0  0  0  0  0  0  0  0  0  0  0  0
    4.2890   -7.8469   27.8730 O   0  0  0  0  0  0  0  0  0  0  0  0
    3.2201   -7.2170   27.8087 C   0  0  0  0  0  0  0  0  0  0  0  0
    2.2290   -7.5549   26.9728 N   0  0  0  0  0  0  0  0  0  0  0  0
    1.4111   -7.0070   26.9847 H   0  0  0  0  0  0  0  0  0  0  0  0
    2.2811   -8.6863   26.0413 C   0  0  0  0  0  0  0  0  0  0  0  0
    1.9003   -8.1485   24.6651 C   0  0  0  0  0  0  0  0  0  0  0  0
    1.2784   -9.7363   26.5236 C   0  0  0  0  0  0  0  0  0  0  0  0
    1.9824   -6.2219   29.9769 C   0  0  0  0  0  0  0  0  0  0  0  0
    0.9925   -5.0537   30.1758 C   0  0  0  0  0  0  0  0  0  0  0  0
    2.7025   -6.4146   31.3364 C   0  0  0  0  0  0  0  0  0  0  0  0
   -1.1706   -0.7799   26.4718 C   0  0  0  0  0  0  0  0  0  0  0  0
   -1.4175   -0.9192   24.9267 C   0  0  0  0  0  0  0  0  0  0  0  0
   -0.1114   -1.1740   24.1629 C   0  0  0  0  0  0  0  0  0  0  0  0
   -2.3785   -2.0664   24.6031 C   0  0  0  0  0  0  0  0  0  0  0  0
 41 42  2  0  0  0
 17 22  2  0  0  0
 17 18  1  0  0  0
 18 19  2  0  0  0
 19 20  1  0  0  0
 20 21  2  0  0  0
 21 22  1  0  0  0
 22 15  1  0  0  0
 25 26  1  0  0  0
 11  7  1  0  0  0
 11 13  2  0  0  0
 11 12  1  0  0  0
  1  2  2  0  0  0
  1  6  1  0  0  0
  1  3  1  0  0  0
  5  8  1  0  0  0
  5  7  2  0  0  0
  6  9  1  0  0  0
  6 10  2  0  0  0
 36 37  2  0  0  0
 36 34  1  0  0  0
 36 38  1  0  0  0
 29  3  1  0  0  0
 29 30  1  0  0  0
 29 51  1  0  0  0
 30 33  1  0  0  0
 30 31  1  0  0  0
 51 52  1  0  0  0
 52 54  1  0  0  0
 52 53  1  0  0  0
 15 12  1  0  0  0
 15 16  1  0  0  0
  7 10  1  0  0  0
  8 23  1  0  0  0
  8  9  2  0  0  0
 23 24  1  0  0  0
 23 26  1  0  0  0
 26 27  2  0  0  0
 26 28  2  0  0  0
 33 34  1  0  0  0
 34 35  1  0  0  0
 38 40  1  0  0  0
 40 42  1  0  0  0
 40 48  1  0  0  0
 48 49  1  0  0  0
 48 50  1  0  0  0
 42 43  1  0  0  0
 43 45  1  0  0  0
 45 47  1  0  0  0
 45 46  1  0  0  0
 12 14  1  0  0  0
  3  4  1  0  0  0
 31 32  1  0  0  0
 38 39  1  0  0  0
 43 44  1  0  0  0
M  END
> <minimizedAffinity>
-9.24404

$$$$
2P4J_23I_A_501


 54 55  0  0  0  0  0  0  0  0999 V2000
   -8.8740    0.1346   30.3731 C   0  0  0  0  0  0  0  0  0  0  0  0
   -7.8632    0.8470   30.5369 O   0  0  0  0  0  0  0  0  0  0  0  0
   -9.1978   -0.8566   31.2290 N   0  0  0  0  0  0  0  0  0  0  0  0
  -10.0097   -1.3752   31.0264 H   0  0  0  0  0  0  0  0  0  0  0  0
  -11.6896    0.8239   27.1647 C   0  0  0  0  0  0  0  0  0  0  0  0
   -9.8369    0.3509   29.2550 C   0  0  0  0  0  0  0  0  0  0  0  0
  -12.0233    1.1964   28.4921 C   0  0  0  0  0  0  0  0  0  0  0  0
  -10.4325    0.2086   26.8555 C   0  0  0  0  0  0  0  0  0  0  0  0
   -9.5190   -0.0135   27.9349 C   0  0  0  0  0  0  0  0  0  0  0  0
  -11.0858    0.9482   29.4931 C   0  0  0  0  0  0  0  0  0  0  0  0
  -13.3315    1.8466   28.8082 C   0  0  0  0  0  0  0  0  0  0  0  0
  -13.6343    1.9781   30.1134 N   0  0  0  0  0  0  0  0  0  0  0  0
  -14.0919    2.2640   27.9188 O   0  0  0  0  0  0  0  0  0  0  0  0
  -12.9875    1.6331   30.7706 H   0  0  0  0  0  0  0  0  0  0  0  0
  -14.8556    2.5969   30.6224 C   0  0  0  0  0  0  0  0  0  0  0  0
  -14.4304    4.0018   31.0904 C   0  0  0  0  0  0  0  0  0  0  0  0
  -15.2444    0.3380   31.7578 C   0  0  0  0  0  0  0  0  0  0  0  0
  -15.8444   -0.4914   32.7322 C   0  0  0  0  0  0  0  0  0  0  0  0
  -16.7453    0.0689   33.6695 C   0  0  0  0  0  0  0  0  0  0  0  0
  -17.0449    1.4577   33.6334 C   0  0  0  0  0  0  0  0  0  0  0  0
  -16.4431    2.2892   32.6584 C   0  0  0  0  0  0  0  0  0  0  0  0
  -15.5375    1.7361   31.7093 C   0  0  0  0  0  0  0  0  0  0  0  0
  -10.0884   -0.1530   25.4607 N   0  0  0  0  0  0  0  0  0  0  0  0
   -8.6581   -0.0616   25.0128 C   0  0  0  0  0  0  0  0  0  0  0  0
   -9.8880   -2.2493   23.4821 C   0  0  0  0  0  0  0  0  0  0  0  0
  -10.7839   -1.6898   24.9093 S   0  0  0  0  0  0  0  0  0  0  0  0
  -10.6048   -2.7999   26.0101 O   0  0  0  0  0  0  0  0  0  0  0  0
  -12.3271   -1.6436   24.6050 O   0  0  0  0  0  0  0  0  0  0  0  0
   -8.4481   -1.2332   32.4377 C   0  0  0  0  0  0  0  0  0  0  0  0
   -6.9092   -1.2547   32.2226 C   0  0  0  0  0  0  0  0  0  0  0  0
   -6.2181   -1.0202   33.4345 O   0  0  0  0  0  0  0  0  0  0  0  0
   -6.4156   -1.7327   34.0624 H   0  0  0  0  0  0  0  0  0  0  0  0
   -6.4151   -2.6139   31.6913 C   0  0  0  0  0  0  0  0  0  0  0  0
   -4.9564   -2.9579   32.0210 C   0  0  0  0  0  0  0  0  0  0  0  0
   -4.9395   -4.0540   33.1262 C   0  0  0  0  0  0  0  0  0  0  0  0
   -4.1745   -3.4420   30.7553 C   0  0  0  0  0  0  0  0  0  0  0  0
   -4.7188   -3.5308   29.6515 O   0  0  0  0  0  0  0  0  0  0  0  0
   -2.8882   -3.7759   30.9411 N   0  0  0  0  0  0  0  0  0  0  0  0
   -2.4999   -3.6780   31.8405 H   0  0  0  0  0  0  0  0  0  0  0  0
   -2.0271   -4.2867   29.8455 C   0  0  0  0  0  0  0  0  0  0  0  0
   -1.6635   -6.6429   29.2054 O   0  0  0  0  0  0  0  0  0  0  0  0
   -1.8175   -5.8273   30.1299 C   0  0  0  0  0  0  0  0  0  0  0  0
   -1.7908   -6.1827   31.4216 N   0  0  0  0  0  0  0  0  0  0  0  0
   -1.9172   -5.4760   32.0952 H   0  0  0  0  0  0  0  0  0  0  0  0
   -1.5860   -7.5541   31.8988 C   0  0  0  0  0  0  0  0  0  0  0  0
   -2.7914   -7.9097   32.7641 C   0  0  0  0  0  0  0  0  0  0  0  0
   -0.2916   -7.5775   32.7142 C   0  0  0  0  0  0  0  0  0  0  0  0
   -0.7220   -3.4039   29.7429 C   0  0  0  0  0  0  0  0  0  0  0  0
   -0.6888   -2.5847   28.4345 C   0  0  0  0  0  0  0  0  0  0  0  0
    0.6111   -4.1941   29.7922 C   0  0  0  0  0  0  0  0  0  0  0  0
   -9.0527   -2.6102   32.8953 C   0  0  0  0  0  0  0  0  0  0  0  0
  -10.6199   -2.7110   32.9347 C   0  0  0  0  0  0  0  0  0  0  0  0
  -11.0924   -4.1612   33.1013 C   0  0  0  0  0  0  0  0  0  0  0  0
  -11.2162   -1.8913   34.0822 C   0  0  0  0  0  0  0  0  0  0  0  0
 41 42  2  0  0  0
 17 22  2  0  0  0
 17 18  1  0  0  0
 18 19  2  0  0  0
 19 20  1  0  0  0
 20 21  2  0  0  0
 21 22  1  0  0  0
 22 15  1  0  0  0
 25 26  1  0  0  0
 11  7  1  0  0  0
 11 13  2  0  0  0
 11 12  1  0  0  0
  1  2  2  0  0  0
  1  6  1  0  0  0
  1  3  1  0  0  0
  5  8  1  0  0  0
  5  7  2  0  0  0
  6  9  1  0  0  0
  6 10  2  0  0  0
 36 37  2  0  0  0
 36 34  1  0  0  0
 36 38  1  0  0  0
 29  3  1  0  0  0
 29 30  1  0  0  0
 29 51  1  0  0  0
 30 33  1  0  0  0
 30 31  1  0  0  0
 51 52  1  0  0  0
 52 54  1  0  0  0
 52 53  1  0  0  0
 15 12  1  0  0  0
 15 16  1  0  0  0
  7 10  1  0  0  0
  8 23  1  0  0  0
  8  9  2  0  0  0
 23 24  1  0  0  0
 23 26  1  0  0  0
 26 27  2  0  0  0
 26 28  2  0  0  0
 33 34  1  0  0  0
 34 35  1  0  0  0
 38 40  1  0  0  0
 40 42  1  0  0  0
 40 48  1  0  0  0
 48 49  1  0  0  0
 48 50  1  0  0  0
 42 43  1  0  0  0
 43 45  1  0  0  0
 45 47  1  0  0  0
 45 46  1  0  0  0
 12 14  1  0  0  0
  3  4  1  0  0  0
 31 32  1  0  0  0
 38 39  1  0  0  0
 43 44  1  0  0  0
M  END
> <minimizedAffinity>
-9.12951

$$$$
2P4J_23I_A_501


 54 55  0  0  0  0  0  0  0  0999 V2000
   -1.9986   -2.2301   28.9688 C   0  0  0  0  0  0  0  0  0  0  0  0
   -2.1214   -0.9888   28.9811 O   0  0  0  0  0  0  0  0  0  0  0  0
   -1.0784   -2.8511   28.2022 N   0  0  0  0  0  0  0  0  0  0  0  0
   -1.0486   -3.8341   28.2469 H   0  0  0  0  0  0  0  0  0  0  0  0
   -4.4266   -4.7908   31.4676 C   0  0  0  0  0  0  0  0  0  0  0  0
   -2.8151   -3.1270   29.8365 C   0  0  0  0  0  0  0  0  0  0  0  0
   -4.7333   -3.4101   31.3589 C   0  0  0  0  0  0  0  0  0  0  0  0
   -3.3140   -5.3657   30.7705 C   0  0  0  0  0  0  0  0  0  0  0  0
   -2.5222   -4.4971   29.9533 C   0  0  0  0  0  0  0  0  0  0  0  0
   -3.9179   -2.6241   30.5466 C   0  0  0  0  0  0  0  0  0  0  0  0
   -5.9004   -2.8170   32.0800 C   0  0  0  0  0  0  0  0  0  0  0  0
   -6.7418   -2.0681   31.3425 N   0  0  0  0  0  0  0  0  0  0  0  0
   -6.0994   -3.0187   33.2897 O   0  0  0  0  0  0  0  0  0  0  0  0
   -6.5332   -1.9510   30.3876 H   0  0  0  0  0  0  0  0  0  0  0  0
   -7.9425   -1.4173   31.8605 C   0  0  0  0  0  0  0  0  0  0  0  0
   -9.1016   -2.3673   31.5031 C   0  0  0  0  0  0  0  0  0  0  0  0
   -6.9750    0.8993   31.3708 C   0  0  0  0  0  0  0  0  0  0  0  0
   -7.0728    2.2265   30.8949 C   0  0  0  0  0  0  0  0  0  0  0  0
   -8.3014    2.6924   30.3680 C   0  0  0  0  0  0  0  0  0  0  0  0
   -9.4309    1.8315   30.3157 C   0  0  0  0  0  0  0  0  0  0  0  0
   -9.3332    0.5015   30.7910 C   0  0  0  0  0  0  0  0  0  0  0  0
   -8.1033    0.0231   31.3253 C   0  0  0  0  0  0  0  0  0  0  0  0
   -3.0205   -6.8140   30.8750 N   0  0  0  0  0  0  0  0  0  0  0  0
   -2.1328   -7.4564   29.8483 C   0  0  0  0  0  0  0  0  0  0  0  0
   -0.8646   -7.9510   32.4270 C   0  0  0  0  0  0  0  0  0  0  0  0
   -2.5331   -7.3479   32.4958 S   0  0  0  0  0  0  0  0  0  0  0  0
   -2.5257   -6.1324   33.4951 O   0  0  0  0  0  0  0  0  0  0  0  0
   -3.4788   -8.4233   33.1477 O   0  0  0  0  0  0  0  0  0  0  0  0
   -0.1154   -2.1930   27.3053 C   0  0  0  0  0  0  0  0  0  0  0  0
    1.1545   -1.6801   28.0397 C   0  0  0  0  0  0  0  0  0  0  0  0
    1.4648   -2.4916   29.1561 O   0  0  0  0  0  0  0  0  0  0  0  0
    1.6683   -3.3911   28.8555 H   0  0  0  0  0  0  0  0  0  0  0  0
    2.3975   -1.6918   27.1294 C   0  0  0  0  0  0  0  0  0  0  0  0
    2.2725   -2.5402   25.8567 C   0  0  0  0  0  0  0  0  0  0  0  0
    2.9119   -1.7593   24.6715 C   0  0  0  0  0  0  0  0  0  0  0  0
    2.9528   -3.9392   26.0233 C   0  0  0  0  0  0  0  0  0  0  0  0
    2.8053   -4.8355   25.1882 O   0  0  0  0  0  0  0  0  0  0  0  0
    3.6855   -4.1172   27.1333 N   0  0  0  0  0  0  0  0  0  0  0  0
    3.7783   -3.3664   27.7634 H   0  0  0  0  0  0  0  0  0  0  0  0
    4.3614   -5.4000   27.4496 C   0  0  0  0  0  0  0  0  0  0  0  0
    2.8289   -7.2925   27.8536 O   0  0  0  0  0  0  0  0  0  0  0  0
    3.3299   -6.2458   28.2974 C   0  0  0  0  0  0  0  0  0  0  0  0
    3.0587   -5.7753   29.5224 N   0  0  0  0  0  0  0  0  0  0  0  0
    3.4995   -4.9406   29.8019 H   0  0  0  0  0  0  0  0  0  0  0  0
    2.1490   -6.4206   30.4744 C   0  0  0  0  0  0  0  0  0  0  0  0
    0.8943   -5.5556   30.5486 C   0  0  0  0  0  0  0  0  0  0  0  0
    2.8582   -6.4865   31.8285 C   0  0  0  0  0  0  0  0  0  0  0  0
    5.7592   -5.1093   28.1241 C   0  0  0  0  0  0  0  0  0  0  0  0
    6.5101   -3.9646   27.4101 C   0  0  0  0  0  0  0  0  0  0  0  0
    6.7360   -6.3129   28.1565 C   0  0  0  0  0  0  0  0  0  0  0  0
   -0.9291   -1.0690   26.5666 C   0  0  0  0  0  0  0  0  0  0  0  0
   -0.8139   -1.0324   25.0003 C   0  0  0  0  0  0  0  0  0  0  0  0
   -2.1919   -1.0850   24.3275 C   0  0  0  0  0  0  0  0  0  0  0  0
   -0.1029    0.2316   24.5095 C   0  0  0  0  0  0  0  0  0  0  0  0
 41 42  2  0  0  0
 17 22  2  0  0  0
 17 18  1  0  0  0
 18 19  2  0  0  0
 19 20  1  0  0  0
 20 21  2  0  0  0
 21 22  1  0  0  0
 22 15  1  0  0  0
 25 26  1  0  0  0
 11  7  1  0  0  0
 11 13  2  0  0  0
 11 12  1  0  0  0
  1  2  2  0  0  0
  1  6  1  0  0  0
  1  3  1  0  0  0
  5  8  1  0  0  0
  5  7  2  0  0  0
  6  9  1  0  0  0
  6 10  2  0  0  0
 36 37  2  0  0  0
 36 34  1  0  0  0
 36 38  1  0  0  0
 29  3  1  0  0  0
 29 30  1  0  0  0
 29 51  1  0  0  0
 30 33  1  0  0  0
 30 31  1  0  0  0
 51 52  1  0  0  0
 52 54  1  0  0  0
 52 53  1  0  0  0
 15 12  1  0  0  0
 15 16  1  0  0  0
  7 10  1  0  0  0
  8 23  1  0  0  0
  8  9  2  0  0  0
 23 24  1  0  0  0
 23 26  1  0  0  0
 26 27  2  0  0  0
 26 28  2  0  0  0
 33 34  1  0  0  0
 34 35  1  0  0  0
 38 40  1  0  0  0
 40 42  1  0  0  0
 40 48  1  0  0  0
 48 49  1  0  0  0
 48 50  1  0  0  0
 42 43  1  0  0  0
 43 45  1  0  0  0
 45 47  1  0  0  0
 45 46  1  0  0  0
 12 14  1  0  0  0
  3  4  1  0  0  0
 31 32  1  0  0  0
 38 39  1  0  0  0
 43 44  1  0  0  0
M  END
> <minimizedAffinity>
-9.12767

$$$$
