2P4J_23I_A_501
  RCSB PDB12061706353D
Coordinates from PDB:2P4J:A:501 Model:1 without hydrogens
 49 50  0  0  0  0            999 V2000
  -10.8270   -0.4670   31.5230   O 0  0  0  0  0  0  0  0  0  0  0  0
    4.8920   -5.4360   32.8140   C 0  0  0  0  0  0  0  0  0  0  0  0
    5.7650   -4.6750   33.6240   C 0  0  0  0  0  0  0  0  0  0  0  0
    5.2300   -3.7980   34.5980   C 0  0  0  0  0  0  0  0  0  0  0  0
    3.8230   -3.6810   34.7610   C 0  0  0  0  0  0  0  0  0  0  0  0
    2.9480   -4.4420   33.9490   C 0  0  0  0  0  0  0  0  0  0  0  0
    3.4750   -5.3290   32.9680   C 0  0  0  0  0  0  0  0  0  0  0  0
    2.5640   -1.5730   25.9320   C 0  0  0  0  0  0  0  0  0  0  0  0
    1.5520   -5.1710   30.0280   C 0  0  0  0  0  0  0  0  0  0  0  0
   -3.3190   -3.9380   30.0730   C 0  0  0  0  0  0  0  0  0  0  0  0
    0.6620   -3.3610   28.4870   C 0  0  0  0  0  0  0  0  0  0  0  0
   -1.9510   -3.7140   29.5230   C 0  0  0  0  0  0  0  0  0  0  0  0
   -7.9750   -2.1290   32.1150   C 0  0  0  0  0  0  0  0  0  0  0  0
   -4.5810   -4.6300   32.1330   C 0  0  0  0  0  0  0  0  0  0  0  0
   -5.0460   -3.4840   33.0740   C 0  0  0  0  0  0  0  0  0  0  0  0
   -4.2590   -5.9790   32.8730   C 0  0  0  0  0  0  0  0  0  0  0  0
   -3.3460   -7.0010   32.1050   C 0  0  0  0  0  0  0  0  0  0  0  0
   -2.8000   -8.0890   33.0390   C 0  0  0  0  0  0  0  0  0  0  0  0
    2.5660   -6.1850   32.0580   C 0  0  0  0  0  0  0  0  0  0  0  0
    1.7600   -7.2710   32.7960   C 0  0  0  0  0  0  0  0  0  0  0  0
    1.5690   -5.3790   31.3580   N 0  0  0  0  0  0  0  0  0  0  0  0
    2.4070   -5.6740   29.2800   O 0  0  0  0  0  0  0  0  0  0  0  0
    0.4370   -4.3260   29.5020   C 0  0  0  0  0  0  0  0  0  0  0  0
   -0.4060   -2.5550   27.9730   C 0  0  0  0  0  0  0  0  0  0  0  0
   -1.7140   -2.7610   28.5170   C 0  0  0  0  0  0  0  0  0  0  0  0
   -0.8620   -4.4710   29.9860   C 0  0  0  0  0  0  0  0  0  0  0  0
   -0.1600   -1.5680   26.8960   N 0  0  0  0  0  0  0  0  0  0  0  0
   -1.2280   -0.5660   26.5640   C 0  0  0  0  0  0  0  0  0  0  0  0
    1.4100   -0.7470   26.9990   S 0  0  0  0  0  0  0  0  0  0  0  0
    1.2930    0.7300   26.4690   O 0  0  0  0  0  0  0  0  0  0  0  0
    1.9970   -0.6270   28.4540   O 0  0  0  0  0  0  0  0  0  0  0  0
   -4.3480   -3.8450   29.3740   O 0  0  0  0  0  0  0  0  0  0  0  0
   -3.3660   -4.2990   31.3720   N 0  0  0  0  0  0  0  0  0  0  0  0
   -4.0990   -7.6970   30.9680   C 0  0  0  0  0  0  0  0  0  0  0  0
   -5.4170   -2.2070   32.2960   C 0  0  0  0  0  0  0  0  0  0  0  0
   -6.6970   -1.5010   32.7630   C 0  0  0  0  0  0  0  0  0  0  0  0
   -6.5910    0.0110   32.4080   C 0  0  0  0  0  0  0  0  0  0  0  0
   -4.0250   -3.1200   33.9830   O 0  0  0  0  0  0  0  0  0  0  0  0
   -7.9810   -2.5270   30.9470   O 0  0  0  0  0  0  0  0  0  0  0  0
   -9.0680   -2.1900   32.8910   N 0  0  0  0  0  0  0  0  0  0  0  0
  -10.3650   -2.7250   32.4070   C 0  0  0  0  0  0  0  0  0  0  0  0
  -11.3110   -3.0130   33.6380   C 0  0  0  0  0  0  0  0  0  0  0  0
  -12.6410   -3.6610   33.1960   C 0  0  0  0  0  0  0  0  0  0  0  0
  -11.6950   -1.7670   34.4770   C 0  0  0  0  0  0  0  0  0  0  0  0
  -10.8960   -1.6930   31.3340   C 0  0  0  0  0  0  0  0  0  0  0  0
  -11.3940   -2.2260   30.2100   N 0  0  0  0  0  0  0  0  0  0  0  0
  -11.9160   -1.4450   29.0840   C 0  0  0  0  0  0  0  0  0  0  0  0
  -13.3220   -1.9630   28.7960   C 0  0  0  0  0  0  0  0  0  0  0  0
  -10.9870   -1.6680   27.8890   C 0  0  0  0  0  0  0  0  0  0  0  0
  1 45  2  0  0  0  0
  2  7  2  0  0  0  0
  2  3  1  0  0  0  0
  3  4  2  0  0  0  0
  4  5  1  0  0  0  0
  5  6  2  0  0  0  0
  6  7  1  0  0  0  0
  7 19  1  0  0  0  0
  8 29  1  0  0  0  0
  9 23  1  0  0  0  0
  9 22  2  0  0  0  0
  9 21  1  0  0  0  0
 10 32  2  0  0  0  0
 10 12  1  0  0  0  0
 10 33  1  0  0  0  0
 11 24  1  0  0  0  0
 11 23  2  0  0  0  0
 12 25  1  0  0  0  0
 12 26  2  0  0  0  0
 13 39  2  0  0  0  0
 13 36  1  0  0  0  0
 13 40  1  0  0  0  0
 14 33  1  0  0  0  0
 14 15  1  0  0  0  0
 14 16  1  0  0  0  0
 15 35  1  0  0  0  0
 15 38  1  0  0  0  0
 16 17  1  0  0  0  0
 17 34  1  0  0  0  0
 17 18  1  0  0  0  0
 19 21  1  0  0  0  0
 19 20  1  0  0  0  0
 23 26  1  0  0  0  0
 24 27  1  0  0  0  0
 24 25  2  0  0  0  0
 27 28  1  0  0  0  0
 27 29  1  0  0  0  0
 29 30  2  0  0  0  0
 29 31  2  0  0  0  0
 35 36  1  0  0  0  0
 36 37  1  0  0  0  0
 40 41  1  0  0  0  0
 41 45  1  0  0  0  0
 41 42  1  0  0  0  0
 42 43  1  0  0  0  0
 42 44  1  0  0  0  0
 45 46  1  0  0  0  0
 46 47  1  0  0  0  0
 47 49  1  0  0  0  0
 47 48  1  0  0  0  0
A    1
O4
A    2
C11
A    3
C12
A    4
C13
A    5
C14
A    6
C15
A    7
C16
A    8
C20
A    9
C21
A   10
C22
A   11
C24
A   12
C27
A   13
C30
A   14
C31
A   15
C32
A   16
C33
A   17
C34
A   18
C35
A   19
C17
A   20
C18
A   21
N21
A   22
O21
A   23
C23
A   24
C25
A   25
C26
A   26
C28
A   27
N22
A   28
C29
A   29
S2
A   30
O23
A   31
O24
A   32
O22
A   33
N3
A   34
C36
A   35
C37
A   36
C38
A   37
C39
A   38
O31
A   39
O32
A   40
N4
A   41
C41
A   42
C42
A   43
C43
A   44
C44
A   45
C45
A   46
N5
A   47
C51
A   48
C53
A   49
C52
M  END
>  <InstanceId>
2P4J_23I_A_501

>  <ChemCompId>
23I

>  <PdbId>
2P4J

>  <ChainId>
A

>  <ResidueNumber>
501

>  <InsertionCode>


>  <Model>
1

>  <AltIds>


>  <MissingHeavyAtoms>
0

>  <ObservedFormula>
C36 N5 O7 S

>  <Name>
N-[(1S,2S,4R)-2-HYDROXY-1-ISOBUTYL-5-({(1S)-1-[(ISOPROPYLAMINO)CARBONYL]-2-METHYLPROPYL}AMINO)-4-METHYL-5-OXOPENTYL]-5-[METHYL(METHYLSULFONYL)AMINO]-N'-[(1R)-1-PHENYLETHYL]ISOPHTHALAMIDE

>  <SystematicName>
N-[(4S,5S,7R)-5-hydroxy-2,7-dimethyl-8-[[(2S)-3-methyl-1-oxo-1-(propan-2-ylamino)butan-2-yl]amino]-8-oxo-octan-4-yl]-5-(methyl-methylsulfonyl-amino)-N'-[(1R)-1-phenylethyl]benzene-1,3-dicarboxamide

>  <Synonyms>


>  <Type>
NON-POLYMER

>  <Formula>
C36 H55 N5 O7 S

>  <MolecularWeight>
701.916

>  <ModifiedDate>
2011-06-04

>  <Parent>


>  <OneLetterCode>


>  <SubcomponentList>


>  <AmbiguousFlag>


>  <InChI>
InChI=1S/C36H55N5O7S/c1-21(2)16-30(31(42)17-24(7)33(43)40-32(22(3)4)36(46)37-23(5)6)39-35(45)28-18-27(19-29(20-28)41(9)49(10,47)48)34(44)38-25(8)26-14-12-11-13-15-26/h11-15,18-25,30-32,42H,16-17H2,1-10H3,(H,37,46)(H,38,44)(H,39,45)(H,40,43)/t24-,25-,30+,31+,32+/m1/s1

>  <InChIKey>
BJOCXJJVELLFKM-LLWRDSBASA-N

>  <SMILES>
CC(C)C[C@@H]([C@H](C[C@@H](C)C(=O)N[C@@H](C(C)C)C(=O)NC(C)C)O)NC(=O)c1cc(cc(c1)[N@@](C)S(=O)(=O)C)C(=O)N[C@H](C)c2ccccc2

$$$$
