3M8U_GDS_A_1


 52 51  0  0  0  0  0  0  0  0999 V2000
   15.2423  -15.0041  -15.6479 S   0  0  0  0  0  0  0  0  0  0  0  0
   15.0040  -13.8747  -14.2998 C   0  0  0  0  0  0  0  0  0  0  0  0
   15.2436  -14.4911  -12.9043 C   0  0  0  0  0  0  0  0  0  0  0  0
   16.6876  -14.6701  -12.6420 C   0  0  0  0  0  0  0  0  0  0  0  0
   17.4410  -13.6830  -12.6880 O   0  0  0  0  0  0  0  0  0  0  0  0
   17.2164  -15.9207  -12.3051 N   0  0  0  0  0  0  0  0  0  0  0  0
   16.6397  -16.6945  -12.1106 H   0  0  0  0  0  0  0  0  0  0  0  0
   18.6578  -16.0111  -12.2591 C   0  0  0  0  0  0  0  0  0  0  0  0
   19.1380  -16.9982  -13.3026 C   0  0  0  0  0  0  0  0  0  0  0  0
   20.3347  -16.9423  -13.6879 O   0  0  0  0  0  0  0  0  0  0  0  0
   18.3550  -17.8977  -13.7179 O   0  0  0  0  0  0  0  0  0  0  0  0
   17.4675  -17.9212  -13.4182 H   0  0  0  0  0  0  0  0  0  0  0  0
   13.3394  -13.3026  -11.7705 C   0  0  0  0  0  0  0  0  0  0  0  0
   12.5194  -14.1759  -12.1055 O   0  0  0  0  0  0  0  0  0  0  0  0
   14.7614  -13.5109  -11.9652 N   0  0  0  0  0  0  0  0  0  0  0  0
   15.4058  -12.9751  -11.4487 H   0  0  0  0  0  0  0  0  0  0  0  0
   12.8553  -12.0942  -10.8827 C   0  0  0  0  0  0  0  0  0  0  0  0
   11.6950  -12.5128  -10.0281 C   0  0  0  0  0  0  0  0  0  0  0  0
   11.5213  -14.2134   -8.3820 N   0  0  0  0  0  0  0  0  0  0  0  0
   12.2142  -13.0051   -8.7275 C   0  0  0  0  0  0  0  0  0  0  0  0
   11.8699  -14.5618   -7.4890 H   0  0  0  0  0  0  0  0  0  0  0  0
   11.6794  -14.9148   -9.1056 H   0  0  0  0  0  0  0  0  0  0  0  0
   11.9683  -12.0396   -7.6305 C   0  0  0  0  0  0  0  0  0  0  0  0
   12.8265  -11.1507   -7.4021 O   0  0  0  0  0  0  0  0  0  0  0  0
   11.0833  -12.2559   -6.7769 O   0  0  0  0  0  0  0  0  0  0  0  0
   10.4353  -12.9150   -6.9305 H   0  0  0  0  0  0  0  0  0  0  0  0
   13.7083  -16.3499  -15.7705 S   0  0  0  0  0  0  0  0  0  0  0  0
   13.8575  -17.3554  -14.3318 C   0  0  0  0  0  0  0  0  0  0  0  0
   15.0996  -18.2685  -14.4568 C   0  0  0  0  0  0  0  0  0  0  0  0
   14.8689  -19.1723  -15.5486 N   0  0  0  0  0  0  0  0  0  0  0  0
   15.9486  -19.8147  -16.3006 C   0  0  0  0  0  0  0  0  0  0  0  0
   17.1395  -19.6417  -15.9639 O   0  0  0  0  0  0  0  0  0  0  0  0
   13.9388  -19.3697  -15.8041 H   0  0  0  0  0  0  0  0  0  0  0  0
   15.5775  -20.5448  -17.5874 C   0  0  0  0  0  0  0  0  0  0  0  0
   16.5053  -21.7210  -17.8866 C   0  0  0  0  0  0  0  0  0  0  0  0
   16.1322  -22.9687  -17.0729 C   0  0  0  0  0  0  0  0  0  0  0  0
   14.7067  -22.9816  -16.7362 N   0  0  0  0  0  0  0  0  0  0  0  0
   14.4926  -22.1875  -16.1329 H   0  0  0  0  0  0  0  0  0  0  0  0
   14.4800  -23.8490  -16.2496 H   0  0  0  0  0  0  0  0  0  0  0  0
   16.9512  -23.1250  -15.8356 C   0  0  0  0  0  0  0  0  0  0  0  0
   16.4853  -22.8189  -14.7075 O   0  0  0  0  0  0  0  0  0  0  0  0
   18.1063  -23.6198  -15.9063 O   0  0  0  0  0  0  0  0  0  0  0  0
   18.4661  -23.8524  -16.7396 H   0  0  0  0  0  0  0  0  0  0  0  0
   14.8488  -20.3426  -12.9742 N   0  0  0  0  0  0  0  0  0  0  0  0
   15.3653  -19.0200  -13.1768 C   0  0  0  0  0  0  0  0  0  0  0  0
   15.9101  -18.4268  -12.2137 O   0  0  0  0  0  0  0  0  0  0  0  0
   14.1887  -20.7010  -13.6106 H   0  0  0  0  0  0  0  0  0  0  0  0
   15.2673  -21.1588  -11.8693 C   0  0  0  0  0  0  0  0  0  0  0  0
   14.4520  -20.9311  -10.6117 C   0  0  0  0  0  0  0  0  0  0  0  0
   13.2041  -21.0669  -10.6595 O   0  0  0  0  0  0  0  0  0  0  0  0
   15.0073  -20.6545   -9.4962 O   0  0  0  0  0  0  0  0  0  0  0  0
   15.9374  -20.5509   -9.4488 H   0  0  0  0  0  0  0  0  0  0  0  0
 19 20  1  0  0  0
 20 23  1  0  0  0
 20 18  1  0  0  0
 23 24  2  0  0  0
 23 25  1  0  0  0
 18 17  1  0  0  0
 17 13  1  0  0  0
 13 14  2  0  0  0
 13 15  1  0  0  0
 15  3  1  0  0  0
  3  4  1  0  0  0
  3  2  1  0  0  0
  4  5  2  0  0  0
  4  6  1  0  0  0
  2  1  1  0  0  0
  1 27  1  0  0  0
  6  8  1  0  0  0
  8  9  1  0  0  0
  9 10  2  0  0  0
  9 11  1  0  0  0
 44 48  1  0  0  0
 44 45  1  0  0  0
 48 49  1  0  0  0
 49 50  2  0  0  0
 49 51  1  0  0  0
 45 46  2  0  0  0
 45 29  1  0  0  0
 29 30  1  0  0  0
 29 28  1  0  0  0
 30 31  1  0  0  0
 28 27  1  0  0  0
 36 40  1  0  0  0
 36 37  1  0  0  0
 36 35  1  0  0  0
 40 41  2  0  0  0
 40 42  1  0  0  0
 35 34  1  0  0  0
 34 31  1  0  0  0
 31 32  2  0  0  0
 19 21  1  0  0  0
 19 22  1  0  0  0
 25 26  1  0  0  0
 15 16  1  0  0  0
  6  7  1  0  0  0
 11 12  1  0  0  0
 44 47  1  0  0  0
 51 52  1  0  0  0
 30 33  1  0  0  0
 42 43  1  0  0  0
 37 38  1  0  0  0
 37 39  1  0  0  0
M  END
> <minimizedAffinity>
-10.24244

$$$$
3M8U_GDS_A_1


 52 51  0  0  0  0  0  0  0  0999 V2000
   14.4147  -14.3982  -13.4190 S   0  0  0  0  0  0  0  0  0  0  0  0
   15.7902  -13.2815  -13.5226 C   0  0  0  0  0  0  0  0  0  0  0  0
   15.7617  -12.1397  -12.4833 C   0  0  0  0  0  0  0  0  0  0  0  0
   16.4871  -10.9505  -12.9788 C   0  0  0  0  0  0  0  0  0  0  0  0
   17.7297  -10.9454  -12.9621 O   0  0  0  0  0  0  0  0  0  0  0  0
   15.8043   -9.8472  -13.5018 N   0  0  0  0  0  0  0  0  0  0  0  0
   14.8351   -9.8681  -13.6730 H   0  0  0  0  0  0  0  0  0  0  0  0
   16.6037   -8.6752  -13.7764 C   0  0  0  0  0  0  0  0  0  0  0  0
   16.0353   -7.4868  -13.0290 C   0  0  0  0  0  0  0  0  0  0  0  0
   14.8122   -7.4823  -12.7333 O   0  0  0  0  0  0  0  0  0  0  0  0
   16.8048   -6.5566  -12.6582 O   0  0  0  0  0  0  0  0  0  0  0  0
   17.7126   -6.5793  -12.8892 H   0  0  0  0  0  0  0  0  0  0  0  0
   13.7930  -11.4826  -11.0634 C   0  0  0  0  0  0  0  0  0  0  0  0
   14.5163  -11.1888  -10.0951 O   0  0  0  0  0  0  0  0  0  0  0  0
   14.3752  -11.7688  -12.3605 N   0  0  0  0  0  0  0  0  0  0  0  0
   13.8152  -11.7087  -13.1680 H   0  0  0  0  0  0  0  0  0  0  0  0
   12.2356  -11.2710  -10.9511 C   0  0  0  0  0  0  0  0  0  0  0  0
   11.6076  -11.3201  -12.3132 C   0  0  0  0  0  0  0  0  0  0  0  0
    9.8186  -10.0940  -13.2765 N   0  0  0  0  0  0  0  0  0  0  0  0
   11.1063   -9.9656  -12.6560 C   0  0  0  0  0  0  0  0  0  0  0  0
    9.4633   -9.1686  -13.5170 H   0  0  0  0  0  0  0  0  0  0  0  0
    9.1735  -10.5485  -12.6303 H   0  0  0  0  0  0  0  0  0  0  0  0
   11.9864   -9.2781  -13.6300 C   0  0  0  0  0  0  0  0  0  0  0  0
   11.5716   -8.2314  -14.1876 O   0  0  0  0  0  0  0  0  0  0  0  0
   12.9905   -9.8530  -14.0989 O   0  0  0  0  0  0  0  0  0  0  0  0
   13.3137  -10.6348  -13.6959 H   0  0  0  0  0  0  0  0  0  0  0  0
   14.3147  -15.6092  -15.0630 S   0  0  0  0  0  0  0  0  0  0  0  0
   13.9171  -17.2075  -14.4379 C   0  0  0  0  0  0  0  0  0  0  0  0
   15.1447  -18.1399  -14.5636 C   0  0  0  0  0  0  0  0  0  0  0  0
   14.8913  -19.0520  -15.6434 N   0  0  0  0  0  0  0  0  0  0  0  0
   15.9511  -19.7770  -16.3471 C   0  0  0  0  0  0  0  0  0  0  0  0
   17.1396  -19.6707  -15.9762 O   0  0  0  0  0  0  0  0  0  0  0  0
   13.9589  -19.1971  -15.9244 H   0  0  0  0  0  0  0  0  0  0  0  0
   15.5745  -20.5115  -17.6298 C   0  0  0  0  0  0  0  0  0  0  0  0
   16.5673  -21.6151  -17.9905 C   0  0  0  0  0  0  0  0  0  0  0  0
   16.2203  -22.9460  -17.3075 C   0  0  0  0  0  0  0  0  0  0  0  0
   14.8202  -22.9782  -16.8782 N   0  0  0  0  0  0  0  0  0  0  0  0
   14.6646  -22.2593  -16.1716 H   0  0  0  0  0  0  0  0  0  0  0  0
   14.6064  -23.8944  -16.4840 H   0  0  0  0  0  0  0  0  0  0  0  0
   17.1153  -23.2619  -16.1563 C   0  0  0  0  0  0  0  0  0  0  0  0
   16.8095  -22.9190  -14.9850 O   0  0  0  0  0  0  0  0  0  0  0  0
   18.1669  -23.9277  -16.3437 O   0  0  0  0  0  0  0  0  0  0  0  0
   18.4072  -24.1899  -17.2105 H   0  0  0  0  0  0  0  0  0  0  0  0
   14.8611  -20.1861  -13.0483 N   0  0  0  0  0  0  0  0  0  0  0  0
   15.4107  -18.8813  -13.2778 C   0  0  0  0  0  0  0  0  0  0  0  0
   15.9880  -18.2908  -12.3321 O   0  0  0  0  0  0  0  0  0  0  0  0
   14.1806  -20.5343  -13.6688 H   0  0  0  0  0  0  0  0  0  0  0  0
   15.2751  -20.9988  -11.9392 C   0  0  0  0  0  0  0  0  0  0  0  0
   14.4303  -20.7952  -10.6971 C   0  0  0  0  0  0  0  0  0  0  0  0
   13.1794  -20.7625  -10.8075 O   0  0  0  0  0  0  0  0  0  0  0  0
   14.9569  -20.7068   -9.5378 O   0  0  0  0  0  0  0  0  0  0  0  0
   15.8888  -20.7300   -9.4435 H   0  0  0  0  0  0  0  0  0  0  0  0
 19 20  1  0  0  0
 20 23  1  0  0  0
 20 18  1  0  0  0
 23 24  2  0  0  0
 23 25  1  0  0  0
 18 17  1  0  0  0
 17 13  1  0  0  0
 13 14  2  0  0  0
 13 15  1  0  0  0
 15  3  1  0  0  0
  3  4  1  0  0  0
  3  2  1  0  0  0
  4  5  2  0  0  0
  4  6  1  0  0  0
  2  1  1  0  0  0
  1 27  1  0  0  0
  6  8  1  0  0  0
  8  9  1  0  0  0
  9 10  2  0  0  0
  9 11  1  0  0  0
 44 48  1  0  0  0
 44 45  1  0  0  0
 48 49  1  0  0  0
 49 50  2  0  0  0
 49 51  1  0  0  0
 45 46  2  0  0  0
 45 29  1  0  0  0
 29 30  1  0  0  0
 29 28  1  0  0  0
 30 31  1  0  0  0
 28 27  1  0  0  0
 36 40  1  0  0  0
 36 37  1  0  0  0
 36 35  1  0  0  0
 40 41  2  0  0  0
 40 42  1  0  0  0
 35 34  1  0  0  0
 34 31  1  0  0  0
 31 32  2  0  0  0
 19 21  1  0  0  0
 19 22  1  0  0  0
 25 26  1  0  0  0
 15 16  1  0  0  0
  6  7  1  0  0  0
 11 12  1  0  0  0
 44 47  1  0  0  0
 51 52  1  0  0  0
 30 33  1  0  0  0
 42 43  1  0  0  0
 37 38  1  0  0  0
 37 39  1  0  0  0
M  END
> <minimizedAffinity>
-10.10187

$$$$
3M8U_GDS_A_1


 52 51  0  0  0  0  0  0  0  0999 V2000
   13.9088  -16.0280  -15.3260 S   0  0  0  0  0  0  0  0  0  0  0  0
   13.9159  -17.4573  -14.2740 C   0  0  0  0  0  0  0  0  0  0  0  0
   15.1854  -18.3283  -14.3935 C   0  0  0  0  0  0  0  0  0  0  0  0
   15.4380  -19.0757  -13.1432 C   0  0  0  0  0  0  0  0  0  0  0  0
   16.0793  -18.5317  -12.2283 O   0  0  0  0  0  0  0  0  0  0  0  0
   14.9366  -20.3680  -12.9540 N   0  0  0  0  0  0  0  0  0  0  0  0
   14.3014  -20.7775  -13.5849 H   0  0  0  0  0  0  0  0  0  0  0  0
   15.4049  -21.0671  -11.7793 C   0  0  0  0  0  0  0  0  0  0  0  0
   14.4470  -20.8277  -10.6307 C   0  0  0  0  0  0  0  0  0  0  0  0
   14.9154  -20.6082   -9.4836 O   0  0  0  0  0  0  0  0  0  0  0  0
   13.2045  -20.7862  -10.8526 O   0  0  0  0  0  0  0  0  0  0  0  0
   12.8767  -20.9529  -11.7144 H   0  0  0  0  0  0  0  0  0  0  0  0
   15.9205  -19.7716  -16.3171 C   0  0  0  0  0  0  0  0  0  0  0  0
   17.1229  -19.6521  -16.0220 O   0  0  0  0  0  0  0  0  0  0  0  0
   14.8880  -19.2999  -15.4146 N   0  0  0  0  0  0  0  0  0  0  0  0
   13.9713  -19.6484  -15.5009 H   0  0  0  0  0  0  0  0  0  0  0  0
   15.5157  -20.6830  -17.5371 C   0  0  0  0  0  0  0  0  0  0  0  0
   16.5900  -21.6961  -17.8045 C   0  0  0  0  0  0  0  0  0  0  0  0
   14.8223  -22.9196  -16.7994 N   0  0  0  0  0  0  0  0  0  0  0  0
   16.2124  -22.9747  -17.1517 C   0  0  0  0  0  0  0  0  0  0  0  0
   14.5507  -23.7938  -16.3495 H   0  0  0  0  0  0  0  0  0  0  0  0
   14.2633  -22.7827  -17.6416 H   0  0  0  0  0  0  0  0  0  0  0  0
   16.9658  -23.2002  -15.8956 C   0  0  0  0  0  0  0  0  0  0  0  0
   16.5094  -22.7312  -14.8231 O   0  0  0  0  0  0  0  0  0  0  0  0
   18.1489  -23.5975  -15.9240 O   0  0  0  0  0  0  0  0  0  0  0  0
   18.5059  -23.9501  -16.7154 H   0  0  0  0  0  0  0  0  0  0  0  0
   14.9897  -14.4975  -14.5083 S   0  0  0  0  0  0  0  0  0  0  0  0
   14.7528  -14.6403  -12.7686 C   0  0  0  0  0  0  0  0  0  0  0  0
   14.6721  -13.2325  -12.1330 C   0  0  0  0  0  0  0  0  0  0  0  0
   13.4562  -12.6179  -12.5866 N   0  0  0  0  0  0  0  0  0  0  0  0
   12.2749  -12.4530  -11.7372 C   0  0  0  0  0  0  0  0  0  0  0  0
   12.3113  -12.7938  -10.5355 O   0  0  0  0  0  0  0  0  0  0  0  0
   13.4147  -12.2912  -13.5144 H   0  0  0  0  0  0  0  0  0  0  0  0
   10.9753  -12.0209  -12.4088 C   0  0  0  0  0  0  0  0  0  0  0  0
   10.6231  -10.5613  -12.1274 C   0  0  0  0  0  0  0  0  0  0  0  0
   10.8718   -9.6644  -13.3488 C   0  0  0  0  0  0  0  0  0  0  0  0
   10.4168  -10.3052  -14.5850 N   0  0  0  0  0  0  0  0  0  0  0  0
   10.9630  -11.1506  -14.7506 H   0  0  0  0  0  0  0  0  0  0  0  0
   10.5405   -9.6620  -15.3669 H   0  0  0  0  0  0  0  0  0  0  0  0
   12.2973   -9.2457  -13.4848 C   0  0  0  0  0  0  0  0  0  0  0  0
   12.7353   -8.2326  -12.8807 O   0  0  0  0  0  0  0  0  0  0  0  0
   13.0928   -9.9411  -14.1687 O   0  0  0  0  0  0  0  0  0  0  0  0
   12.7807  -10.6983  -14.6239 H   0  0  0  0  0  0  0  0  0  0  0  0
   15.7168  -11.0927  -13.0780 N   0  0  0  0  0  0  0  0  0  0  0  0
   15.8719  -12.3931  -12.4931 C   0  0  0  0  0  0  0  0  0  0  0  0
   17.0202  -12.8963  -12.4276 O   0  0  0  0  0  0  0  0  0  0  0  0
   14.8259  -10.8108  -13.3880 H   0  0  0  0  0  0  0  0  0  0  0  0
   16.8242  -10.1903  -13.2242 C   0  0  0  0  0  0  0  0  0  0  0  0
   16.4610   -8.9050  -13.9412 C   0  0  0  0  0  0  0  0  0  0  0  0
   17.0231   -8.6334  -15.0313 O   0  0  0  0  0  0  0  0  0  0  0  0
   15.5627   -8.1187  -13.4895 O   0  0  0  0  0  0  0  0  0  0  0  0
   15.1367   -8.3112  -12.6775 H   0  0  0  0  0  0  0  0  0  0  0  0
 19 20  1  0  0  0
 20 23  1  0  0  0
 20 18  1  0  0  0
 23 24  2  0  0  0
 23 25  1  0  0  0
 18 17  1  0  0  0
 17 13  1  0  0  0
 13 14  2  0  0  0
 13 15  1  0  0  0
 15  3  1  0  0  0
  3  4  1  0  0  0
  3  2  1  0  0  0
  4  5  2  0  0  0
  4  6  1  0  0  0
  2  1  1  0  0  0
  1 27  1  0  0  0
  6  8  1  0  0  0
  8  9  1  0  0  0
  9 10  2  0  0  0
  9 11  1  0  0  0
 44 48  1  0  0  0
 44 45  1  0  0  0
 48 49  1  0  0  0
 49 50  2  0  0  0
 49 51  1  0  0  0
 45 46  2  0  0  0
 45 29  1  0  0  0
 29 30  1  0  0  0
 29 28  1  0  0  0
 30 31  1  0  0  0
 28 27  1  0  0  0
 36 40  1  0  0  0
 36 37  1  0  0  0
 36 35  1  0  0  0
 40 41  2  0  0  0
 40 42  1  0  0  0
 35 34  1  0  0  0
 34 31  1  0  0  0
 31 32  2  0  0  0
 19 21  1  0  0  0
 19 22  1  0  0  0
 25 26  1  0  0  0
 15 16  1  0  0  0
  6  7  1  0  0  0
 11 12  1  0  0  0
 44 47  1  0  0  0
 51 52  1  0  0  0
 30 33  1  0  0  0
 42 43  1  0  0  0
 37 38  1  0  0  0
 37 39  1  0  0  0
M  END
> <minimizedAffinity>
-9.91999

$$$$
3M8U_GDS_A_1


 52 51  0  0  0  0  0  0  0  0999 V2000
   14.8765  -15.6187  -15.6756 S   0  0  0  0  0  0  0  0  0  0  0  0
   15.7467  -14.3905  -14.7355 C   0  0  0  0  0  0  0  0  0  0  0  0
   15.4944  -14.4582  -13.2135 C   0  0  0  0  0  0  0  0  0  0  0  0
   16.5382  -15.2564  -12.5359 C   0  0  0  0  0  0  0  0  0  0  0  0
   16.2117  -16.0382  -11.6267 O   0  0  0  0  0  0  0  0  0  0  0  0
   17.8802  -15.1784  -12.9233 N   0  0  0  0  0  0  0  0  0  0  0  0
   18.1614  -14.6906  -13.7310 H   0  0  0  0  0  0  0  0  0  0  0  0
   18.8299  -15.8549  -12.0698 C   0  0  0  0  0  0  0  0  0  0  0  0
   19.4622  -17.0050  -12.8258 C   0  0  0  0  0  0  0  0  0  0  0  0
   20.6528  -17.3207  -12.5684 O   0  0  0  0  0  0  0  0  0  0  0  0
   18.7695  -17.6670  -13.6484 O   0  0  0  0  0  0  0  0  0  0  0  0
   17.8847  -17.4147  -13.8256 H   0  0  0  0  0  0  0  0  0  0  0  0
   14.6119  -12.5070  -11.8953 C   0  0  0  0  0  0  0  0  0  0  0  0
   13.8174  -13.2223  -11.2594 O   0  0  0  0  0  0  0  0  0  0  0  0
   15.6262  -13.1029  -12.7433 N   0  0  0  0  0  0  0  0  0  0  0  0
   16.4156  -12.5741  -13.0011 H   0  0  0  0  0  0  0  0  0  0  0  0
   14.6960  -10.9690  -11.5630 C   0  0  0  0  0  0  0  0  0  0  0  0
   13.3346  -10.4390  -11.2199 C   0  0  0  0  0  0  0  0  0  0  0  0
   13.4827  -10.0041  -13.5482 N   0  0  0  0  0  0  0  0  0  0  0  0
   12.8706   -9.5652  -12.3265 C   0  0  0  0  0  0  0  0  0  0  0  0
   13.1711   -9.4105  -14.3169 H   0  0  0  0  0  0  0  0  0  0  0  0
   13.2148  -10.9705  -13.7346 H   0  0  0  0  0  0  0  0  0  0  0  0
   13.2747   -8.1537  -12.1259 C   0  0  0  0  0  0  0  0  0  0  0  0
   14.2405   -7.7000  -12.7892 O   0  0  0  0  0  0  0  0  0  0  0  0
   12.8637   -7.5064  -11.1406 O   0  0  0  0  0  0  0  0  0  0  0  0
   12.1444   -7.8298  -10.6346 H   0  0  0  0  0  0  0  0  0  0  0  0
   13.7869  -16.8506  -14.4612 S   0  0  0  0  0  0  0  0  0  0  0  0
   13.8745  -18.4404  -15.2149 C   0  0  0  0  0  0  0  0  0  0  0  0
   15.3050  -19.0107  -15.0713 C   0  0  0  0  0  0  0  0  0  0  0  0
   15.4508  -20.0702  -16.0295 N   0  0  0  0  0  0  0  0  0  0  0  0
   16.0178  -19.8722  -17.3649 C   0  0  0  0  0  0  0  0  0  0  0  0
   16.4655  -18.7545  -17.6992 O   0  0  0  0  0  0  0  0  0  0  0  0
   15.1550  -20.9744  -15.7760 H   0  0  0  0  0  0  0  0  0  0  0  0
   15.8822  -21.0137  -18.3675 C   0  0  0  0  0  0  0  0  0  0  0  0
   16.9087  -22.1222  -18.1413 C   0  0  0  0  0  0  0  0  0  0  0  0
   16.3890  -23.1987  -17.1773 C   0  0  0  0  0  0  0  0  0  0  0  0
   14.9503  -23.0565  -16.9414 N   0  0  0  0  0  0  0  0  0  0  0  0
   14.7679  -22.1651  -16.4803 H   0  0  0  0  0  0  0  0  0  0  0  0
   14.6261  -23.8194  -16.3471 H   0  0  0  0  0  0  0  0  0  0  0  0
   17.1205  -23.2200  -15.8771 C   0  0  0  0  0  0  0  0  0  0  0  0
   16.6045  -22.7383  -14.8356 O   0  0  0  0  0  0  0  0  0  0  0  0
   18.2480  -23.7742  -15.8008 O   0  0  0  0  0  0  0  0  0  0  0  0
   18.6444  -24.1373  -16.5683 H   0  0  0  0  0  0  0  0  0  0  0  0
   14.8873  -20.6589  -13.1551 N   0  0  0  0  0  0  0  0  0  0  0  0
   15.5658  -19.5054  -13.6709 C   0  0  0  0  0  0  0  0  0  0  0  0
   16.2647  -18.8129  -12.8910 O   0  0  0  0  0  0  0  0  0  0  0  0
   14.1341  -21.0379  -13.6633 H   0  0  0  0  0  0  0  0  0  0  0  0
   15.2756  -21.2769  -11.9184 C   0  0  0  0  0  0  0  0  0  0  0  0
   14.4218  -20.8512  -10.7403 C   0  0  0  0  0  0  0  0  0  0  0  0
   14.9832  -20.5244   -9.6652 O   0  0  0  0  0  0  0  0  0  0  0  0
   13.1512  -20.7692  -10.8308 O   0  0  0  0  0  0  0  0  0  0  0  0
   12.7217  -21.0103  -11.6279 H   0  0  0  0  0  0  0  0  0  0  0  0
 19 20  1  0  0  0
 20 23  1  0  0  0
 20 18  1  0  0  0
 23 24  2  0  0  0
 23 25  1  0  0  0
 18 17  1  0  0  0
 17 13  1  0  0  0
 13 14  2  0  0  0
 13 15  1  0  0  0
 15  3  1  0  0  0
  3  4  1  0  0  0
  3  2  1  0  0  0
  4  5  2  0  0  0
  4  6  1  0  0  0
  2  1  1  0  0  0
  1 27  1  0  0  0
  6  8  1  0  0  0
  8  9  1  0  0  0
  9 10  2  0  0  0
  9 11  1  0  0  0
 44 48  1  0  0  0
 44 45  1  0  0  0
 48 49  1  0  0  0
 49 50  2  0  0  0
 49 51  1  0  0  0
 45 46  2  0  0  0
 45 29  1  0  0  0
 29 30  1  0  0  0
 29 28  1  0  0  0
 30 31  1  0  0  0
 28 27  1  0  0  0
 36 40  1  0  0  0
 36 37  1  0  0  0
 36 35  1  0  0  0
 40 41  2  0  0  0
 40 42  1  0  0  0
 35 34  1  0  0  0
 34 31  1  0  0  0
 31 32  2  0  0  0
 19 21  1  0  0  0
 19 22  1  0  0  0
 25 26  1  0  0  0
 15 16  1  0  0  0
  6  7  1  0  0  0
 11 12  1  0  0  0
 44 47  1  0  0  0
 51 52  1  0  0  0
 30 33  1  0  0  0
 42 43  1  0  0  0
 37 38  1  0  0  0
 37 39  1  0  0  0
M  END
> <minimizedAffinity>
-9.88359

$$$$
3M8U_GDS_A_1


 52 51  0  0  0  0  0  0  0  0999 V2000
   13.7306  -16.0633  -14.2366 S   0  0  0  0  0  0  0  0  0  0  0  0
   13.7006  -17.8294  -14.4091 C   0  0  0  0  0  0  0  0  0  0  0  0
   15.0941  -18.4768  -14.5632 C   0  0  0  0  0  0  0  0  0  0  0  0
   15.4853  -19.1978  -13.3332 C   0  0  0  0  0  0  0  0  0  0  0  0
   16.4449  -18.7808  -12.6628 O   0  0  0  0  0  0  0  0  0  0  0  0
   14.7731  -20.3165  -12.8878 N   0  0  0  0  0  0  0  0  0  0  0  0
   13.9221  -20.5901  -13.3005 H   0  0  0  0  0  0  0  0  0  0  0  0
   15.3584  -21.0474  -11.7872 C   0  0  0  0  0  0  0  0  0  0  0  0
   14.4944  -20.8856  -10.5539 C   0  0  0  0  0  0  0  0  0  0  0  0
   13.2492  -21.0329  -10.6598 O   0  0  0  0  0  0  0  0  0  0  0  0
   15.0384  -20.6729   -9.4343 O   0  0  0  0  0  0  0  0  0  0  0  0
   15.9676  -20.5661   -9.3776 H   0  0  0  0  0  0  0  0  0  0  0  0
   16.0758  -19.8632  -16.4174 C   0  0  0  0  0  0  0  0  0  0  0  0
   17.2399  -19.6654  -16.0264 O   0  0  0  0  0  0  0  0  0  0  0  0
   14.9448  -19.4631  -15.6024 N   0  0  0  0  0  0  0  0  0  0  0  0
   14.0631  -19.8711  -15.7616 H   0  0  0  0  0  0  0  0  0  0  0  0
   15.8318  -20.7960  -17.6637 C   0  0  0  0  0  0  0  0  0  0  0  0
   15.7050  -22.2248  -17.2231 C   0  0  0  0  0  0  0  0  0  0  0  0
   17.6039  -23.4875  -16.5661 N   0  0  0  0  0  0  0  0  0  0  0  0
   16.6819  -22.4762  -16.1340 C   0  0  0  0  0  0  0  0  0  0  0  0
   18.2810  -23.6692  -15.8252 H   0  0  0  0  0  0  0  0  0  0  0  0
   18.0925  -23.1672  -17.4022 H   0  0  0  0  0  0  0  0  0  0  0  0
   16.0262  -22.9878  -14.9075 C   0  0  0  0  0  0  0  0  0  0  0  0
   14.8254  -22.6871  -14.6922 O   0  0  0  0  0  0  0  0  0  0  0  0
   16.7034  -23.4680  -13.9751 O   0  0  0  0  0  0  0  0  0  0  0  0
   17.6004  -23.6980  -14.1177 H   0  0  0  0  0  0  0  0  0  0  0  0
   14.7480  -15.1831  -15.7759 S   0  0  0  0  0  0  0  0  0  0  0  0
   15.8422  -14.0337  -15.0112 C   0  0  0  0  0  0  0  0  0  0  0  0
   15.6614  -14.0795  -13.4758 C   0  0  0  0  0  0  0  0  0  0  0  0
   15.1404  -12.8078  -13.0594 N   0  0  0  0  0  0  0  0  0  0  0  0
   14.1600  -12.6557  -11.9825 C   0  0  0  0  0  0  0  0  0  0  0  0
   13.7832  -13.6520  -11.3292 O   0  0  0  0  0  0  0  0  0  0  0  0
   15.4582  -11.9982  -13.5207 H   0  0  0  0  0  0  0  0  0  0  0  0
   13.5025  -11.2899  -11.8119 C   0  0  0  0  0  0  0  0  0  0  0  0
   13.9023  -10.3022  -12.9067 C   0  0  0  0  0  0  0  0  0  0  0  0
   12.9433   -9.1050  -12.9786 C   0  0  0  0  0  0  0  0  0  0  0  0
   12.5908   -8.6204  -11.6420 N   0  0  0  0  0  0  0  0  0  0  0  0
   12.0826   -9.3482  -11.1396 H   0  0  0  0  0  0  0  0  0  0  0  0
   12.0031   -7.7909  -11.7251 H   0  0  0  0  0  0  0  0  0  0  0  0
   11.7059   -9.3948  -13.7602 C   0  0  0  0  0  0  0  0  0  0  0  0
   10.6130   -9.6257  -13.1808 O   0  0  0  0  0  0  0  0  0  0  0  0
   11.7350   -9.3565  -15.0179 O   0  0  0  0  0  0  0  0  0  0  0  0
   12.5417   -9.1856  -15.4628 H   0  0  0  0  0  0  0  0  0  0  0  0
   17.2798  -15.7282  -12.3687 N   0  0  0  0  0  0  0  0  0  0  0  0
   16.9596  -14.3903  -12.7746 C   0  0  0  0  0  0  0  0  0  0  0  0
   17.7004  -13.4485  -12.3998 O   0  0  0  0  0  0  0  0  0  0  0  0
   16.5813  -16.4207  -12.4101 H   0  0  0  0  0  0  0  0  0  0  0  0
   18.5905  -16.0862  -11.9038 C   0  0  0  0  0  0  0  0  0  0  0  0
   19.3117  -17.0506  -12.8244 C   0  0  0  0  0  0  0  0  0  0  0  0
   20.5349  -17.2705  -12.6420 O   0  0  0  0  0  0  0  0  0  0  0  0
   18.6952  -17.6812  -13.7472 O   0  0  0  0  0  0  0  0  0  0  0  0
   17.7827  -17.5252  -13.8923 H   0  0  0  0  0  0  0  0  0  0  0  0
 19 20  1  0  0  0
 20 23  1  0  0  0
 20 18  1  0  0  0
 23 24  2  0  0  0
 23 25  1  0  0  0
 18 17  1  0  0  0
 17 13  1  0  0  0
 13 14  2  0  0  0
 13 15  1  0  0  0
 15  3  1  0  0  0
  3  4  1  0  0  0
  3  2  1  0  0  0
  4  5  2  0  0  0
  4  6  1  0  0  0
  2  1  1  0  0  0
  1 27  1  0  0  0
  6  8  1  0  0  0
  8  9  1  0  0  0
  9 10  2  0  0  0
  9 11  1  0  0  0
 44 48  1  0  0  0
 44 45  1  0  0  0
 48 49  1  0  0  0
 49 50  2  0  0  0
 49 51  1  0  0  0
 45 46  2  0  0  0
 45 29  1  0  0  0
 29 30  1  0  0  0
 29 28  1  0  0  0
 30 31  1  0  0  0
 28 27  1  0  0  0
 36 40  1  0  0  0
 36 37  1  0  0  0
 36 35  1  0  0  0
 40 41  2  0  0  0
 40 42  1  0  0  0
 35 34  1  0  0  0
 34 31  1  0  0  0
 31 32  2  0  0  0
 19 21  1  0  0  0
 19 22  1  0  0  0
 25 26  1  0  0  0
 15 16  1  0  0  0
  6  7  1  0  0  0
 11 12  1  0  0  0
 44 47  1  0  0  0
 51 52  1  0  0  0
 30 33  1  0  0  0
 42 43  1  0  0  0
 37 38  1  0  0  0
 37 39  1  0  0  0
M  END
> <minimizedAffinity>
-9.75904

$$$$
3M8U_GDS_A_1


 52 51  0  0  0  0  0  0  0  0999 V2000
   14.1448  -15.7759  -14.5639 S   0  0  0  0  0  0  0  0  0  0  0  0
   13.9196  -17.5199  -14.3244 C   0  0  0  0  0  0  0  0  0  0  0  0
   15.2166  -18.3500  -14.4397 C   0  0  0  0  0  0  0  0  0  0  0  0
   15.4777  -19.1054  -13.1958 C   0  0  0  0  0  0  0  0  0  0  0  0
   16.2343  -18.6207  -12.3374 O   0  0  0  0  0  0  0  0  0  0  0  0
   14.8600  -20.3360  -12.9485 N   0  0  0  0  0  0  0  0  0  0  0  0
   14.1432  -20.6842  -13.5266 H   0  0  0  0  0  0  0  0  0  0  0  0
   15.3347  -21.0666  -11.7957 C   0  0  0  0  0  0  0  0  0  0  0  0
   14.4008  -20.8325  -10.6266 C   0  0  0  0  0  0  0  0  0  0  0  0
   14.8927  -20.6203   -9.4880 O   0  0  0  0  0  0  0  0  0  0  0  0
   13.1541  -20.7878  -10.8230 O   0  0  0  0  0  0  0  0  0  0  0  0
   12.8085  -20.9489  -11.6789 H   0  0  0  0  0  0  0  0  0  0  0  0
   16.0242  -19.7664  -16.3542 C   0  0  0  0  0  0  0  0  0  0  0  0
   17.2163  -19.6322  -16.0257 O   0  0  0  0  0  0  0  0  0  0  0  0
   14.9609  -19.3172  -15.4762 N   0  0  0  0  0  0  0  0  0  0  0  0
   14.0521  -19.6781  -15.5901 H   0  0  0  0  0  0  0  0  0  0  0  0
   15.6656  -20.6733  -17.5920 C   0  0  0  0  0  0  0  0  0  0  0  0
   15.4461  -22.0900  -17.1486 C   0  0  0  0  0  0  0  0  0  0  0  0
   17.3091  -23.5538  -17.0121 N   0  0  0  0  0  0  0  0  0  0  0  0
   16.6020  -22.5145  -16.3196 C   0  0  0  0  0  0  0  0  0  0  0  0
   18.1066  -23.8541  -16.4516 H   0  0  0  0  0  0  0  0  0  0  0  0
   17.6386  -23.2006  -17.9104 H   0  0  0  0  0  0  0  0  0  0  0  0
   16.1740  -23.0790  -15.0180 C   0  0  0  0  0  0  0  0  0  0  0  0
   14.9864  -22.9081  -14.6449 O   0  0  0  0  0  0  0  0  0  0  0  0
   17.0168  -23.4708  -14.1845 O   0  0  0  0  0  0  0  0  0  0  0  0
   17.9070  -23.6035  -14.4453 H   0  0  0  0  0  0  0  0  0  0  0  0
   15.7050  -15.0675  -13.4489 S   0  0  0  0  0  0  0  0  0  0  0  0
   14.9629  -14.1199  -12.1626 C   0  0  0  0  0  0  0  0  0  0  0  0
   13.6518  -13.4780  -12.6737 C   0  0  0  0  0  0  0  0  0  0  0  0
   13.9576  -12.1415  -13.1007 N   0  0  0  0  0  0  0  0  0  0  0  0
   14.5405  -11.1302  -12.2167 C   0  0  0  0  0  0  0  0  0  0  0  0
   14.8595  -11.4266  -11.0455 O   0  0  0  0  0  0  0  0  0  0  0  0
   13.7659  -11.8929  -14.0338 H   0  0  0  0  0  0  0  0  0  0  0  0
   14.5786   -9.6899  -12.7176 C   0  0  0  0  0  0  0  0  0  0  0  0
   13.5986   -8.7819  -11.9769 C   0  0  0  0  0  0  0  0  0  0  0  0
   12.1570   -8.9660  -12.4732 C   0  0  0  0  0  0  0  0  0  0  0  0
   11.5883  -10.2329  -12.0074 N   0  0  0  0  0  0  0  0  0  0  0  0
   12.1161  -11.0095  -12.4058 H   0  0  0  0  0  0  0  0  0  0  0  0
   10.6140  -10.2972  -12.3025 H   0  0  0  0  0  0  0  0  0  0  0  0
   12.0333   -8.8648  -13.9566 C   0  0  0  0  0  0  0  0  0  0  0  0
   12.1563   -7.7584  -14.5430 O   0  0  0  0  0  0  0  0  0  0  0  0
   11.8569   -9.9046  -14.6437 O   0  0  0  0  0  0  0  0  0  0  0  0
   11.7637  -10.7354  -14.2206 H   0  0  0  0  0  0  0  0  0  0  0  0
   12.9267  -13.5304  -10.2172 N   0  0  0  0  0  0  0  0  0  0  0  0
   12.5842  -13.4768  -11.6089 C   0  0  0  0  0  0  0  0  0  0  0  0
   11.3789  -13.5888  -11.9422 O   0  0  0  0  0  0  0  0  0  0  0  0
   13.8572  -13.7246   -9.9608 H   0  0  0  0  0  0  0  0  0  0  0  0
   11.9509  -13.3089   -9.1872 C   0  0  0  0  0  0  0  0  0  0  0  0
   12.0951  -11.9642   -8.5024 C   0  0  0  0  0  0  0  0  0  0  0  0
   11.6296  -11.8146   -7.3453 O   0  0  0  0  0  0  0  0  0  0  0  0
   12.7213  -10.9977   -9.0528 O   0  0  0  0  0  0  0  0  0  0  0  0
   13.0727  -11.0980   -9.9156 H   0  0  0  0  0  0  0  0  0  0  0  0
 19 20  1  0  0  0
 20 23  1  0  0  0
 20 18  1  0  0  0
 23 24  2  0  0  0
 23 25  1  0  0  0
 18 17  1  0  0  0
 17 13  1  0  0  0
 13 14  2  0  0  0
 13 15  1  0  0  0
 15  3  1  0  0  0
  3  4  1  0  0  0
  3  2  1  0  0  0
  4  5  2  0  0  0
  4  6  1  0  0  0
  2  1  1  0  0  0
  1 27  1  0  0  0
  6  8  1  0  0  0
  8  9  1  0  0  0
  9 10  2  0  0  0
  9 11  1  0  0  0
 44 48  1  0  0  0
 44 45  1  0  0  0
 48 49  1  0  0  0
 49 50  2  0  0  0
 49 51  1  0  0  0
 45 46  2  0  0  0
 45 29  1  0  0  0
 29 30  1  0  0  0
 29 28  1  0  0  0
 30 31  1  0  0  0
 28 27  1  0  0  0
 36 40  1  0  0  0
 36 37  1  0  0  0
 36 35  1  0  0  0
 40 41  2  0  0  0
 40 42  1  0  0  0
 35 34  1  0  0  0
 34 31  1  0  0  0
 31 32  2  0  0  0
 19 21  1  0  0  0
 19 22  1  0  0  0
 25 26  1  0  0  0
 15 16  1  0  0  0
  6  7  1  0  0  0
 11 12  1  0  0  0
 44 47  1  0  0  0
 51 52  1  0  0  0
 30 33  1  0  0  0
 42 43  1  0  0  0
 37 38  1  0  0  0
 37 39  1  0  0  0
M  END
> <minimizedAffinity>
-9.65443

$$$$
3M8U_GDS_A_1


 52 51  0  0  0  0  0  0  0  0999 V2000
   15.0085  -14.9984  -15.2744 S   0  0  0  0  0  0  0  0  0  0  0  0
   13.9629  -16.2713  -15.9350 C   0  0  0  0  0  0  0  0  0  0  0  0
   14.0627  -17.6233  -15.1956 C   0  0  0  0  0  0  0  0  0  0  0  0
   14.1529  -18.7475  -16.1515 C   0  0  0  0  0  0  0  0  0  0  0  0
   13.3317  -18.8227  -17.0812 O   0  0  0  0  0  0  0  0  0  0  0  0
   15.1669  -19.7064  -16.0538 N   0  0  0  0  0  0  0  0  0  0  0  0
   15.9218  -19.6040  -15.4302 H   0  0  0  0  0  0  0  0  0  0  0  0
   15.0424  -20.8556  -16.9208 C   0  0  0  0  0  0  0  0  0  0  0  0
   16.0524  -20.7549  -18.0450 C   0  0  0  0  0  0  0  0  0  0  0  0
   17.2504  -20.4911  -17.7647 O   0  0  0  0  0  0  0  0  0  0  0  0
   15.6933  -21.0011  -19.2305 O   0  0  0  0  0  0  0  0  0  0  0  0
   14.7959  -21.1953  -19.4174 H   0  0  0  0  0  0  0  0  0  0  0  0
   15.4716  -18.2698  -13.2155 C   0  0  0  0  0  0  0  0  0  0  0  0
   14.7050  -19.1972  -12.9002 O   0  0  0  0  0  0  0  0  0  0  0  0
   15.3115  -17.5761  -14.4790 N   0  0  0  0  0  0  0  0  0  0  0  0
   16.0664  -17.0661  -14.8520 H   0  0  0  0  0  0  0  0  0  0  0  0
   16.7820  -18.0358  -12.3723 C   0  0  0  0  0  0  0  0  0  0  0  0
   17.5343  -16.8512  -12.9039 C   0  0  0  0  0  0  0  0  0  0  0  0
   18.8349  -15.2450  -11.7375 N   0  0  0  0  0  0  0  0  0  0  0  0
   18.7418  -16.6387  -12.0671 C   0  0  0  0  0  0  0  0  0  0  0  0
   19.6618  -15.0863  -11.1618 H   0  0  0  0  0  0  0  0  0  0  0  0
   18.0019  -14.9613  -11.2216 H   0  0  0  0  0  0  0  0  0  0  0  0
   19.9865  -16.9942  -12.7884 C   0  0  0  0  0  0  0  0  0  0  0  0
   19.9940  -16.9456  -14.0439 O   0  0  0  0  0  0  0  0  0  0  0  0
   20.9154  -17.5885  -12.2030 O   0  0  0  0  0  0  0  0  0  0  0  0
   20.9259  -17.6346  -11.2672 H   0  0  0  0  0  0  0  0  0  0  0  0
   14.2816  -14.2843  -13.5021 S   0  0  0  0  0  0  0  0  0  0  0  0
   15.5595  -13.2576  -12.8570 C   0  0  0  0  0  0  0  0  0  0  0  0
   14.9858  -11.8649  -12.5055 C   0  0  0  0  0  0  0  0  0  0  0  0
   13.5800  -11.8854  -12.7976 N   0  0  0  0  0  0  0  0  0  0  0  0
   12.5796  -11.2002  -11.9769 C   0  0  0  0  0  0  0  0  0  0  0  0
   12.9353  -10.5014  -11.0039 O   0  0  0  0  0  0  0  0  0  0  0  0
   13.2737  -12.3849  -13.5888 H   0  0  0  0  0  0  0  0  0  0  0  0
   11.1105  -11.5095  -12.2469 C   0  0  0  0  0  0  0  0  0  0  0  0
   10.2558  -10.2495  -12.3708 C   0  0  0  0  0  0  0  0  0  0  0  0
   10.2097   -9.7260  -13.8138 C   0  0  0  0  0  0  0  0  0  0  0  0
    9.7611  -10.7635  -14.7455 N   0  0  0  0  0  0  0  0  0  0  0  0
   10.4360  -11.5283  -14.7533 H   0  0  0  0  0  0  0  0  0  0  0  0
    9.6839  -10.3685  -15.6828 H   0  0  0  0  0  0  0  0  0  0  0  0
   11.5113   -9.1573  -14.2701 C   0  0  0  0  0  0  0  0  0  0  0  0
   11.8986   -8.0272  -13.8750 O   0  0  0  0  0  0  0  0  0  0  0  0
   12.2637   -9.8342  -15.0184 O   0  0  0  0  0  0  0  0  0  0  0  0
   11.9884  -10.6774  -15.3204 H   0  0  0  0  0  0  0  0  0  0  0  0
   16.9219  -10.2145  -12.8071 N   0  0  0  0  0  0  0  0  0  0  0  0
   15.6835  -10.7694  -13.2715 C   0  0  0  0  0  0  0  0  0  0  0  0
   15.1003  -10.2255  -14.2412 O   0  0  0  0  0  0  0  0  0  0  0  0
   17.2390  -10.4423  -11.9033 H   0  0  0  0  0  0  0  0  0  0  0  0
   17.7123   -9.3361  -13.6230 C   0  0  0  0  0  0  0  0  0  0  0  0
   17.1146   -7.9505  -13.7674 C   0  0  0  0  0  0  0  0  0  0  0  0
   17.2319   -7.1327  -12.8212 O   0  0  0  0  0  0  0  0  0  0  0  0
   16.5398   -7.5796  -14.8450 O   0  0  0  0  0  0  0  0  0  0  0  0
   16.4467   -8.1812  -15.5573 H   0  0  0  0  0  0  0  0  0  0  0  0
 19 20  1  0  0  0
 20 23  1  0  0  0
 20 18  1  0  0  0
 23 24  2  0  0  0
 23 25  1  0  0  0
 18 17  1  0  0  0
 17 13  1  0  0  0
 13 14  2  0  0  0
 13 15  1  0  0  0
 15  3  1  0  0  0
  3  4  1  0  0  0
  3  2  1  0  0  0
  4  5  2  0  0  0
  4  6  1  0  0  0
  2  1  1  0  0  0
  1 27  1  0  0  0
  6  8  1  0  0  0
  8  9  1  0  0  0
  9 10  2  0  0  0
  9 11  1  0  0  0
 44 48  1  0  0  0
 44 45  1  0  0  0
 48 49  1  0  0  0
 49 50  2  0  0  0
 49 51  1  0  0  0
 45 46  2  0  0  0
 45 29  1  0  0  0
 29 30  1  0  0  0
 29 28  1  0  0  0
 30 31  1  0  0  0
 28 27  1  0  0  0
 36 40  1  0  0  0
 36 37  1  0  0  0
 36 35  1  0  0  0
 40 41  2  0  0  0
 40 42  1  0  0  0
 35 34  1  0  0  0
 34 31  1  0  0  0
 31 32  2  0  0  0
 19 21  1  0  0  0
 19 22  1  0  0  0
 25 26  1  0  0  0
 15 16  1  0  0  0
  6  7  1  0  0  0
 11 12  1  0  0  0
 44 47  1  0  0  0
 51 52  1  0  0  0
 30 33  1  0  0  0
 42 43  1  0  0  0
 37 38  1  0  0  0
 37 39  1  0  0  0
M  END
> <minimizedAffinity>
-9.48506

$$$$
3M8U_GDS_A_1


 52 51  0  0  0  0  0  0  0  0999 V2000
   14.1323  -14.1843  -12.9965 S   0  0  0  0  0  0  0  0  0  0  0  0
   12.4632  -14.3195  -12.4085 C   0  0  0  0  0  0  0  0  0  0  0  0
   11.9264  -13.0453  -11.7208 C   0  0  0  0  0  0  0  0  0  0  0  0
   12.2144  -13.0614  -10.2707 C   0  0  0  0  0  0  0  0  0  0  0  0
   12.9716  -13.9327   -9.8106 O   0  0  0  0  0  0  0  0  0  0  0  0
   11.6831  -12.0927   -9.4125 N   0  0  0  0  0  0  0  0  0  0  0  0
   11.2048  -11.3021   -9.7523 H   0  0  0  0  0  0  0  0  0  0  0  0
   11.8767  -12.3194   -7.9986 C   0  0  0  0  0  0  0  0  0  0  0  0
   12.4463  -11.0709   -7.3577 C   0  0  0  0  0  0  0  0  0  0  0  0
   12.3713  -10.9399   -6.1085 O   0  0  0  0  0  0  0  0  0  0  0  0
   13.0426  -10.2184   -8.0736 O   0  0  0  0  0  0  0  0  0  0  0  0
   13.0869  -10.3352   -9.0023 H   0  0  0  0  0  0  0  0  0  0  0  0
   12.0444  -10.6889  -12.5908 C   0  0  0  0  0  0  0  0  0  0  0  0
   10.9700  -10.3740  -12.0488 O   0  0  0  0  0  0  0  0  0  0  0  0
   12.6798  -11.9572  -12.2897 N   0  0  0  0  0  0  0  0  0  0  0  0
   13.6390  -12.0763  -12.4766 H   0  0  0  0  0  0  0  0  0  0  0  0
   12.8527   -9.5955  -13.3871 C   0  0  0  0  0  0  0  0  0  0  0  0
   14.3058   -9.6553  -13.0172 C   0  0  0  0  0  0  0  0  0  0  0  0
   13.5003   -7.5791  -12.1971 N   0  0  0  0  0  0  0  0  0  0  0  0
   14.6757   -8.3913  -12.3324 C   0  0  0  0  0  0  0  0  0  0  0  0
   13.7421   -6.7066  -11.7274 H   0  0  0  0  0  0  0  0  0  0  0  0
   12.8027   -8.0797  -11.6465 H   0  0  0  0  0  0  0  0  0  0  0  0
   15.6559   -7.6023  -13.1153 C   0  0  0  0  0  0  0  0  0  0  0  0
   16.1722   -8.1199  -14.1371 O   0  0  0  0  0  0  0  0  0  0  0  0
   16.1696   -6.5692  -12.6384 O   0  0  0  0  0  0  0  0  0  0  0  0
   15.7977   -6.1697  -11.8767 H   0  0  0  0  0  0  0  0  0  0  0  0
   14.4241  -15.3176  -14.6728 S   0  0  0  0  0  0  0  0  0  0  0  0
   13.9832  -16.9580  -14.2060 C   0  0  0  0  0  0  0  0  0  0  0  0
   15.1829  -17.9077  -14.4312 C   0  0  0  0  0  0  0  0  0  0  0  0
   14.8401  -18.7970  -15.5053 N   0  0  0  0  0  0  0  0  0  0  0  0
   15.8242  -19.6206  -16.2106 C   0  0  0  0  0  0  0  0  0  0  0  0
   17.0193  -19.6237  -15.8459 O   0  0  0  0  0  0  0  0  0  0  0  0
   13.8968  -18.8558  -15.7811 H   0  0  0  0  0  0  0  0  0  0  0  0
   15.3741  -20.3225  -17.4879 C   0  0  0  0  0  0  0  0  0  0  0  0
   16.3525  -21.4041  -17.9423 C   0  0  0  0  0  0  0  0  0  0  0  0
   16.0094  -22.7768  -17.3454 C   0  0  0  0  0  0  0  0  0  0  0  0
   14.6264  -22.8209  -16.8646 N   0  0  0  0  0  0  0  0  0  0  0  0
   14.5104  -22.1540  -16.1015 H   0  0  0  0  0  0  0  0  0  0  0  0
   14.4125  -23.7605  -16.5304 H   0  0  0  0  0  0  0  0  0  0  0  0
   16.9425  -23.1895  -16.2569 C   0  0  0  0  0  0  0  0  0  0  0  0
   17.8428  -24.0437  -16.4646 O   0  0  0  0  0  0  0  0  0  0  0  0
   16.8694  -22.6408  -15.1265 O   0  0  0  0  0  0  0  0  0  0  0  0
   16.2041  -22.0030  -14.9575 H   0  0  0  0  0  0  0  0  0  0  0  0
   14.9117  -19.9409  -12.8965 N   0  0  0  0  0  0  0  0  0  0  0  0
   15.5242  -18.6752  -13.1789 C   0  0  0  0  0  0  0  0  0  0  0  0
   16.2321  -18.1326  -12.2953 O   0  0  0  0  0  0  0  0  0  0  0  0
   14.1504  -20.2372  -13.4460 H   0  0  0  0  0  0  0  0  0  0  0  0
   15.3773  -20.7883  -11.8348 C   0  0  0  0  0  0  0  0  0  0  0  0
   14.4953  -20.7469  -10.6026 C   0  0  0  0  0  0  0  0  0  0  0  0
   13.2520  -20.8653  -10.7367 O   0  0  0  0  0  0  0  0  0  0  0  0
   14.9895  -20.6451   -9.4301 O   0  0  0  0  0  0  0  0  0  0  0  0
   15.9155  -20.5563   -9.3181 H   0  0  0  0  0  0  0  0  0  0  0  0
 19 20  1  0  0  0
 20 23  1  0  0  0
 20 18  1  0  0  0
 23 24  2  0  0  0
 23 25  1  0  0  0
 18 17  1  0  0  0
 17 13  1  0  0  0
 13 14  2  0  0  0
 13 15  1  0  0  0
 15  3  1  0  0  0
  3  4  1  0  0  0
  3  2  1  0  0  0
  4  5  2  0  0  0
  4  6  1  0  0  0
  2  1  1  0  0  0
  1 27  1  0  0  0
  6  8  1  0  0  0
  8  9  1  0  0  0
  9 10  2  0  0  0
  9 11  1  0  0  0
 44 48  1  0  0  0
 44 45  1  0  0  0
 48 49  1  0  0  0
 49 50  2  0  0  0
 49 51  1  0  0  0
 45 46  2  0  0  0
 45 29  1  0  0  0
 29 30  1  0  0  0
 29 28  1  0  0  0
 30 31  1  0  0  0
 28 27  1  0  0  0
 36 40  1  0  0  0
 36 37  1  0  0  0
 36 35  1  0  0  0
 40 41  2  0  0  0
 40 42  1  0  0  0
 35 34  1  0  0  0
 34 31  1  0  0  0
 31 32  2  0  0  0
 19 21  1  0  0  0
 19 22  1  0  0  0
 25 26  1  0  0  0
 15 16  1  0  0  0
  6  7  1  0  0  0
 11 12  1  0  0  0
 44 47  1  0  0  0
 51 52  1  0  0  0
 30 33  1  0  0  0
 42 43  1  0  0  0
 37 38  1  0  0  0
 37 39  1  0  0  0
M  END
> <minimizedAffinity>
-9.32191

$$$$
3M8U_GDS_A_1


 52 51  0  0  0  0  0  0  0  0999 V2000
   13.8900  -15.4676  -13.9909 S   0  0  0  0  0  0  0  0  0  0  0  0
   13.7296  -17.2324  -14.0867 C   0  0  0  0  0  0  0  0  0  0  0  0
   15.0607  -17.9799  -14.3197 C   0  0  0  0  0  0  0  0  0  0  0  0
   15.4171  -18.8101  -13.1494 C   0  0  0  0  0  0  0  0  0  0  0  0
   16.2243  -18.3689  -12.3140 O   0  0  0  0  0  0  0  0  0  0  0  0
   14.8347  -20.0652  -12.9431 N   0  0  0  0  0  0  0  0  0  0  0  0
   14.0846  -20.3879  -13.4931 H   0  0  0  0  0  0  0  0  0  0  0  0
   15.3977  -20.8609  -11.8764 C   0  0  0  0  0  0  0  0  0  0  0  0
   14.4603  -20.8510  -10.6868 C   0  0  0  0  0  0  0  0  0  0  0  0
   13.2458  -21.1268  -10.8670 O   0  0  0  0  0  0  0  0  0  0  0  0
   14.9206  -20.6335   -9.5312 O   0  0  0  0  0  0  0  0  0  0  0  0
   15.8283  -20.4297   -9.4192 H   0  0  0  0  0  0  0  0  0  0  0  0
   15.8978  -19.4131  -16.2089 C   0  0  0  0  0  0  0  0  0  0  0  0
   17.0599  -19.4191  -15.7654 O   0  0  0  0  0  0  0  0  0  0  0  0
   14.8071  -18.8800  -15.4155 N   0  0  0  0  0  0  0  0  0  0  0  0
   13.8809  -19.1367  -15.6287 H   0  0  0  0  0  0  0  0  0  0  0  0
   15.5684  -20.2356  -17.5119 C   0  0  0  0  0  0  0  0  0  0  0  0
   15.1144  -21.6191  -17.1489 C   0  0  0  0  0  0  0  0  0  0  0  0
   16.4661  -23.5321  -17.5303 N   0  0  0  0  0  0  0  0  0  0  0  0
   16.2864  -22.3957  -16.6725 C   0  0  0  0  0  0  0  0  0  0  0  0
   17.2696  -24.0742  -17.2127 H   0  0  0  0  0  0  0  0  0  0  0  0
   16.6266  -23.2146  -18.4862 H   0  0  0  0  0  0  0  0  0  0  0  0
   16.0848  -22.9196  -15.3011 C   0  0  0  0  0  0  0  0  0  0  0  0
   14.9644  -22.7674  -14.7532 O   0  0  0  0  0  0  0  0  0  0  0  0
   17.0595  -23.2541  -14.5963 O   0  0  0  0  0  0  0  0  0  0  0  0
   17.9024  -23.3721  -14.9882 H   0  0  0  0  0  0  0  0  0  0  0  0
   15.1092  -14.9145  -12.4460 S   0  0  0  0  0  0  0  0  0  0  0  0
   14.4771  -13.3681  -11.8871 C   0  0  0  0  0  0  0  0  0  0  0  0
   14.2654  -12.4218  -13.0921 C   0  0  0  0  0  0  0  0  0  0  0  0
   15.5595  -12.0879  -13.6175 N   0  0  0  0  0  0  0  0  0  0  0  0
   16.6360  -11.5238  -12.8009 C   0  0  0  0  0  0  0  0  0  0  0  0
   16.4789  -11.3710  -11.5707 O   0  0  0  0  0  0  0  0  0  0  0  0
   15.7313  -12.2460  -14.5739 H   0  0  0  0  0  0  0  0  0  0  0  0
   17.8635  -10.9808  -13.5256 C   0  0  0  0  0  0  0  0  0  0  0  0
   17.9730   -9.4594  -13.4411 C   0  0  0  0  0  0  0  0  0  0  0  0
   16.8045   -8.7589  -14.1498 C   0  0  0  0  0  0  0  0  0  0  0  0
   17.1869   -8.3014  -15.4878 N   0  0  0  0  0  0  0  0  0  0  0  0
   17.9210   -7.5976  -15.4096 H   0  0  0  0  0  0  0  0  0  0  0  0
   16.3750   -7.8957  -15.9532 H   0  0  0  0  0  0  0  0  0  0  0  0
   16.2411   -7.6234  -13.3629 C   0  0  0  0  0  0  0  0  0  0  0  0
   15.0118   -7.5634  -13.1015 O   0  0  0  0  0  0  0  0  0  0  0  0
   17.0076   -6.7367  -12.9042 O   0  0  0  0  0  0  0  0  0  0  0  0
   17.9254   -6.7687  -13.0907 H   0  0  0  0  0  0  0  0  0  0  0  0
   13.0828  -10.2262  -13.6782 N   0  0  0  0  0  0  0  0  0  0  0  0
   13.5041  -11.1822  -12.6955 C   0  0  0  0  0  0  0  0  0  0  0  0
   13.3722  -10.9008  -11.4791 O   0  0  0  0  0  0  0  0  0  0  0  0
   13.4263  -10.3023  -14.5976 H   0  0  0  0  0  0  0  0  0  0  0  0
   12.1740   -9.1611  -13.3589 C   0  0  0  0  0  0  0  0  0  0  0  0
   10.7163   -9.5620  -13.4691 C   0  0  0  0  0  0  0  0  0  0  0  0
   10.1421  -10.0601  -12.4690 O   0  0  0  0  0  0  0  0  0  0  0  0
   10.0464   -9.3596  -14.5366 O   0  0  0  0  0  0  0  0  0  0  0  0
   10.4643   -8.9886  -15.2887 H   0  0  0  0  0  0  0  0  0  0  0  0
 19 20  1  0  0  0
 20 23  1  0  0  0
 20 18  1  0  0  0
 23 24  2  0  0  0
 23 25  1  0  0  0
 18 17  1  0  0  0
 17 13  1  0  0  0
 13 14  2  0  0  0
 13 15  1  0  0  0
 15  3  1  0  0  0
  3  4  1  0  0  0
  3  2  1  0  0  0
  4  5  2  0  0  0
  4  6  1  0  0  0
  2  1  1  0  0  0
  1 27  1  0  0  0
  6  8  1  0  0  0
  8  9  1  0  0  0
  9 10  2  0  0  0
  9 11  1  0  0  0
 44 48  1  0  0  0
 44 45  1  0  0  0
 48 49  1  0  0  0
 49 50  2  0  0  0
 49 51  1  0  0  0
 45 46  2  0  0  0
 45 29  1  0  0  0
 29 30  1  0  0  0
 29 28  1  0  0  0
 30 31  1  0  0  0
 28 27  1  0  0  0
 36 40  1  0  0  0
 36 37  1  0  0  0
 36 35  1  0  0  0
 40 41  2  0  0  0
 40 42  1  0  0  0
 35 34  1  0  0  0
 34 31  1  0  0  0
 31 32  2  0  0  0
 19 21  1  0  0  0
 19 22  1  0  0  0
 25 26  1  0  0  0
 15 16  1  0  0  0
  6  7  1  0  0  0
 11 12  1  0  0  0
 44 47  1  0  0  0
 51 52  1  0  0  0
 30 33  1  0  0  0
 42 43  1  0  0  0
 37 38  1  0  0  0
 37 39  1  0  0  0
M  END
> <minimizedAffinity>
-9.11891

$$$$
3M8U_GDS_A_1


 52 51  0  0  0  0  0  0  0  0999 V2000
   13.6665  -15.2162  -13.4507 S   0  0  0  0  0  0  0  0  0  0  0  0
   14.9072  -14.4630  -12.4294 C   0  0  0  0  0  0  0  0  0  0  0  0
   14.6660  -12.9663  -12.1356 C   0  0  0  0  0  0  0  0  0  0  0  0
   15.5719  -12.1140  -12.9349 C   0  0  0  0  0  0  0  0  0  0  0  0
   15.8056  -12.4163  -14.1174 O   0  0  0  0  0  0  0  0  0  0  0  0
   16.1404  -10.9535  -12.3991 N   0  0  0  0  0  0  0  0  0  0  0  0
   15.8668  -10.5962  -11.5235 H   0  0  0  0  0  0  0  0  0  0  0  0
   17.1522  -10.3094  -13.2050 C   0  0  0  0  0  0  0  0  0  0  0  0
   16.5545   -9.1056  -13.9033 C   0  0  0  0  0  0  0  0  0  0  0  0
   17.1383   -8.6371  -14.9148 O   0  0  0  0  0  0  0  0  0  0  0  0
   15.4529   -8.6353  -13.5033 O   0  0  0  0  0  0  0  0  0  0  0  0
   15.0349   -8.9990  -12.7476 H   0  0  0  0  0  0  0  0  0  0  0  0
   12.5111  -11.6839  -11.9471 C   0  0  0  0  0  0  0  0  0  0  0  0
   13.0380  -10.7865  -11.2657 O   0  0  0  0  0  0  0  0  0  0  0  0
   13.3247  -12.6989  -12.5881 N   0  0  0  0  0  0  0  0  0  0  0  0
   12.9555  -13.2122  -13.3427 H   0  0  0  0  0  0  0  0  0  0  0  0
   10.9911  -11.5562  -12.3425 C   0  0  0  0  0  0  0  0  0  0  0  0
   10.5544  -10.1228  -12.2612 C   0  0  0  0  0  0  0  0  0  0  0  0
    9.9718  -10.5498  -14.5217 N   0  0  0  0  0  0  0  0  0  0  0  0
   10.5104   -9.5593  -13.6338 C   0  0  0  0  0  0  0  0  0  0  0  0
    9.9365  -10.1738  -15.4692 H   0  0  0  0  0  0  0  0  0  0  0  0
    9.0302  -10.8006  -14.2202 H   0  0  0  0  0  0  0  0  0  0  0  0
   11.8619   -9.2193  -14.1377 C   0  0  0  0  0  0  0  0  0  0  0  0
   12.4090   -8.1613  -13.7379 O   0  0  0  0  0  0  0  0  0  0  0  0
   12.3376   -9.8047  -15.1326 O   0  0  0  0  0  0  0  0  0  0  0  0
   11.9424  -10.5949  -15.4445 H   0  0  0  0  0  0  0  0  0  0  0  0
   14.2402  -15.2532  -15.4126 S   0  0  0  0  0  0  0  0  0  0  0  0
   13.9433  -16.9039  -15.9514 C   0  0  0  0  0  0  0  0  0  0  0  0
   15.2549  -17.7209  -15.8855 C   0  0  0  0  0  0  0  0  0  0  0  0
   15.0253  -18.9698  -16.5559 N   0  0  0  0  0  0  0  0  0  0  0  0
   16.0743  -19.9676  -16.7755 C   0  0  0  0  0  0  0  0  0  0  0  0
   17.2218  -19.7860  -16.3154 O   0  0  0  0  0  0  0  0  0  0  0  0
   14.1179  -19.1649  -16.8841 H   0  0  0  0  0  0  0  0  0  0  0  0
   15.7623  -21.1270  -17.7162 C   0  0  0  0  0  0  0  0  0  0  0  0
   16.5871  -22.3752  -17.4074 C   0  0  0  0  0  0  0  0  0  0  0  0
   15.9529  -23.2224  -16.2946 C   0  0  0  0  0  0  0  0  0  0  0  0
   14.5619  -22.8326  -16.0520 N   0  0  0  0  0  0  0  0  0  0  0  0
   14.5324  -21.8706  -15.7141 H   0  0  0  0  0  0  0  0  0  0  0  0
   14.1525  -23.4515  -15.3522 H   0  0  0  0  0  0  0  0  0  0  0  0
   16.7251  -23.1822  -15.0187 C   0  0  0  0  0  0  0  0  0  0  0  0
   17.9300  -23.5424  -14.9791 O   0  0  0  0  0  0  0  0  0  0  0  0
   16.1869  -22.7321  -13.9737 O   0  0  0  0  0  0  0  0  0  0  0  0
   15.2903  -22.4600  -13.9884 H   0  0  0  0  0  0  0  0  0  0  0  0
   16.9480  -17.4243  -13.9860 N   0  0  0  0  0  0  0  0  0  0  0  0
   15.6981  -17.9425  -14.4614 C   0  0  0  0  0  0  0  0  0  0  0  0
   15.0441  -18.7210  -13.7248 O   0  0  0  0  0  0  0  0  0  0  0  0
   17.5902  -17.0546  -14.6343 H   0  0  0  0  0  0  0  0  0  0  0  0
   17.2894  -17.4292  -12.5912 C   0  0  0  0  0  0  0  0  0  0  0  0
   18.6551  -16.8367  -12.3050 C   0  0  0  0  0  0  0  0  0  0  0  0
   19.6467  -17.2421  -12.9610 O   0  0  0  0  0  0  0  0  0  0  0  0
   18.8123  -15.9020  -11.4502 O   0  0  0  0  0  0  0  0  0  0  0  0
   18.0798  -15.5917  -10.9551 H   0  0  0  0  0  0  0  0  0  0  0  0
 19 20  1  0  0  0
 20 23  1  0  0  0
 20 18  1  0  0  0
 23 24  2  0  0  0
 23 25  1  0  0  0
 18 17  1  0  0  0
 17 13  1  0  0  0
 13 14  2  0  0  0
 13 15  1  0  0  0
 15  3  1  0  0  0
  3  4  1  0  0  0
  3  2  1  0  0  0
  4  5  2  0  0  0
  4  6  1  0  0  0
  2  1  1  0  0  0
  1 27  1  0  0  0
  6  8  1  0  0  0
  8  9  1  0  0  0
  9 10  2  0  0  0
  9 11  1  0  0  0
 44 48  1  0  0  0
 44 45  1  0  0  0
 48 49  1  0  0  0
 49 50  2  0  0  0
 49 51  1  0  0  0
 45 46  2  0  0  0
 45 29  1  0  0  0
 29 30  1  0  0  0
 29 28  1  0  0  0
 30 31  1  0  0  0
 28 27  1  0  0  0
 36 40  1  0  0  0
 36 37  1  0  0  0
 36 35  1  0  0  0
 40 41  2  0  0  0
 40 42  1  0  0  0
 35 34  1  0  0  0
 34 31  1  0  0  0
 31 32  2  0  0  0
 19 21  1  0  0  0
 19 22  1  0  0  0
 25 26  1  0  0  0
 15 16  1  0  0  0
  6  7  1  0  0  0
 11 12  1  0  0  0
 44 47  1  0  0  0
 51 52  1  0  0  0
 30 33  1  0  0  0
 42 43  1  0  0  0
 37 38  1  0  0  0
 37 39  1  0  0  0
M  END
> <minimizedAffinity>
-8.88247

$$$$
