3M8U_GDS_A_1
  RCSB PDB12061709433D
Coordinates from PDB:3M8U:A:1 Model:1 without hydrogens
 40 39  0  0  0  0            999 V2000
   12.2740   -9.7170  -11.9950   N 0  0  0  0  0  0  0  0  0  0  0  0
   11.8080  -11.0720  -12.0750   C 0  0  0  0  0  0  0  0  0  0  0  0
   10.4270  -11.0210  -12.6100   C 0  0  0  0  0  0  0  0  0  0  0  0
    9.8180   -9.9220  -12.6110   O 0  0  0  0  0  0  0  0  0  0  0  0
    9.7770  -12.0700  -12.7990   O 0  0  0  0  0  0  0  0  0  0  0  0
   11.8570  -11.6740  -10.7190   C 0  0  0  0  0  0  0  0  0  0  0  0
   13.2900  -11.9390  -10.3610   C 0  0  0  0  0  0  0  0  0  0  0  0
   13.8140  -13.2130  -11.1260   C 0  0  0  0  0  0  0  0  0  0  0  0
   13.3810  -14.3340  -10.8050   O 0  0  0  0  0  0  0  0  0  0  0  0
   14.9630  -13.0880  -12.0020   N 0  0  0  0  0  0  0  0  0  0  0  0
   15.3680  -14.1790  -12.8510   C 0  0  0  0  0  0  0  0  0  0  0  0
   16.8030  -14.4220  -12.5910   C 0  0  0  0  0  0  0  0  0  0  0  0
   17.5800  -13.4550  -12.5170   O 0  0  0  0  0  0  0  0  0  0  0  0
   15.1410  -13.6810  -14.2950   C 0  0  0  0  0  0  0  0  0  0  0  0
   15.4180  -14.9110  -15.5440   S 0  0  0  0  0  0  0  0  0  0  0  0
   17.2970  -15.7150  -12.3880   N 0  0  0  0  0  0  0  0  0  0  0  0
   18.7350  -15.8460  -12.3330   C 0  0  0  0  0  0  0  0  0  0  0  0
   19.1490  -17.1620  -12.9580   C 0  0  0  0  0  0  0  0  0  0  0  0
   18.3690  -17.7210  -13.7720   O 0  0  0  0  0  0  0  0  0  0  0  0
   20.2900  -17.6410  -12.7060   O 0  0  0  0  0  0  0  0  0  0  0  0
   15.0630  -20.2220  -13.0990   N 0  0  0  0  0  0  0  0  0  0  0  0
   15.5180  -20.9390  -11.9410   C 0  0  0  0  0  0  0  0  0  0  0  0
   14.5110  -20.9510  -10.8080   C 0  0  0  0  0  0  0  0  0  0  0  0
   14.9080  -21.1880   -9.6400   O 0  0  0  0  0  0  0  0  0  0  0  0
   13.2800  -20.6770  -11.0050   O 0  0  0  0  0  0  0  0  0  0  0  0
   15.2830  -18.8130  -13.2520   C 0  0  0  0  0  0  0  0  0  0  0  0
   15.5540  -18.1270  -12.2360   O 0  0  0  0  0  0  0  0  0  0  0  0
   15.0120  -18.1210  -14.5640   C 0  0  0  0  0  0  0  0  0  0  0  0
   14.7900  -19.0740  -15.6150   N 0  0  0  0  0  0  0  0  0  0  0  0
   13.7620  -17.2140  -14.4800   C 0  0  0  0  0  0  0  0  0  0  0  0
   13.7600  -16.0740  -15.8230   S 0  0  0  0  0  0  0  0  0  0  0  0
   15.7970  -23.0330  -16.8590   C 0  0  0  0  0  0  0  0  0  0  0  0
   15.9110  -22.8180  -15.3870   C 0  0  0  0  0  0  0  0  0  0  0  0
   14.9040  -22.5130  -14.6970   O 0  0  0  0  0  0  0  0  0  0  0  0
   17.0160  -22.9950  -14.8110   O 0  0  0  0  0  0  0  0  0  0  0  0
   14.4050  -23.3130  -17.2190   N 0  0  0  0  0  0  0  0  0  0  0  0
   16.3660  -21.8680  -17.6820   C 0  0  0  0  0  0  0  0  0  0  0  0
   15.5290  -20.5990  -17.5310   C 0  0  0  0  0  0  0  0  0  0  0  0
   15.8710  -19.8150  -16.2680   C 0  0  0  0  0  0  0  0  0  0  0  0
   17.0500  -19.6850  -15.8750   O 0  0  0  0  0  0  0  0  0  0  0  0
  1  2  1  0  0  0  0
  2  3  1  0  0  0  0
  2  6  1  0  0  0  0
  3  4  2  0  0  0  0
  3  5  1  0  0  0  0
  6  7  1  0  0  0  0
  7  8  1  0  0  0  0
  8  9  2  0  0  0  0
  8 10  1  0  0  0  0
 10 11  1  0  0  0  0
 11 12  1  0  0  0  0
 11 14  1  0  0  0  0
 12 13  2  0  0  0  0
 12 16  1  0  0  0  0
 14 15  1  0  0  0  0
 15 31  1  0  0  0  0
 16 17  1  0  0  0  0
 17 18  1  0  0  0  0
 18 19  2  0  0  0  0
 18 20  1  0  0  0  0
 21 22  1  0  0  0  0
 21 26  1  0  0  0  0
 22 23  1  0  0  0  0
 23 24  2  0  0  0  0
 23 25  1  0  0  0  0
 26 27  2  0  0  0  0
 26 28  1  0  0  0  0
 28 29  1  0  0  0  0
 28 30  1  0  0  0  0
 29 39  1  0  0  0  0
 30 31  1  0  0  0  0
 32 33  1  0  0  0  0
 32 36  1  0  0  0  0
 32 37  1  0  0  0  0
 33 34  2  0  0  0  0
 33 35  1  0  0  0  0
 37 38  1  0  0  0  0
 38 39  1  0  0  0  0
 39 40  2  0  0  0  0
A    1
N1
A    2
CA1
A    3
C1
A    4
OE1
A    5
OE2
A    6
CB1
A    7
CG1
A    8
CD1
A    9
O1
A   10
N2
A   11
CA2
A   12
C2
A   13
O2
A   14
CB2
A   15
SG2
A   16
N3
A   17
CA3
A   18
C3
A   19
OE3
A   20
OE4
A   21
N4
A   22
CA4
A   23
C4
A   24
OE5
A   25
OE6
A   26
C5
A   27
O5
A   28
CA5
A   29
N5
A   30
CB5
A   31
SG5
A   32
CA6
A   33
C6
A   34
OE7
A   35
OE8
A   36
N6
A   37
CB6
A   38
CG6
A   39
CD6
A   40
O6
M  END
>  <InstanceId>
3M8U_GDS_A_1

>  <ChemCompId>
GDS

>  <PdbId>
3M8U

>  <ChainId>
A

>  <ResidueNumber>
1

>  <InsertionCode>


>  <Model>
1

>  <AltIds>


>  <MissingHeavyAtoms>
0

>  <ObservedFormula>
C20 N6 O12 S2

>  <Name>
OXIDIZED GLUTATHIONE DISULFIDE

>  <SystematicName>
(2S)-2-amino-5-[[(2R)-3-[(2R)-2-[[(4S)-4-amino-5-hydroxy-5-oxo-pentanoyl]amino]-3-(carboxymethylamino)-3-oxo-propyl]disulfanyl-1-(carboxymethylamino)-1-oxo-propan-2-yl]amino]-5-oxo-pentanoic acid

>  <Synonyms>


>  <Type>
NON-POLYMER

>  <Formula>
C20 H32 N6 O12 S2

>  <MolecularWeight>
612.631

>  <ModifiedDate>
2011-06-04

>  <Parent>


>  <OneLetterCode>


>  <SubcomponentList>


>  <AmbiguousFlag>
N

>  <InChI>
InChI=1S/C20H32N6O12S2/c21-9(19(35)36)1-3-13(27)25-11(17(33)23-5-15(29)30)7-39-40-8-12(18(34)24-6-16(31)32)26-14(28)4-2-10(22)20(37)38/h9-12H,1-8,21-22H2,(H,23,33)(H,24,34)(H,25,27)(H,26,28)(H,29,30)(H,31,32)(H,35,36)(H,37,38)/t9-,10-,11-,12-/m0/s1

>  <InChIKey>
YPZRWBKMTBYPTK-BJDJZHNGSA-N

>  <SMILES>
C(CC(=O)N[C@@H](CSSC[C@@H](C(=O)NCC(=O)O)NC(=O)CC[C@@H](C(=O)O)N)C(=O)NCC(=O)O)[C@@H](C(=O)O)N

$$$$
