2ARM_OIN_A_401
  RCSB PDB12061705023D
Coordinates from PDB:2ARM:A:401 Model:1 without hydrogens
 21 23  0  0  0  0            999 V2000
   14.3500   22.8900    1.4090   C 0  0  0  0  0  0  0  0  0  0  0  0
   13.9530   23.7980    0.3230   N 0  0  0  0  0  0  0  0  0  0  0  0
   14.2440   25.1580    0.3700   C 0  0  0  0  0  0  0  0  0  0  0  0
   13.9740   25.5840   -1.0310   C 0  0  0  0  0  0  0  0  0  0  0  0
   12.6670   24.8070   -1.2000   C 0  0  0  0  0  0  0  0  0  0  0  0
   12.6310   24.1650    0.1470   C 0  0  0  0  0  0  0  0  0  0  0  0
   11.7730   24.6900    1.2640   C 0  0  0  0  0  0  0  0  0  0  0  0
   12.4120   25.9400    1.7980   C 0  0  0  0  0  0  0  0  0  0  0  0
   13.9180   26.0490    1.5450   C 0  0  0  0  0  0  0  0  0  0  0  0
   11.5720   26.8250    2.6270   O 0  0  0  0  0  0  0  0  0  0  0  0
   10.3380   26.1920    3.1490   C 0  0  0  0  0  0  0  0  0  0  0  0
   10.4440   25.4730    4.1360   O 0  0  0  0  0  0  0  0  0  0  0  0
    8.9630   26.4510    2.5290   C 0  0  0  0  0  0  0  0  0  0  0  0
    7.8550   26.2850    3.5610   C 0  0  0  0  0  0  0  0  0  0  0  0
    7.9420   27.2370    4.6070   O 0  0  0  0  0  0  0  0  0  0  0  0
    8.6980   25.6100    1.3170   C 0  0  0  0  0  0  0  0  0  0  0  0
    8.3620   26.2330    0.1210   C 0  0  0  0  0  0  0  0  0  0  0  0
    8.1380   25.4890   -1.0280   C 0  0  0  0  0  0  0  0  0  0  0  0
    8.2400   24.1100   -0.9950   C 0  0  0  0  0  0  0  0  0  0  0  0
    8.5780   23.4790    0.1870   C 0  0  0  0  0  0  0  0  0  0  0  0
    8.8000   24.2230    1.3380   C 0  0  0  0  0  0  0  0  0  0  0  0
  1  2  1  0  0  0  0
  2  3  1  0  0  0  0
  2  6  1  0  0  0  0
  3  4  1  0  0  0  0
  3  9  1  0  0  0  0
  4  5  1  0  0  0  0
  5  6  1  0  0  0  0
  6  7  1  0  0  0  0
  7  8  1  0  0  0  0
  8  9  1  0  0  0  0
  8 10  1  0  0  0  0
 10 11  1  0  0  0  0
 11 12  2  0  0  0  0
 11 13  1  0  0  0  0
 13 14  1  0  0  0  0
 13 16  1  0  0  0  0
 14 15  1  0  0  0  0
 16 17  2  0  0  0  0
 16 21  1  0  0  0  0
 17 18  1  0  0  0  0
 18 19  2  0  0  0  0
 19 20  1  0  0  0  0
 20 21  2  0  0  0  0
A    1
C10
A    2
N
A    3
C11
A    4
C17
A    5
C16
A    6
C15
A    7
C14
A    8
C13
A    9
C12
A   10
O2
A   11
C7
A   12
O3
A   13
C9
A   14
C8
A   15
OH
A   16
C6
A   17
C5
A   18
C4
A   19
C3
A   20
C2
A   21
C1
M  END
>  <InstanceId>
2ARM_OIN_A_401

>  <ChemCompId>
OIN

>  <PdbId>
2ARM

>  <ChainId>
A

>  <ResidueNumber>
401

>  <InsertionCode>


>  <Model>
1

>  <AltIds>


>  <MissingHeavyAtoms>
0

>  <ObservedFormula>
C17 N O3

>  <Name>
(1R,5S)-8-METHYL-8-AZABICYCLO[3.2.1]OCT-3-YL (2R)-3-HYDROXY-2-PHENYLPROPANOATE

>  <SystematicName>
[(1S,5R)-8-methyl-8-azabicyclo[3.2.1]octan-3-yl] (2S)-3-hydroxy-2-phenyl-propanoate

>  <Synonyms>
ATROPINE

>  <Type>
NON-POLYMER

>  <Formula>
C17 H23 N O3

>  <MolecularWeight>
289.369

>  <ModifiedDate>
2011-06-04

>  <Parent>


>  <OneLetterCode>


>  <SubcomponentList>


>  <AmbiguousFlag>
N

>  <InChI>
InChI=1S/C17H23NO3/c1-18-13-7-8-14(18)10-15(9-13)21-17(20)16(11-19)12-5-3-2-4-6-12/h2-6,13-16,19H,7-11H2,1H3/t13-,14+,15-,16-/m1/s1

>  <InChIKey>
RKUNBYITZUJHSG-QKPAOTATSA-N

>  <SMILES>
CN1[C@H]2CC[C@@H]1CC(C2)OC(=O)[C@H](CO)c3ccccc3

$$$$
