2ARM_OIN_A_401


 22 24  0  0  0  0  0  0  0  0999 V2000
    8.8134   25.3854    3.7197 C   0  0  0  0  0  0  0  0  0  0  0  0
    8.1437   26.3555    3.3839 O   0  0  0  0  0  0  0  0  0  0  0  0
   10.2819   25.5640    3.8071 O   0  0  0  0  0  0  0  0  0  0  0  0
   11.0341   25.6326   -1.1035 C   0  0  0  0  0  0  0  0  0  0  0  0
   12.2117   25.4482   -0.2429 N   0  0  0  0  0  0  0  0  0  0  0  0
   12.2761   24.4171    0.6894 C   0  0  0  0  0  0  0  0  0  0  0  0
   13.7190   24.4178    1.0570 C   0  0  0  0  0  0  0  0  0  0  0  0
   13.8673   25.9359    1.1758 C   0  0  0  0  0  0  0  0  0  0  0  0
   12.4704   26.3108    0.8071 C   0  0  0  0  0  0  0  0  0  0  0  0
   11.4387   26.6766    1.8373 C   0  0  0  0  0  0  0  0  0  0  0  0
   10.9953   25.4167    2.5244 C   0  0  0  0  0  0  0  0  0  0  0  0
   11.1993   24.1362    1.7104 C   0  0  0  0  0  0  0  0  0  0  0  0
    8.1383   24.0375    3.9833 C   0  0  0  0  0  0  0  0  0  0  0  0
    7.1699   24.0799    5.1265 C   0  0  0  0  0  0  0  0  0  0  0  0
    6.1665   23.1212    5.1996 C   0  0  0  0  0  0  0  0  0  0  0  0
    5.2702   23.1116    6.2581 C   0  0  0  0  0  0  0  0  0  0  0  0
    5.3607   24.0659    7.2552 C   0  0  0  0  0  0  0  0  0  0  0  0
    6.3569   25.0217    7.1964 C   0  0  0  0  0  0  0  0  0  0  0  0
    7.2529   25.0332    6.1359 C   0  0  0  0  0  0  0  0  0  0  0  0
    7.4713   23.5015    2.7231 C   0  0  0  0  0  0  0  0  0  0  0  0
    7.8086   24.2532    1.5702 O   0  0  0  0  0  0  0  0  0  0  0  0
    7.5052   25.1679    1.6804 H   0  0  0  0  0  0  0  0  0  0  0  0
  4  5  1  0  0  0
  5  6  1  0  0  0
  5  9  1  0  0  0
  6  7  1  0  0  0
  6 12  1  0  0  0
  7  8  1  0  0  0
  8  9  1  0  0  0
  9 10  1  0  0  0
 10 11  1  0  0  0
 11 12  1  0  0  0
 11  3  1  0  0  0
  3  1  1  0  0  0
  1  2  2  0  0  0
  1 13  1  0  0  0
 13 20  1  0  0  0
 13 14  1  0  0  0
 20 21  1  0  0  0
 14 15  2  0  0  0
 14 19  1  0  0  0
 15 16  1  0  0  0
 16 17  2  0  0  0
 17 18  1  0  0  0
 18 19  2  0  0  0
 21 22  1  0  0  0
M  END
> <minimizedAffinity>
-7.56513

$$$$
2ARM_OIN_A_401


 22 24  0  0  0  0  0  0  0  0999 V2000
    8.2068   25.8477    4.3797 C   0  0  0  0  0  0  0  0  0  0  0  0
    7.9691   26.4812    3.3576 O   0  0  0  0  0  0  0  0  0  0  0  0
    9.4501   25.0421    4.4127 O   0  0  0  0  0  0  0  0  0  0  0  0
   12.8257   23.5860    1.0706 C   0  0  0  0  0  0  0  0  0  0  0  0
   11.7256   24.4360    0.5924 N   0  0  0  0  0  0  0  0  0  0  0  0
   11.4649   25.6773    1.1647 C   0  0  0  0  0  0  0  0  0  0  0  0
   10.5355   26.2888    0.1750 C   0  0  0  0  0  0  0  0  0  0  0  0
    9.6726   25.0448   -0.0446 C   0  0  0  0  0  0  0  0  0  0  0  0
   10.4075   24.1184    0.8662 C   0  0  0  0  0  0  0  0  0  0  0  0
    9.9154   23.7938    2.2489 C   0  0  0  0  0  0  0  0  0  0  0  0
   10.1763   24.9819    3.1301 C   0  0  0  0  0  0  0  0  0  0  0  0
   11.3007   25.9028    2.6490 C   0  0  0  0  0  0  0  0  0  0  0  0
    7.2142   25.8646    5.5445 C   0  0  0  0  0  0  0  0  0  0  0  0
    6.4982   24.5602    5.7241 C   0  0  0  0  0  0  0  0  0  0  0  0
    5.7289   24.3617    6.8644 C   0  0  0  0  0  0  0  0  0  0  0  0
    5.0291   23.1788    7.0510 C   0  0  0  0  0  0  0  0  0  0  0  0
    5.0948   22.1744    6.1024 C   0  0  0  0  0  0  0  0  0  0  0  0
    5.8525   22.3614    4.9620 C   0  0  0  0  0  0  0  0  0  0  0  0
    6.5551   23.5443    4.7758 C   0  0  0  0  0  0  0  0  0  0  0  0
    7.8925   26.2972    6.8379 C   0  0  0  0  0  0  0  0  0  0  0  0
    8.9340   27.2323    6.6169 O   0  0  0  0  0  0  0  0  0  0  0  0
    9.6197   26.8276    6.0628 H   0  0  0  0  0  0  0  0  0  0  0  0
  4  5  1  0  0  0
  5  6  1  0  0  0
  5  9  1  0  0  0
  6  7  1  0  0  0
  6 12  1  0  0  0
  7  8  1  0  0  0
  8  9  1  0  0  0
  9 10  1  0  0  0
 10 11  1  0  0  0
 11 12  1  0  0  0
 11  3  1  0  0  0
  3  1  1  0  0  0
  1  2  2  0  0  0
  1 13  1  0  0  0
 13 20  1  0  0  0
 13 14  1  0  0  0
 20 21  1  0  0  0
 14 15  2  0  0  0
 14 19  1  0  0  0
 15 16  1  0  0  0
 16 17  2  0  0  0
 17 18  1  0  0  0
 18 19  2  0  0  0
 21 22  1  0  0  0
M  END
> <minimizedAffinity>
-7.47767

$$$$
2ARM_OIN_A_401


 22 24  0  0  0  0  0  0  0  0999 V2000
    7.6448   24.7946    4.9381 C   0  0  0  0  0  0  0  0  0  0  0  0
    8.5478   24.0038    5.1864 O   0  0  0  0  0  0  0  0  0  0  0  0
    7.8837   25.7938    3.8702 O   0  0  0  0  0  0  0  0  0  0  0  0
    8.8630   25.2391   -0.9690 C   0  0  0  0  0  0  0  0  0  0  0  0
    9.7369   24.5359   -0.0187 N   0  0  0  0  0  0  0  0  0  0  0  0
    9.2215   23.6563    0.9285 C   0  0  0  0  0  0  0  0  0  0  0  0
   10.4467   22.9573    1.4053 C   0  0  0  0  0  0  0  0  0  0  0  0
   11.3260   24.2043    1.5163 C   0  0  0  0  0  0  0  0  0  0  0  0
   10.3282   25.2057    1.0372 C   0  0  0  0  0  0  0  0  0  0  0  0
    9.5575   26.0860    1.9809 C   0  0  0  0  0  0  0  0  0  0  0  0
    8.5036   25.2488    2.6476 C   0  0  0  0  0  0  0  0  0  0  0  0
    8.0892   23.9983    1.8675 C   0  0  0  0  0  0  0  0  0  0  0  0
    6.3483   24.7629    5.7507 C   0  0  0  0  0  0  0  0  0  0  0  0
    5.5311   23.5309    5.5039 C   0  0  0  0  0  0  0  0  0  0  0  0
    4.8775   22.9270    6.5714 C   0  0  0  0  0  0  0  0  0  0  0  0
    4.0892   21.8025    6.3762 C   0  0  0  0  0  0  0  0  0  0  0  0
    3.9492   21.2619    5.1107 C   0  0  0  0  0  0  0  0  0  0  0  0
    4.5902   21.8560    4.0403 C   0  0  0  0  0  0  0  0  0  0  0  0
    5.3814   22.9801    4.2355 C   0  0  0  0  0  0  0  0  0  0  0  0
    6.6272   24.9437    7.2372 C   0  0  0  0  0  0  0  0  0  0  0  0
    7.7974   25.7050    7.4801 O   0  0  0  0  0  0  0  0  0  0  0  0
    8.5652   25.2463    7.1048 H   0  0  0  0  0  0  0  0  0  0  0  0
  4  5  1  0  0  0
  5  6  1  0  0  0
  5  9  1  0  0  0
  6  7  1  0  0  0
  6 12  1  0  0  0
  7  8  1  0  0  0
  8  9  1  0  0  0
  9 10  1  0  0  0
 10 11  1  0  0  0
 11 12  1  0  0  0
 11  3  1  0  0  0
  3  1  1  0  0  0
  1  2  2  0  0  0
  1 13  1  0  0  0
 13 20  1  0  0  0
 13 14  1  0  0  0
 20 21  1  0  0  0
 14 15  2  0  0  0
 14 19  1  0  0  0
 15 16  1  0  0  0
 16 17  2  0  0  0
 17 18  1  0  0  0
 18 19  2  0  0  0
 21 22  1  0  0  0
M  END
> <minimizedAffinity>
-7.41322

$$$$
2ARM_OIN_A_401


 22 24  0  0  0  0  0  0  0  0999 V2000
    8.6986   23.4126    3.5877 C   0  0  0  0  0  0  0  0  0  0  0  0
    9.3714   22.8245    4.4267 O   0  0  0  0  0  0  0  0  0  0  0  0
    8.9638   23.1091    2.1617 O   0  0  0  0  0  0  0  0  0  0  0  0
   10.8637   25.5786   -1.7083 C   0  0  0  0  0  0  0  0  0  0  0  0
   10.7533   26.3031   -0.4338 N   0  0  0  0  0  0  0  0  0  0  0  0
   11.3379   25.8167    0.7315 C   0  0  0  0  0  0  0  0  0  0  0  0
   11.2639   26.9979    1.6350 C   0  0  0  0  0  0  0  0  0  0  0  0
    9.8301   27.3976    1.2812 C   0  0  0  0  0  0  0  0  0  0  0  0
    9.5619   26.3347    0.2682 C   0  0  0  0  0  0  0  0  0  0  0  0
    8.7712   25.0981    0.5922 C   0  0  0  0  0  0  0  0  0  0  0  0
    9.6372   24.1913    1.4191 C   0  0  0  0  0  0  0  0  0  0  0  0
   11.1427   24.4112    1.2486 C   0  0  0  0  0  0  0  0  0  0  0  0
    7.6652   24.4547    4.0217 C   0  0  0  0  0  0  0  0  0  0  0  0
    6.7242   23.9460    5.0715 C   0  0  0  0  0  0  0  0  0  0  0  0
    6.4709   24.7300    6.1908 C   0  0  0  0  0  0  0  0  0  0  0  0
    5.5840   24.3048    7.1687 C   0  0  0  0  0  0  0  0  0  0  0  0
    4.9430   23.0855    7.0443 C   0  0  0  0  0  0  0  0  0  0  0  0
    5.1829   22.2989    5.9338 C   0  0  0  0  0  0  0  0  0  0  0  0
    6.0724   22.7228    4.9557 C   0  0  0  0  0  0  0  0  0  0  0  0
    8.3407   25.7433    4.4727 C   0  0  0  0  0  0  0  0  0  0  0  0
    9.7513   25.6232    4.5325 O   0  0  0  0  0  0  0  0  0  0  0  0
    9.9906   24.9405    5.1787 H   0  0  0  0  0  0  0  0  0  0  0  0
  4  5  1  0  0  0
  5  6  1  0  0  0
  5  9  1  0  0  0
  6  7  1  0  0  0
  6 12  1  0  0  0
  7  8  1  0  0  0
  8  9  1  0  0  0
  9 10  1  0  0  0
 10 11  1  0  0  0
 11 12  1  0  0  0
 11  3  1  0  0  0
  3  1  1  0  0  0
  1  2  2  0  0  0
  1 13  1  0  0  0
 13 20  1  0  0  0
 13 14  1  0  0  0
 20 21  1  0  0  0
 14 15  2  0  0  0
 14 19  1  0  0  0
 15 16  1  0  0  0
 16 17  2  0  0  0
 17 18  1  0  0  0
 18 19  2  0  0  0
 21 22  1  0  0  0
M  END
> <minimizedAffinity>
-7.33794

$$$$
2ARM_OIN_A_401


 22 24  0  0  0  0  0  0  0  0999 V2000
    7.2127   24.0939    4.8490 C   0  0  0  0  0  0  0  0  0  0  0  0
    8.0298   23.1863    4.9541 O   0  0  0  0  0  0  0  0  0  0  0  0
    7.6795   25.3710    4.2598 O   0  0  0  0  0  0  0  0  0  0  0  0
   11.1830   23.1571    1.5194 C   0  0  0  0  0  0  0  0  0  0  0  0
   10.9818   24.5998    1.3203 N   0  0  0  0  0  0  0  0  0  0  0  0
   11.0651   25.4981    2.3798 C   0  0  0  0  0  0  0  0  0  0  0  0
   11.1354   26.8076    1.6745 C   0  0  0  0  0  0  0  0  0  0  0  0
   10.0403   26.5111    0.6482 C   0  0  0  0  0  0  0  0  0  0  0  0
    9.7221   25.1182    1.0800 C   0  0  0  0  0  0  0  0  0  0  0  0
    8.5288   24.7956    1.9351 C   0  0  0  0  0  0  0  0  0  0  0  0
    8.8246   25.2395    3.3392 C   0  0  0  0  0  0  0  0  0  0  0  0
   10.3138   25.3388    3.6802 C   0  0  0  0  0  0  0  0  0  0  0  0
    5.7832   23.9065    5.3624 C   0  0  0  0  0  0  0  0  0  0  0  0
    5.2207   22.5526    5.0509 C   0  0  0  0  0  0  0  0  0  0  0  0
    4.6698   22.3208    3.7962 C   0  0  0  0  0  0  0  0  0  0  0  0
    4.1659   21.0724    3.4623 C   0  0  0  0  0  0  0  0  0  0  0  0
    4.1994   20.0397    4.3819 C   0  0  0  0  0  0  0  0  0  0  0  0
    4.7488   20.2563    5.6312 C   0  0  0  0  0  0  0  0  0  0  0  0
    5.2512   21.5063    5.9669 C   0  0  0  0  0  0  0  0  0  0  0  0
    5.6913   24.2055    6.8532 C   0  0  0  0  0  0  0  0  0  0  0  0
    6.7178   25.0767    7.2952 O   0  0  0  0  0  0  0  0  0  0  0  0
    7.5814   24.6611    7.1455 H   0  0  0  0  0  0  0  0  0  0  0  0
  4  5  1  0  0  0
  5  6  1  0  0  0
  5  9  1  0  0  0
  6  7  1  0  0  0
  6 12  1  0  0  0
  7  8  1  0  0  0
  8  9  1  0  0  0
  9 10  1  0  0  0
 10 11  1  0  0  0
 11 12  1  0  0  0
 11  3  1  0  0  0
  3  1  1  0  0  0
  1  2  2  0  0  0
  1 13  1  0  0  0
 13 20  1  0  0  0
 13 14  1  0  0  0
 20 21  1  0  0  0
 14 15  2  0  0  0
 14 19  1  0  0  0
 15 16  1  0  0  0
 16 17  2  0  0  0
 17 18  1  0  0  0
 18 19  2  0  0  0
 21 22  1  0  0  0
M  END
> <minimizedAffinity>
-7.17866

$$$$
2ARM_OIN_A_401


 22 24  0  0  0  0  0  0  0  0999 V2000
    8.6918   26.4032    2.7703 C   0  0  0  0  0  0  0  0  0  0  0  0
    7.9929   27.4006    2.6321 O   0  0  0  0  0  0  0  0  0  0  0  0
   10.1217   26.5117    2.3971 O   0  0  0  0  0  0  0  0  0  0  0  0
   12.6730   26.9891   -1.8394 C   0  0  0  0  0  0  0  0  0  0  0  0
   11.2761   26.5419   -1.9396 N   0  0  0  0  0  0  0  0  0  0  0  0
   10.2337   27.2875   -1.3974 C   0  0  0  0  0  0  0  0  0  0  0  0
    9.0388   26.6522   -2.0186 C   0  0  0  0  0  0  0  0  0  0  0  0
    9.4908   25.2038   -1.8229 C   0  0  0  0  0  0  0  0  0  0  0  0
   10.8100   25.4822   -1.1825 C   0  0  0  0  0  0  0  0  0  0  0  0
   11.0177   25.3854    0.3030 C   0  0  0  0  0  0  0  0  0  0  0  0
   10.3733   26.5806    0.9452 C   0  0  0  0  0  0  0  0  0  0  0  0
   10.2113   27.7936    0.0253 C   0  0  0  0  0  0  0  0  0  0  0  0
    8.0743   25.0925    3.2633 C   0  0  0  0  0  0  0  0  0  0  0  0
    8.6379   23.8843    2.5784 C   0  0  0  0  0  0  0  0  0  0  0  0
    8.0676   23.4543    1.3862 C   0  0  0  0  0  0  0  0  0  0  0  0
    8.5804   22.3576    0.7094 C   0  0  0  0  0  0  0  0  0  0  0  0
    9.6672   21.6707    1.2198 C   0  0  0  0  0  0  0  0  0  0  0  0
   10.2460   22.0912    2.4020 C   0  0  0  0  0  0  0  0  0  0  0  0
    9.7317   23.1875    3.0811 C   0  0  0  0  0  0  0  0  0  0  0  0
    8.1908   24.9655    4.7768 C   0  0  0  0  0  0  0  0  0  0  0  0
    8.9444   26.0185    5.3523 O   0  0  0  0  0  0  0  0  0  0  0  0
    9.8477   26.0001    4.9993 H   0  0  0  0  0  0  0  0  0  0  0  0
  4  5  1  0  0  0
  5  6  1  0  0  0
  5  9  1  0  0  0
  6  7  1  0  0  0
  6 12  1  0  0  0
  7  8  1  0  0  0
  8  9  1  0  0  0
  9 10  1  0  0  0
 10 11  1  0  0  0
 11 12  1  0  0  0
 11  3  1  0  0  0
  3  1  1  0  0  0
  1  2  2  0  0  0
  1 13  1  0  0  0
 13 20  1  0  0  0
 13 14  1  0  0  0
 20 21  1  0  0  0
 14 15  2  0  0  0
 14 19  1  0  0  0
 15 16  1  0  0  0
 16 17  2  0  0  0
 17 18  1  0  0  0
 18 19  2  0  0  0
 21 22  1  0  0  0
M  END
> <minimizedAffinity>
-7.17543

$$$$
2ARM_OIN_A_401


 22 24  0  0  0  0  0  0  0  0999 V2000
   11.3334   27.0091    1.3210 C   0  0  0  0  0  0  0  0  0  0  0  0
   11.2608   27.1859    0.1103 O   0  0  0  0  0  0  0  0  0  0  0  0
   10.0676   27.0156    2.0913 O   0  0  0  0  0  0  0  0  0  0  0  0
    7.2033   23.5957    4.2788 C   0  0  0  0  0  0  0  0  0  0  0  0
    8.2453   23.1155    3.3596 N   0  0  0  0  0  0  0  0  0  0  0  0
    9.5834   23.4538    3.5375 C   0  0  0  0  0  0  0  0  0  0  0  0
   10.2708   22.5025    2.6211 C   0  0  0  0  0  0  0  0  0  0  0  0
    9.3058   22.6660    1.4452 C   0  0  0  0  0  0  0  0  0  0  0  0
    8.3637   23.6327    2.0822 C   0  0  0  0  0  0  0  0  0  0  0  0
    8.4145   25.1081    1.7994 C   0  0  0  0  0  0  0  0  0  0  0  0
    9.6020   25.6824    2.5177 C   0  0  0  0  0  0  0  0  0  0  0  0
   10.0767   24.8688    3.7247 C   0  0  0  0  0  0  0  0  0  0  0  0
   12.6975   26.8417    1.9943 C   0  0  0  0  0  0  0  0  0  0  0  0
   13.4755   25.6764    1.4622 C   0  0  0  0  0  0  0  0  0  0  0  0
   14.8454   25.8084    1.2690 C   0  0  0  0  0  0  0  0  0  0  0  0
   15.6025   24.7426    0.8055 C   0  0  0  0  0  0  0  0  0  0  0  0
   14.9983   23.5312    0.5218 C   0  0  0  0  0  0  0  0  0  0  0  0
   13.6376   23.3858    0.7142 C   0  0  0  0  0  0  0  0  0  0  0  0
   12.8789   24.4530    1.1758 C   0  0  0  0  0  0  0  0  0  0  0  0
   13.5127   28.1257    1.9105 C   0  0  0  0  0  0  0  0  0  0  0  0
   12.7244   29.2449    1.5444 O   0  0  0  0  0  0  0  0  0  0  0  0
   12.3425   29.0976    0.6650 H   0  0  0  0  0  0  0  0  0  0  0  0
  4  5  1  0  0  0
  5  6  1  0  0  0
  5  9  1  0  0  0
  6  7  1  0  0  0
  6 12  1  0  0  0
  7  8  1  0  0  0
  8  9  1  0  0  0
  9 10  1  0  0  0
 10 11  1  0  0  0
 11 12  1  0  0  0
 11  3  1  0  0  0
  3  1  1  0  0  0
  1  2  2  0  0  0
  1 13  1  0  0  0
 13 20  1  0  0  0
 13 14  1  0  0  0
 20 21  1  0  0  0
 14 15  2  0  0  0
 14 19  1  0  0  0
 15 16  1  0  0  0
 16 17  2  0  0  0
 17 18  1  0  0  0
 18 19  2  0  0  0
 21 22  1  0  0  0
M  END
> <minimizedAffinity>
-7.00792

$$$$
2ARM_OIN_A_401


 22 24  0  0  0  0  0  0  0  0999 V2000
    7.8444   23.8113    4.1659 C   0  0  0  0  0  0  0  0  0  0  0  0
    8.2194   22.7746    3.6302 O   0  0  0  0  0  0  0  0  0  0  0  0
    8.8431   24.8921    4.3408 O   0  0  0  0  0  0  0  0  0  0  0  0
   11.3802   27.9285    1.3361 C   0  0  0  0  0  0  0  0  0  0  0  0
   10.6242   26.8349    0.7085 N   0  0  0  0  0  0  0  0  0  0  0  0
    9.2590   26.6765    0.9267 C   0  0  0  0  0  0  0  0  0  0  0  0
    8.8837   25.7023   -0.1350 C   0  0  0  0  0  0  0  0  0  0  0  0
   10.0808   24.7688    0.0547 C   0  0  0  0  0  0  0  0  0  0  0  0
   10.7671   25.5287    1.1407 C   0  0  0  0  0  0  0  0  0  0  0  0
   10.6659   25.1307    2.5867 C   0  0  0  0  0  0  0  0  0  0  0  0
    9.3011   25.5133    3.0837 C   0  0  0  0  0  0  0  0  0  0  0  0
    8.6238   26.6382    2.2964 C   0  0  0  0  0  0  0  0  0  0  0  0
    6.4061   23.9395    4.6728 C   0  0  0  0  0  0  0  0  0  0  0  0
    5.6300   22.6618    4.5653 C   0  0  0  0  0  0  0  0  0  0  0  0
    5.5752   21.8087    5.6610 C   0  0  0  0  0  0  0  0  0  0  0  0
    4.8432   20.6318    5.6079 C   0  0  0  0  0  0  0  0  0  0  0  0
    4.1610   20.2880    4.4548 C   0  0  0  0  0  0  0  0  0  0  0  0
    4.2038   21.1302    3.3601 C   0  0  0  0  0  0  0  0  0  0  0  0
    4.9383   22.3072    3.4118 C   0  0  0  0  0  0  0  0  0  0  0  0
    6.3716   24.4806    6.0963 C   0  0  0  0  0  0  0  0  0  0  0  0
    5.2690   25.3417    6.3218 O   0  0  0  0  0  0  0  0  0  0  0  0
    5.3321   26.1091    5.7319 H   0  0  0  0  0  0  0  0  0  0  0  0
  4  5  1  0  0  0
  5  6  1  0  0  0
  5  9  1  0  0  0
  6  7  1  0  0  0
  6 12  1  0  0  0
  7  8  1  0  0  0
  8  9  1  0  0  0
  9 10  1  0  0  0
 10 11  1  0  0  0
 11 12  1  0  0  0
 11  3  1  0  0  0
  3  1  1  0  0  0
  1  2  2  0  0  0
  1 13  1  0  0  0
 13 20  1  0  0  0
 13 14  1  0  0  0
 20 21  1  0  0  0
 14 15  2  0  0  0
 14 19  1  0  0  0
 15 16  1  0  0  0
 16 17  2  0  0  0
 17 18  1  0  0  0
 18 19  2  0  0  0
 21 22  1  0  0  0
M  END
> <minimizedAffinity>
-6.85224

$$$$
2ARM_OIN_A_401


 22 24  0  0  0  0  0  0  0  0999 V2000
    9.0109   25.4328    3.5109 C   0  0  0  0  0  0  0  0  0  0  0  0
    8.4137   26.3821    3.0164 O   0  0  0  0  0  0  0  0  0  0  0  0
   10.4485   25.6146    3.8214 O   0  0  0  0  0  0  0  0  0  0  0  0
   14.3362   24.7661    0.8464 C   0  0  0  0  0  0  0  0  0  0  0  0
   13.2112   25.5288    0.2859 N   0  0  0  0  0  0  0  0  0  0  0  0
   12.7467   26.6912    0.8937 C   0  0  0  0  0  0  0  0  0  0  0  0
   11.8772   27.2722   -0.1663 C   0  0  0  0  0  0  0  0  0  0  0  0
   11.1919   25.9639   -0.5652 C   0  0  0  0  0  0  0  0  0  0  0  0
   11.9143   25.0559    0.3737 C   0  0  0  0  0  0  0  0  0  0  0  0
   11.3027   24.5822    1.6625 C   0  0  0  0  0  0  0  0  0  0  0  0
   11.3226   25.7239    2.6382 C   0  0  0  0  0  0  0  0  0  0  0  0
   12.3848   26.7899    2.3566 C   0  0  0  0  0  0  0  0  0  0  0  0
    8.2882   24.1036    3.7411 C   0  0  0  0  0  0  0  0  0  0  0  0
    7.3539   24.1390    4.9127 C   0  0  0  0  0  0  0  0  0  0  0  0
    7.5304   25.1110    5.8902 C   0  0  0  0  0  0  0  0  0  0  0  0
    6.6681   25.1924    6.9735 C   0  0  0  0  0  0  0  0  0  0  0  0
    5.6208   24.2976    7.0981 C   0  0  0  0  0  0  0  0  0  0  0  0
    5.4319   23.3294    6.1304 C   0  0  0  0  0  0  0  0  0  0  0  0
    6.2961   23.2459    5.0470 C   0  0  0  0  0  0  0  0  0  0  0  0
    7.5655   23.6458    2.4808 C   0  0  0  0  0  0  0  0  0  0  0  0
    8.3101   22.6896    1.7466 O   0  0  0  0  0  0  0  0  0  0  0  0
    9.1494   23.0832    1.4610 H   0  0  0  0  0  0  0  0  0  0  0  0
  4  5  1  0  0  0
  5  6  1  0  0  0
  5  9  1  0  0  0
  6  7  1  0  0  0
  6 12  1  0  0  0
  7  8  1  0  0  0
  8  9  1  0  0  0
  9 10  1  0  0  0
 10 11  1  0  0  0
 11 12  1  0  0  0
 11  3  1  0  0  0
  3  1  1  0  0  0
  1  2  2  0  0  0
  1 13  1  0  0  0
 13 20  1  0  0  0
 13 14  1  0  0  0
 20 21  1  0  0  0
 14 15  2  0  0  0
 14 19  1  0  0  0
 15 16  1  0  0  0
 16 17  2  0  0  0
 17 18  1  0  0  0
 18 19  2  0  0  0
 21 22  1  0  0  0
M  END
> <minimizedAffinity>
-6.80099

$$$$
2ARM_OIN_A_401


 22 24  0  0  0  0  0  0  0  0999 V2000
    8.6588   23.4007    3.6242 C   0  0  0  0  0  0  0  0  0  0  0  0
    9.4125   22.9138    4.4592 O   0  0  0  0  0  0  0  0  0  0  0  0
    8.9738   23.1630    2.1959 O   0  0  0  0  0  0  0  0  0  0  0  0
   10.1945   27.9011    1.3326 C   0  0  0  0  0  0  0  0  0  0  0  0
   10.7598   26.8841    0.4340 N   0  0  0  0  0  0  0  0  0  0  0  0
    9.9454   25.9961   -0.2622 C   0  0  0  0  0  0  0  0  0  0  0  0
   10.8909   25.4192   -1.2573 C   0  0  0  0  0  0  0  0  0  0  0  0
   12.0589   25.2170   -0.2902 C   0  0  0  0  0  0  0  0  0  0  0  0
   11.4128   25.7725    0.9353 C   0  0  0  0  0  0  0  0  0  0  0  0
   10.8257   24.8921    2.0028 C   0  0  0  0  0  0  0  0  0  0  0  0
    9.5310   24.3311    1.4879 C   0  0  0  0  0  0  0  0  0  0  0  0
    8.8675   25.1583    0.3836 C   0  0  0  0  0  0  0  0  0  0  0  0
    7.4730   24.2613    4.0661 C   0  0  0  0  0  0  0  0  0  0  0  0
    6.3520   23.4584    4.6537 C   0  0  0  0  0  0  0  0  0  0  0  0
    6.0070   23.6513    5.9860 C   0  0  0  0  0  0  0  0  0  0  0  0
    4.9566   22.9472    6.5560 C   0  0  0  0  0  0  0  0  0  0  0  0
    4.2407   22.0345    5.8026 C   0  0  0  0  0  0  0  0  0  0  0  0
    4.5709   21.8372    4.4754 C   0  0  0  0  0  0  0  0  0  0  0  0
    5.6238   22.5398    3.9050 C   0  0  0  0  0  0  0  0  0  0  0  0
    7.9177   25.3593    5.0236 C   0  0  0  0  0  0  0  0  0  0  0  0
    9.2679   25.7395    4.8223 O   0  0  0  0  0  0  0  0  0  0  0  0
    9.8457   24.9770    4.9825 H   0  0  0  0  0  0  0  0  0  0  0  0
  4  5  1  0  0  0
  5  6  1  0  0  0
  5  9  1  0  0  0
  6  7  1  0  0  0
  6 12  1  0  0  0
  7  8  1  0  0  0
  8  9  1  0  0  0
  9 10  1  0  0  0
 10 11  1  0  0  0
 11 12  1  0  0  0
 11  3  1  0  0  0
  3  1  1  0  0  0
  1  2  2  0  0  0
  1 13  1  0  0  0
 13 20  1  0  0  0
 13 14  1  0  0  0
 20 21  1  0  0  0
 14 15  2  0  0  0
 14 19  1  0  0  0
 15 16  1  0  0  0
 16 17  2  0  0  0
 17 18  1  0  0  0
 18 19  2  0  0  0
 21 22  1  0  0  0
M  END
> <minimizedAffinity>
-6.73382

$$$$
