2XYF_G40_B_1200


 55 57  0  0  0  0  0  0  0  0999 V2000
   14.7156   22.4579    5.9373 N   0  0  0  0  0  0  0  0  0  0  0  0
   15.2056   20.3647    4.9271 C   0  0  0  0  0  0  0  0  0  0  0  0
   15.4918   21.6594    5.1748 N   0  0  0  0  0  0  0  0  0  0  0  0
   14.1912   19.7966    5.3833 O   0  0  0  0  0  0  0  0  0  0  0  0
   16.3084   22.0414    4.7793 H   0  0  0  0  0  0  0  0  0  0  0  0
   16.2021   19.6043    4.0485 C   0  0  0  0  0  0  0  0  0  0  0  0
   18.0894   19.0790    5.5957 C   0  0  0  0  0  0  0  0  0  0  0  0
   18.8851   19.9221    5.1899 O   0  0  0  0  0  0  0  0  0  0  0  0
   16.8541   18.8535    5.1499 N   0  0  0  0  0  0  0  0  0  0  0  0
   16.3364   18.1366    5.5827 H   0  0  0  0  0  0  0  0  0  0  0  0
   19.5218   17.3293    6.5603 C   0  0  0  0  0  0  0  0  0  0  0  0
   18.3645   18.1723    6.6470 O   0  0  0  0  0  0  0  0  0  0  0  0
   15.7884   18.6872    2.8366 C   0  0  0  0  0  0  0  0  0  0  0  0
   15.0923   17.4343    3.3836 C   0  0  0  0  0  0  0  0  0  0  0  0
   16.9800   18.1713    2.0576 C   0  0  0  0  0  0  0  0  0  0  0  0
   14.7813   19.3665    1.9147 C   0  0  0  0  0  0  0  0  0  0  0  0
   14.3154   23.5811    5.1530 C   0  0  0  0  0  0  0  0  0  0  0  0
   13.0205   24.1683    5.6891 C   0  0  0  0  0  0  0  0  0  0  0  0
   11.7588   23.6383    4.9530 C   0  0  0  0  0  0  0  0  0  0  0  0
   10.4579   24.4646    5.1431 C   0  0  0  0  0  0  0  0  0  0  0  0
   10.8639   25.7699    4.7273 O   0  0  0  0  0  0  0  0  0  0  0  0
   10.1152   26.3817    4.8056 H   0  0  0  0  0  0  0  0  0  0  0  0
    9.7984   24.5040    6.5597 C   0  0  0  0  0  0  0  0  0  0  0  0
    9.7969   23.5309    7.3170 O   0  0  0  0  0  0  0  0  0  0  0  0
    9.2025   25.6778    6.8606 N   0  0  0  0  0  0  0  0  0  0  0  0
    9.2834   26.3722    6.1674 H   0  0  0  0  0  0  0  0  0  0  0  0
    8.4107   26.1073    8.1239 C   0  0  0  0  0  0  0  0  0  0  0  0
    5.1099   27.5575    7.0395 C   0  0  0  0  0  0  0  0  0  0  0  0
    6.2744   26.7844    7.4839 N   0  0  0  0  0  0  0  0  0  0  0  0
    7.5392   27.2600    7.6714 C   0  0  0  0  0  0  0  0  0  0  0  0
    7.8846   28.4286    7.4878 O   0  0  0  0  0  0  0  0  0  0  0  0
    6.1289   25.8277    7.6648 H   0  0  0  0  0  0  0  0  0  0  0  0
    9.2499   26.4795    9.5010 C   0  0  0  0  0  0  0  0  0  0  0  0
    9.3876   25.2495   10.4662 C   0  0  0  0  0  0  0  0  0  0  0  0
    8.5698   27.5830   10.3231 C   0  0  0  0  0  0  0  0  0  0  0  0
   10.6578   26.9975    9.1851 C   0  0  0  0  0  0  0  0  0  0  0  0
    9.3381   23.9701    4.1251 C   0  0  0  0  0  0  0  0  0  0  0  0
    8.5915   25.1114    3.3522 C   0  0  0  0  0  0  0  0  0  0  0  0
    7.5042   25.8224    4.0381 C   0  0  0  0  0  0  0  0  0  0  0  0
    6.7956   26.8930    3.3668 C   0  0  0  0  0  0  0  0  0  0  0  0
    7.1586   27.2685    2.0078 C   0  0  0  0  0  0  0  0  0  0  0  0
    8.2307   26.5715    1.3209 C   0  0  0  0  0  0  0  0  0  0  0  0
    8.9422   25.4980    1.9929 C   0  0  0  0  0  0  0  0  0  0  0  0
   15.5101   22.9024    7.0717 C   0  0  0  0  0  0  0  0  0  0  0  0
   15.9897   21.8142    8.0332 C   0  0  0  0  0  0  0  0  0  0  0  0
   14.9968   21.0035    8.7171 C   0  0  0  0  0  0  0  0  0  0  0  0
   15.4171   19.9734    9.6234 C   0  0  0  0  0  0  0  0  0  0  0  0
   16.8372   19.7390    9.8612 C   0  0  0  0  0  0  0  0  0  0  0  0
   17.8429   20.5502    9.1742 C   0  0  0  0  0  0  0  0  0  0  0  0
   17.4099   21.5978    8.2492 C   0  0  0  0  0  0  0  0  0  0  0  0
   17.3233   16.2627   12.0273 S   0  0  0  0  0  0  0  0  0  0  0  0
   16.7230   17.3156   10.7307 C   0  0  0  0  0  0  0  0  0  0  0  0
   17.2003   18.6720   10.8192 C   0  0  0  0  0  0  0  0  0  0  0  0
   18.0663   18.8458   11.9661 C   0  0  0  0  0  0  0  0  0  0  0  0
   18.2249   17.6461   12.7039 C   0  0  0  0  0  0  0  0  0  0  0  0
 20 23  1  0  0  0
 20 37  1  0  0  0
 20 21  1  0  0  0
 20 19  1  0  0  0
 23 24  2  0  0  0
 23 25  1  0  0  0
 25 27  1  0  0  0
 27 33  1  0  0  0
 27 30  1  0  0  0
 33 34  1  0  0  0
 33 35  1  0  0  0
 33 36  1  0  0  0
 28 29  1  0  0  0
 29 30  1  0  0  0
 30 31  2  0  0  0
 37 38  1  0  0  0
 38 39  1  0  0  0
 38 43  2  0  0  0
 39 40  2  0  0  0
 40 41  1  0  0  0
 41 42  2  0  0  0
 42 43  1  0  0  0
 19 18  1  0  0  0
 18 17  1  0  0  0
 17  1  1  0  0  0
  1 44  1  0  0  0
  1  3  1  0  0  0
 44 45  1  0  0  0
 45 46  1  0  0  0
 45 50  2  0  0  0
 46 47  2  0  0  0
 47 48  1  0  0  0
 48 49  2  0  0  0
 48 53  1  0  0  0
 49 50  1  0  0  0
 13  6  1  0  0  0
 13 14  1  0  0  0
 13 15  1  0  0  0
 13 16  1  0  0  0
 11 12  1  0  0  0
 12  7  1  0  0  0
  7  8  2  0  0  0
  7  9  1  0  0  0
  9  6  1  0  0  0
  6  2  1  0  0  0
  2  3  1  0  0  0
  2  4  2  0  0  0
 51 52  1  0  0  0
 51 55  1  0  0  0
 52 53  2  0  0  0
 53 54  1  0  0  0
 54 55  2  0  0  0
 25 26  1  0  0  0
 29 32  1  0  0  0
 21 22  1  0  0  0
  9 10  1  0  0  0
  3  5  1  0  0  0
M  END
> <minimizedAffinity>
-10.30051

$$$$
2XYF_G40_B_1200


 55 57  0  0  0  0  0  0  0  0999 V2000
   14.2377   22.4714    5.9785 N   0  0  0  0  0  0  0  0  0  0  0  0
   14.8397   20.4299    4.9241 C   0  0  0  0  0  0  0  0  0  0  0  0
   15.0824   21.7177    5.2437 N   0  0  0  0  0  0  0  0  0  0  0  0
   13.8058   19.8272    5.2814 O   0  0  0  0  0  0  0  0  0  0  0  0
   15.9182   22.1287    4.9249 H   0  0  0  0  0  0  0  0  0  0  0  0
   15.9118   19.7224    4.0914 C   0  0  0  0  0  0  0  0  0  0  0  0
   17.8303   19.1312    5.5752 C   0  0  0  0  0  0  0  0  0  0  0  0
   18.6818   19.8422    5.0480 O   0  0  0  0  0  0  0  0  0  0  0  0
   16.5518   19.0046    5.2215 N   0  0  0  0  0  0  0  0  0  0  0  0
   15.9912   18.3902    5.7481 H   0  0  0  0  0  0  0  0  0  0  0  0
   19.4275   18.0905    7.1275 C   0  0  0  0  0  0  0  0  0  0  0  0
   18.0767   18.2960    6.6910 O   0  0  0  0  0  0  0  0  0  0  0  0
   15.5997   18.7869    2.8633 C   0  0  0  0  0  0  0  0  0  0  0  0
   15.0008   17.4744    3.3850 C   0  0  0  0  0  0  0  0  0  0  0  0
   16.8451   18.3808    2.1036 C   0  0  0  0  0  0  0  0  0  0  0  0
   14.5571   19.3893    1.9276 C   0  0  0  0  0  0  0  0  0  0  0  0
   13.7980   23.5678    5.1775 C   0  0  0  0  0  0  0  0  0  0  0  0
   12.7452   24.3764    5.9170 C   0  0  0  0  0  0  0  0  0  0  0  0
   11.3191   23.7694    5.8054 C   0  0  0  0  0  0  0  0  0  0  0  0
   10.1379   24.7698    5.9285 C   0  0  0  0  0  0  0  0  0  0  0  0
    9.2332   24.0674    6.7828 O   0  0  0  0  0  0  0  0  0  0  0  0
    8.4424   24.6092    6.9314 H   0  0  0  0  0  0  0  0  0  0  0  0
    9.4242   25.2471    4.6223 C   0  0  0  0  0  0  0  0  0  0  0  0
   10.0199   25.3729    3.5500 O   0  0  0  0  0  0  0  0  0  0  0  0
    8.1165   25.5433    4.7825 N   0  0  0  0  0  0  0  0  0  0  0  0
    7.7666   25.3927    5.6903 H   0  0  0  0  0  0  0  0  0  0  0  0
    7.0770   26.0828    3.7647 C   0  0  0  0  0  0  0  0  0  0  0  0
    5.4738   26.9994    7.0456 C   0  0  0  0  0  0  0  0  0  0  0  0
    6.2394   26.4971    5.8999 N   0  0  0  0  0  0  0  0  0  0  0  0
    6.0778   26.8608    4.5950 C   0  0  0  0  0  0  0  0  0  0  0  0
    5.2479   27.6774    4.1911 O   0  0  0  0  0  0  0  0  0  0  0  0
    6.9391   25.8315    6.0915 H   0  0  0  0  0  0  0  0  0  0  0  0
    6.3266   25.0122    2.7500 C   0  0  0  0  0  0  0  0  0  0  0  0
    7.3022   23.8967    2.2331 C   0  0  0  0  0  0  0  0  0  0  0  0
    5.7625   25.6904    1.4938 C   0  0  0  0  0  0  0  0  0  0  0  0
    5.1353   24.3266    3.4288 C   0  0  0  0  0  0  0  0  0  0  0  0
   10.6038   26.0787    6.7059 C   0  0  0  0  0  0  0  0  0  0  0  0
    9.8691   26.3415    8.0653 C   0  0  0  0  0  0  0  0  0  0  0  0
   10.1258   25.4259    9.1851 C   0  0  0  0  0  0  0  0  0  0  0  0
    9.4788   25.6383   10.4638 C   0  0  0  0  0  0  0  0  0  0  0  0
    8.5700   26.7613   10.6441 C   0  0  0  0  0  0  0  0  0  0  0  0
    8.3087   27.6713    9.5437 C   0  0  0  0  0  0  0  0  0  0  0  0
    8.9570   27.4595    8.2610 C   0  0  0  0  0  0  0  0  0  0  0  0
   14.9690   22.9637    7.1354 C   0  0  0  0  0  0  0  0  0  0  0  0
   15.6341   21.9070    8.0185 C   0  0  0  0  0  0  0  0  0  0  0  0
   14.7898   20.9552    8.7199 C   0  0  0  0  0  0  0  0  0  0  0  0
   15.3857   19.9511    9.5540 C   0  0  0  0  0  0  0  0  0  0  0  0
   16.8356   19.8841    9.7009 C   0  0  0  0  0  0  0  0  0  0  0  0
   17.6924   20.8381    8.9957 C   0  0  0  0  0  0  0  0  0  0  0  0
   17.0806   21.8587    8.1445 C   0  0  0  0  0  0  0  0  0  0  0  0
   19.0013   17.5494   12.3224 S   0  0  0  0  0  0  0  0  0  0  0  0
   18.5919   18.9814   11.3569 C   0  0  0  0  0  0  0  0  0  0  0  0
   17.3824   18.8343   10.5881 C   0  0  0  0  0  0  0  0  0  0  0  0
   16.7891   17.5302   10.7947 C   0  0  0  0  0  0  0  0  0  0  0  0
   17.5420   16.7360   11.6954 C   0  0  0  0  0  0  0  0  0  0  0  0
 20 23  1  0  0  0
 20 37  1  0  0  0
 20 21  1  0  0  0
 20 19  1  0  0  0
 23 24  2  0  0  0
 23 25  1  0  0  0
 25 27  1  0  0  0
 27 33  1  0  0  0
 27 30  1  0  0  0
 33 34  1  0  0  0
 33 35  1  0  0  0
 33 36  1  0  0  0
 28 29  1  0  0  0
 29 30  1  0  0  0
 30 31  2  0  0  0
 37 38  1  0  0  0
 38 39  1  0  0  0
 38 43  2  0  0  0
 39 40  2  0  0  0
 40 41  1  0  0  0
 41 42  2  0  0  0
 42 43  1  0  0  0
 19 18  1  0  0  0
 18 17  1  0  0  0
 17  1  1  0  0  0
  1 44  1  0  0  0
  1  3  1  0  0  0
 44 45  1  0  0  0
 45 46  1  0  0  0
 45 50  2  0  0  0
 46 47  2  0  0  0
 47 48  1  0  0  0
 48 49  2  0  0  0
 48 53  1  0  0  0
 49 50  1  0  0  0
 13  6  1  0  0  0
 13 14  1  0  0  0
 13 15  1  0  0  0
 13 16  1  0  0  0
 11 12  1  0  0  0
 12  7  1  0  0  0
  7  8  2  0  0  0
  7  9  1  0  0  0
  9  6  1  0  0  0
  6  2  1  0  0  0
  2  3  1  0  0  0
  2  4  2  0  0  0
 51 52  1  0  0  0
 51 55  1  0  0  0
 52 53  2  0  0  0
 53 54  1  0  0  0
 54 55  2  0  0  0
 25 26  1  0  0  0
 29 32  1  0  0  0
 21 22  1  0  0  0
  9 10  1  0  0  0
  3  5  1  0  0  0
M  END
> <minimizedAffinity>
-9.92261

$$$$
2XYF_G40_B_1200


 55 57  0  0  0  0  0  0  0  0999 V2000
   11.2375   23.8187    4.6702 N   0  0  0  0  0  0  0  0  0  0  0  0
   10.1748   24.7723    6.5683 C   0  0  0  0  0  0  0  0  0  0  0  0
   10.9310   24.8723    5.4558 N   0  0  0  0  0  0  0  0  0  0  0  0
    9.6963   23.6895    6.9663 O   0  0  0  0  0  0  0  0  0  0  0  0
   11.2769   25.7590    5.2042 H   0  0  0  0  0  0  0  0  0  0  0  0
    9.9185   26.0721    7.3352 C   0  0  0  0  0  0  0  0  0  0  0  0
    8.0555   26.8450    5.8643 C   0  0  0  0  0  0  0  0  0  0  0  0
    8.7332   27.4090    5.0092 O   0  0  0  0  0  0  0  0  0  0  0  0
    8.4916   26.2113    6.9523 N   0  0  0  0  0  0  0  0  0  0  0  0
    7.8182   25.8059    7.5451 H   0  0  0  0  0  0  0  0  0  0  0  0
    5.9434   27.2211    4.6637 C   0  0  0  0  0  0  0  0  0  0  0  0
    6.6424   26.7718    5.8329 O   0  0  0  0  0  0  0  0  0  0  0  0
   10.1625   26.2465    8.8814 C   0  0  0  0  0  0  0  0  0  0  0  0
    9.8778   27.7050    9.2625 C   0  0  0  0  0  0  0  0  0  0  0  0
   11.6038   26.0063    9.2788 C   0  0  0  0  0  0  0  0  0  0  0  0
    9.2128   25.3944    9.7166 C   0  0  0  0  0  0  0  0  0  0  0  0
   12.6215   23.5151    4.8415 C   0  0  0  0  0  0  0  0  0  0  0  0
   12.8706   22.0323    4.6222 C   0  0  0  0  0  0  0  0  0  0  0  0
   13.4709   21.3232    5.8678 C   0  0  0  0  0  0  0  0  0  0  0  0
   14.8096   20.5682    5.6467 C   0  0  0  0  0  0  0  0  0  0  0  0
   14.3798   19.2085    5.5554 O   0  0  0  0  0  0  0  0  0  0  0  0
   15.1493   18.6350    5.4142 H   0  0  0  0  0  0  0  0  0  0  0  0
   15.9433   20.7308    6.7104 C   0  0  0  0  0  0  0  0  0  0  0  0
   16.2113   21.8153    7.2325 O   0  0  0  0  0  0  0  0  0  0  0  0
   16.6216   19.5935    6.9751 N   0  0  0  0  0  0  0  0  0  0  0  0
   16.3001   18.7984    6.4917 H   0  0  0  0  0  0  0  0  0  0  0  0
   17.8266   19.3394    7.9189 C   0  0  0  0  0  0  0  0  0  0  0  0
   18.3719   16.3924    5.6401 C   0  0  0  0  0  0  0  0  0  0  0  0
   17.9238   17.4992    6.4918 N   0  0  0  0  0  0  0  0  0  0  0  0
   18.7212   18.3762    7.1672 C   0  0  0  0  0  0  0  0  0  0  0  0
   19.9534   18.3575    7.1554 O   0  0  0  0  0  0  0  0  0  0  0  0
   16.9514   17.6213    6.5853 H   0  0  0  0  0  0  0  0  0  0  0  0
   17.5328   18.8222    9.4633 C   0  0  0  0  0  0  0  0  0  0  0  0
   18.4322   19.5566   10.5193 C   0  0  0  0  0  0  0  0  0  0  0  0
   17.8129   17.3238    9.6442 C   0  0  0  0  0  0  0  0  0  0  0  0
   16.0665   19.0270    9.8611 C   0  0  0  0  0  0  0  0  0  0  0  0
   15.4375   20.9620    4.2376 C   0  0  0  0  0  0  0  0  0  0  0  0
   15.7677   19.7533    3.2957 C   0  0  0  0  0  0  0  0  0  0  0  0
   14.7613   19.3450    2.3065 C   0  0  0  0  0  0  0  0  0  0  0  0
   15.0291   18.2416    1.4065 C   0  0  0  0  0  0  0  0  0  0  0  0
   16.2983   17.5321    1.4795 C   0  0  0  0  0  0  0  0  0  0  0  0
   17.2990   17.9270    2.4542 C   0  0  0  0  0  0  0  0  0  0  0  0
   17.0317   19.0333    3.3570 C   0  0  0  0  0  0  0  0  0  0  0  0
   10.9801   24.2001    3.2904 C   0  0  0  0  0  0  0  0  0  0  0  0
    9.5122   24.3638    2.8935 C   0  0  0  0  0  0  0  0  0  0  0  0
    9.1497   25.4537    2.0038 C   0  0  0  0  0  0  0  0  0  0  0  0
    7.7806   25.6309    1.6124 C   0  0  0  0  0  0  0  0  0  0  0  0
    6.7521   24.7216    2.1060 C   0  0  0  0  0  0  0  0  0  0  0  0
    7.1102   23.6202    3.0007 C   0  0  0  0  0  0  0  0  0  0  0  0
    8.5077   23.4420    3.3952 C   0  0  0  0  0  0  0  0  0  0  0  0
    2.6630   25.0736    1.6957 S   0  0  0  0  0  0  0  0  0  0  0  0
    4.2030   24.6724    2.4817 C   0  0  0  0  0  0  0  0  0  0  0  0
    5.3591   24.9709    1.6756 C   0  0  0  0  0  0  0  0  0  0  0  0
    4.9728   25.5331    0.3988 C   0  0  0  0  0  0  0  0  0  0  0  0
    3.5663   25.6479    0.2677 C   0  0  0  0  0  0  0  0  0  0  0  0
 20 23  1  0  0  0
 20 37  1  0  0  0
 20 21  1  0  0  0
 20 19  1  0  0  0
 23 24  2  0  0  0
 23 25  1  0  0  0
 25 27  1  0  0  0
 27 33  1  0  0  0
 27 30  1  0  0  0
 33 34  1  0  0  0
 33 35  1  0  0  0
 33 36  1  0  0  0
 28 29  1  0  0  0
 29 30  1  0  0  0
 30 31  2  0  0  0
 37 38  1  0  0  0
 38 39  1  0  0  0
 38 43  2  0  0  0
 39 40  2  0  0  0
 40 41  1  0  0  0
 41 42  2  0  0  0
 42 43  1  0  0  0
 19 18  1  0  0  0
 18 17  1  0  0  0
 17  1  1  0  0  0
  1 44  1  0  0  0
  1  3  1  0  0  0
 44 45  1  0  0  0
 45 46  1  0  0  0
 45 50  2  0  0  0
 46 47  2  0  0  0
 47 48  1  0  0  0
 48 49  2  0  0  0
 48 53  1  0  0  0
 49 50  1  0  0  0
 13  6  1  0  0  0
 13 14  1  0  0  0
 13 15  1  0  0  0
 13 16  1  0  0  0
 11 12  1  0  0  0
 12  7  1  0  0  0
  7  8  2  0  0  0
  7  9  1  0  0  0
  9  6  1  0  0  0
  6  2  1  0  0  0
  2  3  1  0  0  0
  2  4  2  0  0  0
 51 52  1  0  0  0
 51 55  1  0  0  0
 52 53  2  0  0  0
 53 54  1  0  0  0
 54 55  2  0  0  0
 25 26  1  0  0  0
 29 32  1  0  0  0
 21 22  1  0  0  0
  9 10  1  0  0  0
  3  5  1  0  0  0
M  END
> <minimizedAffinity>
-9.84401

$$$$
2XYF_G40_B_1200


 55 57  0  0  0  0  0  0  0  0999 V2000
   15.8374   21.5389    7.1055 N   0  0  0  0  0  0  0  0  0  0  0  0
   15.5335   20.0694    5.2643 C   0  0  0  0  0  0  0  0  0  0  0  0
   16.2873   20.9148    5.9967 N   0  0  0  0  0  0  0  0  0  0  0  0
   14.3494   19.7959    5.5524 O   0  0  0  0  0  0  0  0  0  0  0  0
   17.2129   21.0853    5.7077 H   0  0  0  0  0  0  0  0  0  0  0  0
   16.2082   19.4421    4.0418 C   0  0  0  0  0  0  0  0  0  0  0  0
   18.1836   18.4335    5.1875 C   0  0  0  0  0  0  0  0  0  0  0  0
   18.9669   19.3674    5.0353 O   0  0  0  0  0  0  0  0  0  0  0  0
   16.9173   18.3665    4.7783 N   0  0  0  0  0  0  0  0  0  0  0  0
   16.4157   17.5435    4.9791 H   0  0  0  0  0  0  0  0  0  0  0  0
   18.9199   17.2703    7.2243 C   0  0  0  0  0  0  0  0  0  0  0  0
   18.5104   17.2265    5.8504 O   0  0  0  0  0  0  0  0  0  0  0  0
   15.4296   18.9152    2.7782 C   0  0  0  0  0  0  0  0  0  0  0  0
   16.4484   18.5403    1.6942 C   0  0  0  0  0  0  0  0  0  0  0  0
   14.5500   19.9741    2.1473 C   0  0  0  0  0  0  0  0  0  0  0  0
   14.6363   17.6471    3.0748 C   0  0  0  0  0  0  0  0  0  0  0  0
   15.4450   22.8643    6.7500 C   0  0  0  0  0  0  0  0  0  0  0  0
   13.9809   23.0924    7.0863 C   0  0  0  0  0  0  0  0  0  0  0  0
   13.1171   23.4473    5.8444 C   0  0  0  0  0  0  0  0  0  0  0  0
   12.2191   24.7076    5.9727 C   0  0  0  0  0  0  0  0  0  0  0  0
   13.0972   25.6432    6.6017 O   0  0  0  0  0  0  0  0  0  0  0  0
   12.6325   26.4843    6.7338 H   0  0  0  0  0  0  0  0  0  0  0  0
   10.8705   24.5874    6.7537 C   0  0  0  0  0  0  0  0  0  0  0  0
   10.2796   23.5143    6.8940 O   0  0  0  0  0  0  0  0  0  0  0  0
   10.3962   25.7612    7.2237 N   0  0  0  0  0  0  0  0  0  0  0  0
   10.9709   26.5404    7.0453 H   0  0  0  0  0  0  0  0  0  0  0  0
    9.0906   26.0784    7.9996 C   0  0  0  0  0  0  0  0  0  0  0  0
    6.5599   27.0862    5.4007 C   0  0  0  0  0  0  0  0  0  0  0  0
    7.4664   26.4684    6.3741 N   0  0  0  0  0  0  0  0  0  0  0  0
    8.3741   27.1155    7.1606 C   0  0  0  0  0  0  0  0  0  0  0  0
    8.5619   28.3335    7.1600 O   0  0  0  0  0  0  0  0  0  0  0  0
    7.4149   25.4899    6.4693 H   0  0  0  0  0  0  0  0  0  0  0  0
    9.1994   26.5431    9.5843 C   0  0  0  0  0  0  0  0  0  0  0  0
   10.5042   27.3649    9.8765 C   0  0  0  0  0  0  0  0  0  0  0  0
    9.2334   25.3472   10.5461 C   0  0  0  0  0  0  0  0  0  0  0  0
    7.9960   27.3917   10.0108 C   0  0  0  0  0  0  0  0  0  0  0  0
   11.8686   25.2830    4.5302 C   0  0  0  0  0  0  0  0  0  0  0  0
   10.7281   24.5224    3.7702 C   0  0  0  0  0  0  0  0  0  0  0  0
    9.4165   25.1730    3.6491 C   0  0  0  0  0  0  0  0  0  0  0  0
    8.3372   24.5125    2.9436 C   0  0  0  0  0  0  0  0  0  0  0  0
    8.5484   23.1993    2.3514 C   0  0  0  0  0  0  0  0  0  0  0  0
    9.8404   22.5474    2.4664 C   0  0  0  0  0  0  0  0  0  0  0  0
   10.9234   23.2087    3.1734 C   0  0  0  0  0  0  0  0  0  0  0  0
   16.9285   21.5852    8.0663 C   0  0  0  0  0  0  0  0  0  0  0  0
   17.0385   20.4001    9.0267 C   0  0  0  0  0  0  0  0  0  0  0  0
   18.3207   20.1302    9.6543 C   0  0  0  0  0  0  0  0  0  0  0  0
   18.4536   19.0265   10.5615 C   0  0  0  0  0  0  0  0  0  0  0  0
   17.3063   18.1742   10.8542 C   0  0  0  0  0  0  0  0  0  0  0  0
   16.0112   18.4413   10.2274 C   0  0  0  0  0  0  0  0  0  0  0  0
   15.8797   19.5692    9.3049 C   0  0  0  0  0  0  0  0  0  0  0  0
   18.2828   15.6390   13.9579 S   0  0  0  0  0  0  0  0  0  0  0  0
   18.1686   17.1687   13.0649 C   0  0  0  0  0  0  0  0  0  0  0  0
   17.5169   17.0449   11.7861 C   0  0  0  0  0  0  0  0  0  0  0  0
   17.1099   15.6778   11.5390 C   0  0  0  0  0  0  0  0  0  0  0  0
   17.4518   14.8154   12.6104 C   0  0  0  0  0  0  0  0  0  0  0  0
 20 23  1  0  0  0
 20 37  1  0  0  0
 20 21  1  0  0  0
 20 19  1  0  0  0
 23 24  2  0  0  0
 23 25  1  0  0  0
 25 27  1  0  0  0
 27 33  1  0  0  0
 27 30  1  0  0  0
 33 34  1  0  0  0
 33 35  1  0  0  0
 33 36  1  0  0  0
 28 29  1  0  0  0
 29 30  1  0  0  0
 30 31  2  0  0  0
 37 38  1  0  0  0
 38 39  1  0  0  0
 38 43  2  0  0  0
 39 40  2  0  0  0
 40 41  1  0  0  0
 41 42  2  0  0  0
 42 43  1  0  0  0
 19 18  1  0  0  0
 18 17  1  0  0  0
 17  1  1  0  0  0
  1 44  1  0  0  0
  1  3  1  0  0  0
 44 45  1  0  0  0
 45 46  1  0  0  0
 45 50  2  0  0  0
 46 47  2  0  0  0
 47 48  1  0  0  0
 48 49  2  0  0  0
 48 53  1  0  0  0
 49 50  1  0  0  0
 13  6  1  0  0  0
 13 14  1  0  0  0
 13 15  1  0  0  0
 13 16  1  0  0  0
 11 12  1  0  0  0
 12  7  1  0  0  0
  7  8  2  0  0  0
  7  9  1  0  0  0
  9  6  1  0  0  0
  6  2  1  0  0  0
  2  3  1  0  0  0
  2  4  2  0  0  0
 51 52  1  0  0  0
 51 55  1  0  0  0
 52 53  2  0  0  0
 53 54  1  0  0  0
 54 55  2  0  0  0
 25 26  1  0  0  0
 29 32  1  0  0  0
 21 22  1  0  0  0
  9 10  1  0  0  0
  3  5  1  0  0  0
M  END
> <minimizedAffinity>
-9.82984

$$$$
2XYF_G40_B_1200


 55 57  0  0  0  0  0  0  0  0999 V2000
   10.6409   24.5875    3.9029 N   0  0  0  0  0  0  0  0  0  0  0  0
    9.8667   25.1560    6.0753 C   0  0  0  0  0  0  0  0  0  0  0  0
   10.3113   25.4934    4.8473 N   0  0  0  0  0  0  0  0  0  0  0  0
    9.7260   23.9704    6.4419 O   0  0  0  0  0  0  0  0  0  0  0  0
   10.3998   26.4493    4.6288 H   0  0  0  0  0  0  0  0  0  0  0  0
    9.5298   26.3138    7.0183 C   0  0  0  0  0  0  0  0  0  0  0  0
    7.5415   27.0375    5.6935 C   0  0  0  0  0  0  0  0  0  0  0  0
    8.1297   27.7185    4.8574 O   0  0  0  0  0  0  0  0  0  0  0  0
    8.0793   26.3623    6.7086 N   0  0  0  0  0  0  0  0  0  0  0  0
    7.4701   25.8590    7.2958 H   0  0  0  0  0  0  0  0  0  0  0  0
    5.4337   26.9892    6.9578 C   0  0  0  0  0  0  0  0  0  0  0  0
    6.1389   26.8497    5.7166 O   0  0  0  0  0  0  0  0  0  0  0  0
    9.8311   26.3083    8.5642 C   0  0  0  0  0  0  0  0  0  0  0  0
    9.5171   27.6988    9.1310 C   0  0  0  0  0  0  0  0  0  0  0  0
   11.2941   26.0734    8.8760 C   0  0  0  0  0  0  0  0  0  0  0  0
    8.9431   25.3279    9.3230 C   0  0  0  0  0  0  0  0  0  0  0  0
   12.0638   24.5322    3.8072 C   0  0  0  0  0  0  0  0  0  0  0  0
   12.5994   23.3232    4.5559 C   0  0  0  0  0  0  0  0  0  0  0  0
   13.3493   23.6980    5.8642 C   0  0  0  0  0  0  0  0  0  0  0  0
   14.4784   22.7287    6.3075 C   0  0  0  0  0  0  0  0  0  0  0  0
   15.6412   23.3396    5.7450 O   0  0  0  0  0  0  0  0  0  0  0  0
   16.4231   22.8086    5.9633 H   0  0  0  0  0  0  0  0  0  0  0  0
   14.3764   21.2245    5.8947 C   0  0  0  0  0  0  0  0  0  0  0  0
   13.4290   20.5090    6.2276 O   0  0  0  0  0  0  0  0  0  0  0  0
   15.4293   20.7740    5.1792 N   0  0  0  0  0  0  0  0  0  0  0  0
   16.1138   21.4527    4.9789 H   0  0  0  0  0  0  0  0  0  0  0  0
   15.7330   19.3580    4.6223 C   0  0  0  0  0  0  0  0  0  0  0  0
   18.5782   17.1025    5.6182 C   0  0  0  0  0  0  0  0  0  0  0  0
   17.3345   17.7808    5.2384 N   0  0  0  0  0  0  0  0  0  0  0  0
   17.1891   19.1069    4.9532 C   0  0  0  0  0  0  0  0  0  0  0  0
   18.1018   19.9348    4.9776 O   0  0  0  0  0  0  0  0  0  0  0  0
   16.5244   17.2240    5.1839 H   0  0  0  0  0  0  0  0  0  0  0  0
   15.4042   19.0410    3.0315 C   0  0  0  0  0  0  0  0  0  0  0  0
   16.7086   18.8893    2.1718 C   0  0  0  0  0  0  0  0  0  0  0  0
   14.5913   20.1599    2.3655 C   0  0  0  0  0  0  0  0  0  0  0  0
   14.5738   17.7630    2.8673 C   0  0  0  0  0  0  0  0  0  0  0  0
   14.6439   22.7636    7.8906 C   0  0  0  0  0  0  0  0  0  0  0  0
   15.6517   21.7160    8.4771 C   0  0  0  0  0  0  0  0  0  0  0  0
   15.1185   20.6157    9.2915 C   0  0  0  0  0  0  0  0  0  0  0  0
   16.0119   19.6171    9.8426 C   0  0  0  0  0  0  0  0  0  0  0  0
   17.4435   19.7008    9.5915 C   0  0  0  0  0  0  0  0  0  0  0  0
   17.9806   20.7847    8.7891 C   0  0  0  0  0  0  0  0  0  0  0  0
   17.0858   21.7865    8.2357 C   0  0  0  0  0  0  0  0  0  0  0  0
   10.0754   25.0333    2.6391 C   0  0  0  0  0  0  0  0  0  0  0  0
    8.5536   24.9536    2.5102 C   0  0  0  0  0  0  0  0  0  0  0  0
    7.8714   25.9476    1.6993 C   0  0  0  0  0  0  0  0  0  0  0  0
    6.4443   25.8968    1.5582 C   0  0  0  0  0  0  0  0  0  0  0  0
    5.6768   24.8520    2.2273 C   0  0  0  0  0  0  0  0  0  0  0  0
    6.3575   23.8463    3.0439 C   0  0  0  0  0  0  0  0  0  0  0  0
    7.8129   23.9005    3.1830 C   0  0  0  0  0  0  0  0  0  0  0  0
    1.7316   25.6771    1.3509 S   0  0  0  0  0  0  0  0  0  0  0  0
    3.4871   25.9338    1.4049 C   0  0  0  0  0  0  0  0  0  0  0  0
    4.2081   24.8677    2.0521 C   0  0  0  0  0  0  0  0  0  0  0  0
    3.3066   23.8314    2.5091 C   0  0  0  0  0  0  0  0  0  0  0  0
    1.9541   24.1258    2.2046 C   0  0  0  0  0  0  0  0  0  0  0  0
 20 23  1  0  0  0
 20 37  1  0  0  0
 20 21  1  0  0  0
 20 19  1  0  0  0
 23 24  2  0  0  0
 23 25  1  0  0  0
 25 27  1  0  0  0
 27 33  1  0  0  0
 27 30  1  0  0  0
 33 34  1  0  0  0
 33 35  1  0  0  0
 33 36  1  0  0  0
 28 29  1  0  0  0
 29 30  1  0  0  0
 30 31  2  0  0  0
 37 38  1  0  0  0
 38 39  1  0  0  0
 38 43  2  0  0  0
 39 40  2  0  0  0
 40 41  1  0  0  0
 41 42  2  0  0  0
 42 43  1  0  0  0
 19 18  1  0  0  0
 18 17  1  0  0  0
 17  1  1  0  0  0
  1 44  1  0  0  0
  1  3  1  0  0  0
 44 45  1  0  0  0
 45 46  1  0  0  0
 45 50  2  0  0  0
 46 47  2  0  0  0
 47 48  1  0  0  0
 48 49  2  0  0  0
 48 53  1  0  0  0
 49 50  1  0  0  0
 13  6  1  0  0  0
 13 14  1  0  0  0
 13 15  1  0  0  0
 13 16  1  0  0  0
 11 12  1  0  0  0
 12  7  1  0  0  0
  7  8  2  0  0  0
  7  9  1  0  0  0
  9  6  1  0  0  0
  6  2  1  0  0  0
  2  3  1  0  0  0
  2  4  2  0  0  0
 51 52  1  0  0  0
 51 55  1  0  0  0
 52 53  2  0  0  0
 53 54  1  0  0  0
 54 55  2  0  0  0
 25 26  1  0  0  0
 29 32  1  0  0  0
 21 22  1  0  0  0
  9 10  1  0  0  0
  3  5  1  0  0  0
M  END
> <minimizedAffinity>
-9.81133

$$$$
2XYF_G40_B_1200


 55 57  0  0  0  0  0  0  0  0999 V2000
   15.0900   23.8890    7.0884 N   0  0  0  0  0  0  0  0  0  0  0  0
   14.6721   22.6379    5.1130 C   0  0  0  0  0  0  0  0  0  0  0  0
   14.5732   22.8206    6.4458 N   0  0  0  0  0  0  0  0  0  0  0  0
   15.2563   23.4458    4.3607 O   0  0  0  0  0  0  0  0  0  0  0  0
   14.1000   22.1400    6.9769 H   0  0  0  0  0  0  0  0  0  0  0  0
   14.0186   21.3734    4.5499 C   0  0  0  0  0  0  0  0  0  0  0  0
   11.7627   22.2232    3.9016 C   0  0  0  0  0  0  0  0  0  0  0  0
   11.1419   21.8346    4.8876 O   0  0  0  0  0  0  0  0  0  0  0  0
   13.0623   22.0673    3.6522 N   0  0  0  0  0  0  0  0  0  0  0  0
   13.4135   22.4396    2.8112 H   0  0  0  0  0  0  0  0  0  0  0  0
    9.8088   23.3521    2.9258 C   0  0  0  0  0  0  0  0  0  0  0  0
   11.1760   22.9301    2.8249 O   0  0  0  0  0  0  0  0  0  0  0  0
   14.8104   20.2163    3.8323 C   0  0  0  0  0  0  0  0  0  0  0  0
   14.3670   18.8741    4.4285 C   0  0  0  0  0  0  0  0  0  0  0  0
   16.3029   20.2863    4.0782 C   0  0  0  0  0  0  0  0  0  0  0  0
   14.5020   20.1431    2.3406 C   0  0  0  0  0  0  0  0  0  0  0  0
   16.2989   23.4874    7.7322 C   0  0  0  0  0  0  0  0  0  0  0  0
   16.1322   22.1168    8.3666 C   0  0  0  0  0  0  0  0  0  0  0  0
   17.4634   21.3206    8.4590 C   0  0  0  0  0  0  0  0  0  0  0  0
   17.3466   19.7764    8.3461 C   0  0  0  0  0  0  0  0  0  0  0  0
   16.5116   19.6183    7.1974 O   0  0  0  0  0  0  0  0  0  0  0  0
   16.3685   18.6738    7.0293 H   0  0  0  0  0  0  0  0  0  0  0  0
   16.7832   18.9788    9.5666 C   0  0  0  0  0  0  0  0  0  0  0  0
   15.5883   18.9902    9.8709 O   0  0  0  0  0  0  0  0  0  0  0  0
   17.7214   18.3129   10.2737 N   0  0  0  0  0  0  0  0  0  0  0  0
   18.6363   18.3850    9.9173 H   0  0  0  0  0  0  0  0  0  0  0  0
   17.5883   17.4524   11.5579 C   0  0  0  0  0  0  0  0  0  0  0  0
   19.9382   18.3561   14.3572 C   0  0  0  0  0  0  0  0  0  0  0  0
   18.8514   18.1041   13.4051 N   0  0  0  0  0  0  0  0  0  0  0  0
   18.9609   17.4805   12.1967 C   0  0  0  0  0  0  0  0  0  0  0  0
   20.0104   17.0352   11.7287 O   0  0  0  0  0  0  0  0  0  0  0  0
   17.9540   18.4159   13.6636 H   0  0  0  0  0  0  0  0  0  0  0  0
   17.0075   15.9084   11.4248 C   0  0  0  0  0  0  0  0  0  0  0  0
   17.3725   15.0247   12.6695 C   0  0  0  0  0  0  0  0  0  0  0  0
   17.5766   15.1699   10.2054 C   0  0  0  0  0  0  0  0  0  0  0  0
   15.4840   15.8877   11.2557 C   0  0  0  0  0  0  0  0  0  0  0  0
   18.7633   19.1416    7.9928 C   0  0  0  0  0  0  0  0  0  0  0  0
   18.7558   18.1182    6.8055 C   0  0  0  0  0  0  0  0  0  0  0  0
   18.5462   16.6967    7.1115 C   0  0  0  0  0  0  0  0  0  0  0  0
   18.5185   15.7174    6.0441 C   0  0  0  0  0  0  0  0  0  0  0  0
   18.6990   16.1389    4.6623 C   0  0  0  0  0  0  0  0  0  0  0  0
   18.9079   17.5410    4.3495 C   0  0  0  0  0  0  0  0  0  0  0  0
   18.9357   18.5239    5.4188 C   0  0  0  0  0  0  0  0  0  0  0  0
   14.1205   24.3258    8.0808 C   0  0  0  0  0  0  0  0  0  0  0  0
   12.8112   24.9044    7.5426 C   0  0  0  0  0  0  0  0  0  0  0  0
   11.8304   25.4048    8.4904 C   0  0  0  0  0  0  0  0  0  0  0  0
   10.5937   25.9554    8.0147 C   0  0  0  0  0  0  0  0  0  0  0  0
   10.3177   26.0126    6.5833 C   0  0  0  0  0  0  0  0  0  0  0  0
   11.3018   25.5124    5.6227 C   0  0  0  0  0  0  0  0  0  0  0  0
   12.5625   24.9541    6.1122 C   0  0  0  0  0  0  0  0  0  0  0  0
    6.9407   27.3160    4.6057 S   0  0  0  0  0  0  0  0  0  0  0  0
    8.5308   26.5533    4.8067 C   0  0  0  0  0  0  0  0  0  0  0  0
    9.0172   26.5781    6.1625 C   0  0  0  0  0  0  0  0  0  0  0  0
    8.0728   27.2326    7.0429 C   0  0  0  0  0  0  0  0  0  0  0  0
    6.9175   27.6779    6.3530 C   0  0  0  0  0  0  0  0  0  0  0  0
 20 23  1  0  0  0
 20 37  1  0  0  0
 20 21  1  0  0  0
 20 19  1  0  0  0
 23 24  2  0  0  0
 23 25  1  0  0  0
 25 27  1  0  0  0
 27 33  1  0  0  0
 27 30  1  0  0  0
 33 34  1  0  0  0
 33 35  1  0  0  0
 33 36  1  0  0  0
 28 29  1  0  0  0
 29 30  1  0  0  0
 30 31  2  0  0  0
 37 38  1  0  0  0
 38 39  1  0  0  0
 38 43  2  0  0  0
 39 40  2  0  0  0
 40 41  1  0  0  0
 41 42  2  0  0  0
 42 43  1  0  0  0
 19 18  1  0  0  0
 18 17  1  0  0  0
 17  1  1  0  0  0
  1 44  1  0  0  0
  1  3  1  0  0  0
 44 45  1  0  0  0
 45 46  1  0  0  0
 45 50  2  0  0  0
 46 47  2  0  0  0
 47 48  1  0  0  0
 48 49  2  0  0  0
 48 53  1  0  0  0
 49 50  1  0  0  0
 13  6  1  0  0  0
 13 14  1  0  0  0
 13 15  1  0  0  0
 13 16  1  0  0  0
 11 12  1  0  0  0
 12  7  1  0  0  0
  7  8  2  0  0  0
  7  9  1  0  0  0
  9  6  1  0  0  0
  6  2  1  0  0  0
  2  3  1  0  0  0
  2  4  2  0  0  0
 51 52  1  0  0  0
 51 55  1  0  0  0
 52 53  2  0  0  0
 53 54  1  0  0  0
 54 55  2  0  0  0
 25 26  1  0  0  0
 29 32  1  0  0  0
 21 22  1  0  0  0
  9 10  1  0  0  0
  3  5  1  0  0  0
M  END
> <minimizedAffinity>
-9.24181

$$$$
2XYF_G40_B_1200


 55 57  0  0  0  0  0  0  0  0999 V2000
   12.7875   22.0003    3.5285 N   0  0  0  0  0  0  0  0  0  0  0  0
   12.0048   22.5047    5.7136 C   0  0  0  0  0  0  0  0  0  0  0  0
   12.6128   22.8520    4.5607 N   0  0  0  0  0  0  0  0  0  0  0  0
   11.5541   21.3588    5.9225 O   0  0  0  0  0  0  0  0  0  0  0  0
   12.9460   23.7737    4.4674 H   0  0  0  0  0  0  0  0  0  0  0  0
   11.8837   23.6007    6.7753 C   0  0  0  0  0  0  0  0  0  0  0  0
   14.2279   23.1777    7.5223 C   0  0  0  0  0  0  0  0  0  0  0  0
   14.0226   22.1484    8.1604 O   0  0  0  0  0  0  0  0  0  0  0  0
   13.3327   23.9095    6.8600 N   0  0  0  0  0  0  0  0  0  0  0  0
   13.6562   24.7135    6.3929 H   0  0  0  0  0  0  0  0  0  0  0  0
   16.6022   23.2815    8.1510 C   0  0  0  0  0  0  0  0  0  0  0  0
   15.5008   23.7795    7.3788 O   0  0  0  0  0  0  0  0  0  0  0  0
   10.9869   24.8859    6.6178 C   0  0  0  0  0  0  0  0  0  0  0  0
   11.0739   25.7073    7.9105 C   0  0  0  0  0  0  0  0  0  0  0  0
    9.5174   24.5593    6.4530 C   0  0  0  0  0  0  0  0  0  0  0  0
   11.4760   25.7989    5.4986 C   0  0  0  0  0  0  0  0  0  0  0  0
   14.1870   21.7773    3.3590 C   0  0  0  0  0  0  0  0  0  0  0  0
   14.8711   21.6483    4.7097 C   0  0  0  0  0  0  0  0  0  0  0  0
   16.2283   20.8952    4.6374 C   0  0  0  0  0  0  0  0  0  0  0  0
   16.3674   19.6460    5.5491 C   0  0  0  0  0  0  0  0  0  0  0  0
   15.7861   20.0977    6.7738 O   0  0  0  0  0  0  0  0  0  0  0  0
   15.8192   19.3841    7.4300 H   0  0  0  0  0  0  0  0  0  0  0  0
   17.7927   19.0504    5.7877 C   0  0  0  0  0  0  0  0  0  0  0  0
   18.7368   19.2652    5.0242 O   0  0  0  0  0  0  0  0  0  0  0  0
   17.8856   18.2553    6.8753 N   0  0  0  0  0  0  0  0  0  0  0  0
   17.0566   18.1739    7.4000 H   0  0  0  0  0  0  0  0  0  0  0  0
   19.0898   17.4494    7.4302 C   0  0  0  0  0  0  0  0  0  0  0  0
   20.8847   15.4495    4.7932 C   0  0  0  0  0  0  0  0  0  0  0  0
   20.3715   16.3822    5.8021 N   0  0  0  0  0  0  0  0  0  0  0  0
   19.2168   16.2487    6.5163 C   0  0  0  0  0  0  0  0  0  0  0  0
   18.4291   15.3071    6.4084 O   0  0  0  0  0  0  0  0  0  0  0  0
   20.9140   17.1839    5.9817 H   0  0  0  0  0  0  0  0  0  0  0  0
   19.0839   17.0061    9.0247 C   0  0  0  0  0  0  0  0  0  0  0  0
   19.4035   18.2100    9.9795 C   0  0  0  0  0  0  0  0  0  0  0  0
   20.1341   15.9316    9.3394 C   0  0  0  0  0  0  0  0  0  0  0  0
   17.7347   16.4107    9.4433 C   0  0  0  0  0  0  0  0  0  0  0  0
   15.4564   18.4606    5.0014 C   0  0  0  0  0  0  0  0  0  0  0  0
   15.7008   18.0725    3.5024 C   0  0  0  0  0  0  0  0  0  0  0  0
   16.7306   17.0691    3.2009 C   0  0  0  0  0  0  0  0  0  0  0  0
   16.9812   16.6703    1.8308 C   0  0  0  0  0  0  0  0  0  0  0  0
   16.2125   17.2636    0.7460 C   0  0  0  0  0  0  0  0  0  0  0  0
   15.1934   18.2567    1.0332 C   0  0  0  0  0  0  0  0  0  0  0  0
   14.9411   18.6573    2.4066 C   0  0  0  0  0  0  0  0  0  0  0  0
   12.2364   22.6243    2.3358 C   0  0  0  0  0  0  0  0  0  0  0  0
   10.8620   23.2782    2.4847 C   0  0  0  0  0  0  0  0  0  0  0  0
    9.7627   22.4777    2.9964 C   0  0  0  0  0  0  0  0  0  0  0  0
    8.4623   23.0648    3.1490 C   0  0  0  0  0  0  0  0  0  0  0  0
    8.2404   24.4615    2.7907 C   0  0  0  0  0  0  0  0  0  0  0  0
    9.3434   25.2744    2.2768 C   0  0  0  0  0  0  0  0  0  0  0  0
   10.6682   24.6723    2.1251 C   0  0  0  0  0  0  0  0  0  0  0  0
    4.2465   25.4627    2.5472 S   0  0  0  0  0  0  0  0  0  0  0  0
    5.7636   24.6543    2.1053 C   0  0  0  0  0  0  0  0  0  0  0  0
    6.8724   24.9985    2.9583 C   0  0  0  0  0  0  0  0  0  0  0  0
    6.4691   25.9377    3.9833 C   0  0  0  0  0  0  0  0  0  0  0  0
    5.0960   26.2761    3.8893 C   0  0  0  0  0  0  0  0  0  0  0  0
 20 23  1  0  0  0
 20 37  1  0  0  0
 20 21  1  0  0  0
 20 19  1  0  0  0
 23 24  2  0  0  0
 23 25  1  0  0  0
 25 27  1  0  0  0
 27 33  1  0  0  0
 27 30  1  0  0  0
 33 34  1  0  0  0
 33 35  1  0  0  0
 33 36  1  0  0  0
 28 29  1  0  0  0
 29 30  1  0  0  0
 30 31  2  0  0  0
 37 38  1  0  0  0
 38 39  1  0  0  0
 38 43  2  0  0  0
 39 40  2  0  0  0
 40 41  1  0  0  0
 41 42  2  0  0  0
 42 43  1  0  0  0
 19 18  1  0  0  0
 18 17  1  0  0  0
 17  1  1  0  0  0
  1 44  1  0  0  0
  1  3  1  0  0  0
 44 45  1  0  0  0
 45 46  1  0  0  0
 45 50  2  0  0  0
 46 47  2  0  0  0
 47 48  1  0  0  0
 48 49  2  0  0  0
 48 53  1  0  0  0
 49 50  1  0  0  0
 13  6  1  0  0  0
 13 14  1  0  0  0
 13 15  1  0  0  0
 13 16  1  0  0  0
 11 12  1  0  0  0
 12  7  1  0  0  0
  7  8  2  0  0  0
  7  9  1  0  0  0
  9  6  1  0  0  0
  6  2  1  0  0  0
  2  3  1  0  0  0
  2  4  2  0  0  0
 51 52  1  0  0  0
 51 55  1  0  0  0
 52 53  2  0  0  0
 53 54  1  0  0  0
 54 55  2  0  0  0
 25 26  1  0  0  0
 29 32  1  0  0  0
 21 22  1  0  0  0
  9 10  1  0  0  0
  3  5  1  0  0  0
M  END
> <minimizedAffinity>
-9.15700

$$$$
2XYF_G40_B_1200


 55 57  0  0  0  0  0  0  0  0999 V2000
   12.6027   22.3865    3.2752 N   0  0  0  0  0  0  0  0  0  0  0  0
   11.9251   22.7011    5.5299 C   0  0  0  0  0  0  0  0  0  0  0  0
   12.5624   23.1101    4.4136 N   0  0  0  0  0  0  0  0  0  0  0  0
   11.3194   21.6113    5.6025 O   0  0  0  0  0  0  0  0  0  0  0  0
   13.0215   23.9809    4.4302 H   0  0  0  0  0  0  0  0  0  0  0  0
   11.9729   23.6532    6.7276 C   0  0  0  0  0  0  0  0  0  0  0  0
   14.3362   23.4434    7.5040 C   0  0  0  0  0  0  0  0  0  0  0  0
   14.1383   22.6978    8.4598 O   0  0  0  0  0  0  0  0  0  0  0  0
   13.4289   23.9319    6.6592 N   0  0  0  0  0  0  0  0  0  0  0  0
   13.7476   24.5204    5.9372 H   0  0  0  0  0  0  0  0  0  0  0  0
   16.7608   23.5446    7.8974 C   0  0  0  0  0  0  0  0  0  0  0  0
   15.6124   23.9251    7.1268 O   0  0  0  0  0  0  0  0  0  0  0  0
   11.0998   24.9582    6.8521 C   0  0  0  0  0  0  0  0  0  0  0  0
   11.5624   25.7430    8.0865 C   0  0  0  0  0  0  0  0  0  0  0  0
    9.6347   24.6630    7.0953 C   0  0  0  0  0  0  0  0  0  0  0  0
   11.2819   25.8919    5.6602 C   0  0  0  0  0  0  0  0  0  0  0  0
   13.9693   22.1859    2.9158 C   0  0  0  0  0  0  0  0  0  0  0  0
   14.8654   22.3323    4.1342 C   0  0  0  0  0  0  0  0  0  0  0  0
   15.6969   21.0552    4.4377 C   0  0  0  0  0  0  0  0  0  0  0  0
   15.1420   20.1257    5.5510 C   0  0  0  0  0  0  0  0  0  0  0  0
   14.0590   20.8952    6.0771 O   0  0  0  0  0  0  0  0  0  0  0  0
   13.6303   20.4020    6.7939 H   0  0  0  0  0  0  0  0  0  0  0  0
   16.1093   19.6628    6.6883 C   0  0  0  0  0  0  0  0  0  0  0  0
   15.9701   20.0167    7.8612 O   0  0  0  0  0  0  0  0  0  0  0  0
   17.1242   18.8781    6.2667 N   0  0  0  0  0  0  0  0  0  0  0  0
   17.1128   18.6685    5.3049 H   0  0  0  0  0  0  0  0  0  0  0  0
   18.3054   18.2538    7.0557 C   0  0  0  0  0  0  0  0  0  0  0  0
   19.8950   20.6828    9.4533 C   0  0  0  0  0  0  0  0  0  0  0  0
   19.1669   19.6453    8.7151 N   0  0  0  0  0  0  0  0  0  0  0  0
   19.2263   19.4135    7.3720 C   0  0  0  0  0  0  0  0  0  0  0  0
   19.9131   20.0586    6.5777 O   0  0  0  0  0  0  0  0  0  0  0  0
   18.5770   19.0581    9.2409 H   0  0  0  0  0  0  0  0  0  0  0  0
   19.1289   16.9850    6.3842 C   0  0  0  0  0  0  0  0  0  0  0  0
   18.2889   15.6592    6.3896 C   0  0  0  0  0  0  0  0  0  0  0  0
   20.4264   16.6619    7.1382 C   0  0  0  0  0  0  0  0  0  0  0  0
   19.5450   17.2799    4.9385 C   0  0  0  0  0  0  0  0  0  0  0  0
   14.5192   18.8087    4.9088 C   0  0  0  0  0  0  0  0  0  0  0  0
   15.1770   18.3508    3.5616 C   0  0  0  0  0  0  0  0  0  0  0  0
   16.2389   17.3369    3.6134 C   0  0  0  0  0  0  0  0  0  0  0  0
   16.8657   16.8744    2.3918 C   0  0  0  0  0  0  0  0  0  0  0  0
   16.4453   17.4138    1.1065 C   0  0  0  0  0  0  0  0  0  0  0  0
   15.3978   18.4168    1.0446 C   0  0  0  0  0  0  0  0  0  0  0  0
   14.7683   18.8813    2.2687 C   0  0  0  0  0  0  0  0  0  0  0  0
   11.9232   23.1468    2.2380 C   0  0  0  0  0  0  0  0  0  0  0  0
   10.4969   23.6003    2.5523 C   0  0  0  0  0  0  0  0  0  0  0  0
   10.1652   25.0068    2.4019 C   0  0  0  0  0  0  0  0  0  0  0  0
    8.8345   25.4613    2.6876 C   0  0  0  0  0  0  0  0  0  0  0  0
    7.8148   24.5163    3.1298 C   0  0  0  0  0  0  0  0  0  0  0  0
    8.1411   23.0978    3.2815 C   0  0  0  0  0  0  0  0  0  0  0  0
    9.4985   22.6385    2.9868 C   0  0  0  0  0  0  0  0  0  0  0  0
    4.5104   26.6656    4.3445 S   0  0  0  0  0  0  0  0  0  0  0  0
    6.2310   26.2807    4.1400 C   0  0  0  0  0  0  0  0  0  0  0  0
    6.4683   25.0545    3.4219 C   0  0  0  0  0  0  0  0  0  0  0  0
    5.2220   24.4258    3.0385 C   0  0  0  0  0  0  0  0  0  0  0  0
    4.0936   25.1714    3.4623 C   0  0  0  0  0  0  0  0  0  0  0  0
 20 23  1  0  0  0
 20 37  1  0  0  0
 20 21  1  0  0  0
 20 19  1  0  0  0
 23 24  2  0  0  0
 23 25  1  0  0  0
 25 27  1  0  0  0
 27 33  1  0  0  0
 27 30  1  0  0  0
 33 34  1  0  0  0
 33 35  1  0  0  0
 33 36  1  0  0  0
 28 29  1  0  0  0
 29 30  1  0  0  0
 30 31  2  0  0  0
 37 38  1  0  0  0
 38 39  1  0  0  0
 38 43  2  0  0  0
 39 40  2  0  0  0
 40 41  1  0  0  0
 41 42  2  0  0  0
 42 43  1  0  0  0
 19 18  1  0  0  0
 18 17  1  0  0  0
 17  1  1  0  0  0
  1 44  1  0  0  0
  1  3  1  0  0  0
 44 45  1  0  0  0
 45 46  1  0  0  0
 45 50  2  0  0  0
 46 47  2  0  0  0
 47 48  1  0  0  0
 48 49  2  0  0  0
 48 53  1  0  0  0
 49 50  1  0  0  0
 13  6  1  0  0  0
 13 14  1  0  0  0
 13 15  1  0  0  0
 13 16  1  0  0  0
 11 12  1  0  0  0
 12  7  1  0  0  0
  7  8  2  0  0  0
  7  9  1  0  0  0
  9  6  1  0  0  0
  6  2  1  0  0  0
  2  3  1  0  0  0
  2  4  2  0  0  0
 51 52  1  0  0  0
 51 55  1  0  0  0
 52 53  2  0  0  0
 53 54  1  0  0  0
 54 55  2  0  0  0
 25 26  1  0  0  0
 29 32  1  0  0  0
 21 22  1  0  0  0
  9 10  1  0  0  0
  3  5  1  0  0  0
M  END
> <minimizedAffinity>
-8.92976

$$$$
2XYF_G40_B_1200


 55 57  0  0  0  0  0  0  0  0999 V2000
   17.8661   20.5140    8.4326 N   0  0  0  0  0  0  0  0  0  0  0  0
   17.6619   18.2149    8.9932 C   0  0  0  0  0  0  0  0  0  0  0  0
   18.1880   19.2152    8.2569 N   0  0  0  0  0  0  0  0  0  0  0  0
   16.8265   18.4098    9.9009 O   0  0  0  0  0  0  0  0  0  0  0  0
   18.8400   18.9862    7.5557 H   0  0  0  0  0  0  0  0  0  0  0  0
   18.1476   16.8009    8.6646 C   0  0  0  0  0  0  0  0  0  0  0  0
   18.5890   16.3337    6.2524 C   0  0  0  0  0  0  0  0  0  0  0  0
   18.0402   15.2368    6.1858 O   0  0  0  0  0  0  0  0  0  0  0  0
   18.6929   17.1212    7.3222 N   0  0  0  0  0  0  0  0  0  0  0  0
   19.1658   17.9779    7.2142 H   0  0  0  0  0  0  0  0  0  0  0  0
   18.6159   18.1218    4.5655 C   0  0  0  0  0  0  0  0  0  0  0  0
   19.2264   16.9676    5.1592 O   0  0  0  0  0  0  0  0  0  0  0  0
   19.1528   15.9834    9.5602 C   0  0  0  0  0  0  0  0  0  0  0  0
   18.4896   14.6590    9.9600 C   0  0  0  0  0  0  0  0  0  0  0  0
   19.4725   16.6779   10.8673 C   0  0  0  0  0  0  0  0  0  0  0  0
   20.4269   15.6125    8.8089 C   0  0  0  0  0  0  0  0  0  0  0  0
   16.8993   20.8768    7.4474 C   0  0  0  0  0  0  0  0  0  0  0  0
   15.6174   21.3512    8.1114 C   0  0  0  0  0  0  0  0  0  0  0  0
   15.2155   22.7951    7.7014 C   0  0  0  0  0  0  0  0  0  0  0  0
   14.4019   22.9317    6.3859 C   0  0  0  0  0  0  0  0  0  0  0  0
   15.4316   23.0778    5.4060 O   0  0  0  0  0  0  0  0  0  0  0  0
   15.0310   23.1729    4.5278 H   0  0  0  0  0  0  0  0  0  0  0  0
   13.3502   24.0827    6.2743 C   0  0  0  0  0  0  0  0  0  0  0  0
   13.4185   25.1105    6.9520 O   0  0  0  0  0  0  0  0  0  0  0  0
   12.3480   23.8344    5.4040 N   0  0  0  0  0  0  0  0  0  0  0  0
   12.4190   22.9771    4.9252 H   0  0  0  0  0  0  0  0  0  0  0  0
   11.1024   24.6840    5.0378 C   0  0  0  0  0  0  0  0  0  0  0  0
    9.7310   26.7676    7.8579 C   0  0  0  0  0  0  0  0  0  0  0  0
   10.3481   26.1655    6.6714 N   0  0  0  0  0  0  0  0  0  0  0  0
   10.3373   24.8435    6.3348 C   0  0  0  0  0  0  0  0  0  0  0  0
    9.7975   23.9547    6.9962 O   0  0  0  0  0  0  0  0  0  0  0  0
   10.8165   26.7758    6.0570 H   0  0  0  0  0  0  0  0  0  0  0  0
   10.1211   24.1692    3.8086 C   0  0  0  0  0  0  0  0  0  0  0  0
   10.1123   22.6061    3.6675 C   0  0  0  0  0  0  0  0  0  0  0  0
   10.5596   24.7108    2.4408 C   0  0  0  0  0  0  0  0  0  0  0  0
    8.6746   24.6385    4.0027 C   0  0  0  0  0  0  0  0  0  0  0  0
   13.6357   21.5726    6.0689 C   0  0  0  0  0  0  0  0  0  0  0  0
   14.0182   20.8957    4.7078 C   0  0  0  0  0  0  0  0  0  0  0  0
   13.5937   21.5472    3.4614 C   0  0  0  0  0  0  0  0  0  0  0  0
   13.9365   20.9640    2.1802 C   0  0  0  0  0  0  0  0  0  0  0  0
   14.7038   19.7279    2.1231 C   0  0  0  0  0  0  0  0  0  0  0  0
   15.1270   19.0756    3.3489 C   0  0  0  0  0  0  0  0  0  0  0  0
   14.7841   19.6595    4.6341 C   0  0  0  0  0  0  0  0  0  0  0  0
   19.0755   21.3023    8.2551 C   0  0  0  0  0  0  0  0  0  0  0  0
   20.0129   21.3887    9.4603 C   0  0  0  0  0  0  0  0  0  0  0  0
   19.9542   20.3396   10.4637 C   0  0  0  0  0  0  0  0  0  0  0  0
   20.8232   20.3929   11.6043 C   0  0  0  0  0  0  0  0  0  0  0  0
   21.7636   21.4972   11.7602 C   0  0  0  0  0  0  0  0  0  0  0  0
   21.8298   22.5563   10.7525 C   0  0  0  0  0  0  0  0  0  0  0  0
   20.9436   22.4967    9.5899 C   0  0  0  0  0  0  0  0  0  0  0  0
   23.9316   20.6428   15.1637 S   0  0  0  0  0  0  0  0  0  0  0  0
   22.8726   20.3318   13.7736 C   0  0  0  0  0  0  0  0  0  0  0  0
   22.6189   21.4983   12.9671 C   0  0  0  0  0  0  0  0  0  0  0  0
   23.3010   22.6585   13.5000 C   0  0  0  0  0  0  0  0  0  0  0  0
   24.0411   22.3542   14.6698 C   0  0  0  0  0  0  0  0  0  0  0  0
 20 23  1  0  0  0
 20 37  1  0  0  0
 20 21  1  0  0  0
 20 19  1  0  0  0
 23 24  2  0  0  0
 23 25  1  0  0  0
 25 27  1  0  0  0
 27 33  1  0  0  0
 27 30  1  0  0  0
 33 34  1  0  0  0
 33 35  1  0  0  0
 33 36  1  0  0  0
 28 29  1  0  0  0
 29 30  1  0  0  0
 30 31  2  0  0  0
 37 38  1  0  0  0
 38 39  1  0  0  0
 38 43  2  0  0  0
 39 40  2  0  0  0
 40 41  1  0  0  0
 41 42  2  0  0  0
 42 43  1  0  0  0
 19 18  1  0  0  0
 18 17  1  0  0  0
 17  1  1  0  0  0
  1 44  1  0  0  0
  1  3  1  0  0  0
 44 45  1  0  0  0
 45 46  1  0  0  0
 45 50  2  0  0  0
 46 47  2  0  0  0
 47 48  1  0  0  0
 48 49  2  0  0  0
 48 53  1  0  0  0
 49 50  1  0  0  0
 13  6  1  0  0  0
 13 14  1  0  0  0
 13 15  1  0  0  0
 13 16  1  0  0  0
 11 12  1  0  0  0
 12  7  1  0  0  0
  7  8  2  0  0  0
  7  9  1  0  0  0
  9  6  1  0  0  0
  6  2  1  0  0  0
  2  3  1  0  0  0
  2  4  2  0  0  0
 51 52  1  0  0  0
 51 55  1  0  0  0
 52 53  2  0  0  0
 53 54  1  0  0  0
 54 55  2  0  0  0
 25 26  1  0  0  0
 29 32  1  0  0  0
 21 22  1  0  0  0
  9 10  1  0  0  0
  3  5  1  0  0  0
M  END
> <minimizedAffinity>
-8.77804

$$$$
2XYF_G40_B_1200


 55 57  0  0  0  0  0  0  0  0999 V2000
   18.4975   17.6797    8.2386 N   0  0  0  0  0  0  0  0  0  0  0  0
   18.8889   15.6028    7.1547 C   0  0  0  0  0  0  0  0  0  0  0  0
   19.2350   16.5690    8.0300 N   0  0  0  0  0  0  0  0  0  0  0  0
   17.8529   15.6591    6.4594 O   0  0  0  0  0  0  0  0  0  0  0  0
   20.0681   16.4582    8.5427 H   0  0  0  0  0  0  0  0  0  0  0  0
   19.8381   14.4062    7.0524 C   0  0  0  0  0  0  0  0  0  0  0  0
   21.0106   14.9556    4.9181 C   0  0  0  0  0  0  0  0  0  0  0  0
   20.3248   14.2711    4.1632 O   0  0  0  0  0  0  0  0  0  0  0  0
   20.8745   15.0868    6.2371 N   0  0  0  0  0  0  0  0  0  0  0  0
   21.5076   15.6783    6.7047 H   0  0  0  0  0  0  0  0  0  0  0  0
   23.0887   15.1788    3.6236 C   0  0  0  0  0  0  0  0  0  0  0  0
   22.1020   15.7505    4.4937 O   0  0  0  0  0  0  0  0  0  0  0  0
   20.4330   13.6436    8.2955 C   0  0  0  0  0  0  0  0  0  0  0  0
   20.8542   12.2363    7.8533 C   0  0  0  0  0  0  0  0  0  0  0  0
   19.4132   13.4262    9.3936 C   0  0  0  0  0  0  0  0  0  0  0  0
   21.6904   14.3144    8.8381 C   0  0  0  0  0  0  0  0  0  0  0  0
   19.0012   18.7201    7.4015 C   0  0  0  0  0  0  0  0  0  0  0  0
   18.2834   20.0279    7.6903 C   0  0  0  0  0  0  0  0  0  0  0  0
   16.7539   19.9563    7.4259 C   0  0  0  0  0  0  0  0  0  0  0  0
   16.1009   21.2348    6.8341 C   0  0  0  0  0  0  0  0  0  0  0  0
   16.9666   22.2665    7.3116 O   0  0  0  0  0  0  0  0  0  0  0  0
   16.6485   23.1270    6.9965 H   0  0  0  0  0  0  0  0  0  0  0  0
   14.6094   21.5429    7.1858 C   0  0  0  0  0  0  0  0  0  0  0  0
   14.0672   21.1139    8.2068 O   0  0  0  0  0  0  0  0  0  0  0  0
   13.9635   22.2830    6.2592 N   0  0  0  0  0  0  0  0  0  0  0  0
   14.5170   22.5634    5.4948 H   0  0  0  0  0  0  0  0  0  0  0  0
   12.4887   22.7622    6.2063 C   0  0  0  0  0  0  0  0  0  0  0  0
   12.9975   21.8686    2.5845 C   0  0  0  0  0  0  0  0  0  0  0  0
   13.0388   22.2509    3.9999 N   0  0  0  0  0  0  0  0  0  0  0  0
   11.9762   22.3158    4.8531 C   0  0  0  0  0  0  0  0  0  0  0  0
   10.8112   22.0581    4.5449 O   0  0  0  0  0  0  0  0  0  0  0  0
   13.9204   22.4838    4.3709 H   0  0  0  0  0  0  0  0  0  0  0  0
   12.1603   24.3596    6.4877 C   0  0  0  0  0  0  0  0  0  0  0  0
   12.4486   25.2577    5.2332 C   0  0  0  0  0  0  0  0  0  0  0  0
   13.0109   24.9427    7.6247 C   0  0  0  0  0  0  0  0  0  0  0  0
   10.7001   24.5744    6.9023 C   0  0  0  0  0  0  0  0  0  0  0  0
   16.2088   21.2233    5.2457 C   0  0  0  0  0  0  0  0  0  0  0  0
   16.1078   19.8065    4.5827 C   0  0  0  0  0  0  0  0  0  0  0  0
   17.3411   19.1767    4.0922 C   0  0  0  0  0  0  0  0  0  0  0  0
   17.2967   17.8623    3.4844 C   0  0  0  0  0  0  0  0  0  0  0  0
   16.0279   17.1598    3.3569 C   0  0  0  0  0  0  0  0  0  0  0  0
   14.8035   17.7739    3.8374 C   0  0  0  0  0  0  0  0  0  0  0  0
   14.8466   19.0917    4.4471 C   0  0  0  0  0  0  0  0  0  0  0  0
   18.6398   18.0548    9.6367 C   0  0  0  0  0  0  0  0  0  0  0  0
   17.9536   17.1456   10.6571 C   0  0  0  0  0  0  0  0  0  0  0  0
   16.5521   16.8156   10.4629 C   0  0  0  0  0  0  0  0  0  0  0  0
   15.8822   15.9630   11.4028 C   0  0  0  0  0  0  0  0  0  0  0  0
   16.6032   15.4283   12.5528 C   0  0  0  0  0  0  0  0  0  0  0  0
   18.0155   15.7548   12.7537 C   0  0  0  0  0  0  0  0  0  0  0  0
   18.6951   16.6225   11.7916 C   0  0  0  0  0  0  0  0  0  0  0  0
   13.8252   13.5728   14.9722 S   0  0  0  0  0  0  0  0  0  0  0  0
   14.4554   14.7551   13.8079 C   0  0  0  0  0  0  0  0  0  0  0  0
   15.8482   14.5688   13.4905 C   0  0  0  0  0  0  0  0  0  0  0  0
   16.4015   13.4437   14.2141 C   0  0  0  0  0  0  0  0  0  0  0  0
   15.4393   12.8149   15.0433 C   0  0  0  0  0  0  0  0  0  0  0  0
 20 23  1  0  0  0
 20 37  1  0  0  0
 20 21  1  0  0  0
 20 19  1  0  0  0
 23 24  2  0  0  0
 23 25  1  0  0  0
 25 27  1  0  0  0
 27 33  1  0  0  0
 27 30  1  0  0  0
 33 34  1  0  0  0
 33 35  1  0  0  0
 33 36  1  0  0  0
 28 29  1  0  0  0
 29 30  1  0  0  0
 30 31  2  0  0  0
 37 38  1  0  0  0
 38 39  1  0  0  0
 38 43  2  0  0  0
 39 40  2  0  0  0
 40 41  1  0  0  0
 41 42  2  0  0  0
 42 43  1  0  0  0
 19 18  1  0  0  0
 18 17  1  0  0  0
 17  1  1  0  0  0
  1 44  1  0  0  0
  1  3  1  0  0  0
 44 45  1  0  0  0
 45 46  1  0  0  0
 45 50  2  0  0  0
 46 47  2  0  0  0
 47 48  1  0  0  0
 48 49  2  0  0  0
 48 53  1  0  0  0
 49 50  1  0  0  0
 13  6  1  0  0  0
 13 14  1  0  0  0
 13 15  1  0  0  0
 13 16  1  0  0  0
 11 12  1  0  0  0
 12  7  1  0  0  0
  7  8  2  0  0  0
  7  9  1  0  0  0
  9  6  1  0  0  0
  6  2  1  0  0  0
  2  3  1  0  0  0
  2  4  2  0  0  0
 51 52  1  0  0  0
 51 55  1  0  0  0
 52 53  2  0  0  0
 53 54  1  0  0  0
 54 55  2  0  0  0
 25 26  1  0  0  0
 29 32  1  0  0  0
 21 22  1  0  0  0
  9 10  1  0  0  0
  3  5  1  0  0  0
M  END
> <minimizedAffinity>
-8.76000

$$$$
