4NCN_GTP_A_1001


 41 43  0  0  0  0  0  0  0  0999 V2000
  -13.3055   18.6968    9.5542 C   0  0  0  0  0  0  0  0  0  0  0  0
  -13.2835   19.9380   10.2724 O   0  0  0  0  0  0  0  0  0  0  0  0
  -12.5881   18.9566    8.2330 C   0  0  0  0  0  0  0  0  0  0  0  0
  -13.5669   19.1503    7.2506 O   0  0  0  0  0  0  0  0  0  0  0  0
  -11.9270   20.2805    8.4626 C   0  0  0  0  0  0  0  0  0  0  0  0
  -11.6087   20.9981    7.2733 O   0  0  0  0  0  0  0  0  0  0  0  0
  -12.8865   20.9830    9.4300 C   0  0  0  0  0  0  0  0  0  0  0  0
  -14.1659   19.8616    7.5267 H   0  0  0  0  0  0  0  0  0  0  0  0
  -12.4204   21.1639    6.7688 H   0  0  0  0  0  0  0  0  0  0  0  0
  -12.0885   21.9097   10.2769 N   0  0  0  0  0  0  0  0  0  0  0  0
  -10.9408   21.6251   11.0192 C   0  0  0  0  0  0  0  0  0  0  0  0
  -10.5515   22.8084   11.6128 N   0  0  0  0  0  0  0  0  0  0  0  0
  -11.4506   23.7657   11.2869 C   0  0  0  0  0  0  0  0  0  0  0  0
  -11.5811   25.1141   11.6068 C   0  0  0  0  0  0  0  0  0  0  0  0
  -10.7337   25.6703   12.3126 O   0  0  0  0  0  0  0  0  0  0  0  0
  -12.6022   25.8578   11.0546 N   0  0  0  0  0  0  0  0  0  0  0  0
  -13.5609   25.2658   10.2466 C   0  0  0  0  0  0  0  0  0  0  0  0
  -14.6169   25.9405    9.7191 N   0  0  0  0  0  0  0  0  0  0  0  0
  -13.4535   23.9487    9.9822 N   0  0  0  0  0  0  0  0  0  0  0  0
  -12.4094   23.2165   10.4658 C   0  0  0  0  0  0  0  0  0  0  0  0
  -12.6514   26.8240   11.2368 H   0  0  0  0  0  0  0  0  0  0  0  0
  -14.7229   26.9034    9.8942 H   0  0  0  0  0  0  0  0  0  0  0  0
  -15.2755   25.4660    9.1621 H   0  0  0  0  0  0  0  0  0  0  0  0
  -12.5977   17.7042   10.4855 C   0  0  0  0  0  0  0  0  0  0  0  0
  -11.5356   17.0645    9.7462 O   0  0  0  0  0  0  0  0  0  0  0  0
  -10.3999   16.2357   10.5054 P   0  0  0  0  0  0  0  0  0  0  0  0
   -9.2185   17.1348   10.6217 O   0  0  0  0  0  0  0  0  0  0  0  0
  -10.1216   14.8864    9.8479 O   0  0  0  0  0  0  0  0  0  0  0  0
   -9.4280   14.4225   10.3426 H   0  0  0  0  0  0  0  0  0  0  0  0
  -11.0965   15.9922   11.9594 O   0  0  0  0  0  0  0  0  0  0  0  0
  -10.5191   15.0823   13.1270 P   0  0  0  0  0  0  0  0  0  0  0  0
  -10.7836   15.8835   14.3784 O   0  0  0  0  0  0  0  0  0  0  0  0
   -9.0329   14.8355   12.8917 O   0  0  0  0  0  0  0  0  0  0  0  0
   -8.6806   14.2800   13.6046 H   0  0  0  0  0  0  0  0  0  0  0  0
  -11.3966   13.7253   13.0363 O   0  0  0  0  0  0  0  0  0  0  0  0
  -10.8495   12.2301   12.6203 P   0  0  0  0  0  0  0  0  0  0  0  0
   -9.6267   11.9493   13.4303 O   0  0  0  0  0  0  0  0  0  0  0  0
  -11.9176   11.1920   12.8711 O   0  0  0  0  0  0  0  0  0  0  0  0
  -10.4949   12.5341   11.1878 O   0  0  0  0  0  0  0  0  0  0  0  0
  -11.5824   10.3165   12.6220 H   0  0  0  0  0  0  0  0  0  0  0  0
  -10.1413   11.7355   10.7658 H   0  0  0  0  0  0  0  0  0  0  0  0
 36 37  2  0  0  0
 36 38  1  0  0  0
 36 39  1  0  0  0
 36 35  1  0  0  0
 35 31  1  0  0  0
 31 32  2  0  0  0
 31 33  1  0  0  0
 31 30  1  0  0  0
 30 26  1  0  0  0
 26 27  2  0  0  0
 26 28  1  0  0  0
 26 25  1  0  0  0
 25 24  1  0  0  0
 24  1  1  0  0  0
  1  2  1  0  0  0
  1  3  1  0  0  0
  2  7  1  0  0  0
  3  4  1  0  0  0
  3  5  1  0  0  0
  5  6  1  0  0  0
  5  7  1  0  0  0
  7 10  1  0  0  0
 10 11  1  0  0  0
 10 20  1  0  0  0
 11 12  2  0  0  0
 12 13  1  0  0  0
 13 14  1  0  0  0
 13 20  2  0  0  0
 14 15  2  0  0  0
 14 16  1  0  0  0
 16 17  1  0  0  0
 17 18  1  0  0  0
 17 19  2  0  0  0
 19 20  1  0  0  0
 38 40  1  0  0  0
 39 41  1  0  0  0
 33 34  1  0  0  0
 28 29  1  0  0  0
  4  8  1  0  0  0
  6  9  1  0  0  0
 16 21  1  0  0  0
 18 22  1  0  0  0
 18 23  1  0  0  0
M  END
> <minimizedAffinity>
-12.97276

$$$$
4NCN_GTP_A_1001


 41 43  0  0  0  0  0  0  0  0999 V2000
  -13.4187   18.5221    9.5549 C   0  0  0  0  0  0  0  0  0  0  0  0
  -14.2822   19.6364    9.8190 O   0  0  0  0  0  0  0  0  0  0  0  0
  -12.8321   18.7578    8.1665 C   0  0  0  0  0  0  0  0  0  0  0  0
  -13.5575   17.9733    7.2615 O   0  0  0  0  0  0  0  0  0  0  0  0
  -13.1832   20.1871    7.8899 C   0  0  0  0  0  0  0  0  0  0  0  0
  -13.2078   20.5344    6.5081 O   0  0  0  0  0  0  0  0  0  0  0  0
  -14.5022   20.3722    8.6487 C   0  0  0  0  0  0  0  0  0  0  0  0
  -14.5017   18.1820    7.3371 H   0  0  0  0  0  0  0  0  0  0  0  0
  -13.8590   19.9823    6.0475 H   0  0  0  0  0  0  0  0  0  0  0  0
  -14.5931   21.7953    9.0720 N   0  0  0  0  0  0  0  0  0  0  0  0
  -15.6329   22.6978    8.8404 C   0  0  0  0  0  0  0  0  0  0  0  0
  -15.2699   23.8822    9.4480 N   0  0  0  0  0  0  0  0  0  0  0  0
  -14.0384   23.7260    9.9867 C   0  0  0  0  0  0  0  0  0  0  0  0
  -13.1788   24.5680   10.6863 C   0  0  0  0  0  0  0  0  0  0  0  0
  -13.5228   25.7235   10.9549 O   0  0  0  0  0  0  0  0  0  0  0  0
  -11.9817   24.0840   11.1692 N   0  0  0  0  0  0  0  0  0  0  0  0
  -11.5736   22.7871   10.8972 C   0  0  0  0  0  0  0  0  0  0  0  0
  -10.3814   22.2756   11.3039 N   0  0  0  0  0  0  0  0  0  0  0  0
  -12.3915   21.9942   10.1771 N   0  0  0  0  0  0  0  0  0  0  0  0
  -13.6089   22.4392    9.7526 C   0  0  0  0  0  0  0  0  0  0  0  0
  -11.4077   24.6682   11.7157 H   0  0  0  0  0  0  0  0  0  0  0  0
   -9.7621   22.8301   11.8315 H   0  0  0  0  0  0  0  0  0  0  0  0
  -10.1373   21.3508   11.0708 H   0  0  0  0  0  0  0  0  0  0  0  0
  -12.3962   18.5522   10.6983 C   0  0  0  0  0  0  0  0  0  0  0  0
  -11.1118   18.1574   10.1706 O   0  0  0  0  0  0  0  0  0  0  0  0
  -10.5167   16.7066   10.4774 P   0  0  0  0  0  0  0  0  0  0  0  0
   -9.0371   16.8141   10.3480 O   0  0  0  0  0  0  0  0  0  0  0  0
  -11.1616   15.6171    9.6244 O   0  0  0  0  0  0  0  0  0  0  0  0
  -10.7690   14.7582    9.8460 H   0  0  0  0  0  0  0  0  0  0  0  0
  -10.9554   16.5012   12.0343 O   0  0  0  0  0  0  0  0  0  0  0  0
  -10.5411   15.2815   12.9646 P   0  0  0  0  0  0  0  0  0  0  0  0
  -10.8905   15.7492   14.3563 O   0  0  0  0  0  0  0  0  0  0  0  0
   -9.0523   14.9976   12.7978 O   0  0  0  0  0  0  0  0  0  0  0  0
   -8.7995   14.2530   13.3657 H   0  0  0  0  0  0  0  0  0  0  0  0
  -11.4687   14.0607   12.4459 O   0  0  0  0  0  0  0  0  0  0  0  0
  -10.9858   12.5124   12.1674 P   0  0  0  0  0  0  0  0  0  0  0  0
  -10.0406   12.1256   13.2570 O   0  0  0  0  0  0  0  0  0  0  0  0
  -12.1802   11.5887   12.1309 O   0  0  0  0  0  0  0  0  0  0  0  0
  -10.2533   12.7571   10.8736 O   0  0  0  0  0  0  0  0  0  0  0  0
  -11.8817   10.6806   11.9662 H   0  0  0  0  0  0  0  0  0  0  0  0
   -9.8860   11.9209   10.5469 H   0  0  0  0  0  0  0  0  0  0  0  0
 36 37  2  0  0  0
 36 38  1  0  0  0
 36 39  1  0  0  0
 36 35  1  0  0  0
 35 31  1  0  0  0
 31 32  2  0  0  0
 31 33  1  0  0  0
 31 30  1  0  0  0
 30 26  1  0  0  0
 26 27  2  0  0  0
 26 28  1  0  0  0
 26 25  1  0  0  0
 25 24  1  0  0  0
 24  1  1  0  0  0
  1  2  1  0  0  0
  1  3  1  0  0  0
  2  7  1  0  0  0
  3  4  1  0  0  0
  3  5  1  0  0  0
  5  6  1  0  0  0
  5  7  1  0  0  0
  7 10  1  0  0  0
 10 11  1  0  0  0
 10 20  1  0  0  0
 11 12  2  0  0  0
 12 13  1  0  0  0
 13 14  1  0  0  0
 13 20  2  0  0  0
 14 15  2  0  0  0
 14 16  1  0  0  0
 16 17  1  0  0  0
 17 18  1  0  0  0
 17 19  2  0  0  0
 19 20  1  0  0  0
 38 40  1  0  0  0
 39 41  1  0  0  0
 33 34  1  0  0  0
 28 29  1  0  0  0
  4  8  1  0  0  0
  6  9  1  0  0  0
 16 21  1  0  0  0
 18 22  1  0  0  0
 18 23  1  0  0  0
M  END
> <minimizedAffinity>
-11.26182

$$$$
4NCN_GTP_A_1001


 41 43  0  0  0  0  0  0  0  0999 V2000
  -11.4945   19.1085    9.9475 C   0  0  0  0  0  0  0  0  0  0  0  0
  -11.2678   19.1517    8.5320 O   0  0  0  0  0  0  0  0  0  0  0  0
  -12.3868   20.3026   10.2724 C   0  0  0  0  0  0  0  0  0  0  0  0
  -11.5669   21.3186   10.7785 O   0  0  0  0  0  0  0  0  0  0  0  0
  -12.8582   20.7488    8.9228 C   0  0  0  0  0  0  0  0  0  0  0  0
  -13.2891   22.1058    8.8645 O   0  0  0  0  0  0  0  0  0  0  0  0
  -11.6848   20.3808    8.0076 C   0  0  0  0  0  0  0  0  0  0  0  0
  -10.8592   21.5097   10.1433 H   0  0  0  0  0  0  0  0  0  0  0  0
  -12.5579   22.6886    9.1227 H   0  0  0  0  0  0  0  0  0  0  0  0
  -12.2314   20.0841    6.6563 N   0  0  0  0  0  0  0  0  0  0  0  0
  -11.9646   20.7445    5.4555 C   0  0  0  0  0  0  0  0  0  0  0  0
  -12.6833   20.0892    4.4768 N   0  0  0  0  0  0  0  0  0  0  0  0
  -13.3979   19.1000    5.0617 C   0  0  0  0  0  0  0  0  0  0  0  0
  -14.2968   18.1498    4.5858 C   0  0  0  0  0  0  0  0  0  0  0  0
  -14.5519   18.0850    3.3791 O   0  0  0  0  0  0  0  0  0  0  0  0
  -14.8286   17.2126    5.4458 N   0  0  0  0  0  0  0  0  0  0  0  0
  -14.5501   17.2496    6.8035 C   0  0  0  0  0  0  0  0  0  0  0  0
  -15.0879   16.3833    7.7028 N   0  0  0  0  0  0  0  0  0  0  0  0
  -13.7166   18.2040    7.2624 N   0  0  0  0  0  0  0  0  0  0  0  0
  -13.1295   19.0941    6.4119 C   0  0  0  0  0  0  0  0  0  0  0  0
  -15.4152   16.5063    5.0903 H   0  0  0  0  0  0  0  0  0  0  0  0
  -15.7004   15.6751    7.3985 H   0  0  0  0  0  0  0  0  0  0  0  0
  -14.8649   16.4642    8.6583 H   0  0  0  0  0  0  0  0  0  0  0  0
  -12.1412   17.7384   10.1889 C   0  0  0  0  0  0  0  0  0  0  0  0
  -11.2897   16.7253    9.6124 O   0  0  0  0  0  0  0  0  0  0  0  0
  -10.2059   15.9666   10.5083 P   0  0  0  0  0  0  0  0  0  0  0  0
   -9.1031   16.9354   10.7590 O   0  0  0  0  0  0  0  0  0  0  0  0
   -9.7700   14.6366    9.8985 O   0  0  0  0  0  0  0  0  0  0  0  0
   -9.1144   14.2155   10.4762 H   0  0  0  0  0  0  0  0  0  0  0  0
  -11.0562   15.6813   11.8698 O   0  0  0  0  0  0  0  0  0  0  0  0
  -10.5140   14.9423   13.1678 P   0  0  0  0  0  0  0  0  0  0  0  0
  -10.8477   15.8907   14.2935 O   0  0  0  0  0  0  0  0  0  0  0  0
   -9.0146   14.7029   13.0277 O   0  0  0  0  0  0  0  0  0  0  0  0
   -8.6838   14.2518   13.8201 H   0  0  0  0  0  0  0  0  0  0  0  0
  -11.3617   13.5644   13.2169 O   0  0  0  0  0  0  0  0  0  0  0  0
  -10.8596   12.0856   12.6983 P   0  0  0  0  0  0  0  0  0  0  0  0
   -9.5753   11.7699   13.3921 O   0  0  0  0  0  0  0  0  0  0  0  0
  -11.9090   11.0409   12.9960 O   0  0  0  0  0  0  0  0  0  0  0  0
  -10.6233   12.4454   11.2544 O   0  0  0  0  0  0  0  0  0  0  0  0
  -11.6006   10.1752   12.6856 H   0  0  0  0  0  0  0  0  0  0  0  0
  -10.3106   11.6633   10.7733 H   0  0  0  0  0  0  0  0  0  0  0  0
 36 37  2  0  0  0
 36 38  1  0  0  0
 36 39  1  0  0  0
 36 35  1  0  0  0
 35 31  1  0  0  0
 31 32  2  0  0  0
 31 33  1  0  0  0
 31 30  1  0  0  0
 30 26  1  0  0  0
 26 27  2  0  0  0
 26 28  1  0  0  0
 26 25  1  0  0  0
 25 24  1  0  0  0
 24  1  1  0  0  0
  1  2  1  0  0  0
  1  3  1  0  0  0
  2  7  1  0  0  0
  3  4  1  0  0  0
  3  5  1  0  0  0
  5  6  1  0  0  0
  5  7  1  0  0  0
  7 10  1  0  0  0
 10 11  1  0  0  0
 10 20  1  0  0  0
 11 12  2  0  0  0
 12 13  1  0  0  0
 13 14  1  0  0  0
 13 20  2  0  0  0
 14 15  2  0  0  0
 14 16  1  0  0  0
 16 17  1  0  0  0
 17 18  1  0  0  0
 17 19  2  0  0  0
 19 20  1  0  0  0
 38 40  1  0  0  0
 39 41  1  0  0  0
 33 34  1  0  0  0
 28 29  1  0  0  0
  4  8  1  0  0  0
  6  9  1  0  0  0
 16 21  1  0  0  0
 18 22  1  0  0  0
 18 23  1  0  0  0
M  END
> <minimizedAffinity>
-10.86860

$$$$
4NCN_GTP_A_1001


 41 43  0  0  0  0  0  0  0  0999 V2000
  -12.0680   19.6466    9.2413 C   0  0  0  0  0  0  0  0  0  0  0  0
  -12.5284   18.7689    8.2046 O   0  0  0  0  0  0  0  0  0  0  0  0
  -13.2148   20.6131    9.5213 C   0  0  0  0  0  0  0  0  0  0  0  0
  -12.9327   21.8103    8.8520 O   0  0  0  0  0  0  0  0  0  0  0  0
  -14.3724   19.9768    8.8158 C   0  0  0  0  0  0  0  0  0  0  0  0
  -15.4298   20.8728    8.4848 O   0  0  0  0  0  0  0  0  0  0  0  0
  -13.7069   19.2632    7.6335 C   0  0  0  0  0  0  0  0  0  0  0  0
  -12.7848   21.6275    7.9109 H   0  0  0  0  0  0  0  0  0  0  0  0
  -15.0901   21.5748    7.9080 H   0  0  0  0  0  0  0  0  0  0  0  0
  -14.5285   18.0702    7.2952 N   0  0  0  0  0  0  0  0  0  0  0  0
  -15.5312   17.4704    8.0593 C   0  0  0  0  0  0  0  0  0  0  0  0
  -16.0168   16.4152    7.3146 N   0  0  0  0  0  0  0  0  0  0  0  0
  -15.3079   16.3423    6.1643 C   0  0  0  0  0  0  0  0  0  0  0  0
  -15.3375   15.4868    5.0668 C   0  0  0  0  0  0  0  0  0  0  0  0
  -16.1702   14.5764    5.0106 O   0  0  0  0  0  0  0  0  0  0  0  0
  -14.5036   15.7145    3.9927 N   0  0  0  0  0  0  0  0  0  0  0  0
  -13.5678   16.7372    4.0191 C   0  0  0  0  0  0  0  0  0  0  0  0
  -12.6869   16.9733    3.0108 N   0  0  0  0  0  0  0  0  0  0  0  0
  -13.5138   17.5303    5.1073 N   0  0  0  0  0  0  0  0  0  0  0  0
  -14.3797   17.3588    6.1471 C   0  0  0  0  0  0  0  0  0  0  0  0
  -14.5737   15.1421    3.1948 H   0  0  0  0  0  0  0  0  0  0  0  0
  -12.7014   16.4111    2.2027 H   0  0  0  0  0  0  0  0  0  0  0  0
  -12.0345   17.7064    3.0887 H   0  0  0  0  0  0  0  0  0  0  0  0
  -11.7171   18.7112   10.4056 C   0  0  0  0  0  0  0  0  0  0  0  0
  -11.5704   17.3726    9.8856 O   0  0  0  0  0  0  0  0  0  0  0  0
  -10.4972   16.3687   10.5129 P   0  0  0  0  0  0  0  0  0  0  0  0
   -9.2278   17.1337   10.6571 O   0  0  0  0  0  0  0  0  0  0  0  0
  -10.3804   15.0680    9.7223 O   0  0  0  0  0  0  0  0  0  0  0  0
   -9.7196   14.4938   10.1402 H   0  0  0  0  0  0  0  0  0  0  0  0
  -11.1614   16.0557   11.9686 O   0  0  0  0  0  0  0  0  0  0  0  0
  -10.5414   15.1187   13.0922 P   0  0  0  0  0  0  0  0  0  0  0  0
  -10.7602   15.8892   14.3713 O   0  0  0  0  0  0  0  0  0  0  0  0
   -9.0647   14.8794   12.7969 O   0  0  0  0  0  0  0  0  0  0  0  0
   -8.6864   14.3074   13.4828 H   0  0  0  0  0  0  0  0  0  0  0  0
  -11.4212   13.7631   13.0009 O   0  0  0  0  0  0  0  0  0  0  0  0
  -10.8778   12.2684   12.5787 P   0  0  0  0  0  0  0  0  0  0  0  0
   -9.6913   11.9562   13.4303 O   0  0  0  0  0  0  0  0  0  0  0  0
  -11.9683   11.2407   12.7683 O   0  0  0  0  0  0  0  0  0  0  0  0
  -10.4634   12.5935   11.1670 O   0  0  0  0  0  0  0  0  0  0  0  0
  -11.6350   10.3654   12.5161 H   0  0  0  0  0  0  0  0  0  0  0  0
  -10.1040   11.7979   10.7442 H   0  0  0  0  0  0  0  0  0  0  0  0
 36 37  2  0  0  0
 36 38  1  0  0  0
 36 39  1  0  0  0
 36 35  1  0  0  0
 35 31  1  0  0  0
 31 32  2  0  0  0
 31 33  1  0  0  0
 31 30  1  0  0  0
 30 26  1  0  0  0
 26 27  2  0  0  0
 26 28  1  0  0  0
 26 25  1  0  0  0
 25 24  1  0  0  0
 24  1  1  0  0  0
  1  2  1  0  0  0
  1  3  1  0  0  0
  2  7  1  0  0  0
  3  4  1  0  0  0
  3  5  1  0  0  0
  5  6  1  0  0  0
  5  7  1  0  0  0
  7 10  1  0  0  0
 10 11  1  0  0  0
 10 20  1  0  0  0
 11 12  2  0  0  0
 12 13  1  0  0  0
 13 14  1  0  0  0
 13 20  2  0  0  0
 14 15  2  0  0  0
 14 16  1  0  0  0
 16 17  1  0  0  0
 17 18  1  0  0  0
 17 19  2  0  0  0
 19 20  1  0  0  0
 38 40  1  0  0  0
 39 41  1  0  0  0
 33 34  1  0  0  0
 28 29  1  0  0  0
  4  8  1  0  0  0
  6  9  1  0  0  0
 16 21  1  0  0  0
 18 22  1  0  0  0
 18 23  1  0  0  0
M  END
> <minimizedAffinity>
-10.56142

$$$$
4NCN_GTP_A_1001


 41 43  0  0  0  0  0  0  0  0999 V2000
  -15.1148   20.9555    8.2637 C   0  0  0  0  0  0  0  0  0  0  0  0
  -14.7397   21.7496    9.3976 O   0  0  0  0  0  0  0  0  0  0  0  0
  -15.9079   21.8771    7.3422 C   0  0  0  0  0  0  0  0  0  0  0  0
  -17.2677   21.6132    7.5475 O   0  0  0  0  0  0  0  0  0  0  0  0
  -15.6333   23.2366    7.9067 C   0  0  0  0  0  0  0  0  0  0  0  0
  -16.6071   24.2231    7.5762 O   0  0  0  0  0  0  0  0  0  0  0  0
  -15.4454   22.9585    9.4024 C   0  0  0  0  0  0  0  0  0  0  0  0
  -17.4778   21.7125    8.4892 H   0  0  0  0  0  0  0  0  0  0  0  0
  -17.4755   23.9433    7.9055 H   0  0  0  0  0  0  0  0  0  0  0  0
  -14.5068   23.9771    9.9450 N   0  0  0  0  0  0  0  0  0  0  0  0
  -14.7051   25.3540   10.0635 C   0  0  0  0  0  0  0  0  0  0  0  0
  -13.5649   25.8679   10.6465 N   0  0  0  0  0  0  0  0  0  0  0  0
  -12.6866   24.8554   10.8321 C   0  0  0  0  0  0  0  0  0  0  0  0
  -11.3958   24.7820   11.3476 C   0  0  0  0  0  0  0  0  0  0  0  0
  -10.8429   25.7957   11.7862 O   0  0  0  0  0  0  0  0  0  0  0  0
  -10.7681   23.5599   11.4628 N   0  0  0  0  0  0  0  0  0  0  0  0
  -11.3682   22.4015   10.9932 C   0  0  0  0  0  0  0  0  0  0  0  0
  -10.7734   21.1797   11.0340 N   0  0  0  0  0  0  0  0  0  0  0  0
  -12.5988   22.4902   10.4509 N   0  0  0  0  0  0  0  0  0  0  0  0
  -13.2588   23.6824   10.3942 C   0  0  0  0  0  0  0  0  0  0  0  0
   -9.8802   23.5089   11.8850 H   0  0  0  0  0  0  0  0  0  0  0  0
   -9.8746   21.0825   11.4240 H   0  0  0  0  0  0  0  0  0  0  0  0
  -11.2414   20.3920   10.6737 H   0  0  0  0  0  0  0  0  0  0  0  0
  -13.7822   20.4610    7.6864 C   0  0  0  0  0  0  0  0  0  0  0  0
  -12.9637   19.9833    8.7753 O   0  0  0  0  0  0  0  0  0  0  0  0
  -13.2999   18.5997    9.5002 P   0  0  0  0  0  0  0  0  0  0  0  0
  -13.4729   17.5837    8.4253 O   0  0  0  0  0  0  0  0  0  0  0  0
  -14.4718   18.7173   10.4715 O   0  0  0  0  0  0  0  0  0  0  0  0
  -14.6369   17.8555   10.8848 H   0  0  0  0  0  0  0  0  0  0  0  0
  -11.9284   18.3351   10.3413 O   0  0  0  0  0  0  0  0  0  0  0  0
  -11.1383   16.9590   10.4238 P   0  0  0  0  0  0  0  0  0  0  0  0
   -9.7147   17.3355   10.0930 O   0  0  0  0  0  0  0  0  0  0  0  0
  -11.7311   15.9715    9.4247 O   0  0  0  0  0  0  0  0  0  0  0  0
  -11.2487   15.1316    9.4752 H   0  0  0  0  0  0  0  0  0  0  0  0
  -11.3367   16.4851   11.9587 O   0  0  0  0  0  0  0  0  0  0  0  0
  -10.5265   15.2737   12.7231 P   0  0  0  0  0  0  0  0  0  0  0  0
  -11.1779   13.9825   12.3507 O   0  0  0  0  0  0  0  0  0  0  0  0
   -9.0700   15.2828   12.3234 O   0  0  0  0  0  0  0  0  0  0  0  0
  -10.8639   15.6646   14.1386 O   0  0  0  0  0  0  0  0  0  0  0  0
   -8.6049   14.5648   12.7805 H   0  0  0  0  0  0  0  0  0  0  0  0
  -10.4539   15.0366   14.7538 H   0  0  0  0  0  0  0  0  0  0  0  0
 36 37  2  0  0  0
 36 38  1  0  0  0
 36 39  1  0  0  0
 36 35  1  0  0  0
 35 31  1  0  0  0
 31 32  2  0  0  0
 31 33  1  0  0  0
 31 30  1  0  0  0
 30 26  1  0  0  0
 26 27  2  0  0  0
 26 28  1  0  0  0
 26 25  1  0  0  0
 25 24  1  0  0  0
 24  1  1  0  0  0
  1  2  1  0  0  0
  1  3  1  0  0  0
  2  7  1  0  0  0
  3  4  1  0  0  0
  3  5  1  0  0  0
  5  6  1  0  0  0
  5  7  1  0  0  0
  7 10  1  0  0  0
 10 11  1  0  0  0
 10 20  1  0  0  0
 11 12  2  0  0  0
 12 13  1  0  0  0
 13 14  1  0  0  0
 13 20  2  0  0  0
 14 15  2  0  0  0
 14 16  1  0  0  0
 16 17  1  0  0  0
 17 18  1  0  0  0
 17 19  2  0  0  0
 19 20  1  0  0  0
 38 40  1  0  0  0
 39 41  1  0  0  0
 33 34  1  0  0  0
 28 29  1  0  0  0
  4  8  1  0  0  0
  6  9  1  0  0  0
 16 21  1  0  0  0
 18 22  1  0  0  0
 18 23  1  0  0  0
M  END
> <minimizedAffinity>
-10.06713

$$$$
