4NCN_GTP_A_1001
  RCSB PDB12061713523D
Coordinates from PDB:4NCN:A:1001 Model:1 without hydrogens
 32 34  0  0  0  0            999 V2000
  -11.2370   12.5140   12.7100   P 0  0  0  0  0  0  0  0  0  0  0  0
   -9.7950   12.1610   12.5480   O 0  0  0  0  0  0  0  0  0  0  0  0
  -11.7100   12.2350   14.1170   O 0  0  0  0  0  0  0  0  0  0  0  0
  -12.0620   11.9650   11.5750   O 0  0  0  0  0  0  0  0  0  0  0  0
  -11.4070   14.1120   12.3560   O 0  0  0  0  0  0  0  0  0  0  0  0
  -10.4160   15.3100   12.8060   P 0  0  0  0  0  0  0  0  0  0  0  0
  -10.5870   15.7180   14.2490   O 0  0  0  0  0  0  0  0  0  0  0  0
   -8.9610   15.0340   12.4430   O 0  0  0  0  0  0  0  0  0  0  0  0
  -10.9370   16.5680   11.9870   O 0  0  0  0  0  0  0  0  0  0  0  0
  -10.6210   16.8840   10.4190   P 0  0  0  0  0  0  0  0  0  0  0  0
   -9.2570   17.4580   10.2530   O 0  0  0  0  0  0  0  0  0  0  0  0
  -10.9010   15.6350    9.5870   O 0  0  0  0  0  0  0  0  0  0  0  0
  -11.6560   18.0640   10.1200   O 0  0  0  0  0  0  0  0  0  0  0  0
  -13.0700   17.7930   10.0150   C 0  0  0  0  0  0  0  0  0  0  0  0
  -13.7150   18.9060    9.1790   C 0  0  0  0  0  0  0  0  0  0  0  0
  -13.6160   20.0750   10.0040   O 0  0  0  0  0  0  0  0  0  0  0  0
  -12.9830   19.2370    7.8820   C 0  0  0  0  0  0  0  0  0  0  0  0
  -13.9480   19.5770    6.9260   O 0  0  0  0  0  0  0  0  0  0  0  0
  -12.2410   20.4920    8.2240   C 0  0  0  0  0  0  0  0  0  0  0  0
  -11.8790   21.2910    7.1010   O 0  0  0  0  0  0  0  0  0  0  0  0
  -13.1550   21.1640    9.2550   C 0  0  0  0  0  0  0  0  0  0  0  0
  -12.3010   21.9610   10.1760   N 0  0  0  0  0  0  0  0  0  0  0  0
  -11.2230   21.5220   10.9470   C 0  0  0  0  0  0  0  0  0  0  0  0
  -10.7370   22.6290   11.6120   N 0  0  0  0  0  0  0  0  0  0  0  0
  -11.5150   23.6910   11.2990   C 0  0  0  0  0  0  0  0  0  0  0  0
  -11.5160   25.0300   11.6790   C 0  0  0  0  0  0  0  0  0  0  0  0
  -10.6460   25.4600   12.4430   O 0  0  0  0  0  0  0  0  0  0  0  0
  -12.4280   25.9030   11.1250   N 0  0  0  0  0  0  0  0  0  0  0  0
  -13.4080   25.4540   10.2530   C 0  0  0  0  0  0  0  0  0  0  0  0
  -14.3630   26.2610    9.7190   N 0  0  0  0  0  0  0  0  0  0  0  0
  -13.4290   24.1460    9.9290   N 0  0  0  0  0  0  0  0  0  0  0  0
  -12.4900   23.2850   10.4160   C 0  0  0  0  0  0  0  0  0  0  0  0
  1  2  2  0  0  0  0
  1  3  1  0  0  0  0
  1  4  1  0  0  0  0
  1  5  1  0  0  0  0
  5  6  1  0  0  0  0
  6  7  2  0  0  0  0
  6  8  1  0  0  0  0
  6  9  1  0  0  0  0
  9 10  1  0  0  0  0
 10 11  2  0  0  0  0
 10 12  1  0  0  0  0
 10 13  1  0  0  0  0
 13 14  1  0  0  0  0
 14 15  1  0  0  0  0
 15 16  1  0  0  0  0
 15 17  1  0  0  0  0
 16 21  1  0  0  0  0
 17 18  1  0  0  0  0
 17 19  1  0  0  0  0
 19 20  1  0  0  0  0
 19 21  1  0  0  0  0
 21 22  1  0  0  0  0
 22 23  1  0  0  0  0
 22 32  1  0  0  0  0
 23 24  2  0  0  0  0
 24 25  1  0  0  0  0
 25 26  1  0  0  0  0
 25 32  2  0  0  0  0
 26 27  2  0  0  0  0
 26 28  1  0  0  0  0
 28 29  1  0  0  0  0
 29 30  1  0  0  0  0
 29 31  2  0  0  0  0
 31 32  1  0  0  0  0
A    1
PG
A    2
O1G
A    3
O2G
A    4
O3G
A    5
O3B
A    6
PB
A    7
O1B
A    8
O2B
A    9
O3A
A   10
PA
A   11
O1A
A   12
O2A
A   13
O5'
A   14
C5'
A   15
C4'
A   16
O4'
A   17
C3'
A   18
O3'
A   19
C2'
A   20
O2'
A   21
C1'
A   22
N9
A   23
C8
A   24
N7
A   25
C5
A   26
C6
A   27
O6
A   28
N1
A   29
C2
A   30
N2
A   31
N3
A   32
C4
M  END
>  <InstanceId>
4NCN_GTP_A_1001

>  <ChemCompId>
GTP

>  <PdbId>
4NCN

>  <ChainId>
A

>  <ResidueNumber>
1001

>  <InsertionCode>


>  <Model>
1

>  <AltIds>


>  <MissingHeavyAtoms>
0

>  <ObservedFormula>
C10 N5 O14 P3

>  <Name>
GUANOSINE-5'-TRIPHOSPHATE

>  <SystematicName>
[[(2R,3S,4R,5R)-5-(2-azanyl-6-oxidanylidene-1H-purin-9-yl)-3,4-bis(oxidanyl)oxolan-2-yl]methoxy-oxidanyl-phosphoryl] phosphono hydrogen phosphate

>  <Synonyms>


>  <Type>
NON-POLYMER

>  <Formula>
C10 H16 N5 O14 P3

>  <MolecularWeight>
523.18

>  <ModifiedDate>
2013-03-22

>  <Parent>
G

>  <OneLetterCode>
G

>  <SubcomponentList>


>  <AmbiguousFlag>
N

>  <InChI>
InChI=1S/C10H16N5O14P3/c11-10-13-7-4(8(18)14-10)12-2-15(7)9-6(17)5(16)3(27-9)1-26-31(22,23)29-32(24,25)28-30(19,20)21/h2-3,5-6,9,16-17H,1H2,(H,22,23)(H,24,25)(H2,19,20,21)(H3,11,13,14,18)/t3-,5-,6-,9-/m1/s1

>  <InChIKey>
XKMLYUALXHKNFT-UUOKFMHZSA-N

>  <SMILES>
c1nc2c(n1[C@H]3[C@@H]([C@@H]([C@H](O3)CO[P@](=O)(O)O[P@](=O)(O)OP(=O)(O)O)O)O)N=C(NC2=O)N

$$$$
