2YA8_G39_A_1777
  RCSB PDB12061707353D
Coordinates from PDB:2YA8:A:1777 Model:1 without hydrogens
 20 20  0  0  0  0            999 V2000
   15.2630  -20.2890   44.7640   C 0  0  0  0  0  0  0  0  0  0  0  0
   16.1740  -20.3740   45.6350   O 0  0  0  0  0  0  0  0  0  0  0  0
   14.0770  -20.5560   45.0390   O 0  0  0  0  0  0  0  0  0  0  0  0
   15.5900  -19.8430   43.4040   C 0  0  0  0  0  0  0  0  0  0  0  0
   14.4990  -19.4280   42.4410   C 0  0  0  0  0  0  0  0  0  0  0  0
   15.0740  -18.4510   41.4040   C 0  0  0  0  0  0  0  0  0  0  0  0
   16.2840  -19.0580   40.7210   C 0  0  0  0  0  0  0  0  0  0  0  0
   16.7490  -18.2400   39.5950   N 0  0  0  0  0  0  0  0  0  0  0  0
   17.0470  -18.7480   38.3960   C 0  0  0  0  0  0  0  0  0  0  0  0
   16.8220  -19.9060   38.0580   O 0  0  0  0  0  0  0  0  0  0  0  0
   17.6810  -17.7630   37.4570   C 0  0  0  0  0  0  0  0  0  0  0  0
   17.3970  -19.1960   41.7500   C 0  0  0  0  0  0  0  0  0  0  0  0
   16.8890  -19.8220   43.0400   C 0  0  0  0  0  0  0  0  0  0  0  0
   18.3540  -20.0790   41.1950   O 0  0  0  0  0  0  0  0  0  0  0  0
   19.6620  -19.9490   41.7720   C 0  0  0  0  0  0  0  0  0  0  0  0
   20.4740  -18.8620   41.0620   C 0  0  0  0  0  0  0  0  0  0  0  0
   20.3640  -21.3120   41.6530   C 0  0  0  0  0  0  0  0  0  0  0  0
   19.8920  -22.2330   42.7550   C 0  0  0  0  0  0  0  0  0  0  0  0
   20.4130  -18.9930   39.5630   C 0  0  0  0  0  0  0  0  0  0  0  0
   14.0470  -18.1000   40.4400   N 0  0  0  0  0  0  0  0  0  0  0  0
  1  2  2  0  0  0  0
  1  3  1  0  0  0  0
  1  4  1  0  0  0  0
  4  5  1  0  0  0  0
  4 13  2  0  0  0  0
  5  6  1  0  0  0  0
  6  7  1  0  0  0  0
  6 20  1  0  0  0  0
  7  8  1  0  0  0  0
  7 12  1  0  0  0  0
  8  9  1  0  0  0  0
  9 10  2  0  0  0  0
  9 11  1  0  0  0  0
 12 13  1  0  0  0  0
 12 14  1  0  0  0  0
 14 15  1  0  0  0  0
 15 16  1  0  0  0  0
 15 17  1  0  0  0  0
 16 19  1  0  0  0  0
 17 18  1  0  0  0  0
A    1
C1
A    2
O1A
A    3
O1B
A    4
C2
A    5
C3
A    6
C4
A    7
C5
A    8
N5
A    9
C10
A   10
O10
A   11
C11
A   12
C6
A   13
C7
A   14
O7
A   15
C8
A   16
C9
A   17
C81
A   18
C82
A   19
C91
A   20
N4
M  END
>  <InstanceId>
2YA8_G39_A_1777

>  <ChemCompId>
G39

>  <PdbId>
2YA8

>  <ChainId>
A

>  <ResidueNumber>
1777

>  <InsertionCode>


>  <Model>
1

>  <AltIds>


>  <MissingHeavyAtoms>
0

>  <ObservedFormula>
C14 N2 O4

>  <Name>
(3R,4R,5S)-4-(acetylamino)-5-amino-3-(pentan-3-yloxy)cyclohex-1-ene-1-carboxylic acid

>  <SystematicName>
(3R,4R,5S)-4-acetamido-5-azanyl-3-pentan-3-yloxy-cyclohexene-1-carboxylic acid

>  <Synonyms>
Oseltamivir carboxylate

>  <Type>
NON-POLYMER

>  <Formula>
C14 H24 N2 O4

>  <MolecularWeight>
284.351

>  <ModifiedDate>
2011-06-04

>  <Parent>


>  <OneLetterCode>


>  <SubcomponentList>


>  <AmbiguousFlag>
N

>  <InChI>
InChI=1S/C14H24N2O4/c1-4-10(5-2)20-12-7-9(14(18)19)6-11(15)13(12)16-8(3)17/h7,10-13H,4-6,15H2,1-3H3,(H,16,17)(H,18,19)/t11-,12+,13+/m0/s1

>  <InChIKey>
NENPYTRHICXVCS-YNEHKIRRSA-N

>  <SMILES>
CCC(CC)O[C@@H]1C=C(C[C@@H]([C@H]1NC(=O)C)N)C(=O)O

$$$$
