6B4N_G53_A_201


 48 52  0  0  0  0  0  0  0  0999 V2000
   16.5004   25.1827   17.2043 C   0  0  0  0  0  0  0  0  0  0  0  0
   15.5337   24.1589   17.8911 C   0  0  0  0  0  0  0  0  0  0  0  0
   14.4281   24.8892   18.4325 O   0  0  0  0  0  0  0  0  0  0  0  0
   13.9626   25.3490   17.7164 H   0  0  0  0  0  0  0  0  0  0  0  0
   15.0445   23.0789   16.9083 C   0  0  0  0  0  0  0  0  0  0  0  0
   14.1545   22.1819   17.6831 N   0  0  0  0  0  0  0  0  0  0  0  0
   14.5540   21.1729   18.4403 C   0  0  0  0  0  0  0  0  0  0  0  0
   15.7102   20.8262   18.6994 O   0  0  0  0  0  0  0  0  0  0  0  0
   13.1860   22.3507   17.6301 H   0  0  0  0  0  0  0  0  0  0  0  0
   13.4545   20.5384   19.0065 O   0  0  0  0  0  0  0  0  0  0  0  0
   13.6312   19.1340   19.2157 C   0  0  0  0  0  0  0  0  0  0  0  0
   12.9778   18.9026   20.6017 C   0  0  0  0  0  0  0  0  0  0  0  0
   11.5922   18.8712   20.3404 O   0  0  0  0  0  0  0  0  0  0  0  0
   11.3416   18.2884   19.0495 C   0  0  0  0  0  0  0  0  0  0  0  0
   10.4116   19.1590   18.3335 O   0  0  0  0  0  0  0  0  0  0  0  0
   11.1177   19.8289   17.2801 C   0  0  0  0  0  0  0  0  0  0  0  0
   12.3532   18.9828   16.9705 C   0  0  0  0  0  0  0  0  0  0  0  0
   12.6751   18.3293   18.3188 C   0  0  0  0  0  0  0  0  0  0  0  0
   14.2631   23.6265   15.7102 C   0  0  0  0  0  0  0  0  0  0  0  0
   12.4570   22.2027   14.6194 C   0  0  0  0  0  0  0  0  0  0  0  0
   12.0360   21.0935   13.8602 C   0  0  0  0  0  0  0  0  0  0  0  0
   12.9553   20.2534   13.2198 C   0  0  0  0  0  0  0  0  0  0  0  0
   14.3162   20.5457   13.4078 C   0  0  0  0  0  0  0  0  0  0  0  0
   14.7540   21.6506   14.2048 C   0  0  0  0  0  0  0  0  0  0  0  0
   13.8041   22.4698   14.8205 C   0  0  0  0  0  0  0  0  0  0  0  0
   17.8729   24.6975   17.2014 N   0  0  0  0  0  0  0  0  0  0  0  0
   18.5448   24.3546   15.7525 S   0  0  0  0  0  0  0  0  0  0  0  0
   17.4488   24.4162   14.7442 O   0  0  0  0  0  0  0  0  0  0  0  0
   19.3306   23.1352   15.8694 O   0  0  0  0  0  0  0  0  0  0  0  0
   21.6273   27.6472   14.9688 C   0  0  0  0  0  0  0  0  0  0  0  0
   20.2608   27.9468   14.9360 C   0  0  0  0  0  0  0  0  0  0  0  0
   19.2934   26.9633   15.1580 C   0  0  0  0  0  0  0  0  0  0  0  0
   19.6840   25.6658   15.3656 C   0  0  0  0  0  0  0  0  0  0  0  0
   21.0405   25.3540   15.4154 C   0  0  0  0  0  0  0  0  0  0  0  0
   22.0037   26.3180   15.1703 C   0  0  0  0  0  0  0  0  0  0  0  0
   22.5985   28.5693   14.8406 C   0  0  0  0  0  0  0  0  0  0  0  0
   22.5362   29.5626   13.9363 O   0  0  0  0  0  0  0  0  0  0  0  0
   23.7195   30.3135   13.9826 C   0  0  0  0  0  0  0  0  0  0  0  0
   24.3929   29.8505   15.0430 C   0  0  0  0  0  0  0  0  0  0  0  0
   23.7256   28.7649   15.4768 N   0  0  0  0  0  0  0  0  0  0  0  0
   25.6589   30.1646   15.1498 C   0  0  0  0  0  0  0  0  0  0  0  0
   26.1076   31.3193   15.1420 O   0  0  0  0  0  0  0  0  0  0  0  0
   26.4791   29.0675   15.3050 O   0  0  0  0  0  0  0  0  0  0  0  0
   27.7736   29.6066   15.6487 C   0  0  0  0  0  0  0  0  0  0  0  0
   18.7906   25.0188   18.2604 C   0  0  0  0  0  0  0  0  0  0  0  0
   18.7194   24.1546   19.5427 C   0  0  0  0  0  0  0  0  0  0  0  0
   18.6738   22.6630   19.2042 C   0  0  0  0  0  0  0  0  0  0  0  0
   19.8781   24.5180   20.4585 C   0  0  0  0  0  0  0  0  0  0  0  0
 22 23  2  0  0  0
 22 21  1  0  0  0
 23 24  1  0  0  0
 21 20  2  0  0  0
 24 25  2  0  0  0
 39 40  1  0  0  0
 39 41  1  0  0  0
 39 38  2  0  0  0
 20 25  1  0  0  0
 43 41  1  0  0  0
 43 44  1  0  0  0
 40 36  2  0  0  0
 41 42  2  0  0  0
 31 32  2  0  0  0
 31 30  1  0  0  0
 25 19  1  0  0  0
 38 37  1  0  0  0
 36 37  1  0  0  0
 36 30  1  0  0  0
 28 27  2  0  0  0
 32 33  1  0  0  0
 30 35  2  0  0  0
 33 34  2  0  0  0
 33 27  1  0  0  0
 35 34  1  0  0  0
 19  5  1  0  0  0
 27 29  2  0  0  0
 27 26  1  0  0  0
 17 16  1  0  0  0
 17 18  1  0  0  0
  5  6  1  0  0  0
  5  2  1  0  0  0
 16 15  1  0  0  0
 26  1  1  0  0  0
 26 45  1  0  0  0
  1  2  1  0  0  0
  6  7  1  0  0  0
  8  7  2  0  0  0
  2  3  1  0  0  0
  7 10  1  0  0  0
 18 14  1  0  0  0
 18 11  1  0  0  0
 15 14  1  0  0  0
 45 46  1  0  0  0
 10 11  1  0  0  0
 14 13  1  0  0  0
 11 12  1  0  0  0
 47 46  1  0  0  0
 46 48  1  0  0  0
 13 12  1  0  0  0
  3  4  1  0  0  0
  6  9  1  0  0  0
M  END
> <minimizedAffinity>
-10.14833

$$$$
6B4N_G53_A_201


 48 52  0  0  0  0  0  0  0  0999 V2000
   20.1571   24.2903   18.4994 C   0  0  0  0  0  0  0  0  0  0  0  0
   19.9199   25.1660   19.7766 C   0  0  0  0  0  0  0  0  0  0  0  0
   19.9469   24.3013   20.9169 O   0  0  0  0  0  0  0  0  0  0  0  0
   20.8129   23.8680   20.9736 H   0  0  0  0  0  0  0  0  0  0  0  0
   20.9719   26.2823   19.9141 C   0  0  0  0  0  0  0  0  0  0  0  0
   20.9020   27.0778   18.6653 N   0  0  0  0  0  0  0  0  0  0  0  0
   21.9265   27.6753   18.0787 C   0  0  0  0  0  0  0  0  0  0  0  0
   23.1172   27.6389   18.4030 O   0  0  0  0  0  0  0  0  0  0  0  0
   20.0203   27.1690   18.2369 H   0  0  0  0  0  0  0  0  0  0  0  0
   21.4979   28.3441   16.9380 O   0  0  0  0  0  0  0  0  0  0  0  0
   21.3434   27.5050   15.7894 C   0  0  0  0  0  0  0  0  0  0  0  0
   20.0422   28.0393   15.1391 C   0  0  0  0  0  0  0  0  0  0  0  0
   20.4404   29.2067   14.4552 O   0  0  0  0  0  0  0  0  0  0  0  0
   21.7775   29.0551   13.9472 C   0  0  0  0  0  0  0  0  0  0  0  0
   22.5370   30.2496   14.3104 O   0  0  0  0  0  0  0  0  0  0  0  0
   23.4803   29.9081   15.3354 C   0  0  0  0  0  0  0  0  0  0  0  0
   23.7087   28.3992   15.2388 C   0  0  0  0  0  0  0  0  0  0  0  0
   22.3699   27.8774   14.7059 C   0  0  0  0  0  0  0  0  0  0  0  0
   20.7427   27.2193   21.1037 C   0  0  0  0  0  0  0  0  0  0  0  0
   23.0702   26.4261   21.7613 C   0  0  0  0  0  0  0  0  0  0  0  0
   24.0984   26.2311   22.7040 C   0  0  0  0  0  0  0  0  0  0  0  0
   24.0068   26.7441   24.0038 C   0  0  0  0  0  0  0  0  0  0  0  0
   22.8223   27.4233   24.3331 C   0  0  0  0  0  0  0  0  0  0  0  0
   21.7582   27.5972   23.3922 C   0  0  0  0  0  0  0  0  0  0  0  0
   21.8927   27.0769   22.1025 C   0  0  0  0  0  0  0  0  0  0  0  0
   18.8987   23.8325   17.9281 N   0  0  0  0  0  0  0  0  0  0  0  0
   18.3679   24.5869   16.5800 S   0  0  0  0  0  0  0  0  0  0  0  0
   19.3753   24.3228   15.5137 O   0  0  0  0  0  0  0  0  0  0  0  0
   18.0294   25.9640   16.9077 O   0  0  0  0  0  0  0  0  0  0  0  0
   14.4217   22.5048   15.5556 C   0  0  0  0  0  0  0  0  0  0  0  0
   15.5926   22.1591   14.8717 C   0  0  0  0  0  0  0  0  0  0  0  0
   16.8110   22.7837   15.1505 C   0  0  0  0  0  0  0  0  0  0  0  0
   16.8572   23.7909   16.0793 C   0  0  0  0  0  0  0  0  0  0  0  0
   15.7036   24.1368   16.7786 C   0  0  0  0  0  0  0  0  0  0  0  0
   14.4879   23.5406   16.4892 C   0  0  0  0  0  0  0  0  0  0  0  0
   13.2423   21.8813   15.3820 C   0  0  0  0  0  0  0  0  0  0  0  0
   12.4374   22.1375   14.3357 O   0  0  0  0  0  0  0  0  0  0  0  0
   11.2517   21.4001   14.4650 C   0  0  0  0  0  0  0  0  0  0  0  0
   11.4532   20.5828   15.5060 C   0  0  0  0  0  0  0  0  0  0  0  0
   12.6187   20.9562   16.0666 N   0  0  0  0  0  0  0  0  0  0  0  0
   10.4103   19.9941   16.0338 C   0  0  0  0  0  0  0  0  0  0  0  0
    9.9826   20.1983   17.1784 O   0  0  0  0  0  0  0  0  0  0  0  0
    9.7877   19.1173   15.1712 O   0  0  0  0  0  0  0  0  0  0  0  0
   10.3672   17.8265   15.4579 C   0  0  0  0  0  0  0  0  0  0  0  0
   18.4211   22.4914   18.1282 C   0  0  0  0  0  0  0  0  0  0  0  0
   17.4762   22.2505   19.3305 C   0  0  0  0  0  0  0  0  0  0  0  0
   16.3272   21.3129   18.9533 C   0  0  0  0  0  0  0  0  0  0  0  0
   18.2874   21.7455   20.5138 C   0  0  0  0  0  0  0  0  0  0  0  0
 22 23  2  0  0  0
 22 21  1  0  0  0
 23 24  1  0  0  0
 21 20  2  0  0  0
 24 25  2  0  0  0
 39 40  1  0  0  0
 39 41  1  0  0  0
 39 38  2  0  0  0
 20 25  1  0  0  0
 43 41  1  0  0  0
 43 44  1  0  0  0
 40 36  2  0  0  0
 41 42  2  0  0  0
 31 32  2  0  0  0
 31 30  1  0  0  0
 25 19  1  0  0  0
 38 37  1  0  0  0
 36 37  1  0  0  0
 36 30  1  0  0  0
 28 27  2  0  0  0
 32 33  1  0  0  0
 30 35  2  0  0  0
 33 34  2  0  0  0
 33 27  1  0  0  0
 35 34  1  0  0  0
 19  5  1  0  0  0
 27 29  2  0  0  0
 27 26  1  0  0  0
 17 16  1  0  0  0
 17 18  1  0  0  0
  5  6  1  0  0  0
  5  2  1  0  0  0
 16 15  1  0  0  0
 26  1  1  0  0  0
 26 45  1  0  0  0
  1  2  1  0  0  0
  6  7  1  0  0  0
  8  7  2  0  0  0
  2  3  1  0  0  0
  7 10  1  0  0  0
 18 14  1  0  0  0
 18 11  1  0  0  0
 15 14  1  0  0  0
 45 46  1  0  0  0
 10 11  1  0  0  0
 14 13  1  0  0  0
 11 12  1  0  0  0
 47 46  1  0  0  0
 46 48  1  0  0  0
 13 12  1  0  0  0
  3  4  1  0  0  0
  6  9  1  0  0  0
M  END
> <minimizedAffinity>
-9.70269

$$$$
6B4N_G53_A_201


 48 52  0  0  0  0  0  0  0  0999 V2000
   18.3231   24.8818   18.4099 C   0  0  0  0  0  0  0  0  0  0  0  0
   19.7166   25.2268   19.0370 C   0  0  0  0  0  0  0  0  0  0  0  0
   20.4574   24.0088   19.1657 O   0  0  0  0  0  0  0  0  0  0  0  0
   20.5822   23.6122   18.2894 H   0  0  0  0  0  0  0  0  0  0  0  0
   20.4937   26.2501   18.1881 C   0  0  0  0  0  0  0  0  0  0  0  0
   21.7194   26.5817   18.9529 N   0  0  0  0  0  0  0  0  0  0  0  0
   21.8319   27.5637   19.8326 C   0  0  0  0  0  0  0  0  0  0  0  0
   20.9531   28.3342   20.2307 O   0  0  0  0  0  0  0  0  0  0  0  0
   22.5157   26.0253   18.7930 H   0  0  0  0  0  0  0  0  0  0  0  0
   23.1228   27.5964   20.3469 O   0  0  0  0  0  0  0  0  0  0  0  0
   23.9755   26.5566   19.8579 C   0  0  0  0  0  0  0  0  0  0  0  0
   25.2522   27.3240   19.4307 C   0  0  0  0  0  0  0  0  0  0  0  0
   25.9410   27.5671   20.6371 O   0  0  0  0  0  0  0  0  0  0  0  0
   25.7343   26.4806   21.5566 C   0  0  0  0  0  0  0  0  0  0  0  0
   25.3674   27.0485   22.8522 O   0  0  0  0  0  0  0  0  0  0  0  0
   23.9779   26.7907   23.0971 C   0  0  0  0  0  0  0  0  0  0  0  0
   23.5925   25.5925   22.2288 C   0  0  0  0  0  0  0  0  0  0  0  0
   24.5301   25.7196   21.0233 C   0  0  0  0  0  0  0  0  0  0  0  0
   20.9048   25.7368   16.8049 C   0  0  0  0  0  0  0  0  0  0  0  0
   20.2322   27.6628   15.2828 C   0  0  0  0  0  0  0  0  0  0  0  0
   20.5369   28.7042   14.3846 C   0  0  0  0  0  0  0  0  0  0  0  0
   21.8599   29.0792   14.1204 C   0  0  0  0  0  0  0  0  0  0  0  0
   22.8668   28.3380   14.7605 C   0  0  0  0  0  0  0  0  0  0  0  0
   22.5675   27.2566   15.6486 C   0  0  0  0  0  0  0  0  0  0  0  0
   21.2335   26.9194   15.8918 C   0  0  0  0  0  0  0  0  0  0  0  0
   18.2520   23.4836   18.0105 N   0  0  0  0  0  0  0  0  0  0  0  0
   17.6827   22.4171   19.1090 S   0  0  0  0  0  0  0  0  0  0  0  0
   17.2284   23.2117   20.2854 O   0  0  0  0  0  0  0  0  0  0  0  0
   18.6683   21.3642   19.3046 O   0  0  0  0  0  0  0  0  0  0  0  0
   13.8331   20.4999   17.5401 C   0  0  0  0  0  0  0  0  0  0  0  0
   15.0537   19.8292   17.4043 C   0  0  0  0  0  0  0  0  0  0  0  0
   16.2488   20.3912   17.8604 C   0  0  0  0  0  0  0  0  0  0  0  0
   16.2386   21.6468   18.4105 C   0  0  0  0  0  0  0  0  0  0  0  0
   15.0301   22.3214   18.5656 C   0  0  0  0  0  0  0  0  0  0  0  0
   13.8460   21.7821   18.0923 C   0  0  0  0  0  0  0  0  0  0  0  0
   12.6463   19.9714   17.1907 C   0  0  0  0  0  0  0  0  0  0  0  0
   12.2968   18.7112   17.5041 O   0  0  0  0  0  0  0  0  0  0  0  0
   11.0459   18.4182   16.9423 C   0  0  0  0  0  0  0  0  0  0  0  0
   10.5976   19.5790   16.4483 C   0  0  0  0  0  0  0  0  0  0  0  0
   11.6128   20.4569   16.5507 N   0  0  0  0  0  0  0  0  0  0  0  0
    9.5924   19.5411   15.6112 C   0  0  0  0  0  0  0  0  0  0  0  0
    9.2519   18.5476   14.9540 O   0  0  0  0  0  0  0  0  0  0  0  0
    8.9015   20.7319   15.5384 O   0  0  0  0  0  0  0  0  0  0  0  0
    9.1298   21.2224   14.1999 C   0  0  0  0  0  0  0  0  0  0  0  0
   18.1223   23.0968   16.6320 C   0  0  0  0  0  0  0  0  0  0  0  0
   17.1167   23.8943   15.7665 C   0  0  0  0  0  0  0  0  0  0  0  0
   17.8367   24.8975   14.8628 C   0  0  0  0  0  0  0  0  0  0  0  0
   16.2401   22.9229   14.9911 C   0  0  0  0  0  0  0  0  0  0  0  0
 22 23  2  0  0  0
 22 21  1  0  0  0
 23 24  1  0  0  0
 21 20  2  0  0  0
 24 25  2  0  0  0
 39 40  1  0  0  0
 39 41  1  0  0  0
 39 38  2  0  0  0
 20 25  1  0  0  0
 43 41  1  0  0  0
 43 44  1  0  0  0
 40 36  2  0  0  0
 41 42  2  0  0  0
 31 32  2  0  0  0
 31 30  1  0  0  0
 25 19  1  0  0  0
 38 37  1  0  0  0
 36 37  1  0  0  0
 36 30  1  0  0  0
 28 27  2  0  0  0
 32 33  1  0  0  0
 30 35  2  0  0  0
 33 34  2  0  0  0
 33 27  1  0  0  0
 35 34  1  0  0  0
 19  5  1  0  0  0
 27 29  2  0  0  0
 27 26  1  0  0  0
 17 16  1  0  0  0
 17 18  1  0  0  0
  5  6  1  0  0  0
  5  2  1  0  0  0
 16 15  1  0  0  0
 26  1  1  0  0  0
 26 45  1  0  0  0
  1  2  1  0  0  0
  6  7  1  0  0  0
  8  7  2  0  0  0
  2  3  1  0  0  0
  7 10  1  0  0  0
 18 14  1  0  0  0
 18 11  1  0  0  0
 15 14  1  0  0  0
 45 46  1  0  0  0
 10 11  1  0  0  0
 14 13  1  0  0  0
 11 12  1  0  0  0
 47 46  1  0  0  0
 46 48  1  0  0  0
 13 12  1  0  0  0
  3  4  1  0  0  0
  6  9  1  0  0  0
M  END
> <minimizedAffinity>
-9.68601

$$$$
6B4N_G53_A_201


 48 52  0  0  0  0  0  0  0  0999 V2000
   19.9189   24.1634   18.9162 C   0  0  0  0  0  0  0  0  0  0  0  0
   19.8417   25.3084   19.9827 C   0  0  0  0  0  0  0  0  0  0  0  0
   19.5876   24.7090   21.2574 O   0  0  0  0  0  0  0  0  0  0  0  0
   20.3115   24.1030   21.4799 H   0  0  0  0  0  0  0  0  0  0  0  0
   21.1326   26.1473   20.0227 C   0  0  0  0  0  0  0  0  0  0  0  0
   21.1222   26.9876   18.8017 N   0  0  0  0  0  0  0  0  0  0  0  0
   22.1721   27.6098   18.2904 C   0  0  0  0  0  0  0  0  0  0  0  0
   23.3449   27.5656   18.6736 O   0  0  0  0  0  0  0  0  0  0  0  0
   20.2631   27.0914   18.3323 H   0  0  0  0  0  0  0  0  0  0  0  0
   21.7987   28.3182   17.1543 O   0  0  0  0  0  0  0  0  0  0  0  0
   21.5338   27.4980   16.0122 C   0  0  0  0  0  0  0  0  0  0  0  0
   20.1712   28.0346   15.5055 C   0  0  0  0  0  0  0  0  0  0  0  0
   20.4927   29.2162   14.8059 O   0  0  0  0  0  0  0  0  0  0  0  0
   21.7727   29.0825   14.1636 C   0  0  0  0  0  0  0  0  0  0  0  0
   22.5589   30.2757   14.4700 O   0  0  0  0  0  0  0  0  0  0  0  0
   23.6021   29.9230   15.3888 C   0  0  0  0  0  0  0  0  0  0  0  0
   23.8272   28.4177   15.2429 C   0  0  0  0  0  0  0  0  0  0  0  0
   22.4444   27.8959   14.8380 C   0  0  0  0  0  0  0  0  0  0  0  0
   21.2499   27.0629   21.2449 C   0  0  0  0  0  0  0  0  0  0  0  0
   22.6815   27.2097   23.3444 C   0  0  0  0  0  0  0  0  0  0  0  0
   23.7962   26.8344   24.1194 C   0  0  0  0  0  0  0  0  0  0  0  0
   24.6407   25.7880   23.7284 C   0  0  0  0  0  0  0  0  0  0  0  0
   24.3469   25.1620   22.5058 C   0  0  0  0  0  0  0  0  0  0  0  0
   23.2364   25.5588   21.6953 C   0  0  0  0  0  0  0  0  0  0  0  0
   22.4129   26.6025   22.1256 C   0  0  0  0  0  0  0  0  0  0  0  0
   18.5986   23.8226   18.4064 N   0  0  0  0  0  0  0  0  0  0  0  0
   17.8378   22.5469   19.0862 S   0  0  0  0  0  0  0  0  0  0  0  0
   17.2950   23.0154   20.3929 O   0  0  0  0  0  0  0  0  0  0  0  0
   18.7268   21.3948   19.0618 O   0  0  0  0  0  0  0  0  0  0  0  0
   14.1372   21.3865   16.6537 C   0  0  0  0  0  0  0  0  0  0  0  0
   15.4151   21.1952   16.1165 C   0  0  0  0  0  0  0  0  0  0  0  0
   16.5649   21.5501   16.8266 C   0  0  0  0  0  0  0  0  0  0  0  0
   16.4436   22.1429   18.0568 C   0  0  0  0  0  0  0  0  0  0  0  0
   15.1794   22.3271   18.6112 C   0  0  0  0  0  0  0  0  0  0  0  0
   14.0351   22.0022   17.9026 C   0  0  0  0  0  0  0  0  0  0  0  0
   13.0037   20.9907   16.0468 C   0  0  0  0  0  0  0  0  0  0  0  0
   12.5924   21.5095   14.8764 O   0  0  0  0  0  0  0  0  0  0  0  0
   11.3472   20.9633   14.5334 C   0  0  0  0  0  0  0  0  0  0  0  0
   11.1252   19.9943   15.4300 C   0  0  0  0  0  0  0  0  0  0  0  0
   12.0983   20.0967   16.3543 N   0  0  0  0  0  0  0  0  0  0  0  0
    9.9103   19.5180   15.5291 C   0  0  0  0  0  0  0  0  0  0  0  0
    8.8738   20.1908   15.4409 O   0  0  0  0  0  0  0  0  0  0  0  0
    9.8762   18.1530   15.7190 O   0  0  0  0  0  0  0  0  0  0  0  0
    9.7641   17.5879   14.3951 C   0  0  0  0  0  0  0  0  0  0  0  0
   17.7503   24.8047   17.7879 C   0  0  0  0  0  0  0  0  0  0  0  0
   17.9748   25.0837   16.2819 C   0  0  0  0  0  0  0  0  0  0  0  0
   18.9349   24.0635   15.6663 C   0  0  0  0  0  0  0  0  0  0  0  0
   16.6296   25.1319   15.5739 C   0  0  0  0  0  0  0  0  0  0  0  0
 22 23  2  0  0  0
 22 21  1  0  0  0
 23 24  1  0  0  0
 21 20  2  0  0  0
 24 25  2  0  0  0
 39 40  1  0  0  0
 39 41  1  0  0  0
 39 38  2  0  0  0
 20 25  1  0  0  0
 43 41  1  0  0  0
 43 44  1  0  0  0
 40 36  2  0  0  0
 41 42  2  0  0  0
 31 32  2  0  0  0
 31 30  1  0  0  0
 25 19  1  0  0  0
 38 37  1  0  0  0
 36 37  1  0  0  0
 36 30  1  0  0  0
 28 27  2  0  0  0
 32 33  1  0  0  0
 30 35  2  0  0  0
 33 34  2  0  0  0
 33 27  1  0  0  0
 35 34  1  0  0  0
 19  5  1  0  0  0
 27 29  2  0  0  0
 27 26  1  0  0  0
 17 16  1  0  0  0
 17 18  1  0  0  0
  5  6  1  0  0  0
  5  2  1  0  0  0
 16 15  1  0  0  0
 26  1  1  0  0  0
 26 45  1  0  0  0
  1  2  1  0  0  0
  6  7  1  0  0  0
  8  7  2  0  0  0
  2  3  1  0  0  0
  7 10  1  0  0  0
 18 14  1  0  0  0
 18 11  1  0  0  0
 15 14  1  0  0  0
 45 46  1  0  0  0
 10 11  1  0  0  0
 14 13  1  0  0  0
 11 12  1  0  0  0
 47 46  1  0  0  0
 46 48  1  0  0  0
 13 12  1  0  0  0
  3  4  1  0  0  0
  6  9  1  0  0  0
M  END
> <minimizedAffinity>
-9.67842

$$$$
6B4N_G53_A_201


 48 52  0  0  0  0  0  0  0  0999 V2000
   19.8926   23.9977   18.0932 C   0  0  0  0  0  0  0  0  0  0  0  0
   19.9105   25.5623   18.1702 C   0  0  0  0  0  0  0  0  0  0  0  0
   19.8164   25.9383   19.5481 O   0  0  0  0  0  0  0  0  0  0  0  0
   20.5747   25.5781   20.0341 H   0  0  0  0  0  0  0  0  0  0  0  0
   21.1779   26.1570   17.5285 C   0  0  0  0  0  0  0  0  0  0  0  0
   22.3287   25.5623   18.2489 N   0  0  0  0  0  0  0  0  0  0  0  0
   23.2111   26.2339   18.9708 C   0  0  0  0  0  0  0  0  0  0  0  0
   23.2183   27.4396   19.2366 O   0  0  0  0  0  0  0  0  0  0  0  0
   22.4463   24.5869   18.1850 H   0  0  0  0  0  0  0  0  0  0  0  0
   24.1626   25.3636   19.4898 O   0  0  0  0  0  0  0  0  0  0  0  0
   25.3166   26.0121   20.0327 C   0  0  0  0  0  0  0  0  0  0  0  0
   25.2379   25.6607   21.5399 C   0  0  0  0  0  0  0  0  0  0  0  0
   25.7212   24.3382   21.6220 O   0  0  0  0  0  0  0  0  0  0  0  0
   26.7449   24.1196   20.6356 C   0  0  0  0  0  0  0  0  0  0  0  0
   26.4425   22.8707   19.9396 O   0  0  0  0  0  0  0  0  0  0  0  0
   25.9997   23.1740   18.6096 C   0  0  0  0  0  0  0  0  0  0  0  0
   26.5404   24.5637   18.2715 C   0  0  0  0  0  0  0  0  0  0  0  0
   26.5972   25.2574   19.6368 C   0  0  0  0  0  0  0  0  0  0  0  0
   21.3275   25.8544   16.0345 C   0  0  0  0  0  0  0  0  0  0  0  0
   22.9709   27.7297   15.5234 C   0  0  0  0  0  0  0  0  0  0  0  0
   23.3226   28.9385   14.8917 C   0  0  0  0  0  0  0  0  0  0  0  0
   22.4812   29.5445   13.9506 C   0  0  0  0  0  0  0  0  0  0  0  0
   21.2525   28.9113   13.7011 C   0  0  0  0  0  0  0  0  0  0  0  0
   20.8721   27.7009   14.3630 C   0  0  0  0  0  0  0  0  0  0  0  0
   21.7442   27.1239   15.2896 C   0  0  0  0  0  0  0  0  0  0  0  0
   18.5411   23.4907   17.9039 N   0  0  0  0  0  0  0  0  0  0  0  0
   17.9225   22.5441   19.0827 S   0  0  0  0  0  0  0  0  0  0  0  0
   17.5235   23.4497   20.1973 O   0  0  0  0  0  0  0  0  0  0  0  0
   18.8492   21.4550   19.3534 O   0  0  0  0  0  0  0  0  0  0  0  0
   13.9814   20.6638   17.7081 C   0  0  0  0  0  0  0  0  0  0  0  0
   15.1999   20.1022   17.3107 C   0  0  0  0  0  0  0  0  0  0  0  0
   16.4207   20.6582   17.7016 C   0  0  0  0  0  0  0  0  0  0  0  0
   16.4315   21.8061   18.4510 C   0  0  0  0  0  0  0  0  0  0  0  0
   15.2274   22.3692   18.8664 C   0  0  0  0  0  0  0  0  0  0  0  0
   14.0143   21.8390   18.4611 C   0  0  0  0  0  0  0  0  0  0  0  0
   12.7817   20.1242   17.4262 C   0  0  0  0  0  0  0  0  0  0  0  0
   12.3572   18.9767   17.9842 O   0  0  0  0  0  0  0  0  0  0  0  0
   11.1129   18.6241   17.4419 C   0  0  0  0  0  0  0  0  0  0  0  0
   10.7425   19.6701   16.6931 C   0  0  0  0  0  0  0  0  0  0  0  0
   11.7974   20.5052   16.6520 N   0  0  0  0  0  0  0  0  0  0  0  0
    9.7662   19.4970   15.8389 C   0  0  0  0  0  0  0  0  0  0  0  0
    9.4862   18.4233   15.2879 O   0  0  0  0  0  0  0  0  0  0  0  0
    9.0312   20.6416   15.6153 O   0  0  0  0  0  0  0  0  0  0  0  0
    9.2054   20.9372   14.2129 C   0  0  0  0  0  0  0  0  0  0  0  0
   17.5833   24.1798   17.0825 C   0  0  0  0  0  0  0  0  0  0  0  0
   17.7205   24.0159   15.5493 C   0  0  0  0  0  0  0  0  0  0  0  0
   16.5559   23.2088   14.9717 C   0  0  0  0  0  0  0  0  0  0  0  0
   17.8649   25.3876   14.9083 C   0  0  0  0  0  0  0  0  0  0  0  0
 22 23  2  0  0  0
 22 21  1  0  0  0
 23 24  1  0  0  0
 21 20  2  0  0  0
 24 25  2  0  0  0
 39 40  1  0  0  0
 39 41  1  0  0  0
 39 38  2  0  0  0
 20 25  1  0  0  0
 43 41  1  0  0  0
 43 44  1  0  0  0
 40 36  2  0  0  0
 41 42  2  0  0  0
 31 32  2  0  0  0
 31 30  1  0  0  0
 25 19  1  0  0  0
 38 37  1  0  0  0
 36 37  1  0  0  0
 36 30  1  0  0  0
 28 27  2  0  0  0
 32 33  1  0  0  0
 30 35  2  0  0  0
 33 34  2  0  0  0
 33 27  1  0  0  0
 35 34  1  0  0  0
 19  5  1  0  0  0
 27 29  2  0  0  0
 27 26  1  0  0  0
 17 16  1  0  0  0
 17 18  1  0  0  0
  5  6  1  0  0  0
  5  2  1  0  0  0
 16 15  1  0  0  0
 26  1  1  0  0  0
 26 45  1  0  0  0
  1  2  1  0  0  0
  6  7  1  0  0  0
  8  7  2  0  0  0
  2  3  1  0  0  0
  7 10  1  0  0  0
 18 14  1  0  0  0
 18 11  1  0  0  0
 15 14  1  0  0  0
 45 46  1  0  0  0
 10 11  1  0  0  0
 14 13  1  0  0  0
 11 12  1  0  0  0
 47 46  1  0  0  0
 46 48  1  0  0  0
 13 12  1  0  0  0
  3  4  1  0  0  0
  6  9  1  0  0  0
M  END
> <minimizedAffinity>
-9.49631

$$$$
6B4N_G53_A_201


 48 52  0  0  0  0  0  0  0  0999 V2000
   20.8387   27.2627   17.3518 C   0  0  0  0  0  0  0  0  0  0  0  0
   21.2263   26.9715   18.8416 C   0  0  0  0  0  0  0  0  0  0  0  0
   20.4753   27.8599   19.6756 O   0  0  0  0  0  0  0  0  0  0  0  0
   19.5272   27.7001   19.5470 H   0  0  0  0  0  0  0  0  0  0  0  0
   20.9618   25.5051   19.2303 C   0  0  0  0  0  0  0  0  0  0  0  0
   22.2894   24.8912   19.4709 N   0  0  0  0  0  0  0  0  0  0  0  0
   23.2814   25.4498   20.1452 C   0  0  0  0  0  0  0  0  0  0  0  0
   23.2817   26.5283   20.7460 O   0  0  0  0  0  0  0  0  0  0  0  0
   22.4460   23.9935   19.0981 H   0  0  0  0  0  0  0  0  0  0  0  0
   24.3827   24.6019   20.1612 O   0  0  0  0  0  0  0  0  0  0  0  0
   25.6244   25.2583   20.4342 C   0  0  0  0  0  0  0  0  0  0  0  0
   25.9592   24.7880   21.8723 C   0  0  0  0  0  0  0  0  0  0  0  0
   26.4775   23.4866   21.7088 O   0  0  0  0  0  0  0  0  0  0  0  0
   27.2054   23.3917   20.4720 C   0  0  0  0  0  0  0  0  0  0  0  0
   26.7573   22.1879   19.7750 O   0  0  0  0  0  0  0  0  0  0  0  0
   25.9686   22.5728   18.6406 C   0  0  0  0  0  0  0  0  0  0  0  0
   26.3669   24.0077   18.2936 C   0  0  0  0  0  0  0  0  0  0  0  0
   26.7701   24.5955   19.6502 C   0  0  0  0  0  0  0  0  0  0  0  0
   20.1083   25.3326   20.4903 C   0  0  0  0  0  0  0  0  0  0  0  0
   19.3463   22.9184   20.7541 C   0  0  0  0  0  0  0  0  0  0  0  0
   18.4531   21.8601   20.4970 C   0  0  0  0  0  0  0  0  0  0  0  0
   17.2486   22.0684   19.8138 C   0  0  0  0  0  0  0  0  0  0  0  0
   16.9967   23.3738   19.3606 C   0  0  0  0  0  0  0  0  0  0  0  0
   17.9140   24.4484   19.5879 C   0  0  0  0  0  0  0  0  0  0  0  0
   19.1015   24.2001   20.2812 C   0  0  0  0  0  0  0  0  0  0  0  0
   21.7200   26.5639   16.4275 N   0  0  0  0  0  0  0  0  0  0  0  0
   21.0878   26.0971   14.9954 S   0  0  0  0  0  0  0  0  0  0  0  0
   22.0210   25.0863   14.4217 O   0  0  0  0  0  0  0  0  0  0  0  0
   20.7578   27.2793   14.2134 O   0  0  0  0  0  0  0  0  0  0  0  0
   17.2506   23.7179   15.7521 C   0  0  0  0  0  0  0  0  0  0  0  0
   17.1781   25.0131   15.2274 C   0  0  0  0  0  0  0  0  0  0  0  0
   18.3286   25.7715   14.9964 C   0  0  0  0  0  0  0  0  0  0  0  0
   19.5547   25.2593   15.3334 C   0  0  0  0  0  0  0  0  0  0  0  0
   19.6449   23.9664   15.8433 C   0  0  0  0  0  0  0  0  0  0  0  0
   18.5076   23.2193   16.0994 C   0  0  0  0  0  0  0  0  0  0  0  0
   16.1822   22.9176   15.9193 C   0  0  0  0  0  0  0  0  0  0  0  0
   14.9288   23.3200   15.6446 O   0  0  0  0  0  0  0  0  0  0  0  0
   14.0246   22.3055   15.9904 C   0  0  0  0  0  0  0  0  0  0  0  0
   14.7814   21.2469   16.3048 C   0  0  0  0  0  0  0  0  0  0  0  0
   16.0563   21.6785   16.3220 N   0  0  0  0  0  0  0  0  0  0  0  0
   14.2142   20.2569   16.9458 C   0  0  0  0  0  0  0  0  0  0  0  0
   13.1591   19.7029   16.6072 O   0  0  0  0  0  0  0  0  0  0  0  0
   14.9267   19.8478   18.0528 O   0  0  0  0  0  0  0  0  0  0  0  0
   13.9937   19.9178   19.1523 C   0  0  0  0  0  0  0  0  0  0  0  0
   23.1454   26.7491   16.4557 C   0  0  0  0  0  0  0  0  0  0  0  0
   23.6663   28.2008   16.5873 C   0  0  0  0  0  0  0  0  0  0  0  0
   24.9230   28.2620   17.4582 C   0  0  0  0  0  0  0  0  0  0  0  0
   23.8794   28.7859   15.1997 C   0  0  0  0  0  0  0  0  0  0  0  0
 22 23  2  0  0  0
 22 21  1  0  0  0
 23 24  1  0  0  0
 21 20  2  0  0  0
 24 25  2  0  0  0
 39 40  1  0  0  0
 39 41  1  0  0  0
 39 38  2  0  0  0
 20 25  1  0  0  0
 43 41  1  0  0  0
 43 44  1  0  0  0
 40 36  2  0  0  0
 41 42  2  0  0  0
 31 32  2  0  0  0
 31 30  1  0  0  0
 25 19  1  0  0  0
 38 37  1  0  0  0
 36 37  1  0  0  0
 36 30  1  0  0  0
 28 27  2  0  0  0
 32 33  1  0  0  0
 30 35  2  0  0  0
 33 34  2  0  0  0
 33 27  1  0  0  0
 35 34  1  0  0  0
 19  5  1  0  0  0
 27 29  2  0  0  0
 27 26  1  0  0  0
 17 16  1  0  0  0
 17 18  1  0  0  0
  5  6  1  0  0  0
  5  2  1  0  0  0
 16 15  1  0  0  0
 26  1  1  0  0  0
 26 45  1  0  0  0
  1  2  1  0  0  0
  6  7  1  0  0  0
  8  7  2  0  0  0
  2  3  1  0  0  0
  7 10  1  0  0  0
 18 14  1  0  0  0
 18 11  1  0  0  0
 15 14  1  0  0  0
 45 46  1  0  0  0
 10 11  1  0  0  0
 14 13  1  0  0  0
 11 12  1  0  0  0
 47 46  1  0  0  0
 46 48  1  0  0  0
 13 12  1  0  0  0
  3  4  1  0  0  0
  6  9  1  0  0  0
M  END
> <minimizedAffinity>
-9.37809

$$$$
6B4N_G53_A_201


 48 52  0  0  0  0  0  0  0  0999 V2000
   20.7080   27.3963   17.0295 C   0  0  0  0  0  0  0  0  0  0  0  0
   21.2659   27.2560   18.4867 C   0  0  0  0  0  0  0  0  0  0  0  0
   20.4228   28.0166   19.3581 O   0  0  0  0  0  0  0  0  0  0  0  0
   19.5186   27.6676   19.3190 H   0  0  0  0  0  0  0  0  0  0  0  0
   21.3327   25.7856   18.9397 C   0  0  0  0  0  0  0  0  0  0  0  0
   22.7716   25.4397   19.0235 N   0  0  0  0  0  0  0  0  0  0  0  0
   23.7157   26.2078   19.5426 C   0  0  0  0  0  0  0  0  0  0  0  0
   23.5864   27.3005   20.1025 O   0  0  0  0  0  0  0  0  0  0  0  0
   23.0477   24.5661   18.6630 H   0  0  0  0  0  0  0  0  0  0  0  0
   24.9507   25.5780   19.4414 O   0  0  0  0  0  0  0  0  0  0  0  0
   25.4775   25.5301   18.1120 C   0  0  0  0  0  0  0  0  0  0  0  0
   26.5382   26.6598   18.1159 C   0  0  0  0  0  0  0  0  0  0  0  0
   27.6538   26.0973   18.7703 O   0  0  0  0  0  0  0  0  0  0  0  0
   27.7465   24.6920   18.4784 C   0  0  0  0  0  0  0  0  0  0  0  0
   27.9466   23.9808   19.7393 O   0  0  0  0  0  0  0  0  0  0  0  0
   26.7455   23.2694   20.0686 C   0  0  0  0  0  0  0  0  0  0  0  0
   25.9762   23.0752   18.7615 C   0  0  0  0  0  0  0  0  0  0  0  0
   26.3820   24.2988   17.9329 C   0  0  0  0  0  0  0  0  0  0  0  0
   20.6856   25.5173   20.3018 C   0  0  0  0  0  0  0  0  0  0  0  0
   18.3170   24.5942   20.4308 C   0  0  0  0  0  0  0  0  0  0  0  0
   17.3900   23.5348   20.3852 C   0  0  0  0  0  0  0  0  0  0  0  0
   17.7749   22.2408   20.0132 C   0  0  0  0  0  0  0  0  0  0  0  0
   19.1366   22.0430   19.7310 C   0  0  0  0  0  0  0  0  0  0  0  0
   20.0916   23.1060   19.8073 C   0  0  0  0  0  0  0  0  0  0  0  0
   19.6650   24.3849   20.1746 C   0  0  0  0  0  0  0  0  0  0  0  0
   21.6059   26.7908   16.0565 N   0  0  0  0  0  0  0  0  0  0  0  0
   20.9271   26.0372   14.7760 S   0  0  0  0  0  0  0  0  0  0  0  0
   21.9270   25.0508   14.2772 O   0  0  0  0  0  0  0  0  0  0  0  0
   20.4023   27.0379   13.8587 O   0  0  0  0  0  0  0  0  0  0  0  0
   17.2476   23.8779   16.4361 C   0  0  0  0  0  0  0  0  0  0  0  0
   18.5138   23.2939   16.5551 C   0  0  0  0  0  0  0  0  0  0  0  0
   19.6556   23.9197   16.0484 C   0  0  0  0  0  0  0  0  0  0  0  0
   19.5331   25.1087   15.3771 C   0  0  0  0  0  0  0  0  0  0  0  0
   18.2819   25.7096   15.2625 C   0  0  0  0  0  0  0  0  0  0  0  0
   17.1430   25.0829   15.7389 C   0  0  0  0  0  0  0  0  0  0  0  0
   16.1301   23.3569   16.9743 C   0  0  0  0  0  0  0  0  0  0  0  0
   15.2725   24.0892   17.7070 O   0  0  0  0  0  0  0  0  0  0  0  0
   14.2511   23.2629   18.1974 C   0  0  0  0  0  0  0  0  0  0  0  0
   14.4315   22.0803   17.5965 C   0  0  0  0  0  0  0  0  0  0  0  0
   15.6028   22.1594   16.9379 N   0  0  0  0  0  0  0  0  0  0  0  0
   13.8052   21.0415   18.0879 C   0  0  0  0  0  0  0  0  0  0  0  0
   14.0029   20.5587   19.2116 O   0  0  0  0  0  0  0  0  0  0  0  0
   12.8539   20.5269   17.2332 O   0  0  0  0  0  0  0  0  0  0  0  0
   11.9922   19.7207   18.0650 C   0  0  0  0  0  0  0  0  0  0  0  0
   22.9482   27.2691   15.8663 C   0  0  0  0  0  0  0  0  0  0  0  0
   23.1538   28.8031   15.8390 C   0  0  0  0  0  0  0  0  0  0  0  0
   24.5391   29.1862   16.3642 C   0  0  0  0  0  0  0  0  0  0  0  0
   22.8905   29.3205   14.4333 C   0  0  0  0  0  0  0  0  0  0  0  0
 22 23  2  0  0  0
 22 21  1  0  0  0
 23 24  1  0  0  0
 21 20  2  0  0  0
 24 25  2  0  0  0
 39 40  1  0  0  0
 39 41  1  0  0  0
 39 38  2  0  0  0
 20 25  1  0  0  0
 43 41  1  0  0  0
 43 44  1  0  0  0
 40 36  2  0  0  0
 41 42  2  0  0  0
 31 32  2  0  0  0
 31 30  1  0  0  0
 25 19  1  0  0  0
 38 37  1  0  0  0
 36 37  1  0  0  0
 36 30  1  0  0  0
 28 27  2  0  0  0
 32 33  1  0  0  0
 30 35  2  0  0  0
 33 34  2  0  0  0
 33 27  1  0  0  0
 35 34  1  0  0  0
 19  5  1  0  0  0
 27 29  2  0  0  0
 27 26  1  0  0  0
 17 16  1  0  0  0
 17 18  1  0  0  0
  5  6  1  0  0  0
  5  2  1  0  0  0
 16 15  1  0  0  0
 26  1  1  0  0  0
 26 45  1  0  0  0
  1  2  1  0  0  0
  6  7  1  0  0  0
  8  7  2  0  0  0
  2  3  1  0  0  0
  7 10  1  0  0  0
 18 14  1  0  0  0
 18 11  1  0  0  0
 15 14  1  0  0  0
 45 46  1  0  0  0
 10 11  1  0  0  0
 14 13  1  0  0  0
 11 12  1  0  0  0
 47 46  1  0  0  0
 46 48  1  0  0  0
 13 12  1  0  0  0
  3  4  1  0  0  0
  6  9  1  0  0  0
M  END
> <minimizedAffinity>
-9.37767

$$$$
6B4N_G53_A_201


 48 52  0  0  0  0  0  0  0  0999 V2000
   18.5525   24.9016   18.1092 C   0  0  0  0  0  0  0  0  0  0  0  0
   20.0015   24.6434   17.5723 C   0  0  0  0  0  0  0  0  0  0  0  0
   19.9304   23.6055   16.5892 O   0  0  0  0  0  0  0  0  0  0  0  0
   19.3571   23.8894   15.8601 H   0  0  0  0  0  0  0  0  0  0  0  0
   20.6311   25.9162   16.9763 C   0  0  0  0  0  0  0  0  0  0  0  0
   21.6870   26.3431   17.9250 N   0  0  0  0  0  0  0  0  0  0  0  0
   21.6327   27.4131   18.7016 C   0  0  0  0  0  0  0  0  0  0  0  0
   20.6984   28.2085   18.8384 O   0  0  0  0  0  0  0  0  0  0  0  0
   22.4955   25.7843   17.9820 H   0  0  0  0  0  0  0  0  0  0  0  0
   22.7993   27.5175   19.4500 O   0  0  0  0  0  0  0  0  0  0  0  0
   23.7546   26.4834   19.1946 C   0  0  0  0  0  0  0  0  0  0  0  0
   25.0688   27.2714   18.9635 C   0  0  0  0  0  0  0  0  0  0  0  0
   25.5131   27.6088   20.2588 O   0  0  0  0  0  0  0  0  0  0  0  0
   25.1657   26.5702   21.1912 C   0  0  0  0  0  0  0  0  0  0  0  0
   24.5483   27.1979   22.3576 O   0  0  0  0  0  0  0  0  0  0  0  0
   23.1446   26.9037   22.3566 C   0  0  0  0  0  0  0  0  0  0  0  0
   22.9592   25.6441   21.5098 C   0  0  0  0  0  0  0  0  0  0  0  0
   24.1024   25.7359   20.4933 C   0  0  0  0  0  0  0  0  0  0  0  0
   21.2655   25.7172   15.5965 C   0  0  0  0  0  0  0  0  0  0  0  0
   22.9909   27.5676   15.3171 C   0  0  0  0  0  0  0  0  0  0  0  0
   23.3874   28.8417   14.8663 C   0  0  0  0  0  0  0  0  0  0  0  0
   22.5511   29.6271   14.0634 C   0  0  0  0  0  0  0  0  0  0  0  0
   21.2829   29.1008   13.7673 C   0  0  0  0  0  0  0  0  0  0  0  0
   20.8585   27.8218   14.2489 C   0  0  0  0  0  0  0  0  0  0  0  0
   21.7267   27.0657   15.0407 C   0  0  0  0  0  0  0  0  0  0  0  0
   17.6785   23.7676   17.8454 N   0  0  0  0  0  0  0  0  0  0  0  0
   17.5773   22.6140   18.9975 S   0  0  0  0  0  0  0  0  0  0  0  0
   17.2475   23.3083   20.2744 O   0  0  0  0  0  0  0  0  0  0  0  0
   18.7644   21.7742   18.9350 O   0  0  0  0  0  0  0  0  0  0  0  0
   13.9315   19.9557   18.2238 C   0  0  0  0  0  0  0  0  0  0  0  0
   15.1794   19.6006   17.6996 C   0  0  0  0  0  0  0  0  0  0  0  0
   16.3097   20.3957   17.9059 C   0  0  0  0  0  0  0  0  0  0  0  0
   16.1901   21.5746   18.5953 C   0  0  0  0  0  0  0  0  0  0  0  0
   14.9580   21.9350   19.1354 C   0  0  0  0  0  0  0  0  0  0  0  0
   13.8286   21.1656   18.9127 C   0  0  0  0  0  0  0  0  0  0  0  0
   12.8315   19.1879   18.1220 C   0  0  0  0  0  0  0  0  0  0  0  0
   11.8150   19.2630   18.9992 O   0  0  0  0  0  0  0  0  0  0  0  0
   10.8520   18.2934   18.6846 C   0  0  0  0  0  0  0  0  0  0  0  0
   11.2400   17.7740   17.5133 C   0  0  0  0  0  0  0  0  0  0  0  0
   12.4598   18.2809   17.2544 N   0  0  0  0  0  0  0  0  0  0  0  0
   10.6923   16.6488   17.1305 C   0  0  0  0  0  0  0  0  0  0  0  0
   11.2241   15.8187   16.3803 O   0  0  0  0  0  0  0  0  0  0  0  0
    9.4413   16.4424   17.6717 O   0  0  0  0  0  0  0  0  0  0  0  0
    9.2453   15.0123   17.6409 C   0  0  0  0  0  0  0  0  0  0  0  0
   16.5521   23.8717   16.9583 C   0  0  0  0  0  0  0  0  0  0  0  0
   16.7356   23.3346   15.5181 C   0  0  0  0  0  0  0  0  0  0  0  0
   15.4193   22.7928   14.9566 C   0  0  0  0  0  0  0  0  0  0  0  0
   17.3452   24.4241   14.6494 C   0  0  0  0  0  0  0  0  0  0  0  0
 22 23  2  0  0  0
 22 21  1  0  0  0
 23 24  1  0  0  0
 21 20  2  0  0  0
 24 25  2  0  0  0
 39 40  1  0  0  0
 39 41  1  0  0  0
 39 38  2  0  0  0
 20 25  1  0  0  0
 43 41  1  0  0  0
 43 44  1  0  0  0
 40 36  2  0  0  0
 41 42  2  0  0  0
 31 32  2  0  0  0
 31 30  1  0  0  0
 25 19  1  0  0  0
 38 37  1  0  0  0
 36 37  1  0  0  0
 36 30  1  0  0  0
 28 27  2  0  0  0
 32 33  1  0  0  0
 30 35  2  0  0  0
 33 34  2  0  0  0
 33 27  1  0  0  0
 35 34  1  0  0  0
 19  5  1  0  0  0
 27 29  2  0  0  0
 27 26  1  0  0  0
 17 16  1  0  0  0
 17 18  1  0  0  0
  5  6  1  0  0  0
  5  2  1  0  0  0
 16 15  1  0  0  0
 26  1  1  0  0  0
 26 45  1  0  0  0
  1  2  1  0  0  0
  6  7  1  0  0  0
  8  7  2  0  0  0
  2  3  1  0  0  0
  7 10  1  0  0  0
 18 14  1  0  0  0
 18 11  1  0  0  0
 15 14  1  0  0  0
 45 46  1  0  0  0
 10 11  1  0  0  0
 14 13  1  0  0  0
 11 12  1  0  0  0
 47 46  1  0  0  0
 46 48  1  0  0  0
 13 12  1  0  0  0
  3  4  1  0  0  0
  6  9  1  0  0  0
M  END
> <minimizedAffinity>
-9.21901

$$$$
6B4N_G53_A_201


 48 52  0  0  0  0  0  0  0  0999 V2000
   20.3790   27.0078   17.2800 C   0  0  0  0  0  0  0  0  0  0  0  0
   21.1183   27.2825   18.6336 C   0  0  0  0  0  0  0  0  0  0  0  0
   20.5090   28.4235   19.2466 O   0  0  0  0  0  0  0  0  0  0  0  0
   19.5724   28.2373   19.4172 H   0  0  0  0  0  0  0  0  0  0  0  0
   21.0674   26.0656   19.5760 C   0  0  0  0  0  0  0  0  0  0  0  0
   22.1783   26.2390   20.5419 N   0  0  0  0  0  0  0  0  0  0  0  0
   23.2863   25.5164   20.5736 C   0  0  0  0  0  0  0  0  0  0  0  0
   23.6382   24.6269   19.7932 O   0  0  0  0  0  0  0  0  0  0  0  0
   22.0840   26.9507   21.2156 H   0  0  0  0  0  0  0  0  0  0  0  0
   24.1013   25.9405   21.6167 O   0  0  0  0  0  0  0  0  0  0  0  0
   25.4790   25.5844   21.4668 C   0  0  0  0  0  0  0  0  0  0  0  0
   26.1035   26.8591   20.8453 C   0  0  0  0  0  0  0  0  0  0  0  0
   26.2649   27.7422   21.9330 O   0  0  0  0  0  0  0  0  0  0  0  0
   26.5710   27.0069   23.1307 C   0  0  0  0  0  0  0  0  0  0  0  0
   25.6974   27.4945   24.1960 O   0  0  0  0  0  0  0  0  0  0  0  0
   24.7175   26.4897   24.4913 C   0  0  0  0  0  0  0  0  0  0  0  0
   25.2948   25.1572   24.0125 C   0  0  0  0  0  0  0  0  0  0  0  0
   26.1845   25.5661   22.8336 C   0  0  0  0  0  0  0  0  0  0  0  0
   19.7572   25.9298   20.3576 C   0  0  0  0  0  0  0  0  0  0  0  0
   17.7512   24.3934   20.0505 C   0  0  0  0  0  0  0  0  0  0  0  0
   17.1742   23.1217   19.8666 C   0  0  0  0  0  0  0  0  0  0  0  0
   17.9617   21.9870   19.6358 C   0  0  0  0  0  0  0  0  0  0  0  0
   19.3540   22.1723   19.6405 C   0  0  0  0  0  0  0  0  0  0  0  0
   19.9501   23.4546   19.8599 C   0  0  0  0  0  0  0  0  0  0  0  0
   19.1284   24.5635   20.0783 C   0  0  0  0  0  0  0  0  0  0  0  0
   21.2730   26.4106   16.2984 N   0  0  0  0  0  0  0  0  0  0  0  0
   20.6032   25.8411   14.9216 S   0  0  0  0  0  0  0  0  0  0  0  0
   21.5429   24.8213   14.3753 O   0  0  0  0  0  0  0  0  0  0  0  0
   20.2127   26.9645   14.0828 O   0  0  0  0  0  0  0  0  0  0  0  0
   16.8582   23.4183   15.9523 C   0  0  0  0  0  0  0  0  0  0  0  0
   16.7329   24.6996   15.4038 C   0  0  0  0  0  0  0  0  0  0  0  0
   17.8547   25.4709   15.0896 C   0  0  0  0  0  0  0  0  0  0  0  0
   19.1070   24.9866   15.3665 C   0  0  0  0  0  0  0  0  0  0  0  0
   19.2490   23.7076   15.8991 C   0  0  0  0  0  0  0  0  0  0  0  0
   18.1416   22.9485   16.2373 C   0  0  0  0  0  0  0  0  0  0  0  0
   15.8154   22.6049   16.1990 C   0  0  0  0  0  0  0  0  0  0  0  0
   14.6332   22.7363   15.5717 O   0  0  0  0  0  0  0  0  0  0  0  0
   13.7218   21.8047   16.0894 C   0  0  0  0  0  0  0  0  0  0  0  0
   14.4401   21.0175   16.8997 C   0  0  0  0  0  0  0  0  0  0  0  0
   15.6614   21.5758   16.9931 N   0  0  0  0  0  0  0  0  0  0  0  0
   13.7935   20.2505   17.7401 C   0  0  0  0  0  0  0  0  0  0  0  0
   12.5601   20.1668   17.8211 O   0  0  0  0  0  0  0  0  0  0  0  0
   14.6268   19.4956   18.5376 O   0  0  0  0  0  0  0  0  0  0  0  0
   14.3759   18.1251   18.1593 C   0  0  0  0  0  0  0  0  0  0  0  0
   22.6609   26.7767   16.2184 C   0  0  0  0  0  0  0  0  0  0  0  0
   22.9894   28.2875   16.1440 C   0  0  0  0  0  0  0  0  0  0  0  0
   24.3266   28.5980   16.8201 C   0  0  0  0  0  0  0  0  0  0  0  0
   22.9408   28.7415   14.6932 C   0  0  0  0  0  0  0  0  0  0  0  0
 22 23  2  0  0  0
 22 21  1  0  0  0
 23 24  1  0  0  0
 21 20  2  0  0  0
 24 25  2  0  0  0
 39 40  1  0  0  0
 39 41  1  0  0  0
 39 38  2  0  0  0
 20 25  1  0  0  0
 43 41  1  0  0  0
 43 44  1  0  0  0
 40 36  2  0  0  0
 41 42  2  0  0  0
 31 32  2  0  0  0
 31 30  1  0  0  0
 25 19  1  0  0  0
 38 37  1  0  0  0
 36 37  1  0  0  0
 36 30  1  0  0  0
 28 27  2  0  0  0
 32 33  1  0  0  0
 30 35  2  0  0  0
 33 34  2  0  0  0
 33 27  1  0  0  0
 35 34  1  0  0  0
 19  5  1  0  0  0
 27 29  2  0  0  0
 27 26  1  0  0  0
 17 16  1  0  0  0
 17 18  1  0  0  0
  5  6  1  0  0  0
  5  2  1  0  0  0
 16 15  1  0  0  0
 26  1  1  0  0  0
 26 45  1  0  0  0
  1  2  1  0  0  0
  6  7  1  0  0  0
  8  7  2  0  0  0
  2  3  1  0  0  0
  7 10  1  0  0  0
 18 14  1  0  0  0
 18 11  1  0  0  0
 15 14  1  0  0  0
 45 46  1  0  0  0
 10 11  1  0  0  0
 14 13  1  0  0  0
 11 12  1  0  0  0
 47 46  1  0  0  0
 46 48  1  0  0  0
 13 12  1  0  0  0
  3  4  1  0  0  0
  6  9  1  0  0  0
M  END
> <minimizedAffinity>
-8.96517

$$$$
6B4N_G53_A_201


 48 52  0  0  0  0  0  0  0  0999 V2000
   20.5119   26.8297   17.7715 C   0  0  0  0  0  0  0  0  0  0  0  0
   21.1422   26.9338   19.2019 C   0  0  0  0  0  0  0  0  0  0  0  0
   20.5408   28.0475   19.8703 O   0  0  0  0  0  0  0  0  0  0  0  0
   19.5845   27.9025   19.9439 H   0  0  0  0  0  0  0  0  0  0  0  0
   20.9460   25.6401   20.0142 C   0  0  0  0  0  0  0  0  0  0  0  0
   22.0355   25.6088   21.0187 N   0  0  0  0  0  0  0  0  0  0  0  0
   23.2352   25.0827   20.8321 C   0  0  0  0  0  0  0  0  0  0  0  0
   23.6980   24.5881   19.7999 O   0  0  0  0  0  0  0  0  0  0  0  0
   21.8513   26.0128   21.8974 H   0  0  0  0  0  0  0  0  0  0  0  0
   23.9975   25.2146   21.9869 O   0  0  0  0  0  0  0  0  0  0  0  0
   24.3420   26.5649   22.3114 C   0  0  0  0  0  0  0  0  0  0  0  0
   23.9212   26.6849   23.7980 C   0  0  0  0  0  0  0  0  0  0  0  0
   24.9626   26.0582   24.5136 O   0  0  0  0  0  0  0  0  0  0  0  0
   26.2210   26.2700   23.8500 C   0  0  0  0  0  0  0  0  0  0  0  0
   26.9031   24.9812   23.7528 O   0  0  0  0  0  0  0  0  0  0  0  0
   26.8852   24.5466   22.3861 C   0  0  0  0  0  0  0  0  0  0  0  0
   26.6861   25.7970   21.5288 C   0  0  0  0  0  0  0  0  0  0  0  0
   25.8672   26.7177   22.4400 C   0  0  0  0  0  0  0  0  0  0  0  0
   19.6036   25.5551   20.7467 C   0  0  0  0  0  0  0  0  0  0  0  0
   17.7845   24.3395   19.4458 C   0  0  0  0  0  0  0  0  0  0  0  0
   17.0563   23.1812   19.1114 C   0  0  0  0  0  0  0  0  0  0  0  0
   17.4282   21.9190   19.5904 C   0  0  0  0  0  0  0  0  0  0  0  0
   18.5348   21.8717   20.4542 C   0  0  0  0  0  0  0  0  0  0  0  0
   19.2603   23.0477   20.8263 C   0  0  0  0  0  0  0  0  0  0  0  0
   18.8616   24.2873   20.3197 C   0  0  0  0  0  0  0  0  0  0  0  0
   21.5243   26.9641   16.7340 N   0  0  0  0  0  0  0  0  0  0  0  0
   21.1478   26.4151   15.2422 S   0  0  0  0  0  0  0  0  0  0  0  0
   22.2280   25.4673   14.8469 O   0  0  0  0  0  0  0  0  0  0  0  0
   20.8507   27.5488   14.3793 O   0  0  0  0  0  0  0  0  0  0  0  0
   17.4177   23.7717   15.4792 C   0  0  0  0  0  0  0  0  0  0  0  0
   17.3058   25.1030   15.0630 C   0  0  0  0  0  0  0  0  0  0  0  0
   18.4217   25.9407   14.9916 C   0  0  0  0  0  0  0  0  0  0  0  0
   19.6479   25.4679   15.3820 C   0  0  0  0  0  0  0  0  0  0  0  0
   19.7783   24.1412   15.7851 C   0  0  0  0  0  0  0  0  0  0  0  0
   18.6729   23.3132   15.8834 C   0  0  0  0  0  0  0  0  0  0  0  0
   16.3909   22.9025   15.4902 C   0  0  0  0  0  0  0  0  0  0  0  0
   16.4977   21.6655   16.0066 O   0  0  0  0  0  0  0  0  0  0  0  0
   15.2978   20.9683   15.8049 C   0  0  0  0  0  0  0  0  0  0  0  0
   14.4376   21.8736   15.3223 C   0  0  0  0  0  0  0  0  0  0  0  0
   15.1508   22.9893   15.0804 N   0  0  0  0  0  0  0  0  0  0  0  0
   13.3352   21.4369   14.7686 C   0  0  0  0  0  0  0  0  0  0  0  0
   12.9854   20.2494   14.7221 O   0  0  0  0  0  0  0  0  0  0  0  0
   12.5533   22.4455   14.2471 O   0  0  0  0  0  0  0  0  0  0  0  0
   11.2073   21.9233   14.2509 C   0  0  0  0  0  0  0  0  0  0  0  0
   22.5361   27.9836   16.7925 C   0  0  0  0  0  0  0  0  0  0  0  0
   24.0114   27.5149   16.7962 C   0  0  0  0  0  0  0  0  0  0  0  0
   24.8159   28.2077   15.6943 C   0  0  0  0  0  0  0  0  0  0  0  0
   24.6023   27.7262   18.1817 C   0  0  0  0  0  0  0  0  0  0  0  0
 22 23  2  0  0  0
 22 21  1  0  0  0
 23 24  1  0  0  0
 21 20  2  0  0  0
 24 25  2  0  0  0
 39 40  1  0  0  0
 39 41  1  0  0  0
 39 38  2  0  0  0
 20 25  1  0  0  0
 43 41  1  0  0  0
 43 44  1  0  0  0
 40 36  2  0  0  0
 41 42  2  0  0  0
 31 32  2  0  0  0
 31 30  1  0  0  0
 25 19  1  0  0  0
 38 37  1  0  0  0
 36 37  1  0  0  0
 36 30  1  0  0  0
 28 27  2  0  0  0
 32 33  1  0  0  0
 30 35  2  0  0  0
 33 34  2  0  0  0
 33 27  1  0  0  0
 35 34  1  0  0  0
 19  5  1  0  0  0
 27 29  2  0  0  0
 27 26  1  0  0  0
 17 16  1  0  0  0
 17 18  1  0  0  0
  5  6  1  0  0  0
  5  2  1  0  0  0
 16 15  1  0  0  0
 26  1  1  0  0  0
 26 45  1  0  0  0
  1  2  1  0  0  0
  6  7  1  0  0  0
  8  7  2  0  0  0
  2  3  1  0  0  0
  7 10  1  0  0  0
 18 14  1  0  0  0
 18 11  1  0  0  0
 15 14  1  0  0  0
 45 46  1  0  0  0
 10 11  1  0  0  0
 14 13  1  0  0  0
 11 12  1  0  0  0
 47 46  1  0  0  0
 46 48  1  0  0  0
 13 12  1  0  0  0
  3  4  1  0  0  0
  6  9  1  0  0  0
M  END
> <minimizedAffinity>
-8.86505

$$$$
