5SZ3_72H_A_307


 22 24  0  0  0  0  0  0  0  0999 V2000
   -1.2522    3.9268   84.4219 C   0  0  0  0  0  0  0  0  0  0  0  0
   -2.6720    3.8418   84.9332 C   0  0  0  0  0  0  0  0  0  0  0  0
   -3.0618    2.8342   85.6487 C   0  0  0  0  0  0  0  0  0  0  0  0
   -2.0767    1.7381   85.9731 C   0  0  0  0  0  0  0  0  0  0  0  0
   -0.8293    1.7813   85.5307 C   0  0  0  0  0  0  0  0  0  0  0  0
   -0.3777    2.9730   84.6778 C   0  0  0  0  0  0  0  0  0  0  0  0
   -0.8560    6.3672   84.2170 C   0  0  0  0  0  0  0  0  0  0  0  0
   -0.6626    7.4871   83.4826 C   0  0  0  0  0  0  0  0  0  0  0  0
   -0.4415    8.7035   84.1150 C   0  0  0  0  0  0  0  0  0  0  0  0
   -0.2437    9.8494   83.3729 C   0  0  0  0  0  0  0  0  0  0  0  0
   -0.2673    9.7730   81.9960 C   0  0  0  0  0  0  0  0  0  0  0  0
   -0.4831    8.5579   81.3648 C   0  0  0  0  0  0  0  0  0  0  0  0
   -0.6832    7.4104   82.1121 C   0  0  0  0  0  0  0  0  0  0  0  0
   -0.8931    6.2379   81.4996 N   0  0  0  0  0  0  0  0  0  0  0  0
   -1.0858    5.1128   82.2181 C   0  0  0  0  0  0  0  0  0  0  0  0
   -1.1054    5.1880   83.6018 C   0  0  0  0  0  0  0  0  0  0  0  0
   -2.8030    0.4207   86.9755 S   0  0  0  0  0  0  0  0  0  0  0  0
   -2.4796    0.5899   88.3965 O   0  0  0  0  0  0  0  0  0  0  0  0
   -2.1650   -0.8455   86.5998 O   0  0  0  0  0  0  0  0  0  0  0  0
   -4.4708    0.3500   86.6318 N   0  0  0  0  0  0  0  0  0  0  0  0
   -4.9098    1.2324   86.8947 H   0  0  0  0  0  0  0  0  0  0  0  0
   -4.8950   -0.4118   87.1611 H   0  0  0  0  0  0  0  0  0  0  0  0
  7  8  2  0  0  0
  7 16  1  0  0  0
  8  9  1  0  0  0
  8 13  1  0  0  0
  9 10  2  0  0  0
 10 11  1  0  0  0
 11 12  2  0  0  0
 12 13  1  0  0  0
 13 14  2  0  0  0
 14 15  1  0  0  0
 15 16  2  0  0  0
 16  1  1  0  0  0
  1  2  2  0  0  0
  1  6  1  0  0  0
  2  3  1  0  0  0
  3  4  2  0  0  0
  4 17  1  0  0  0
  4  5  1  0  0  0
 17 18  2  0  0  0
 17 19  2  0  0  0
 17 20  1  0  0  0
  5  6  2  0  0  0
 20 21  1  0  0  0
 20 22  1  0  0  0
M  END
> <minimizedAffinity>
-8.72604

$$$$
5SZ3_72H_A_307


 22 24  0  0  0  0  0  0  0  0999 V2000
   -1.4387    4.3637   84.5096 C   0  0  0  0  0  0  0  0  0  0  0  0
   -0.4871    3.2144   84.7512 C   0  0  0  0  0  0  0  0  0  0  0  0
   -0.8943    2.1215   85.3157 C   0  0  0  0  0  0  0  0  0  0  0  0
   -2.3403    2.0030   85.7306 C   0  0  0  0  0  0  0  0  0  0  0  0
   -3.1942    2.9971   85.5403 C   0  0  0  0  0  0  0  0  0  0  0  0
   -2.7030    4.2904   84.8789 C   0  0  0  0  0  0  0  0  0  0  0  0
   -0.9842    6.7803   84.1813 C   0  0  0  0  0  0  0  0  0  0  0  0
   -0.2631    7.7983   83.6573 C   0  0  0  0  0  0  0  0  0  0  0  0
   -0.6017    9.1128   83.9505 C   0  0  0  0  0  0  0  0  0  0  0  0
    0.1287   10.1559   83.4199 C   0  0  0  0  0  0  0  0  0  0  0  0
    1.1992    9.8783   82.5958 C   0  0  0  0  0  0  0  0  0  0  0  0
    1.5401    8.5661   82.3072 C   0  0  0  0  0  0  0  0  0  0  0  0
    0.8042    7.5218   82.8395 C   0  0  0  0  0  0  0  0  0  0  0  0
    1.1349    6.2549   82.5578 N   0  0  0  0  0  0  0  0  0  0  0  0
    0.4266    5.2295   83.0738 C   0  0  0  0  0  0  0  0  0  0  0  0
   -0.6757    5.5003   83.8687 C   0  0  0  0  0  0  0  0  0  0  0  0
   -2.7176    0.4116   86.5009 S   0  0  0  0  0  0  0  0  0  0  0  0
   -4.1622    0.1564   86.5207 O   0  0  0  0  0  0  0  0  0  0  0  0
   -2.3361    0.4854   87.9153 O   0  0  0  0  0  0  0  0  0  0  0  0
   -1.7965   -0.7892   85.7173 N   0  0  0  0  0  0  0  0  0  0  0  0
   -2.0653   -0.8366   84.7345 H   0  0  0  0  0  0  0  0  0  0  0  0
   -1.9673   -1.6919   86.1604 H   0  0  0  0  0  0  0  0  0  0  0  0
  7  8  2  0  0  0
  7 16  1  0  0  0
  8  9  1  0  0  0
  8 13  1  0  0  0
  9 10  2  0  0  0
 10 11  1  0  0  0
 11 12  2  0  0  0
 12 13  1  0  0  0
 13 14  2  0  0  0
 14 15  1  0  0  0
 15 16  2  0  0  0
 16  1  1  0  0  0
  1  2  2  0  0  0
  1  6  1  0  0  0
  2  3  1  0  0  0
  3  4  2  0  0  0
  4 17  1  0  0  0
  4  5  1  0  0  0
 17 18  2  0  0  0
 17 19  2  0  0  0
 17 20  1  0  0  0
  5  6  2  0  0  0
 20 21  1  0  0  0
 20 22  1  0  0  0
M  END
> <minimizedAffinity>
-8.60556

$$$$
5SZ3_72H_A_307


 22 24  0  0  0  0  0  0  0  0999 V2000
   -0.9793    5.1860   83.7517 C   0  0  0  0  0  0  0  0  0  0  0  0
   -0.7177    6.2994   84.7400 C   0  0  0  0  0  0  0  0  0  0  0  0
   -0.4839    7.5075   84.3339 C   0  0  0  0  0  0  0  0  0  0  0  0
   -0.4781    7.7971   82.8530 C   0  0  0  0  0  0  0  0  0  0  0  0
   -0.6944    6.8397   81.9640 C   0  0  0  0  0  0  0  0  0  0  0  0
   -0.9625    5.4110   82.4520 C   0  0  0  0  0  0  0  0  0  0  0  0
   -2.4163    3.5848   84.9867 C   0  0  0  0  0  0  0  0  0  0  0  0
   -2.6200    2.4042   85.6158 C   0  0  0  0  0  0  0  0  0  0  0  0
   -3.8728    2.0985   86.1313 C   0  0  0  0  0  0  0  0  0  0  0  0
   -4.0879    0.8970   86.7741 C   0  0  0  0  0  0  0  0  0  0  0  0
   -3.0451    0.0029   86.8981 C   0  0  0  0  0  0  0  0  0  0  0  0
   -1.7961    0.3061   86.3791 C   0  0  0  0  0  0  0  0  0  0  0  0
   -1.5828    1.5131   85.7365 C   0  0  0  0  0  0  0  0  0  0  0  0
   -0.3745    1.8042   85.2374 N   0  0  0  0  0  0  0  0  0  0  0  0
   -0.1565    2.9762   84.6064 C   0  0  0  0  0  0  0  0  0  0  0  0
   -1.1874    3.8977   84.5144 C   0  0  0  0  0  0  0  0  0  0  0  0
   -0.1320    9.5323   82.4822 S   0  0  0  0  0  0  0  0  0  0  0  0
    1.2714    9.8665   82.7491 O   0  0  0  0  0  0  0  0  0  0  0  0
   -0.8943   10.3622   83.4212 O   0  0  0  0  0  0  0  0  0  0  0  0
   -0.6445    9.8469   80.8876 N   0  0  0  0  0  0  0  0  0  0  0  0
   -0.1118    9.2676   80.2387 H   0  0  0  0  0  0  0  0  0  0  0  0
   -0.4911   10.8313   80.6691 H   0  0  0  0  0  0  0  0  0  0  0  0
  7  8  2  0  0  0
  7 16  1  0  0  0
  8  9  1  0  0  0
  8 13  1  0  0  0
  9 10  2  0  0  0
 10 11  1  0  0  0
 11 12  2  0  0  0
 12 13  1  0  0  0
 13 14  2  0  0  0
 14 15  1  0  0  0
 15 16  2  0  0  0
 16  1  1  0  0  0
  1  2  2  0  0  0
  1  6  1  0  0  0
  2  3  1  0  0  0
  3  4  2  0  0  0
  4 17  1  0  0  0
  4  5  1  0  0  0
 17 18  2  0  0  0
 17 19  2  0  0  0
 17 20  1  0  0  0
  5  6  2  0  0  0
 20 21  1  0  0  0
 20 22  1  0  0  0
M  END
> <minimizedAffinity>
-8.28534

$$$$
5SZ3_72H_A_307


 22 24  0  0  0  0  0  0  0  0999 V2000
   -0.6873    5.4713   84.3481 C   0  0  0  0  0  0  0  0  0  0  0  0
    0.4309    4.4543   84.3532 C   0  0  0  0  0  0  0  0  0  0  0  0
    0.1881    3.2003   84.5718 C   0  0  0  0  0  0  0  0  0  0  0  0
   -1.2334    2.7592   84.8201 C   0  0  0  0  0  0  0  0  0  0  0  0
   -2.2317    3.6292   84.8311 C   0  0  0  0  0  0  0  0  0  0  0  0
   -1.9354    5.1126   84.5795 C   0  0  0  0  0  0  0  0  0  0  0  0
    1.0312    7.2170   84.7404 C   0  0  0  0  0  0  0  0  0  0  0  0
    1.5958    8.4171   84.4723 C   0  0  0  0  0  0  0  0  0  0  0  0
    2.7350    8.8180   85.1579 C   0  0  0  0  0  0  0  0  0  0  0  0
    3.3160   10.0402   84.8900 C   0  0  0  0  0  0  0  0  0  0  0  0
    2.7533   10.8586   83.9331 C   0  0  0  0  0  0  0  0  0  0  0  0
    1.6191   10.4561   83.2453 C   0  0  0  0  0  0  0  0  0  0  0  0
    1.0373    9.2303   83.5177 C   0  0  0  0  0  0  0  0  0  0  0  0
   -0.0594    8.8446   82.8527 N   0  0  0  0  0  0  0  0  0  0  0  0
   -0.6327    7.6506   83.1078 C   0  0  0  0  0  0  0  0  0  0  0  0
   -0.0981    6.8405   84.0970 C   0  0  0  0  0  0  0  0  0  0  0  0
   -1.3724    0.9797   85.1065 S   0  0  0  0  0  0  0  0  0  0  0  0
   -2.6478    0.6391   85.7466 O   0  0  0  0  0  0  0  0  0  0  0  0
   -0.3522    0.5923   86.0866 O   0  0  0  0  0  0  0  0  0  0  0  0
   -1.0853    0.1801   83.6290 N   0  0  0  0  0  0  0  0  0  0  0  0
   -1.7970    0.4526   82.9511 H   0  0  0  0  0  0  0  0  0  0  0  0
   -1.1236   -0.8286   83.7753 H   0  0  0  0  0  0  0  0  0  0  0  0
  7  8  2  0  0  0
  7 16  1  0  0  0
  8  9  1  0  0  0
  8 13  1  0  0  0
  9 10  2  0  0  0
 10 11  1  0  0  0
 11 12  2  0  0  0
 12 13  1  0  0  0
 13 14  2  0  0  0
 14 15  1  0  0  0
 15 16  2  0  0  0
 16  1  1  0  0  0
  1  2  2  0  0  0
  1  6  1  0  0  0
  2  3  1  0  0  0
  3  4  2  0  0  0
  4 17  1  0  0  0
  4  5  1  0  0  0
 17 18  2  0  0  0
 17 19  2  0  0  0
 17 20  1  0  0  0
  5  6  2  0  0  0
 20 21  1  0  0  0
 20 22  1  0  0  0
M  END
> <minimizedAffinity>
-8.18837

$$$$
5SZ3_72H_A_307


 22 24  0  0  0  0  0  0  0  0999 V2000
   -1.2620    3.9831   84.3841 C   0  0  0  0  0  0  0  0  0  0  0  0
   -2.6999    4.0293   84.8477 C   0  0  0  0  0  0  0  0  0  0  0  0
   -3.1977    3.0731   85.5667 C   0  0  0  0  0  0  0  0  0  0  0  0
   -2.3211    1.9041   85.9437 C   0  0  0  0  0  0  0  0  0  0  0  0
   -1.0608    1.8323   85.5438 C   0  0  0  0  0  0  0  0  0  0  0  0
   -0.4812    2.9638   84.6865 C   0  0  0  0  0  0  0  0  0  0  0  0
   -1.5216    5.3228   82.3123 C   0  0  0  0  0  0  0  0  0  0  0  0
   -1.3231    6.4467   81.5854 C   0  0  0  0  0  0  0  0  0  0  0  0
   -1.8485    6.5475   80.3039 C   0  0  0  0  0  0  0  0  0  0  0  0
   -1.6501    7.6902   79.5569 C   0  0  0  0  0  0  0  0  0  0  0  0
   -0.9249    8.7312   80.0976 C   0  0  0  0  0  0  0  0  0  0  0  0
   -0.4047    8.6324   81.3787 C   0  0  0  0  0  0  0  0  0  0  0  0
   -0.6037    7.4840   82.1249 C   0  0  0  0  0  0  0  0  0  0  0  0
   -0.0986    7.3906   83.3618 N   0  0  0  0  0  0  0  0  0  0  0  0
   -0.2894    6.2773   84.0991 C   0  0  0  0  0  0  0  0  0  0  0  0
   -0.9810    5.2105   83.5478 C   0  0  0  0  0  0  0  0  0  0  0  0
   -3.1900    0.6736   86.9433 S   0  0  0  0  0  0  0  0  0  0  0  0
   -4.6027    0.5744   86.5602 O   0  0  0  0  0  0  0  0  0  0  0  0
   -3.2161    1.1467   88.3315 O   0  0  0  0  0  0  0  0  0  0  0  0
   -2.3258   -0.7923   86.8501 N   0  0  0  0  0  0  0  0  0  0  0  0
   -2.3104   -1.1171   85.8833 H   0  0  0  0  0  0  0  0  0  0  0  0
   -2.7797   -1.4925   87.4368 H   0  0  0  0  0  0  0  0  0  0  0  0
  7  8  2  0  0  0
  7 16  1  0  0  0
  8  9  1  0  0  0
  8 13  1  0  0  0
  9 10  2  0  0  0
 10 11  1  0  0  0
 11 12  2  0  0  0
 12 13  1  0  0  0
 13 14  2  0  0  0
 14 15  1  0  0  0
 15 16  2  0  0  0
 16  1  1  0  0  0
  1  2  2  0  0  0
  1  6  1  0  0  0
  2  3  1  0  0  0
  3  4  2  0  0  0
  4 17  1  0  0  0
  4  5  1  0  0  0
 17 18  2  0  0  0
 17 19  2  0  0  0
 17 20  1  0  0  0
  5  6  2  0  0  0
 20 21  1  0  0  0
 20 22  1  0  0  0
M  END
> <minimizedAffinity>
-8.14025

$$$$
5SZ3_72H_A_307


 22 24  0  0  0  0  0  0  0  0999 V2000
   -0.7675    5.6189   83.8735 C   0  0  0  0  0  0  0  0  0  0  0  0
   -1.1519    5.5071   82.4160 C   0  0  0  0  0  0  0  0  0  0  0  0
   -1.0822    6.5344   81.6293 C   0  0  0  0  0  0  0  0  0  0  0  0
   -0.6066    7.8544   82.1845 C   0  0  0  0  0  0  0  0  0  0  0  0
   -0.2724    7.9842   83.4592 C   0  0  0  0  0  0  0  0  0  0  0  0
   -0.3652    6.7659   84.3858 C   0  0  0  0  0  0  0  0  0  0  0  0
   -2.2076    3.9335   84.9871 C   0  0  0  0  0  0  0  0  0  0  0  0
   -2.4143    2.7092   85.5250 C   0  0  0  0  0  0  0  0  0  0  0  0
   -3.6669    2.3697   86.0192 C   0  0  0  0  0  0  0  0  0  0  0  0
   -3.8851    1.1235   86.5692 C   0  0  0  0  0  0  0  0  0  0  0  0
   -2.8455    0.2188   86.6218 C   0  0  0  0  0  0  0  0  0  0  0  0
   -1.5966    0.5561   86.1240 C   0  0  0  0  0  0  0  0  0  0  0  0
   -1.3802    1.8078   85.5746 C   0  0  0  0  0  0  0  0  0  0  0  0
   -0.1721    2.1316   85.0958 N   0  0  0  0  0  0  0  0  0  0  0  0
    0.0489    3.3474   84.5552 C   0  0  0  0  0  0  0  0  0  0  0  0
   -0.9787    4.2770   84.5365 C   0  0  0  0  0  0  0  0  0  0  0  0
   -0.5793    9.1659   80.9405 S   0  0  0  0  0  0  0  0  0  0  0  0
   -1.7501    9.0918   80.0595 O   0  0  0  0  0  0  0  0  0  0  0  0
    0.5656    8.9325   80.0537 O   0  0  0  0  0  0  0  0  0  0  0  0
   -0.3909   10.6567   81.7447 N   0  0  0  0  0  0  0  0  0  0  0  0
   -1.1891   10.8144   82.3599 H   0  0  0  0  0  0  0  0  0  0  0  0
   -0.3369   11.4090   81.0581 H   0  0  0  0  0  0  0  0  0  0  0  0
  7  8  2  0  0  0
  7 16  1  0  0  0
  8  9  1  0  0  0
  8 13  1  0  0  0
  9 10  2  0  0  0
 10 11  1  0  0  0
 11 12  2  0  0  0
 12 13  1  0  0  0
 13 14  2  0  0  0
 14 15  1  0  0  0
 15 16  2  0  0  0
 16  1  1  0  0  0
  1  2  2  0  0  0
  1  6  1  0  0  0
  2  3  1  0  0  0
  3  4  2  0  0  0
  4 17  1  0  0  0
  4  5  1  0  0  0
 17 18  2  0  0  0
 17 19  2  0  0  0
 17 20  1  0  0  0
  5  6  2  0  0  0
 20 21  1  0  0  0
 20 22  1  0  0  0
M  END
> <minimizedAffinity>
-7.67817

$$$$
5SZ3_72H_A_307


 22 24  0  0  0  0  0  0  0  0999 V2000
    0.0020    4.5630   84.0959 C   0  0  0  0  0  0  0  0  0  0  0  0
   -0.2305    6.0054   84.4833 C   0  0  0  0  0  0  0  0  0  0  0  0
    0.6047    6.9313   84.1309 C   0  0  0  0  0  0  0  0  0  0  0  0
    1.8204    6.5549   83.3202 C   0  0  0  0  0  0  0  0  0  0  0  0
    2.0547    5.2982   82.9746 C   0  0  0  0  0  0  0  0  0  0  0  0
    1.0660    4.2069   83.4023 C   0  0  0  0  0  0  0  0  0  0  0  0
   -0.8455    2.4853   85.1540 C   0  0  0  0  0  0  0  0  0  0  0  0
   -1.8300    1.7523   85.7237 C   0  0  0  0  0  0  0  0  0  0  0  0
   -1.5621    0.4719   86.1900 C   0  0  0  0  0  0  0  0  0  0  0  0
   -2.5606   -0.2814   86.7717 C   0  0  0  0  0  0  0  0  0  0  0  0
   -3.8274    0.2519   86.8856 C   0  0  0  0  0  0  0  0  0  0  0  0
   -4.0935    1.5318   86.4246 C   0  0  0  0  0  0  0  0  0  0  0  0
   -3.0901    2.2843   85.8397 C   0  0  0  0  0  0  0  0  0  0  0  0
   -3.3503    3.5201   85.3937 N   0  0  0  0  0  0  0  0  0  0  0  0
   -2.3791    4.2635   84.8250 C   0  0  0  0  0  0  0  0  0  0  0  0
   -1.1141    3.7196   84.6687 C   0  0  0  0  0  0  0  0  0  0  0  0
    2.8655    7.9768   82.9275 S   0  0  0  0  0  0  0  0  0  0  0  0
    2.9621    8.8995   84.0640 O   0  0  0  0  0  0  0  0  0  0  0  0
    2.2036    8.7551   81.8751 O   0  0  0  0  0  0  0  0  0  0  0  0
    4.3627    7.3943   82.3585 N   0  0  0  0  0  0  0  0  0  0  0  0
    4.8189    6.8540   83.0935 H   0  0  0  0  0  0  0  0  0  0  0  0
    4.9564    8.1813   82.0966 H   0  0  0  0  0  0  0  0  0  0  0  0
  7  8  2  0  0  0
  7 16  1  0  0  0
  8  9  1  0  0  0
  8 13  1  0  0  0
  9 10  2  0  0  0
 10 11  1  0  0  0
 11 12  2  0  0  0
 12 13  1  0  0  0
 13 14  2  0  0  0
 14 15  1  0  0  0
 15 16  2  0  0  0
 16  1  1  0  0  0
  1  2  2  0  0  0
  1  6  1  0  0  0
  2  3  1  0  0  0
  3  4  2  0  0  0
  4 17  1  0  0  0
  4  5  1  0  0  0
 17 18  2  0  0  0
 17 19  2  0  0  0
 17 20  1  0  0  0
  5  6  2  0  0  0
 20 21  1  0  0  0
 20 22  1  0  0  0
M  END
> <minimizedAffinity>
-7.64452

$$$$
5SZ3_72H_A_307


 22 24  0  0  0  0  0  0  0  0999 V2000
    0.3840    8.0165   84.0511 C   0  0  0  0  0  0  0  0  0  0  0  0
    1.8631    8.2254   84.2821 C   0  0  0  0  0  0  0  0  0  0  0  0
    2.4023    9.3931   84.1238 C   0  0  0  0  0  0  0  0  0  0  0  0
    1.5330   10.5537   83.7065 C   0  0  0  0  0  0  0  0  0  0  0  0
    0.2362   10.3982   83.4878 C   0  0  0  0  0  0  0  0  0  0  0  0
   -0.3931    9.0117   83.6695 C   0  0  0  0  0  0  0  0  0  0  0  0
   -1.2138    6.1902   84.5671 C   0  0  0  0  0  0  0  0  0  0  0  0
   -1.5224    4.8810   84.7141 C   0  0  0  0  0  0  0  0  0  0  0  0
   -2.8189    4.5049   85.0403 C   0  0  0  0  0  0  0  0  0  0  0  0
   -3.1409    3.1721   85.1920 C   0  0  0  0  0  0  0  0  0  0  0  0
   -2.1611    2.2178   85.0153 C   0  0  0  0  0  0  0  0  0  0  0  0
   -0.8683    2.5930   84.6849 C   0  0  0  0  0  0  0  0  0  0  0  0
   -0.5477    3.9310   84.5353 C   0  0  0  0  0  0  0  0  0  0  0  0
    0.7026    4.2908   84.2176 N   0  0  0  0  0  0  0  0  0  0  0  0
    1.0252    5.5917   84.0661 C   0  0  0  0  0  0  0  0  0  0  0  0
    0.0568    6.5591   84.2829 C   0  0  0  0  0  0  0  0  0  0  0  0
    2.4615   12.0953   83.5350 S   0  0  0  0  0  0  0  0  0  0  0  0
    1.8713   12.9638   82.5104 O   0  0  0  0  0  0  0  0  0  0  0  0
    3.7963   11.7714   83.0204 O   0  0  0  0  0  0  0  0  0  0  0  0
    2.5956   12.8087   85.0770 N   0  0  0  0  0  0  0  0  0  0  0  0
    1.6652   13.0320   85.4304 H   0  0  0  0  0  0  0  0  0  0  0  0
    3.1479   13.6636   85.0092 H   0  0  0  0  0  0  0  0  0  0  0  0
  7  8  2  0  0  0
  7 16  1  0  0  0
  8  9  1  0  0  0
  8 13  1  0  0  0
  9 10  2  0  0  0
 10 11  1  0  0  0
 11 12  2  0  0  0
 12 13  1  0  0  0
 13 14  2  0  0  0
 14 15  1  0  0  0
 15 16  2  0  0  0
 16  1  1  0  0  0
  1  2  2  0  0  0
  1  6  1  0  0  0
  2  3  1  0  0  0
  3  4  2  0  0  0
  4 17  1  0  0  0
  4  5  1  0  0  0
 17 18  2  0  0  0
 17 19  2  0  0  0
 17 20  1  0  0  0
  5  6  2  0  0  0
 20 21  1  0  0  0
 20 22  1  0  0  0
M  END
> <minimizedAffinity>
-7.61215

$$$$
5SZ3_72H_A_307


 22 24  0  0  0  0  0  0  0  0999 V2000
   -1.2706    4.1210   84.4709 C   0  0  0  0  0  0  0  0  0  0  0  0
   -0.3889    2.9498   84.8391 C   0  0  0  0  0  0  0  0  0  0  0  0
   -0.8739    1.9230   85.4632 C   0  0  0  0  0  0  0  0  0  0  0  0
   -2.3400    1.9044   85.8195 C   0  0  0  0  0  0  0  0  0  0  0  0
   -3.1342    2.9203   85.5182 C   0  0  0  0  0  0  0  0  0  0  0  0
   -2.5512    4.1354   84.7867 C   0  0  0  0  0  0  0  0  0  0  0  0
    0.6289    4.7925   83.0232 C   0  0  0  0  0  0  0  0  0  0  0  0
    1.3503    5.7233   82.3568 C   0  0  0  0  0  0  0  0  0  0  0  0
    2.4530    5.3403   81.6045 C   0  0  0  0  0  0  0  0  0  0  0  0
    3.1934    6.2836   80.9226 C   0  0  0  0  0  0  0  0  0  0  0  0
    2.8255    7.6108   80.9959 C   0  0  0  0  0  0  0  0  0  0  0  0
    1.7219    7.9923   81.7428 C   0  0  0  0  0  0  0  0  0  0  0  0
    0.9823    7.0439   82.4274 C   0  0  0  0  0  0  0  0  0  0  0  0
   -0.0827    7.4154   83.1496 N   0  0  0  0  0  0  0  0  0  0  0  0
   -0.8126    6.4990   83.8180 C   0  0  0  0  0  0  0  0  0  0  0  0
   -0.4252    5.1689   83.7837 C   0  0  0  0  0  0  0  0  0  0  0  0
   -2.8289    0.3952   86.6864 S   0  0  0  0  0  0  0  0  0  0  0  0
   -2.2630    0.3485   88.0393 O   0  0  0  0  0  0  0  0  0  0  0  0
   -2.2241   -0.7475   85.9936 O   0  0  0  0  0  0  0  0  0  0  0  0
   -4.5277    0.2737   86.6243 N   0  0  0  0  0  0  0  0  0  0  0  0
   -4.9434    1.0701   87.1072 H   0  0  0  0  0  0  0  0  0  0  0  0
   -4.8235   -0.5909   87.0775 H   0  0  0  0  0  0  0  0  0  0  0  0
  7  8  2  0  0  0
  7 16  1  0  0  0
  8  9  1  0  0  0
  8 13  1  0  0  0
  9 10  2  0  0  0
 10 11  1  0  0  0
 11 12  2  0  0  0
 12 13  1  0  0  0
 13 14  2  0  0  0
 14 15  1  0  0  0
 15 16  2  0  0  0
 16  1  1  0  0  0
  1  2  2  0  0  0
  1  6  1  0  0  0
  2  3  1  0  0  0
  3  4  2  0  0  0
  4 17  1  0  0  0
  4  5  1  0  0  0
 17 18  2  0  0  0
 17 19  2  0  0  0
 17 20  1  0  0  0
  5  6  2  0  0  0
 20 21  1  0  0  0
 20 22  1  0  0  0
M  END
> <minimizedAffinity>
-7.33264

$$$$
5SZ3_72H_A_307


 22 24  0  0  0  0  0  0  0  0999 V2000
   -0.2215    3.4361   82.7783 C   0  0  0  0  0  0  0  0  0  0  0  0
    1.0330    3.8910   83.4881 C   0  0  0  0  0  0  0  0  0  0  0  0
    2.0699    4.2854   82.8186 C   0  0  0  0  0  0  0  0  0  0  0  0
    2.0131    4.2899   81.3107 C   0  0  0  0  0  0  0  0  0  0  0  0
    0.9310    3.8878   80.6619 C   0  0  0  0  0  0  0  0  0  0  0  0
   -0.2893    3.4150   81.4611 C   0  0  0  0  0  0  0  0  0  0  0  0
   -1.1246    1.8068   84.4167 C   0  0  0  0  0  0  0  0  0  0  0  0
   -1.9973    1.4496   85.3871 C   0  0  0  0  0  0  0  0  0  0  0  0
   -1.9010    0.1986   85.9823 C   0  0  0  0  0  0  0  0  0  0  0  0
   -2.7873   -0.1726   86.9722 C   0  0  0  0  0  0  0  0  0  0  0  0
   -3.7692    0.7130   87.3642 C   0  0  0  0  0  0  0  0  0  0  0  0
   -3.8621    1.9635   86.7735 C   0  0  0  0  0  0  0  0  0  0  0  0
   -2.9728    2.3323   85.7793 C   0  0  0  0  0  0  0  0  0  0  0  0
   -3.0658    3.5406   85.2091 N   0  0  0  0  0  0  0  0  0  0  0  0
   -2.2022    3.9116   84.2417 C   0  0  0  0  0  0  0  0  0  0  0  0
   -1.2390    3.0123   83.8126 C   0  0  0  0  0  0  0  0  0  0  0  0
    3.5506    4.8680   80.5557 S   0  0  0  0  0  0  0  0  0  0  0  0
    3.3527    6.1344   79.8418 O   0  0  0  0  0  0  0  0  0  0  0  0
    3.9362    3.9121   79.5121 O   0  0  0  0  0  0  0  0  0  0  0  0
    4.7506    4.9163   81.7650 N   0  0  0  0  0  0  0  0  0  0  0  0
    4.4780    5.5821   82.4880 H   0  0  0  0  0  0  0  0  0  0  0  0
    5.6373    5.2063   81.3527 H   0  0  0  0  0  0  0  0  0  0  0  0
  7  8  2  0  0  0
  7 16  1  0  0  0
  8  9  1  0  0  0
  8 13  1  0  0  0
  9 10  2  0  0  0
 10 11  1  0  0  0
 11 12  2  0  0  0
 12 13  1  0  0  0
 13 14  2  0  0  0
 14 15  1  0  0  0
 15 16  2  0  0  0
 16  1  1  0  0  0
  1  2  2  0  0  0
  1  6  1  0  0  0
  2  3  1  0  0  0
  3  4  2  0  0  0
  4 17  1  0  0  0
  4  5  1  0  0  0
 17 18  2  0  0  0
 17 19  2  0  0  0
 17 20  1  0  0  0
  5  6  2  0  0  0
 20 21  1  0  0  0
 20 22  1  0  0  0
M  END
> <minimizedAffinity>
-7.24314

$$$$
