1QL7_ZEN_A_999
  RCSB PDB12061703473D
Coordinates from PDB:1QL7:A:999 Model:1 without hydrogens
 34 38  0  0  0  0            999 V2000
   18.5230    7.5480   11.0100   N 0  0  0  0  0  0  0  0  0  0  0  0
   19.1260    6.3320   11.0810   C 0  0  0  0  0  0  0  0  0  0  0  0
   20.3680    6.1970   11.7260   C 0  0  0  0  0  0  0  0  0  0  0  0
   20.3140    8.5760   12.2170   C 0  0  0  0  0  0  0  0  0  0  0  0
   19.0800    8.6570   11.5570   C 0  0  0  0  0  0  0  0  0  0  0  0
   20.9660    7.3330   12.3030   C 0  0  0  0  0  0  0  0  0  0  0  0
   22.2210    7.2210   12.9640   N 0  0  0  0  0  0  0  0  0  0  0  0
   22.7030    5.9010   13.3960   C 0  0  0  0  0  0  0  0  0  0  0  0
   24.2500    5.8860   13.3330   C 0  0  0  0  0  0  0  0  0  0  0  0
   24.1850    8.4250   13.8120   C 0  0  0  0  0  0  0  0  0  0  0  0
   22.6520    8.2880   13.8790   C 0  0  0  0  0  0  0  0  0  0  0  0
   24.9150    7.0770   14.1230   C 0  0  0  0  0  0  0  0  0  0  0  0
   26.3620    7.2260   13.7020   C 0  0  0  0  0  0  0  0  0  0  0  0
   26.5470    7.1770   12.4830   O 0  0  0  0  0  0  0  0  0  0  0  0
   27.3690    7.4100   14.5240   N 0  0  0  0  0  0  0  0  0  0  0  0
   27.2480    7.4710   15.9930   C 0  0  0  0  0  0  0  0  0  0  0  0
   27.9910    8.7340   16.5080   C 0  0  0  0  0  0  0  0  0  0  0  0
   29.3300    8.8400   14.4790   C 0  0  0  0  0  0  0  0  0  0  0  0
   28.7220    7.5290   13.9770   C 0  0  0  0  0  0  0  0  0  0  0  0
   29.3550    8.7870   15.9380   N 0  0  0  0  0  0  0  0  0  0  0  0
   30.2340   10.0180   16.5540   S 0  0  0  0  0  0  0  0  0  0  0  0
   31.4610   10.1160   15.7850   O 0  0  0  0  0  0  0  0  0  0  0  0
   30.3610    9.7750   17.9680   O 0  0  0  0  0  0  0  0  0  0  0  0
   29.3520   11.5230   16.3460   C 0  0  0  0  0  0  0  0  0  0  0  0
   29.4770   12.2390   15.1630   C 0  0  0  0  0  0  0  0  0  0  0  0
   28.4800   11.9650   17.3500   C 0  0  0  0  0  0  0  0  0  0  0  0
   27.7540   13.1400   17.1810   C 0  0  0  0  0  0  0  0  0  0  0  0
   28.7550   13.4120   14.9810   C 0  0  0  0  0  0  0  0  0  0  0  0
   27.8890   13.8680   16.0000   C 0  0  0  0  0  0  0  0  0  0  0  0
   27.1650   15.0340   15.8170   C 0  0  0  0  0  0  0  0  0  0  0  0
   28.1580   15.3090   13.6220   C 0  0  0  0  0  0  0  0  0  0  0  0
   28.8860   14.1390   13.7990   C 0  0  0  0  0  0  0  0  0  0  0  0
   27.3010   15.7520   14.6320   C 0  0  0  0  0  0  0  0  0  0  0  0
   26.3820   17.1890   14.4050  Cl 0  0  0  0  0  0  0  0  0  0  0  0
  1  2  2  0  0  0  0
  1  5  1  0  0  0  0
  2  3  1  0  0  0  0
  3  6  2  0  0  0  0
  4  5  2  0  0  0  0
  4  6  1  0  0  0  0
  6  7  1  0  0  0  0
  7  8  1  0  0  0  0
  7 11  1  0  0  0  0
  8  9  1  0  0  0  0
  9 12  1  0  0  0  0
 10 11  1  0  0  0  0
 10 12  1  0  0  0  0
 12 13  1  0  0  0  0
 13 14  2  0  0  0  0
 13 15  1  0  0  0  0
 15 16  1  0  0  0  0
 15 19  1  0  0  0  0
 16 17  1  0  0  0  0
 17 20  1  0  0  0  0
 18 19  1  0  0  0  0
 18 20  1  0  0  0  0
 20 21  1  0  0  0  0
 21 22  2  0  0  0  0
 21 23  2  0  0  0  0
 21 24  1  0  0  0  0
 24 25  2  0  0  0  0
 24 26  1  0  0  0  0
 25 28  1  0  0  0  0
 26 27  2  0  0  0  0
 27 29  1  0  0  0  0
 28 29  2  0  0  0  0
 28 32  1  0  0  0  0
 29 30  1  0  0  0  0
 30 33  2  0  0  0  0
 31 32  2  0  0  0  0
 31 33  1  0  0  0  0
 33 34  1  0  0  0  0
A    1
N1
A    2
C2
A    3
C3
A    4
C5
A    5
C6
A    6
C4
A    7
N7
A    8
C8
A    9
C9
A   10
C11
A   11
C12
A   12
C10
A   13
C13
A   14
O23
A   15
N14
A   16
C15
A   17
C16
A   18
C18
A   19
C19
A   20
N17
A   21
S20
A   22
O21
A   23
O22
A   24
C24
A   25
C25
A   26
C33
A   27
C34
A   28
C26
A   29
C27
A   30
C28
A   31
C30
A   32
C31
A   33
C29
A   34
CL32
M  END
>  <InstanceId>
1QL7_ZEN_A_999

>  <ChemCompId>
ZEN

>  <PdbId>
1QL7

>  <ChainId>
A

>  <ResidueNumber>
999

>  <InsertionCode>


>  <Model>
1

>  <AltIds>


>  <MissingHeavyAtoms>
0

>  <ObservedFormula>
C25 N4 O3 S Cl

>  <Name>
[4-(6-CHLORO-NAPHTHALENE-2-SULFONYL)-PIPERAZIN-1-YL]- (3,4,5,6-TETRAHYDRO-2H-[1,4']BIPYRIDINYL-4-YL)- METHANONE

>  <SystematicName>
[4-(6-chloronaphthalen-2-yl)sulfonylpiperazin-1-yl]-(1-pyridin-4-ylpiperidin-4-yl)methanone

>  <Synonyms>


>  <Type>
NON-POLYMER

>  <Formula>
C25 H27 Cl N4 O3 S

>  <MolecularWeight>
499.025

>  <ModifiedDate>
2011-06-04

>  <Parent>


>  <OneLetterCode>


>  <SubcomponentList>


>  <AmbiguousFlag>
N

>  <InChI>
InChI=1S/C25H27ClN4O3S/c26-22-3-1-21-18-24(4-2-20(21)17-22)34(32,33)30-15-13-29(14-16-30)25(31)19-7-11-28(12-8-19)23-5-9-27-10-6-23/h1-6,9-10,17-19H,7-8,11-16H2

>  <InChIKey>
ZLAKCKVFSRSENR-UHFFFAOYSA-N

>  <SMILES>
c1cc(cc2c1cc(cc2)Cl)S(=O)(=O)N3CCN(CC3)C(=O)C4CCN(CC4)c5ccncc5

$$$$
