4B5D_SW4_A_1213


 20 22  0  0  0  0  0  0  0  0999 V2000
   15.9611   25.7500   18.0135 C   0  0  0  0  0  0  0  0  0  0  0  0
   15.3114   24.6241   18.5189 C   0  0  0  0  0  0  0  0  0  0  0  0
   15.0194   24.5826   19.8553 N   0  0  0  0  0  0  0  0  0  0  0  0
   15.3346   25.6095   20.6870 C   0  0  0  0  0  0  0  0  0  0  0  0
   16.0099   26.7580   20.1859 C   0  0  0  0  0  0  0  0  0  0  0  0
   16.3110   26.8122   18.8399 C   0  0  0  0  0  0  0  0  0  0  0  0
   16.4763   26.7183   15.2770 C   0  0  0  0  0  0  0  0  0  0  0  0
   15.4791   25.6124   15.4335 C   0  0  0  0  0  0  0  0  0  0  0  0
   16.3940   25.9737   16.5615 C   0  0  0  0  0  0  0  0  0  0  0  0
   17.7187   26.3435   14.5514 C   0  0  0  0  0  0  0  0  0  0  0  0
   19.9344   26.7353   15.5500 O   0  0  0  0  0  0  0  0  0  0  0  0
   18.8875   27.2752   14.8381 C   0  0  0  0  0  0  0  0  0  0  0  0
   20.6208   27.4089   15.6765 H   0  0  0  0  0  0  0  0  0  0  0  0
   16.4074   27.8773   20.9847 O   0  0  0  0  0  0  0  0  0  0  0  0
   16.0520   27.9446   22.3227 C   0  0  0  0  0  0  0  0  0  0  0  0
   15.4998   29.2852   22.7483 C   0  0  0  0  0  0  0  0  0  0  0  0
   14.1077   29.1167   23.1733 C   0  0  0  0  0  0  0  0  0  0  0  0
   13.6685   29.5521   21.8353 C   0  0  0  0  0  0  0  0  0  0  0  0
   15.0286   29.9976   21.5582 N   0  0  0  0  0  0  0  0  0  0  0  0
   15.4125   29.6448   20.6816 H   0  0  0  0  0  0  0  0  0  0  0  0
 11 12  1  0  0  0
 12 10  1  0  0  0
 10  7  1  0  0  0
  7  8  1  0  0  0
  7  9  1  0  0  0
  8  9  1  0  0  0
  9  1  1  0  0  0
  1  2  1  0  0  0
  1  6  2  0  0  0
  2  3  2  0  0  0
  3  4  1  0  0  0
  4  5  2  0  0  0
  5 14  1  0  0  0
  5  6  1  0  0  0
 14 15  1  0  0  0
 15 16  1  0  0  0
 16 17  1  0  0  0
 16 19  1  0  0  0
 17 18  1  0  0  0
 18 19  1  0  0  0
 11 13  1  0  0  0
 19 20  1  0  0  0
M  END
> <minimizedAffinity>
-7.58513

$$$$
4B5D_SW4_A_1213


 20 22  0  0  0  0  0  0  0  0999 V2000
   15.0076   25.8455   20.7353 C   0  0  0  0  0  0  0  0  0  0  0  0
   14.4138   24.6680   21.1891 C   0  0  0  0  0  0  0  0  0  0  0  0
   14.3862   23.5851   20.3527 N   0  0  0  0  0  0  0  0  0  0  0  0
   14.9306   23.6300   19.1088 C   0  0  0  0  0  0  0  0  0  0  0  0
   15.5273   24.8301   18.6291 C   0  0  0  0  0  0  0  0  0  0  0  0
   15.5610   25.9299   19.4624 C   0  0  0  0  0  0  0  0  0  0  0  0
   14.6860   28.1878   22.4964 C   0  0  0  0  0  0  0  0  0  0  0  0
   14.3639   28.3747   21.0461 C   0  0  0  0  0  0  0  0  0  0  0  0
   15.1146   27.1646   21.5064 C   0  0  0  0  0  0  0  0  0  0  0  0
   15.8659   28.9526   22.9796 C   0  0  0  0  0  0  0  0  0  0  0  0
   18.0230   28.6994   24.1385 O   0  0  0  0  0  0  0  0  0  0  0  0
   16.8084   28.1244   23.8411 C   0  0  0  0  0  0  0  0  0  0  0  0
   18.5424   28.0918   24.6880 H   0  0  0  0  0  0  0  0  0  0  0  0
   16.1026   24.9851   17.3276 O   0  0  0  0  0  0  0  0  0  0  0  0
   15.6988   26.0226   16.5021 C   0  0  0  0  0  0  0  0  0  0  0  0
   16.8219   26.9295   16.0555 C   0  0  0  0  0  0  0  0  0  0  0  0
   16.5695   27.3622   14.6786 C   0  0  0  0  0  0  0  0  0  0  0  0
   17.4687   26.2964   14.2010 C   0  0  0  0  0  0  0  0  0  0  0  0
   17.9288   26.1014   15.5705 N   0  0  0  0  0  0  0  0  0  0  0  0
   17.8950   25.1326   15.8878 H   0  0  0  0  0  0  0  0  0  0  0  0
 11 12  1  0  0  0
 12 10  1  0  0  0
 10  7  1  0  0  0
  7  8  1  0  0  0
  7  9  1  0  0  0
  8  9  1  0  0  0
  9  1  1  0  0  0
  1  2  1  0  0  0
  1  6  2  0  0  0
  2  3  2  0  0  0
  3  4  1  0  0  0
  4  5  2  0  0  0
  5 14  1  0  0  0
  5  6  1  0  0  0
 14 15  1  0  0  0
 15 16  1  0  0  0
 16 17  1  0  0  0
 16 19  1  0  0  0
 17 18  1  0  0  0
 18 19  1  0  0  0
 11 13  1  0  0  0
 19 20  1  0  0  0
M  END
> <minimizedAffinity>
-7.26004

$$$$
4B5D_SW4_A_1213


 20 22  0  0  0  0  0  0  0  0999 V2000
   14.6666   25.7007   20.7048 C   0  0  0  0  0  0  0  0  0  0  0  0
   14.1714   24.4784   21.1582 C   0  0  0  0  0  0  0  0  0  0  0  0
   14.3091   23.3787   20.3550 N   0  0  0  0  0  0  0  0  0  0  0  0
   14.9225   23.4509   19.1450 C   0  0  0  0  0  0  0  0  0  0  0  0
   15.4198   24.6954   18.6653 C   0  0  0  0  0  0  0  0  0  0  0  0
   15.2867   25.8124   19.4651 C   0  0  0  0  0  0  0  0  0  0  0  0
   14.6520   28.5229   21.5573 C   0  0  0  0  0  0  0  0  0  0  0  0
   15.8281   27.6918   21.9674 C   0  0  0  0  0  0  0  0  0  0  0  0
   14.5873   27.0420   21.4402 C   0  0  0  0  0  0  0  0  0  0  0  0
   13.7884   28.9819   22.6772 C   0  0  0  0  0  0  0  0  0  0  0  0
   12.4516   30.0953   20.9355 O   0  0  0  0  0  0  0  0  0  0  0  0
   12.7941   30.0591   22.2680 C   0  0  0  0  0  0  0  0  0  0  0  0
   11.8173   30.8134   20.7841 H   0  0  0  0  0  0  0  0  0  0  0  0
   16.0560   24.8790   17.3963 O   0  0  0  0  0  0  0  0  0  0  0  0
   15.6432   25.8924   16.5456 C   0  0  0  0  0  0  0  0  0  0  0  0
   16.7478   26.8336   16.1245 C   0  0  0  0  0  0  0  0  0  0  0  0
   16.4731   27.3188   14.7696 C   0  0  0  0  0  0  0  0  0  0  0  0
   17.3820   26.2872   14.2383 C   0  0  0  0  0  0  0  0  0  0  0  0
   17.8608   26.0428   15.5933 N   0  0  0  0  0  0  0  0  0  0  0  0
   17.8448   25.0614   15.8707 H   0  0  0  0  0  0  0  0  0  0  0  0
 11 12  1  0  0  0
 12 10  1  0  0  0
 10  7  1  0  0  0
  7  8  1  0  0  0
  7  9  1  0  0  0
  8  9  1  0  0  0
  9  1  1  0  0  0
  1  2  1  0  0  0
  1  6  2  0  0  0
  2  3  2  0  0  0
  3  4  1  0  0  0
  4  5  2  0  0  0
  5 14  1  0  0  0
  5  6  1  0  0  0
 14 15  1  0  0  0
 15 16  1  0  0  0
 16 17  1  0  0  0
 16 19  1  0  0  0
 17 18  1  0  0  0
 18 19  1  0  0  0
 11 13  1  0  0  0
 19 20  1  0  0  0
M  END
> <minimizedAffinity>
-7.13378

$$$$
4B5D_SW4_A_1213


 20 22  0  0  0  0  0  0  0  0999 V2000
   15.2671   28.1637   21.6354 C   0  0  0  0  0  0  0  0  0  0  0  0
   14.7249   29.4260   21.3950 C   0  0  0  0  0  0  0  0  0  0  0  0
   15.2086   30.4914   22.1050 N   0  0  0  0  0  0  0  0  0  0  0  0
   16.2032   30.3475   23.0192 C   0  0  0  0  0  0  0  0  0  0  0  0
   16.7552   29.0623   23.2834 C   0  0  0  0  0  0  0  0  0  0  0  0
   16.2758   27.9792   22.5747 C   0  0  0  0  0  0  0  0  0  0  0  0
   15.0622   25.6044   20.1866 C   0  0  0  0  0  0  0  0  0  0  0  0
   14.5071   26.8188   19.5091 C   0  0  0  0  0  0  0  0  0  0  0  0
   14.8461   26.8518   20.9665 C   0  0  0  0  0  0  0  0  0  0  0  0
   14.0512   24.5840   20.5704 C   0  0  0  0  0  0  0  0  0  0  0  0
   13.9234   22.1520   20.9298 O   0  0  0  0  0  0  0  0  0  0  0  0
   14.4366   23.1703   20.1591 C   0  0  0  0  0  0  0  0  0  0  0  0
   14.2288   21.2990   20.5834 H   0  0  0  0  0  0  0  0  0  0  0  0
   17.7846   28.8043   24.2439 O   0  0  0  0  0  0  0  0  0  0  0  0
   17.8927   27.5561   24.8368 C   0  0  0  0  0  0  0  0  0  0  0  0
   19.2608   27.2589   25.4055 C   0  0  0  0  0  0  0  0  0  0  0  0
   19.2700   25.8962   25.9439 C   0  0  0  0  0  0  0  0  0  0  0  0
   19.0189   26.4478   27.2875 C   0  0  0  0  0  0  0  0  0  0  0  0
   19.3228   27.7779   26.7740 N   0  0  0  0  0  0  0  0  0  0  0  0
   18.6132   28.4791   26.9867 H   0  0  0  0  0  0  0  0  0  0  0  0
 11 12  1  0  0  0
 12 10  1  0  0  0
 10  7  1  0  0  0
  7  8  1  0  0  0
  7  9  1  0  0  0
  8  9  1  0  0  0
  9  1  1  0  0  0
  1  2  1  0  0  0
  1  6  2  0  0  0
  2  3  2  0  0  0
  3  4  1  0  0  0
  4  5  2  0  0  0
  5 14  1  0  0  0
  5  6  1  0  0  0
 14 15  1  0  0  0
 15 16  1  0  0  0
 16 17  1  0  0  0
 16 19  1  0  0  0
 17 18  1  0  0  0
 18 19  1  0  0  0
 11 13  1  0  0  0
 19 20  1  0  0  0
M  END
> <minimizedAffinity>
-6.95131

$$$$
4B5D_SW4_A_1213


 20 22  0  0  0  0  0  0  0  0999 V2000
   14.8250   28.3811   21.8034 C   0  0  0  0  0  0  0  0  0  0  0  0
   13.8999   29.4233   21.7470 C   0  0  0  0  0  0  0  0  0  0  0  0
   14.2104   30.6070   22.3598 N   0  0  0  0  0  0  0  0  0  0  0  0
   15.3930   30.7889   23.0032 C   0  0  0  0  0  0  0  0  0  0  0  0
   16.3395   29.7285   23.0794 C   0  0  0  0  0  0  0  0  0  0  0  0
   16.0384   28.5291   22.4663 C   0  0  0  0  0  0  0  0  0  0  0  0
   15.1225   25.6782   20.6645 C   0  0  0  0  0  0  0  0  0  0  0  0
   14.7245   26.7746   19.7257 C   0  0  0  0  0  0  0  0  0  0  0  0
   14.6536   26.9811   21.2063 C   0  0  0  0  0  0  0  0  0  0  0  0
   14.0865   24.6345   20.8839 C   0  0  0  0  0  0  0  0  0  0  0  0
   13.9933   22.1746   20.8815 O   0  0  0  0  0  0  0  0  0  0  0  0
   14.4222   23.3049   20.2238 C   0  0  0  0  0  0  0  0  0  0  0  0
   14.2576   21.3882   20.3790 H   0  0  0  0  0  0  0  0  0  0  0  0
   17.5985   29.8129   23.7552 O   0  0  0  0  0  0  0  0  0  0  0  0
   18.4016   30.9322   23.6032 C   0  0  0  0  0  0  0  0  0  0  0  0
   18.5664   31.7499   24.8632 C   0  0  0  0  0  0  0  0  0  0  0  0
   17.7926   32.9876   24.7356 C   0  0  0  0  0  0  0  0  0  0  0  0
   19.0217   33.6890   24.3234 C   0  0  0  0  0  0  0  0  0  0  0  0
   19.7992   32.5340   24.7557 N   0  0  0  0  0  0  0  0  0  0  0  0
   20.4546   32.1867   24.0555 H   0  0  0  0  0  0  0  0  0  0  0  0
 11 12  1  0  0  0
 12 10  1  0  0  0
 10  7  1  0  0  0
  7  8  1  0  0  0
  7  9  1  0  0  0
  8  9  1  0  0  0
  9  1  1  0  0  0
  1  2  1  0  0  0
  1  6  2  0  0  0
  2  3  2  0  0  0
  3  4  1  0  0  0
  4  5  2  0  0  0
  5 14  1  0  0  0
  5  6  1  0  0  0
 14 15  1  0  0  0
 15 16  1  0  0  0
 16 17  1  0  0  0
 16 19  1  0  0  0
 17 18  1  0  0  0
 18 19  1  0  0  0
 11 13  1  0  0  0
 19 20  1  0  0  0
M  END
> <minimizedAffinity>
-6.28366

$$$$
4B5D_SW4_A_1213


 20 22  0  0  0  0  0  0  0  0999 V2000
   15.3463   28.0650   21.9168 C   0  0  0  0  0  0  0  0  0  0  0  0
   16.5354   28.1606   22.6392 C   0  0  0  0  0  0  0  0  0  0  0  0
   16.8381   29.3494   23.2460 N   0  0  0  0  0  0  0  0  0  0  0  0
   16.0070   30.4214   23.1701 C   0  0  0  0  0  0  0  0  0  0  0  0
   14.7972   30.3406   22.4244 C   0  0  0  0  0  0  0  0  0  0  0  0
   14.4804   29.1476   21.8069 C   0  0  0  0  0  0  0  0  0  0  0  0
   14.9907   25.6145   20.3168 C   0  0  0  0  0  0  0  0  0  0  0  0
   14.6047   26.9110   19.6749 C   0  0  0  0  0  0  0  0  0  0  0  0
   14.8453   26.8373   21.1502 C   0  0  0  0  0  0  0  0  0  0  0  0
   13.8608   24.6842   20.5785 C   0  0  0  0  0  0  0  0  0  0  0  0
   14.3952   22.5502   21.6833 O   0  0  0  0  0  0  0  0  0  0  0  0
   14.2555   23.2172   20.4875 C   0  0  0  0  0  0  0  0  0  0  0  0
   14.6467   21.6291   21.5124 H   0  0  0  0  0  0  0  0  0  0  0  0
   13.8710   31.4200   22.2632 O   0  0  0  0  0  0  0  0  0  0  0  0
   12.5242   31.2336   22.5322 C   0  0  0  0  0  0  0  0  0  0  0  0
   11.6178   32.2542   21.8840 C   0  0  0  0  0  0  0  0  0  0  0  0
   10.7928   32.8865   22.9166 C   0  0  0  0  0  0  0  0  0  0  0  0
    9.6995   31.9556   22.5836 C   0  0  0  0  0  0  0  0  0  0  0  0
   10.4251   31.5692   21.3797 N   0  0  0  0  0  0  0  0  0  0  0  0
   10.5391   30.5619   21.2668 H   0  0  0  0  0  0  0  0  0  0  0  0
 11 12  1  0  0  0
 12 10  1  0  0  0
 10  7  1  0  0  0
  7  8  1  0  0  0
  7  9  1  0  0  0
  8  9  1  0  0  0
  9  1  1  0  0  0
  1  2  1  0  0  0
  1  6  2  0  0  0
  2  3  2  0  0  0
  3  4  1  0  0  0
  4  5  2  0  0  0
  5 14  1  0  0  0
  5  6  1  0  0  0
 14 15  1  0  0  0
 15 16  1  0  0  0
 16 17  1  0  0  0
 16 19  1  0  0  0
 17 18  1  0  0  0
 18 19  1  0  0  0
 11 13  1  0  0  0
 19 20  1  0  0  0
M  END
> <minimizedAffinity>
-6.21279

$$$$
4B5D_SW4_A_1213


 20 22  0  0  0  0  0  0  0  0999 V2000
   15.3289   27.3200   21.5631 C   0  0  0  0  0  0  0  0  0  0  0  0
   16.3977   27.6482   22.3967 C   0  0  0  0  0  0  0  0  0  0  0  0
   16.2598   28.7100   23.2492 N   0  0  0  0  0  0  0  0  0  0  0  0
   15.1117   29.4339   23.3078 C   0  0  0  0  0  0  0  0  0  0  0  0
   14.0188   29.1172   22.4524 C   0  0  0  0  0  0  0  0  0  0  0  0
   14.1451   28.0492   21.5873 C   0  0  0  0  0  0  0  0  0  0  0  0
   14.6810   25.3450   19.4723 C   0  0  0  0  0  0  0  0  0  0  0  0
   14.7315   24.8519   20.8852 C   0  0  0  0  0  0  0  0  0  0  0  0
   15.2972   26.1908   20.5287 C   0  0  0  0  0  0  0  0  0  0  0  0
   15.7368   24.7979   18.5797 C   0  0  0  0  0  0  0  0  0  0  0  0
   16.9161   25.3086   16.4802 O   0  0  0  0  0  0  0  0  0  0  0  0
   15.7501   25.4393   17.1996 C   0  0  0  0  0  0  0  0  0  0  0  0
   16.8178   25.7502   15.6221 H   0  0  0  0  0  0  0  0  0  0  0  0
   12.7805   29.8345   22.4203 O   0  0  0  0  0  0  0  0  0  0  0  0
   12.7323   31.1664   22.8010 C   0  0  0  0  0  0  0  0  0  0  0  0
   11.7527   32.0002   22.0082 C   0  0  0  0  0  0  0  0  0  0  0  0
   10.8004   32.6255   22.9296 C   0  0  0  0  0  0  0  0  0  0  0  0
    9.8445   31.5400   22.6452 C   0  0  0  0  0  0  0  0  0  0  0  0
   10.6797   31.1287   21.5233 N   0  0  0  0  0  0  0  0  0  0  0  0
   10.9168   30.1366   21.5217 H   0  0  0  0  0  0  0  0  0  0  0  0
 11 12  1  0  0  0
 12 10  1  0  0  0
 10  7  1  0  0  0
  7  8  1  0  0  0
  7  9  1  0  0  0
  8  9  1  0  0  0
  9  1  1  0  0  0
  1  2  1  0  0  0
  1  6  2  0  0  0
  2  3  2  0  0  0
  3  4  1  0  0  0
  4  5  2  0  0  0
  5 14  1  0  0  0
  5  6  1  0  0  0
 14 15  1  0  0  0
 15 16  1  0  0  0
 16 17  1  0  0  0
 16 19  1  0  0  0
 17 18  1  0  0  0
 18 19  1  0  0  0
 11 13  1  0  0  0
 19 20  1  0  0  0
M  END
> <minimizedAffinity>
-5.78207

$$$$
4B5D_SW4_A_1213


 20 22  0  0  0  0  0  0  0  0999 V2000
   14.5097   27.5325   21.7569 C   0  0  0  0  0  0  0  0  0  0  0  0
   13.5765   27.5054   22.7929 C   0  0  0  0  0  0  0  0  0  0  0  0
   13.4842   28.5932   23.6183 N   0  0  0  0  0  0  0  0  0  0  0  0
   14.2654   29.6907   23.4427 C   0  0  0  0  0  0  0  0  0  0  0  0
   15.2310   29.7249   22.3975 C   0  0  0  0  0  0  0  0  0  0  0  0
   15.3350   28.6339   21.5583 C   0  0  0  0  0  0  0  0  0  0  0  0
   14.4718   25.5376   19.5866 C   0  0  0  0  0  0  0  0  0  0  0  0
   14.2323   25.0378   20.9776 C   0  0  0  0  0  0  0  0  0  0  0  0
   14.7811   26.4113   20.7493 C   0  0  0  0  0  0  0  0  0  0  0  0
   15.7330   25.0624   18.9587 C   0  0  0  0  0  0  0  0  0  0  0  0
   15.5002   24.8917   16.5140 O   0  0  0  0  0  0  0  0  0  0  0  0
   15.9688   25.6393   17.5703 C   0  0  0  0  0  0  0  0  0  0  0  0
   15.7013   25.3468   15.6814 H   0  0  0  0  0  0  0  0  0  0  0  0
   16.1168   30.8213   22.1480 O   0  0  0  0  0  0  0  0  0  0  0  0
   16.3840   31.7469   23.1445 C   0  0  0  0  0  0  0  0  0  0  0  0
   17.7408   32.4022   23.0310 C   0  0  0  0  0  0  0  0  0  0  0  0
   18.7045   31.6513   23.8398 C   0  0  0  0  0  0  0  0  0  0  0  0
   18.5151   32.6241   24.9310 C   0  0  0  0  0  0  0  0  0  0  0  0
   17.8143   33.4992   23.9992 N   0  0  0  0  0  0  0  0  0  0  0  0
   16.9063   33.8223   24.3331 H   0  0  0  0  0  0  0  0  0  0  0  0
 11 12  1  0  0  0
 12 10  1  0  0  0
 10  7  1  0  0  0
  7  8  1  0  0  0
  7  9  1  0  0  0
  8  9  1  0  0  0
  9  1  1  0  0  0
  1  2  1  0  0  0
  1  6  2  0  0  0
  2  3  2  0  0  0
  3  4  1  0  0  0
  4  5  2  0  0  0
  5 14  1  0  0  0
  5  6  1  0  0  0
 14 15  1  0  0  0
 15 16  1  0  0  0
 16 17  1  0  0  0
 16 19  1  0  0  0
 17 18  1  0  0  0
 18 19  1  0  0  0
 11 13  1  0  0  0
 19 20  1  0  0  0
M  END
> <minimizedAffinity>
-5.70330

$$$$
4B5D_SW4_A_1213


 20 22  0  0  0  0  0  0  0  0999 V2000
   15.1658   29.5275   22.9033 C   0  0  0  0  0  0  0  0  0  0  0  0
   13.9395   29.4582   23.5639 C   0  0  0  0  0  0  0  0  0  0  0  0
   13.1413   28.3676   23.3482 N   0  0  0  0  0  0  0  0  0  0  0  0
   13.5209   27.3572   22.5231 C   0  0  0  0  0  0  0  0  0  0  0  0
   14.7640   27.4228   21.8326 C   0  0  0  0  0  0  0  0  0  0  0  0
   15.5781   28.5178   22.0407 C   0  0  0  0  0  0  0  0  0  0  0  0
   16.7080   31.9740   23.4755 C   0  0  0  0  0  0  0  0  0  0  0  0
   16.0223   31.8943   22.1468 C   0  0  0  0  0  0  0  0  0  0  0  0
   16.1822   30.6698   22.9922 C   0  0  0  0  0  0  0  0  0  0  0  0
   18.1936   31.9767   23.4146 C   0  0  0  0  0  0  0  0  0  0  0  0
   19.5722   30.0508   22.7433 O   0  0  0  0  0  0  0  0  0  0  0  0
   18.8116   30.6238   23.7371 C   0  0  0  0  0  0  0  0  0  0  0  0
   19.9161   29.1976   23.0507 H   0  0  0  0  0  0  0  0  0  0  0  0
   15.2399   26.4244   20.9240 O   0  0  0  0  0  0  0  0  0  0  0  0
   15.0239   26.5570   19.5614 C   0  0  0  0  0  0  0  0  0  0  0  0
   16.2492   26.3033   18.7142 C   0  0  0  0  0  0  0  0  0  0  0  0
   15.9481   26.6461   17.3218 C   0  0  0  0  0  0  0  0  0  0  0  0
   15.6765   25.2226   17.0521 C   0  0  0  0  0  0  0  0  0  0  0  0
   16.2748   24.8876   18.3385 N   0  0  0  0  0  0  0  0  0  0  0  0
   15.6934   24.2897   18.9258 H   0  0  0  0  0  0  0  0  0  0  0  0
 11 12  1  0  0  0
 12 10  1  0  0  0
 10  7  1  0  0  0
  7  8  1  0  0  0
  7  9  1  0  0  0
  8  9  1  0  0  0
  9  1  1  0  0  0
  1  2  1  0  0  0
  1  6  2  0  0  0
  2  3  2  0  0  0
  3  4  1  0  0  0
  4  5  2  0  0  0
  5 14  1  0  0  0
  5  6  1  0  0  0
 14 15  1  0  0  0
 15 16  1  0  0  0
 16 17  1  0  0  0
 16 19  1  0  0  0
 17 18  1  0  0  0
 18 19  1  0  0  0
 11 13  1  0  0  0
 19 20  1  0  0  0
M  END
> <minimizedAffinity>
-5.56721

$$$$
4B5D_SW4_A_1213


 20 22  0  0  0  0  0  0  0  0999 V2000
   15.1091   28.0712   21.1425 C   0  0  0  0  0  0  0  0  0  0  0  0
   13.9228   28.7301   21.4646 C   0  0  0  0  0  0  0  0  0  0  0  0
   13.8537   29.4098   22.6505 N   0  0  0  0  0  0  0  0  0  0  0  0
   14.9093   29.4654   23.5039 C   0  0  0  0  0  0  0  0  0  0  0  0
   16.1206   28.7857   23.1928 C   0  0  0  0  0  0  0  0  0  0  0  0
   16.2033   28.0957   22.0002 C   0  0  0  0  0  0  0  0  0  0  0  0
   15.2209   26.0661   18.9841 C   0  0  0  0  0  0  0  0  0  0  0  0
   16.4080   26.1589   19.8920 C   0  0  0  0  0  0  0  0  0  0  0  0
   15.3738   27.2406   19.8832 C   0  0  0  0  0  0  0  0  0  0  0  0
   15.4766   26.4680   17.5757 C   0  0  0  0  0  0  0  0  0  0  0  0
   15.3363   25.5290   15.3044 O   0  0  0  0  0  0  0  0  0  0  0  0
   15.6205   25.2852   16.6288 C   0  0  0  0  0  0  0  0  0  0  0  0
   15.4588   24.7145   14.7922 H   0  0  0  0  0  0  0  0  0  0  0  0
   17.2766   28.7624   24.0367 O   0  0  0  0  0  0  0  0  0  0  0  0
   17.5536   27.6493   24.8148 C   0  0  0  0  0  0  0  0  0  0  0  0
   19.0254   27.4303   25.0776 C   0  0  0  0  0  0  0  0  0  0  0  0
   19.2434   26.0280   25.4422 C   0  0  0  0  0  0  0  0  0  0  0  0
   19.2216   26.4159   26.8640 C   0  0  0  0  0  0  0  0  0  0  0  0
   19.3170   27.8137   26.4612 N   0  0  0  0  0  0  0  0  0  0  0  0
   18.6125   28.4185   26.8836 H   0  0  0  0  0  0  0  0  0  0  0  0
 11 12  1  0  0  0
 12 10  1  0  0  0
 10  7  1  0  0  0
  7  8  1  0  0  0
  7  9  1  0  0  0
  8  9  1  0  0  0
  9  1  1  0  0  0
  1  2  1  0  0  0
  1  6  2  0  0  0
  2  3  2  0  0  0
  3  4  1  0  0  0
  4  5  2  0  0  0
  5 14  1  0  0  0
  5  6  1  0  0  0
 14 15  1  0  0  0
 15 16  1  0  0  0
 16 17  1  0  0  0
 16 19  1  0  0  0
 17 18  1  0  0  0
 18 19  1  0  0  0
 11 13  1  0  0  0
 19 20  1  0  0  0
M  END
> <minimizedAffinity>
-5.37007

$$$$
