4B5D_SW4_A_1213
  RCSB PDB12061711473D
Coordinates from PDB:4B5D:A:1213 Model:1 without hydrogens
 18 20  0  0  0  0            999 V2000
   13.5190   31.6260   22.3520   O 0  0  0  0  0  0  0  0  0  0  0  0
   14.1200   30.8490   23.3160   C 0  0  0  0  0  0  0  0  0  0  0  0
   14.2270   29.3620   23.0100   C 0  0  0  0  0  0  0  0  0  0  0  0
   15.3310   29.0330   22.0700   C 0  0  0  0  0  0  0  0  0  0  0  0
   16.2200   27.9110   22.5090   C 0  0  0  0  0  0  0  0  0  0  0  0
   15.1320   27.6700   21.5100   C 0  0  0  0  0  0  0  0  0  0  0  0
   15.2740   26.5640   20.4600   C 0  0  0  0  0  0  0  0  0  0  0  0
   14.8990   25.2290   20.6090   C 0  0  0  0  0  0  0  0  0  0  0  0
   15.0770   24.3780   19.5520   N 0  0  0  0  0  0  0  0  0  0  0  0
   15.6170   24.8000   18.3790   C 0  0  0  0  0  0  0  0  0  0  0  0
   15.9910   26.1630   18.2100   C 0  0  0  0  0  0  0  0  0  0  0  0
   16.5420   26.7090   17.0070   O 0  0  0  0  0  0  0  0  0  0  0  0
   17.4530   27.7520   17.0640   C 0  0  0  0  0  0  0  0  0  0  0  0
   18.1540   28.0320   15.7550   C 0  0  0  0  0  0  0  0  0  0  0  0
   17.3860   27.4300   14.6620   C 0  0  0  0  0  0  0  0  0  0  0  0
   18.2870   26.2640   14.6990   C 0  0  0  0  0  0  0  0  0  0  0  0
   19.1940   27.0200   15.5540   N 0  0  0  0  0  0  0  0  0  0  0  0
   15.8160   27.0320   19.2680   C 0  0  0  0  0  0  0  0  0  0  0  0
  1  2  1  0  0  0  0
  2  3  1  0  0  0  0
  3  4  1  0  0  0  0
  4  5  1  0  0  0  0
  4  6  1  0  0  0  0
  5  6  1  0  0  0  0
  6  7  1  0  0  0  0
  7  8  1  0  0  0  0
  7 18  2  0  0  0  0
  8  9  2  0  0  0  0
  9 10  1  0  0  0  0
 10 11  2  0  0  0  0
 11 12  1  0  0  0  0
 11 18  1  0  0  0  0
 12 13  1  0  0  0  0
 13 14  1  0  0  0  0
 14 15  1  0  0  0  0
 14 17  1  0  0  0  0
 15 16  1  0  0  0  0
 16 17  1  0  0  0  0
A    1
O01
A    2
C02
A    3
C03
A    4
C04
A    5
C05
A    6
C06
A    7
C07
A    8
C08
A    9
N09
A   10
C10
A   11
C11
A   12
O12
A   13
C13
A   14
C14
A   15
C15
A   16
C16
A   17
N17
A   18
C18
M  END
>  <InstanceId>
4B5D_SW4_A_1213

>  <ChemCompId>
SW4

>  <PdbId>
4B5D

>  <ChainId>
A

>  <ResidueNumber>
1213

>  <InsertionCode>


>  <Model>
1

>  <AltIds>


>  <MissingHeavyAtoms>
0

>  <ObservedFormula>
C14 N2 O2

>  <Name>
2-[(1R,2S)-2-[5-[[(2S)-azetidin-2-yl]methoxy]pyridin-3-yl]cyclopropyl]ethanol

>  <SystematicName>
2-[(1R,2S)-2-[5-[[(2S)-azetidin-2-yl]methoxy]pyridin-3-yl]cyclopropyl]ethanol

>  <Synonyms>


>  <Type>
non-polymer

>  <Formula>
C14 H20 N2 O2

>  <MolecularWeight>
248.321

>  <ModifiedDate>
2014-09-05

>  <Parent>


>  <OneLetterCode>


>  <SubcomponentList>


>  <AmbiguousFlag>
N

>  <InChI>
InChI=1S/C14H20N2O2/c17-4-2-10-6-14(10)11-5-13(8-15-7-11)18-9-12-1-3-16-12/h5,7-8,10,12,14,16-17H,1-4,6,9H2/t10-,12-,14-/m0/s1

>  <InChIKey>
FQIJPHXWIONJLF-JKOKRWQUSA-N

>  <SMILES>
c1c(cncc1OC[C@@H]2CCN2)[C@H]3C[C@@H]3CCO

$$$$
