3GBA_DYH_A_258


 27 28  0  0  0  0  0  0  0  0999 V2000
  -14.8820   55.3880   50.8426 C   0  0  0  0  0  0  0  0  0  0  0  0
  -15.5904   54.0618   50.6109 C   0  0  0  0  0  0  0  0  0  0  0  0
  -15.8917   53.8662   49.2256 O   0  0  0  0  0  0  0  0  0  0  0  0
  -16.8854   54.0143   51.4027 C   0  0  0  0  0  0  0  0  0  0  0  0
  -17.7581   55.0340   50.9652 O   0  0  0  0  0  0  0  0  0  0  0  0
  -17.2479   56.3441   51.2906 C   0  0  0  0  0  0  0  0  0  0  0  0
  -18.0576   57.3516   50.5069 C   0  0  0  0  0  0  0  0  0  0  0  0
  -15.8542   56.5692   50.7246 C   0  0  0  0  0  0  0  0  0  0  0  0
  -16.0570   56.8186   49.3148 O   0  0  0  0  0  0  0  0  0  0  0  0
  -17.3647   57.3604   49.1312 C   0  0  0  0  0  0  0  0  0  0  0  0
  -16.4899   54.5671   48.9227 H   0  0  0  0  0  0  0  0  0  0  0  0
  -18.1664   56.4977   48.1573 C   0  0  0  0  0  0  0  0  0  0  0  0
  -17.8311   55.3007   48.0072 O   0  0  0  0  0  0  0  0  0  0  0  0
  -19.1061   57.0575   47.5833 O   0  0  0  0  0  0  0  0  0  0  0  0
  -17.1023   54.9550   48.4838 H   0  0  0  0  0  0  0  0  0  0  0  0
  -12.7442   56.4408   50.3463 C   0  0  0  0  0  0  0  0  0  0  0  0
  -13.7735   55.5179   49.8608 N   0  0  0  0  0  0  0  0  0  0  0  0
  -13.3538   54.6008   49.7091 H   0  0  0  0  0  0  0  0  0  0  0  0
  -17.2657   58.8096   48.6512 C   0  0  0  0  0  0  0  0  0  0  0  0
  -16.3682   59.0345   47.4177 C   0  0  0  0  0  0  0  0  0  0  0  0
  -14.9389   58.7977   47.6790 N   0  0  0  0  0  0  0  0  0  0  0  0
  -14.6092   59.4544   48.3864 H   0  0  0  0  0  0  0  0  0  0  0  0
  -14.4091   58.9313   46.8177 H   0  0  0  0  0  0  0  0  0  0  0  0
  -16.5896   60.4537   46.9231 C   0  0  0  0  0  0  0  0  0  0  0  0
  -17.7814   60.8292   46.8465 O   0  0  0  0  0  0  0  0  0  0  0  0
  -15.5853   61.1534   46.6528 O   0  0  0  0  0  0  0  0  0  0  0  0
  -14.7253   60.7913   46.7382 H   0  0  0  0  0  0  0  0  0  0  0  0
 16 17  1  0  0  0
 17  1  1  0  0  0
  1  2  1  0  0  0
  1  8  1  0  0  0
  2  3  1  0  0  0
  2  4  1  0  0  0
  4  5  1  0  0  0
  5  6  1  0  0  0
  6  7  1  0  0  0
  6  8  1  0  0  0
  7 10  1  0  0  0
  8  9  1  0  0  0
  9 10  1  0  0  0
 10 12  1  0  0  0
 10 19  1  0  0  0
 12 13  1  0  0  0
 12 14  2  0  0  0
 19 20  1  0  0  0
 20 24  1  0  0  0
 20 21  1  0  0  0
 24 25  2  0  0  0
 24 26  1  0  0  0
 17 18  1  0  0  0
  3 11  1  0  0  0
 13 15  1  0  0  0
 26 27  1  0  0  0
 21 22  1  0  0  0
 21 23  1  0  0  0
M  END
> <minimizedAffinity>
-10.99882

$$$$
