3GBA_DYH_A_258
  RCSB PDB12061708433D
Coordinates from PDB:3GBA:A:258 Model:1 without hydrogens
 21 22  0  0  0  0            999 V2000
  -12.9450   56.4700   50.2300   C 0  0  0  0  0  0  0  0  0  0  0  0
  -13.8240   55.3500   49.8840   N 0  0  0  0  0  0  0  0  0  0  0  0
  -14.9600   55.2470   50.8370   C 0  0  0  0  0  0  0  0  0  0  0  0
  -15.7400   53.9760   50.5360   C 0  0  0  0  0  0  0  0  0  0  0  0
  -16.0210   53.8550   49.1380   O 0  0  0  0  0  0  0  0  0  0  0  0
  -17.0530   53.9740   51.2990   C 0  0  0  0  0  0  0  0  0  0  0  0
  -17.8540   55.0610   50.8870   O 0  0  0  0  0  0  0  0  0  0  0  0
  -17.2750   56.3240   51.2770   C 0  0  0  0  0  0  0  0  0  0  0  0
  -18.0060   57.4090   50.5200   C 0  0  0  0  0  0  0  0  0  0  0  0
  -15.8580   56.4880   50.7490   C 0  0  0  0  0  0  0  0  0  0  0  0
  -16.0140   56.8060   49.3470   O 0  0  0  0  0  0  0  0  0  0  0  0
  -17.2830   57.4320   49.1600   C 0  0  0  0  0  0  0  0  0  0  0  0
  -18.1120   56.6590   48.1350   C 0  0  0  0  0  0  0  0  0  0  0  0
  -17.7430   55.5050   47.8190   O 0  0  0  0  0  0  0  0  0  0  0  0
  -19.1060   57.2420   47.6900   O 0  0  0  0  0  0  0  0  0  0  0  0
  -17.0880   58.8910   48.7430   C 0  0  0  0  0  0  0  0  0  0  0  0
  -16.4560   59.0990   47.3520   C 0  0  0  0  0  0  0  0  0  0  0  0
  -16.7420   60.5240   46.9100   C 0  0  0  0  0  0  0  0  0  0  0  0
  -17.9360   60.8930   46.9840   O 0  0  0  0  0  0  0  0  0  0  0  0
  -15.7810   61.2340   46.5310   O 0  0  0  0  0  0  0  0  0  0  0  0
  -15.0090   58.8300   47.3170   N 0  0  0  0  0  0  0  0  0  0  0  0
  1  2  1  0  0  0  0
  2  3  1  0  0  0  0
  3  4  1  0  0  0  0
  3 10  1  0  0  0  0
  4  5  1  0  0  0  0
  4  6  1  0  0  0  0
  6  7  1  0  0  0  0
  7  8  1  0  0  0  0
  8  9  1  0  0  0  0
  8 10  1  0  0  0  0
  9 12  1  0  0  0  0
 10 11  1  0  0  0  0
 11 12  1  0  0  0  0
 12 13  1  0  0  0  0
 12 16  1  0  0  0  0
 13 14  1  0  0  0  0
 13 15  2  0  0  0  0
 16 17  1  0  0  0  0
 17 18  1  0  0  0  0
 17 21  1  0  0  0  0
 18 19  2  0  0  0  0
 18 20  1  0  0  0  0
A    1
CAA
A    2
NH
A    3
CAH
A    4
CAG
A    5
OAC
A    6
CAP
A    7
OAQ
A    8
CAR
A    9
CAS
A   10
CAI
A   11
OAJ
A   12
CAK
A   13
CAE
A   14
OAB
A   15
OAF
A   16
CB
A   17
CA
A   18
C
A   19
OXT
A   20
O
A   21
N
M  END
>  <InstanceId>
3GBA_DYH_A_258

>  <ChemCompId>
DYH

>  <PdbId>
3GBA

>  <ChainId>
A

>  <ResidueNumber>
258

>  <InsertionCode>


>  <Model>
1

>  <AltIds>


>  <MissingHeavyAtoms>
0

>  <ObservedFormula>
C12 N2 O7

>  <Name>
(2R,3aR,6S,7R,7aR)-2-[(2S)-2-amino-2-carboxyethyl]-6-hydroxy-7-(methylamino)hexahydro-2H-furo[3,2-b]pyran-2-carboxylic acid

>  <SystematicName>
(2R,3aR,6S,7R,7aR)-2-[(2S)-2-amino-3-hydroxy-3-oxo-propyl]-6-hydroxy-7-methylamino-3,3a,5,6,7,7a-hexahydrofuro[4,5-b]pyran-2-carboxylic acid

>  <Synonyms>


>  <Type>
NON-POLYMER

>  <Formula>
C12 H20 N2 O7

>  <MolecularWeight>
304.296

>  <ModifiedDate>
2011-06-04

>  <Parent>


>  <OneLetterCode>


>  <SubcomponentList>


>  <AmbiguousFlag>
N

>  <InChI>
InChI=1S/C12H20N2O7/c1-14-8-6(15)4-20-7-3-12(11(18)19,21-9(7)8)2-5(13)10(16)17/h5-9,14-15H,2-4,13H2,1H3,(H,16,17)(H,18,19)/t5-,6+,7+,8+,9-,12+/m0/s1

>  <InChIKey>
YUSZFKPLFIQTGF-FDNSHYBFSA-N

>  <SMILES>
CN[C@@H]1[C@@H](CO[C@H]2[C@@H]1O[C@@](C2)(C[C@@H](C(=O)O)N)C(=O)O)O

$$$$
