3NQ3_DKA_A_3053
  RCSB PDB12061709573D
Coordinates from PDB:3NQ3:A:3053 Model:1 without hydrogens
 12 11  0  0  0  0            999 V2000
    8.0400   -0.6010    0.8160   C 0  0  0  0  0  0  0  0  0  0  0  0
    7.2490   -1.1220   -0.0040   O 0  0  0  0  0  0  0  0  0  0  0  0
    9.5150   -0.6680    0.5160   C 0  0  0  0  0  0  0  0  0  0  0  0
   10.0030   -2.1100    0.5520   C 0  0  0  0  0  0  0  0  0  0  0  0
   11.3370   -2.2170   -0.1660   C 0  0  0  0  0  0  0  0  0  0  0  0
   12.1390   -3.4130    0.3320   C 0  0  0  0  0  0  0  0  0  0  0  0
   13.5250   -3.3600   -0.2960   C 0  0  0  0  0  0  0  0  0  0  0  0
   14.2350   -4.6990   -0.1840   C 0  0  0  0  0  0  0  0  0  0  0  0
   15.2240   -4.8530   -1.3220   C 0  0  0  0  0  0  0  0  0  0  0  0
   16.6060   -5.2280   -0.8400   C 0  0  0  0  0  0  0  0  0  0  0  0
   17.6060   -5.1560   -1.9730   C 0  0  0  0  0  0  0  0  0  0  0  0
    7.6730   -0.0190    1.8620   O 0  0  0  0  0  0  0  0  0  0  0  0
  1  2  2  0  0  0  0
  1  3  1  0  0  0  0
  1 12  1  0  0  0  0
  3  4  1  0  0  0  0
  4  5  1  0  0  0  0
  5  6  1  0  0  0  0
  6  7  1  0  0  0  0
  7  8  1  0  0  0  0
  8  9  1  0  0  0  0
  9 10  1  0  0  0  0
 10 11  1  0  0  0  0
A    1
C1
A    2
O1
A    3
C2
A    4
C3
A    5
C4
A    6
C5
A    7
C6
A    8
C7
A    9
C8
A   10
C9
A   11
C10
A   12
O2
M  END
>  <InstanceId>
3NQ3_DKA_A_3053

>  <ChemCompId>
DKA

>  <PdbId>
3NQ3

>  <ChainId>
A

>  <ResidueNumber>
3053

>  <InsertionCode>


>  <Model>
1

>  <AltIds>


>  <MissingHeavyAtoms>
0

>  <ObservedFormula>
C10 O2

>  <Name>
DECANOIC ACID

>  <SystematicName>
decanoic acid

>  <Synonyms>


>  <Type>
NON-POLYMER

>  <Formula>
C10 H20 O2

>  <MolecularWeight>
172.265

>  <ModifiedDate>
2011-06-04

>  <Parent>


>  <OneLetterCode>


>  <SubcomponentList>


>  <AmbiguousFlag>
N

>  <InChI>
InChI=1S/C10H20O2/c1-2-3-4-5-6-7-8-9-10(11)12/h2-9H2,1H3,(H,11,12)

>  <InChIKey>
GHVNFZFCNZKVNT-UHFFFAOYSA-N

>  <SMILES>
CCCCCCCCCC(=O)O

$$$$
