1LEE_R36_A_500


 44 46  0  0  0  0  0  0  0  0999 V2000
   31.2409   32.9206   13.7677 C   0  0  0  0  0  0  0  0  0  0  0  0
   31.4481   31.9404   14.7774 O   0  0  0  0  0  0  0  0  0  0  0  0
   32.0394   31.2491   14.4405 H   0  0  0  0  0  0  0  0  0  0  0  0
   32.6217   33.3765   13.4513 C   0  0  0  0  0  0  0  0  0  0  0  0
   33.1262   34.6327   14.1077 C   0  0  0  0  0  0  0  0  0  0  0  0
   32.0045   35.4845   14.5193 N   0  0  0  0  0  0  0  0  0  0  0  0
   32.0378   36.8146   14.5579 C   0  0  0  0  0  0  0  0  0  0  0  0
   33.0432   37.4593   14.2322 O   0  0  0  0  0  0  0  0  0  0  0  0
   31.1673   35.0404   14.7860 H   0  0  0  0  0  0  0  0  0  0  0  0
   30.8399   37.4518   15.0179 C   0  0  0  0  0  0  0  0  0  0  0  0
   30.7044   37.8020   16.3712 C   0  0  0  0  0  0  0  0  0  0  0  0
   29.5471   38.4643   16.8601 C   0  0  0  0  0  0  0  0  0  0  0  0
   28.5251   38.7790   16.0110 C   0  0  0  0  0  0  0  0  0  0  0  0
   28.6182   38.4466   14.6504 C   0  0  0  0  0  0  0  0  0  0  0  0
   27.5412   38.8612   13.7428 N   0  0  0  0  0  0  0  0  0  0  0  0
   29.7744   37.7831   14.1540 C   0  0  0  0  0  0  0  0  0  0  0  0
   26.7463   39.3196   14.0992 H   0  0  0  0  0  0  0  0  0  0  0  0
   27.6141   38.6807   12.7777 H   0  0  0  0  0  0  0  0  0  0  0  0
   34.0829   34.2919   15.2586 C   0  0  0  0  0  0  0  0  0  0  0  0
   35.6095   34.1707   15.1145 C   0  0  0  0  0  0  0  0  0  0  0  0
   36.0983   33.3719   16.2810 C   0  0  0  0  0  0  0  0  0  0  0  0
   36.3251   35.4955   15.1294 C   0  0  0  0  0  0  0  0  0  0  0  0
   30.6141   32.2213   12.5407 C   0  0  0  0  0  0  0  0  0  0  0  0
   32.0317   31.0743   10.9536 C   0  0  0  0  0  0  0  0  0  0  0  0
   31.8939   31.9978   10.1287 O   0  0  0  0  0  0  0  0  0  0  0  0
   31.4403   31.1047   12.1397 N   0  0  0  0  0  0  0  0  0  0  0  0
   31.5663   30.3511   12.7606 H   0  0  0  0  0  0  0  0  0  0  0  0
   32.9059   29.8359   10.6340 C   0  0  0  0  0  0  0  0  0  0  0  0
   34.2865   29.9802   10.9128 O   0  0  0  0  0  0  0  0  0  0  0  0
   35.6955   31.8286   10.2574 C   0  0  0  0  0  0  0  0  0  0  0  0
   35.1241   30.5860    9.9610 C   0  0  0  0  0  0  0  0  0  0  0  0
   35.4260   29.9903    8.7140 C   0  0  0  0  0  0  0  0  0  0  0  0
   36.2700   30.6476    7.8143 C   0  0  0  0  0  0  0  0  0  0  0  0
   36.8094   31.8637    8.1236 C   0  0  0  0  0  0  0  0  0  0  0  0
   36.5378   32.4575    9.3348 C   0  0  0  0  0  0  0  0  0  0  0  0
   34.8827   28.6220    8.3594 C   0  0  0  0  0  0  0  0  0  0  0  0
   35.4141   32.5002   11.5848 C   0  0  0  0  0  0  0  0  0  0  0  0
   29.2296   31.7280   12.9127 C   0  0  0  0  0  0  0  0  0  0  0  0
   28.4380   31.1923   11.7697 C   0  0  0  0  0  0  0  0  0  0  0  0
   28.0251   29.8649   11.7529 C   0  0  0  0  0  0  0  0  0  0  0  0
   27.3449   29.3327   10.6344 C   0  0  0  0  0  0  0  0  0  0  0  0
   27.0667   30.1421    9.5271 C   0  0  0  0  0  0  0  0  0  0  0  0
   27.4617   31.4752    9.5319 C   0  0  0  0  0  0  0  0  0  0  0  0
   28.1598   31.9976   10.6749 C   0  0  0  0  0  0  0  0  0  0  0  0
 30 31  2  0  0  0
 30 35  1  0  0  0
 30 37  1  0  0  0
 31 32  1  0  0  0
 31 29  1  0  0  0
 32 33  2  0  0  0
 32 36  1  0  0  0
 33 34  1  0  0  0
 34 35  2  0  0  0
 10 11  2  0  0  0
 10 16  1  0  0  0
 10  7  1  0  0  0
 11 12  1  0  0  0
 12 13  2  0  0  0
 13 14  1  0  0  0
 14 15  1  0  0  0
 14 16  2  0  0  0
 29 28  1  0  0  0
 28 24  1  0  0  0
 24 25  2  0  0  0
 24 26  1  0  0  0
 26 23  1  0  0  0
  1  2  1  0  0  0
  1  4  1  0  0  0
  1 23  1  0  0  0
  4  5  1  0  0  0
  5 19  1  0  0  0
  5  6  1  0  0  0
 19 20  1  0  0  0
 20 21  1  0  0  0
 20 22  1  0  0  0
  6  7  1  0  0  0
  7  8  2  0  0  0
 23 38  1  0  0  0
 38 39  1  0  0  0
 39 40  2  0  0  0
 39 44  1  0  0  0
 40 41  1  0  0  0
 41 42  2  0  0  0
 42 43  1  0  0  0
 43 44  2  0  0  0
 15 17  1  0  0  0
 15 18  1  0  0  0
 26 27  1  0  0  0
  2  3  1  0  0  0
  6  9  1  0  0  0
M  END
> <minimizedAffinity>
-10.45984

$$$$
1LEE_R36_A_500


 44 46  0  0  0  0  0  0  0  0999 V2000
   30.6171   33.6949   13.8923 C   0  0  0  0  0  0  0  0  0  0  0  0
   31.7971   33.2294   14.5359 O   0  0  0  0  0  0  0  0  0  0  0  0
   32.5301   33.2214   13.9007 H   0  0  0  0  0  0  0  0  0  0  0  0
   31.0174   35.0335   13.3802 C   0  0  0  0  0  0  0  0  0  0  0  0
   31.9366   35.8743   14.2237 C   0  0  0  0  0  0  0  0  0  0  0  0
   33.2447   36.0167   13.5742 N   0  0  0  0  0  0  0  0  0  0  0  0
   34.3727   35.4627   14.0129 C   0  0  0  0  0  0  0  0  0  0  0  0
   34.4090   34.7553   15.0282 O   0  0  0  0  0  0  0  0  0  0  0  0
   33.2914   36.5610   12.7552 H   0  0  0  0  0  0  0  0  0  0  0  0
   35.5460   35.7525   13.2436 C   0  0  0  0  0  0  0  0  0  0  0  0
   36.0880   34.7760   12.3921 C   0  0  0  0  0  0  0  0  0  0  0  0
   37.2301   35.0349   11.5885 C   0  0  0  0  0  0  0  0  0  0  0  0
   37.8352   36.2583   11.6280 C   0  0  0  0  0  0  0  0  0  0  0  0
   37.3272   37.2635   12.4659 C   0  0  0  0  0  0  0  0  0  0  0  0
   37.9480   38.5936   12.4362 N   0  0  0  0  0  0  0  0  0  0  0  0
   36.1838   37.0110   13.2735 C   0  0  0  0  0  0  0  0  0  0  0  0
   38.7391   38.7551   11.8729 H   0  0  0  0  0  0  0  0  0  0  0  0
   37.5732   39.3240   12.9796 H   0  0  0  0  0  0  0  0  0  0  0  0
   31.2779   37.2189   14.5616 C   0  0  0  0  0  0  0  0  0  0  0  0
   29.9563   37.3709   15.3337 C   0  0  0  0  0  0  0  0  0  0  0  0
   29.0513   38.2143   14.4925 C   0  0  0  0  0  0  0  0  0  0  0  0
   30.1109   38.0494   16.6691 C   0  0  0  0  0  0  0  0  0  0  0  0
   30.3046   32.7436   12.7156 C   0  0  0  0  0  0  0  0  0  0  0  0
   31.9800   31.7919   11.2556 C   0  0  0  0  0  0  0  0  0  0  0  0
   31.5239   32.4235   10.2832 O   0  0  0  0  0  0  0  0  0  0  0  0
   31.4423   31.8879   12.4636 N   0  0  0  0  0  0  0  0  0  0  0  0
   31.8259   31.3656   13.2047 H   0  0  0  0  0  0  0  0  0  0  0  0
   33.2053   30.8565   11.1023 C   0  0  0  0  0  0  0  0  0  0  0  0
   33.5651   30.5421    9.7695 O   0  0  0  0  0  0  0  0  0  0  0  0
   34.5432   28.3935    9.2613 C   0  0  0  0  0  0  0  0  0  0  0  0
   34.7056   29.7576    9.5284 C   0  0  0  0  0  0  0  0  0  0  0  0
   36.0172   30.2875    9.5334 C   0  0  0  0  0  0  0  0  0  0  0  0
   37.1077   29.4499    9.2825 C   0  0  0  0  0  0  0  0  0  0  0  0
   36.9239   28.1200    9.0321 C   0  0  0  0  0  0  0  0  0  0  0  0
   35.6565   27.5845    9.0122 C   0  0  0  0  0  0  0  0  0  0  0  0
   36.2525   31.7661    9.7608 C   0  0  0  0  0  0  0  0  0  0  0  0
   33.1585   27.7820    9.2307 C   0  0  0  0  0  0  0  0  0  0  0  0
   29.0975   31.8998   13.0756 C   0  0  0  0  0  0  0  0  0  0  0  0
   28.3874   31.3087   11.9065 C   0  0  0  0  0  0  0  0  0  0  0  0
   28.0588   29.9580   11.8849 C   0  0  0  0  0  0  0  0  0  0  0  0
   27.4587   29.3775   10.7448 C   0  0  0  0  0  0  0  0  0  0  0  0
   27.1756   30.1611    9.6203 C   0  0  0  0  0  0  0  0  0  0  0  0
   27.4865   31.5163    9.6293 C   0  0  0  0  0  0  0  0  0  0  0  0
   28.1040   32.0883   10.7946 C   0  0  0  0  0  0  0  0  0  0  0  0
 30 31  2  0  0  0
 30 35  1  0  0  0
 30 37  1  0  0  0
 31 32  1  0  0  0
 31 29  1  0  0  0
 32 33  2  0  0  0
 32 36  1  0  0  0
 33 34  1  0  0  0
 34 35  2  0  0  0
 10 11  2  0  0  0
 10 16  1  0  0  0
 10  7  1  0  0  0
 11 12  1  0  0  0
 12 13  2  0  0  0
 13 14  1  0  0  0
 14 15  1  0  0  0
 14 16  2  0  0  0
 29 28  1  0  0  0
 28 24  1  0  0  0
 24 25  2  0  0  0
 24 26  1  0  0  0
 26 23  1  0  0  0
  1  2  1  0  0  0
  1  4  1  0  0  0
  1 23  1  0  0  0
  4  5  1  0  0  0
  5 19  1  0  0  0
  5  6  1  0  0  0
 19 20  1  0  0  0
 20 21  1  0  0  0
 20 22  1  0  0  0
  6  7  1  0  0  0
  7  8  2  0  0  0
 23 38  1  0  0  0
 38 39  1  0  0  0
 39 40  2  0  0  0
 39 44  1  0  0  0
 40 41  1  0  0  0
 41 42  2  0  0  0
 42 43  1  0  0  0
 43 44  2  0  0  0
 15 17  1  0  0  0
 15 18  1  0  0  0
 26 27  1  0  0  0
  2  3  1  0  0  0
  6  9  1  0  0  0
M  END
> <minimizedAffinity>
-9.59300

$$$$
1LEE_R36_A_500


 44 46  0  0  0  0  0  0  0  0999 V2000
   31.7526   32.4796   13.7941 C   0  0  0  0  0  0  0  0  0  0  0  0
   31.5135   32.2503   15.1774 O   0  0  0  0  0  0  0  0  0  0  0  0
   30.9352   32.9470   15.5254 H   0  0  0  0  0  0  0  0  0  0  0  0
   30.3824   32.5046   13.2142 C   0  0  0  0  0  0  0  0  0  0  0  0
   30.0640   31.5512   12.0948 C   0  0  0  0  0  0  0  0  0  0  0  0
   31.2848   30.8914   11.6177 N   0  0  0  0  0  0  0  0  0  0  0  0
   32.0705   31.3596   10.6507 C   0  0  0  0  0  0  0  0  0  0  0  0
   31.8331   32.4240   10.0648 O   0  0  0  0  0  0  0  0  0  0  0  0
   31.5411   30.0415   12.0434 H   0  0  0  0  0  0  0  0  0  0  0  0
   33.1998   30.5427   10.3193 C   0  0  0  0  0  0  0  0  0  0  0  0
   33.0095   29.2162    9.8990 C   0  0  0  0  0  0  0  0  0  0  0  0
   34.1002   28.3848    9.5300 C   0  0  0  0  0  0  0  0  0  0  0  0
   35.3775   28.8653    9.5775 C   0  0  0  0  0  0  0  0  0  0  0  0
   35.6135   30.1853    9.9926 C   0  0  0  0  0  0  0  0  0  0  0  0
   36.9868   30.7038    9.9641 N   0  0  0  0  0  0  0  0  0  0  0  0
   34.5258   31.0235   10.3636 C   0  0  0  0  0  0  0  0  0  0  0  0
   37.7307   30.1131    9.7055 H   0  0  0  0  0  0  0  0  0  0  0  0
   37.1637   31.6421   10.2037 H   0  0  0  0  0  0  0  0  0  0  0  0
   28.9692   30.5643   12.5232 C   0  0  0  0  0  0  0  0  0  0  0  0
   27.9556   29.9184   11.5633 C   0  0  0  0  0  0  0  0  0  0  0  0
   28.4752   28.5562   11.2282 C   0  0  0  0  0  0  0  0  0  0  0  0
   27.7773   30.6751   10.2737 C   0  0  0  0  0  0  0  0  0  0  0  0
   32.4217   33.8644   13.6454 C   0  0  0  0  0  0  0  0  0  0  0  0
   31.2919   36.0014   13.6699 C   0  0  0  0  0  0  0  0  0  0  0  0
   31.6899   36.2506   12.5158 O   0  0  0  0  0  0  0  0  0  0  0  0
   31.6079   34.8718   14.2878 N   0  0  0  0  0  0  0  0  0  0  0  0
   31.2814   34.7158   15.2034 H   0  0  0  0  0  0  0  0  0  0  0  0
   30.4026   37.0042   14.4466 C   0  0  0  0  0  0  0  0  0  0  0  0
   30.3767   38.3208   13.9265 O   0  0  0  0  0  0  0  0  0  0  0  0
   30.4935   40.2372   15.3912 C   0  0  0  0  0  0  0  0  0  0  0  0
   29.7243   39.3357   14.6468 C   0  0  0  0  0  0  0  0  0  0  0  0
   28.3188   39.4954   14.6466 C   0  0  0  0  0  0  0  0  0  0  0  0
   27.7352   40.5296   15.3839 C   0  0  0  0  0  0  0  0  0  0  0  0
   28.5071   41.3921   16.1090 C   0  0  0  0  0  0  0  0  0  0  0  0
   29.8769   41.2622   16.1159 C   0  0  0  0  0  0  0  0  0  0  0  0
   27.4377   38.5858   13.8162 C   0  0  0  0  0  0  0  0  0  0  0  0
   32.0026   40.1165   15.4117 C   0  0  0  0  0  0  0  0  0  0  0  0
   33.7906   33.8189   14.2957 C   0  0  0  0  0  0  0  0  0  0  0  0
   34.8628   34.5089   13.5247 C   0  0  0  0  0  0  0  0  0  0  0  0
   35.4360   33.9057   12.4109 C   0  0  0  0  0  0  0  0  0  0  0  0
   36.5082   34.5208   11.7262 C   0  0  0  0  0  0  0  0  0  0  0  0
   37.0029   35.7575   12.1558 C   0  0  0  0  0  0  0  0  0  0  0  0
   36.4334   36.3809   13.2606 C   0  0  0  0  0  0  0  0  0  0  0  0
   35.3487   35.7367   13.9499 C   0  0  0  0  0  0  0  0  0  0  0  0
 30 31  2  0  0  0
 30 35  1  0  0  0
 30 37  1  0  0  0
 31 32  1  0  0  0
 31 29  1  0  0  0
 32 33  2  0  0  0
 32 36  1  0  0  0
 33 34  1  0  0  0
 34 35  2  0  0  0
 10 11  2  0  0  0
 10 16  1  0  0  0
 10  7  1  0  0  0
 11 12  1  0  0  0
 12 13  2  0  0  0
 13 14  1  0  0  0
 14 15  1  0  0  0
 14 16  2  0  0  0
 29 28  1  0  0  0
 28 24  1  0  0  0
 24 25  2  0  0  0
 24 26  1  0  0  0
 26 23  1  0  0  0
  1  2  1  0  0  0
  1  4  1  0  0  0
  1 23  1  0  0  0
  4  5  1  0  0  0
  5 19  1  0  0  0
  5  6  1  0  0  0
 19 20  1  0  0  0
 20 21  1  0  0  0
 20 22  1  0  0  0
  6  7  1  0  0  0
  7  8  2  0  0  0
 23 38  1  0  0  0
 38 39  1  0  0  0
 39 40  2  0  0  0
 39 44  1  0  0  0
 40 41  1  0  0  0
 41 42  2  0  0  0
 42 43  1  0  0  0
 43 44  2  0  0  0
 15 17  1  0  0  0
 15 18  1  0  0  0
 26 27  1  0  0  0
  2  3  1  0  0  0
  6  9  1  0  0  0
M  END
> <minimizedAffinity>
-9.29698

$$$$
1LEE_R36_A_500


 44 46  0  0  0  0  0  0  0  0999 V2000
   33.3254   33.6140   14.2978 C   0  0  0  0  0  0  0  0  0  0  0  0
   33.5404   33.4954   15.6989 O   0  0  0  0  0  0  0  0  0  0  0  0
   32.8668   34.0068   16.1739 H   0  0  0  0  0  0  0  0  0  0  0  0
   31.9308   33.1238   14.1276 C   0  0  0  0  0  0  0  0  0  0  0  0
   31.5875   32.3715   12.8708 C   0  0  0  0  0  0  0  0  0  0  0  0
   32.8018   31.8416   12.2401 N   0  0  0  0  0  0  0  0  0  0  0  0
   32.9466   31.6299   10.9340 C   0  0  0  0  0  0  0  0  0  0  0  0
   32.0461   31.8781   10.1215 O   0  0  0  0  0  0  0  0  0  0  0  0
   33.5642   31.6272   12.8250 H   0  0  0  0  0  0  0  0  0  0  0  0
   34.2063   31.0793   10.5309 C   0  0  0  0  0  0  0  0  0  0  0  0
   35.3933   31.7922   10.7660 C   0  0  0  0  0  0  0  0  0  0  0  0
   36.6641   31.2665   10.4116 C   0  0  0  0  0  0  0  0  0  0  0  0
   36.7601   30.0374    9.8248 C   0  0  0  0  0  0  0  0  0  0  0  0
   35.5989   29.2907    9.5706 C   0  0  0  0  0  0  0  0  0  0  0  0
   35.7314   27.9411    9.0080 N   0  0  0  0  0  0  0  0  0  0  0  0
   34.3228   29.8112    9.9229 C   0  0  0  0  0  0  0  0  0  0  0  0
   36.6205   27.5928    8.7684 H   0  0  0  0  0  0  0  0  0  0  0  0
   34.9312   27.3844    8.8705 H   0  0  0  0  0  0  0  0  0  0  0  0
   30.5341   31.2931   13.1595 C   0  0  0  0  0  0  0  0  0  0  0  0
   29.3789   30.9288   12.2114 C   0  0  0  0  0  0  0  0  0  0  0  0
   29.0120   32.1741   11.4682 C   0  0  0  0  0  0  0  0  0  0  0  0
   28.1467   30.4347   12.9220 C   0  0  0  0  0  0  0  0  0  0  0  0
   33.4160   35.1102   13.9230 C   0  0  0  0  0  0  0  0  0  0  0  0
   31.4363   36.4846   13.7324 C   0  0  0  0  0  0  0  0  0  0  0  0
   31.5572   36.5265   12.4930 O   0  0  0  0  0  0  0  0  0  0  0  0
   32.2977   35.8259   14.4951 N   0  0  0  0  0  0  0  0  0  0  0  0
   32.1732   35.8241   15.4717 H   0  0  0  0  0  0  0  0  0  0  0  0
   30.2671   37.2042   14.4500 C   0  0  0  0  0  0  0  0  0  0  0  0
   30.6479   38.2097   15.3711 O   0  0  0  0  0  0  0  0  0  0  0  0
   28.8717   39.6640   16.1205 C   0  0  0  0  0  0  0  0  0  0  0  0
   30.0095   39.4608   15.3314 C   0  0  0  0  0  0  0  0  0  0  0  0
   30.4716   40.5338   14.5338 C   0  0  0  0  0  0  0  0  0  0  0  0
   29.7894   41.7537   14.5443 C   0  0  0  0  0  0  0  0  0  0  0  0
   28.6764   41.9249   15.3173 C   0  0  0  0  0  0  0  0  0  0  0  0
   28.2145   40.8985   16.1088 C   0  0  0  0  0  0  0  0  0  0  0  0
   31.7290   40.3926   13.7017 C   0  0  0  0  0  0  0  0  0  0  0  0
   28.3464   38.5508   17.0021 C   0  0  0  0  0  0  0  0  0  0  0  0
   34.7161   35.6725   14.4636 C   0  0  0  0  0  0  0  0  0  0  0  0
   35.7458   35.9540   13.4242 C   0  0  0  0  0  0  0  0  0  0  0  0
   36.1924   34.9463   12.5768 C   0  0  0  0  0  0  0  0  0  0  0  0
   37.2264   35.1898   11.6449 C   0  0  0  0  0  0  0  0  0  0  0  0
   37.8104   36.4585   11.5545 C   0  0  0  0  0  0  0  0  0  0  0  0
   37.3676   37.4813   12.3859 C   0  0  0  0  0  0  0  0  0  0  0  0
   36.3202   37.2135   13.3335 C   0  0  0  0  0  0  0  0  0  0  0  0
 30 31  2  0  0  0
 30 35  1  0  0  0
 30 37  1  0  0  0
 31 32  1  0  0  0
 31 29  1  0  0  0
 32 33  2  0  0  0
 32 36  1  0  0  0
 33 34  1  0  0  0
 34 35  2  0  0  0
 10 11  2  0  0  0
 10 16  1  0  0  0
 10  7  1  0  0  0
 11 12  1  0  0  0
 12 13  2  0  0  0
 13 14  1  0  0  0
 14 15  1  0  0  0
 14 16  2  0  0  0
 29 28  1  0  0  0
 28 24  1  0  0  0
 24 25  2  0  0  0
 24 26  1  0  0  0
 26 23  1  0  0  0
  1  2  1  0  0  0
  1  4  1  0  0  0
  1 23  1  0  0  0
  4  5  1  0  0  0
  5 19  1  0  0  0
  5  6  1  0  0  0
 19 20  1  0  0  0
 20 21  1  0  0  0
 20 22  1  0  0  0
  6  7  1  0  0  0
  7  8  2  0  0  0
 23 38  1  0  0  0
 38 39  1  0  0  0
 39 40  2  0  0  0
 39 44  1  0  0  0
 40 41  1  0  0  0
 41 42  2  0  0  0
 42 43  1  0  0  0
 43 44  2  0  0  0
 15 17  1  0  0  0
 15 18  1  0  0  0
 26 27  1  0  0  0
  2  3  1  0  0  0
  6  9  1  0  0  0
M  END
> <minimizedAffinity>
-9.03551

$$$$
1LEE_R36_A_500


 44 46  0  0  0  0  0  0  0  0999 V2000
   32.4959   34.2142   13.6515 C   0  0  0  0  0  0  0  0  0  0  0  0
   32.5059   33.3762   14.8008 O   0  0  0  0  0  0  0  0  0  0  0  0
   31.7772   33.6269   15.3900 H   0  0  0  0  0  0  0  0  0  0  0  0
   31.1344   34.0011   13.0901 C   0  0  0  0  0  0  0  0  0  0  0  0
   30.9440   32.9057   12.0765 C   0  0  0  0  0  0  0  0  0  0  0  0
   32.2411   32.3686   11.6495 N   0  0  0  0  0  0  0  0  0  0  0  0
   32.4056   31.4537   10.6969 C   0  0  0  0  0  0  0  0  0  0  0  0
   31.4514   30.9746   10.0702 O   0  0  0  0  0  0  0  0  0  0  0  0
   33.0474   32.7093   12.0999 H   0  0  0  0  0  0  0  0  0  0  0  0
   33.7576   31.0458   10.4555 C   0  0  0  0  0  0  0  0  0  0  0  0
   34.8235   31.8484   10.8941 C   0  0  0  0  0  0  0  0  0  0  0  0
   36.1772   31.4634   10.7037 C   0  0  0  0  0  0  0  0  0  0  0  0
   36.4756   30.2862   10.0796 C   0  0  0  0  0  0  0  0  0  0  0  0
   35.4412   29.4536    9.6244 C   0  0  0  0  0  0  0  0  0  0  0  0
   35.7842   28.1585    9.0239 N   0  0  0  0  0  0  0  0  0  0  0  0
   34.0831   29.8331    9.8117 C   0  0  0  0  0  0  0  0  0  0  0  0
   36.7281   27.9080    8.8998 H   0  0  0  0  0  0  0  0  0  0  0  0
   35.0702   27.5406    8.7453 H   0  0  0  0  0  0  0  0  0  0  0  0
   29.9911   31.8310   12.6178 C   0  0  0  0  0  0  0  0  0  0  0  0
   28.4814   31.7804   12.3277 C   0  0  0  0  0  0  0  0  0  0  0  0
   27.9882   30.4497   12.8007 C   0  0  0  0  0  0  0  0  0  0  0  0
   28.1423   31.9058   10.8659 C   0  0  0  0  0  0  0  0  0  0  0  0
   32.6576   35.6770   14.1221 C   0  0  0  0  0  0  0  0  0  0  0  0
   35.0567   35.7480   14.4102 C   0  0  0  0  0  0  0  0  0  0  0  0
   34.9905   34.9345   15.3516 O   0  0  0  0  0  0  0  0  0  0  0  0
   33.9729   36.1616   13.7685 N   0  0  0  0  0  0  0  0  0  0  0  0
   34.0657   36.8124   13.0356 H   0  0  0  0  0  0  0  0  0  0  0  0
   36.4164   36.3215   13.9386 C   0  0  0  0  0  0  0  0  0  0  0  0
   36.3354   37.3966   13.0209 O   0  0  0  0  0  0  0  0  0  0  0  0
   37.9762   39.1660   13.1140 C   0  0  0  0  0  0  0  0  0  0  0  0
   37.5174   37.9786   12.5325 C   0  0  0  0  0  0  0  0  0  0  0  0
   38.2748   37.4117   11.4809 C   0  0  0  0  0  0  0  0  0  0  0  0
   39.4438   38.0425   11.0458 C   0  0  0  0  0  0  0  0  0  0  0  0
   39.8668   39.2052   11.6243 C   0  0  0  0  0  0  0  0  0  0  0  0
   39.1516   39.7696   12.6555 C   0  0  0  0  0  0  0  0  0  0  0  0
   37.8596   36.0992   10.8498 C   0  0  0  0  0  0  0  0  0  0  0  0
   37.2082   39.8041   14.2521 C   0  0  0  0  0  0  0  0  0  0  0  0
   31.5988   36.5278   13.4485 C   0  0  0  0  0  0  0  0  0  0  0  0
   30.7326   37.2932   14.3887 C   0  0  0  0  0  0  0  0  0  0  0  0
   31.0084   37.3128   15.7512 C   0  0  0  0  0  0  0  0  0  0  0  0
   30.1436   37.9699   16.6552 C   0  0  0  0  0  0  0  0  0  0  0  0
   28.9975   38.6227   16.1872 C   0  0  0  0  0  0  0  0  0  0  0  0
   28.7128   38.6235   14.8263 C   0  0  0  0  0  0  0  0  0  0  0  0
   29.5993   37.9431   13.9220 C   0  0  0  0  0  0  0  0  0  0  0  0
 30 31  2  0  0  0
 30 35  1  0  0  0
 30 37  1  0  0  0
 31 32  1  0  0  0
 31 29  1  0  0  0
 32 33  2  0  0  0
 32 36  1  0  0  0
 33 34  1  0  0  0
 34 35  2  0  0  0
 10 11  2  0  0  0
 10 16  1  0  0  0
 10  7  1  0  0  0
 11 12  1  0  0  0
 12 13  2  0  0  0
 13 14  1  0  0  0
 14 15  1  0  0  0
 14 16  2  0  0  0
 29 28  1  0  0  0
 28 24  1  0  0  0
 24 25  2  0  0  0
 24 26  1  0  0  0
 26 23  1  0  0  0
  1  2  1  0  0  0
  1  4  1  0  0  0
  1 23  1  0  0  0
  4  5  1  0  0  0
  5 19  1  0  0  0
  5  6  1  0  0  0
 19 20  1  0  0  0
 20 21  1  0  0  0
 20 22  1  0  0  0
  6  7  1  0  0  0
  7  8  2  0  0  0
 23 38  1  0  0  0
 38 39  1  0  0  0
 39 40  2  0  0  0
 39 44  1  0  0  0
 40 41  1  0  0  0
 41 42  2  0  0  0
 42 43  1  0  0  0
 43 44  2  0  0  0
 15 17  1  0  0  0
 15 18  1  0  0  0
 26 27  1  0  0  0
  2  3  1  0  0  0
  6  9  1  0  0  0
M  END
> <minimizedAffinity>
-8.88460

$$$$
1LEE_R36_A_500


 44 46  0  0  0  0  0  0  0  0999 V2000
   32.9672   34.0924   13.8471 C   0  0  0  0  0  0  0  0  0  0  0  0
   32.8163   33.4369   15.1005 O   0  0  0  0  0  0  0  0  0  0  0  0
   32.1217   33.8778   15.6143 H   0  0  0  0  0  0  0  0  0  0  0  0
   31.6036   34.0106   13.2570 C   0  0  0  0  0  0  0  0  0  0  0  0
   31.2942   32.8655   12.3316 C   0  0  0  0  0  0  0  0  0  0  0  0
   32.5331   32.2622   11.8272 N   0  0  0  0  0  0  0  0  0  0  0  0
   32.6151   31.4941   10.7432 C   0  0  0  0  0  0  0  0  0  0  0  0
   31.6263   31.2260   10.0481 O   0  0  0  0  0  0  0  0  0  0  0  0
   33.3633   32.4382   12.3264 H   0  0  0  0  0  0  0  0  0  0  0  0
   33.9192   30.9829   10.4426 C   0  0  0  0  0  0  0  0  0  0  0  0
   35.0619   31.7221   10.7895 C   0  0  0  0  0  0  0  0  0  0  0  0
   36.3723   31.2353   10.5387 C   0  0  0  0  0  0  0  0  0  0  0  0
   36.5516   30.0190    9.9448 C   0  0  0  0  0  0  0  0  0  0  0  0
   35.4371   29.2470    9.5806 C   0  0  0  0  0  0  0  0  0  0  0  0
   35.6540   27.9108    9.0122 N   0  0  0  0  0  0  0  0  0  0  0  0
   34.1218   29.7285    9.8288 C   0  0  0  0  0  0  0  0  0  0  0  0
   36.5695   27.5895    8.8453 H   0  0  0  0  0  0  0  0  0  0  0  0
   34.8839   27.3360    8.7981 H   0  0  0  0  0  0  0  0  0  0  0  0
   30.3634   31.8557   13.0170 C   0  0  0  0  0  0  0  0  0  0  0  0
   28.8773   31.6661   12.6686 C   0  0  0  0  0  0  0  0  0  0  0  0
   28.5721   30.2101   12.8255 C   0  0  0  0  0  0  0  0  0  0  0  0
   28.5322   32.0609   11.2570 C   0  0  0  0  0  0  0  0  0  0  0  0
   33.3454   35.5658   14.1181 C   0  0  0  0  0  0  0  0  0  0  0  0
   31.7807   37.2201   14.9301 C   0  0  0  0  0  0  0  0  0  0  0  0
   31.8469   37.8440   13.8536 O   0  0  0  0  0  0  0  0  0  0  0  0
   32.4794   36.1128   15.1384 N   0  0  0  0  0  0  0  0  0  0  0  0
   32.4070   35.6534   16.0061 H   0  0  0  0  0  0  0  0  0  0  0  0
   30.8738   37.7088   16.0870 C   0  0  0  0  0  0  0  0  0  0  0  0
   30.8948   39.1042   16.3259 O   0  0  0  0  0  0  0  0  0  0  0  0
   30.4169   40.9692   14.8683 C   0  0  0  0  0  0  0  0  0  0  0  0
   29.9561   39.9294   15.6837 C   0  0  0  0  0  0  0  0  0  0  0  0
   28.5592   39.7508   15.8160 C   0  0  0  0  0  0  0  0  0  0  0  0
   27.6810   40.6073   15.1460 C   0  0  0  0  0  0  0  0  0  0  0  0
   28.1553   41.6200   14.3619 C   0  0  0  0  0  0  0  0  0  0  0  0
   29.5101   41.8064   14.2103 C   0  0  0  0  0  0  0  0  0  0  0  0
   28.0005   38.6092   16.6395 C   0  0  0  0  0  0  0  0  0  0  0  0
   31.9030   41.1921   14.6834 C   0  0  0  0  0  0  0  0  0  0  0  0
   34.7872   35.6235   14.5835 C   0  0  0  0  0  0  0  0  0  0  0  0
   35.7726   35.9125   13.5038 C   0  0  0  0  0  0  0  0  0  0  0  0
   36.2107   34.9028   12.6544 C   0  0  0  0  0  0  0  0  0  0  0  0
   37.2051   35.1554   11.6827 C   0  0  0  0  0  0  0  0  0  0  0  0
   37.7573   36.4350   11.5543 C   0  0  0  0  0  0  0  0  0  0  0  0
   37.3221   37.4596   12.3875 C   0  0  0  0  0  0  0  0  0  0  0  0
   36.3155   37.1826   13.3758 C   0  0  0  0  0  0  0  0  0  0  0  0
 30 31  2  0  0  0
 30 35  1  0  0  0
 30 37  1  0  0  0
 31 32  1  0  0  0
 31 29  1  0  0  0
 32 33  2  0  0  0
 32 36  1  0  0  0
 33 34  1  0  0  0
 34 35  2  0  0  0
 10 11  2  0  0  0
 10 16  1  0  0  0
 10  7  1  0  0  0
 11 12  1  0  0  0
 12 13  2  0  0  0
 13 14  1  0  0  0
 14 15  1  0  0  0
 14 16  2  0  0  0
 29 28  1  0  0  0
 28 24  1  0  0  0
 24 25  2  0  0  0
 24 26  1  0  0  0
 26 23  1  0  0  0
  1  2  1  0  0  0
  1  4  1  0  0  0
  1 23  1  0  0  0
  4  5  1  0  0  0
  5 19  1  0  0  0
  5  6  1  0  0  0
 19 20  1  0  0  0
 20 21  1  0  0  0
 20 22  1  0  0  0
  6  7  1  0  0  0
  7  8  2  0  0  0
 23 38  1  0  0  0
 38 39  1  0  0  0
 39 40  2  0  0  0
 39 44  1  0  0  0
 40 41  1  0  0  0
 41 42  2  0  0  0
 42 43  1  0  0  0
 43 44  2  0  0  0
 15 17  1  0  0  0
 15 18  1  0  0  0
 26 27  1  0  0  0
  2  3  1  0  0  0
  6  9  1  0  0  0
M  END
> <minimizedAffinity>
-8.88068

$$$$
1LEE_R36_A_500


 44 46  0  0  0  0  0  0  0  0999 V2000
   32.9439   30.9406   11.7681 C   0  0  0  0  0  0  0  0  0  0  0  0
   32.5398   31.0182   13.1297 O   0  0  0  0  0  0  0  0  0  0  0  0
   32.4030   31.9470   13.3739 H   0  0  0  0  0  0  0  0  0  0  0  0
   31.8343   31.6214   11.0472 C   0  0  0  0  0  0  0  0  0  0  0  0
   30.6263   32.0475   11.8363 C   0  0  0  0  0  0  0  0  0  0  0  0
   30.7424   33.4548   12.2353 N   0  0  0  0  0  0  0  0  0  0  0  0
   30.9400   33.8748   13.4828 C   0  0  0  0  0  0  0  0  0  0  0  0
   31.0538   33.0896   14.4331 O   0  0  0  0  0  0  0  0  0  0  0  0
   30.6688   34.1374   11.5296 H   0  0  0  0  0  0  0  0  0  0  0  0
   30.9949   35.2957   13.6574 C   0  0  0  0  0  0  0  0  0  0  0  0
   31.8158   36.0754   12.8264 C   0  0  0  0  0  0  0  0  0  0  0  0
   31.8729   37.4895   12.9457 C   0  0  0  0  0  0  0  0  0  0  0  0
   31.1191   38.1309   13.8864 C   0  0  0  0  0  0  0  0  0  0  0  0
   30.2851   37.3903   14.7388 C   0  0  0  0  0  0  0  0  0  0  0  0
   29.4279   38.1063   15.6916 N   0  0  0  0  0  0  0  0  0  0  0  0
   30.2231   35.9737   14.6248 C   0  0  0  0  0  0  0  0  0  0  0  0
   29.4806   39.0870   15.7606 H   0  0  0  0  0  0  0  0  0  0  0  0
   28.8003   37.6058   16.2616 H   0  0  0  0  0  0  0  0  0  0  0  0
   29.3393   31.7421   11.0576 C   0  0  0  0  0  0  0  0  0  0  0  0
   28.1708   30.9032   11.6022 C   0  0  0  0  0  0  0  0  0  0  0  0
   28.6054   30.3506   12.9226 C   0  0  0  0  0  0  0  0  0  0  0  0
   27.7948   29.7442   10.7175 C   0  0  0  0  0  0  0  0  0  0  0  0
   34.2555   31.7418   11.6100 C   0  0  0  0  0  0  0  0  0  0  0  0
   36.0060   31.0626   10.0873 C   0  0  0  0  0  0  0  0  0  0  0  0
   36.7490   30.7598   11.0407 O   0  0  0  0  0  0  0  0  0  0  0  0
   34.7882   31.5497   10.2798 N   0  0  0  0  0  0  0  0  0  0  0  0
   34.2348   31.7856    9.5004 H   0  0  0  0  0  0  0  0  0  0  0  0
   36.4697   30.8845    8.6200 C   0  0  0  0  0  0  0  0  0  0  0  0
   35.5939   30.1399    7.7935 O   0  0  0  0  0  0  0  0  0  0  0  0
   36.4039   29.4005    5.6420 C   0  0  0  0  0  0  0  0  0  0  0  0
   36.1128   29.1173    6.9813 C   0  0  0  0  0  0  0  0  0  0  0  0
   36.3653   27.8103    7.4597 C   0  0  0  0  0  0  0  0  0  0  0  0
   36.8855   26.8412    6.5970 C   0  0  0  0  0  0  0  0  0  0  0  0
   37.1541   27.1400    5.2916 C   0  0  0  0  0  0  0  0  0  0  0  0
   36.9260   28.4074    4.8069 C   0  0  0  0  0  0  0  0  0  0  0  0
   36.1232   27.4589    8.9126 C   0  0  0  0  0  0  0  0  0  0  0  0
   36.1645   30.7884    5.0866 C   0  0  0  0  0  0  0  0  0  0  0  0
   33.9618   33.2117   11.8380 C   0  0  0  0  0  0  0  0  0  0  0  0
   34.7914   33.8490   12.8990 C   0  0  0  0  0  0  0  0  0  0  0  0
   35.8241   34.7182   12.5659 C   0  0  0  0  0  0  0  0  0  0  0  0
   36.6640   35.2605   13.5644 C   0  0  0  0  0  0  0  0  0  0  0  0
   36.4597   34.9367   14.9106 C   0  0  0  0  0  0  0  0  0  0  0  0
   35.4239   34.0785   15.2629 C   0  0  0  0  0  0  0  0  0  0  0  0
   34.5843   33.5298   14.2331 C   0  0  0  0  0  0  0  0  0  0  0  0
 30 31  2  0  0  0
 30 35  1  0  0  0
 30 37  1  0  0  0
 31 32  1  0  0  0
 31 29  1  0  0  0
 32 33  2  0  0  0
 32 36  1  0  0  0
 33 34  1  0  0  0
 34 35  2  0  0  0
 10 11  2  0  0  0
 10 16  1  0  0  0
 10  7  1  0  0  0
 11 12  1  0  0  0
 12 13  2  0  0  0
 13 14  1  0  0  0
 14 15  1  0  0  0
 14 16  2  0  0  0
 29 28  1  0  0  0
 28 24  1  0  0  0
 24 25  2  0  0  0
 24 26  1  0  0  0
 26 23  1  0  0  0
  1  2  1  0  0  0
  1  4  1  0  0  0
  1 23  1  0  0  0
  4  5  1  0  0  0
  5 19  1  0  0  0
  5  6  1  0  0  0
 19 20  1  0  0  0
 20 21  1  0  0  0
 20 22  1  0  0  0
  6  7  1  0  0  0
  7  8  2  0  0  0
 23 38  1  0  0  0
 38 39  1  0  0  0
 39 40  2  0  0  0
 39 44  1  0  0  0
 40 41  1  0  0  0
 41 42  2  0  0  0
 42 43  1  0  0  0
 43 44  2  0  0  0
 15 17  1  0  0  0
 15 18  1  0  0  0
 26 27  1  0  0  0
  2  3  1  0  0  0
  6  9  1  0  0  0
M  END
> <minimizedAffinity>
-8.85884

$$$$
1LEE_R36_A_500


 44 46  0  0  0  0  0  0  0  0999 V2000
   33.2935   31.9422   12.3070 C   0  0  0  0  0  0  0  0  0  0  0  0
   32.8962   30.7564   12.9847 O   0  0  0  0  0  0  0  0  0  0  0  0
   32.0126   30.4926   12.6838 H   0  0  0  0  0  0  0  0  0  0  0  0
   33.2096   31.5555   10.8725 C   0  0  0  0  0  0  0  0  0  0  0  0
   33.3546   30.1010   10.5161 C   0  0  0  0  0  0  0  0  0  0  0  0
   32.1033   29.5821    9.9520 N   0  0  0  0  0  0  0  0  0  0  0  0
   31.8607   28.2977    9.7010 C   0  0  0  0  0  0  0  0  0  0  0  0
   32.6913   27.4107    9.9378 O   0  0  0  0  0  0  0  0  0  0  0  0
   31.3921   30.2305    9.7444 H   0  0  0  0  0  0  0  0  0  0  0  0
   30.5822   28.0096    9.1222 C   0  0  0  0  0  0  0  0  0  0  0  0
   29.4563   27.8513    9.9467 C   0  0  0  0  0  0  0  0  0  0  0  0
   28.1660   27.5979    9.4100 C   0  0  0  0  0  0  0  0  0  0  0  0
   27.9903   27.5008    8.0594 C   0  0  0  0  0  0  0  0  0  0  0  0
   29.0886   27.6515    7.1983 C   0  0  0  0  0  0  0  0  0  0  0  0
   28.8636   27.6179    5.7479 N   0  0  0  0  0  0  0  0  0  0  0  0
   30.3838   27.9053    7.7290 C   0  0  0  0  0  0  0  0  0  0  0  0
   27.9623   27.4411    5.3935 H   0  0  0  0  0  0  0  0  0  0  0  0
   29.6141   27.7721    5.1296 H   0  0  0  0  0  0  0  0  0  0  0  0
   34.5668   29.8898    9.5986 C   0  0  0  0  0  0  0  0  0  0  0  0
   35.6690   30.9354    9.3579 C   0  0  0  0  0  0  0  0  0  0  0  0
   36.2196   30.6855    7.9897 C   0  0  0  0  0  0  0  0  0  0  0  0
   36.8090   30.8485   10.3378 C   0  0  0  0  0  0  0  0  0  0  0  0
   32.2603   33.0462   12.6247 C   0  0  0  0  0  0  0  0  0  0  0  0
   33.4819   34.6973   13.8998 C   0  0  0  0  0  0  0  0  0  0  0  0
   33.4373   33.9783   14.9164 O   0  0  0  0  0  0  0  0  0  0  0  0
   32.9309   34.3204   12.7544 N   0  0  0  0  0  0  0  0  0  0  0  0
   32.9794   34.9208   11.9757 H   0  0  0  0  0  0  0  0  0  0  0  0
   34.1873   36.0764   13.9219 C   0  0  0  0  0  0  0  0  0  0  0  0
   35.5777   36.0420   14.1871 O   0  0  0  0  0  0  0  0  0  0  0  0
   36.9212   35.7522   12.2015 C   0  0  0  0  0  0  0  0  0  0  0  0
   36.4743   36.5721   13.2439 C   0  0  0  0  0  0  0  0  0  0  0  0
   36.9412   37.9064   13.2936 C   0  0  0  0  0  0  0  0  0  0  0  0
   37.8309   38.3698   12.3202 C   0  0  0  0  0  0  0  0  0  0  0  0
   38.2587   37.5476   11.3170 C   0  0  0  0  0  0  0  0  0  0  0  0
   37.8100   36.2490   11.2427 C   0  0  0  0  0  0  0  0  0  0  0  0
   36.4502   38.8576   14.3649 C   0  0  0  0  0  0  0  0  0  0  0  0
   36.4391   34.3208   12.0969 C   0  0  0  0  0  0  0  0  0  0  0  0
   31.2498   33.1104   11.4962 C   0  0  0  0  0  0  0  0  0  0  0  0
   30.0563   32.2391   11.6868 C   0  0  0  0  0  0  0  0  0  0  0  0
   29.8623   31.5527   12.8802 C   0  0  0  0  0  0  0  0  0  0  0  0
   28.7755   30.6628   13.0348 C   0  0  0  0  0  0  0  0  0  0  0  0
   27.8687   30.4679   11.9867 C   0  0  0  0  0  0  0  0  0  0  0  0
   28.0406   31.1554   10.7904 C   0  0  0  0  0  0  0  0  0  0  0  0
   29.1564   32.0506   10.6480 C   0  0  0  0  0  0  0  0  0  0  0  0
 30 31  2  0  0  0
 30 35  1  0  0  0
 30 37  1  0  0  0
 31 32  1  0  0  0
 31 29  1  0  0  0
 32 33  2  0  0  0
 32 36  1  0  0  0
 33 34  1  0  0  0
 34 35  2  0  0  0
 10 11  2  0  0  0
 10 16  1  0  0  0
 10  7  1  0  0  0
 11 12  1  0  0  0
 12 13  2  0  0  0
 13 14  1  0  0  0
 14 15  1  0  0  0
 14 16  2  0  0  0
 29 28  1  0  0  0
 28 24  1  0  0  0
 24 25  2  0  0  0
 24 26  1  0  0  0
 26 23  1  0  0  0
  1  2  1  0  0  0
  1  4  1  0  0  0
  1 23  1  0  0  0
  4  5  1  0  0  0
  5 19  1  0  0  0
  5  6  1  0  0  0
 19 20  1  0  0  0
 20 21  1  0  0  0
 20 22  1  0  0  0
  6  7  1  0  0  0
  7  8  2  0  0  0
 23 38  1  0  0  0
 38 39  1  0  0  0
 39 40  2  0  0  0
 39 44  1  0  0  0
 40 41  1  0  0  0
 41 42  2  0  0  0
 42 43  1  0  0  0
 43 44  2  0  0  0
 15 17  1  0  0  0
 15 18  1  0  0  0
 26 27  1  0  0  0
  2  3  1  0  0  0
  6  9  1  0  0  0
M  END
> <minimizedAffinity>
-8.85802

$$$$
1LEE_R36_A_500


 44 46  0  0  0  0  0  0  0  0999 V2000
   33.6806   33.8606   14.0164 C   0  0  0  0  0  0  0  0  0  0  0  0
   32.9866   33.5490   15.2183 O   0  0  0  0  0  0  0  0  0  0  0  0
   32.1434   34.0282   15.2383 H   0  0  0  0  0  0  0  0  0  0  0  0
   32.7123   33.4697   12.9563 C   0  0  0  0  0  0  0  0  0  0  0  0
   32.8305   32.0965   12.3532 C   0  0  0  0  0  0  0  0  0  0  0  0
   31.5980   31.7389   11.6416 N   0  0  0  0  0  0  0  0  0  0  0  0
   30.4808   31.3146   12.2277 C   0  0  0  0  0  0  0  0  0  0  0  0
   30.3855   31.1920   13.4559 O   0  0  0  0  0  0  0  0  0  0  0  0
   31.5974   31.8186   10.6604 H   0  0  0  0  0  0  0  0  0  0  0  0
   29.4008   30.9918   11.3435 C   0  0  0  0  0  0  0  0  0  0  0  0
   28.5982   32.0139   10.8107 C   0  0  0  0  0  0  0  0  0  0  0  0
   27.5393   31.7382    9.9053 C   0  0  0  0  0  0  0  0  0  0  0  0
   27.2747   30.4528    9.5281 C   0  0  0  0  0  0  0  0  0  0  0  0
   28.0515   29.4002   10.0371 C   0  0  0  0  0  0  0  0  0  0  0  0
   27.7974   28.0351    9.5601 N   0  0  0  0  0  0  0  0  0  0  0  0
   29.1135   29.6691   10.9444 C   0  0  0  0  0  0  0  0  0  0  0  0
   27.0591   27.8625    8.9322 H   0  0  0  0  0  0  0  0  0  0  0  0
   28.3654   27.2923    9.8682 H   0  0  0  0  0  0  0  0  0  0  0  0
   34.0867   31.9998   11.4765 C   0  0  0  0  0  0  0  0  0  0  0  0
   34.3765   30.8520   10.4945 C   0  0  0  0  0  0  0  0  0  0  0  0
   35.8619   30.7765   10.3339 C   0  0  0  0  0  0  0  0  0  0  0  0
   33.7741   31.0573    9.1298 C   0  0  0  0  0  0  0  0  0  0  0  0
   33.9229   35.3862   13.9834 C   0  0  0  0  0  0  0  0  0  0  0  0
   32.0046   36.8296   14.2679 C   0  0  0  0  0  0  0  0  0  0  0  0
   31.9407   37.0248   13.0390 O   0  0  0  0  0  0  0  0  0  0  0  0
   32.9380   36.0552   14.8034 N   0  0  0  0  0  0  0  0  0  0  0  0
   32.9609   35.9332   15.7801 H   0  0  0  0  0  0  0  0  0  0  0  0
   30.9913   37.4856   15.2389 C   0  0  0  0  0  0  0  0  0  0  0  0
   29.9706   38.2504   14.6243 O   0  0  0  0  0  0  0  0  0  0  0  0
   30.3619   40.6322   14.6983 C   0  0  0  0  0  0  0  0  0  0  0  0
   29.6467   39.5150   15.1442 C   0  0  0  0  0  0  0  0  0  0  0  0
   28.6188   39.7138   16.0954 C   0  0  0  0  0  0  0  0  0  0  0  0
   28.3472   41.0007   16.5687 C   0  0  0  0  0  0  0  0  0  0  0  0
   29.0646   42.0744   16.1239 C   0  0  0  0  0  0  0  0  0  0  0  0
   30.0623   41.9063   15.1913 C   0  0  0  0  0  0  0  0  0  0  0  0
   27.7734   38.5521   16.5740 C   0  0  0  0  0  0  0  0  0  0  0  0
   31.4619   40.4729   13.6702 C   0  0  0  0  0  0  0  0  0  0  0  0
   35.3136   35.6726   14.5150 C   0  0  0  0  0  0  0  0  0  0  0  0
   36.2729   36.1769   13.4926 C   0  0  0  0  0  0  0  0  0  0  0  0
   36.6523   37.5144   13.4744 C   0  0  0  0  0  0  0  0  0  0  0  0
   37.4978   38.0130   12.4578 C   0  0  0  0  0  0  0  0  0  0  0  0
   37.9759   37.1601   11.4564 C   0  0  0  0  0  0  0  0  0  0  0  0
   37.6164   35.8170   11.4662 C   0  0  0  0  0  0  0  0  0  0  0  0
   36.7490   35.3288   12.5034 C   0  0  0  0  0  0  0  0  0  0  0  0
 30 31  2  0  0  0
 30 35  1  0  0  0
 30 37  1  0  0  0
 31 32  1  0  0  0
 31 29  1  0  0  0
 32 33  2  0  0  0
 32 36  1  0  0  0
 33 34  1  0  0  0
 34 35  2  0  0  0
 10 11  2  0  0  0
 10 16  1  0  0  0
 10  7  1  0  0  0
 11 12  1  0  0  0
 12 13  2  0  0  0
 13 14  1  0  0  0
 14 15  1  0  0  0
 14 16  2  0  0  0
 29 28  1  0  0  0
 28 24  1  0  0  0
 24 25  2  0  0  0
 24 26  1  0  0  0
 26 23  1  0  0  0
  1  2  1  0  0  0
  1  4  1  0  0  0
  1 23  1  0  0  0
  4  5  1  0  0  0
  5 19  1  0  0  0
  5  6  1  0  0  0
 19 20  1  0  0  0
 20 21  1  0  0  0
 20 22  1  0  0  0
  6  7  1  0  0  0
  7  8  2  0  0  0
 23 38  1  0  0  0
 38 39  1  0  0  0
 39 40  2  0  0  0
 39 44  1  0  0  0
 40 41  1  0  0  0
 41 42  2  0  0  0
 42 43  1  0  0  0
 43 44  2  0  0  0
 15 17  1  0  0  0
 15 18  1  0  0  0
 26 27  1  0  0  0
  2  3  1  0  0  0
  6  9  1  0  0  0
M  END
> <minimizedAffinity>
-8.81201

$$$$
1LEE_R36_A_500


 44 46  0  0  0  0  0  0  0  0999 V2000
   32.4054   29.8063   10.5300 C   0  0  0  0  0  0  0  0  0  0  0  0
   33.6625   29.1892   10.7795 O   0  0  0  0  0  0  0  0  0  0  0  0
   34.2974   29.4619   10.0987 H   0  0  0  0  0  0  0  0  0  0  0  0
   32.7362   31.2571   10.5266 C   0  0  0  0  0  0  0  0  0  0  0  0
   32.4836   32.0493   11.7804 C   0  0  0  0  0  0  0  0  0  0  0  0
   33.5318   33.0583   11.9716 N   0  0  0  0  0  0  0  0  0  0  0  0
   33.7645   33.7020   13.1132 C   0  0  0  0  0  0  0  0  0  0  0  0
   33.1024   33.4893   14.1374 O   0  0  0  0  0  0  0  0  0  0  0  0
   34.1040   33.2746   11.2002 H   0  0  0  0  0  0  0  0  0  0  0  0
   34.8198   34.6702   13.0752 C   0  0  0  0  0  0  0  0  0  0  0  0
   35.9365   34.4616   12.2495 C   0  0  0  0  0  0  0  0  0  0  0  0
   36.9875   35.4125   12.1586 C   0  0  0  0  0  0  0  0  0  0  0  0
   36.9336   36.5679   12.8843 C   0  0  0  0  0  0  0  0  0  0  0  0
   35.8361   36.8167   13.7233 C   0  0  0  0  0  0  0  0  0  0  0  0
   35.7632   38.0982   14.4361 N   0  0  0  0  0  0  0  0  0  0  0  0
   34.7800   35.8686   13.8192 C   0  0  0  0  0  0  0  0  0  0  0  0
   36.5011   38.7457   14.3613 H   0  0  0  0  0  0  0  0  0  0  0  0
   34.9766   38.3100   14.9888 H   0  0  0  0  0  0  0  0  0  0  0  0
   31.0674   32.6412   11.7672 C   0  0  0  0  0  0  0  0  0  0  0  0
   29.7778   31.8102   11.6565 C   0  0  0  0  0  0  0  0  0  0  0  0
   28.9283   32.4561   10.6081 C   0  0  0  0  0  0  0  0  0  0  0  0
   28.9793   31.7605   12.9322 C   0  0  0  0  0  0  0  0  0  0  0  0
   31.9228   29.3643    9.1303 C   0  0  0  0  0  0  0  0  0  0  0  0
   33.3479   29.4087    7.1780 C   0  0  0  0  0  0  0  0  0  0  0  0
   32.6755   30.3320    6.6803 O   0  0  0  0  0  0  0  0  0  0  0  0
   33.0447   28.8821    8.3563 N   0  0  0  0  0  0  0  0  0  0  0  0
   33.5951   28.1473    8.7118 H   0  0  0  0  0  0  0  0  0  0  0  0
   34.5795   28.8249    6.4416 C   0  0  0  0  0  0  0  0  0  0  0  0
   35.7569   29.6078    6.5147 O   0  0  0  0  0  0  0  0  0  0  0  0
   35.9509   31.6311    7.8186 C   0  0  0  0  0  0  0  0  0  0  0  0
   36.0911   30.2419    7.7233 C   0  0  0  0  0  0  0  0  0  0  0  0
   36.5560   29.5363    8.8576 C   0  0  0  0  0  0  0  0  0  0  0  0
   36.8679   30.2304   10.0302 C   0  0  0  0  0  0  0  0  0  0  0  0
   36.7300   31.5876   10.0959 C   0  0  0  0  0  0  0  0  0  0  0  0
   36.2699   32.2937    9.0083 C   0  0  0  0  0  0  0  0  0  0  0  0
   36.6753   28.0268    8.8335 C   0  0  0  0  0  0  0  0  0  0  0  0
   35.4434   32.4293    6.6364 C   0  0  0  0  0  0  0  0  0  0  0  0
   30.8979   28.2589    9.2923 C   0  0  0  0  0  0  0  0  0  0  0  0
   29.4991   28.7372    9.4781 C   0  0  0  0  0  0  0  0  0  0  0  0
   28.8528   28.5825   10.6993 C   0  0  0  0  0  0  0  0  0  0  0  0
   27.5002   28.9608   10.8553 C   0  0  0  0  0  0  0  0  0  0  0  0
   26.7925   29.5094    9.7796 C   0  0  0  0  0  0  0  0  0  0  0  0
   27.4269   29.6825    8.5545 C   0  0  0  0  0  0  0  0  0  0  0  0
   28.8009   29.2846    8.4117 C   0  0  0  0  0  0  0  0  0  0  0  0
 30 31  2  0  0  0
 30 35  1  0  0  0
 30 37  1  0  0  0
 31 32  1  0  0  0
 31 29  1  0  0  0
 32 33  2  0  0  0
 32 36  1  0  0  0
 33 34  1  0  0  0
 34 35  2  0  0  0
 10 11  2  0  0  0
 10 16  1  0  0  0
 10  7  1  0  0  0
 11 12  1  0  0  0
 12 13  2  0  0  0
 13 14  1  0  0  0
 14 15  1  0  0  0
 14 16  2  0  0  0
 29 28  1  0  0  0
 28 24  1  0  0  0
 24 25  2  0  0  0
 24 26  1  0  0  0
 26 23  1  0  0  0
  1  2  1  0  0  0
  1  4  1  0  0  0
  1 23  1  0  0  0
  4  5  1  0  0  0
  5 19  1  0  0  0
  5  6  1  0  0  0
 19 20  1  0  0  0
 20 21  1  0  0  0
 20 22  1  0  0  0
  6  7  1  0  0  0
  7  8  2  0  0  0
 23 38  1  0  0  0
 38 39  1  0  0  0
 39 40  2  0  0  0
 39 44  1  0  0  0
 40 41  1  0  0  0
 41 42  2  0  0  0
 42 43  1  0  0  0
 43 44  2  0  0  0
 15 17  1  0  0  0
 15 18  1  0  0  0
 26 27  1  0  0  0
  2  3  1  0  0  0
  6  9  1  0  0  0
M  END
> <minimizedAffinity>
-8.67325

$$$$
