4POX_2W2_A_301


 29 28  0  0  0  0  0  0  0  0999 V2000
   17.9998   -6.0603   -1.8099 C   0  0  0  0  0  0  0  0  0  0  0  0
   16.9794   -8.2267   -1.8763 O   0  0  0  0  0  0  0  0  0  0  0  0
   16.8028   -6.9907   -2.0043 C   0  0  0  0  0  0  0  0  0  0  0  0
   15.6736   -6.5187   -2.2928 O   0  0  0  0  0  0  0  0  0  0  0  0
   17.8287   -8.5587   -1.6609 H   0  0  0  0  0  0  0  0  0  0  0  0
   18.4341   -6.1324   -0.3885 N   0  0  0  0  0  0  0  0  0  0  0  0
   17.6669   -6.5644    0.1264 H   0  0  0  0  0  0  0  0  0  0  0  0
   19.6507   -6.8512   -0.0010 C   0  0  0  0  0  0  0  0  0  0  0  0
   20.9067   -6.0517   -0.1289 C   0  0  0  0  0  0  0  0  0  0  0  0
   20.8447   -4.7964   -0.2278 O   0  0  0  0  0  0  0  0  0  0  0  0
   22.0383   -6.6306   -0.1389 O   0  0  0  0  0  0  0  0  0  0  0  0
   20.0122   -4.3665   -0.2208 H   0  0  0  0  0  0  0  0  0  0  0  0
   19.4879   -7.4295    1.3900 C   0  0  0  0  0  0  0  0  0  0  0  0
   18.2293   -8.1773    1.7137 C   0  0  0  0  0  0  0  0  0  0  0  0
   17.9108   -8.5848    3.1253 C   0  0  0  0  0  0  0  0  0  0  0  0
   18.7954   -8.6480    4.0231 O   0  0  0  0  0  0  0  0  0  0  0  0
   16.7239   -8.8982    3.4144 O   0  0  0  0  0  0  0  0  0  0  0  0
   16.0554   -8.8566    2.7591 H   0  0  0  0  0  0  0  0  0  0  0  0
   19.0621   -6.3247   -2.8691 C   0  0  0  0  0  0  0  0  0  0  0  0
   18.5680   -6.8053   -4.1993 C   0  0  0  0  0  0  0  0  0  0  0  0
   19.3989   -6.5934   -5.4165 C   0  0  0  0  0  0  0  0  0  0  0  0
   20.1075   -7.7955   -5.8116 N   0  0  0  0  0  0  0  0  0  0  0  0
   20.1464   -8.5505   -5.1810 H   0  0  0  0  0  0  0  0  0  0  0  0
   20.7609   -7.9288   -7.0987 C   0  0  0  0  0  0  0  0  0  0  0  0
   21.4916   -8.9899   -7.3092 N   0  0  0  0  0  0  0  0  0  0  0  0
   20.6348   -7.0458   -8.0372 N   0  0  0  0  0  0  0  0  0  0  0  0
   21.9483   -9.1096   -8.1731 H   0  0  0  0  0  0  0  0  0  0  0  0
   21.5861   -9.6704   -6.6040 H   0  0  0  0  0  0  0  0  0  0  0  0
   21.0952   -7.1731   -8.8980 H   0  0  0  0  0  0  0  0  0  0  0  0
 26 24  2  0  0  0
 25 24  1  0  0  0
 24 22  1  0  0  0
 22 21  1  0  0  0
 21 20  1  0  0  0
 20 19  1  0  0  0
 19  1  1  0  0  0
  4  3  2  0  0  0
  3  1  1  0  0  0
  3  2  1  0  0  0
  1  6  1  0  0  0
  6  8  1  0  0  0
  8  9  1  0  0  0
  8 13  1  0  0  0
 11  9  2  0  0  0
  9 10  1  0  0  0
 13 14  1  0  0  0
 16 15  2  0  0  0
 14 15  1  0  0  0
 15 17  1  0  0  0
  2  5  1  0  0  0
 17 18  1  0  0  0
 10 12  1  0  0  0
  6  7  1  0  0  0
 22 23  1  0  0  0
 25 27  1  0  0  0
 25 28  1  0  0  0
 26 29  1  0  0  0
M  END
> <minimizedAffinity>
-9.18833

$$$$
4POX_2W2_A_301


 29 28  0  0  0  0  0  0  0  0999 V2000
   19.2183   -6.4700    0.2919 C   0  0  0  0  0  0  0  0  0  0  0  0
   21.0920   -7.7145   -0.5325 O   0  0  0  0  0  0  0  0  0  0  0  0
   20.6320   -6.5744   -0.2802 C   0  0  0  0  0  0  0  0  0  0  0  0
   21.3119   -5.5362   -0.4823 O   0  0  0  0  0  0  0  0  0  0  0  0
   20.5693   -8.4760   -0.3749 H   0  0  0  0  0  0  0  0  0  0  0  0
   18.3063   -5.9795   -0.7766 N   0  0  0  0  0  0  0  0  0  0  0  0
   18.6183   -5.0375   -1.0127 H   0  0  0  0  0  0  0  0  0  0  0  0
   18.1645   -6.6997   -2.0447 C   0  0  0  0  0  0  0  0  0  0  0  0
   16.8746   -7.4396   -2.1928 C   0  0  0  0  0  0  0  0  0  0  0  0
   16.8396   -8.5155   -2.8491 O   0  0  0  0  0  0  0  0  0  0  0  0
   15.8114   -6.9900   -1.6606 O   0  0  0  0  0  0  0  0  0  0  0  0
   17.6214   -8.8498   -3.2427 H   0  0  0  0  0  0  0  0  0  0  0  0
   18.4117   -5.7568   -3.2046 C   0  0  0  0  0  0  0  0  0  0  0  0
   19.5660   -6.0331   -4.1208 C   0  0  0  0  0  0  0  0  0  0  0  0
   19.5431   -7.2017   -5.0662 C   0  0  0  0  0  0  0  0  0  0  0  0
   19.5466   -7.0534   -6.3194 O   0  0  0  0  0  0  0  0  0  0  0  0
   19.4930   -8.3683   -4.5896 O   0  0  0  0  0  0  0  0  0  0  0  0
   19.4896   -8.4953   -3.6612 H   0  0  0  0  0  0  0  0  0  0  0  0
   18.8261   -7.7650    0.9915 C   0  0  0  0  0  0  0  0  0  0  0  0
   19.2460   -7.8995    2.4233 C   0  0  0  0  0  0  0  0  0  0  0  0
   18.3258   -8.5346    3.4066 C   0  0  0  0  0  0  0  0  0  0  0  0
   18.5174   -8.0182    4.7483 N   0  0  0  0  0  0  0  0  0  0  0  0
   19.3646   -7.5656    4.9644 H   0  0  0  0  0  0  0  0  0  0  0  0
   17.5103   -8.1425    5.7835 C   0  0  0  0  0  0  0  0  0  0  0  0
   17.9090   -8.1832    7.0259 N   0  0  0  0  0  0  0  0  0  0  0  0
   16.2444   -8.2023    5.5184 N   0  0  0  0  0  0  0  0  0  0  0  0
   17.2495   -8.2672    7.7520 H   0  0  0  0  0  0  0  0  0  0  0  0
   18.8692   -8.1298    7.2368 H   0  0  0  0  0  0  0  0  0  0  0  0
   15.5916   -8.2866    6.2505 H   0  0  0  0  0  0  0  0  0  0  0  0
 26 24  2  0  0  0
 25 24  1  0  0  0
 24 22  1  0  0  0
 22 21  1  0  0  0
 21 20  1  0  0  0
 20 19  1  0  0  0
 19  1  1  0  0  0
  4  3  2  0  0  0
  3  1  1  0  0  0
  3  2  1  0  0  0
  1  6  1  0  0  0
  6  8  1  0  0  0
  8  9  1  0  0  0
  8 13  1  0  0  0
 11  9  2  0  0  0
  9 10  1  0  0  0
 13 14  1  0  0  0
 16 15  2  0  0  0
 14 15  1  0  0  0
 15 17  1  0  0  0
  2  5  1  0  0  0
 17 18  1  0  0  0
 10 12  1  0  0  0
  6  7  1  0  0  0
 22 23  1  0  0  0
 25 27  1  0  0  0
 25 28  1  0  0  0
 26 29  1  0  0  0
M  END
> <minimizedAffinity>
-8.83248

$$$$
4POX_2W2_A_301


 29 28  0  0  0  0  0  0  0  0999 V2000
   19.4587   -6.3113   -1.2161 C   0  0  0  0  0  0  0  0  0  0  0  0
   20.7690   -4.5339   -0.2871 O   0  0  0  0  0  0  0  0  0  0  0  0
   20.7372   -5.7506   -0.5937 C   0  0  0  0  0  0  0  0  0  0  0  0
   21.7305   -6.4980   -0.4045 O   0  0  0  0  0  0  0  0  0  0  0  0
   20.0182   -3.9935   -0.4361 H   0  0  0  0  0  0  0  0  0  0  0  0
   18.3051   -5.9397   -0.3528 N   0  0  0  0  0  0  0  0  0  0  0  0
   17.6614   -5.4120   -0.9423 H   0  0  0  0  0  0  0  0  0  0  0  0
   17.5036   -6.9612    0.3261 C   0  0  0  0  0  0  0  0  0  0  0  0
   16.3608   -7.4858   -0.4814 C   0  0  0  0  0  0  0  0  0  0  0  0
   15.2014   -7.5105    0.0133 O   0  0  0  0  0  0  0  0  0  0  0  0
   16.5511   -7.9078   -1.6653 O   0  0  0  0  0  0  0  0  0  0  0  0
   15.0576   -7.2002    0.8856 H   0  0  0  0  0  0  0  0  0  0  0  0
   18.4014   -8.0750    0.8251 C   0  0  0  0  0  0  0  0  0  0  0  0
   19.0353   -7.9348    2.1766 C   0  0  0  0  0  0  0  0  0  0  0  0
   18.3415   -8.4327    3.4139 C   0  0  0  0  0  0  0  0  0  0  0  0
   18.9716   -8.7220    4.4683 O   0  0  0  0  0  0  0  0  0  0  0  0
   17.0904   -8.5902    3.3875 O   0  0  0  0  0  0  0  0  0  0  0  0
   16.6080   -8.3800    2.6122 H   0  0  0  0  0  0  0  0  0  0  0  0
   19.3678   -5.9315   -2.6884 C   0  0  0  0  0  0  0  0  0  0  0  0
   19.3860   -7.0644   -3.6686 C   0  0  0  0  0  0  0  0  0  0  0  0
   19.9018   -6.8403   -5.0472 C   0  0  0  0  0  0  0  0  0  0  0  0
   20.4110   -8.0591   -5.6461 N   0  0  0  0  0  0  0  0  0  0  0  0
   20.4286   -8.8809   -5.1042 H   0  0  0  0  0  0  0  0  0  0  0  0
   20.8952   -8.1147   -7.0112 C   0  0  0  0  0  0  0  0  0  0  0  0
   20.6486   -7.0978   -7.7919 N   0  0  0  0  0  0  0  0  0  0  0  0
   21.5651   -9.1228   -7.4709 N   0  0  0  0  0  0  0  0  0  0  0  0
   20.9641   -7.1052   -8.7244 H   0  0  0  0  0  0  0  0  0  0  0  0
   20.1472   -6.3235   -7.4480 H   0  0  0  0  0  0  0  0  0  0  0  0
   21.8766   -9.1223   -8.4048 H   0  0  0  0  0  0  0  0  0  0  0  0
 26 24  2  0  0  0
 25 24  1  0  0  0
 24 22  1  0  0  0
 22 21  1  0  0  0
 21 20  1  0  0  0
 20 19  1  0  0  0
 19  1  1  0  0  0
  4  3  2  0  0  0
  3  1  1  0  0  0
  3  2  1  0  0  0
  1  6  1  0  0  0
  6  8  1  0  0  0
  8  9  1  0  0  0
  8 13  1  0  0  0
 11  9  2  0  0  0
  9 10  1  0  0  0
 13 14  1  0  0  0
 16 15  2  0  0  0
 14 15  1  0  0  0
 15 17  1  0  0  0
  2  5  1  0  0  0
 17 18  1  0  0  0
 10 12  1  0  0  0
  6  7  1  0  0  0
 22 23  1  0  0  0
 25 27  1  0  0  0
 25 28  1  0  0  0
 26 29  1  0  0  0
M  END
> <minimizedAffinity>
-8.52250

$$$$
4POX_2W2_A_301


 29 28  0  0  0  0  0  0  0  0999 V2000
   17.4568   -7.1179   -0.4701 C   0  0  0  0  0  0  0  0  0  0  0  0
   15.1097   -7.5728   -0.3178 O   0  0  0  0  0  0  0  0  0  0  0  0
   16.0317   -7.0943   -1.0222 C   0  0  0  0  0  0  0  0  0  0  0  0
   15.8009   -6.6111   -2.1599 O   0  0  0  0  0  0  0  0  0  0  0  0
   15.3023   -7.9282    0.5275 H   0  0  0  0  0  0  0  0  0  0  0  0
   18.1636   -5.8886   -0.9212 N   0  0  0  0  0  0  0  0  0  0  0  0
   18.3969   -5.3638   -0.0783 H   0  0  0  0  0  0  0  0  0  0  0  0
   19.3926   -5.9665   -1.7151 C   0  0  0  0  0  0  0  0  0  0  0  0
   20.5946   -6.4149   -0.9487 C   0  0  0  0  0  0  0  0  0  0  0  0
   20.9454   -7.6253   -0.9825 O   0  0  0  0  0  0  0  0  0  0  0  0
   21.2659   -5.5821   -0.2619 O   0  0  0  0  0  0  0  0  0  0  0  0
   20.4528   -8.2419   -1.4877 H   0  0  0  0  0  0  0  0  0  0  0  0
   19.1585   -6.8163   -2.9474 C   0  0  0  0  0  0  0  0  0  0  0  0
   19.2911   -6.1760   -4.2967 C   0  0  0  0  0  0  0  0  0  0  0  0
   19.8354   -6.9437   -5.4691 C   0  0  0  0  0  0  0  0  0  0  0  0
   20.7156   -7.8383   -5.3373 O   0  0  0  0  0  0  0  0  0  0  0  0
   19.4158   -6.6655   -6.6254 O   0  0  0  0  0  0  0  0  0  0  0  0
   18.7625   -6.0038   -6.7402 H   0  0  0  0  0  0  0  0  0  0  0  0
   17.4471   -7.3966    1.0275 C   0  0  0  0  0  0  0  0  0  0  0  0
   18.5934   -8.2005    1.5605 C   0  0  0  0  0  0  0  0  0  0  0  0
   18.4878   -8.8385    2.9017 C   0  0  0  0  0  0  0  0  0  0  0  0
   17.2954   -8.4212    3.6140 N   0  0  0  0  0  0  0  0  0  0  0  0
   16.4580   -8.3079    3.1089 H   0  0  0  0  0  0  0  0  0  0  0  0
   17.2884   -8.1643    5.0406 C   0  0  0  0  0  0  0  0  0  0  0  0
   18.4326   -8.1596    5.6691 N   0  0  0  0  0  0  0  0  0  0  0  0
   16.1986   -7.9314    5.6998 N   0  0  0  0  0  0  0  0  0  0  0  0
   18.4612   -7.9882    6.6381 H   0  0  0  0  0  0  0  0  0  0  0  0
   19.2668   -8.3273    5.1740 H   0  0  0  0  0  0  0  0  0  0  0  0
   16.2361   -7.7614    6.6688 H   0  0  0  0  0  0  0  0  0  0  0  0
 26 24  2  0  0  0
 25 24  1  0  0  0
 24 22  1  0  0  0
 22 21  1  0  0  0
 21 20  1  0  0  0
 20 19  1  0  0  0
 19  1  1  0  0  0
  4  3  2  0  0  0
  3  1  1  0  0  0
  3  2  1  0  0  0
  1  6  1  0  0  0
  6  8  1  0  0  0
  8  9  1  0  0  0
  8 13  1  0  0  0
 11  9  2  0  0  0
  9 10  1  0  0  0
 13 14  1  0  0  0
 16 15  2  0  0  0
 14 15  1  0  0  0
 15 17  1  0  0  0
  2  5  1  0  0  0
 17 18  1  0  0  0
 10 12  1  0  0  0
  6  7  1  0  0  0
 22 23  1  0  0  0
 25 27  1  0  0  0
 25 28  1  0  0  0
 26 29  1  0  0  0
M  END
> <minimizedAffinity>
-8.22477

$$$$
4POX_2W2_A_301


 29 28  0  0  0  0  0  0  0  0999 V2000
   17.5986   -7.2117   -0.5562 C   0  0  0  0  0  0  0  0  0  0  0  0
   16.2791   -7.1688    1.4429 O   0  0  0  0  0  0  0  0  0  0  0  0
   16.2700   -7.2993    0.1946 C   0  0  0  0  0  0  0  0  0  0  0  0
   15.2000   -7.5051   -0.4329 O   0  0  0  0  0  0  0  0  0  0  0  0
   17.0870   -7.0159    1.8921 H   0  0  0  0  0  0  0  0  0  0  0  0
   18.5788   -8.1177    0.1014 N   0  0  0  0  0  0  0  0  0  0  0  0
   18.8526   -8.8052   -0.6005 H   0  0  0  0  0  0  0  0  0  0  0  0
   19.8206   -7.6009    0.6825 C   0  0  0  0  0  0  0  0  0  0  0  0
   20.2980   -6.3202    0.0784 C   0  0  0  0  0  0  0  0  0  0  0  0
   19.6041   -5.2741    0.1943 O   0  0  0  0  0  0  0  0  0  0  0  0
   21.4008   -6.2795   -0.5524 O   0  0  0  0  0  0  0  0  0  0  0  0
   18.7907   -5.3005    0.6586 H   0  0  0  0  0  0  0  0  0  0  0  0
   19.6831   -7.4991    2.1880 C   0  0  0  0  0  0  0  0  0  0  0  0
   18.9057   -8.5579    2.9110 C   0  0  0  0  0  0  0  0  0  0  0  0
   18.3663   -8.3159    4.2933 C   0  0  0  0  0  0  0  0  0  0  0  0
   17.1908   -7.9030    4.4940 O   0  0  0  0  0  0  0  0  0  0  0  0
   19.1234   -8.5081    5.2835 O   0  0  0  0  0  0  0  0  0  0  0  0
   19.9989   -8.8145    5.1513 H   0  0  0  0  0  0  0  0  0  0  0  0
   17.3825   -7.3999   -2.0522 C   0  0  0  0  0  0  0  0  0  0  0  0
   17.7312   -6.2334   -2.9253 C   0  0  0  0  0  0  0  0  0  0  0  0
   19.1504   -5.9947   -3.3072 C   0  0  0  0  0  0  0  0  0  0  0  0
   19.7651   -7.1710   -3.8921 N   0  0  0  0  0  0  0  0  0  0  0  0
   20.0755   -7.8891   -3.2944 H   0  0  0  0  0  0  0  0  0  0  0  0
   19.9402   -7.3307   -5.3221 C   0  0  0  0  0  0  0  0  0  0  0  0
   19.3162   -6.5007   -6.1134 N   0  0  0  0  0  0  0  0  0  0  0  0
   20.6947   -8.2512   -5.8317 N   0  0  0  0  0  0  0  0  0  0  0  0
   19.4147   -6.5830   -7.0895 H   0  0  0  0  0  0  0  0  0  0  0  0
   18.7471   -5.7926   -5.7340 H   0  0  0  0  0  0  0  0  0  0  0  0
   20.7874   -8.3266   -6.8089 H   0  0  0  0  0  0  0  0  0  0  0  0
 26 24  2  0  0  0
 25 24  1  0  0  0
 24 22  1  0  0  0
 22 21  1  0  0  0
 21 20  1  0  0  0
 20 19  1  0  0  0
 19  1  1  0  0  0
  4  3  2  0  0  0
  3  1  1  0  0  0
  3  2  1  0  0  0
  1  6  1  0  0  0
  6  8  1  0  0  0
  8  9  1  0  0  0
  8 13  1  0  0  0
 11  9  2  0  0  0
  9 10  1  0  0  0
 13 14  1  0  0  0
 16 15  2  0  0  0
 14 15  1  0  0  0
 15 17  1  0  0  0
  2  5  1  0  0  0
 17 18  1  0  0  0
 10 12  1  0  0  0
  6  7  1  0  0  0
 22 23  1  0  0  0
 25 27  1  0  0  0
 25 28  1  0  0  0
 26 29  1  0  0  0
M  END
> <minimizedAffinity>
-8.18913

$$$$
4POX_2W2_A_301


 29 28  0  0  0  0  0  0  0  0999 V2000
   18.1760   -6.7231   -1.7010 C   0  0  0  0  0  0  0  0  0  0  0  0
   16.8913   -8.3682   -2.8767 O   0  0  0  0  0  0  0  0  0  0  0  0
   17.0433   -7.1457   -2.6363 C   0  0  0  0  0  0  0  0  0  0  0  0
   16.2920   -6.2800   -3.1531 O   0  0  0  0  0  0  0  0  0  0  0  0
   17.4617   -8.9978   -2.4816 H   0  0  0  0  0  0  0  0  0  0  0  0
   18.3076   -7.7390   -0.6218 N   0  0  0  0  0  0  0  0  0  0  0  0
   19.3018   -7.9548   -0.5478 H   0  0  0  0  0  0  0  0  0  0  0  0
   17.8397   -7.4667    0.7398 C   0  0  0  0  0  0  0  0  0  0  0  0
   16.3554   -7.3540    0.8709 C   0  0  0  0  0  0  0  0  0  0  0  0
   15.8548   -6.8057    1.8898 O   0  0  0  0  0  0  0  0  0  0  0  0
   15.5938   -7.8084   -0.0398 O   0  0  0  0  0  0  0  0  0  0  0  0
   16.4132   -6.4697    2.5630 H   0  0  0  0  0  0  0  0  0  0  0  0
   18.4159   -8.4890    1.6981 C   0  0  0  0  0  0  0  0  0  0  0  0
   19.0676   -8.0041    2.9584 C   0  0  0  0  0  0  0  0  0  0  0  0
   18.4528   -8.2756    4.3032 C   0  0  0  0  0  0  0  0  0  0  0  0
   17.2134   -8.1614    4.5118 O   0  0  0  0  0  0  0  0  0  0  0  0
   19.2054   -8.6038    5.2605 O   0  0  0  0  0  0  0  0  0  0  0  0
   20.1278   -8.6928    5.1221 H   0  0  0  0  0  0  0  0  0  0  0  0
   19.4336   -6.3955   -2.4956 C   0  0  0  0  0  0  0  0  0  0  0  0
   19.2796   -6.3289   -3.9844 C   0  0  0  0  0  0  0  0  0  0  0  0
   19.8696   -7.3977   -4.8366 C   0  0  0  0  0  0  0  0  0  0  0  0
   19.6575   -7.1504   -6.2499 N   0  0  0  0  0  0  0  0  0  0  0  0
   18.8094   -6.7407   -6.5363 H   0  0  0  0  0  0  0  0  0  0  0  0
   20.6455   -7.4830   -7.2572 C   0  0  0  0  0  0  0  0  0  0  0  0
   21.2478   -8.6378   -7.1685 N   0  0  0  0  0  0  0  0  0  0  0  0
   20.9369   -6.6860   -8.2351 N   0  0  0  0  0  0  0  0  0  0  0  0
   21.9238   -8.8930   -7.8372 H   0  0  0  0  0  0  0  0  0  0  0  0
   21.0262   -9.2534   -6.4329 H   0  0  0  0  0  0  0  0  0  0  0  0
   21.6143   -6.9489   -8.8993 H   0  0  0  0  0  0  0  0  0  0  0  0
 26 24  2  0  0  0
 25 24  1  0  0  0
 24 22  1  0  0  0
 22 21  1  0  0  0
 21 20  1  0  0  0
 20 19  1  0  0  0
 19  1  1  0  0  0
  4  3  2  0  0  0
  3  1  1  0  0  0
  3  2  1  0  0  0
  1  6  1  0  0  0
  6  8  1  0  0  0
  8  9  1  0  0  0
  8 13  1  0  0  0
 11  9  2  0  0  0
  9 10  1  0  0  0
 13 14  1  0  0  0
 16 15  2  0  0  0
 14 15  1  0  0  0
 15 17  1  0  0  0
  2  5  1  0  0  0
 17 18  1  0  0  0
 10 12  1  0  0  0
  6  7  1  0  0  0
 22 23  1  0  0  0
 25 27  1  0  0  0
 25 28  1  0  0  0
 26 29  1  0  0  0
M  END
> <minimizedAffinity>
-8.12876

$$$$
4POX_2W2_A_301


 29 28  0  0  0  0  0  0  0  0999 V2000
   19.2437   -6.9315   -0.7665 C   0  0  0  0  0  0  0  0  0  0  0  0
   17.4412   -5.3734   -0.5168 O   0  0  0  0  0  0  0  0  0  0  0  0
   17.8648   -6.5239   -0.2480 C   0  0  0  0  0  0  0  0  0  0  0  0
   17.1824   -7.3277    0.4370 O   0  0  0  0  0  0  0  0  0  0  0  0
   17.9649   -4.7891   -1.0289 H   0  0  0  0  0  0  0  0  0  0  0  0
   19.4376   -6.3434   -2.1195 N   0  0  0  0  0  0  0  0  0  0  0  0
   20.4446   -6.2517   -2.2531 H   0  0  0  0  0  0  0  0  0  0  0  0
   18.9188   -7.0072   -3.3183 C   0  0  0  0  0  0  0  0  0  0  0  0
   17.4629   -7.3388   -3.2585 C   0  0  0  0  0  0  0  0  0  0  0  0
   17.0975   -8.5213   -3.0188 O   0  0  0  0  0  0  0  0  0  0  0  0
   16.5899   -6.4346   -3.4483 O   0  0  0  0  0  0  0  0  0  0  0  0
   17.7384   -9.1903   -2.8783 H   0  0  0  0  0  0  0  0  0  0  0  0
   19.2631   -6.1935   -4.5492 C   0  0  0  0  0  0  0  0  0  0  0  0
   19.2015   -6.8602   -5.8908 C   0  0  0  0  0  0  0  0  0  0  0  0
   20.4076   -7.5426   -6.4735 C   0  0  0  0  0  0  0  0  0  0  0  0
   20.7820   -7.3474   -7.6628 O   0  0  0  0  0  0  0  0  0  0  0  0
   21.0510   -8.3567   -5.7567 O   0  0  0  0  0  0  0  0  0  0  0  0
   20.7858   -8.5128   -4.8717 H   0  0  0  0  0  0  0  0  0  0  0  0
   20.3166   -6.6354    0.2734 C   0  0  0  0  0  0  0  0  0  0  0  0
   20.4884   -7.6541    1.3585 C   0  0  0  0  0  0  0  0  0  0  0  0
   19.8139   -7.4562    2.6711 C   0  0  0  0  0  0  0  0  0  0  0  0
   18.7497   -8.4169    2.8900 N   0  0  0  0  0  0  0  0  0  0  0  0
   18.5733   -9.0935    2.1969 H   0  0  0  0  0  0  0  0  0  0  0  0
   17.9356   -8.4200    4.0893 C   0  0  0  0  0  0  0  0  0  0  0  0
   18.5295   -8.2218    5.2348 N   0  0  0  0  0  0  0  0  0  0  0  0
   16.6537   -8.5995    4.0591 N   0  0  0  0  0  0  0  0  0  0  0  0
   18.0043   -8.2180    6.0675 H   0  0  0  0  0  0  0  0  0  0  0  0
   19.5027   -8.0761    5.2661 H   0  0  0  0  0  0  0  0  0  0  0  0
   16.1360   -8.5946    4.8965 H   0  0  0  0  0  0  0  0  0  0  0  0
 26 24  2  0  0  0
 25 24  1  0  0  0
 24 22  1  0  0  0
 22 21  1  0  0  0
 21 20  1  0  0  0
 20 19  1  0  0  0
 19  1  1  0  0  0
  4  3  2  0  0  0
  3  1  1  0  0  0
  3  2  1  0  0  0
  1  6  1  0  0  0
  6  8  1  0  0  0
  8  9  1  0  0  0
  8 13  1  0  0  0
 11  9  2  0  0  0
  9 10  1  0  0  0
 13 14  1  0  0  0
 16 15  2  0  0  0
 14 15  1  0  0  0
 15 17  1  0  0  0
  2  5  1  0  0  0
 17 18  1  0  0  0
 10 12  1  0  0  0
  6  7  1  0  0  0
 22 23  1  0  0  0
 25 27  1  0  0  0
 25 28  1  0  0  0
 26 29  1  0  0  0
M  END
> <minimizedAffinity>
-8.11423

$$$$
4POX_2W2_A_301


 29 28  0  0  0  0  0  0  0  0999 V2000
   19.3683   -7.6371    1.0480 C   0  0  0  0  0  0  0  0  0  0  0  0
   21.6283   -7.5788    1.8406 O   0  0  0  0  0  0  0  0  0  0  0  0
   20.8171   -8.1243    1.0533 C   0  0  0  0  0  0  0  0  0  0  0  0
   21.1787   -9.0455    0.2777 O   0  0  0  0  0  0  0  0  0  0  0  0
   21.3391   -6.8938    2.4108 H   0  0  0  0  0  0  0  0  0  0  0  0
   18.9543   -7.3868   -0.3591 N   0  0  0  0  0  0  0  0  0  0  0  0
   17.9368   -7.4552   -0.3774 H   0  0  0  0  0  0  0  0  0  0  0  0
   19.2985   -6.1369   -1.0418 C   0  0  0  0  0  0  0  0  0  0  0  0
   20.5475   -5.4854   -0.5431 C   0  0  0  0  0  0  0  0  0  0  0  0
   20.4801   -4.3883    0.0743 O   0  0  0  0  0  0  0  0  0  0  0  0
   21.6787   -6.0315   -0.7383 O   0  0  0  0  0  0  0  0  0  0  0  0
   19.6480   -3.9830    0.2199 H   0  0  0  0  0  0  0  0  0  0  0  0
   19.3368   -6.3602   -2.5399 C   0  0  0  0  0  0  0  0  0  0  0  0
   18.0406   -6.4042   -3.2924 C   0  0  0  0  0  0  0  0  0  0  0  0
   16.8365   -7.1010   -2.7225 C   0  0  0  0  0  0  0  0  0  0  0  0
   15.8316   -6.4675   -2.2964 O   0  0  0  0  0  0  0  0  0  0  0  0
   16.8427   -8.3597   -2.6448 O   0  0  0  0  0  0  0  0  0  0  0  0
   17.5813   -8.8447   -2.9567 H   0  0  0  0  0  0  0  0  0  0  0  0
   18.4865   -8.5681    1.8702 C   0  0  0  0  0  0  0  0  0  0  0  0
   18.4884   -8.3474    3.3521 C   0  0  0  0  0  0  0  0  0  0  0  0
   17.2183   -8.4712    4.1191 C   0  0  0  0  0  0  0  0  0  0  0  0
   16.9518   -7.2984    4.9297 N   0  0  0  0  0  0  0  0  0  0  0  0
   16.9062   -6.4192    4.4890 H   0  0  0  0  0  0  0  0  0  0  0  0
   16.7500   -7.3701    6.3633 C   0  0  0  0  0  0  0  0  0  0  0  0
   16.8836   -6.2727    7.0576 N   0  0  0  0  0  0  0  0  0  0  0  0
   16.4347   -8.4713    6.9668 N   0  0  0  0  0  0  0  0  0  0  0  0
   16.7531   -6.2885    8.0333 H   0  0  0  0  0  0  0  0  0  0  0  0
   17.1150   -5.4293    6.6056 H   0  0  0  0  0  0  0  0  0  0  0  0
   16.3063   -8.4784    7.9429 H   0  0  0  0  0  0  0  0  0  0  0  0
 26 24  2  0  0  0
 25 24  1  0  0  0
 24 22  1  0  0  0
 22 21  1  0  0  0
 21 20  1  0  0  0
 20 19  1  0  0  0
 19  1  1  0  0  0
  4  3  2  0  0  0
  3  1  1  0  0  0
  3  2  1  0  0  0
  1  6  1  0  0  0
  6  8  1  0  0  0
  8  9  1  0  0  0
  8 13  1  0  0  0
 11  9  2  0  0  0
  9 10  1  0  0  0
 13 14  1  0  0  0
 16 15  2  0  0  0
 14 15  1  0  0  0
 15 17  1  0  0  0
  2  5  1  0  0  0
 17 18  1  0  0  0
 10 12  1  0  0  0
  6  7  1  0  0  0
 22 23  1  0  0  0
 25 27  1  0  0  0
 25 28  1  0  0  0
 26 29  1  0  0  0
M  END
> <minimizedAffinity>
-7.55011

$$$$
4POX_2W2_A_301


 29 28  0  0  0  0  0  0  0  0999 V2000
   17.7106   -6.0567   -1.8386 C   0  0  0  0  0  0  0  0  0  0  0  0
   16.9315   -8.2529   -2.3943 O   0  0  0  0  0  0  0  0  0  0  0  0
   16.6044   -7.0877   -2.0620 C   0  0  0  0  0  0  0  0  0  0  0  0
   15.3979   -6.7632   -1.9206 O   0  0  0  0  0  0  0  0  0  0  0  0
   17.8363   -8.4750   -2.4945 H   0  0  0  0  0  0  0  0  0  0  0  0
   17.7738   -5.7316   -0.3880 N   0  0  0  0  0  0  0  0  0  0  0  0
   16.8342   -5.4433   -0.1154 H   0  0  0  0  0  0  0  0  0  0  0  0
   18.2041   -6.7280    0.5963 C   0  0  0  0  0  0  0  0  0  0  0  0
   17.0845   -7.4051    1.3183 C   0  0  0  0  0  0  0  0  0  0  0  0
   15.8905   -7.1609    0.9957 O   0  0  0  0  0  0  0  0  0  0  0  0
   17.3294   -8.2267    2.2568 O   0  0  0  0  0  0  0  0  0  0  0  0
   15.7065   -6.5559    0.3043 H   0  0  0  0  0  0  0  0  0  0  0  0
   19.1423   -7.7245   -0.0536 C   0  0  0  0  0  0  0  0  0  0  0  0
   20.5750   -7.7546    0.3874 C   0  0  0  0  0  0  0  0  0  0  0  0
   21.5251   -6.6515    0.0122 C   0  0  0  0  0  0  0  0  0  0  0  0
   22.7777   -6.7989    0.0550 O   0  0  0  0  0  0  0  0  0  0  0  0
   21.0532   -5.5338   -0.3322 O   0  0  0  0  0  0  0  0  0  0  0  0
   20.1254   -5.4082   -0.3690 H   0  0  0  0  0  0  0  0  0  0  0  0
   19.0061   -6.5084   -2.5004 C   0  0  0  0  0  0  0  0  0  0  0  0
   19.1110   -6.2819   -3.9777 C   0  0  0  0  0  0  0  0  0  0  0  0
   19.9557   -7.1863   -4.8056 C   0  0  0  0  0  0  0  0  0  0  0  0
   19.6547   -7.0739   -6.2199 N   0  0  0  0  0  0  0  0  0  0  0  0
   18.7913   -6.6858   -6.4903 H   0  0  0  0  0  0  0  0  0  0  0  0
   20.5753   -7.5108   -7.2508 C   0  0  0  0  0  0  0  0  0  0  0  0
   21.2402   -8.6165   -7.0517 N   0  0  0  0  0  0  0  0  0  0  0  0
   20.7480   -6.8533   -8.3528 N   0  0  0  0  0  0  0  0  0  0  0  0
   21.8731   -8.9398   -7.7329 H   0  0  0  0  0  0  0  0  0  0  0  0
   21.1086   -9.1270   -6.2202 H   0  0  0  0  0  0  0  0  0  0  0  0
   21.3832   -7.1835   -9.0286 H   0  0  0  0  0  0  0  0  0  0  0  0
 26 24  2  0  0  0
 25 24  1  0  0  0
 24 22  1  0  0  0
 22 21  1  0  0  0
 21 20  1  0  0  0
 20 19  1  0  0  0
 19  1  1  0  0  0
  4  3  2  0  0  0
  3  1  1  0  0  0
  3  2  1  0  0  0
  1  6  1  0  0  0
  6  8  1  0  0  0
  8  9  1  0  0  0
  8 13  1  0  0  0
 11  9  2  0  0  0
  9 10  1  0  0  0
 13 14  1  0  0  0
 16 15  2  0  0  0
 14 15  1  0  0  0
 15 17  1  0  0  0
  2  5  1  0  0  0
 17 18  1  0  0  0
 10 12  1  0  0  0
  6  7  1  0  0  0
 22 23  1  0  0  0
 25 27  1  0  0  0
 25 28  1  0  0  0
 26 29  1  0  0  0
M  END
> <minimizedAffinity>
-7.52480

$$$$
4POX_2W2_A_301


 29 28  0  0  0  0  0  0  0  0999 V2000
   19.7363   -6.8149   -1.2051 C   0  0  0  0  0  0  0  0  0  0  0  0
   21.6770   -7.9605   -0.3924 O   0  0  0  0  0  0  0  0  0  0  0  0
   21.1638   -6.8467   -0.6594 C   0  0  0  0  0  0  0  0  0  0  0  0
   21.7973   -5.7756   -0.4792 O   0  0  0  0  0  0  0  0  0  0  0  0
   21.1884   -8.7474   -0.5338 H   0  0  0  0  0  0  0  0  0  0  0  0
   18.8019   -6.5377   -0.0808 N   0  0  0  0  0  0  0  0  0  0  0  0
   18.0571   -5.9540   -0.4615 H   0  0  0  0  0  0  0  0  0  0  0  0
   18.1449   -7.6261    0.6476 C   0  0  0  0  0  0  0  0  0  0  0  0
   18.8253   -8.0156    1.9198 C   0  0  0  0  0  0  0  0  0  0  0  0
   19.8402   -7.3776    2.3101 O   0  0  0  0  0  0  0  0  0  0  0  0
   18.3864   -8.9877    2.6114 O   0  0  0  0  0  0  0  0  0  0  0  0
   20.1664   -6.6605    1.8028 H   0  0  0  0  0  0  0  0  0  0  0  0
   16.6835   -7.2922    0.8674 C   0  0  0  0  0  0  0  0  0  0  0  0
   15.7405   -7.3986   -0.2934 C   0  0  0  0  0  0  0  0  0  0  0  0
   16.2160   -7.1741   -1.7018 C   0  0  0  0  0  0  0  0  0  0  0  0
   16.2180   -6.0312   -2.2371 O   0  0  0  0  0  0  0  0  0  0  0  0
   16.6018   -8.1659   -2.3785 O   0  0  0  0  0  0  0  0  0  0  0  0
   16.6063   -9.0211   -1.9956 H   0  0  0  0  0  0  0  0  0  0  0  0
   19.6462   -5.8976   -2.4179 C   0  0  0  0  0  0  0  0  0  0  0  0
   19.3070   -6.5527   -3.7219 C   0  0  0  0  0  0  0  0  0  0  0  0
   20.3236   -7.3928   -4.4131 C   0  0  0  0  0  0  0  0  0  0  0  0
   19.8643   -7.8516   -5.7100 N   0  0  0  0  0  0  0  0  0  0  0  0
   18.9232   -8.1229   -5.8097 H   0  0  0  0  0  0  0  0  0  0  0  0
   20.7368   -7.9264   -6.8652 C   0  0  0  0  0  0  0  0  0  0  0  0
   20.7302   -6.9270   -7.7051 N   0  0  0  0  0  0  0  0  0  0  0  0
   21.5198   -8.9347   -7.0809 N   0  0  0  0  0  0  0  0  0  0  0  0
   21.3115   -6.9478   -8.4994 H   0  0  0  0  0  0  0  0  0  0  0  0
   20.1440   -6.1526   -7.5442 H   0  0  0  0  0  0  0  0  0  0  0  0
   22.0976   -8.9476   -7.8779 H   0  0  0  0  0  0  0  0  0  0  0  0
 26 24  2  0  0  0
 25 24  1  0  0  0
 24 22  1  0  0  0
 22 21  1  0  0  0
 21 20  1  0  0  0
 20 19  1  0  0  0
 19  1  1  0  0  0
  4  3  2  0  0  0
  3  1  1  0  0  0
  3  2  1  0  0  0
  1  6  1  0  0  0
  6  8  1  0  0  0
  8  9  1  0  0  0
  8 13  1  0  0  0
 11  9  2  0  0  0
  9 10  1  0  0  0
 13 14  1  0  0  0
 16 15  2  0  0  0
 14 15  1  0  0  0
 15 17  1  0  0  0
  2  5  1  0  0  0
 17 18  1  0  0  0
 10 12  1  0  0  0
  6  7  1  0  0  0
 22 23  1  0  0  0
 25 27  1  0  0  0
 25 28  1  0  0  0
 26 29  1  0  0  0
M  END
> <minimizedAffinity>
-7.26768

$$$$
