3I3B_149_A_2001


 16 16  0  0  0  0  0  0  0  0999 V2000
  -10.3732  -29.6376  -28.9124 C   0  0  0  0  0  0  0  0  0  0  0  0
  -11.4563  -28.8370  -28.1730 C   0  0  0  0  0  0  0  0  0  0  0  0
  -10.9383  -28.4095  -26.8002 C   0  0  0  0  0  0  0  0  0  0  0  0
  -10.3982  -29.6161  -26.0364 C   0  0  0  0  0  0  0  0  0  0  0  0
   -9.1214  -30.1010  -26.7489 C   0  0  0  0  0  0  0  0  0  0  0  0
  -10.4405  -29.7772  -30.1069 O   0  0  0  0  0  0  0  0  0  0  0  0
  -11.7929  -27.6553  -28.9184 O   0  0  0  0  0  0  0  0  0  0  0  0
  -11.9991  -27.8167  -26.0780 O   0  0  0  0  0  0  0  0  0  0  0  0
  -11.3761  -30.6657  -26.0267 O   0  0  0  0  0  0  0  0  0  0  0  0
   -9.3165  -30.2048  -28.2177 O   0  0  0  0  0  0  0  0  0  0  0  0
  -11.0051  -27.0974  -29.0132 H   0  0  0  0  0  0  0  0  0  0  0  0
  -12.7168  -28.4605  -25.9710 H   0  0  0  0  0  0  0  0  0  0  0  0
  -11.5843  -30.9221  -26.9387 H   0  0  0  0  0  0  0  0  0  0  0  0
   -8.7135  -31.4797  -26.2301 C   0  0  0  0  0  0  0  0  0  0  0  0
   -8.8377  -31.5294  -24.8104 O   0  0  0  0  0  0  0  0  0  0  0  0
   -8.2581  -30.8616  -24.4116 H   0  0  0  0  0  0  0  0  0  0  0  0
  1  2  1  0  0  0
  1  6  2  0  0  0
  1 10  1  0  0  0
  2  3  1  0  0  0
  2  7  1  0  0  0
  3  4  1  0  0  0
  3  8  1  0  0  0
  4  5  1  0  0  0
  4  9  1  0  0  0
  5 14  1  0  0  0
  5 10  1  0  0  0
 14 15  1  0  0  0
  7 11  1  0  0  0
  8 12  1  0  0  0
  9 13  1  0  0  0
 15 16  1  0  0  0
M  END
> <minimizedAffinity>
-6.59781

$$$$
3I3B_149_A_2001


 16 16  0  0  0  0  0  0  0  0999 V2000
  -12.2549  -29.0609  -26.5295 C   0  0  0  0  0  0  0  0  0  0  0  0
  -12.3951  -28.5938  -27.9865 C   0  0  0  0  0  0  0  0  0  0  0  0
  -11.5539  -29.4849  -28.8997 C   0  0  0  0  0  0  0  0  0  0  0  0
  -10.1180  -29.5664  -28.3872 C   0  0  0  0  0  0  0  0  0  0  0  0
  -10.1276  -30.3478  -27.0595 C   0  0  0  0  0  0  0  0  0  0  0  0
  -13.0717  -28.7251  -25.7105 O   0  0  0  0  0  0  0  0  0  0  0  0
  -13.7672  -28.6836  -28.4046 O   0  0  0  0  0  0  0  0  0  0  0  0
  -11.5700  -28.9428  -30.2051 O   0  0  0  0  0  0  0  0  0  0  0  0
   -9.6017  -28.2459  -28.1686 O   0  0  0  0  0  0  0  0  0  0  0  0
  -11.1942  -29.8659  -26.1451 O   0  0  0  0  0  0  0  0  0  0  0  0
  -14.0639  -29.6051  -28.3443 H   0  0  0  0  0  0  0  0  0  0  0  0
  -11.1973  -28.0474  -30.1880 H   0  0  0  0  0  0  0  0  0  0  0  0
  -10.1556  -27.7856  -27.5188 H   0  0  0  0  0  0  0  0  0  0  0  0
   -8.7871  -30.1930  -26.3414 C   0  0  0  0  0  0  0  0  0  0  0  0
   -8.8205  -29.0632  -25.4720 O   0  0  0  0  0  0  0  0  0  0  0  0
   -8.9916  -28.2614  -25.9902 H   0  0  0  0  0  0  0  0  0  0  0  0
  1  2  1  0  0  0
  1  6  2  0  0  0
  1 10  1  0  0  0
  2  3  1  0  0  0
  2  7  1  0  0  0
  3  4  1  0  0  0
  3  8  1  0  0  0
  4  5  1  0  0  0
  4  9  1  0  0  0
  5 14  1  0  0  0
  5 10  1  0  0  0
 14 15  1  0  0  0
  7 11  1  0  0  0
  8 12  1  0  0  0
  9 13  1  0  0  0
 15 16  1  0  0  0
M  END
> <minimizedAffinity>
-6.37937

$$$$
3I3B_149_A_2001


 16 16  0  0  0  0  0  0  0  0999 V2000
  -11.4006  -28.8077  -28.4746 C   0  0  0  0  0  0  0  0  0  0  0  0
  -10.8442  -29.6712  -27.3320 C   0  0  0  0  0  0  0  0  0  0  0  0
  -11.9254  -30.6288  -26.8323 C   0  0  0  0  0  0  0  0  0  0  0  0
  -13.2007  -29.8606  -26.4938 C   0  0  0  0  0  0  0  0  0  0  0  0
  -13.7989  -29.3238  -27.8081 C   0  0  0  0  0  0  0  0  0  0  0  0
  -10.6443  -28.2396  -29.2204 O   0  0  0  0  0  0  0  0  0  0  0  0
   -9.7297  -30.4497  -27.7982 O   0  0  0  0  0  0  0  0  0  0  0  0
  -11.4455  -31.2970  -25.6827 O   0  0  0  0  0  0  0  0  0  0  0  0
  -12.8941  -28.7662  -25.6184 O   0  0  0  0  0  0  0  0  0  0  0  0
  -12.7679  -28.6731  -28.6565 O   0  0  0  0  0  0  0  0  0  0  0  0
  -10.0212  -31.0343  -28.5153 H   0  0  0  0  0  0  0  0  0  0  0  0
  -11.2400  -30.6468  -24.9929 H   0  0  0  0  0  0  0  0  0  0  0  0
  -12.2601  -28.1735  -26.0516 H   0  0  0  0  0  0  0  0  0  0  0  0
  -14.8869  -28.2910  -27.5148 C   0  0  0  0  0  0  0  0  0  0  0  0
  -15.5700  -28.6230  -26.3079 O   0  0  0  0  0  0  0  0  0  0  0  0
  -15.9841  -29.4953  -26.4001 H   0  0  0  0  0  0  0  0  0  0  0  0
  1  2  1  0  0  0
  1  6  2  0  0  0
  1 10  1  0  0  0
  2  3  1  0  0  0
  2  7  1  0  0  0
  3  4  1  0  0  0
  3  8  1  0  0  0
  4  5  1  0  0  0
  4  9  1  0  0  0
  5 14  1  0  0  0
  5 10  1  0  0  0
 14 15  1  0  0  0
  7 11  1  0  0  0
  8 12  1  0  0  0
  9 13  1  0  0  0
 15 16  1  0  0  0
M  END
> <minimizedAffinity>
-6.28354

$$$$
3I3B_149_A_2001


 16 16  0  0  0  0  0  0  0  0999 V2000
  -13.2920  -28.4462  -27.6735 C   0  0  0  0  0  0  0  0  0  0  0  0
  -12.4072  -28.4342  -26.4174 C   0  0  0  0  0  0  0  0  0  0  0  0
  -10.9572  -28.1497  -26.8075 C   0  0  0  0  0  0  0  0  0  0  0  0
  -10.5031  -29.1110  -27.9032 C   0  0  0  0  0  0  0  0  0  0  0  0
  -11.2778  -28.7697  -29.1903 C   0  0  0  0  0  0  0  0  0  0  0  0
  -14.4850  -28.3177  -27.5684 O   0  0  0  0  0  0  0  0  0  0  0  0
  -12.8440  -27.4045  -25.5149 O   0  0  0  0  0  0  0  0  0  0  0  0
  -10.1402  -28.3012  -25.6639 O   0  0  0  0  0  0  0  0  0  0  0  0
  -10.7826  -30.4631  -27.5135 O   0  0  0  0  0  0  0  0  0  0  0  0
  -12.7310  -28.6056  -28.9308 O   0  0  0  0  0  0  0  0  0  0  0  0
  -12.7746  -26.5411  -25.9515 H   0  0  0  0  0  0  0  0  0  0  0  0
  -10.2171  -29.2085  -25.3295 H   0  0  0  0  0  0  0  0  0  0  0  0
  -11.7353  -30.5656  -27.3622 H   0  0  0  0  0  0  0  0  0  0  0  0
  -11.1075  -29.8822  -30.2247 C   0  0  0  0  0  0  0  0  0  0  0  0
   -9.8508  -30.5325  -30.0476 O   0  0  0  0  0  0  0  0  0  0  0  0
   -9.1345  -29.8883  -30.1609 H   0  0  0  0  0  0  0  0  0  0  0  0
  1  2  1  0  0  0
  1  6  2  0  0  0
  1 10  1  0  0  0
  2  3  1  0  0  0
  2  7  1  0  0  0
  3  4  1  0  0  0
  3  8  1  0  0  0
  4  5  1  0  0  0
  4  9  1  0  0  0
  5 14  1  0  0  0
  5 10  1  0  0  0
 14 15  1  0  0  0
  7 11  1  0  0  0
  8 12  1  0  0  0
  9 13  1  0  0  0
 15 16  1  0  0  0
M  END
> <minimizedAffinity>
-5.94171

$$$$
3I3B_149_A_2001


 16 16  0  0  0  0  0  0  0  0999 V2000
  -12.4424  -27.5706  -26.3919 C   0  0  0  0  0  0  0  0  0  0  0  0
  -13.5604  -28.6234  -26.4413 C   0  0  0  0  0  0  0  0  0  0  0  0
  -12.9853  -30.0050  -26.1313 C   0  0  0  0  0  0  0  0  0  0  0  0
  -11.7883  -30.2972  -27.0329 C   0  0  0  0  0  0  0  0  0  0  0  0
  -10.6425  -29.3501  -26.6286 C   0  0  0  0  0  0  0  0  0  0  0  0
  -12.7208  -26.4047  -26.2738 O   0  0  0  0  0  0  0  0  0  0  0  0
  -14.5674  -28.3215  -25.4614 O   0  0  0  0  0  0  0  0  0  0  0  0
  -13.9931  -30.9744  -26.3384 O   0  0  0  0  0  0  0  0  0  0  0  0
  -12.1430  -30.0707  -28.4044 O   0  0  0  0  0  0  0  0  0  0  0  0
  -11.1121  -27.9485  -26.4839 O   0  0  0  0  0  0  0  0  0  0  0  0
  -14.1706  -28.3316  -24.5763 H   0  0  0  0  0  0  0  0  0  0  0  0
  -14.2876  -30.9423  -27.2621 H   0  0  0  0  0  0  0  0  0  0  0  0
  -12.4214  -29.1486  -28.5184 H   0  0  0  0  0  0  0  0  0  0  0  0
   -9.5383  -29.3694  -27.6854 C   0  0  0  0  0  0  0  0  0  0  0  0
   -9.7924  -28.3824  -28.6828 O   0  0  0  0  0  0  0  0  0  0  0  0
  -10.6409  -28.5695  -29.1140 H   0  0  0  0  0  0  0  0  0  0  0  0
  1  2  1  0  0  0
  1  6  2  0  0  0
  1 10  1  0  0  0
  2  3  1  0  0  0
  2  7  1  0  0  0
  3  4  1  0  0  0
  3  8  1  0  0  0
  4  5  1  0  0  0
  4  9  1  0  0  0
  5 14  1  0  0  0
  5 10  1  0  0  0
 14 15  1  0  0  0
  7 11  1  0  0  0
  8 12  1  0  0  0
  9 13  1  0  0  0
 15 16  1  0  0  0
M  END
> <minimizedAffinity>
-5.91224

$$$$
3I3B_149_A_2001


 16 16  0  0  0  0  0  0  0  0999 V2000
  -10.9034  -28.4502  -26.5654 C   0  0  0  0  0  0  0  0  0  0  0  0
  -10.4617  -29.1195  -27.8760 C   0  0  0  0  0  0  0  0  0  0  0  0
  -11.6019  -29.0711  -28.8926 C   0  0  0  0  0  0  0  0  0  0  0  0
  -12.8822  -29.6368  -28.2827 C   0  0  0  0  0  0  0  0  0  0  0  0
  -13.3592  -28.6658  -27.1859 C   0  0  0  0  0  0  0  0  0  0  0  0
  -10.0762  -28.0849  -25.7698 O   0  0  0  0  0  0  0  0  0  0  0  0
   -9.3316  -28.4251  -28.4294 O   0  0  0  0  0  0  0  0  0  0  0  0
  -11.2324  -29.8290  -30.0272 O   0  0  0  0  0  0  0  0  0  0  0  0
  -12.6220  -30.9258  -27.7091 O   0  0  0  0  0  0  0  0  0  0  0  0
  -12.2480  -28.2628  -26.2865 O   0  0  0  0  0  0  0  0  0  0  0  0
   -9.5775  -27.5059  -28.6179 H   0  0  0  0  0  0  0  0  0  0  0  0
  -11.0684  -30.7477  -29.7630 H   0  0  0  0  0  0  0  0  0  0  0  0
  -11.9414  -30.8430  -27.0230 H   0  0  0  0  0  0  0  0  0  0  0  0
  -14.4430  -29.3210  -26.3300 C   0  0  0  0  0  0  0  0  0  0  0  0
  -15.3165  -30.0963  -27.1481 O   0  0  0  0  0  0  0  0  0  0  0  0
  -15.7413  -29.5210  -27.8034 H   0  0  0  0  0  0  0  0  0  0  0  0
  1  2  1  0  0  0
  1  6  2  0  0  0
  1 10  1  0  0  0
  2  3  1  0  0  0
  2  7  1  0  0  0
  3  4  1  0  0  0
  3  8  1  0  0  0
  4  5  1  0  0  0
  4  9  1  0  0  0
  5 14  1  0  0  0
  5 10  1  0  0  0
 14 15  1  0  0  0
  7 11  1  0  0  0
  8 12  1  0  0  0
  9 13  1  0  0  0
 15 16  1  0  0  0
M  END
> <minimizedAffinity>
-5.74346

$$$$
3I3B_149_A_2001


 16 16  0  0  0  0  0  0  0  0999 V2000
  -14.2892  -28.8702  -27.6307 C   0  0  0  0  0  0  0  0  0  0  0  0
  -14.0306  -30.1695  -26.8522 C   0  0  0  0  0  0  0  0  0  0  0  0
  -12.6640  -30.1024  -26.1713 C   0  0  0  0  0  0  0  0  0  0  0  0
  -11.5826  -29.7352  -27.1845 C   0  0  0  0  0  0  0  0  0  0  0  0
  -11.8169  -28.2785  -27.6275 C   0  0  0  0  0  0  0  0  0  0  0  0
  -15.4121  -28.5771  -27.9528 O   0  0  0  0  0  0  0  0  0  0  0  0
  -15.0338  -30.3464  -25.8385 O   0  0  0  0  0  0  0  0  0  0  0  0
  -12.3793  -31.3625  -25.5973 O   0  0  0  0  0  0  0  0  0  0  0  0
  -11.6626  -30.6063  -28.3216 O   0  0  0  0  0  0  0  0  0  0  0  0
  -13.2407  -28.0294  -27.9692 O   0  0  0  0  0  0  0  0  0  0  0  0
  -15.0015  -29.6014  -25.2181 H   0  0  0  0  0  0  0  0  0  0  0  0
  -12.3656  -32.0388  -26.2925 H   0  0  0  0  0  0  0  0  0  0  0  0
  -12.5375  -30.5229  -28.7320 H   0  0  0  0  0  0  0  0  0  0  0  0
  -10.9737  -27.9552  -28.8609 C   0  0  0  0  0  0  0  0  0  0  0  0
   -9.6436  -28.4404  -28.6904 O   0  0  0  0  0  0  0  0  0  0  0  0
   -9.2412  -28.0155  -27.9168 H   0  0  0  0  0  0  0  0  0  0  0  0
  1  2  1  0  0  0
  1  6  2  0  0  0
  1 10  1  0  0  0
  2  3  1  0  0  0
  2  7  1  0  0  0
  3  4  1  0  0  0
  3  8  1  0  0  0
  4  5  1  0  0  0
  4  9  1  0  0  0
  5 14  1  0  0  0
  5 10  1  0  0  0
 14 15  1  0  0  0
  7 11  1  0  0  0
  8 12  1  0  0  0
  9 13  1  0  0  0
 15 16  1  0  0  0
M  END
> <minimizedAffinity>
-5.73031

$$$$
3I3B_149_A_2001


 16 16  0  0  0  0  0  0  0  0999 V2000
  -14.0087  -29.6993  -26.6266 C   0  0  0  0  0  0  0  0  0  0  0  0
  -14.0395  -28.4383  -25.7493 C   0  0  0  0  0  0  0  0  0  0  0  0
  -13.4328  -27.2612  -26.5123 C   0  0  0  0  0  0  0  0  0  0  0  0
  -12.0545  -27.6326  -27.0542 C   0  0  0  0  0  0  0  0  0  0  0  0
  -12.2433  -28.6939  -28.1547 C   0  0  0  0  0  0  0  0  0  0  0  0
  -14.7220  -30.6327  -26.3608 O   0  0  0  0  0  0  0  0  0  0  0  0
  -15.3956  -28.1064  -25.4081 O   0  0  0  0  0  0  0  0  0  0  0  0
  -13.3249  -26.1576  -25.6355 O   0  0  0  0  0  0  0  0  0  0  0  0
  -11.2427  -28.1676  -25.9992 O   0  0  0  0  0  0  0  0  0  0  0  0
  -13.1650  -29.7759  -27.7235 O   0  0  0  0  0  0  0  0  0  0  0  0
  -15.8997  -27.9330  -26.2185 H   0  0  0  0  0  0  0  0  0  0  0  0
  -12.7529  -26.3930  -24.8883 H   0  0  0  0  0  0  0  0  0  0  0  0
  -11.6717  -28.9546  -25.6285 H   0  0  0  0  0  0  0  0  0  0  0  0
  -10.9020  -29.3336  -28.5127 C   0  0  0  0  0  0  0  0  0  0  0  0
   -9.8781  -28.3420  -28.5557 O   0  0  0  0  0  0  0  0  0  0  0  0
  -10.0978  -27.6794  -29.2291 H   0  0  0  0  0  0  0  0  0  0  0  0
  1  2  1  0  0  0
  1  6  2  0  0  0
  1 10  1  0  0  0
  2  3  1  0  0  0
  2  7  1  0  0  0
  3  4  1  0  0  0
  3  8  1  0  0  0
  4  5  1  0  0  0
  4  9  1  0  0  0
  5 14  1  0  0  0
  5 10  1  0  0  0
 14 15  1  0  0  0
  7 11  1  0  0  0
  8 12  1  0  0  0
  9 13  1  0  0  0
 15 16  1  0  0  0
M  END
> <minimizedAffinity>
-5.72650

$$$$
3I3B_149_A_2001


 16 16  0  0  0  0  0  0  0  0999 V2000
  -12.6946  -30.1382  -27.3768 C   0  0  0  0  0  0  0  0  0  0  0  0
  -11.6813  -30.8994  -26.5082 C   0  0  0  0  0  0  0  0  0  0  0  0
  -10.4376  -30.0388  -26.2881 C   0  0  0  0  0  0  0  0  0  0  0  0
   -9.8919  -29.5415  -27.6245 C   0  0  0  0  0  0  0  0  0  0  0  0
  -10.9036  -28.5386  -28.2110 C   0  0  0  0  0  0  0  0  0  0  0  0
  -13.8491  -30.4812  -27.3919 O   0  0  0  0  0  0  0  0  0  0  0  0
  -12.2567  -31.2005  -25.2262 O   0  0  0  0  0  0  0  0  0  0  0  0
   -9.4588  -30.8145  -25.6260 O   0  0  0  0  0  0  0  0  0  0  0  0
   -9.7259  -30.6455  -28.5256 O   0  0  0  0  0  0  0  0  0  0  0  0
  -12.2935  -29.0582  -28.1473 O   0  0  0  0  0  0  0  0  0  0  0  0
  -12.4927  -30.3745  -24.7757 H   0  0  0  0  0  0  0  0  0  0  0  0
   -9.2321  -31.5836  -26.1719 H   0  0  0  0  0  0  0  0  0  0  0  0
  -10.5812  -31.0819  -28.6633 H   0  0  0  0  0  0  0  0  0  0  0  0
  -10.5767  -28.2482  -29.6757 C   0  0  0  0  0  0  0  0  0  0  0  0
  -10.8589  -29.3911  -30.4804 O   0  0  0  0  0  0  0  0  0  0  0  0
  -10.3174  -30.1385  -30.1817 H   0  0  0  0  0  0  0  0  0  0  0  0
  1  2  1  0  0  0
  1  6  2  0  0  0
  1 10  1  0  0  0
  2  3  1  0  0  0
  2  7  1  0  0  0
  3  4  1  0  0  0
  3  8  1  0  0  0
  4  5  1  0  0  0
  4  9  1  0  0  0
  5 14  1  0  0  0
  5 10  1  0  0  0
 14 15  1  0  0  0
  7 11  1  0  0  0
  8 12  1  0  0  0
  9 13  1  0  0  0
 15 16  1  0  0  0
M  END
> <minimizedAffinity>
-5.69407

$$$$
3I3B_149_A_2001


 16 16  0  0  0  0  0  0  0  0999 V2000
  -11.7370  -28.7794  -28.6731 C   0  0  0  0  0  0  0  0  0  0  0  0
  -13.0008  -29.2894  -27.9635 C   0  0  0  0  0  0  0  0  0  0  0  0
  -12.7838  -29.2835  -26.4506 C   0  0  0  0  0  0  0  0  0  0  0  0
  -11.5016  -30.0319  -26.0946 C   0  0  0  0  0  0  0  0  0  0  0  0
  -10.3074  -29.2097  -26.6155 C   0  0  0  0  0  0  0  0  0  0  0  0
  -11.8032  -28.3916  -29.8115 O   0  0  0  0  0  0  0  0  0  0  0  0
  -14.1160  -28.4343  -28.2645 O   0  0  0  0  0  0  0  0  0  0  0  0
  -13.8922  -29.9031  -25.8295 O   0  0  0  0  0  0  0  0  0  0  0  0
  -11.5044  -31.3270  -26.7119 O   0  0  0  0  0  0  0  0  0  0  0  0
  -10.5167  -28.7621  -28.0162 O   0  0  0  0  0  0  0  0  0  0  0  0
  -13.9271  -27.5350  -27.9537 H   0  0  0  0  0  0  0  0  0  0  0  0
  -13.9707  -30.8169  -26.1453 H   0  0  0  0  0  0  0  0  0  0  0  0
  -11.5680  -31.2262  -27.6745 H   0  0  0  0  0  0  0  0  0  0  0  0
   -9.0281  -30.0453  -26.5750 C   0  0  0  0  0  0  0  0  0  0  0  0
   -8.8837  -30.6652  -25.2989 O   0  0  0  0  0  0  0  0  0  0  0  0
   -8.8328  -29.9825  -24.6117 H   0  0  0  0  0  0  0  0  0  0  0  0
  1  2  1  0  0  0
  1  6  2  0  0  0
  1 10  1  0  0  0
  2  3  1  0  0  0
  2  7  1  0  0  0
  3  4  1  0  0  0
  3  8  1  0  0  0
  4  5  1  0  0  0
  4  9  1  0  0  0
  5 14  1  0  0  0
  5 10  1  0  0  0
 14 15  1  0  0  0
  7 11  1  0  0  0
  8 12  1  0  0  0
  9 13  1  0  0  0
 15 16  1  0  0  0
M  END
> <minimizedAffinity>
-5.59578

$$$$
