3I3B_149_A_2001
  RCSB PDB12061709003D
Coordinates from PDB:3I3B:A:2001 Model:1 without hydrogens
 12 12  0  0  0  0            999 V2000
  -10.6480  -27.9420  -26.4260   C 0  0  0  0  0  0  0  0  0  0  0  0
   -9.6960  -29.0080  -25.8620   C 0  0  0  0  0  0  0  0  0  0  0  0
   -8.8230  -29.5690  -26.9840   C 0  0  0  0  0  0  0  0  0  0  0  0
   -9.6910  -30.0360  -28.1500   C 0  0  0  0  0  0  0  0  0  0  0  0
  -10.3280  -28.7930  -28.8000   C 0  0  0  0  0  0  0  0  0  0  0  0
  -11.4440  -29.2070  -29.7590   C 0  0  0  0  0  0  0  0  0  0  0  0
  -11.1720  -27.1520  -25.6830   O 0  0  0  0  0  0  0  0  0  0  0  0
   -8.8370  -28.4270  -24.8670   O 0  0  0  0  0  0  0  0  0  0  0  0
   -8.0720  -30.6540  -26.4770   O 0  0  0  0  0  0  0  0  0  0  0  0
  -10.7200  -30.9140  -27.6720   O 0  0  0  0  0  0  0  0  0  0  0  0
  -10.9130  -27.8800  -27.7850   O 0  0  0  0  0  0  0  0  0  0  0  0
  -10.9030  -29.9280  -30.8640   O 0  0  0  0  0  0  0  0  0  0  0  0
  1  2  1  0  0  0  0
  1  7  2  0  0  0  0
  1 11  1  0  0  0  0
  2  3  1  0  0  0  0
  2  8  1  0  0  0  0
  3  4  1  0  0  0  0
  3  9  1  0  0  0  0
  4  5  1  0  0  0  0
  4 10  1  0  0  0  0
  5  6  1  0  0  0  0
  5 11  1  0  0  0  0
  6 12  1  0  0  0  0
A    1
C1
A    2
C2
A    3
C3
A    4
C4
A    5
C5
A    6
C6
A    7
O1
A    8
O2
A    9
O3
A   10
O4
A   11
O5
A   12
O6
M  END
>  <InstanceId>
3I3B_149_A_2001

>  <ChemCompId>
149

>  <PdbId>
3I3B

>  <ChainId>
A

>  <ResidueNumber>
2001

>  <InsertionCode>


>  <Model>
1

>  <AltIds>


>  <MissingHeavyAtoms>
0

>  <ObservedFormula>
C6 O6

>  <Name>
D-galactonolactone

>  <SystematicName>
(3R,4S,5R,6R)-3,4,5-trihydroxy-6-(hydroxymethyl)oxan-2-one

>  <Synonyms>
(3R,4S,5R,6R)-3,4,5-trihydroxy-6-(hydroxymethyl)oxan-2-one

>  <Type>
D-SACCHARIDE

>  <Formula>
C6 H10 O6

>  <MolecularWeight>
178.14

>  <ModifiedDate>
2011-06-04

>  <Parent>


>  <OneLetterCode>


>  <SubcomponentList>


>  <AmbiguousFlag>
N

>  <InChI>
InChI=1S/C6H10O6/c7-1-2-3(8)4(9)5(10)6(11)12-2/h2-5,7-10H,1H2/t2-,3+,4+,5-/m1/s1

>  <InChIKey>
PHOQVHQSTUBQQK-MGCNEYSASA-N

>  <SMILES>
C([C@@H]1[C@@H]([C@@H]([C@H](C(=O)O1)O)O)O)O

$$$$
