1MET_DMP_A_323
  RCSB PDB12061703173D
Coordinates from PDB:1MET:A:323 Model:1 without hydrogens
 42 46  0  0  0  0            999 V2000
   -8.7770   15.3010   27.8890   C 0  0  0  0  0  0  0  0  0  0  0  0
   -8.7100   17.6000   26.9240   C 0  0  0  0  0  0  0  0  0  0  0  0
  -10.0870   18.1860   27.1820   C 0  0  0  0  0  0  0  0  0  0  0  0
  -10.4930   17.9640   28.6200   C 0  0  0  0  0  0  0  0  0  0  0  0
  -10.7880   16.4950   28.8410   C 0  0  0  0  0  0  0  0  0  0  0  0
   -8.0250   15.5160   25.6460   C 0  0  0  0  0  0  0  0  0  0  0  0
   -8.5450   15.9430   24.3020   C 0  0  0  0  0  0  0  0  0  0  0  0
   -9.9210   15.9490   23.9570   C 0  0  0  0  0  0  0  0  0  0  0  0
  -10.3040   16.2940   22.6350   C 0  0  0  0  0  0  0  0  0  0  0  0
   -9.3040   16.6360   21.6830   C 0  0  0  0  0  0  0  0  0  0  0  0
   -7.9440   16.6210   22.0570   C 0  0  0  0  0  0  0  0  0  0  0  0
   -7.5640   16.2850   23.3600   C 0  0  0  0  0  0  0  0  0  0  0  0
   -9.6800   17.0140   20.2630   C 0  0  0  0  0  0  0  0  0  0  0  0
   -7.5900   18.1460   27.8350   C 0  0  0  0  0  0  0  0  0  0  0  0
   -6.2190   17.9960   27.2150   C 0  0  0  0  0  0  0  0  0  0  0  0
   -5.3030   17.0730   27.7590   C 0  0  0  0  0  0  0  0  0  0  0  0
   -4.0530   16.8940   27.1410   C 0  0  0  0  0  0  0  0  0  0  0  0
   -3.7290   17.6330   25.9840   C 0  0  0  0  0  0  0  0  0  0  0  0
   -4.6440   18.5670   25.4400   C 0  0  0  0  0  0  0  0  0  0  0  0
   -5.8920   18.7560   26.0610   C 0  0  0  0  0  0  0  0  0  0  0  0
  -11.9060   15.9210   27.9330   C 0  0  0  0  0  0  0  0  0  0  0  0
  -12.3890   14.6450   28.5370   C 0  0  0  0  0  0  0  0  0  0  0  0
  -12.9630   14.6720   29.8380   C 0  0  0  0  0  0  0  0  0  0  0  0
  -13.2290   13.4580   30.5050   C 0  0  0  0  0  0  0  0  0  0  0  0
  -12.9400   12.2340   29.8530   C 0  0  0  0  0  0  0  0  0  0  0  0
  -12.3970   12.2170   28.5470   C 0  0  0  0  0  0  0  0  0  0  0  0
  -12.1190   13.4290   27.8840   C 0  0  0  0  0  0  0  0  0  0  0  0
   -9.4760   14.6790   30.0410   C 0  0  0  0  0  0  0  0  0  0  0  0
   -9.5560   15.3150   31.3880   C 0  0  0  0  0  0  0  0  0  0  0  0
  -10.3360   14.6180   32.3230   C 0  0  0  0  0  0  0  0  0  0  0  0
  -10.4310   15.1130   33.6230   C 0  0  0  0  0  0  0  0  0  0  0  0
   -9.7550   16.3000   33.9910   C 0  0  0  0  0  0  0  0  0  0  0  0
   -8.9690   17.0130   33.0410   C 0  0  0  0  0  0  0  0  0  0  0  0
   -8.8710   16.5100   31.7250   C 0  0  0  0  0  0  0  0  0  0  0  0
   -9.8550   16.7910   35.4140   C 0  0  0  0  0  0  0  0  0  0  0  0
   -8.5940   16.1300   26.8430   N 0  0  0  0  0  0  0  0  0  0  0  0
   -9.6380   15.5530   28.8930   N 0  0  0  0  0  0  0  0  0  0  0  0
   -8.1270   14.2670   27.9320   O 0  0  0  0  0  0  0  0  0  0  0  0
   -9.9770   19.5490   26.8670   O 0  0  0  0  0  0  0  0  0  0  0  0
  -11.6980   18.5880   28.9110   O 0  0  0  0  0  0  0  0  0  0  0  0
   -8.8040   18.0230   19.7360   O 0  0  0  0  0  0  0  0  0  0  0  0
  -11.1570   16.5280   35.9670   O 0  0  0  0  0  0  0  0  0  0  0  0
  1 36  1  0  0  0  0
  1 37  1  0  0  0  0
  1 38  2  0  0  0  0
  2  3  1  0  0  0  0
  2 14  1  0  0  0  0
  2 36  1  0  0  0  0
  3  4  1  0  0  0  0
  3 39  1  0  0  0  0
  4  5  1  0  0  0  0
  4 40  1  0  0  0  0
  5 21  1  0  0  0  0
  5 37  1  0  0  0  0
  6  7  1  0  0  0  0
  6 36  1  0  0  0  0
  7  8  2  0  0  0  0
  7 12  1  0  0  0  0
  8  9  1  0  0  0  0
  9 10  2  0  0  0  0
 10 11  1  0  0  0  0
 10 13  1  0  0  0  0
 11 12  2  0  0  0  0
 13 41  1  0  0  0  0
 14 15  1  0  0  0  0
 15 16  2  0  0  0  0
 15 20  1  0  0  0  0
 16 17  1  0  0  0  0
 17 18  2  0  0  0  0
 18 19  1  0  0  0  0
 19 20  2  0  0  0  0
 21 22  1  0  0  0  0
 22 23  2  0  0  0  0
 22 27  1  0  0  0  0
 23 24  1  0  0  0  0
 24 25  2  0  0  0  0
 25 26  1  0  0  0  0
 26 27  2  0  0  0  0
 28 29  1  0  0  0  0
 28 37  1  0  0  0  0
 29 30  2  0  0  0  0
 29 34  1  0  0  0  0
 30 31  1  0  0  0  0
 31 32  2  0  0  0  0
 32 33  1  0  0  0  0
 32 35  1  0  0  0  0
 33 34  2  0  0  0  0
 35 42  1  0  0  0  0
A    1
C1
A    2
C3
A    3
C4
A    4
C5
A    5
C6
A    6
C20
A    7
C21
A    8
C22
A    9
C23
A   10
C24
A   11
C25
A   12
C26
A   13
C27
A   14
C30
A   15
C31
A   16
C32
A   17
C33
A   18
C34
A   19
C35
A   20
C36
A   21
C60
A   22
C61
A   23
C62
A   24
C63
A   25
C64
A   26
C65
A   27
C66
A   28
C70
A   29
C71
A   30
C72
A   31
C73
A   32
C74
A   33
C75
A   34
C76
A   35
C77
A   36
N2
A   37
N7
A   38
O1
A   39
O4
A   40
O5
A   41
O27
A   42
O77
M  END
>  <InstanceId>
1MET_DMP_A_323

>  <ChemCompId>
DMP

>  <PdbId>
1MET

>  <ChainId>
A

>  <ResidueNumber>
323

>  <InsertionCode>


>  <Model>
1

>  <AltIds>


>  <MissingHeavyAtoms>
0

>  <ObservedFormula>
C35 N2 O5

>  <Name>
[4-R-(-4-ALPHA,5-ALPHA,6-BETA,7-BETA)]-HEXAHYDRO-5,6-BIS(HYDROXY)-[1,3-BIS([4-HYDROXYMETHYL-PHENYL]METHYL)-4,7-BIS(PHENYLMETHYL)]-2H-1,3-DIAZEPINONE

>  <SystematicName>
(4R,5S,6S,7R)-5,6-dihydroxy-1,3-bis[[4-(hydroxymethyl)phenyl]methyl]-4,7-bis(phenylmethyl)-1,3-diazepan-2-one

>  <Synonyms>
DMP323(INHIBITOR OF DUPONT MERCK)

>  <Type>
NON-POLYMER

>  <Formula>
C35 H38 N2 O5

>  <MolecularWeight>
566.687

>  <ModifiedDate>
2011-06-04

>  <Parent>


>  <OneLetterCode>


>  <SubcomponentList>


>  <AmbiguousFlag>
N

>  <InChI>
InChI=1S/C35H38N2O5/c38-23-29-15-11-27(12-16-29)21-36-31(19-25-7-3-1-4-8-25)33(40)34(41)32(20-26-9-5-2-6-10-26)37(35(36)42)22-28-13-17-30(24-39)18-14-28/h1-18,31-34,38-41H,19-24H2/t31-,32-,33+,34+/m1/s1

>  <InChIKey>
XCVGQMUMMDXKCY-WZJLIZBTSA-N

>  <SMILES>
c1ccc(cc1)C[C@@H]2[C@@H]([C@H]([C@H](N(C(=O)N2Cc3ccc(cc3)CO)Cc4ccc(cc4)CO)Cc5ccccc5)O)O

$$$$
