3PPQ_CHT_A_401
  RCSB PDB12061710183D
Coordinates from PDB:3PPQ:A:401 Model:1 without hydrogens
  7  6  0  0  0  0            999 V2000
   28.9040   30.8410    8.9780   C 0  0  0  0  0  0  0  0  0  0  0  0
   30.0830   29.8850    8.7660   C 0  0  0  0  0  0  0  0  0  0  0  0
   29.5410   28.0580   10.0290   C 0  0  0  0  0  0  0  0  0  0  0  0
   30.9910   27.8090    8.2280   C 0  0  0  0  0  0  0  0  0  0  0  0
   28.7450   27.9100    7.8140   C 0  0  0  0  0  0  0  0  0  0  0  0
   28.0600   30.8920    8.0910   O 0  0  0  0  0  0  0  0  0  0  0  0
   29.7910   28.4470    8.6650   N 0  3  0  0  0  0  0  0  0  0  0  0
  1  2  1  0  0  0  0
  1  6  1  0  0  0  0
  2  7  1  0  0  0  0
  3  7  1  0  0  0  0
  4  7  1  0  0  0  0
  5  7  1  0  0  0  0
M  CHG  1   7   1
A    1
C4
A    2
C5
A    3
C6
A    4
C7
A    5
C8
A    6
O6
A    7
N1
M  END
>  <InstanceId>
3PPQ_CHT_A_401

>  <ChemCompId>
CHT

>  <PdbId>
3PPQ

>  <ChainId>
A

>  <ResidueNumber>
401

>  <InsertionCode>


>  <Model>
1

>  <AltIds>


>  <MissingHeavyAtoms>
0

>  <ObservedFormula>
C5 N O

>  <Name>
CHOLINE ION

>  <SystematicName>
2-hydroxyethyl-trimethyl-azanium

>  <Synonyms>


>  <Type>
NON-POLYMER

>  <Formula>
C5 H14 N O

>  <MolecularWeight>
104.171

>  <ModifiedDate>
2011-06-04

>  <Parent>


>  <OneLetterCode>


>  <SubcomponentList>


>  <AmbiguousFlag>
N

>  <InChI>
InChI=1S/C5H14NO/c1-6(2,3)4-5-7/h7H,4-5H2,1-3H3/q+1

>  <InChIKey>
OEYIOHPDSNJKLS-UHFFFAOYSA-N

>  <SMILES>
C[N+](C)(C)CCO

$$$$
