4GQ4_0RT_A_601


 27 30  0  0  0  0  0  0  0  0999 V2000
   -8.6387    8.4338   12.7279 C   0  0  0  0  0  0  0  0  0  0  0  0
   -9.5375    6.9317   12.8429 S   0  0  0  0  0  0  0  0  0  0  0  0
   -9.4950    9.3725   12.1999 C   0  0  0  0  0  0  0  0  0  0  0  0
  -10.7893    9.0209   11.9336 C   0  0  0  0  0  0  0  0  0  0  0  0
  -10.9058    7.6141   12.2353 C   0  0  0  0  0  0  0  0  0  0  0  0
  -12.0570    6.9846   12.0274 N   0  0  0  0  0  0  0  0  0  0  0  0
  -13.0552    7.6109   11.4971 C   0  0  0  0  0  0  0  0  0  0  0  0
  -13.0583    8.9572   11.1818 N   0  0  0  0  0  0  0  0  0  0  0  0
  -11.9604    9.6301   11.4713 C   0  0  0  0  0  0  0  0  0  0  0  0
  -12.0003   11.0027   11.2024 N   0  0  0  0  0  0  0  0  0  0  0  0
  -11.2734   12.0040   11.9743 C   0  0  0  0  0  0  0  0  0  0  0  0
  -12.2752   12.9815   12.5404 C   0  0  0  0  0  0  0  0  0  0  0  0
  -13.1428   11.4766   10.3959 C   0  0  0  0  0  0  0  0  0  0  0  0
  -13.0632   12.9627   10.0974 C   0  0  0  0  0  0  0  0  0  0  0  0
  -12.9980   13.6816   11.4858 N   0  0  0  0  0  0  0  0  0  0  0  0
  -13.7997   14.7366   11.7282 C   0  0  0  0  0  0  0  0  0  0  0  0
  -13.7720   15.4696   13.2429 S   0  0  0  0  0  0  0  0  0  0  0  0
  -14.6752   16.8866   12.6728 C   0  0  0  0  0  0  0  0  0  0  0  0
  -15.7948   17.1287   13.6524 C   0  0  0  0  0  0  0  0  0  0  0  0
  -13.7197   17.9887   12.4475 C   0  0  0  0  0  0  0  0  0  0  0  0
  -15.3525   16.4395   11.3994 C   0  0  0  0  0  0  0  0  0  0  0  0
  -14.5856   15.3403   10.8536 N   0  0  0  0  0  0  0  0  0  0  0  0
   -7.2425    8.5200   13.0247 C   0  0  0  0  0  0  0  0  0  0  0  0
   -6.1687    6.5668   12.3753 F   0  0  0  0  0  0  0  0  0  0  0  0
   -6.1707    7.9639   12.1027 C   0  0  0  0  0  0  0  0  0  0  0  0
   -6.8014    7.8218   10.8394 F   0  0  0  0  0  0  0  0  0  0  0  0
   -5.1007    8.3887   12.0029 F   0  0  0  0  0  0  0  0  0  0  0  0
 14 13  1  0  0  0
 14 15  1  0  0  0
 13 10  1  0  0  0
 26 25  1  0  0  0
 22 21  1  0  0  0
 22 16  2  0  0  0
 10  9  1  0  0  0
 10 11  1  0  0  0
  8  9  2  0  0  0
  8  7  1  0  0  0
  9  4  1  0  0  0
 15 16  1  0  0  0
 15 12  1  0  0  0
  7  6  2  0  0  0
 21 18  1  0  0  0
 24 25  1  0  0  0
 11 12  1  0  0  0
 16 17  1  0  0  0
  4  3  1  0  0  0
  4  5  2  0  0  0
  6  5  1  0  0  0
 25 27  1  0  0  0
 25 23  1  0  0  0
  3  1  2  0  0  0
  5  2  1  0  0  0
  1  2  1  0  0  0
  1 23  1  0  0  0
 20 18  1  0  0  0
 18 17  1  0  0  0
 18 19  1  0  0  0
M  END
> <minimizedAffinity>
-8.50478

$$$$
4GQ4_0RT_A_601


 27 30  0  0  0  0  0  0  0  0999 V2000
  -13.0050   17.2080   12.8267 C   0  0  0  0  0  0  0  0  0  0  0  0
  -12.8063   18.1816   11.3810 S   0  0  0  0  0  0  0  0  0  0  0  0
  -12.2628   16.0641   12.6433 C   0  0  0  0  0  0  0  0  0  0  0  0
  -11.5258   15.9223   11.5003 C   0  0  0  0  0  0  0  0  0  0  0  0
  -11.8029   17.0798   10.6837 C   0  0  0  0  0  0  0  0  0  0  0  0
  -11.2500   17.1903    9.4808 N   0  0  0  0  0  0  0  0  0  0  0  0
  -10.5147   16.2366    9.0120 C   0  0  0  0  0  0  0  0  0  0  0  0
  -10.1742   15.0930    9.7106 N   0  0  0  0  0  0  0  0  0  0  0  0
  -10.6280   15.0037   10.9467 C   0  0  0  0  0  0  0  0  0  0  0  0
  -10.2255   13.8699   11.6613 N   0  0  0  0  0  0  0  0  0  0  0  0
   -8.8617   13.6430   12.1254 C   0  0  0  0  0  0  0  0  0  0  0  0
   -8.3659   12.3523   11.5188 C   0  0  0  0  0  0  0  0  0  0  0  0
  -11.1049   12.6881   11.5593 C   0  0  0  0  0  0  0  0  0  0  0  0
  -10.6255   11.5344   12.4214 C   0  0  0  0  0  0  0  0  0  0  0  0
   -9.1692   11.2138   11.9471 N   0  0  0  0  0  0  0  0  0  0  0  0
   -8.8138    9.9378   11.7025 C   0  0  0  0  0  0  0  0  0  0  0  0
   -8.0012    9.0607   12.8869 S   0  0  0  0  0  0  0  0  0  0  0  0
   -8.2617    7.5179   12.0498 C   0  0  0  0  0  0  0  0  0  0  0  0
   -6.9324    6.8100   11.9900 C   0  0  0  0  0  0  0  0  0  0  0  0
   -9.3778    6.8124   12.7094 C   0  0  0  0  0  0  0  0  0  0  0  0
   -8.5773    7.8900   10.6208 C   0  0  0  0  0  0  0  0  0  0  0  0
   -9.1087    9.2361   10.6219 N   0  0  0  0  0  0  0  0  0  0  0  0
  -13.9039   17.5674   13.8792 C   0  0  0  0  0  0  0  0  0  0  0  0
  -16.2186   17.4698   13.7308 F   0  0  0  0  0  0  0  0  0  0  0  0
  -15.1171   16.7295   14.2453 C   0  0  0  0  0  0  0  0  0  0  0  0
  -15.1925   15.7245   13.2463 F   0  0  0  0  0  0  0  0  0  0  0  0
  -15.3327   16.3050   15.2983 F   0  0  0  0  0  0  0  0  0  0  0  0
 14 13  1  0  0  0
 14 15  1  0  0  0
 13 10  1  0  0  0
 26 25  1  0  0  0
 22 21  1  0  0  0
 22 16  2  0  0  0
 10  9  1  0  0  0
 10 11  1  0  0  0
  8  9  2  0  0  0
  8  7  1  0  0  0
  9  4  1  0  0  0
 15 16  1  0  0  0
 15 12  1  0  0  0
  7  6  2  0  0  0
 21 18  1  0  0  0
 24 25  1  0  0  0
 11 12  1  0  0  0
 16 17  1  0  0  0
  4  3  1  0  0  0
  4  5  2  0  0  0
  6  5  1  0  0  0
 25 27  1  0  0  0
 25 23  1  0  0  0
  3  1  2  0  0  0
  5  2  1  0  0  0
  1  2  1  0  0  0
  1 23  1  0  0  0
 20 18  1  0  0  0
 18 17  1  0  0  0
 18 19  1  0  0  0
M  END
> <minimizedAffinity>
-7.49460

$$$$
4GQ4_0RT_A_601


 27 30  0  0  0  0  0  0  0  0999 V2000
  -11.6831   12.0554   11.5750 C   0  0  0  0  0  0  0  0  0  0  0  0
  -13.2077   11.2394   11.2795 S   0  0  0  0  0  0  0  0  0  0  0  0
  -10.7247   11.0768   11.7053 C   0  0  0  0  0  0  0  0  0  0  0  0
  -11.0814    9.7669   11.5426 C   0  0  0  0  0  0  0  0  0  0  0  0
  -12.5091    9.7506   11.3305 C   0  0  0  0  0  0  0  0  0  0  0  0
  -13.1444    8.5932   11.1834 N   0  0  0  0  0  0  0  0  0  0  0  0
  -12.5001    7.4783   11.2920 C   0  0  0  0  0  0  0  0  0  0  0  0
  -11.1341    7.3771   11.4809 N   0  0  0  0  0  0  0  0  0  0  0  0
  -10.4629    8.5124   11.5300 C   0  0  0  0  0  0  0  0  0  0  0  0
   -9.0750    8.3925   11.6609 N   0  0  0  0  0  0  0  0  0  0  0  0
   -8.3369    8.7597   12.8639 C   0  0  0  0  0  0  0  0  0  0  0  0
   -7.3247    9.8165   12.4919 C   0  0  0  0  0  0  0  0  0  0  0  0
   -8.3063    8.3030   10.4033 C   0  0  0  0  0  0  0  0  0  0  0  0
   -6.8210    8.1051   10.6461 C   0  0  0  0  0  0  0  0  0  0  0  0
   -6.3588    9.3174   11.5210 N   0  0  0  0  0  0  0  0  0  0  0  0
   -5.2483    9.9997   11.1807 C   0  0  0  0  0  0  0  0  0  0  0  0
   -3.8339    9.1596   10.8259 S   0  0  0  0  0  0  0  0  0  0  0  0
   -3.0546   10.5902   10.1225 C   0  0  0  0  0  0  0  0  0  0  0  0
   -1.6824   10.7009   10.7361 C   0  0  0  0  0  0  0  0  0  0  0  0
   -3.1348   10.4891    8.6521 C   0  0  0  0  0  0  0  0  0  0  0  0
   -3.8271   11.7694   10.6636 C   0  0  0  0  0  0  0  0  0  0  0  0
   -5.1540   11.3070   11.0098 N   0  0  0  0  0  0  0  0  0  0  0  0
  -11.5912   13.4698   11.7646 C   0  0  0  0  0  0  0  0  0  0  0  0
  -12.0089   15.4865   12.8361 F   0  0  0  0  0  0  0  0  0  0  0  0
  -12.6640   14.2745   12.4784 C   0  0  0  0  0  0  0  0  0  0  0  0
  -13.4317   14.8728   11.4457 F   0  0  0  0  0  0  0  0  0  0  0  0
  -13.3317   13.8732   13.3320 F   0  0  0  0  0  0  0  0  0  0  0  0
 14 13  1  0  0  0
 14 15  1  0  0  0
 13 10  1  0  0  0
 26 25  1  0  0  0
 22 21  1  0  0  0
 22 16  2  0  0  0
 10  9  1  0  0  0
 10 11  1  0  0  0
  8  9  2  0  0  0
  8  7  1  0  0  0
  9  4  1  0  0  0
 15 16  1  0  0  0
 15 12  1  0  0  0
  7  6  2  0  0  0
 21 18  1  0  0  0
 24 25  1  0  0  0
 11 12  1  0  0  0
 16 17  1  0  0  0
  4  3  1  0  0  0
  4  5  2  0  0  0
  6  5  1  0  0  0
 25 27  1  0  0  0
 25 23  1  0  0  0
  3  1  2  0  0  0
  5  2  1  0  0  0
  1  2  1  0  0  0
  1 23  1  0  0  0
 20 18  1  0  0  0
 18 17  1  0  0  0
 18 19  1  0  0  0
M  END
> <minimizedAffinity>
-7.48137

$$$$
4GQ4_0RT_A_601


 27 30  0  0  0  0  0  0  0  0999 V2000
   -2.6272   13.3442    9.2121 C   0  0  0  0  0  0  0  0  0  0  0  0
   -1.2185   12.4585    9.7675 S   0  0  0  0  0  0  0  0  0  0  0  0
   -3.7261   12.5670    9.4976 C   0  0  0  0  0  0  0  0  0  0  0  0
   -3.5521   11.3788   10.1514 C   0  0  0  0  0  0  0  0  0  0  0  0
   -2.1291   11.2042   10.3195 C   0  0  0  0  0  0  0  0  0  0  0  0
   -1.6595   10.1015   10.8927 N   0  0  0  0  0  0  0  0  0  0  0  0
   -2.4670    9.1558   11.2441 C   0  0  0  0  0  0  0  0  0  0  0  0
   -3.8444    9.2221   11.1419 N   0  0  0  0  0  0  0  0  0  0  0  0
   -4.3439   10.3482   10.6683 C   0  0  0  0  0  0  0  0  0  0  0  0
   -5.7406   10.4235   10.6273 N   0  0  0  0  0  0  0  0  0  0  0  0
   -6.5554   11.0001   11.6904 C   0  0  0  0  0  0  0  0  0  0  0  0
   -7.5075    9.9373   12.1840 C   0  0  0  0  0  0  0  0  0  0  0  0
   -6.4160    9.5081    9.6858 C   0  0  0  0  0  0  0  0  0  0  0  0
   -7.9201    9.7110    9.6604 C   0  0  0  0  0  0  0  0  0  0  0  0
   -8.4121    9.4949   11.1300 N   0  0  0  0  0  0  0  0  0  0  0  0
   -9.4749    8.7019   11.3671 C   0  0  0  0  0  0  0  0  0  0  0  0
  -10.9744    9.1078   10.7196 S   0  0  0  0  0  0  0  0  0  0  0  0
  -11.6613    7.5114   11.0779 C   0  0  0  0  0  0  0  0  0  0  0  0
  -12.9842    7.7361   11.7645 C   0  0  0  0  0  0  0  0  0  0  0  0
  -11.6681    6.7170    9.8340 C   0  0  0  0  0  0  0  0  0  0  0  0
  -10.7609    6.9203   12.1362 C   0  0  0  0  0  0  0  0  0  0  0  0
   -9.4632    7.5491   12.0136 N   0  0  0  0  0  0  0  0  0  0  0  0
   -2.5274   14.5724    8.4865 C   0  0  0  0  0  0  0  0  0  0  0  0
   -3.9426   16.0112    9.6339 F   0  0  0  0  0  0  0  0  0  0  0  0
   -2.6030   15.9325    9.1591 C   0  0  0  0  0  0  0  0  0  0  0  0
   -2.0467   15.7421   10.4507 F   0  0  0  0  0  0  0  0  0  0  0  0
   -2.2518   16.9249    8.6826 F   0  0  0  0  0  0  0  0  0  0  0  0
 14 13  1  0  0  0
 14 15  1  0  0  0
 13 10  1  0  0  0
 26 25  1  0  0  0
 22 21  1  0  0  0
 22 16  2  0  0  0
 10  9  1  0  0  0
 10 11  1  0  0  0
  8  9  2  0  0  0
  8  7  1  0  0  0
  9  4  1  0  0  0
 15 16  1  0  0  0
 15 12  1  0  0  0
  7  6  2  0  0  0
 21 18  1  0  0  0
 24 25  1  0  0  0
 11 12  1  0  0  0
 16 17  1  0  0  0
  4  3  1  0  0  0
  4  5  2  0  0  0
  6  5  1  0  0  0
 25 27  1  0  0  0
 25 23  1  0  0  0
  3  1  2  0  0  0
  5  2  1  0  0  0
  1  2  1  0  0  0
  1 23  1  0  0  0
 20 18  1  0  0  0
 18 17  1  0  0  0
 18 19  1  0  0  0
M  END
> <minimizedAffinity>
-7.36369

$$$$
4GQ4_0RT_A_601


 27 30  0  0  0  0  0  0  0  0999 V2000
  -13.9040   15.5243   12.1643 C   0  0  0  0  0  0  0  0  0  0  0  0
  -14.0610   16.9007   11.0880 S   0  0  0  0  0  0  0  0  0  0  0  0
  -13.5329   14.4505   11.3883 C   0  0  0  0  0  0  0  0  0  0  0  0
  -13.3174   14.6358   10.0508 C   0  0  0  0  0  0  0  0  0  0  0  0
  -13.6350   16.0153    9.7683 C   0  0  0  0  0  0  0  0  0  0  0  0
  -13.5571   16.4720    8.5232 N   0  0  0  0  0  0  0  0  0  0  0  0
  -13.2591   15.6716    7.5534 C   0  0  0  0  0  0  0  0  0  0  0  0
  -12.9251   14.3391    7.7107 N   0  0  0  0  0  0  0  0  0  0  0  0
  -12.8965   13.8837    8.9492 C   0  0  0  0  0  0  0  0  0  0  0  0
  -12.4984   12.5505    9.0972 N   0  0  0  0  0  0  0  0  0  0  0  0
  -13.3339   11.5135    9.6917 C   0  0  0  0  0  0  0  0  0  0  0  0
  -12.6012   10.9424   10.8819 C   0  0  0  0  0  0  0  0  0  0  0  0
  -11.0451   12.2940    9.0467 C   0  0  0  0  0  0  0  0  0  0  0  0
  -10.7148   10.8158    9.1455 C   0  0  0  0  0  0  0  0  0  0  0  0
  -11.3428   10.3195   10.4900 N   0  0  0  0  0  0  0  0  0  0  0  0
  -10.6056    9.5721   11.3340 C   0  0  0  0  0  0  0  0  0  0  0  0
  -10.5890    7.8980   11.1621 S   0  0  0  0  0  0  0  0  0  0  0  0
   -9.1957    7.7109   12.2448 C   0  0  0  0  0  0  0  0  0  0  0  0
   -9.5414    6.6317   13.2385 C   0  0  0  0  0  0  0  0  0  0  0  0
   -7.9878    7.5131   11.4199 C   0  0  0  0  0  0  0  0  0  0  0  0
   -9.1435    8.9880   13.0488 C   0  0  0  0  0  0  0  0  0  0  0  0
   -9.7959   10.0234   12.2763 N   0  0  0  0  0  0  0  0  0  0  0  0
  -14.2553   15.5861   13.5491 C   0  0  0  0  0  0  0  0  0  0  0  0
  -15.3102   16.3026   15.4891 F   0  0  0  0  0  0  0  0  0  0  0  0
  -15.1723   16.6559   14.1171 C   0  0  0  0  0  0  0  0  0  0  0  0
  -14.3309   17.7679   14.3808 F   0  0  0  0  0  0  0  0  0  0  0  0
  -16.1777   16.9801   13.6487 F   0  0  0  0  0  0  0  0  0  0  0  0
 14 13  1  0  0  0
 14 15  1  0  0  0
 13 10  1  0  0  0
 26 25  1  0  0  0
 22 21  1  0  0  0
 22 16  2  0  0  0
 10  9  1  0  0  0
 10 11  1  0  0  0
  8  9  2  0  0  0
  8  7  1  0  0  0
  9  4  1  0  0  0
 15 16  1  0  0  0
 15 12  1  0  0  0
  7  6  2  0  0  0
 21 18  1  0  0  0
 24 25  1  0  0  0
 11 12  1  0  0  0
 16 17  1  0  0  0
  4  3  1  0  0  0
  4  5  2  0  0  0
  6  5  1  0  0  0
 25 27  1  0  0  0
 25 23  1  0  0  0
  3  1  2  0  0  0
  5  2  1  0  0  0
  1  2  1  0  0  0
  1 23  1  0  0  0
 20 18  1  0  0  0
 18 17  1  0  0  0
 18 19  1  0  0  0
M  END
> <minimizedAffinity>
-7.34797

$$$$
4GQ4_0RT_A_601


 27 30  0  0  0  0  0  0  0  0999 V2000
   -8.6181    8.4167   12.7260 C   0  0  0  0  0  0  0  0  0  0  0  0
   -9.5939    6.9838   12.9942 S   0  0  0  0  0  0  0  0  0  0  0  0
   -9.4213    9.3335   12.0876 C   0  0  0  0  0  0  0  0  0  0  0  0
  -10.7301    9.0205   11.8455 C   0  0  0  0  0  0  0  0  0  0  0  0
  -10.9211    7.6633   12.2984 C   0  0  0  0  0  0  0  0  0  0  0  0
  -12.1018    7.0736   12.1467 N   0  0  0  0  0  0  0  0  0  0  0  0
  -13.0628    7.6873   11.5385 C   0  0  0  0  0  0  0  0  0  0  0  0
  -12.9944    8.9890   11.0773 N   0  0  0  0  0  0  0  0  0  0  0  0
  -11.8652    9.6334   11.3048 C   0  0  0  0  0  0  0  0  0  0  0  0
  -11.8324   10.9682   10.8863 N   0  0  0  0  0  0  0  0  0  0  0  0
  -11.2937   11.4053    9.6036 C   0  0  0  0  0  0  0  0  0  0  0  0
  -10.1743   12.3826    9.8707 C   0  0  0  0  0  0  0  0  0  0  0  0
  -11.9477   11.9879   11.9481 C   0  0  0  0  0  0  0  0  0  0  0  0
  -11.9731   13.4005   11.3931 C   0  0  0  0  0  0  0  0  0  0  0  0
  -10.6518   13.5681   10.5717 N   0  0  0  0  0  0  0  0  0  0  0  0
   -9.8910   14.6653   10.7500 C   0  0  0  0  0  0  0  0  0  0  0  0
   -8.8652   15.1736    9.5164 S   0  0  0  0  0  0  0  0  0  0  0  0
   -8.5836   16.7510   10.2789 C   0  0  0  0  0  0  0  0  0  0  0  0
   -7.0945   16.9836   10.2915 C   0  0  0  0  0  0  0  0  0  0  0  0
   -9.4222   17.7552    9.5956 C   0  0  0  0  0  0  0  0  0  0  0  0
   -8.9682   16.5660   11.7273 C   0  0  0  0  0  0  0  0  0  0  0  0
   -9.9122   15.4713   11.7974 N   0  0  0  0  0  0  0  0  0  0  0  0
   -7.2214    8.4645   13.0289 C   0  0  0  0  0  0  0  0  0  0  0  0
   -6.2138    6.4770   12.3775 F   0  0  0  0  0  0  0  0  0  0  0  0
   -6.1617    7.8748   12.1138 C   0  0  0  0  0  0  0  0  0  0  0  0
   -6.7847    7.7635   10.8436 F   0  0  0  0  0  0  0  0  0  0  0  0
   -5.0759    8.2605   12.0269 F   0  0  0  0  0  0  0  0  0  0  0  0
 14 13  1  0  0  0
 14 15  1  0  0  0
 13 10  1  0  0  0
 26 25  1  0  0  0
 22 21  1  0  0  0
 22 16  2  0  0  0
 10  9  1  0  0  0
 10 11  1  0  0  0
  8  9  2  0  0  0
  8  7  1  0  0  0
  9  4  1  0  0  0
 15 16  1  0  0  0
 15 12  1  0  0  0
  7  6  2  0  0  0
 21 18  1  0  0  0
 24 25  1  0  0  0
 11 12  1  0  0  0
 16 17  1  0  0  0
  4  3  1  0  0  0
  4  5  2  0  0  0
  6  5  1  0  0  0
 25 27  1  0  0  0
 25 23  1  0  0  0
  3  1  2  0  0  0
  5  2  1  0  0  0
  1  2  1  0  0  0
  1 23  1  0  0  0
 20 18  1  0  0  0
 18 17  1  0  0  0
 18 19  1  0  0  0
M  END
> <minimizedAffinity>
-7.29519

$$$$
4GQ4_0RT_A_601


 27 30  0  0  0  0  0  0  0  0999 V2000
  -11.8213    9.7063   10.7506 C   0  0  0  0  0  0  0  0  0  0  0  0
  -12.6691    8.3026   11.3736 S   0  0  0  0  0  0  0  0  0  0  0  0
  -10.5111    9.5942   11.1553 C   0  0  0  0  0  0  0  0  0  0  0  0
  -10.1216    8.4876   11.8579 C   0  0  0  0  0  0  0  0  0  0  0  0
  -11.3086    7.6944   12.0709 C   0  0  0  0  0  0  0  0  0  0  0  0
  -11.2365    6.5683   12.7720 N   0  0  0  0  0  0  0  0  0  0  0  0
  -10.1209    6.2115   13.3180 C   0  0  0  0  0  0  0  0  0  0  0  0
   -8.9235    6.8866   13.1690 N   0  0  0  0  0  0  0  0  0  0  0  0
   -8.9448    7.9547   12.3941 C   0  0  0  0  0  0  0  0  0  0  0  0
   -7.7137    8.5923   12.2043 N   0  0  0  0  0  0  0  0  0  0  0  0
   -7.5541   10.0383   12.1024 C   0  0  0  0  0  0  0  0  0  0  0  0
   -6.9226   10.3500   10.7668 C   0  0  0  0  0  0  0  0  0  0  0  0
   -6.6229    7.7571   11.6632 C   0  0  0  0  0  0  0  0  0  0  0  0
   -5.3118    8.5148   11.5585 C   0  0  0  0  0  0  0  0  0  0  0  0
   -5.5979    9.7537   10.6465 N   0  0  0  0  0  0  0  0  0  0  0  0
   -4.7558   10.0465    9.6368 C   0  0  0  0  0  0  0  0  0  0  0  0
   -4.4441   11.6559    9.2559 S   0  0  0  0  0  0  0  0  0  0  0  0
   -3.0580   11.2380    8.2300 C   0  0  0  0  0  0  0  0  0  0  0  0
   -3.2265   11.9750    6.9261 C   0  0  0  0  0  0  0  0  0  0  0  0
   -1.8203   11.4858    8.9951 C   0  0  0  0  0  0  0  0  0  0  0  0
   -3.2433    9.7791    7.8875 C   0  0  0  0  0  0  0  0  0  0  0  0
   -4.0534    9.1807    8.9268 N   0  0  0  0  0  0  0  0  0  0  0  0
  -12.4926   10.7755   10.0789 C   0  0  0  0  0  0  0  0  0  0  0  0
  -13.8642   12.6319   10.3283 F   0  0  0  0  0  0  0  0  0  0  0  0
  -12.5464   12.1889   10.6335 C   0  0  0  0  0  0  0  0  0  0  0  0
  -12.8072   12.0366   12.0202 F   0  0  0  0  0  0  0  0  0  0  0  0
  -11.7555   13.0072   10.4329 F   0  0  0  0  0  0  0  0  0  0  0  0
 14 13  1  0  0  0
 14 15  1  0  0  0
 13 10  1  0  0  0
 26 25  1  0  0  0
 22 21  1  0  0  0
 22 16  2  0  0  0
 10  9  1  0  0  0
 10 11  1  0  0  0
  8  9  2  0  0  0
  8  7  1  0  0  0
  9  4  1  0  0  0
 15 16  1  0  0  0
 15 12  1  0  0  0
  7  6  2  0  0  0
 21 18  1  0  0  0
 24 25  1  0  0  0
 11 12  1  0  0  0
 16 17  1  0  0  0
  4  3  1  0  0  0
  4  5  2  0  0  0
  6  5  1  0  0  0
 25 27  1  0  0  0
 25 23  1  0  0  0
  3  1  2  0  0  0
  5  2  1  0  0  0
  1  2  1  0  0  0
  1 23  1  0  0  0
 20 18  1  0  0  0
 18 17  1  0  0  0
 18 19  1  0  0  0
M  END
> <minimizedAffinity>
-7.17857

$$$$
4GQ4_0RT_A_601


 27 30  0  0  0  0  0  0  0  0999 V2000
  -14.9526   15.8242   11.3583 C   0  0  0  0  0  0  0  0  0  0  0  0
  -15.9661   15.7485    9.9285 S   0  0  0  0  0  0  0  0  0  0  0  0
  -13.9821   14.8600   11.2118 C   0  0  0  0  0  0  0  0  0  0  0  0
  -13.9454   14.1185   10.0635 C   0  0  0  0  0  0  0  0  0  0  0  0
  -15.0786   14.5299    9.2696 C   0  0  0  0  0  0  0  0  0  0  0  0
  -15.3213   13.9394    8.1046 N   0  0  0  0  0  0  0  0  0  0  0  0
  -14.5842   12.9550    7.7074 C   0  0  0  0  0  0  0  0  0  0  0  0
  -13.4694   12.4889    8.3796 N   0  0  0  0  0  0  0  0  0  0  0  0
  -13.1462   13.1238    9.4905 C   0  0  0  0  0  0  0  0  0  0  0  0
  -11.9819   12.6799   10.1273 N   0  0  0  0  0  0  0  0  0  0  0  0
  -10.6660   12.6664    9.4989 C   0  0  0  0  0  0  0  0  0  0  0  0
  -10.1551   11.2457    9.5051 C   0  0  0  0  0  0  0  0  0  0  0  0
  -12.1734   11.8059   11.3020 C   0  0  0  0  0  0  0  0  0  0  0  0
  -10.8603   11.4337   11.9662 C   0  0  0  0  0  0  0  0  0  0  0  0
   -9.9974   10.7372   10.8621 N   0  0  0  0  0  0  0  0  0  0  0  0
   -9.3759    9.5742   11.1370 C   0  0  0  0  0  0  0  0  0  0  0  0
   -9.0233    9.1787   12.7344 S   0  0  0  0  0  0  0  0  0  0  0  0
   -8.6537    7.4912   12.3290 C   0  0  0  0  0  0  0  0  0  0  0  0
   -7.3344    7.1533   12.9747 C   0  0  0  0  0  0  0  0  0  0  0  0
   -9.8187    6.6595   12.6890 C   0  0  0  0  0  0  0  0  0  0  0  0
   -8.3800    7.4906   10.8441 C   0  0  0  0  0  0  0  0  0  0  0  0
   -9.0647    8.6280   10.2681 N   0  0  0  0  0  0  0  0  0  0  0  0
  -15.2520   16.6723   12.4701 C   0  0  0  0  0  0  0  0  0  0  0  0
  -15.6020   16.6235   14.7646 F   0  0  0  0  0  0  0  0  0  0  0  0
  -14.5481   16.5486   13.8107 C   0  0  0  0  0  0  0  0  0  0  0  0
  -14.3394   15.1572   13.9963 F   0  0  0  0  0  0  0  0  0  0  0  0
  -13.6265   17.1674   14.1319 F   0  0  0  0  0  0  0  0  0  0  0  0
 14 13  1  0  0  0
 14 15  1  0  0  0
 13 10  1  0  0  0
 26 25  1  0  0  0
 22 21  1  0  0  0
 22 16  2  0  0  0
 10  9  1  0  0  0
 10 11  1  0  0  0
  8  9  2  0  0  0
  8  7  1  0  0  0
  9  4  1  0  0  0
 15 16  1  0  0  0
 15 12  1  0  0  0
  7  6  2  0  0  0
 21 18  1  0  0  0
 24 25  1  0  0  0
 11 12  1  0  0  0
 16 17  1  0  0  0
  4  3  1  0  0  0
  4  5  2  0  0  0
  6  5  1  0  0  0
 25 27  1  0  0  0
 25 23  1  0  0  0
  3  1  2  0  0  0
  5  2  1  0  0  0
  1  2  1  0  0  0
  1 23  1  0  0  0
 20 18  1  0  0  0
 18 17  1  0  0  0
 18 19  1  0  0  0
M  END
> <minimizedAffinity>
-7.13667

$$$$
4GQ4_0RT_A_601


 27 30  0  0  0  0  0  0  0  0999 V2000
   -3.7381   10.6053    9.6771 C   0  0  0  0  0  0  0  0  0  0  0  0
   -3.5057    9.1863   10.6819 S   0  0  0  0  0  0  0  0  0  0  0  0
   -5.0266   11.0386    9.8891 C   0  0  0  0  0  0  0  0  0  0  0  0
   -5.8096   10.3848   10.7998 C   0  0  0  0  0  0  0  0  0  0  0  0
   -5.0332    9.2701   11.2876 C   0  0  0  0  0  0  0  0  0  0  0  0
   -5.5650    8.4245   12.1635 N   0  0  0  0  0  0  0  0  0  0  0  0
   -6.7958    8.5588   12.5335 C   0  0  0  0  0  0  0  0  0  0  0  0
   -7.6245    9.5936   12.1407 N   0  0  0  0  0  0  0  0  0  0  0  0
   -7.0904   10.5047   11.3491 C   0  0  0  0  0  0  0  0  0  0  0  0
   -7.9223   11.5771   11.0090 N   0  0  0  0  0  0  0  0  0  0  0  0
   -7.6140   12.9713   11.3053 C   0  0  0  0  0  0  0  0  0  0  0  0
   -8.7249   13.5279   12.1630 C   0  0  0  0  0  0  0  0  0  0  0  0
   -9.3352   11.2458   10.7361 C   0  0  0  0  0  0  0  0  0  0  0  0
  -10.1415   12.4587   10.3084 C   0  0  0  0  0  0  0  0  0  0  0  0
  -10.0057   13.5011   11.4674 N   0  0  0  0  0  0  0  0  0  0  0  0
  -11.1056   14.1176   11.9415 C   0  0  0  0  0  0  0  0  0  0  0  0
  -11.2528   15.7870   11.7879 S   0  0  0  0  0  0  0  0  0  0  0  0
  -12.9765   15.7636   12.2086 C   0  0  0  0  0  0  0  0  0  0  0  0
  -13.1952   16.8178   13.2632 C   0  0  0  0  0  0  0  0  0  0  0  0
  -13.7617   15.8751   10.9637 C   0  0  0  0  0  0  0  0  0  0  0  0
  -13.1951   14.4463   12.9135 C   0  0  0  0  0  0  0  0  0  0  0  0
  -12.1664   13.5309   12.4684 N   0  0  0  0  0  0  0  0  0  0  0  0
   -2.7524   11.0584    8.7453 C   0  0  0  0  0  0  0  0  0  0  0  0
   -3.4111    9.3971    7.2634 F   0  0  0  0  0  0  0  0  0  0  0  0
   -2.7681   10.6669    7.2775 C   0  0  0  0  0  0  0  0  0  0  0  0
   -3.8791   11.3515    6.7199 F   0  0  0  0  0  0  0  0  0  0  0  0
   -1.8498   10.6968    6.5766 F   0  0  0  0  0  0  0  0  0  0  0  0
 14 13  1  0  0  0
 14 15  1  0  0  0
 13 10  1  0  0  0
 26 25  1  0  0  0
 22 21  1  0  0  0
 22 16  2  0  0  0
 10  9  1  0  0  0
 10 11  1  0  0  0
  8  9  2  0  0  0
  8  7  1  0  0  0
  9  4  1  0  0  0
 15 16  1  0  0  0
 15 12  1  0  0  0
  7  6  2  0  0  0
 21 18  1  0  0  0
 24 25  1  0  0  0
 11 12  1  0  0  0
 16 17  1  0  0  0
  4  3  1  0  0  0
  4  5  2  0  0  0
  6  5  1  0  0  0
 25 27  1  0  0  0
 25 23  1  0  0  0
  3  1  2  0  0  0
  5  2  1  0  0  0
  1  2  1  0  0  0
  1 23  1  0  0  0
 20 18  1  0  0  0
 18 17  1  0  0  0
 18 19  1  0  0  0
M  END
> <minimizedAffinity>
-6.95682

$$$$
4GQ4_0RT_A_601


 27 30  0  0  0  0  0  0  0  0999 V2000
   -3.1349   12.5694    9.7670 C   0  0  0  0  0  0  0  0  0  0  0  0
   -1.7306   11.6620   10.2979 S   0  0  0  0  0  0  0  0  0  0  0  0
   -4.2309   11.7613    9.9641 C   0  0  0  0  0  0  0  0  0  0  0  0
   -4.0593   10.5310   10.5357 C   0  0  0  0  0  0  0  0  0  0  0  0
   -2.6394   10.3609   10.7318 C   0  0  0  0  0  0  0  0  0  0  0  0
   -2.1713    9.2251   11.2378 N   0  0  0  0  0  0  0  0  0  0  0  0
   -2.9756    8.2474   11.4969 C   0  0  0  0  0  0  0  0  0  0  0  0
   -4.3503    8.3053   11.3599 N   0  0  0  0  0  0  0  0  0  0  0  0
   -4.8515    9.4569   10.9541 C   0  0  0  0  0  0  0  0  0  0  0  0
   -6.2473    9.5190   10.8783 N   0  0  0  0  0  0  0  0  0  0  0  0
   -6.9923    9.5657    9.6255 C   0  0  0  0  0  0  0  0  0  0  0  0
   -7.8161   10.8309    9.6137 C   0  0  0  0  0  0  0  0  0  0  0  0
   -6.9466    9.9849   12.0925 C   0  0  0  0  0  0  0  0  0  0  0  0
   -8.4564    9.9520   11.9390 C   0  0  0  0  0  0  0  0  0  0  0  0
   -8.7866   10.8504   10.7012 N   0  0  0  0  0  0  0  0  0  0  0  0
   -9.7640   11.7732   10.7893 C   0  0  0  0  0  0  0  0  0  0  0  0
  -10.2885   12.2848   12.3044 S   0  0  0  0  0  0  0  0  0  0  0  0
  -11.1726   13.6678   11.6304 C   0  0  0  0  0  0  0  0  0  0  0  0
  -12.5541   13.6538   12.2329 C   0  0  0  0  0  0  0  0  0  0  0  0
  -10.3579   14.8827   11.8276 C   0  0  0  0  0  0  0  0  0  0  0  0
  -11.3734   13.3373   10.1708 C   0  0  0  0  0  0  0  0  0  0  0  0
  -10.3330   12.4102    9.7805 N   0  0  0  0  0  0  0  0  0  0  0  0
   -3.0313   13.8478    9.1346 C   0  0  0  0  0  0  0  0  0  0  0  0
   -4.0495   15.7712    9.9430 F   0  0  0  0  0  0  0  0  0  0  0  0
   -2.7792   15.1298    9.9098 C   0  0  0  0  0  0  0  0  0  0  0  0
   -2.8178   14.7533   11.2775 F   0  0  0  0  0  0  0  0  0  0  0  0
   -1.9221   15.8741    9.6936 F   0  0  0  0  0  0  0  0  0  0  0  0
 14 13  1  0  0  0
 14 15  1  0  0  0
 13 10  1  0  0  0
 26 25  1  0  0  0
 22 21  1  0  0  0
 22 16  2  0  0  0
 10  9  1  0  0  0
 10 11  1  0  0  0
  8  9  2  0  0  0
  8  7  1  0  0  0
  9  4  1  0  0  0
 15 16  1  0  0  0
 15 12  1  0  0  0
  7  6  2  0  0  0
 21 18  1  0  0  0
 24 25  1  0  0  0
 11 12  1  0  0  0
 16 17  1  0  0  0
  4  3  1  0  0  0
  4  5  2  0  0  0
  6  5  1  0  0  0
 25 27  1  0  0  0
 25 23  1  0  0  0
  3  1  2  0  0  0
  5  2  1  0  0  0
  1  2  1  0  0  0
  1 23  1  0  0  0
 20 18  1  0  0  0
 18 17  1  0  0  0
 18 19  1  0  0  0
M  END
> <minimizedAffinity>
-6.86380

$$$$
