5CSO_CTN_A_804
  RCSB PDB12061717093D
Coordinates from PDB:5CSO:A:804 Model:1 without hydrogens
 17 18  0  0  0  0            999 V2000
   20.7720    5.5960   -8.3080   O 0  0  0  0  0  0  0  0  0  0  0  0
   21.9090    5.7220   -7.4490   C 0  0  0  0  0  0  0  0  0  0  0  0
   21.5960    6.6940   -6.3150   C 0  0  0  0  0  0  0  0  0  0  0  0
   20.7950    6.0740   -5.3010   O 0  0  0  0  0  0  0  0  0  0  0  0
   21.2950    6.3880   -3.9950   C 0  0  0  0  0  0  0  0  0  0  0  0
   21.7740    5.1800   -3.3080   N 0  0  0  0  0  0  0  0  0  0  0  0
   22.3940    4.2080   -4.0020   C 0  0  0  0  0  0  0  0  0  0  0  0
   22.8500    3.0670   -3.3550   C 0  0  0  0  0  0  0  0  0  0  0  0
   22.6650    2.9430   -1.9820   C 0  0  0  0  0  0  0  0  0  0  0  0
   22.0480    3.9210   -1.2840   N 0  0  0  0  0  0  0  0  0  0  0  0
   21.6010    5.0340   -1.9070   C 0  0  0  0  0  0  0  0  0  0  0  0
   21.0390    5.9170   -1.2260   O 0  0  0  0  0  0  0  0  0  0  0  0
   23.1010    1.8430   -1.3370   N 0  0  0  0  0  0  0  0  0  0  0  0
   22.4500    7.3610   -4.1730   C 0  0  0  0  0  0  0  0  0  0  0  0
   22.0250    8.6950   -3.8720   O 0  0  0  0  0  0  0  0  0  0  0  0
   22.8530    7.2060   -5.6270   C 0  0  0  0  0  0  0  0  0  0  0  0
   23.3030    8.4380   -6.1990   O 0  0  0  0  0  0  0  0  0  0  0  0
  1  2  1  0  0  0  0
  2  3  1  0  0  0  0
  3  4  1  0  0  0  0
  3 16  1  0  0  0  0
  4  5  1  0  0  0  0
  5  6  1  0  0  0  0
  5 14  1  0  0  0  0
  6  7  1  0  0  0  0
  6 11  1  0  0  0  0
  7  8  2  0  0  0  0
  8  9  1  0  0  0  0
  9 10  2  0  0  0  0
  9 13  1  0  0  0  0
 10 11  1  0  0  0  0
 11 12  2  0  0  0  0
 14 15  1  0  0  0  0
 14 16  1  0  0  0  0
 16 17  1  0  0  0  0
A    1
O5'
A    2
C5'
A    3
C4'
A    4
O4'
A    5
C1'
A    6
N1
A    7
C6
A    8
C5
A    9
C4
A   10
N3
A   11
C2
A   12
O2
A   13
N4
A   14
C2'
A   15
O2'
A   16
C3'
A   17
O3'
M  END
>  <InstanceId>
5CSO_CTN_A_804

>  <ChemCompId>
CTN

>  <PdbId>
5CSO

>  <ChainId>
A

>  <ResidueNumber>
804

>  <InsertionCode>


>  <Model>
1

>  <AltIds>


>  <MissingHeavyAtoms>
0

>  <ObservedFormula>
C9 N3 O5

>  <Name>
4-AMINO-1-BETA-D-RIBOFURANOSYL-2(1H)-PYRIMIDINONE

>  <SystematicName>
4-amino-1-[(2R,3R,4S,5R)-3,4-dihydroxy-5-(hydroxymethyl)oxolan-2-yl]pyrimidin-2-one

>  <Synonyms>
CYTIDINE

>  <Type>
NON-POLYMER

>  <Formula>
C9 H13 N3 O5

>  <MolecularWeight>
243.217

>  <ModifiedDate>
2011-06-04

>  <Parent>


>  <OneLetterCode>


>  <SubcomponentList>


>  <AmbiguousFlag>
N

>  <InChI>
InChI=1S/C9H13N3O5/c10-5-1-2-12(9(16)11-5)8-7(15)6(14)4(3-13)17-8/h1-2,4,6-8,13-15H,3H2,(H2,10,11,16)/t4-,6-,7-,8-/m1/s1

>  <InChIKey>
UHDGCWIWMRVCDJ-XVFCMESISA-N

>  <SMILES>
C1=CN(C(=O)N=C1N)[C@H]2[C@@H]([C@@H]([C@H](O2)CO)O)O

$$$$
