5CSO_CTN_A_804


 22 23  0  0  0  0  0  0  0  0999 V2000
   22.1553    7.1951   -6.4901 C   0  0  0  0  0  0  0  0  0  0  0  0
   21.2629    6.3192   -5.7896 O   0  0  0  0  0  0  0  0  0  0  0  0
   21.2791    6.5950   -4.3832 C   0  0  0  0  0  0  0  0  0  0  0  0
   22.1782    7.8024   -4.1678 C   0  0  0  0  0  0  0  0  0  0  0  0
   21.3875    8.9787   -3.9632 O   0  0  0  0  0  0  0  0  0  0  0  0
   23.0068    7.8864   -5.4354 C   0  0  0  0  0  0  0  0  0  0  0  0
   23.3041    9.2378   -5.8000 O   0  0  0  0  0  0  0  0  0  0  0  0
   20.8000    9.1098   -4.7238 H   0  0  0  0  0  0  0  0  0  0  0  0
   22.4768    9.7278   -5.9274 H   0  0  0  0  0  0  0  0  0  0  0  0
   21.8064    5.4506   -3.6263 N   0  0  0  0  0  0  0  0  0  0  0  0
   22.4423    4.4518   -4.2657 C   0  0  0  0  0  0  0  0  0  0  0  0
   22.9440    3.3709   -3.5528 C   0  0  0  0  0  0  0  0  0  0  0  0
   22.7880    3.3352   -2.1710 C   0  0  0  0  0  0  0  0  0  0  0  0
   22.1550    4.3404   -1.5281 N   0  0  0  0  0  0  0  0  0  0  0  0
   21.6636    5.3953   -2.2154 C   0  0  0  0  0  0  0  0  0  0  0  0
   21.0881    6.3061   -1.5842 O   0  0  0  0  0  0  0  0  0  0  0  0
   23.2684    2.2945   -1.4624 N   0  0  0  0  0  0  0  0  0  0  0  0
   23.7311    1.5573   -1.9226 H   0  0  0  0  0  0  0  0  0  0  0  0
   23.1566    2.2713   -0.4846 H   0  0  0  0  0  0  0  0  0  0  0  0
   24.3758    6.7867   -7.3614 O   0  0  0  0  0  0  0  0  0  0  0  0
   22.9976    6.4329   -7.5091 C   0  0  0  0  0  0  0  0  0  0  0  0
   24.9061    6.2996   -8.0113 H   0  0  0  0  0  0  0  0  0  0  0  0
 20 21  1  0  0  0
 21  1  1  0  0  0
  1  2  1  0  0  0
  1  6  1  0  0  0
  2  3  1  0  0  0
  3 10  1  0  0  0
  3  4  1  0  0  0
 10 11  1  0  0  0
 10 15  1  0  0  0
 11 12  2  0  0  0
 12 13  1  0  0  0
 13 14  2  0  0  0
 13 17  1  0  0  0
 14 15  1  0  0  0
 15 16  2  0  0  0
  4  5  1  0  0  0
  4  6  1  0  0  0
  6  7  1  0  0  0
 20 22  1  0  0  0
 17 18  1  0  0  0
 17 19  1  0  0  0
  5  8  1  0  0  0
  7  9  1  0  0  0
M  END
> <minimizedAffinity>
-8.11048

$$$$
5CSO_CTN_A_804


 22 23  0  0  0  0  0  0  0  0999 V2000
   21.2429    7.5975   -3.5459 C   0  0  0  0  0  0  0  0  0  0  0  0
   20.7354    6.2630   -3.6711 O   0  0  0  0  0  0  0  0  0  0  0  0
   21.1955    5.4404   -2.5913 C   0  0  0  0  0  0  0  0  0  0  0  0
   21.9831    6.3327   -1.6447 C   0  0  0  0  0  0  0  0  0  0  0  0
   21.1893    6.6631   -0.4996 O   0  0  0  0  0  0  0  0  0  0  0  0
   22.3228    7.5560   -2.4746 C   0  0  0  0  0  0  0  0  0  0  0  0
   22.3368    8.7544   -1.6929 O   0  0  0  0  0  0  0  0  0  0  0  0
   20.3696    7.0942   -0.7879 H   0  0  0  0  0  0  0  0  0  0  0  0
   21.4685    8.8811   -1.2796 H   0  0  0  0  0  0  0  0  0  0  0  0
   22.0636    4.3606   -3.0822 N   0  0  0  0  0  0  0  0  0  0  0  0
   22.4937    4.3653   -4.3573 C   0  0  0  0  0  0  0  0  0  0  0  0
   23.3162    3.3479   -4.8230 C   0  0  0  0  0  0  0  0  0  0  0  0
   23.6957    2.3286   -3.9560 C   0  0  0  0  0  0  0  0  0  0  0  0
   23.2691    2.3266   -2.6744 N   0  0  0  0  0  0  0  0  0  0  0  0
   22.4679    3.3131   -2.2143 C   0  0  0  0  0  0  0  0  0  0  0  0
   22.0979    3.2774   -1.0222 O   0  0  0  0  0  0  0  0  0  0  0  0
   24.4935    1.3330   -4.3900 N   0  0  0  0  0  0  0  0  0  0  0  0
   24.8093    1.3262   -5.3224 H   0  0  0  0  0  0  0  0  0  0  0  0
   24.7606    0.6124   -3.7746 H   0  0  0  0  0  0  0  0  0  0  0  0
   23.1545    8.4502   -4.7605 O   0  0  0  0  0  0  0  0  0  0  0  0
   21.7675    8.1210   -4.8799 C   0  0  0  0  0  0  0  0  0  0  0  0
   23.4824    8.7823   -5.6109 H   0  0  0  0  0  0  0  0  0  0  0  0
 20 21  1  0  0  0
 21  1  1  0  0  0
  1  2  1  0  0  0
  1  6  1  0  0  0
  2  3  1  0  0  0
  3 10  1  0  0  0
  3  4  1  0  0  0
 10 11  1  0  0  0
 10 15  1  0  0  0
 11 12  2  0  0  0
 12 13  1  0  0  0
 13 14  2  0  0  0
 13 17  1  0  0  0
 14 15  1  0  0  0
 15 16  2  0  0  0
  4  5  1  0  0  0
  4  6  1  0  0  0
  6  7  1  0  0  0
 20 22  1  0  0  0
 17 18  1  0  0  0
 17 19  1  0  0  0
  5  8  1  0  0  0
  7  9  1  0  0  0
M  END
> <minimizedAffinity>
-7.78944

$$$$
5CSO_CTN_A_804


 22 23  0  0  0  0  0  0  0  0999 V2000
   23.8409    8.9551   -7.4808 C   0  0  0  0  0  0  0  0  0  0  0  0
   24.3565    7.7894   -6.8255 O   0  0  0  0  0  0  0  0  0  0  0  0
   23.3754    6.7449   -6.7988 C   0  0  0  0  0  0  0  0  0  0  0  0
   22.1664    7.2379   -7.5783 C   0  0  0  0  0  0  0  0  0  0  0  0
   22.1454    6.6502   -8.8840 O   0  0  0  0  0  0  0  0  0  0  0  0
   22.3418    8.7434   -7.6340 C   0  0  0  0  0  0  0  0  0  0  0  0
   21.8525    9.3012   -8.8575 O   0  0  0  0  0  0  0  0  0  0  0  0
   22.9714    6.8611   -9.3468 H   0  0  0  0  0  0  0  0  0  0  0  0
   22.3195    8.8983   -9.6061 H   0  0  0  0  0  0  0  0  0  0  0  0
   22.9744    6.4318   -5.4197 N   0  0  0  0  0  0  0  0  0  0  0  0
   22.5966    7.4171   -4.5848 C   0  0  0  0  0  0  0  0  0  0  0  0
   22.2145    7.1238   -3.2823 C   0  0  0  0  0  0  0  0  0  0  0  0
   22.2202    5.8008   -2.8527 C   0  0  0  0  0  0  0  0  0  0  0  0
   22.5937    4.8108   -3.6922 N   0  0  0  0  0  0  0  0  0  0  0  0
   22.9674    5.0888   -4.9610 C   0  0  0  0  0  0  0  0  0  0  0  0
   23.3023    4.1453   -5.7073 O   0  0  0  0  0  0  0  0  0  0  0  0
   21.8524    5.4970   -1.5923 N   0  0  0  0  0  0  0  0  0  0  0  0
   21.5787    6.2121   -0.9735 H   0  0  0  0  0  0  0  0  0  0  0  0
   21.8575    4.5599   -1.2904 H   0  0  0  0  0  0  0  0  0  0  0  0
   22.9753   10.9685   -6.4544 O   0  0  0  0  0  0  0  0  0  0  0  0
   24.1719   10.2244   -6.7010 C   0  0  0  0  0  0  0  0  0  0  0  0
   23.1916   11.7738   -5.9587 H   0  0  0  0  0  0  0  0  0  0  0  0
 20 21  1  0  0  0
 21  1  1  0  0  0
  1  2  1  0  0  0
  1  6  1  0  0  0
  2  3  1  0  0  0
  3 10  1  0  0  0
  3  4  1  0  0  0
 10 11  1  0  0  0
 10 15  1  0  0  0
 11 12  2  0  0  0
 12 13  1  0  0  0
 13 14  2  0  0  0
 13 17  1  0  0  0
 14 15  1  0  0  0
 15 16  2  0  0  0
  4  5  1  0  0  0
  4  6  1  0  0  0
  6  7  1  0  0  0
 20 22  1  0  0  0
 17 18  1  0  0  0
 17 19  1  0  0  0
  5  8  1  0  0  0
  7  9  1  0  0  0
M  END
> <minimizedAffinity>
-7.42524

$$$$
5CSO_CTN_A_804


 22 23  0  0  0  0  0  0  0  0999 V2000
   22.5644    7.3894   -7.7618 C   0  0  0  0  0  0  0  0  0  0  0  0
   21.6712    7.4701   -6.6439 O   0  0  0  0  0  0  0  0  0  0  0  0
   22.3698    7.8863   -5.4636 C   0  0  0  0  0  0  0  0  0  0  0  0
   23.8041    8.1889   -5.8681 C   0  0  0  0  0  0  0  0  0  0  0  0
   24.0007    9.6034   -5.9754 O   0  0  0  0  0  0  0  0  0  0  0  0
   23.9759    7.4872   -7.2017 C   0  0  0  0  0  0  0  0  0  0  0  0
   24.8450    8.2045   -8.0836 O   0  0  0  0  0  0  0  0  0  0  0  0
   23.3707    9.9698   -6.6154 H   0  0  0  0  0  0  0  0  0  0  0  0
   24.4892    9.0940   -8.2354 H   0  0  0  0  0  0  0  0  0  0  0  0
   22.3617    6.8277   -4.4438 N   0  0  0  0  0  0  0  0  0  0  0  0
   22.5186    5.5406   -4.8036 C   0  0  0  0  0  0  0  0  0  0  0  0
   22.5142    4.5388   -3.8419 C   0  0  0  0  0  0  0  0  0  0  0  0
   22.3526    4.8807   -2.5033 C   0  0  0  0  0  0  0  0  0  0  0  0
   22.2010    6.1731   -2.1411 N   0  0  0  0  0  0  0  0  0  0  0  0
   22.2037    7.1534   -3.0716 C   0  0  0  0  0  0  0  0  0  0  0  0
   22.0643    8.3361   -2.6961 O   0  0  0  0  0  0  0  0  0  0  0  0
   22.3459    3.9222   -1.5561 N   0  0  0  0  0  0  0  0  0  0  0  0
   22.4558    2.9776   -1.8108 H   0  0  0  0  0  0  0  0  0  0  0  0
   22.2312    4.1666   -0.6093 H   0  0  0  0  0  0  0  0  0  0  0  0
   21.0162    5.6211   -8.3389 O   0  0  0  0  0  0  0  0  0  0  0  0
   22.3433    6.1075   -8.5597 C   0  0  0  0  0  0  0  0  0  0  0  0
   20.8814    4.8067   -8.8482 H   0  0  0  0  0  0  0  0  0  0  0  0
 20 21  1  0  0  0
 21  1  1  0  0  0
  1  2  1  0  0  0
  1  6  1  0  0  0
  2  3  1  0  0  0
  3 10  1  0  0  0
  3  4  1  0  0  0
 10 11  1  0  0  0
 10 15  1  0  0  0
 11 12  2  0  0  0
 12 13  1  0  0  0
 13 14  2  0  0  0
 13 17  1  0  0  0
 14 15  1  0  0  0
 15 16  2  0  0  0
  4  5  1  0  0  0
  4  6  1  0  0  0
  6  7  1  0  0  0
 20 22  1  0  0  0
 17 18  1  0  0  0
 17 19  1  0  0  0
  5  8  1  0  0  0
  7  9  1  0  0  0
M  END
> <minimizedAffinity>
-7.34130

$$$$
5CSO_CTN_A_804


 22 23  0  0  0  0  0  0  0  0999 V2000
   23.4640    8.9446   -8.8118 C   0  0  0  0  0  0  0  0  0  0  0  0
   22.3026    8.4513   -8.1320 O   0  0  0  0  0  0  0  0  0  0  0  0
   22.3575    8.7687   -6.7354 C   0  0  0  0  0  0  0  0  0  0  0  0
   23.6022    9.6128   -6.5103 C   0  0  0  0  0  0  0  0  0  0  0  0
   23.2473   10.9942   -6.3810 O   0  0  0  0  0  0  0  0  0  0  0  0
   24.4581    9.3569   -7.7361 C   0  0  0  0  0  0  0  0  0  0  0  0
   25.2072   10.5124   -8.1249 O   0  0  0  0  0  0  0  0  0  0  0  0
   22.7677   11.2804   -7.1740 H   0  0  0  0  0  0  0  0  0  0  0  0
   24.5990   11.2453   -8.3086 H   0  0  0  0  0  0  0  0  0  0  0  0
   22.4390    7.5489   -5.9191 N   0  0  0  0  0  0  0  0  0  0  0  0
   22.9069    6.4066   -6.4547 C   0  0  0  0  0  0  0  0  0  0  0  0
   22.9876    5.2535   -5.6850 C   0  0  0  0  0  0  0  0  0  0  0  0
   22.5862    5.2940   -4.3539 C   0  0  0  0  0  0  0  0  0  0  0  0
   22.1220    6.4419   -3.8142 N   0  0  0  0  0  0  0  0  0  0  0  0
   22.0400    7.5679   -4.5573 C   0  0  0  0  0  0  0  0  0  0  0  0
   21.6090    8.6098   -4.0208 O   0  0  0  0  0  0  0  0  0  0  0  0
   22.6575    4.1851   -3.5915 N   0  0  0  0  0  0  0  0  0  0  0  0
   22.9946    3.3439   -3.9764 H   0  0  0  0  0  0  0  0  0  0  0  0
   22.3726    4.2161   -2.6496 H   0  0  0  0  0  0  0  0  0  0  0  0
   25.4315    7.7142   -9.4985 O   0  0  0  0  0  0  0  0  0  0  0  0
   24.0379    7.8991   -9.7637 C   0  0  0  0  0  0  0  0  0  0  0  0
   25.7908    7.0490  -10.1061 H   0  0  0  0  0  0  0  0  0  0  0  0
 20 21  1  0  0  0
 21  1  1  0  0  0
  1  2  1  0  0  0
  1  6  1  0  0  0
  2  3  1  0  0  0
  3 10  1  0  0  0
  3  4  1  0  0  0
 10 11  1  0  0  0
 10 15  1  0  0  0
 11 12  2  0  0  0
 12 13  1  0  0  0
 13 14  2  0  0  0
 13 17  1  0  0  0
 14 15  1  0  0  0
 15 16  2  0  0  0
  4  5  1  0  0  0
  4  6  1  0  0  0
  6  7  1  0  0  0
 20 22  1  0  0  0
 17 18  1  0  0  0
 17 19  1  0  0  0
  5  8  1  0  0  0
  7  9  1  0  0  0
M  END
> <minimizedAffinity>
-7.13824

$$$$
5CSO_CTN_A_804


 22 23  0  0  0  0  0  0  0  0999 V2000
   23.0968    6.2875   -5.3559 C   0  0  0  0  0  0  0  0  0  0  0  0
   23.6767    6.2491   -6.6661 O   0  0  0  0  0  0  0  0  0  0  0  0
   23.7191    7.5607   -7.2424 C   0  0  0  0  0  0  0  0  0  0  0  0
   23.2155    8.5355   -6.1895 C   0  0  0  0  0  0  0  0  0  0  0  0
   24.3162    9.2231   -5.5840 O   0  0  0  0  0  0  0  0  0  0  0  0
   22.4711    7.6653   -5.1951 C   0  0  0  0  0  0  0  0  0  0  0  0
   22.5948    8.1476   -3.8536 O   0  0  0  0  0  0  0  0  0  0  0  0
   24.9291    8.5769   -5.1997 H   0  0  0  0  0  0  0  0  0  0  0  0
   23.5324    8.1817   -3.6075 H   0  0  0  0  0  0  0  0  0  0  0  0
   22.8627    7.6421   -8.4343 N   0  0  0  0  0  0  0  0  0  0  0  0
   21.8871    6.7361   -8.6295 C   0  0  0  0  0  0  0  0  0  0  0  0
   21.0748    6.8123   -9.7533 C   0  0  0  0  0  0  0  0  0  0  0  0
   21.2763    7.8383  -10.6706 C   0  0  0  0  0  0  0  0  0  0  0  0
   22.2516    8.7514  -10.4721 N   0  0  0  0  0  0  0  0  0  0  0  0
   23.0464    8.6832   -9.3811 C   0  0  0  0  0  0  0  0  0  0  0  0
   23.9344    9.5484   -9.2317 O   0  0  0  0  0  0  0  0  0  0  0  0
   20.4977    7.9285  -11.7669 N   0  0  0  0  0  0  0  0  0  0  0  0
   19.7844    7.2674  -11.9198 H   0  0  0  0  0  0  0  0  0  0  0  0
   20.6423    8.6554  -12.4149 H   0  0  0  0  0  0  0  0  0  0  0  0
   21.2619    5.4405   -4.0247 O   0  0  0  0  0  0  0  0  0  0  0  0
   22.0838    5.1629   -5.1622 C   0  0  0  0  0  0  0  0  0  0  0  0
   20.6203    4.7227   -3.9065 H   0  0  0  0  0  0  0  0  0  0  0  0
 20 21  1  0  0  0
 21  1  1  0  0  0
  1  2  1  0  0  0
  1  6  1  0  0  0
  2  3  1  0  0  0
  3 10  1  0  0  0
  3  4  1  0  0  0
 10 11  1  0  0  0
 10 15  1  0  0  0
 11 12  2  0  0  0
 12 13  1  0  0  0
 13 14  2  0  0  0
 13 17  1  0  0  0
 14 15  1  0  0  0
 15 16  2  0  0  0
  4  5  1  0  0  0
  4  6  1  0  0  0
  6  7  1  0  0  0
 20 22  1  0  0  0
 17 18  1  0  0  0
 17 19  1  0  0  0
  5  8  1  0  0  0
  7  9  1  0  0  0
M  END
> <minimizedAffinity>
-6.94780

$$$$
5CSO_CTN_A_804


 22 23  0  0  0  0  0  0  0  0999 V2000
   23.7486    7.5179   -7.3546 C   0  0  0  0  0  0  0  0  0  0  0  0
   24.0677    6.1982   -6.8958 O   0  0  0  0  0  0  0  0  0  0  0  0
   22.8767    5.4236   -6.7062 C   0  0  0  0  0  0  0  0  0  0  0  0
   21.7037    6.2747   -7.1667 C   0  0  0  0  0  0  0  0  0  0  0  0
   21.2665    5.8553   -8.4643 O   0  0  0  0  0  0  0  0  0  0  0  0
   22.2470    7.6908   -7.1788 C   0  0  0  0  0  0  0  0  0  0  0  0
   21.6801    8.4798   -8.2294 O   0  0  0  0  0  0  0  0  0  0  0  0
   22.0069    5.9107   -9.0885 H   0  0  0  0  0  0  0  0  0  0  0  0
   21.8649    8.0606   -9.0843 H   0  0  0  0  0  0  0  0  0  0  0  0
   22.6975    5.0676   -5.2913 N   0  0  0  0  0  0  0  0  0  0  0  0
   22.1588    5.9537   -4.4338 C   0  0  0  0  0  0  0  0  0  0  0  0
   21.9859    5.6190   -3.0972 C   0  0  0  0  0  0  0  0  0  0  0  0
   22.3690    4.3566   -2.6564 C   0  0  0  0  0  0  0  0  0  0  0  0
   22.9043    3.4647   -3.5180 N   0  0  0  0  0  0  0  0  0  0  0  0
   23.0762    3.7836   -4.8201 C   0  0  0  0  0  0  0  0  0  0  0  0
   23.5711    2.9302   -5.5857 O   0  0  0  0  0  0  0  0  0  0  0  0
   22.2085    4.0138   -1.3630 N   0  0  0  0  0  0  0  0  0  0  0  0
   21.8192    4.6574   -0.7279 H   0  0  0  0  0  0  0  0  0  0  0  0
   22.4807    3.1198   -1.0533 H   0  0  0  0  0  0  0  0  0  0  0  0
   23.6706    9.6079   -6.1370 O   0  0  0  0  0  0  0  0  0  0  0  0
   24.5477    8.5776   -6.6015 C   0  0  0  0  0  0  0  0  0  0  0  0
   24.1838   10.2783   -5.6594 H   0  0  0  0  0  0  0  0  0  0  0  0
 20 21  1  0  0  0
 21  1  1  0  0  0
  1  2  1  0  0  0
  1  6  1  0  0  0
  2  3  1  0  0  0
  3 10  1  0  0  0
  3  4  1  0  0  0
 10 11  1  0  0  0
 10 15  1  0  0  0
 11 12  2  0  0  0
 12 13  1  0  0  0
 13 14  2  0  0  0
 13 17  1  0  0  0
 14 15  1  0  0  0
 15 16  2  0  0  0
  4  5  1  0  0  0
  4  6  1  0  0  0
  6  7  1  0  0  0
 20 22  1  0  0  0
 17 18  1  0  0  0
 17 19  1  0  0  0
  5  8  1  0  0  0
  7  9  1  0  0  0
M  END
> <minimizedAffinity>
-6.88318

$$$$
5CSO_CTN_A_804


 22 23  0  0  0  0  0  0  0  0999 V2000
   25.3898    8.6207   -8.7690 C   0  0  0  0  0  0  0  0  0  0  0  0
   24.6059    7.4245   -8.6763 O   0  0  0  0  0  0  0  0  0  0  0  0
   23.2116    7.7164   -8.8344 C   0  0  0  0  0  0  0  0  0  0  0  0
   23.0911    9.1997   -9.1470 C   0  0  0  0  0  0  0  0  0  0  0  0
   22.8606    9.3940  -10.5469 O   0  0  0  0  0  0  0  0  0  0  0  0
   24.4160    9.7880   -8.7008 C   0  0  0  0  0  0  0  0  0  0  0  0
   24.8348   10.8738   -9.5335 O   0  0  0  0  0  0  0  0  0  0  0  0
   23.5806    8.9860  -11.0528 H   0  0  0  0  0  0  0  0  0  0  0  0
   24.9154   10.5661  -10.4498 H   0  0  0  0  0  0  0  0  0  0  0  0
   22.4654    7.4130   -7.6048 N   0  0  0  0  0  0  0  0  0  0  0  0
   22.5562    8.2300   -6.5394 C   0  0  0  0  0  0  0  0  0  0  0  0
   21.8502    7.9472   -5.3775 C   0  0  0  0  0  0  0  0  0  0  0  0
   21.0436    6.8150   -5.3295 C   0  0  0  0  0  0  0  0  0  0  0  0
   20.9475    5.9979   -6.4007 N   0  0  0  0  0  0  0  0  0  0  0  0
   21.6322    6.2663   -7.5346 C   0  0  0  0  0  0  0  0  0  0  0  0
   21.5140    5.4885   -8.5043 O   0  0  0  0  0  0  0  0  0  0  0  0
   20.3509    6.5246   -4.2106 N   0  0  0  0  0  0  0  0  0  0  0  0
   20.4148    7.1145   -3.4250 H   0  0  0  0  0  0  0  0  0  0  0  0
   19.7808    5.7225   -4.1789 H   0  0  0  0  0  0  0  0  0  0  0  0
   25.8316    9.0190   -6.4231 O   0  0  0  0  0  0  0  0  0  0  0  0
   26.4465    8.6805   -7.6696 C   0  0  0  0  0  0  0  0  0  0  0  0
   26.5076    9.0555   -5.7285 H   0  0  0  0  0  0  0  0  0  0  0  0
 20 21  1  0  0  0
 21  1  1  0  0  0
  1  2  1  0  0  0
  1  6  1  0  0  0
  2  3  1  0  0  0
  3 10  1  0  0  0
  3  4  1  0  0  0
 10 11  1  0  0  0
 10 15  1  0  0  0
 11 12  2  0  0  0
 12 13  1  0  0  0
 13 14  2  0  0  0
 13 17  1  0  0  0
 14 15  1  0  0  0
 15 16  2  0  0  0
  4  5  1  0  0  0
  4  6  1  0  0  0
  6  7  1  0  0  0
 20 22  1  0  0  0
 17 18  1  0  0  0
 17 19  1  0  0  0
  5  8  1  0  0  0
  7  9  1  0  0  0
M  END
> <minimizedAffinity>
-6.62223

$$$$
5CSO_CTN_A_804


 22 23  0  0  0  0  0  0  0  0999 V2000
   23.5414    8.5493   -8.5127 C   0  0  0  0  0  0  0  0  0  0  0  0
   22.3030    8.0605   -7.9821 O   0  0  0  0  0  0  0  0  0  0  0  0
   22.0778    8.5720   -6.6623 C   0  0  0  0  0  0  0  0  0  0  0  0
   23.2090    9.5396   -6.3514 C   0  0  0  0  0  0  0  0  0  0  0  0
   22.7592   10.8913   -6.4978 O   0  0  0  0  0  0  0  0  0  0  0  0
   24.2921    9.1879   -7.3533 C   0  0  0  0  0  0  0  0  0  0  0  0
   25.0346   10.3364   -7.7742 O   0  0  0  0  0  0  0  0  0  0  0  0
   22.4211   11.0238   -7.3972 H   0  0  0  0  0  0  0  0  0  0  0  0
   24.4313   10.9837   -8.1715 H   0  0  0  0  0  0  0  0  0  0  0  0
   22.0736    7.4884   -5.6691 N   0  0  0  0  0  0  0  0  0  0  0  0
   22.5168    7.7149   -4.4189 C   0  0  0  0  0  0  0  0  0  0  0  0
   22.5113    6.6937   -3.4778 C   0  0  0  0  0  0  0  0  0  0  0  0
   22.0369    5.4372   -3.8394 C   0  0  0  0  0  0  0  0  0  0  0  0
   21.5864    5.2109   -5.0925 N   0  0  0  0  0  0  0  0  0  0  0  0
   21.5893    6.1998   -6.0139 C   0  0  0  0  0  0  0  0  0  0  0  0
   21.1612    5.9516   -7.1604 O   0  0  0  0  0  0  0  0  0  0  0  0
   22.0237    4.4341   -2.9396 N   0  0  0  0  0  0  0  0  0  0  0  0
   22.3501    4.5898   -2.0240 H   0  0  0  0  0  0  0  0  0  0  0  0
   21.6877    3.5455   -3.1980 H   0  0  0  0  0  0  0  0  0  0  0  0
   25.5586    7.2133   -8.4600 O   0  0  0  0  0  0  0  0  0  0  0  0
   24.3411    7.4330   -9.1784 C   0  0  0  0  0  0  0  0  0  0  0  0
   26.0625    6.5031   -8.8874 H   0  0  0  0  0  0  0  0  0  0  0  0
 20 21  1  0  0  0
 21  1  1  0  0  0
  1  2  1  0  0  0
  1  6  1  0  0  0
  2  3  1  0  0  0
  3 10  1  0  0  0
  3  4  1  0  0  0
 10 11  1  0  0  0
 10 15  1  0  0  0
 11 12  2  0  0  0
 12 13  1  0  0  0
 13 14  2  0  0  0
 13 17  1  0  0  0
 14 15  1  0  0  0
 15 16  2  0  0  0
  4  5  1  0  0  0
  4  6  1  0  0  0
  6  7  1  0  0  0
 20 22  1  0  0  0
 17 18  1  0  0  0
 17 19  1  0  0  0
  5  8  1  0  0  0
  7  9  1  0  0  0
M  END
> <minimizedAffinity>
-6.50610

$$$$
5CSO_CTN_A_804


 22 23  0  0  0  0  0  0  0  0999 V2000
   23.8754    8.5803   -6.1196 C   0  0  0  0  0  0  0  0  0  0  0  0
   24.5296    7.6121   -6.9495 O   0  0  0  0  0  0  0  0  0  0  0  0
   24.8119    8.1591   -8.2438 C   0  0  0  0  0  0  0  0  0  0  0  0
   24.3943    9.6211   -8.2195 C   0  0  0  0  0  0  0  0  0  0  0  0
   25.5442   10.4626   -8.0762 O   0  0  0  0  0  0  0  0  0  0  0  0
   23.4595    9.7266   -7.0298 C   0  0  0  0  0  0  0  0  0  0  0  0
   23.5650   10.9909   -6.3680 O   0  0  0  0  0  0  0  0  0  0  0  0
   26.0231   10.2209   -7.2681 H   0  0  0  0  0  0  0  0  0  0  0  0
   24.4779   11.1237   -6.0683 H   0  0  0  0  0  0  0  0  0  0  0  0
   24.0608    7.4528   -9.2914 N   0  0  0  0  0  0  0  0  0  0  0  0
   22.9098    6.8236   -8.9910 C   0  0  0  0  0  0  0  0  0  0  0  0
   22.1967    6.1578   -9.9793 C   0  0  0  0  0  0  0  0  0  0  0  0
   22.6813    6.1542  -11.2832 C   0  0  0  0  0  0  0  0  0  0  0  0
   23.8334    6.7906  -11.5863 N   0  0  0  0  0  0  0  0  0  0  0  0
   24.5332    7.4401  -10.6296 C   0  0  0  0  0  0  0  0  0  0  0  0
   25.5917    8.0194  -10.9507 O   0  0  0  0  0  0  0  0  0  0  0  0
   22.0028    5.5136  -12.2555 N   0  0  0  0  0  0  0  0  0  0  0  0
   21.1621    5.0471  -12.0438 H   0  0  0  0  0  0  0  0  0  0  0  0
   22.3479    5.5122  -13.1776 H   0  0  0  0  0  0  0  0  0  0  0  0
   21.7776    8.9978   -4.9876 O   0  0  0  0  0  0  0  0  0  0  0  0
   22.6908    7.9680   -5.3776 C   0  0  0  0  0  0  0  0  0  0  0  0
   21.0271    8.6031   -4.5167 H   0  0  0  0  0  0  0  0  0  0  0  0
 20 21  1  0  0  0
 21  1  1  0  0  0
  1  2  1  0  0  0
  1  6  1  0  0  0
  2  3  1  0  0  0
  3 10  1  0  0  0
  3  4  1  0  0  0
 10 11  1  0  0  0
 10 15  1  0  0  0
 11 12  2  0  0  0
 12 13  1  0  0  0
 13 14  2  0  0  0
 13 17  1  0  0  0
 14 15  1  0  0  0
 15 16  2  0  0  0
  4  5  1  0  0  0
  4  6  1  0  0  0
  6  7  1  0  0  0
 20 22  1  0  0  0
 17 18  1  0  0  0
 17 19  1  0  0  0
  5  8  1  0  0  0
  7  9  1  0  0  0
M  END
> <minimizedAffinity>
-6.47525

$$$$
