6HH3_A1R_A_403


 44 47  0  0  0  0  0  0  0  0999 V2000
   -6.9895   -3.8647   -7.4047 C   0  0  0  0  0  0  0  0  0  0  0  0
   -7.7015   -5.3371   -4.2124 C   0  0  0  0  0  0  0  0  0  0  0  0
   -7.1979   -6.5847   -4.9113 C   0  0  0  0  0  0  0  0  0  0  0  0
   -5.9086   -6.8570   -4.3542 O   0  0  0  0  0  0  0  0  0  0  0  0
   -7.1380   -6.1443   -6.3645 C   0  0  0  0  0  0  0  0  0  0  0  0
   -6.2586   -6.9365   -7.1780 O   0  0  0  0  0  0  0  0  0  0  0  0
   -7.3281   -4.2416   -5.0191 O   0  0  0  0  0  0  0  0  0  0  0  0
   -6.6827   -4.7267   -6.1962 C   0  0  0  0  0  0  0  0  0  0  0  0
   -5.3498   -6.0678   -4.4312 H   0  0  0  0  0  0  0  0  0  0  0  0
   -5.3657   -6.9203   -6.7994 H   0  0  0  0  0  0  0  0  0  0  0  0
  -11.5821   -7.6393   -1.7011 N   0  0  0  0  0  0  0  0  0  0  0  0
  -10.2627   -7.8716   -1.6773 C   0  0  0  0  0  0  0  0  0  0  0  0
   -9.3885   -7.1729   -2.4188 N   0  0  0  0  0  0  0  0  0  0  0  0
   -9.7897   -6.1731   -3.2304 C   0  0  0  0  0  0  0  0  0  0  0  0
  -11.2034   -5.8503   -3.3050 C   0  0  0  0  0  0  0  0  0  0  0  0
  -12.1106   -6.6675   -2.4818 C   0  0  0  0  0  0  0  0  0  0  0  0
  -13.4333   -6.4439   -2.4967 N   0  0  0  0  0  0  0  0  0  0  0  0
  -11.3164   -4.8257   -4.1507 N   0  0  0  0  0  0  0  0  0  0  0  0
  -10.0616   -4.5399   -4.6067 C   0  0  0  0  0  0  0  0  0  0  0  0
   -9.1655   -5.3511   -4.0421 N   0  0  0  0  0  0  0  0  0  0  0  0
  -14.0320   -6.9953   -1.9430 H   0  0  0  0  0  0  0  0  0  0  0  0
  -13.8052   -5.7283   -3.0614 H   0  0  0  0  0  0  0  0  0  0  0  0
   -7.9787   -4.4595   -8.2039 O   0  0  0  0  0  0  0  0  0  0  0  0
   -9.3569   -3.7274   -8.5027 P   0  0  0  0  0  0  0  0  0  0  0  0
   -9.8230   -3.0085   -7.2752 O   0  0  0  0  0  0  0  0  0  0  0  0
  -10.2307   -4.6320   -9.3454 O   0  0  0  0  0  0  0  0  0  0  0  0
   -9.7123   -4.9840  -10.0859 H   0  0  0  0  0  0  0  0  0  0  0  0
   -8.9032   -2.7562   -9.7185 O   0  0  0  0  0  0  0  0  0  0  0  0
   -8.9707   -1.1789   -9.8731 P   0  0  0  0  0  0  0  0  0  0  0  0
   -9.8207   -0.5047   -8.8298 O   0  0  0  0  0  0  0  0  0  0  0  0
   -9.0435   -0.7297  -11.3278 O   0  0  0  0  0  0  0  0  0  0  0  0
  -10.7579   -0.6257   -9.0488 H   0  0  0  0  0  0  0  0  0  0  0  0
   -7.5351   -0.8692   -9.3406 O   0  0  0  0  0  0  0  0  0  0  0  0
   -6.6334   -0.3166  -10.2465 C   0  0  0  0  0  0  0  0  0  0  0  0
   -4.5020   -0.0956   -9.1093 N   0  0  0  0  0  0  0  0  0  0  0  0
   -3.4306    0.6267   -9.7716 C   0  0  0  0  0  0  0  0  0  0  0  0
   -3.5462    2.6874  -11.0033 O   0  0  0  0  0  0  0  0  0  0  0  0
   -4.2484    1.5205  -10.6649 C   0  0  0  0  0  0  0  0  0  0  0  0
   -5.4373    2.6970   -8.7409 O   0  0  0  0  0  0  0  0  0  0  0  0
   -5.5403    1.8151   -9.8894 C   0  0  0  0  0  0  0  0  0  0  0  0
   -5.8192    0.4974   -9.2839 C   0  0  0  0  0  0  0  0  0  0  0  0
   -4.5265   -1.0444   -9.4828 H   0  0  0  0  0  0  0  0  0  0  0  0
   -2.7411    2.4507  -11.4899 H   0  0  0  0  0  0  0  0  0  0  0  0
   -5.2523    3.6002   -9.0424 H   0  0  0  0  0  0  0  0  0  0  0  0
 11 12  2  0  0  0
 11 16  1  0  0  0
 12 13  1  0  0  0
 13 14  2  0  0  0
 14 15  1  0  0  0
 14 20  1  0  0  0
 15 16  2  0  0  0
 15 18  1  0  0  0
 16 17  1  0  0  0
 18 19  2  0  0  0
 19 20  1  0  0  0
 20  2  1  0  0  0
  2  7  1  0  0  0
  2  3  1  0  0  0
  3  4  1  0  0  0
  3  5  1  0  0  0
  5  8  1  0  0  0
  5  6  1  0  0  0
  7  8  1  0  0  0
  8  1  1  0  0  0
  1 23  1  0  0  0
 23 24  1  0  0  0
 24 28  1  0  0  0
 24 25  2  0  0  0
 24 26  1  0  0  0
 28 29  1  0  0  0
 29 31  2  0  0  0
 29 30  1  0  0  0
 29 33  1  0  0  0
 33 34  1  0  0  0
 34 41  1  0  0  0
 35 41  1  0  0  0
 35 36  1  0  0  0
 36 38  1  0  0  0
 37 38  1  0  0  0
 38 40  1  0  0  0
 39 40  1  0  0  0
 40 41  1  0  0  0
 17 21  1  0  0  0
 17 22  1  0  0  0
  4  9  1  0  0  0
  6 10  1  0  0  0
 26 27  1  0  0  0
 30 32  1  0  0  0
 35 42  1  0  0  0
 37 43  1  0  0  0
 39 44  1  0  0  0
M  END
> <minimizedAffinity>
-10.72876

$$$$
6HH3_A1R_A_403


 44 47  0  0  0  0  0  0  0  0999 V2000
   -8.5986   -3.1218   -6.6772 C   0  0  0  0  0  0  0  0  0  0  0  0
   -7.4368   -4.6694   -3.6571 C   0  0  0  0  0  0  0  0  0  0  0  0
   -8.9221   -4.7124   -3.3569 C   0  0  0  0  0  0  0  0  0  0  0  0
   -9.3133   -6.0821   -3.4907 O   0  0  0  0  0  0  0  0  0  0  0  0
   -9.5013   -3.8190   -4.4411 C   0  0  0  0  0  0  0  0  0  0  0  0
  -10.8941   -4.0500   -4.7047 O   0  0  0  0  0  0  0  0  0  0  0  0
   -7.3090   -4.3773   -5.0314 O   0  0  0  0  0  0  0  0  0  0  0  0
   -8.6076   -4.1773   -5.5892 C   0  0  0  0  0  0  0  0  0  0  0  0
   -9.0426   -6.4120   -4.3618 H   0  0  0  0  0  0  0  0  0  0  0  0
  -11.0274   -4.9795   -4.9479 H   0  0  0  0  0  0  0  0  0  0  0  0
   -2.7878   -3.0203   -2.1297 N   0  0  0  0  0  0  0  0  0  0  0  0
   -3.1419   -4.0763   -2.8745 C   0  0  0  0  0  0  0  0  0  0  0  0
   -4.4205   -4.3646   -3.1647 N   0  0  0  0  0  0  0  0  0  0  0  0
   -5.4362   -3.5903   -2.7312 C   0  0  0  0  0  0  0  0  0  0  0  0
   -5.1360   -2.4192   -1.9269 C   0  0  0  0  0  0  0  0  0  0  0  0
   -3.7156   -2.1711   -1.6283 C   0  0  0  0  0  0  0  0  0  0  0  0
   -3.3487   -1.1168   -0.8843 N   0  0  0  0  0  0  0  0  0  0  0  0
   -6.3027   -1.8327   -1.6572 N   0  0  0  0  0  0  0  0  0  0  0  0
   -7.2794   -2.5993   -2.2250 C   0  0  0  0  0  0  0  0  0  0  0  0
   -6.7416   -3.6392   -2.8646 N   0  0  0  0  0  0  0  0  0  0  0  0
   -2.3966   -0.9589   -0.6898 H   0  0  0  0  0  0  0  0  0  0  0  0
   -4.0316   -0.5009   -0.5328 H   0  0  0  0  0  0  0  0  0  0  0  0
   -9.7514   -3.2155   -7.4730 O   0  0  0  0  0  0  0  0  0  0  0  0
   -9.7271   -3.9344   -8.8897 P   0  0  0  0  0  0  0  0  0  0  0  0
  -11.1286   -4.1747   -9.3579 O   0  0  0  0  0  0  0  0  0  0  0  0
   -8.6327   -4.9803   -8.9005 O   0  0  0  0  0  0  0  0  0  0  0  0
   -7.8136   -4.5949   -8.5521 H   0  0  0  0  0  0  0  0  0  0  0  0
   -8.9105   -2.8315   -9.7523 O   0  0  0  0  0  0  0  0  0  0  0  0
   -9.0685   -1.2559   -9.8458 P   0  0  0  0  0  0  0  0  0  0  0  0
   -9.8169   -0.6533   -8.6872 O   0  0  0  0  0  0  0  0  0  0  0  0
   -9.3364   -0.7715  -11.2659 O   0  0  0  0  0  0  0  0  0  0  0  0
  -10.7671   -0.8146   -8.7971 H   0  0  0  0  0  0  0  0  0  0  0  0
   -7.5950   -0.8900   -9.4778 O   0  0  0  0  0  0  0  0  0  0  0  0
   -6.9166   -0.0504  -10.3574 C   0  0  0  0  0  0  0  0  0  0  0  0
   -4.7324   -0.1181   -9.3040 N   0  0  0  0  0  0  0  0  0  0  0  0
   -3.6228    0.5533   -9.9570 C   0  0  0  0  0  0  0  0  0  0  0  0
   -3.5881    2.7078  -11.0218 O   0  0  0  0  0  0  0  0  0  0  0  0
   -4.3849    1.5871  -10.7419 C   0  0  0  0  0  0  0  0  0  0  0  0
   -5.3830    2.7102   -8.6823 O   0  0  0  0  0  0  0  0  0  0  0  0
   -5.6127    1.9363   -9.8887 C   0  0  0  0  0  0  0  0  0  0  0  0
   -5.9928    0.6056   -9.3733 C   0  0  0  0  0  0  0  0  0  0  0  0
   -4.8612   -1.0277   -9.7471 H   0  0  0  0  0  0  0  0  0  0  0  0
   -2.8282    2.4377  -11.5608 H   0  0  0  0  0  0  0  0  0  0  0  0
   -5.1243    3.6138   -8.9221 H   0  0  0  0  0  0  0  0  0  0  0  0
 11 12  2  0  0  0
 11 16  1  0  0  0
 12 13  1  0  0  0
 13 14  2  0  0  0
 14 15  1  0  0  0
 14 20  1  0  0  0
 15 16  2  0  0  0
 15 18  1  0  0  0
 16 17  1  0  0  0
 18 19  2  0  0  0
 19 20  1  0  0  0
 20  2  1  0  0  0
  2  7  1  0  0  0
  2  3  1  0  0  0
  3  4  1  0  0  0
  3  5  1  0  0  0
  5  8  1  0  0  0
  5  6  1  0  0  0
  7  8  1  0  0  0
  8  1  1  0  0  0
  1 23  1  0  0  0
 23 24  1  0  0  0
 24 28  1  0  0  0
 24 25  2  0  0  0
 24 26  1  0  0  0
 28 29  1  0  0  0
 29 31  2  0  0  0
 29 30  1  0  0  0
 29 33  1  0  0  0
 33 34  1  0  0  0
 34 41  1  0  0  0
 35 41  1  0  0  0
 35 36  1  0  0  0
 36 38  1  0  0  0
 37 38  1  0  0  0
 38 40  1  0  0  0
 39 40  1  0  0  0
 40 41  1  0  0  0
 17 21  1  0  0  0
 17 22  1  0  0  0
  4  9  1  0  0  0
  6 10  1  0  0  0
 26 27  1  0  0  0
 30 32  1  0  0  0
 35 42  1  0  0  0
 37 43  1  0  0  0
 39 44  1  0  0  0
M  END
> <minimizedAffinity>
-10.39777

$$$$
6HH3_A1R_A_403


 44 47  0  0  0  0  0  0  0  0999 V2000
   -8.4064   -3.5371   -6.7305 C   0  0  0  0  0  0  0  0  0  0  0  0
   -7.6109   -5.2635   -3.6888 C   0  0  0  0  0  0  0  0  0  0  0  0
   -9.0423   -4.8945   -3.3523 C   0  0  0  0  0  0  0  0  0  0  0  0
   -9.7931   -6.1098   -3.4311 O   0  0  0  0  0  0  0  0  0  0  0  0
   -9.3925   -3.9057   -4.4518 C   0  0  0  0  0  0  0  0  0  0  0  0
  -10.8036   -3.7571   -4.6746 O   0  0  0  0  0  0  0  0  0  0  0  0
   -7.4526   -5.0524   -5.0746 O   0  0  0  0  0  0  0  0  0  0  0  0
   -8.6658   -4.5223   -5.6080 C   0  0  0  0  0  0  0  0  0  0  0  0
   -9.6495   -6.5230   -4.2969 H   0  0  0  0  0  0  0  0  0  0  0  0
  -11.1907   -4.6216   -4.8835 H   0  0  0  0  0  0  0  0  0  0  0  0
   -5.6578   -4.3317    0.9998 N   0  0  0  0  0  0  0  0  0  0  0  0
   -6.6208   -5.1746    0.6034 C   0  0  0  0  0  0  0  0  0  0  0  0
   -7.0163   -5.2761   -0.6756 N   0  0  0  0  0  0  0  0  0  0  0  0
   -6.4501   -4.5375   -1.6518 C   0  0  0  0  0  0  0  0  0  0  0  0
   -5.3901   -3.6070   -1.3066 C   0  0  0  0  0  0  0  0  0  0  0  0
   -5.0179   -3.5300    0.1160 C   0  0  0  0  0  0  0  0  0  0  0  0
   -4.0548   -2.6904    0.5249 N   0  0  0  0  0  0  0  0  0  0  0  0
   -5.0011   -3.0328   -2.4455 N   0  0  0  0  0  0  0  0  0  0  0  0
   -5.7849   -3.5415   -3.4409 C   0  0  0  0  0  0  0  0  0  0  0  0
   -6.6384   -4.4403   -2.9477 N   0  0  0  0  0  0  0  0  0  0  0  0
   -3.8127   -2.6458    1.4781 H   0  0  0  0  0  0  0  0  0  0  0  0
   -3.5900   -2.1189   -0.1283 H   0  0  0  0  0  0  0  0  0  0  0  0
   -9.5764   -3.3045   -7.4708 O   0  0  0  0  0  0  0  0  0  0  0  0
   -9.7466   -3.8559   -8.9512 P   0  0  0  0  0  0  0  0  0  0  0  0
  -11.2010   -3.9303   -9.2979 O   0  0  0  0  0  0  0  0  0  0  0  0
   -8.7554   -4.9763   -9.1840 O   0  0  0  0  0  0  0  0  0  0  0  0
   -7.8767   -4.6987   -8.8813 H   0  0  0  0  0  0  0  0  0  0  0  0
   -8.9177   -2.7289   -9.7696 O   0  0  0  0  0  0  0  0  0  0  0  0
   -9.0183   -1.1459   -9.7557 P   0  0  0  0  0  0  0  0  0  0  0  0
   -9.7533   -0.5970   -8.5622 O   0  0  0  0  0  0  0  0  0  0  0  0
   -9.2580   -0.5561  -11.1405 O   0  0  0  0  0  0  0  0  0  0  0  0
  -10.7078   -0.7158   -8.6876 H   0  0  0  0  0  0  0  0  0  0  0  0
   -7.5354   -0.8597   -9.3560 O   0  0  0  0  0  0  0  0  0  0  0  0
   -6.7601   -0.1581  -10.2754 C   0  0  0  0  0  0  0  0  0  0  0  0
   -4.5641   -0.1128   -9.2455 N   0  0  0  0  0  0  0  0  0  0  0  0
   -3.4929    0.5988   -9.9197 C   0  0  0  0  0  0  0  0  0  0  0  0
   -3.5667    2.7377  -11.0134 O   0  0  0  0  0  0  0  0  0  0  0  0
   -4.3091    1.5863  -10.7098 C   0  0  0  0  0  0  0  0  0  0  0  0
   -5.3352    2.6917   -8.6544 O   0  0  0  0  0  0  0  0  0  0  0  0
   -5.5424    1.8916   -9.8478 C   0  0  0  0  0  0  0  0  0  0  0  0
   -5.8566    0.5524   -9.3105 C   0  0  0  0  0  0  0  0  0  0  0  0
   -4.6564   -1.0333   -9.6750 H   0  0  0  0  0  0  0  0  0  0  0  0
   -2.8010    2.4947  -11.5572 H   0  0  0  0  0  0  0  0  0  0  0  0
   -5.1201    3.6026   -8.9091 H   0  0  0  0  0  0  0  0  0  0  0  0
 11 12  2  0  0  0
 11 16  1  0  0  0
 12 13  1  0  0  0
 13 14  2  0  0  0
 14 15  1  0  0  0
 14 20  1  0  0  0
 15 16  2  0  0  0
 15 18  1  0  0  0
 16 17  1  0  0  0
 18 19  2  0  0  0
 19 20  1  0  0  0
 20  2  1  0  0  0
  2  7  1  0  0  0
  2  3  1  0  0  0
  3  4  1  0  0  0
  3  5  1  0  0  0
  5  8  1  0  0  0
  5  6  1  0  0  0
  7  8  1  0  0  0
  8  1  1  0  0  0
  1 23  1  0  0  0
 23 24  1  0  0  0
 24 28  1  0  0  0
 24 25  2  0  0  0
 24 26  1  0  0  0
 28 29  1  0  0  0
 29 31  2  0  0  0
 29 30  1  0  0  0
 29 33  1  0  0  0
 33 34  1  0  0  0
 34 41  1  0  0  0
 35 41  1  0  0  0
 35 36  1  0  0  0
 36 38  1  0  0  0
 37 38  1  0  0  0
 38 40  1  0  0  0
 39 40  1  0  0  0
 40 41  1  0  0  0
 17 21  1  0  0  0
 17 22  1  0  0  0
  4  9  1  0  0  0
  6 10  1  0  0  0
 26 27  1  0  0  0
 30 32  1  0  0  0
 35 42  1  0  0  0
 37 43  1  0  0  0
 39 44  1  0  0  0
M  END
> <minimizedAffinity>
-10.03565

$$$$
6HH3_A1R_A_403


 44 47  0  0  0  0  0  0  0  0999 V2000
   -7.0207   -0.0053  -10.8608 C   0  0  0  0  0  0  0  0  0  0  0  0
   -4.2023   -0.4701   -8.6914 C   0  0  0  0  0  0  0  0  0  0  0  0
   -3.7375    0.8039   -9.3692 C   0  0  0  0  0  0  0  0  0  0  0  0
   -3.8697    1.8419   -8.3936 O   0  0  0  0  0  0  0  0  0  0  0  0
   -4.7202    0.9396  -10.5203 C   0  0  0  0  0  0  0  0  0  0  0  0
   -4.8318    2.2748  -11.0374 O   0  0  0  0  0  0  0  0  0  0  0  0
   -5.5721   -0.6150   -8.9958 O   0  0  0  0  0  0  0  0  0  0  0  0
   -5.9728    0.4460   -9.8627 C   0  0  0  0  0  0  0  0  0  0  0  0
   -4.7759    1.8469   -8.0476 H   0  0  0  0  0  0  0  0  0  0  0  0
   -5.0879    2.8781  -10.3223 H   0  0  0  0  0  0  0  0  0  0  0  0
   -3.7022   -5.5787   -8.1281 N   0  0  0  0  0  0  0  0  0  0  0  0
   -4.4922   -4.7005   -7.4957 C   0  0  0  0  0  0  0  0  0  0  0  0
   -4.4788   -3.3855   -7.7659 N   0  0  0  0  0  0  0  0  0  0  0  0
   -3.6703   -2.8660   -8.7122 C   0  0  0  0  0  0  0  0  0  0  0  0
   -2.7903   -3.7532   -9.4518 C   0  0  0  0  0  0  0  0  0  0  0  0
   -2.8398   -5.1804   -9.0929 C   0  0  0  0  0  0  0  0  0  0  0  0
   -2.0541   -6.0692   -9.7194 N   0  0  0  0  0  0  0  0  0  0  0  0
   -2.1289   -2.9930  -10.3251 N   0  0  0  0  0  0  0  0  0  0  0  0
   -2.5385   -1.7054  -10.1291 C   0  0  0  0  0  0  0  0  0  0  0  0
   -3.4611   -1.6521   -9.1670 N   0  0  0  0  0  0  0  0  0  0  0  0
   -2.0941   -7.0215   -9.4727 H   0  0  0  0  0  0  0  0  0  0  0  0
   -1.4376   -5.7692  -10.4259 H   0  0  0  0  0  0  0  0  0  0  0  0
   -7.7102   -1.1321  -10.3855 O   0  0  0  0  0  0  0  0  0  0  0  0
   -9.2699   -1.0868  -10.0858 P   0  0  0  0  0  0  0  0  0  0  0  0
  -10.0162   -0.7646  -11.3429 O   0  0  0  0  0  0  0  0  0  0  0  0
   -9.5034   -0.4028   -8.7556 O   0  0  0  0  0  0  0  0  0  0  0  0
   -8.9051   -0.7770   -8.0902 H   0  0  0  0  0  0  0  0  0  0  0  0
   -9.4964   -2.5955   -9.5381 O   0  0  0  0  0  0  0  0  0  0  0  0
   -8.5933   -3.5153   -8.6137 P   0  0  0  0  0  0  0  0  0  0  0  0
   -7.4302   -2.7905   -7.9910 O   0  0  0  0  0  0  0  0  0  0  0  0
   -8.4081   -4.9195   -9.1767 O   0  0  0  0  0  0  0  0  0  0  0  0
   -6.7324   -2.6695   -8.6538 H   0  0  0  0  0  0  0  0  0  0  0  0
   -9.5781   -3.6029   -7.4042 O   0  0  0  0  0  0  0  0  0  0  0  0
   -9.4374   -4.6985   -6.5563 C   0  0  0  0  0  0  0  0  0  0  0  0
  -10.9207   -4.3875   -4.6620 N   0  0  0  0  0  0  0  0  0  0  0  0
  -10.8053   -5.2909   -3.5310 C   0  0  0  0  0  0  0  0  0  0  0  0
   -8.8152   -6.1170   -2.4662 O   0  0  0  0  0  0  0  0  0  0  0  0
   -9.3666   -5.7041   -3.6888 C   0  0  0  0  0  0  0  0  0  0  0  0
   -8.4451   -3.3446   -3.4001 O   0  0  0  0  0  0  0  0  0  0  0  0
   -8.6447   -4.4837   -4.2776 C   0  0  0  0  0  0  0  0  0  0  0  0
   -9.6470   -3.9964   -5.2465 C   0  0  0  0  0  0  0  0  0  0  0  0
  -11.4757   -4.8478   -5.3835 H   0  0  0  0  0  0  0  0  0  0  0  0
   -9.3028   -6.8875   -2.1354 H   0  0  0  0  0  0  0  0  0  0  0  0
   -7.7925   -3.5715   -2.7192 H   0  0  0  0  0  0  0  0  0  0  0  0
 11 12  2  0  0  0
 11 16  1  0  0  0
 12 13  1  0  0  0
 13 14  2  0  0  0
 14 15  1  0  0  0
 14 20  1  0  0  0
 15 16  2  0  0  0
 15 18  1  0  0  0
 16 17  1  0  0  0
 18 19  2  0  0  0
 19 20  1  0  0  0
 20  2  1  0  0  0
  2  7  1  0  0  0
  2  3  1  0  0  0
  3  4  1  0  0  0
  3  5  1  0  0  0
  5  8  1  0  0  0
  5  6  1  0  0  0
  7  8  1  0  0  0
  8  1  1  0  0  0
  1 23  1  0  0  0
 23 24  1  0  0  0
 24 28  1  0  0  0
 24 25  2  0  0  0
 24 26  1  0  0  0
 28 29  1  0  0  0
 29 31  2  0  0  0
 29 30  1  0  0  0
 29 33  1  0  0  0
 33 34  1  0  0  0
 34 41  1  0  0  0
 35 41  1  0  0  0
 35 36  1  0  0  0
 36 38  1  0  0  0
 37 38  1  0  0  0
 38 40  1  0  0  0
 39 40  1  0  0  0
 40 41  1  0  0  0
 17 21  1  0  0  0
 17 22  1  0  0  0
  4  9  1  0  0  0
  6 10  1  0  0  0
 26 27  1  0  0  0
 30 32  1  0  0  0
 35 42  1  0  0  0
 37 43  1  0  0  0
 39 44  1  0  0  0
M  END
> <minimizedAffinity>
-9.93077

$$$$
6HH3_A1R_A_403


 44 47  0  0  0  0  0  0  0  0999 V2000
   -9.8379   -4.0493   -6.2997 C   0  0  0  0  0  0  0  0  0  0  0  0
   -6.4478   -5.0453   -5.6821 C   0  0  0  0  0  0  0  0  0  0  0  0
   -6.6378   -4.1757   -4.4550 C   0  0  0  0  0  0  0  0  0  0  0  0
   -6.7317   -5.0733   -3.3448 O   0  0  0  0  0  0  0  0  0  0  0  0
   -7.9458   -3.4638   -4.7576 C   0  0  0  0  0  0  0  0  0  0  0  0
   -8.6144   -2.9529   -3.5936 O   0  0  0  0  0  0  0  0  0  0  0  0
   -7.7321   -5.2771   -6.2179 O   0  0  0  0  0  0  0  0  0  0  0  0
   -8.6966   -4.5635   -5.4446 C   0  0  0  0  0  0  0  0  0  0  0  0
   -7.4256   -5.7288   -3.5168 H   0  0  0  0  0  0  0  0  0  0  0  0
   -8.7789   -3.6781   -2.9709 H   0  0  0  0  0  0  0  0  0  0  0  0
   -2.2404   -5.6637   -8.6115 N   0  0  0  0  0  0  0  0  0  0  0  0
   -2.7969   -6.4684   -7.6961 C   0  0  0  0  0  0  0  0  0  0  0  0
   -3.9007   -6.1335   -7.0093 N   0  0  0  0  0  0  0  0  0  0  0  0
   -4.5315   -4.9589   -7.2133 C   0  0  0  0  0  0  0  0  0  0  0  0
   -3.9982   -4.0342   -8.1976 C   0  0  0  0  0  0  0  0  0  0  0  0
   -2.7746   -4.4538   -8.9013 C   0  0  0  0  0  0  0  0  0  0  0  0
   -2.2087   -3.6570   -9.8203 N   0  0  0  0  0  0  0  0  0  0  0  0
   -4.8145   -2.9800   -8.2119 N   0  0  0  0  0  0  0  0  0  0  0  0
   -5.7819   -3.2073   -7.2756 C   0  0  0  0  0  0  0  0  0  0  0  0
   -5.5980   -4.3944   -6.6955 N   0  0  0  0  0  0  0  0  0  0  0  0
   -1.3907   -3.9460  -10.2857 H   0  0  0  0  0  0  0  0  0  0  0  0
   -2.6114   -2.7833  -10.0293 H   0  0  0  0  0  0  0  0  0  0  0  0
   -9.3504   -3.3316   -7.4035 O   0  0  0  0  0  0  0  0  0  0  0  0
   -9.5650   -3.8477   -8.8908 P   0  0  0  0  0  0  0  0  0  0  0  0
  -11.0294   -3.9718   -9.1756 O   0  0  0  0  0  0  0  0  0  0  0  0
   -8.5416   -4.9194   -9.2003 O   0  0  0  0  0  0  0  0  0  0  0  0
   -7.6618   -4.6146   -8.9282 H   0  0  0  0  0  0  0  0  0  0  0  0
   -8.8192   -2.6649   -9.7107 O   0  0  0  0  0  0  0  0  0  0  0  0
   -9.0052   -1.0902   -9.6687 P   0  0  0  0  0  0  0  0  0  0  0  0
   -9.9000   -0.6163   -8.5550 O   0  0  0  0  0  0  0  0  0  0  0  0
   -9.1163   -0.4704  -11.0567 O   0  0  0  0  0  0  0  0  0  0  0  0
  -10.8262   -0.7789   -8.7929 H   0  0  0  0  0  0  0  0  0  0  0  0
   -7.5952   -0.7425   -9.0931 O   0  0  0  0  0  0  0  0  0  0  0  0
   -6.6084   -0.3953  -10.0122 C   0  0  0  0  0  0  0  0  0  0  0  0
   -4.4375   -0.1052   -8.9691 N   0  0  0  0  0  0  0  0  0  0  0  0
   -3.3988    0.5934   -9.7049 C   0  0  0  0  0  0  0  0  0  0  0  0
   -3.5803    2.5933  -11.0256 O   0  0  0  0  0  0  0  0  0  0  0  0
   -4.2582    1.4382  -10.6066 C   0  0  0  0  0  0  0  0  0  0  0  0
   -5.3842    2.6944   -8.6952 O   0  0  0  0  0  0  0  0  0  0  0  0
   -5.5224    1.7590   -9.7967 C   0  0  0  0  0  0  0  0  0  0  0  0
   -5.7658    0.4690   -9.1204 C   0  0  0  0  0  0  0  0  0  0  0  0
   -4.4673   -1.0707   -9.2969 H   0  0  0  0  0  0  0  0  0  0  0  0
   -2.7921    2.3401  -11.5311 H   0  0  0  0  0  0  0  0  0  0  0  0
   -5.2191    3.5839   -9.0451 H   0  0  0  0  0  0  0  0  0  0  0  0
 11 12  2  0  0  0
 11 16  1  0  0  0
 12 13  1  0  0  0
 13 14  2  0  0  0
 14 15  1  0  0  0
 14 20  1  0  0  0
 15 16  2  0  0  0
 15 18  1  0  0  0
 16 17  1  0  0  0
 18 19  2  0  0  0
 19 20  1  0  0  0
 20  2  1  0  0  0
  2  7  1  0  0  0
  2  3  1  0  0  0
  3  4  1  0  0  0
  3  5  1  0  0  0
  5  8  1  0  0  0
  5  6  1  0  0  0
  7  8  1  0  0  0
  8  1  1  0  0  0
  1 23  1  0  0  0
 23 24  1  0  0  0
 24 28  1  0  0  0
 24 25  2  0  0  0
 24 26  1  0  0  0
 28 29  1  0  0  0
 29 31  2  0  0  0
 29 30  1  0  0  0
 29 33  1  0  0  0
 33 34  1  0  0  0
 34 41  1  0  0  0
 35 41  1  0  0  0
 35 36  1  0  0  0
 36 38  1  0  0  0
 37 38  1  0  0  0
 38 40  1  0  0  0
 39 40  1  0  0  0
 40 41  1  0  0  0
 17 21  1  0  0  0
 17 22  1  0  0  0
  4  9  1  0  0  0
  6 10  1  0  0  0
 26 27  1  0  0  0
 30 32  1  0  0  0
 35 42  1  0  0  0
 37 43  1  0  0  0
 39 44  1  0  0  0
M  END
> <minimizedAffinity>
-9.52235

$$$$
6HH3_A1R_A_403


 44 47  0  0  0  0  0  0  0  0999 V2000
   -9.5885   -4.0437   -6.2800 C   0  0  0  0  0  0  0  0  0  0  0  0
   -7.6541   -4.5228   -3.2976 C   0  0  0  0  0  0  0  0  0  0  0  0
   -6.5726   -4.8588   -4.3053 C   0  0  0  0  0  0  0  0  0  0  0  0
   -5.6641   -3.7536   -4.2941 O   0  0  0  0  0  0  0  0  0  0  0  0
   -7.3569   -4.9720   -5.6019 C   0  0  0  0  0  0  0  0  0  0  0  0
   -6.5574   -4.8061   -6.7834 O   0  0  0  0  0  0  0  0  0  0  0  0
   -8.6969   -3.8992   -4.0144 O   0  0  0  0  0  0  0  0  0  0  0  0
   -8.3634   -3.8801   -5.4022 C   0  0  0  0  0  0  0  0  0  0  0  0
   -6.1539   -2.9309   -4.4498 H   0  0  0  0  0  0  0  0  0  0  0  0
   -6.1088   -3.9466   -6.7522 H   0  0  0  0  0  0  0  0  0  0  0  0
   -6.5566   -8.0762    0.2849 N   0  0  0  0  0  0  0  0  0  0  0  0
   -5.8351   -7.0464   -0.1778 C   0  0  0  0  0  0  0  0  0  0  0  0
   -6.2807   -6.2202   -1.1376 N   0  0  0  0  0  0  0  0  0  0  0  0
   -7.5023   -6.3704   -1.6891 C   0  0  0  0  0  0  0  0  0  0  0  0
   -8.3521   -7.4565   -1.2345 C   0  0  0  0  0  0  0  0  0  0  0  0
   -7.7956   -8.3377   -0.1942 C   0  0  0  0  0  0  0  0  0  0  0  0
   -8.5088   -9.3715    0.2774 N   0  0  0  0  0  0  0  0  0  0  0  0
   -9.4922   -7.3607   -1.9192 N   0  0  0  0  0  0  0  0  0  0  0  0
   -9.3608   -6.3044   -2.7741 C   0  0  0  0  0  0  0  0  0  0  0  0
   -8.1696   -5.7246   -2.6175 N   0  0  0  0  0  0  0  0  0  0  0  0
   -8.1285   -9.9553    0.9730 H   0  0  0  0  0  0  0  0  0  0  0  0
   -9.4124   -9.5464   -0.0720 H   0  0  0  0  0  0  0  0  0  0  0  0
   -9.4494   -3.3151   -7.4719 O   0  0  0  0  0  0  0  0  0  0  0  0
   -9.6164   -4.0064   -8.8928 P   0  0  0  0  0  0  0  0  0  0  0  0
  -11.0668   -4.2606   -9.1629 O   0  0  0  0  0  0  0  0  0  0  0  0
   -8.5206   -5.0339   -9.0804 O   0  0  0  0  0  0  0  0  0  0  0  0
   -7.6657   -4.6418   -8.8433 H   0  0  0  0  0  0  0  0  0  0  0  0
   -8.9453   -2.8740   -9.8387 O   0  0  0  0  0  0  0  0  0  0  0  0
   -9.1214   -1.2978   -9.8626 P   0  0  0  0  0  0  0  0  0  0  0  0
   -9.6324   -0.7266   -8.5671 O   0  0  0  0  0  0  0  0  0  0  0  0
   -9.6601   -0.7828  -11.1921 O   0  0  0  0  0  0  0  0  0  0  0  0
  -10.5856   -0.8914   -8.4947 H   0  0  0  0  0  0  0  0  0  0  0  0
   -7.6052   -0.9309   -9.7781 O   0  0  0  0  0  0  0  0  0  0  0  0
   -7.2009    0.2290  -10.4339 C   0  0  0  0  0  0  0  0  0  0  0  0
   -5.0333   -0.1386   -9.4085 N   0  0  0  0  0  0  0  0  0  0  0  0
   -3.8590    0.4427  -10.0342 C   0  0  0  0  0  0  0  0  0  0  0  0
   -3.5908    2.6374  -10.9765 O   0  0  0  0  0  0  0  0  0  0  0  0
   -4.5054    1.5971  -10.7518 C   0  0  0  0  0  0  0  0  0  0  0  0
   -5.3649    2.7040   -8.6221 O   0  0  0  0  0  0  0  0  0  0  0  0
   -5.6837    2.0302   -9.8677 C   0  0  0  0  0  0  0  0  0  0  0  0
   -6.2063    0.7222   -9.4241 C   0  0  0  0  0  0  0  0  0  0  0  0
   -5.2636   -1.0018   -9.9008 H   0  0  0  0  0  0  0  0  0  0  0  0
   -2.8676    2.3166  -11.5376 H   0  0  0  0  0  0  0  0  0  0  0  0
   -5.0090    3.5858   -8.8134 H   0  0  0  0  0  0  0  0  0  0  0  0
 11 12  2  0  0  0
 11 16  1  0  0  0
 12 13  1  0  0  0
 13 14  2  0  0  0
 14 15  1  0  0  0
 14 20  1  0  0  0
 15 16  2  0  0  0
 15 18  1  0  0  0
 16 17  1  0  0  0
 18 19  2  0  0  0
 19 20  1  0  0  0
 20  2  1  0  0  0
  2  7  1  0  0  0
  2  3  1  0  0  0
  3  4  1  0  0  0
  3  5  1  0  0  0
  5  8  1  0  0  0
  5  6  1  0  0  0
  7  8  1  0  0  0
  8  1  1  0  0  0
  1 23  1  0  0  0
 23 24  1  0  0  0
 24 28  1  0  0  0
 24 25  2  0  0  0
 24 26  1  0  0  0
 28 29  1  0  0  0
 29 31  2  0  0  0
 29 30  1  0  0  0
 29 33  1  0  0  0
 33 34  1  0  0  0
 34 41  1  0  0  0
 35 41  1  0  0  0
 35 36  1  0  0  0
 36 38  1  0  0  0
 37 38  1  0  0  0
 38 40  1  0  0  0
 39 40  1  0  0  0
 40 41  1  0  0  0
 17 21  1  0  0  0
 17 22  1  0  0  0
  4  9  1  0  0  0
  6 10  1  0  0  0
 26 27  1  0  0  0
 30 32  1  0  0  0
 35 42  1  0  0  0
 37 43  1  0  0  0
 39 44  1  0  0  0
M  END
> <minimizedAffinity>
-9.22987

$$$$
6HH3_A1R_A_403


 44 47  0  0  0  0  0  0  0  0999 V2000
   -6.4232   -3.8536   -7.3311 C   0  0  0  0  0  0  0  0  0  0  0  0
   -5.0101   -4.5291   -4.1042 C   0  0  0  0  0  0  0  0  0  0  0  0
   -5.8402   -5.7906   -4.2380 C   0  0  0  0  0  0  0  0  0  0  0  0
   -4.9111   -6.8521   -4.4762 O   0  0  0  0  0  0  0  0  0  0  0  0
   -6.7134   -5.4817   -5.4427 C   0  0  0  0  0  0  0  0  0  0  0  0
   -7.2466   -6.6474   -6.0906 O   0  0  0  0  0  0  0  0  0  0  0  0
   -4.9547   -3.9422   -5.3859 O   0  0  0  0  0  0  0  0  0  0  0  0
   -5.7412   -4.7184   -6.2895 C   0  0  0  0  0  0  0  0  0  0  0  0
   -4.3498   -6.6264   -5.2344 H   0  0  0  0  0  0  0  0  0  0  0  0
   -6.5185   -7.2285   -6.3609 H   0  0  0  0  0  0  0  0  0  0  0  0
   -3.9433   -1.4175   -0.1236 N   0  0  0  0  0  0  0  0  0  0  0  0
   -3.1565   -2.2455   -0.8240 C   0  0  0  0  0  0  0  0  0  0  0  0
   -3.6145   -3.0017   -1.8343 N   0  0  0  0  0  0  0  0  0  0  0  0
   -4.9066   -2.9610   -2.2189 C   0  0  0  0  0  0  0  0  0  0  0  0
   -5.8233   -2.0799   -1.5176 C   0  0  0  0  0  0  0  0  0  0  0  0
   -5.2614   -1.2930   -0.4070 C   0  0  0  0  0  0  0  0  0  0  0  0
   -6.0390   -0.4601    0.3010 N   0  0  0  0  0  0  0  0  0  0  0  0
   -7.0113   -2.2186   -2.1069 N   0  0  0  0  0  0  0  0  0  0  0  0
   -6.8646   -3.1500   -3.0943 C   0  0  0  0  0  0  0  0  0  0  0  0
   -5.6016   -3.5762   -3.1478 N   0  0  0  0  0  0  0  0  0  0  0  0
   -5.6545    0.0620    1.0419 H   0  0  0  0  0  0  0  0  0  0  0  0
   -6.9942   -0.3710    0.0798 H   0  0  0  0  0  0  0  0  0  0  0  0
   -7.4883   -4.5430   -7.9323 O   0  0  0  0  0  0  0  0  0  0  0  0
   -8.8351   -3.8027   -8.3357 P   0  0  0  0  0  0  0  0  0  0  0  0
   -9.7934   -3.8366   -7.1861 O   0  0  0  0  0  0  0  0  0  0  0  0
   -9.1977   -4.1661   -9.7599 O   0  0  0  0  0  0  0  0  0  0  0  0
   -8.4169   -4.0689  -10.3271 H   0  0  0  0  0  0  0  0  0  0  0  0
   -8.2549   -2.3297   -8.6833 O   0  0  0  0  0  0  0  0  0  0  0  0
   -8.9508   -1.0629   -9.3368 P   0  0  0  0  0  0  0  0  0  0  0  0
   -9.9623   -0.3993   -8.4412 O   0  0  0  0  0  0  0  0  0  0  0  0
   -9.2472   -1.2501  -10.8201 O   0  0  0  0  0  0  0  0  0  0  0  0
  -10.7806   -0.9201   -8.4360 H   0  0  0  0  0  0  0  0  0  0  0  0
   -7.7401   -0.0847   -9.2032 O   0  0  0  0  0  0  0  0  0  0  0  0
   -6.4916   -0.5737   -9.5788 C   0  0  0  0  0  0  0  0  0  0  0  0
   -4.2506   -0.0287   -8.8266 N   0  0  0  0  0  0  0  0  0  0  0  0
   -3.3703    0.6948   -9.7266 C   0  0  0  0  0  0  0  0  0  0  0  0
   -3.8816    2.5673  -11.1440 O   0  0  0  0  0  0  0  0  0  0  0  0
   -4.4000    1.3957  -10.5715 C   0  0  0  0  0  0  0  0  0  0  0  0
   -5.4083    2.6966   -8.6247 O   0  0  0  0  0  0  0  0  0  0  0  0
   -5.5869    1.6724   -9.6377 C   0  0  0  0  0  0  0  0  0  0  0  0
   -5.6338    0.4217   -8.8538 C   0  0  0  0  0  0  0  0  0  0  0  0
   -4.2305   -1.0154   -9.0844 H   0  0  0  0  0  0  0  0  0  0  0  0
   -3.1369    2.3420  -11.7233 H   0  0  0  0  0  0  0  0  0  0  0  0
   -5.3654    3.5676   -9.0495 H   0  0  0  0  0  0  0  0  0  0  0  0
 11 12  2  0  0  0
 11 16  1  0  0  0
 12 13  1  0  0  0
 13 14  2  0  0  0
 14 15  1  0  0  0
 14 20  1  0  0  0
 15 16  2  0  0  0
 15 18  1  0  0  0
 16 17  1  0  0  0
 18 19  2  0  0  0
 19 20  1  0  0  0
 20  2  1  0  0  0
  2  7  1  0  0  0
  2  3  1  0  0  0
  3  4  1  0  0  0
  3  5  1  0  0  0
  5  8  1  0  0  0
  5  6  1  0  0  0
  7  8  1  0  0  0
  8  1  1  0  0  0
  1 23  1  0  0  0
 23 24  1  0  0  0
 24 28  1  0  0  0
 24 25  2  0  0  0
 24 26  1  0  0  0
 28 29  1  0  0  0
 29 31  2  0  0  0
 29 30  1  0  0  0
 29 33  1  0  0  0
 33 34  1  0  0  0
 34 41  1  0  0  0
 35 41  1  0  0  0
 35 36  1  0  0  0
 36 38  1  0  0  0
 37 38  1  0  0  0
 38 40  1  0  0  0
 39 40  1  0  0  0
 40 41  1  0  0  0
 17 21  1  0  0  0
 17 22  1  0  0  0
  4  9  1  0  0  0
  6 10  1  0  0  0
 26 27  1  0  0  0
 30 32  1  0  0  0
 35 42  1  0  0  0
 37 43  1  0  0  0
 39 44  1  0  0  0
M  END
> <minimizedAffinity>
-9.06103

$$$$
6HH3_A1R_A_403


 44 47  0  0  0  0  0  0  0  0999 V2000
   -6.9510   -4.0993   -6.6736 C   0  0  0  0  0  0  0  0  0  0  0  0
   -3.7926   -5.4741   -7.6738 C   0  0  0  0  0  0  0  0  0  0  0  0
   -3.4964   -5.3224   -6.1948 C   0  0  0  0  0  0  0  0  0  0  0  0
   -3.5016   -6.6463   -5.6525 O   0  0  0  0  0  0  0  0  0  0  0  0
   -4.6631   -4.4766   -5.7123 C   0  0  0  0  0  0  0  0  0  0  0  0
   -4.9099   -4.5746   -4.3009 O   0  0  0  0  0  0  0  0  0  0  0  0
   -5.1877   -5.3294   -7.8251 O   0  0  0  0  0  0  0  0  0  0  0  0
   -5.7679   -5.0394   -6.5535 C   0  0  0  0  0  0  0  0  0  0  0  0
   -4.3363   -7.0854   -5.8794 H   0  0  0  0  0  0  0  0  0  0  0  0
   -5.0646   -5.5022   -4.0633 H   0  0  0  0  0  0  0  0  0  0  0  0
   -1.1197   -4.7316  -12.0293 N   0  0  0  0  0  0  0  0  0  0  0  0
   -1.6367   -5.8477  -11.4978 C   0  0  0  0  0  0  0  0  0  0  0  0
   -2.2999   -5.8568  -10.3306 N   0  0  0  0  0  0  0  0  0  0  0  0
   -2.5010   -4.7267   -9.6225 C   0  0  0  0  0  0  0  0  0  0  0  0
   -1.9817   -3.4715  -10.1358 C   0  0  0  0  0  0  0  0  0  0  0  0
   -1.2471   -3.5342  -11.4104 C   0  0  0  0  0  0  0  0  0  0  0  0
   -0.7256   -2.4234  -11.9528 N   0  0  0  0  0  0  0  0  0  0  0  0
   -2.3358   -2.5273   -9.2634 N   0  0  0  0  0  0  0  0  0  0  0  0
   -3.0060   -3.1477   -8.2486 C   0  0  0  0  0  0  0  0  0  0  0  0
   -3.0981   -4.4575   -8.4843 N   0  0  0  0  0  0  0  0  0  0  0  0
   -0.2360   -2.4750  -12.8053 H   0  0  0  0  0  0  0  0  0  0  0  0
   -0.8325   -1.5567  -11.4982 H   0  0  0  0  0  0  0  0  0  0  0  0
   -7.2136   -3.7970   -8.0192 O   0  0  0  0  0  0  0  0  0  0  0  0
   -8.6897   -3.5137   -8.5345 P   0  0  0  0  0  0  0  0  0  0  0  0
   -9.5726   -3.1734   -7.3744 O   0  0  0  0  0  0  0  0  0  0  0  0
   -9.0442   -4.5171   -9.6112 O   0  0  0  0  0  0  0  0  0  0  0  0
   -8.3208   -4.5694  -10.2552 H   0  0  0  0  0  0  0  0  0  0  0  0
   -8.4040   -2.2797   -9.5459 O   0  0  0  0  0  0  0  0  0  0  0  0
   -9.1117   -0.8677   -9.6933 P   0  0  0  0  0  0  0  0  0  0  0  0
  -10.0053   -0.5151   -8.5345 O   0  0  0  0  0  0  0  0  0  0  0  0
   -9.5580   -0.5758  -11.1211 O   0  0  0  0  0  0  0  0  0  0  0  0
  -10.8384   -1.0066   -8.6074 H   0  0  0  0  0  0  0  0  0  0  0  0
   -7.8574    0.0119   -9.3871 O   0  0  0  0  0  0  0  0  0  0  0  0
   -6.6389   -0.4312   -9.8949 C   0  0  0  0  0  0  0  0  0  0  0  0
   -4.3515   -0.0164   -9.2015 N   0  0  0  0  0  0  0  0  0  0  0  0
   -3.5121    0.8244  -10.0362 C   0  0  0  0  0  0  0  0  0  0  0  0
   -4.0736    2.8865  -11.1358 O   0  0  0  0  0  0  0  0  0  0  0  0
   -4.5768    1.6476  -10.7102 C   0  0  0  0  0  0  0  0  0  0  0  0
   -5.4553    2.6583   -8.5409 O   0  0  0  0  0  0  0  0  0  0  0  0
   -5.7055    1.7935   -9.6797 C   0  0  0  0  0  0  0  0  0  0  0  0
   -5.7273    0.4424   -9.0838 C   0  0  0  0  0  0  0  0  0  0  0  0
   -4.3606   -0.9552   -9.6002 H   0  0  0  0  0  0  0  0  0  0  0  0
   -3.3659    2.7429  -11.7834 H   0  0  0  0  0  0  0  0  0  0  0  0
   -5.4232    3.5814   -8.8369 H   0  0  0  0  0  0  0  0  0  0  0  0
 11 12  2  0  0  0
 11 16  1  0  0  0
 12 13  1  0  0  0
 13 14  2  0  0  0
 14 15  1  0  0  0
 14 20  1  0  0  0
 15 16  2  0  0  0
 15 18  1  0  0  0
 16 17  1  0  0  0
 18 19  2  0  0  0
 19 20  1  0  0  0
 20  2  1  0  0  0
  2  7  1  0  0  0
  2  3  1  0  0  0
  3  4  1  0  0  0
  3  5  1  0  0  0
  5  8  1  0  0  0
  5  6  1  0  0  0
  7  8  1  0  0  0
  8  1  1  0  0  0
  1 23  1  0  0  0
 23 24  1  0  0  0
 24 28  1  0  0  0
 24 25  2  0  0  0
 24 26  1  0  0  0
 28 29  1  0  0  0
 29 31  2  0  0  0
 29 30  1  0  0  0
 29 33  1  0  0  0
 33 34  1  0  0  0
 34 41  1  0  0  0
 35 41  1  0  0  0
 35 36  1  0  0  0
 36 38  1  0  0  0
 37 38  1  0  0  0
 38 40  1  0  0  0
 39 40  1  0  0  0
 40 41  1  0  0  0
 17 21  1  0  0  0
 17 22  1  0  0  0
  4  9  1  0  0  0
  6 10  1  0  0  0
 26 27  1  0  0  0
 30 32  1  0  0  0
 35 42  1  0  0  0
 37 43  1  0  0  0
 39 44  1  0  0  0
M  END
> <minimizedAffinity>
-9.01076

$$$$
6HH3_A1R_A_403


 44 47  0  0  0  0  0  0  0  0999 V2000
   -2.4579   -1.1927   -9.5417 C   0  0  0  0  0  0  0  0  0  0  0  0
   -5.6252    0.3460  -10.2248 C   0  0  0  0  0  0  0  0  0  0  0  0
   -5.1411    1.3216   -9.1702 C   0  0  0  0  0  0  0  0  0  0  0  0
   -4.8045    2.5241   -9.8685 O   0  0  0  0  0  0  0  0  0  0  0  0
   -3.9291    0.6076   -8.5953 C   0  0  0  0  0  0  0  0  0  0  0  0
   -2.9998    1.4785   -7.9314 O   0  0  0  0  0  0  0  0  0  0  0  0
   -4.5049   -0.4166  -10.6167 O   0  0  0  0  0  0  0  0  0  0  0  0
   -3.3759   -0.0231   -9.8369 C   0  0  0  0  0  0  0  0  0  0  0  0
   -4.1798    2.3197  -10.5819 H   0  0  0  0  0  0  0  0  0  0  0  0
   -2.7056    2.1674   -8.5476 H   0  0  0  0  0  0  0  0  0  0  0  0
  -10.4499   -1.3077  -11.0331 N   0  0  0  0  0  0  0  0  0  0  0  0
   -9.7109   -0.4052  -11.6923 C   0  0  0  0  0  0  0  0  0  0  0  0
   -8.4595   -0.0845  -11.3269 N   0  0  0  0  0  0  0  0  0  0  0  0
   -7.8590   -0.6700  -10.2706 C   0  0  0  0  0  0  0  0  0  0  0  0
   -8.5886   -1.6681   -9.5092 C   0  0  0  0  0  0  0  0  0  0  0  0
   -9.9631   -1.9589   -9.9504 C   0  0  0  0  0  0  0  0  0  0  0  0
  -10.7124   -2.8610   -9.2989 N   0  0  0  0  0  0  0  0  0  0  0  0
   -7.7654   -2.0928   -8.5501 N   0  0  0  0  0  0  0  0  0  0  0  0
   -6.6034   -1.3870   -8.6753 C   0  0  0  0  0  0  0  0  0  0  0  0
   -6.6779   -0.5481   -9.7099 N   0  0  0  0  0  0  0  0  0  0  0  0
  -11.6303   -3.0489   -9.6012 H   0  0  0  0  0  0  0  0  0  0  0  0
  -10.3445   -3.3351   -8.5185 H   0  0  0  0  0  0  0  0  0  0  0  0
   -3.1826   -2.3937   -9.4837 O   0  0  0  0  0  0  0  0  0  0  0  0
   -2.7029   -3.6111   -8.5823 P   0  0  0  0  0  0  0  0  0  0  0  0
   -1.3711   -3.2959   -7.9758 O   0  0  0  0  0  0  0  0  0  0  0  0
   -3.0358   -4.9120   -9.2815 O   0  0  0  0  0  0  0  0  0  0  0  0
   -3.9547   -4.8866   -9.5912 H   0  0  0  0  0  0  0  0  0  0  0  0
   -3.9260   -3.6760   -7.5207 O   0  0  0  0  0  0  0  0  0  0  0  0
   -4.6368   -4.9110   -6.8238 P   0  0  0  0  0  0  0  0  0  0  0  0
   -3.9340   -5.3919   -5.5827 O   0  0  0  0  0  0  0  0  0  0  0  0
   -5.1949   -5.9150   -7.8257 O   0  0  0  0  0  0  0  0  0  0  0  0
   -3.1517   -5.9078   -5.8334 H   0  0  0  0  0  0  0  0  0  0  0  0
   -5.8362   -4.1230   -6.2066 O   0  0  0  0  0  0  0  0  0  0  0  0
   -7.1042   -4.6730   -6.3755 C   0  0  0  0  0  0  0  0  0  0  0  0
   -7.4385   -3.5403   -4.2565 N   0  0  0  0  0  0  0  0  0  0  0  0
   -8.7473   -2.9843   -3.9626 C   0  0  0  0  0  0  0  0  0  0  0  0
  -10.9121   -3.9550   -4.3477 O   0  0  0  0  0  0  0  0  0  0  0  0
   -9.5963   -3.8755   -4.8289 C   0  0  0  0  0  0  0  0  0  0  0  0
   -8.9383   -6.0209   -3.6190 O   0  0  0  0  0  0  0  0  0  0  0  0
   -8.8909   -5.2392   -4.8413 C   0  0  0  0  0  0  0  0  0  0  0  0
   -7.4748   -4.8297   -4.9297 C   0  0  0  0  0  0  0  0  0  0  0  0
   -6.9381   -2.8819   -4.8536 H   0  0  0  0  0  0  0  0  0  0  0  0
  -11.3143   -3.0724   -4.3589 H   0  0  0  0  0  0  0  0  0  0  0  0
   -9.8431   -6.3387   -3.4733 H   0  0  0  0  0  0  0  0  0  0  0  0
 11 12  2  0  0  0
 11 16  1  0  0  0
 12 13  1  0  0  0
 13 14  2  0  0  0
 14 15  1  0  0  0
 14 20  1  0  0  0
 15 16  2  0  0  0
 15 18  1  0  0  0
 16 17  1  0  0  0
 18 19  2  0  0  0
 19 20  1  0  0  0
 20  2  1  0  0  0
  2  7  1  0  0  0
  2  3  1  0  0  0
  3  4  1  0  0  0
  3  5  1  0  0  0
  5  8  1  0  0  0
  5  6  1  0  0  0
  7  8  1  0  0  0
  8  1  1  0  0  0
  1 23  1  0  0  0
 23 24  1  0  0  0
 24 28  1  0  0  0
 24 25  2  0  0  0
 24 26  1  0  0  0
 28 29  1  0  0  0
 29 31  2  0  0  0
 29 30  1  0  0  0
 29 33  1  0  0  0
 33 34  1  0  0  0
 34 41  1  0  0  0
 35 41  1  0  0  0
 35 36  1  0  0  0
 36 38  1  0  0  0
 37 38  1  0  0  0
 38 40  1  0  0  0
 39 40  1  0  0  0
 40 41  1  0  0  0
 17 21  1  0  0  0
 17 22  1  0  0  0
  4  9  1  0  0  0
  6 10  1  0  0  0
 26 27  1  0  0  0
 30 32  1  0  0  0
 35 42  1  0  0  0
 37 43  1  0  0  0
 39 44  1  0  0  0
M  END
> <minimizedAffinity>
-8.79707

$$$$
6HH3_A1R_A_403


 44 47  0  0  0  0  0  0  0  0999 V2000
   -8.6810   -2.5320   -7.5148 C   0  0  0  0  0  0  0  0  0  0  0  0
   -8.0757   -4.6303   -4.6694 C   0  0  0  0  0  0  0  0  0  0  0  0
   -7.5218   -5.5562   -5.7345 C   0  0  0  0  0  0  0  0  0  0  0  0
   -6.1000   -5.5341   -5.5774 O   0  0  0  0  0  0  0  0  0  0  0  0
   -7.9895   -4.8937   -7.0196 C   0  0  0  0  0  0  0  0  0  0  0  0
   -7.2254   -5.2638   -8.1780 O   0  0  0  0  0  0  0  0  0  0  0  0
   -8.2165   -3.3610   -5.2687 O   0  0  0  0  0  0  0  0  0  0  0  0
   -7.8461   -3.4502   -6.6444 C   0  0  0  0  0  0  0  0  0  0  0  0
   -5.7862   -4.6166   -5.6022 H   0  0  0  0  0  0  0  0  0  0  0  0
   -6.2901   -5.0538   -8.0291 H   0  0  0  0  0  0  0  0  0  0  0  0
  -10.3676   -7.9746   -1.4712 N   0  0  0  0  0  0  0  0  0  0  0  0
   -9.0740   -7.7937   -1.7700 C   0  0  0  0  0  0  0  0  0  0  0  0
   -8.6538   -6.8709   -2.6498 N   0  0  0  0  0  0  0  0  0  0  0  0
   -9.5182   -6.0507   -3.2818 C   0  0  0  0  0  0  0  0  0  0  0  0
  -10.9381   -6.1749   -3.0048 C   0  0  0  0  0  0  0  0  0  0  0  0
  -11.3337   -7.2195   -2.0453 C   0  0  0  0  0  0  0  0  0  0  0  0
  -12.6256   -7.4097   -1.7377 N   0  0  0  0  0  0  0  0  0  0  0  0
  -11.5519   -5.2437   -3.7356 N   0  0  0  0  0  0  0  0  0  0  0  0
  -10.5882   -4.5948   -4.4527 C   0  0  0  0  0  0  0  0  0  0  0  0
   -9.3826   -5.0875   -4.1639 N   0  0  0  0  0  0  0  0  0  0  0  0
  -12.8806   -8.1106   -1.0951 H   0  0  0  0  0  0  0  0  0  0  0  0
  -13.3187   -6.8483   -2.1546 H   0  0  0  0  0  0  0  0  0  0  0  0
   -7.9276   -2.0480   -8.5961 O   0  0  0  0  0  0  0  0  0  0  0  0
   -8.2265   -0.6307   -9.2490 P   0  0  0  0  0  0  0  0  0  0  0  0
   -8.7165    0.3159   -8.1979 O   0  0  0  0  0  0  0  0  0  0  0  0
   -8.8913   -0.8305  -10.5944 O   0  0  0  0  0  0  0  0  0  0  0  0
   -8.3968   -1.4909  -11.1045 H   0  0  0  0  0  0  0  0  0  0  0  0
   -6.7594   -0.2768   -9.8404 O   0  0  0  0  0  0  0  0  0  0  0  0
   -5.7353    0.8756   -9.4670 P   0  0  0  0  0  0  0  0  0  0  0  0
   -5.8333    1.3315   -8.0358 O   0  0  0  0  0  0  0  0  0  0  0  0
   -5.5594    1.8959  -10.5855 O   0  0  0  0  0  0  0  0  0  0  0  0
   -6.6085    1.9052   -7.9316 H   0  0  0  0  0  0  0  0  0  0  0  0
   -4.4519   -0.0135   -9.4144 O   0  0  0  0  0  0  0  0  0  0  0  0
   -3.4245    0.4134   -8.5771 C   0  0  0  0  0  0  0  0  0  0  0  0
   -1.0749   -0.1883   -8.5278 N   0  0  0  0  0  0  0  0  0  0  0  0
   -0.7098   -1.5396   -8.1414 C   0  0  0  0  0  0  0  0  0  0  0  0
   -1.7350   -3.6151   -8.7878 O   0  0  0  0  0  0  0  0  0  0  0  0
   -1.9759   -2.2582   -8.5235 C   0  0  0  0  0  0  0  0  0  0  0  0
   -1.8083   -1.6632  -10.9968 O   0  0  0  0  0  0  0  0  0  0  0  0
   -2.5275   -1.5095   -9.7452 C   0  0  0  0  0  0  0  0  0  0  0  0
   -2.2601   -0.1070   -9.3680 C   0  0  0  0  0  0  0  0  0  0  0  0
   -1.2467    0.3514   -7.6795 H   0  0  0  0  0  0  0  0  0  0  0  0
   -1.3889   -4.0436   -7.9894 H   0  0  0  0  0  0  0  0  0  0  0  0
   -1.9260   -2.5671  -11.3284 H   0  0  0  0  0  0  0  0  0  0  0  0
 11 12  2  0  0  0
 11 16  1  0  0  0
 12 13  1  0  0  0
 13 14  2  0  0  0
 14 15  1  0  0  0
 14 20  1  0  0  0
 15 16  2  0  0  0
 15 18  1  0  0  0
 16 17  1  0  0  0
 18 19  2  0  0  0
 19 20  1  0  0  0
 20  2  1  0  0  0
  2  7  1  0  0  0
  2  3  1  0  0  0
  3  4  1  0  0  0
  3  5  1  0  0  0
  5  8  1  0  0  0
  5  6  1  0  0  0
  7  8  1  0  0  0
  8  1  1  0  0  0
  1 23  1  0  0  0
 23 24  1  0  0  0
 24 28  1  0  0  0
 24 25  2  0  0  0
 24 26  1  0  0  0
 28 29  1  0  0  0
 29 31  2  0  0  0
 29 30  1  0  0  0
 29 33  1  0  0  0
 33 34  1  0  0  0
 34 41  1  0  0  0
 35 41  1  0  0  0
 35 36  1  0  0  0
 36 38  1  0  0  0
 37 38  1  0  0  0
 38 40  1  0  0  0
 39 40  1  0  0  0
 40 41  1  0  0  0
 17 21  1  0  0  0
 17 22  1  0  0  0
  4  9  1  0  0  0
  6 10  1  0  0  0
 26 27  1  0  0  0
 30 32  1  0  0  0
 35 42  1  0  0  0
 37 43  1  0  0  0
 39 44  1  0  0  0
M  END
> <minimizedAffinity>
-8.52578

$$$$
