6DIF_TPV_B_201


 44 47  0  0  0  0  0  0  0  0999 V2000
   10.4302   19.3592   63.5190 C   0  0  0  0  0  0  0  0  0  0  0  0
   14.0785   19.7792   64.0799 O   0  0  0  0  0  0  0  0  0  0  0  0
   12.8266   19.2874   64.0679 C   0  0  0  0  0  0  0  0  0  0  0  0
   11.7366   19.9577   63.4669 C   0  0  0  0  0  0  0  0  0  0  0  0
   12.0615   21.2133   62.9609 C   0  0  0  0  0  0  0  0  0  0  0  0
   13.3181   21.8344   63.1164 C   0  0  0  0  0  0  0  0  0  0  0  0
   14.4835   20.8682   63.2560 C   0  0  0  0  0  0  0  0  0  0  0  0
   12.7353   18.1804   64.6627 O   0  0  0  0  0  0  0  0  0  0  0  0
   11.0797   21.9529   62.3521 O   0  0  0  0  0  0  0  0  0  0  0  0
   10.2271   21.5855   62.2250 H   0  0  0  0  0  0  0  0  0  0  0  0
   14.7612   20.3839   61.8134 C   0  0  0  0  0  0  0  0  0  0  0  0
   14.7856   21.4553   60.7369 C   0  0  0  0  0  0  0  0  0  0  0  0
   16.1329   21.3501   59.9671 C   0  0  0  0  0  0  0  0  0  0  0  0
   15.7348   21.4632   63.8871 C   0  0  0  0  0  0  0  0  0  0  0  0
   15.9889   22.9402   63.6546 C   0  0  0  0  0  0  0  0  0  0  0  0
   16.1222   23.6651   64.8450 C   0  0  0  0  0  0  0  0  0  0  0  0
   15.1309   23.5720   65.8164 C   0  0  0  0  0  0  0  0  0  0  0  0
   15.2345   24.2362   67.0141 C   0  0  0  0  0  0  0  0  0  0  0  0
   16.3612   25.0325   67.2472 C   0  0  0  0  0  0  0  0  0  0  0  0
   17.3600   25.1575   66.2815 C   0  0  0  0  0  0  0  0  0  0  0  0
   17.2466   24.4734   65.0773 C   0  0  0  0  0  0  0  0  0  0  0  0
   10.0972   18.4480   62.5210 C   0  0  0  0  0  0  0  0  0  0  0  0
   11.0285   18.0076   61.5924 C   0  0  0  0  0  0  0  0  0  0  0  0
   10.7002   17.0809   60.5793 C   0  0  0  0  0  0  0  0  0  0  0  0
    9.4238   16.5600   60.4424 C   0  0  0  0  0  0  0  0  0  0  0  0
    8.4475   16.9732   61.3632 C   0  0  0  0  0  0  0  0  0  0  0  0
    8.8091   17.8719   62.3457 C   0  0  0  0  0  0  0  0  0  0  0  0
    7.1518   16.4981   61.2194 N   0  0  0  0  0  0  0  0  0  0  0  0
    6.5177   16.9315   60.6035 H   0  0  0  0  0  0  0  0  0  0  0  0
    6.7172   15.2147   62.0919 S   0  0  0  0  0  0  0  0  0  0  0  0
    5.2848   14.9152   61.7321 O   0  0  0  0  0  0  0  0  0  0  0  0
    7.6971   14.0718   61.8258 O   0  0  0  0  0  0  0  0  0  0  0  0
    6.8144   15.7135   63.8075 C   0  0  0  0  0  0  0  0  0  0  0  0
    7.8710   15.3616   64.5639 N   0  0  0  0  0  0  0  0  0  0  0  0
    8.0597   15.9319   65.8217 C   0  0  0  0  0  0  0  0  0  0  0  0
    7.1348   16.8651   66.3261 C   0  0  0  0  0  0  0  0  0  0  0  0
    6.0315   17.1550   65.5357 C   0  0  0  0  0  0  0  0  0  0  0  0
    5.8478   16.5792   64.2745 C   0  0  0  0  0  0  0  0  0  0  0  0
    7.2909   17.4683   67.5553 C   0  0  0  0  0  0  0  0  0  0  0  0
    6.6486   16.8582   68.5604 F   0  0  0  0  0  0  0  0  0  0  0  0
    7.0626   18.7509   67.7082 F   0  0  0  0  0  0  0  0  0  0  0  0
    8.5883   17.3674   67.9495 F   0  0  0  0  0  0  0  0  0  0  0  0
   10.0381   18.8053   64.8737 C   0  0  0  0  0  0  0  0  0  0  0  0
    9.7086   19.8373   65.9441 C   0  0  0  0  0  0  0  0  0  0  0  0
  2  3  1  0  0  0
  2  7  1  0  0  0
  3  4  1  0  0  0
  3  8  2  0  0  0
  4  5  2  0  0  0
  4  1  1  0  0  0
  5  6  1  0  0  0
  5  9  1  0  0  0
  6  7  1  0  0  0
  7 11  1  0  0  0
  7 14  1  0  0  0
 11 12  1  0  0  0
 12 13  1  0  0  0
 14 15  1  0  0  0
 15 16  1  0  0  0
 16 17  2  0  0  0
 16 21  1  0  0  0
 17 18  1  0  0  0
 18 19  2  0  0  0
 19 20  1  0  0  0
 20 21  2  0  0  0
  1 43  1  0  0  0
  1 22  1  0  0  0
 43 44  1  0  0  0
 22 23  2  0  0  0
 22 27  1  0  0  0
 23 24  1  0  0  0
 24 25  2  0  0  0
 25 26  1  0  0  0
 26 28  1  0  0  0
 26 27  2  0  0  0
 28 30  1  0  0  0
 30 31  2  0  0  0
 30 32  2  0  0  0
 30 33  1  0  0  0
 33 34  2  0  0  0
 33 38  1  0  0  0
 34 35  1  0  0  0
 35 36  2  0  0  0
 36 37  1  0  0  0
 36 39  1  0  0  0
 37 38  2  0  0  0
 39 40  1  0  0  0
 39 41  1  0  0  0
 39 42  1  0  0  0
  9 10  1  0  0  0
 28 29  1  0  0  0
M  END
> <minimizedAffinity>
-11.58642

$$$$
6DIF_TPV_B_201


 44 47  0  0  0  0  0  0  0  0999 V2000
   14.3379   22.3489   63.2563 C   0  0  0  0  0  0  0  0  0  0  0  0
   13.0447   19.0337   64.3232 O   0  0  0  0  0  0  0  0  0  0  0  0
   13.8517   20.0802   64.0721 C   0  0  0  0  0  0  0  0  0  0  0  0
   13.3956   21.2910   63.5024 C   0  0  0  0  0  0  0  0  0  0  0  0
   12.0495   21.2709   63.1478 C   0  0  0  0  0  0  0  0  0  0  0  0
   11.2206   20.1330   63.2301 C   0  0  0  0  0  0  0  0  0  0  0  0
   11.6242   19.1382   64.3065 C   0  0  0  0  0  0  0  0  0  0  0  0
   15.0510   19.8528   64.3841 O   0  0  0  0  0  0  0  0  0  0  0  0
   11.4985   22.3955   62.5879 O   0  0  0  0  0  0  0  0  0  0  0  0
   12.0080   23.1780   62.5102 H   0  0  0  0  0  0  0  0  0  0  0  0
   11.1102   19.7628   65.6250 C   0  0  0  0  0  0  0  0  0  0  0  0
   10.7818   18.7920   66.7463 C   0  0  0  0  0  0  0  0  0  0  0  0
    9.2767   18.9457   67.1063 C   0  0  0  0  0  0  0  0  0  0  0  0
   11.0762   17.7308   64.1140 C   0  0  0  0  0  0  0  0  0  0  0  0
    9.6951   17.6066   63.4998 C   0  0  0  0  0  0  0  0  0  0  0  0
    9.7024   16.9345   62.2716 C   0  0  0  0  0  0  0  0  0  0  0  0
    8.8179   15.8811   62.0639 C   0  0  0  0  0  0  0  0  0  0  0  0
    8.7636   15.2149   60.8640 C   0  0  0  0  0  0  0  0  0  0  0  0
    9.6312   15.6044   59.8377 C   0  0  0  0  0  0  0  0  0  0  0  0
   10.5405   16.6451   60.0273 C   0  0  0  0  0  0  0  0  0  0  0  0
   10.5793   17.3162   61.2435 C   0  0  0  0  0  0  0  0  0  0  0  0
   14.8691   23.0101   64.3599 C   0  0  0  0  0  0  0  0  0  0  0  0
   14.1550   23.1531   65.5402 C   0  0  0  0  0  0  0  0  0  0  0  0
   14.6875   23.8189   66.6654 C   0  0  0  0  0  0  0  0  0  0  0  0
   15.9540   24.3803   66.6586 C   0  0  0  0  0  0  0  0  0  0  0  0
   16.7169   24.2566   65.4862 C   0  0  0  0  0  0  0  0  0  0  0  0
   16.1665   23.5897   64.4110 C   0  0  0  0  0  0  0  0  0  0  0  0
   17.9711   24.8484   65.4413 N   0  0  0  0  0  0  0  0  0  0  0  0
   18.6468   24.6587   66.1316 H   0  0  0  0  0  0  0  0  0  0  0  0
   18.2872   25.8561   64.2238 S   0  0  0  0  0  0  0  0  0  0  0  0
   17.0179   26.6246   63.9611 O   0  0  0  0  0  0  0  0  0  0  0  0
   19.4953   26.7194   64.5878 O   0  0  0  0  0  0  0  0  0  0  0  0
   18.6742   24.8325   62.8082 C   0  0  0  0  0  0  0  0  0  0  0  0
   19.2524   23.6279   62.9721 N   0  0  0  0  0  0  0  0  0  0  0  0
   19.3476   22.7393   61.9023 C   0  0  0  0  0  0  0  0  0  0  0  0
   18.8616   23.1004   60.6318 C   0  0  0  0  0  0  0  0  0  0  0  0
   18.3251   24.3732   60.4964 C   0  0  0  0  0  0  0  0  0  0  0  0
   18.2327   25.2601   61.5737 C   0  0  0  0  0  0  0  0  0  0  0  0
   18.9172   22.2475   59.5508 C   0  0  0  0  0  0  0  0  0  0  0  0
   18.0644   21.2160   59.6111 F   0  0  0  0  0  0  0  0  0  0  0  0
   20.0606   21.7461   59.1486 F   0  0  0  0  0  0  0  0  0  0  0  0
   18.4910   22.8987   58.4358 F   0  0  0  0  0  0  0  0  0  0  0  0
   15.4452   22.0005   62.2826 C   0  0  0  0  0  0  0  0  0  0  0  0
   15.0165   21.7852   60.8372 C   0  0  0  0  0  0  0  0  0  0  0  0
  2  3  1  0  0  0
  2  7  1  0  0  0
  3  4  1  0  0  0
  3  8  2  0  0  0
  4  5  2  0  0  0
  4  1  1  0  0  0
  5  6  1  0  0  0
  5  9  1  0  0  0
  6  7  1  0  0  0
  7 11  1  0  0  0
  7 14  1  0  0  0
 11 12  1  0  0  0
 12 13  1  0  0  0
 14 15  1  0  0  0
 15 16  1  0  0  0
 16 17  2  0  0  0
 16 21  1  0  0  0
 17 18  1  0  0  0
 18 19  2  0  0  0
 19 20  1  0  0  0
 20 21  2  0  0  0
  1 43  1  0  0  0
  1 22  1  0  0  0
 43 44  1  0  0  0
 22 23  2  0  0  0
 22 27  1  0  0  0
 23 24  1  0  0  0
 24 25  2  0  0  0
 25 26  1  0  0  0
 26 28  1  0  0  0
 26 27  2  0  0  0
 28 30  1  0  0  0
 30 31  2  0  0  0
 30 32  2  0  0  0
 30 33  1  0  0  0
 33 34  2  0  0  0
 33 38  1  0  0  0
 34 35  1  0  0  0
 35 36  2  0  0  0
 36 37  1  0  0  0
 36 39  1  0  0  0
 37 38  2  0  0  0
 39 40  1  0  0  0
 39 41  1  0  0  0
 39 42  1  0  0  0
  9 10  1  0  0  0
 28 29  1  0  0  0
M  END
> <minimizedAffinity>
-11.47702

$$$$
6DIF_TPV_B_201


 44 47  0  0  0  0  0  0  0  0999 V2000
   10.8745   19.3628   63.6371 C   0  0  0  0  0  0  0  0  0  0  0  0
   13.2674   22.0393   62.6825 O   0  0  0  0  0  0  0  0  0  0  0  0
   12.1421   21.3283   62.8762 C   0  0  0  0  0  0  0  0  0  0  0  0
   12.1266   20.0538   63.4879 C   0  0  0  0  0  0  0  0  0  0  0  0
   13.3933   19.5653   63.7963 C   0  0  0  0  0  0  0  0  0  0  0  0
   14.6008   20.2028   63.4439 C   0  0  0  0  0  0  0  0  0  0  0  0
   14.4999   21.7146   63.3184 C   0  0  0  0  0  0  0  0  0  0  0  0
   11.1168   21.9155   62.4389 O   0  0  0  0  0  0  0  0  0  0  0  0
   13.4976   18.3363   64.3966 O   0  0  0  0  0  0  0  0  0  0  0  0
   12.7245   17.8715   64.6500 H   0  0  0  0  0  0  0  0  0  0  0  0
   14.5094   22.2269   64.7779 C   0  0  0  0  0  0  0  0  0  0  0  0
   14.6734   23.7255   64.9639 C   0  0  0  0  0  0  0  0  0  0  0  0
   14.7313   24.0297   66.4880 C   0  0  0  0  0  0  0  0  0  0  0  0
   15.6079   22.3633   62.5003 C   0  0  0  0  0  0  0  0  0  0  0  0
   15.5295   22.2149   60.9930 C   0  0  0  0  0  0  0  0  0  0  0  0
   16.7094   22.5990   60.3445 C   0  0  0  0  0  0  0  0  0  0  0  0
   17.8666   21.8500   60.5311 C   0  0  0  0  0  0  0  0  0  0  0  0
   19.0386   22.1668   59.8888 C   0  0  0  0  0  0  0  0  0  0  0  0
   19.0614   23.2782   59.0390 C   0  0  0  0  0  0  0  0  0  0  0  0
   17.9194   24.0566   58.8498 C   0  0  0  0  0  0  0  0  0  0  0  0
   16.7381   23.7200   59.4995 C   0  0  0  0  0  0  0  0  0  0  0  0
   10.4909   18.4946   62.6192 C   0  0  0  0  0  0  0  0  0  0  0  0
   11.3921   18.0384   61.6687 C   0  0  0  0  0  0  0  0  0  0  0  0
   11.0123   17.1548   60.6353 C   0  0  0  0  0  0  0  0  0  0  0  0
    9.7126   16.6950   60.4993 C   0  0  0  0  0  0  0  0  0  0  0  0
    8.7651   17.1263   61.4417 C   0  0  0  0  0  0  0  0  0  0  0  0
    9.1765   17.9812   62.4434 C   0  0  0  0  0  0  0  0  0  0  0  0
    7.4481   16.7133   61.3001 N   0  0  0  0  0  0  0  0  0  0  0  0
    6.8091   17.2314   60.7592 H   0  0  0  0  0  0  0  0  0  0  0  0
    6.9969   15.3593   62.0487 S   0  0  0  0  0  0  0  0  0  0  0  0
    5.6050   15.0440   61.5651 O   0  0  0  0  0  0  0  0  0  0  0  0
    8.0320   14.2674   61.7779 O   0  0  0  0  0  0  0  0  0  0  0  0
    6.9545   15.7384   63.7968 C   0  0  0  0  0  0  0  0  0  0  0  0
    7.9870   15.4069   64.5945 N   0  0  0  0  0  0  0  0  0  0  0  0
    8.0577   15.8967   65.8976 C   0  0  0  0  0  0  0  0  0  0  0  0
    7.0381   16.7246   66.4032 C   0  0  0  0  0  0  0  0  0  0  0  0
    5.9656   16.9936   65.5644 C   0  0  0  0  0  0  0  0  0  0  0  0
    5.9005   16.4990   64.2579 C   0  0  0  0  0  0  0  0  0  0  0  0
    7.0756   17.2468   67.6779 C   0  0  0  0  0  0  0  0  0  0  0  0
    7.5165   18.5100   67.7492 F   0  0  0  0  0  0  0  0  0  0  0  0
    7.6732   16.6016   68.6511 F   0  0  0  0  0  0  0  0  0  0  0  0
    5.8090   17.3645   68.1582 F   0  0  0  0  0  0  0  0  0  0  0  0
   10.6710   18.6992   64.9839 C   0  0  0  0  0  0  0  0  0  0  0  0
   10.0724   19.5778   66.0744 C   0  0  0  0  0  0  0  0  0  0  0  0
  2  3  1  0  0  0
  2  7  1  0  0  0
  3  4  1  0  0  0
  3  8  2  0  0  0
  4  5  2  0  0  0
  4  1  1  0  0  0
  5  6  1  0  0  0
  5  9  1  0  0  0
  6  7  1  0  0  0
  7 11  1  0  0  0
  7 14  1  0  0  0
 11 12  1  0  0  0
 12 13  1  0  0  0
 14 15  1  0  0  0
 15 16  1  0  0  0
 16 17  2  0  0  0
 16 21  1  0  0  0
 17 18  1  0  0  0
 18 19  2  0  0  0
 19 20  1  0  0  0
 20 21  2  0  0  0
  1 43  1  0  0  0
  1 22  1  0  0  0
 43 44  1  0  0  0
 22 23  2  0  0  0
 22 27  1  0  0  0
 23 24  1  0  0  0
 24 25  2  0  0  0
 25 26  1  0  0  0
 26 28  1  0  0  0
 26 27  2  0  0  0
 28 30  1  0  0  0
 30 31  2  0  0  0
 30 32  2  0  0  0
 30 33  1  0  0  0
 33 34  2  0  0  0
 33 38  1  0  0  0
 34 35  1  0  0  0
 35 36  2  0  0  0
 36 37  1  0  0  0
 36 39  1  0  0  0
 37 38  2  0  0  0
 39 40  1  0  0  0
 39 41  1  0  0  0
 39 42  1  0  0  0
  9 10  1  0  0  0
 28 29  1  0  0  0
M  END
> <minimizedAffinity>
-11.43969

$$$$
6DIF_TPV_B_201


 44 47  0  0  0  0  0  0  0  0999 V2000
   14.2509   22.0821   63.1284 C   0  0  0  0  0  0  0  0  0  0  0  0
   11.0537   20.2018   63.3370 O   0  0  0  0  0  0  0  0  0  0  0  0
   11.9697   21.1629   63.1209 C   0  0  0  0  0  0  0  0  0  0  0  0
   13.3494   20.9897   63.3762 C   0  0  0  0  0  0  0  0  0  0  0  0
   13.6626   19.7608   63.9505 C   0  0  0  0  0  0  0  0  0  0  0  0
   12.7088   18.8044   64.3561 C   0  0  0  0  0  0  0  0  0  0  0  0
   11.4080   18.8420   63.5701 C   0  0  0  0  0  0  0  0  0  0  0  0
   11.4594   22.2294   62.6856 O   0  0  0  0  0  0  0  0  0  0  0  0
   14.9747   19.4832   64.2389 O   0  0  0  0  0  0  0  0  0  0  0  0
   15.6468   20.0869   63.9905 H   0  0  0  0  0  0  0  0  0  0  0  0
   11.7390   18.1308   62.2370 C   0  0  0  0  0  0  0  0  0  0  0  0
   10.5528   17.6741   61.4053 C   0  0  0  0  0  0  0  0  0  0  0  0
   11.0869   16.8816   60.1784 C   0  0  0  0  0  0  0  0  0  0  0  0
   10.2226   18.1855   64.2644 C   0  0  0  0  0  0  0  0  0  0  0  0
   10.0084   18.5208   65.7279 C   0  0  0  0  0  0  0  0  0  0  0  0
    8.7039   18.2575   66.1629 C   0  0  0  0  0  0  0  0  0  0  0  0
    8.5063   17.4757   67.2963 C   0  0  0  0  0  0  0  0  0  0  0  0
    7.2471   17.2196   67.7816 C   0  0  0  0  0  0  0  0  0  0  0  0
    6.1438   17.7518   67.1053 C   0  0  0  0  0  0  0  0  0  0  0  0
    6.3144   18.5232   65.9556 C   0  0  0  0  0  0  0  0  0  0  0  0
    7.5943   18.7814   65.4801 C   0  0  0  0  0  0  0  0  0  0  0  0
   14.7456   22.7736   64.2304 C   0  0  0  0  0  0  0  0  0  0  0  0
   13.9917   22.9517   65.3808 C   0  0  0  0  0  0  0  0  0  0  0  0
   14.4870   23.6484   66.5043 C   0  0  0  0  0  0  0  0  0  0  0  0
   15.7545   24.2070   66.5252 C   0  0  0  0  0  0  0  0  0  0  0  0
   16.5571   24.0484   65.3838 C   0  0  0  0  0  0  0  0  0  0  0  0
   16.0422   23.3520   64.3098 C   0  0  0  0  0  0  0  0  0  0  0  0
   17.8137   24.6363   65.3654 N   0  0  0  0  0  0  0  0  0  0  0  0
   18.4797   24.4324   66.0612 H   0  0  0  0  0  0  0  0  0  0  0  0
   18.1492   25.6635   64.1696 S   0  0  0  0  0  0  0  0  0  0  0  0
   16.8595   26.3656   63.8314 O   0  0  0  0  0  0  0  0  0  0  0  0
   19.2864   26.5873   64.6059 O   0  0  0  0  0  0  0  0  0  0  0  0
   18.6735   24.6666   62.7794 C   0  0  0  0  0  0  0  0  0  0  0  0
   19.2618   23.4719   62.9769 N   0  0  0  0  0  0  0  0  0  0  0  0
   19.4639   22.5996   61.9086 C   0  0  0  0  0  0  0  0  0  0  0  0
   19.0768   22.9672   60.6064 C   0  0  0  0  0  0  0  0  0  0  0  0
   18.5262   24.2304   60.4416 C   0  0  0  0  0  0  0  0  0  0  0  0
   18.3263   25.1012   61.5175 C   0  0  0  0  0  0  0  0  0  0  0  0
   19.2396   22.1298   59.5241 C   0  0  0  0  0  0  0  0  0  0  0  0
   18.1300   21.4767   59.1538 F   0  0  0  0  0  0  0  0  0  0  0  0
   20.2047   21.2418   59.5008 F   0  0  0  0  0  0  0  0  0  0  0  0
   19.5136   22.8680   58.4156 F   0  0  0  0  0  0  0  0  0  0  0  0
   15.3798   21.7696   62.1674 C   0  0  0  0  0  0  0  0  0  0  0  0
   14.9691   21.4882   60.7281 C   0  0  0  0  0  0  0  0  0  0  0  0
  2  3  1  0  0  0
  2  7  1  0  0  0
  3  4  1  0  0  0
  3  8  2  0  0  0
  4  5  2  0  0  0
  4  1  1  0  0  0
  5  6  1  0  0  0
  5  9  1  0  0  0
  6  7  1  0  0  0
  7 11  1  0  0  0
  7 14  1  0  0  0
 11 12  1  0  0  0
 12 13  1  0  0  0
 14 15  1  0  0  0
 15 16  1  0  0  0
 16 17  2  0  0  0
 16 21  1  0  0  0
 17 18  1  0  0  0
 18 19  2  0  0  0
 19 20  1  0  0  0
 20 21  2  0  0  0
  1 43  1  0  0  0
  1 22  1  0  0  0
 43 44  1  0  0  0
 22 23  2  0  0  0
 22 27  1  0  0  0
 23 24  1  0  0  0
 24 25  2  0  0  0
 25 26  1  0  0  0
 26 28  1  0  0  0
 26 27  2  0  0  0
 28 30  1  0  0  0
 30 31  2  0  0  0
 30 32  2  0  0  0
 30 33  1  0  0  0
 33 34  2  0  0  0
 33 38  1  0  0  0
 34 35  1  0  0  0
 35 36  2  0  0  0
 36 37  1  0  0  0
 36 39  1  0  0  0
 37 38  2  0  0  0
 39 40  1  0  0  0
 39 41  1  0  0  0
 39 42  1  0  0  0
  9 10  1  0  0  0
 28 29  1  0  0  0
M  END
> <minimizedAffinity>
-10.84772

$$$$
6DIF_TPV_B_201


 44 47  0  0  0  0  0  0  0  0999 V2000
   14.4764   21.8079   63.2373 C   0  0  0  0  0  0  0  0  0  0  0  0
   12.7185   18.6792   64.1972 O   0  0  0  0  0  0  0  0  0  0  0  0
   13.6671   19.6088   63.9838 C   0  0  0  0  0  0  0  0  0  0  0  0
   13.3924   20.8862   63.4441 C   0  0  0  0  0  0  0  0  0  0  0  0
   12.0617   21.0641   63.0757 C   0  0  0  0  0  0  0  0  0  0  0  0
   11.0810   20.0515   63.1176 C   0  0  0  0  0  0  0  0  0  0  0  0
   11.3269   18.9818   64.1695 C   0  0  0  0  0  0  0  0  0  0  0  0
   14.8185   19.2076   64.3012 O   0  0  0  0  0  0  0  0  0  0  0  0
   11.6808   22.2692   62.5423 O   0  0  0  0  0  0  0  0  0  0  0  0
   12.2956   22.9744   62.4918 H   0  0  0  0  0  0  0  0  0  0  0  0
   10.8870   19.6369   65.4998 C   0  0  0  0  0  0  0  0  0  0  0  0
   10.6014   18.6909   66.6536 C   0  0  0  0  0  0  0  0  0  0  0  0
    9.1165   18.8685   67.0805 C   0  0  0  0  0  0  0  0  0  0  0  0
   10.5905   17.6706   63.9319 C   0  0  0  0  0  0  0  0  0  0  0  0
    9.2768   17.7444   63.1777 C   0  0  0  0  0  0  0  0  0  0  0  0
    9.2783   16.9829   62.0028 C   0  0  0  0  0  0  0  0  0  0  0  0
    8.1777   16.1867   61.7031 C   0  0  0  0  0  0  0  0  0  0  0  0
    8.1183   15.4498   60.5455 C   0  0  0  0  0  0  0  0  0  0  0  0
    9.2007   15.4983   59.6602 C   0  0  0  0  0  0  0  0  0  0  0  0
   10.3240   16.2741   59.9468 C   0  0  0  0  0  0  0  0  0  0  0  0
   10.3677   17.0212   61.1176 C   0  0  0  0  0  0  0  0  0  0  0  0
   14.9287   21.9907   61.9337 C   0  0  0  0  0  0  0  0  0  0  0  0
   14.5899   21.1155   60.9125 C   0  0  0  0  0  0  0  0  0  0  0  0
   15.0411   21.2955   59.5871 C   0  0  0  0  0  0  0  0  0  0  0  0
   15.8594   22.3529   59.2242 C   0  0  0  0  0  0  0  0  0  0  0  0
   16.2254   23.2685   60.2240 C   0  0  0  0  0  0  0  0  0  0  0  0
   15.7559   23.0651   61.5054 C   0  0  0  0  0  0  0  0  0  0  0  0
   17.0793   24.3109   59.8933 N   0  0  0  0  0  0  0  0  0  0  0  0
   16.7964   25.0215   59.2733 H   0  0  0  0  0  0  0  0  0  0  0  0
   18.5486   24.3224   60.5556 S   0  0  0  0  0  0  0  0  0  0  0  0
   19.0789   22.9159   60.4497 O   0  0  0  0  0  0  0  0  0  0  0  0
   19.4033   25.3835   59.8621 O   0  0  0  0  0  0  0  0  0  0  0  0
   18.3232   24.7519   62.2779 C   0  0  0  0  0  0  0  0  0  0  0  0
   18.1071   26.0297   62.6421 N   0  0  0  0  0  0  0  0  0  0  0  0
   17.7091   26.3352   63.9427 C   0  0  0  0  0  0  0  0  0  0  0  0
   17.5515   25.3133   64.8973 C   0  0  0  0  0  0  0  0  0  0  0  0
   17.8399   24.0175   64.4925 C   0  0  0  0  0  0  0  0  0  0  0  0
   18.2389   23.7175   63.1861 C   0  0  0  0  0  0  0  0  0  0  0  0
   17.1417   25.5664   66.1885 C   0  0  0  0  0  0  0  0  0  0  0  0
   17.4686   26.7818   66.6481 F   0  0  0  0  0  0  0  0  0  0  0  0
   17.4198   24.7282   67.1583 F   0  0  0  0  0  0  0  0  0  0  0  0
   15.7834   25.6053   66.2347 F   0  0  0  0  0  0  0  0  0  0  0  0
   14.3072   23.1515   63.9168 C   0  0  0  0  0  0  0  0  0  0  0  0
   14.2636   23.1261   65.4389 C   0  0  0  0  0  0  0  0  0  0  0  0
  2  3  1  0  0  0
  2  7  1  0  0  0
  3  4  1  0  0  0
  3  8  2  0  0  0
  4  5  2  0  0  0
  4  1  1  0  0  0
  5  6  1  0  0  0
  5  9  1  0  0  0
  6  7  1  0  0  0
  7 11  1  0  0  0
  7 14  1  0  0  0
 11 12  1  0  0  0
 12 13  1  0  0  0
 14 15  1  0  0  0
 15 16  1  0  0  0
 16 17  2  0  0  0
 16 21  1  0  0  0
 17 18  1  0  0  0
 18 19  2  0  0  0
 19 20  1  0  0  0
 20 21  2  0  0  0
  1 43  1  0  0  0
  1 22  1  0  0  0
 43 44  1  0  0  0
 22 23  2  0  0  0
 22 27  1  0  0  0
 23 24  1  0  0  0
 24 25  2  0  0  0
 25 26  1  0  0  0
 26 28  1  0  0  0
 26 27  2  0  0  0
 28 30  1  0  0  0
 30 31  2  0  0  0
 30 32  2  0  0  0
 30 33  1  0  0  0
 33 34  2  0  0  0
 33 38  1  0  0  0
 34 35  1  0  0  0
 35 36  2  0  0  0
 36 37  1  0  0  0
 36 39  1  0  0  0
 37 38  2  0  0  0
 39 40  1  0  0  0
 39 41  1  0  0  0
 39 42  1  0  0  0
  9 10  1  0  0  0
 28 29  1  0  0  0
M  END
> <minimizedAffinity>
-10.64336

$$$$
6DIF_TPV_B_201


 44 47  0  0  0  0  0  0  0  0999 V2000
   11.2011   18.7951   63.5732 C   0  0  0  0  0  0  0  0  0  0  0  0
   12.8547   22.0929   63.1369 O   0  0  0  0  0  0  0  0  0  0  0  0
   11.9523   21.0954   63.1341 C   0  0  0  0  0  0  0  0  0  0  0  0
   12.2261   19.8016   63.6338 C   0  0  0  0  0  0  0  0  0  0  0  0
   13.5425   19.6303   64.0532 C   0  0  0  0  0  0  0  0  0  0  0  0
   14.5588   20.5965   63.9031 C   0  0  0  0  0  0  0  0  0  0  0  0
   14.0627   22.0335   63.8894 C   0  0  0  0  0  0  0  0  0  0  0  0
   10.8523   21.4387   62.6246 O   0  0  0  0  0  0  0  0  0  0  0  0
   13.9198   18.4127   64.5599 O   0  0  0  0  0  0  0  0  0  0  0  0
   13.2819   17.7368   64.6789 H   0  0  0  0  0  0  0  0  0  0  0  0
   13.7933   22.3654   65.3760 C   0  0  0  0  0  0  0  0  0  0  0  0
   14.9334   23.0207   66.1364 C   0  0  0  0  0  0  0  0  0  0  0  0
   14.5187   24.4781   66.4868 C   0  0  0  0  0  0  0  0  0  0  0  0
   15.0249   23.0360   63.2674 C   0  0  0  0  0  0  0  0  0  0  0  0
   16.3364   22.4930   62.7333 C   0  0  0  0  0  0  0  0  0  0  0  0
   16.2708   22.1413   61.3797 C   0  0  0  0  0  0  0  0  0  0  0  0
   17.4360   21.7833   60.7094 C   0  0  0  0  0  0  0  0  0  0  0  0
   17.4166   21.3967   59.3916 C   0  0  0  0  0  0  0  0  0  0  0  0
   16.1930   21.3784   58.7133 C   0  0  0  0  0  0  0  0  0  0  0  0
   15.0132   21.7512   59.3575 C   0  0  0  0  0  0  0  0  0  0  0  0
   15.0458   22.1323   60.6934 C   0  0  0  0  0  0  0  0  0  0  0  0
   10.2516   18.7784   64.5908 C   0  0  0  0  0  0  0  0  0  0  0  0
   10.5765   19.1025   65.8996 C   0  0  0  0  0  0  0  0  0  0  0  0
    9.6191   19.0919   66.9370 C   0  0  0  0  0  0  0  0  0  0  0  0
    8.2957   18.7472   66.7150 C   0  0  0  0  0  0  0  0  0  0  0  0
    7.9183   18.4156   65.4038 C   0  0  0  0  0  0  0  0  0  0  0  0
    8.8799   18.4478   64.4148 C   0  0  0  0  0  0  0  0  0  0  0  0
    6.6083   18.0253   65.1656 N   0  0  0  0  0  0  0  0  0  0  0  0
    5.8837   18.6892   65.1066 H   0  0  0  0  0  0  0  0  0  0  0  0
    6.3097   16.4514   64.9885 S   0  0  0  0  0  0  0  0  0  0  0  0
    7.0921   15.7418   66.0632 O   0  0  0  0  0  0  0  0  0  0  0  0
    4.7995   16.2188   65.0357 O   0  0  0  0  0  0  0  0  0  0  0  0
    6.9465   15.9942   63.3801 C   0  0  0  0  0  0  0  0  0  0  0  0
    6.2341   16.2443   62.2654 N   0  0  0  0  0  0  0  0  0  0  0  0
    6.8172   16.0987   61.0077 C   0  0  0  0  0  0  0  0  0  0  0  0
    8.1509   15.6655   60.8873 C   0  0  0  0  0  0  0  0  0  0  0  0
    8.8283   15.3653   62.0608 C   0  0  0  0  0  0  0  0  0  0  0  0
    8.2376   15.5133   63.3197 C   0  0  0  0  0  0  0  0  0  0  0  0
    8.7740   15.5258   59.6661 C   0  0  0  0  0  0  0  0  0  0  0  0
    9.0921   16.6818   59.0680 F   0  0  0  0  0  0  0  0  0  0  0  0
    8.2556   14.7671   58.7301 F   0  0  0  0  0  0  0  0  0  0  0  0
    9.9958   14.9557   59.8420 F   0  0  0  0  0  0  0  0  0  0  0  0
   10.5164   18.6647   62.2280 C   0  0  0  0  0  0  0  0  0  0  0  0
   11.2752   17.8755   61.1693 C   0  0  0  0  0  0  0  0  0  0  0  0
  2  3  1  0  0  0
  2  7  1  0  0  0
  3  4  1  0  0  0
  3  8  2  0  0  0
  4  5  2  0  0  0
  4  1  1  0  0  0
  5  6  1  0  0  0
  5  9  1  0  0  0
  6  7  1  0  0  0
  7 11  1  0  0  0
  7 14  1  0  0  0
 11 12  1  0  0  0
 12 13  1  0  0  0
 14 15  1  0  0  0
 15 16  1  0  0  0
 16 17  2  0  0  0
 16 21  1  0  0  0
 17 18  1  0  0  0
 18 19  2  0  0  0
 19 20  1  0  0  0
 20 21  2  0  0  0
  1 43  1  0  0  0
  1 22  1  0  0  0
 43 44  1  0  0  0
 22 23  2  0  0  0
 22 27  1  0  0  0
 23 24  1  0  0  0
 24 25  2  0  0  0
 25 26  1  0  0  0
 26 28  1  0  0  0
 26 27  2  0  0  0
 28 30  1  0  0  0
 30 31  2  0  0  0
 30 32  2  0  0  0
 30 33  1  0  0  0
 33 34  2  0  0  0
 33 38  1  0  0  0
 34 35  1  0  0  0
 35 36  2  0  0  0
 36 37  1  0  0  0
 36 39  1  0  0  0
 37 38  2  0  0  0
 39 40  1  0  0  0
 39 41  1  0  0  0
 39 42  1  0  0  0
  9 10  1  0  0  0
 28 29  1  0  0  0
M  END
> <minimizedAffinity>
-10.45034

$$$$
6DIF_TPV_B_201


 44 47  0  0  0  0  0  0  0  0999 V2000
   11.1728   18.5674   63.4591 C   0  0  0  0  0  0  0  0  0  0  0  0
   14.2999   20.5529   63.7407 O   0  0  0  0  0  0  0  0  0  0  0  0
   13.3958   19.5593   63.8094 C   0  0  0  0  0  0  0  0  0  0  0  0
   12.0728   19.6809   63.3265 C   0  0  0  0  0  0  0  0  0  0  0  0
   11.7658   20.9518   62.8482 C   0  0  0  0  0  0  0  0  0  0  0  0
   12.6302   22.0633   62.9274 C   0  0  0  0  0  0  0  0  0  0  0  0
   14.1089   21.7102   62.9324 C   0  0  0  0  0  0  0  0  0  0  0  0
   13.8544   18.5248   64.3634 O   0  0  0  0  0  0  0  0  0  0  0  0
   10.5083   21.1833   62.3516 O   0  0  0  0  0  0  0  0  0  0  0  0
    9.8961   20.4777   62.2787 H   0  0  0  0  0  0  0  0  0  0  0  0
   14.4392   21.4001   61.4534 C   0  0  0  0  0  0  0  0  0  0  0  0
   15.8926   21.0898   61.1393 C   0  0  0  0  0  0  0  0  0  0  0  0
   16.0983   21.1965   59.6014 C   0  0  0  0  0  0  0  0  0  0  0  0
   15.0232   22.7952   63.4846 C   0  0  0  0  0  0  0  0  0  0  0  0
   14.4074   23.7913   64.4483 C   0  0  0  0  0  0  0  0  0  0  0  0
   15.3523   24.3956   65.2864 C   0  0  0  0  0  0  0  0  0  0  0  0
   15.1289   24.4242   66.6591 C   0  0  0  0  0  0  0  0  0  0  0  0
   16.0431   24.9741   67.5241 C   0  0  0  0  0  0  0  0  0  0  0  0
   17.2171   25.5271   67.0009 C   0  0  0  0  0  0  0  0  0  0  0  0
   17.4558   25.5279   65.6266 C   0  0  0  0  0  0  0  0  0  0  0  0
   16.5263   24.9609   64.7632 C   0  0  0  0  0  0  0  0  0  0  0  0
   10.2486   18.6045   64.4992 C   0  0  0  0  0  0  0  0  0  0  0  0
   10.6176   18.9386   65.7937 C   0  0  0  0  0  0  0  0  0  0  0  0
    9.6862   18.9823   66.8537 C   0  0  0  0  0  0  0  0  0  0  0  0
    8.3457   18.6845   66.6697 C   0  0  0  0  0  0  0  0  0  0  0  0
    7.9239   18.3449   65.3741 C   0  0  0  0  0  0  0  0  0  0  0  0
    8.8615   18.3234   64.3620 C   0  0  0  0  0  0  0  0  0  0  0  0
    6.5947   18.0007   65.1744 N   0  0  0  0  0  0  0  0  0  0  0  0
    5.8929   18.6898   65.1320 H   0  0  0  0  0  0  0  0  0  0  0  0
    6.2354   16.4378   65.0139 S   0  0  0  0  0  0  0  0  0  0  0  0
    7.0008   15.7083   66.0876 O   0  0  0  0  0  0  0  0  0  0  0  0
    4.7180   16.2627   65.0773 O   0  0  0  0  0  0  0  0  0  0  0  0
    6.8390   15.9433   63.4038 C   0  0  0  0  0  0  0  0  0  0  0  0
    6.1064   16.1728   62.2979 N   0  0  0  0  0  0  0  0  0  0  0  0
    6.6645   15.9976   61.0327 C   0  0  0  0  0  0  0  0  0  0  0  0
    7.9936   15.5556   60.8960 C   0  0  0  0  0  0  0  0  0  0  0  0
    8.6923   15.2774   62.0625 C   0  0  0  0  0  0  0  0  0  0  0  0
    8.1266   15.4550   63.3290 C   0  0  0  0  0  0  0  0  0  0  0  0
    8.5924   15.3869   59.6664 C   0  0  0  0  0  0  0  0  0  0  0  0
    7.7851   14.8954   58.7168 F   0  0  0  0  0  0  0  0  0  0  0  0
    9.7222   14.7300   59.5536 F   0  0  0  0  0  0  0  0  0  0  0  0
    8.9236   16.6011   59.1518 F   0  0  0  0  0  0  0  0  0  0  0  0
   10.4864   18.1480   62.1751 C   0  0  0  0  0  0  0  0  0  0  0  0
   11.3912   17.5674   61.0964 C   0  0  0  0  0  0  0  0  0  0  0  0
  2  3  1  0  0  0
  2  7  1  0  0  0
  3  4  1  0  0  0
  3  8  2  0  0  0
  4  5  2  0  0  0
  4  1  1  0  0  0
  5  6  1  0  0  0
  5  9  1  0  0  0
  6  7  1  0  0  0
  7 11  1  0  0  0
  7 14  1  0  0  0
 11 12  1  0  0  0
 12 13  1  0  0  0
 14 15  1  0  0  0
 15 16  1  0  0  0
 16 17  2  0  0  0
 16 21  1  0  0  0
 17 18  1  0  0  0
 18 19  2  0  0  0
 19 20  1  0  0  0
 20 21  2  0  0  0
  1 43  1  0  0  0
  1 22  1  0  0  0
 43 44  1  0  0  0
 22 23  2  0  0  0
 22 27  1  0  0  0
 23 24  1  0  0  0
 24 25  2  0  0  0
 25 26  1  0  0  0
 26 28  1  0  0  0
 26 27  2  0  0  0
 28 30  1  0  0  0
 30 31  2  0  0  0
 30 32  2  0  0  0
 30 33  1  0  0  0
 33 34  2  0  0  0
 33 38  1  0  0  0
 34 35  1  0  0  0
 35 36  2  0  0  0
 36 37  1  0  0  0
 36 39  1  0  0  0
 37 38  2  0  0  0
 39 40  1  0  0  0
 39 41  1  0  0  0
 39 42  1  0  0  0
  9 10  1  0  0  0
 28 29  1  0  0  0
M  END
> <minimizedAffinity>
-10.21146

$$$$
6DIF_TPV_B_201


 44 47  0  0  0  0  0  0  0  0999 V2000
   14.3964   21.6419   63.2276 C   0  0  0  0  0  0  0  0  0  0  0  0
   10.9658   20.2216   63.1070 O   0  0  0  0  0  0  0  0  0  0  0  0
   12.0214   21.0474   62.9932 C   0  0  0  0  0  0  0  0  0  0  0  0
   13.3340   20.6838   63.3720 C   0  0  0  0  0  0  0  0  0  0  0  0
   13.4199   19.4210   63.9517 C   0  0  0  0  0  0  0  0  0  0  0  0
   12.3098   18.6042   64.2507 C   0  0  0  0  0  0  0  0  0  0  0  0
   11.1062   18.8248   63.3485 C   0  0  0  0  0  0  0  0  0  0  0  0
   11.7057   22.1762   62.5309 O   0  0  0  0  0  0  0  0  0  0  0  0
   14.6483   18.9631   64.3555 O   0  0  0  0  0  0  0  0  0  0  0  0
   15.4174   19.4690   64.1808 H   0  0  0  0  0  0  0  0  0  0  0  0
   11.4603   18.0803   62.0397 C   0  0  0  0  0  0  0  0  0  0  0  0
   10.3227   17.3394   61.3582 C   0  0  0  0  0  0  0  0  0  0  0  0
   10.8671   16.6945   60.0519 C   0  0  0  0  0  0  0  0  0  0  0  0
    9.7819   18.3359   63.9187 C   0  0  0  0  0  0  0  0  0  0  0  0
    9.0372   19.2816   64.8414 C   0  0  0  0  0  0  0  0  0  0  0  0
    8.2671   18.6140   65.8013 C   0  0  0  0  0  0  0  0  0  0  0  0
    8.8969   17.7998   66.7370 C   0  0  0  0  0  0  0  0  0  0  0  0
    8.1876   17.1530   67.7193 C   0  0  0  0  0  0  0  0  0  0  0  0
    6.7983   17.3133   67.7631 C   0  0  0  0  0  0  0  0  0  0  0  0
    6.1409   18.1090   66.8247 C   0  0  0  0  0  0  0  0  0  0  0  0
    6.8716   18.7644   65.8411 C   0  0  0  0  0  0  0  0  0  0  0  0
   14.9158   21.8426   61.9520 C   0  0  0  0  0  0  0  0  0  0  0  0
   14.7008   20.9367   60.9239 C   0  0  0  0  0  0  0  0  0  0  0  0
   15.2206   21.1344   59.6264 C   0  0  0  0  0  0  0  0  0  0  0  0
   15.9870   22.2414   59.3002 C   0  0  0  0  0  0  0  0  0  0  0  0
   16.2277   23.1891   60.3080 C   0  0  0  0  0  0  0  0  0  0  0  0
   15.6940   22.9665   61.5607 C   0  0  0  0  0  0  0  0  0  0  0  0
   17.0286   24.2839   60.0162 N   0  0  0  0  0  0  0  0  0  0  0  0
   16.7089   25.0036   59.4254 H   0  0  0  0  0  0  0  0  0  0  0  0
   18.4986   24.3409   60.6746 S   0  0  0  0  0  0  0  0  0  0  0  0
   19.0728   22.9520   60.5652 O   0  0  0  0  0  0  0  0  0  0  0  0
   19.3175   25.4293   59.9805 O   0  0  0  0  0  0  0  0  0  0  0  0
   18.2644   24.7606   62.3981 C   0  0  0  0  0  0  0  0  0  0  0  0
   18.1068   26.0434   62.7750 N   0  0  0  0  0  0  0  0  0  0  0  0
   17.7017   26.3532   64.0723 C   0  0  0  0  0  0  0  0  0  0  0  0
   17.4753   25.3292   65.0109 C   0  0  0  0  0  0  0  0  0  0  0  0
   17.7048   24.0254   64.5944 C   0  0  0  0  0  0  0  0  0  0  0  0
   18.1115   23.7211   63.2914 C   0  0  0  0  0  0  0  0  0  0  0  0
   17.0558   25.5875   66.2978 C   0  0  0  0  0  0  0  0  0  0  0  0
   17.3828   26.8031   66.7566 F   0  0  0  0  0  0  0  0  0  0  0  0
   17.3232   24.7512   67.2723 F   0  0  0  0  0  0  0  0  0  0  0  0
   15.6972   25.6309   66.3329 F   0  0  0  0  0  0  0  0  0  0  0  0
   14.1437   22.9775   63.8967 C   0  0  0  0  0  0  0  0  0  0  0  0
   14.2193   22.9841   65.4178 C   0  0  0  0  0  0  0  0  0  0  0  0
  2  3  1  0  0  0
  2  7  1  0  0  0
  3  4  1  0  0  0
  3  8  2  0  0  0
  4  5  2  0  0  0
  4  1  1  0  0  0
  5  6  1  0  0  0
  5  9  1  0  0  0
  6  7  1  0  0  0
  7 11  1  0  0  0
  7 14  1  0  0  0
 11 12  1  0  0  0
 12 13  1  0  0  0
 14 15  1  0  0  0
 15 16  1  0  0  0
 16 17  2  0  0  0
 16 21  1  0  0  0
 17 18  1  0  0  0
 18 19  2  0  0  0
 19 20  1  0  0  0
 20 21  2  0  0  0
  1 43  1  0  0  0
  1 22  1  0  0  0
 43 44  1  0  0  0
 22 23  2  0  0  0
 22 27  1  0  0  0
 23 24  1  0  0  0
 24 25  2  0  0  0
 25 26  1  0  0  0
 26 28  1  0  0  0
 26 27  2  0  0  0
 28 30  1  0  0  0
 30 31  2  0  0  0
 30 32  2  0  0  0
 30 33  1  0  0  0
 33 34  2  0  0  0
 33 38  1  0  0  0
 34 35  1  0  0  0
 35 36  2  0  0  0
 36 37  1  0  0  0
 36 39  1  0  0  0
 37 38  2  0  0  0
 39 40  1  0  0  0
 39 41  1  0  0  0
 39 42  1  0  0  0
  9 10  1  0  0  0
 28 29  1  0  0  0
M  END
> <minimizedAffinity>
-10.14386

$$$$
6DIF_TPV_B_201


 44 47  0  0  0  0  0  0  0  0999 V2000
   16.9410   22.4491   60.3823 C   0  0  0  0  0  0  0  0  0  0  0  0
   13.4232   21.5444   61.1617 O   0  0  0  0  0  0  0  0  0  0  0  0
   14.5581   21.8538   60.5093 C   0  0  0  0  0  0  0  0  0  0  0  0
   15.7837   22.1102   61.1655 C   0  0  0  0  0  0  0  0  0  0  0  0
   15.6892   22.0948   62.5543 C   0  0  0  0  0  0  0  0  0  0  0  0
   14.4819   21.9533   63.2694 C   0  0  0  0  0  0  0  0  0  0  0  0
   13.4053   21.1696   62.5358 C   0  0  0  0  0  0  0  0  0  0  0  0
   14.4003   21.9050   59.2603 O   0  0  0  0  0  0  0  0  0  0  0  0
   16.8201   22.3286   63.2947 O   0  0  0  0  0  0  0  0  0  0  0  0
   17.6475   22.4300   62.8669 H   0  0  0  0  0  0  0  0  0  0  0  0
   13.8223   19.6892   62.7004 C   0  0  0  0  0  0  0  0  0  0  0  0
   12.9070   18.6576   62.0637 C   0  0  0  0  0  0  0  0  0  0  0  0
   12.3566   17.7291   63.1835 C   0  0  0  0  0  0  0  0  0  0  0  0
   11.9885   21.4018   63.0425 C   0  0  0  0  0  0  0  0  0  0  0  0
   11.7952   21.4640   64.5455 C   0  0  0  0  0  0  0  0  0  0  0  0
   11.0767   20.3729   65.0490 C   0  0  0  0  0  0  0  0  0  0  0  0
   11.5297   19.7262   66.1943 C   0  0  0  0  0  0  0  0  0  0  0  0
   10.8398   18.6743   66.7455 C   0  0  0  0  0  0  0  0  0  0  0  0
    9.6619   18.2428   66.1256 C   0  0  0  0  0  0  0  0  0  0  0  0
    9.1968   18.8623   64.9656 C   0  0  0  0  0  0  0  0  0  0  0  0
    9.9001   19.9308   64.4230 C   0  0  0  0  0  0  0  0  0  0  0  0
   17.3635   23.7752   60.3952 C   0  0  0  0  0  0  0  0  0  0  0  0
   16.9753   24.6760   59.4146 C   0  0  0  0  0  0  0  0  0  0  0  0
   17.3961   26.0235   59.4222 C   0  0  0  0  0  0  0  0  0  0  0  0
   18.2318   26.5292   60.4046 C   0  0  0  0  0  0  0  0  0  0  0  0
   18.6477   25.6551   61.4218 C   0  0  0  0  0  0  0  0  0  0  0  0
   18.2069   24.3481   61.3864 C   0  0  0  0  0  0  0  0  0  0  0  0
   19.5194   26.1280   62.3922 N   0  0  0  0  0  0  0  0  0  0  0  0
   20.4860   25.9495   62.3366 H   0  0  0  0  0  0  0  0  0  0  0  0
   18.9004   26.9786   63.6132 S   0  0  0  0  0  0  0  0  0  0  0  0
   20.0573   27.3641   64.4986 O   0  0  0  0  0  0  0  0  0  0  0  0
   18.1034   28.1559   63.0514 O   0  0  0  0  0  0  0  0  0  0  0  0
   17.8089   25.8711   64.4984 C   0  0  0  0  0  0  0  0  0  0  0  0
   18.2758   25.1103   65.5062 N   0  0  0  0  0  0  0  0  0  0  0  0
   17.3941   24.4226   66.3383 C   0  0  0  0  0  0  0  0  0  0  0  0
   16.0057   24.4962   66.1202 C   0  0  0  0  0  0  0  0  0  0  0  0
   15.5732   25.2464   65.0356 C   0  0  0  0  0  0  0  0  0  0  0  0
   16.4630   25.9340   64.2043 C   0  0  0  0  0  0  0  0  0  0  0  0
   15.0964   23.8489   66.9285 C   0  0  0  0  0  0  0  0  0  0  0  0
   15.5034   23.6704   68.1924 F   0  0  0  0  0  0  0  0  0  0  0  0
   14.5600   22.7104   66.5589 F   0  0  0  0  0  0  0  0  0  0  0  0
   13.9982   24.6330   67.0957 F   0  0  0  0  0  0  0  0  0  0  0  0
   18.1292   21.5282   60.5719 C   0  0  0  0  0  0  0  0  0  0  0  0
   19.2550   21.6780   59.5573 C   0  0  0  0  0  0  0  0  0  0  0  0
  2  3  1  0  0  0
  2  7  1  0  0  0
  3  4  1  0  0  0
  3  8  2  0  0  0
  4  5  2  0  0  0
  4  1  1  0  0  0
  5  6  1  0  0  0
  5  9  1  0  0  0
  6  7  1  0  0  0
  7 11  1  0  0  0
  7 14  1  0  0  0
 11 12  1  0  0  0
 12 13  1  0  0  0
 14 15  1  0  0  0
 15 16  1  0  0  0
 16 17  2  0  0  0
 16 21  1  0  0  0
 17 18  1  0  0  0
 18 19  2  0  0  0
 19 20  1  0  0  0
 20 21  2  0  0  0
  1 43  1  0  0  0
  1 22  1  0  0  0
 43 44  1  0  0  0
 22 23  2  0  0  0
 22 27  1  0  0  0
 23 24  1  0  0  0
 24 25  2  0  0  0
 25 26  1  0  0  0
 26 28  1  0  0  0
 26 27  2  0  0  0
 28 30  1  0  0  0
 30 31  2  0  0  0
 30 32  2  0  0  0
 30 33  1  0  0  0
 33 34  2  0  0  0
 33 38  1  0  0  0
 34 35  1  0  0  0
 35 36  2  0  0  0
 36 37  1  0  0  0
 36 39  1  0  0  0
 37 38  2  0  0  0
 39 40  1  0  0  0
 39 41  1  0  0  0
 39 42  1  0  0  0
  9 10  1  0  0  0
 28 29  1  0  0  0
M  END
> <minimizedAffinity>
-9.44259

$$$$
6DIF_TPV_B_201


 44 47  0  0  0  0  0  0  0  0999 V2000
    9.6139   17.5723   65.5180 C   0  0  0  0  0  0  0  0  0  0  0  0
    6.1158   16.3873   65.9185 O   0  0  0  0  0  0  0  0  0  0  0  0
    7.4560   16.4292   65.8110 C   0  0  0  0  0  0  0  0  0  0  0  0
    8.1823   17.6299   65.6393 C   0  0  0  0  0  0  0  0  0  0  0  0
    7.3767   18.7577   65.5081 C   0  0  0  0  0  0  0  0  0  0  0  0
    5.9686   18.7272   65.4350 C   0  0  0  0  0  0  0  0  0  0  0  0
    5.3276   17.5503   66.1529 C   0  0  0  0  0  0  0  0  0  0  0  0
    7.9822   15.2856   65.8633 O   0  0  0  0  0  0  0  0  0  0  0  0
    7.9761   19.9800   65.3393 O   0  0  0  0  0  0  0  0  0  0  0  0
    8.9094   20.0536   65.3789 H   0  0  0  0  0  0  0  0  0  0  0  0
    5.3666   17.9402   67.6493 C   0  0  0  0  0  0  0  0  0  0  0  0
    4.0698   17.7725   68.4224 C   0  0  0  0  0  0  0  0  0  0  0  0
    3.3914   19.1656   68.5551 C   0  0  0  0  0  0  0  0  0  0  0  0
    3.9091   17.2247   65.7060 C   0  0  0  0  0  0  0  0  0  0  0  0
    3.3842   17.9596   64.4875 C   0  0  0  0  0  0  0  0  0  0  0  0
    3.1493   17.1120   63.3981 C   0  0  0  0  0  0  0  0  0  0  0  0
    1.8847   17.0771   62.8197 C   0  0  0  0  0  0  0  0  0  0  0  0
    1.6158   16.2885   61.7278 C   0  0  0  0  0  0  0  0  0  0  0  0
    2.6415   15.4961   61.2007 C   0  0  0  0  0  0  0  0  0  0  0  0
    3.9131   15.4988   61.7742 C   0  0  0  0  0  0  0  0  0  0  0  0
    4.1738   16.3076   62.8736 C   0  0  0  0  0  0  0  0  0  0  0  0
   10.1607   17.7227   64.2470 C   0  0  0  0  0  0  0  0  0  0  0  0
    9.5721   17.1567   63.1259 C   0  0  0  0  0  0  0  0  0  0  0  0
   10.1178   17.3074   61.8327 C   0  0  0  0  0  0  0  0  0  0  0  0
   11.2820   18.0224   61.6028 C   0  0  0  0  0  0  0  0  0  0  0  0
   11.9117   18.6180   62.7076 C   0  0  0  0  0  0  0  0  0  0  0  0
   11.3423   18.4575   63.9542 C   0  0  0  0  0  0  0  0  0  0  0  0
   13.1020   19.3024   62.5077 N   0  0  0  0  0  0  0  0  0  0  0  0
   13.9669   18.8325   62.5264 H   0  0  0  0  0  0  0  0  0  0  0  0
   13.0247   20.8905   62.2440 S   0  0  0  0  0  0  0  0  0  0  0  0
   13.7672   21.1495   60.9587 O   0  0  0  0  0  0  0  0  0  0  0  0
   11.5596   21.3272   62.2369 O   0  0  0  0  0  0  0  0  0  0  0  0
   13.8864   21.6710   63.6041 C   0  0  0  0  0  0  0  0  0  0  0  0
   14.6915   22.7281   63.3879 N   0  0  0  0  0  0  0  0  0  0  0  0
   15.1810   23.4732   64.4594 C   0  0  0  0  0  0  0  0  0  0  0  0
   14.8587   23.1149   65.7817 C   0  0  0  0  0  0  0  0  0  0  0  0
   14.0724   21.9850   65.9587 C   0  0  0  0  0  0  0  0  0  0  0  0
   13.5845   21.2415   64.8793 C   0  0  0  0  0  0  0  0  0  0  0  0
   15.3040   23.8331   66.8703 C   0  0  0  0  0  0  0  0  0  0  0  0
   16.5859   24.2161   66.7979 F   0  0  0  0  0  0  0  0  0  0  0  0
   15.1318   23.3811   68.0895 F   0  0  0  0  0  0  0  0  0  0  0  0
   14.6570   25.0278   66.9220 F   0  0  0  0  0  0  0  0  0  0  0  0
   10.3713   18.4319   66.5094 C   0  0  0  0  0  0  0  0  0  0  0  0
    9.6414   18.7497   67.8078 C   0  0  0  0  0  0  0  0  0  0  0  0
  2  3  1  0  0  0
  2  7  1  0  0  0
  3  4  1  0  0  0
  3  8  2  0  0  0
  4  5  2  0  0  0
  4  1  1  0  0  0
  5  6  1  0  0  0
  5  9  1  0  0  0
  6  7  1  0  0  0
  7 11  1  0  0  0
  7 14  1  0  0  0
 11 12  1  0  0  0
 12 13  1  0  0  0
 14 15  1  0  0  0
 15 16  1  0  0  0
 16 17  2  0  0  0
 16 21  1  0  0  0
 17 18  1  0  0  0
 18 19  2  0  0  0
 19 20  1  0  0  0
 20 21  2  0  0  0
  1 43  1  0  0  0
  1 22  1  0  0  0
 43 44  1  0  0  0
 22 23  2  0  0  0
 22 27  1  0  0  0
 23 24  1  0  0  0
 24 25  2  0  0  0
 25 26  1  0  0  0
 26 28  1  0  0  0
 26 27  2  0  0  0
 28 30  1  0  0  0
 30 31  2  0  0  0
 30 32  2  0  0  0
 30 33  1  0  0  0
 33 34  2  0  0  0
 33 38  1  0  0  0
 34 35  1  0  0  0
 35 36  2  0  0  0
 36 37  1  0  0  0
 36 39  1  0  0  0
 37 38  2  0  0  0
 39 40  1  0  0  0
 39 41  1  0  0  0
 39 42  1  0  0  0
  9 10  1  0  0  0
 28 29  1  0  0  0
M  END
> <minimizedAffinity>
-9.43270

$$$$
