6DIF_TPV_B_201
  RCSB PDB10131806213D
Coordinates from PDB:6DIF:B:201 Model:1 without hydrogens
 42 45  0  0  0  0            999 V2000
   13.2680   21.8760   62.6890   O 0  0  0  0  0  0  0  0  0  0  0  0
   12.1410   21.1770   62.9140   C 0  0  0  0  0  0  0  0  0  0  0  0
   12.1300   19.8970   63.5140   C 0  0  0  0  0  0  0  0  0  0  0  0
   13.4000   19.3900   63.7750   C 0  0  0  0  0  0  0  0  0  0  0  0
   14.6030   20.0160   63.3880   C 0  0  0  0  0  0  0  0  0  0  0  0
   14.5170   21.5300   63.2800   C 0  0  0  0  0  0  0  0  0  0  0  0
   11.1090   21.7810   62.5170   O 0  0  0  0  0  0  0  0  0  0  0  0
   13.5090   18.1540   64.3600   O 0  0  0  0  0  0  0  0  0  0  0  0
   14.5820   22.0280   64.7430   C 0  0  0  0  0  0  0  0  0  0  0  0
   14.5990   23.5340   64.9410   C 0  0  0  0  0  0  0  0  0  0  0  0
   14.6490   23.8300   66.4670   C 0  0  0  0  0  0  0  0  0  0  0  0
   15.6050   22.1730   62.4310   C 0  0  0  0  0  0  0  0  0  0  0  0
   15.6510   21.7910   60.9640   C 0  0  0  0  0  0  0  0  0  0  0  0
   16.7190   22.3830   60.2790   C 0  0  0  0  0  0  0  0  0  0  0  0
   16.4840   23.4950   59.4770   C 0  0  0  0  0  0  0  0  0  0  0  0
   17.5050   24.1310   58.8140   C 0  0  0  0  0  0  0  0  0  0  0  0
   18.8060   23.6330   58.9450   C 0  0  0  0  0  0  0  0  0  0  0  0
   19.0650   22.5080   59.7280   C 0  0  0  0  0  0  0  0  0  0  0  0
   18.0240   21.8790   60.4000   C 0  0  0  0  0  0  0  0  0  0  0  0
   10.8750   19.2200   63.6990   C 0  0  0  0  0  0  0  0  0  0  0  0
   10.7070   18.5490   65.0470   C 0  0  0  0  0  0  0  0  0  0  0  0
   10.9000   19.4440   66.2640   C 0  0  0  0  0  0  0  0  0  0  0  0
   10.4480   18.3640   62.6880   C 0  0  0  0  0  0  0  0  0  0  0  0
   11.3340   17.8100   61.7760   C 0  0  0  0  0  0  0  0  0  0  0  0
   10.9100   16.9380   60.7500   C 0  0  0  0  0  0  0  0  0  0  0  0
    9.5800   16.5880   60.5830   C 0  0  0  0  0  0  0  0  0  0  0  0
    8.6460   17.1210   61.4860   C 0  0  0  0  0  0  0  0  0  0  0  0
    7.3030   16.8190   61.3120   N 0  0  0  0  0  0  0  0  0  0  0  0
    9.1000   17.9610   62.4820   C 0  0  0  0  0  0  0  0  0  0  0  0
    6.7390   15.4690   61.9880   S 0  0  0  0  0  0  0  0  0  0  0  0
    5.2990   15.3440   61.5620   O 0  0  0  0  0  0  0  0  0  0  0  0
    7.6310   14.2950   61.5840   O 0  0  0  0  0  0  0  0  0  0  0  0
    6.8230   15.7170   63.7580   C 0  0  0  0  0  0  0  0  0  0  0  0
    7.8680   15.2490   64.4660   N 0  0  0  0  0  0  0  0  0  0  0  0
    8.0490   15.6320   65.7940   C 0  0  0  0  0  0  0  0  0  0  0  0
    7.1280   16.4940   66.4180   C 0  0  0  0  0  0  0  0  0  0  0  0
    6.0360   16.9060   65.6670   C 0  0  0  0  0  0  0  0  0  0  0  0
    5.8600   16.5180   64.3350   C 0  0  0  0  0  0  0  0  0  0  0  0
    7.2770   16.9140   67.7220   C 0  0  0  0  0  0  0  0  0  0  0  0
    7.8900   16.0330   68.5240   F 0  0  0  0  0  0  0  0  0  0  0  0
    6.2520   17.3680   68.4030   F 0  0  0  0  0  0  0  0  0  0  0  0
    8.1300   17.9720   67.7640   F 0  0  0  0  0  0  0  0  0  0  0  0
  1  2  1  0  0  0  0
  1  6  1  0  0  0  0
  2  3  1  0  0  0  0
  2  7  2  0  0  0  0
  3  4  2  0  0  0  0
  3 20  1  0  0  0  0
  4  5  1  0  0  0  0
  4  8  1  0  0  0  0
  5  6  1  0  0  0  0
  6  9  1  0  0  0  0
  6 12  1  0  0  0  0
  9 10  1  0  0  0  0
 10 11  1  0  0  0  0
 12 13  1  0  0  0  0
 13 14  1  0  0  0  0
 14 15  2  0  0  0  0
 14 19  1  0  0  0  0
 15 16  1  0  0  0  0
 16 17  2  0  0  0  0
 17 18  1  0  0  0  0
 18 19  2  0  0  0  0
 20 21  1  0  0  0  0
 20 23  1  0  0  0  0
 21 22  1  0  0  0  0
 23 24  2  0  0  0  0
 23 29  1  0  0  0  0
 24 25  1  0  0  0  0
 25 26  2  0  0  0  0
 26 27  1  0  0  0  0
 27 28  1  0  0  0  0
 27 29  2  0  0  0  0
 28 30  1  0  0  0  0
 30 31  2  0  0  0  0
 30 32  2  0  0  0  0
 30 33  1  0  0  0  0
 33 34  2  0  0  0  0
 33 38  1  0  0  0  0
 34 35  1  0  0  0  0
 35 36  2  0  0  0  0
 36 37  1  0  0  0  0
 36 39  1  0  0  0  0
 37 38  2  0  0  0  0
 39 40  1  0  0  0  0
 39 41  1  0  0  0  0
 39 42  1  0  0  0  0
A    1
O1
A    2
C2
A    3
C3
A    4
C4
A    5
C5
A    6
C6
A    7
O7
A    8
O8
A    9
C9
A   10
C10
A   11
C11
A   12
C12
A   13
C13
A   14
C14
A   15
C15
A   16
C16
A   17
C17
A   18
C18
A   19
C19
A   20
C20
A   21
C21
A   22
C22
A   23
C23
A   24
C24
A   25
C25
A   26
C26
A   27
C27
A   28
N28
A   29
C29
A   30
S30
A   31
O31
A   32
O32
A   33
C33
A   34
N34
A   35
C35
A   36
C36
A   37
C37
A   38
C38
A   39
C39
A   40
F40
A   41
F41
A   42
F42
M  END
>  <InstanceId>
6DIF_TPV_B_201

>  <ChemCompId>
TPV

>  <PdbId>
6DIF

>  <ChainId>
B

>  <ResidueNumber>
201

>  <InsertionCode>


>  <Model>
1

>  <AltIds>


>  <MissingHeavyAtoms>
0

>  <ObservedFormula>
C31 N2 O5 S F3

>  <Name>
N-(3-{(1R)-1-[(6R)-4-HYDROXY-2-OXO-6-PHENETHYL-6-PROPYL-5,6-DIHYDRO-2H-PYRAN-3-YL]PROPYL}PHENYL)-5-(TRIFLUOROMETHYL)-2-PYRIDINESULFONAMIDE

>  <SystematicName>
N-[3-[(1R)-1-[(6R)-4-hydroxy-2-oxo-6-phenethyl-6-propyl-5H-pyran-3-yl]propyl]phenyl]-5-(trifluoromethyl)pyridine-2-sulfonamide

>  <Synonyms>
TIPRANAVIR

>  <Type>
NON-POLYMER

>  <Formula>
C31 H33 F3 N2 O5 S

>  <MolecularWeight>
602.664

>  <ModifiedDate>
2011-06-04

>  <Parent>


>  <OneLetterCode>


>  <SubcomponentList>


>  <AmbiguousFlag>
N

>  <InChI>
InChI=1S/C31H33F3N2O5S/c1-3-16-30(17-15-21-9-6-5-7-10-21)19-26(37)28(29(38)41-30)25(4-2)22-11-8-12-24(18-22)36-42(39,40)27-14-13-23(20-35-27)31(32,33)34/h5-14,18,20,25,36-37H,3-4,15-17,19H2,1-2H3/t25-,30-/m1/s1

>  <InChIKey>
SUJUHGSWHZTSEU-FYBSXPHGSA-N

>  <SMILES>
CCC[C@]1(CC(=C(C(=O)O1)[C@H](CC)c2cccc(c2)NS(=O)(=O)c3ccc(cn3)C(F)(F)F)O)CCc4ccccc4

$$$$
