3RWP_ABQ_A_360


 37 41  0  0  0  0  0  0  0  0999 V2000
   38.3391   23.5090   29.9267 C   0  0  0  0  0  0  0  0  0  0  0  0
   36.0896   23.2000   29.6526 C   0  0  0  0  0  0  0  0  0  0  0  0
   38.1505   24.8524   29.7204 C   0  0  0  0  0  0  0  0  0  0  0  0
   35.9057   24.5499   29.4229 C   0  0  0  0  0  0  0  0  0  0  0  0
   37.2915   22.6274   29.8900 N   0  0  0  0  0  0  0  0  0  0  0  0
   36.9457   25.4121   29.4593 N   0  0  0  0  0  0  0  0  0  0  0  0
   39.3037   25.8029   29.7757 C   0  0  0  0  0  0  0  0  0  0  0  0
   39.6966   26.1126   30.9238 O   0  0  0  0  0  0  0  0  0  0  0  0
   40.4257   25.2937   27.5261 C   0  0  0  0  0  0  0  0  0  0  0  0
   42.3220   29.2612   27.2098 C   0  0  0  0  0  0  0  0  0  0  0  0
   40.8074   27.3850   28.3213 C   0  0  0  0  0  0  0  0  0  0  0  0
   40.1040   26.1367   28.5912 C   0  0  0  0  0  0  0  0  0  0  0  0
   41.5070   27.2275   27.1271 C   0  0  0  0  0  0  0  0  0  0  0  0
   40.9244   28.6378   28.9228 C   0  0  0  0  0  0  0  0  0  0  0  0
   42.2956   28.1322   26.5287 N   0  0  0  0  0  0  0  0  0  0  0  0
   41.7162   29.5659   28.3511 N   0  0  0  0  0  0  0  0  0  0  0  0
   41.2629   25.9438   26.6471 N   0  0  0  0  0  0  0  0  0  0  0  0
   40.2960   29.0051   30.1055 N   0  0  0  0  0  0  0  0  0  0  0  0
   39.7055   28.3674   30.5679 H   0  0  0  0  0  0  0  0  0  0  0  0
   40.4411   29.9033   30.4816 H   0  0  0  0  0  0  0  0  0  0  0  0
   40.7731   24.9066   24.4556 C   0  0  0  0  0  0  0  0  0  0  0  0
   42.7484   24.2798   25.9164 C   0  0  0  0  0  0  0  0  0  0  0  0
   41.8732   25.4206   25.4120 C   0  0  0  0  0  0  0  0  0  0  0  0
   34.6624   25.1363   29.0956 N   0  0  0  0  0  0  0  0  0  0  0  0
   34.4565   25.3741   28.1627 H   0  0  0  0  0  0  0  0  0  0  0  0
   31.4273   25.5771   29.1818 C   0  0  0  0  0  0  0  0  0  0  0  0
   32.8822   24.0862   30.2592 C   0  0  0  0  0  0  0  0  0  0  0  0
   32.5615   26.4032   29.7782 C   0  0  0  0  0  0  0  0  0  0  0  0
   33.6806   25.3879   30.1562 C   0  0  0  0  0  0  0  0  0  0  0  0
   31.5185   24.2681   29.8004 O   0  0  0  0  0  0  0  0  0  0  0  0
   31.9966   28.1214   28.1580 C   0  0  0  0  0  0  0  0  0  0  0  0
   34.3590   27.8807   28.6853 C   0  0  0  0  0  0  0  0  0  0  0  0
   32.3122   29.1579   27.3097 C   0  0  0  0  0  0  0  0  0  0  0  0
   34.6758   28.9250   27.8077 C   0  0  0  0  0  0  0  0  0  0  0  0
   33.0199   27.4833   28.8505 C   0  0  0  0  0  0  0  0  0  0  0  0
   33.6360   29.5351   27.1448 C   0  0  0  0  0  0  0  0  0  0  0  0
   33.8679   30.5303   26.2643 F   0  0  0  0  0  0  0  0  0  0  0  0
 35 31  2  0  0  0
 31 33  1  0  0  0
 35 32  1  0  0  0
 32 34  2  0  0  0
 33 36  2  0  0  0
 34 36  1  0  0  0
  5  1  2  0  0  0
  1  3  1  0  0  0
  2  4  2  0  0  0
  2  5  1  0  0  0
 12  9  2  0  0  0
  9 17  1  0  0  0
 16 10  2  0  0  0
 10 15  1  0  0  0
 12 11  1  0  0  0
 14 11  2  0  0  0
 11 13  1  0  0  0
  7 12  1  0  0  0
 28 35  1  0  0  0
 36 37  1  0  0  0
  6  3  2  0  0  0
  3  7  1  0  0  0
 13 17  1  0  0  0
 13 15  2  0  0  0
 24  4  1  0  0  0
  4  6  1  0  0  0
 18 14  1  0  0  0
 14 16  1  0  0  0
  8  7  2  0  0  0
 30 26  1  0  0  0
 26 28  1  0  0  0
 27 30  1  0  0  0
 27 29  1  0  0  0
 29 28  1  0  0  0
 29 24  1  0  0  0
 23 21  1  0  0  0
 22 23  1  0  0  0
 17 23  1  0  0  0
 18 19  1  0  0  0
 18 20  1  0  0  0
 24 25  1  0  0  0
M  END
> <minimizedAffinity>
-10.05166

$$$$
3RWP_ABQ_A_360


 37 41  0  0  0  0  0  0  0  0999 V2000
   38.0152   23.7815   28.1292 C   0  0  0  0  0  0  0  0  0  0  0  0
   36.0145   23.5309   29.2087 C   0  0  0  0  0  0  0  0  0  0  0  0
   37.4490   24.7752   27.3712 C   0  0  0  0  0  0  0  0  0  0  0  0
   35.4406   24.5163   28.4287 C   0  0  0  0  0  0  0  0  0  0  0  0
   37.2947   23.1136   29.0837 N   0  0  0  0  0  0  0  0  0  0  0  0
   36.1588   25.1687   27.4880 N   0  0  0  0  0  0  0  0  0  0  0  0
   38.2533   25.5026   26.3414 C   0  0  0  0  0  0  0  0  0  0  0  0
   37.5986   26.0183   25.4067 O   0  0  0  0  0  0  0  0  0  0  0  0
   40.7299   24.9452   26.7090 C   0  0  0  0  0  0  0  0  0  0  0  0
   41.9510   29.1631   27.1045 C   0  0  0  0  0  0  0  0  0  0  0  0
   40.2507   27.1638   26.7023 C   0  0  0  0  0  0  0  0  0  0  0  0
   39.6686   25.8366   26.5421 C   0  0  0  0  0  0  0  0  0  0  0  0
   41.6108   27.0022   26.9563 C   0  0  0  0  0  0  0  0  0  0  0  0
   39.8057   28.4842   26.6424 C   0  0  0  0  0  0  0  0  0  0  0  0
   42.5103   27.9712   27.1803 N   0  0  0  0  0  0  0  0  0  0  0  0
   40.6832   29.4805   26.8716 N   0  0  0  0  0  0  0  0  0  0  0  0
   41.8937   25.6391   26.9544 N   0  0  0  0  0  0  0  0  0  0  0  0
   38.4944   28.8623   26.3853 N   0  0  0  0  0  0  0  0  0  0  0  0
   37.8097   28.1768   26.2107 H   0  0  0  0  0  0  0  0  0  0  0  0
   38.2495   29.8158   26.3777 H   0  0  0  0  0  0  0  0  0  0  0  0
   43.5340   23.9183   26.2716 C   0  0  0  0  0  0  0  0  0  0  0  0
   43.1396   24.6348   28.6715 C   0  0  0  0  0  0  0  0  0  0  0  0
   43.2382   25.0994   27.2237 C   0  0  0  0  0  0  0  0  0  0  0  0
   34.0816   24.8964   28.5045 N   0  0  0  0  0  0  0  0  0  0  0  0
   33.5357   24.9510   27.6871 H   0  0  0  0  0  0  0  0  0  0  0  0
   31.1613   25.9514   29.5173 C   0  0  0  0  0  0  0  0  0  0  0  0
   32.4786   24.0866   30.0538 C   0  0  0  0  0  0  0  0  0  0  0  0
   32.5654   26.4618   29.8217 C   0  0  0  0  0  0  0  0  0  0  0  0
   33.4905   25.2088   29.8103 C   0  0  0  0  0  0  0  0  0  0  0  0
   31.1179   24.5861   30.0061 O   0  0  0  0  0  0  0  0  0  0  0  0
   31.9623   28.0802   28.1148 C   0  0  0  0  0  0  0  0  0  0  0  0
   34.3123   28.0054   28.7383 C   0  0  0  0  0  0  0  0  0  0  0  0
   32.2481   29.1018   27.2383 C   0  0  0  0  0  0  0  0  0  0  0  0
   34.6001   29.0338   27.8323 C   0  0  0  0  0  0  0  0  0  0  0  0
   32.9941   27.5328   28.8694 C   0  0  0  0  0  0  0  0  0  0  0  0
   33.5523   29.5535   27.1077 C   0  0  0  0  0  0  0  0  0  0  0  0
   33.7584   30.5276   26.1976 F   0  0  0  0  0  0  0  0  0  0  0  0
 35 31  2  0  0  0
 31 33  1  0  0  0
 35 32  1  0  0  0
 32 34  2  0  0  0
 33 36  2  0  0  0
 34 36  1  0  0  0
  5  1  2  0  0  0
  1  3  1  0  0  0
  2  4  2  0  0  0
  2  5  1  0  0  0
 12  9  2  0  0  0
  9 17  1  0  0  0
 16 10  2  0  0  0
 10 15  1  0  0  0
 12 11  1  0  0  0
 14 11  2  0  0  0
 11 13  1  0  0  0
  7 12  1  0  0  0
 28 35  1  0  0  0
 36 37  1  0  0  0
  6  3  2  0  0  0
  3  7  1  0  0  0
 13 17  1  0  0  0
 13 15  2  0  0  0
 24  4  1  0  0  0
  4  6  1  0  0  0
 18 14  1  0  0  0
 14 16  1  0  0  0
  8  7  2  0  0  0
 30 26  1  0  0  0
 26 28  1  0  0  0
 27 30  1  0  0  0
 27 29  1  0  0  0
 29 28  1  0  0  0
 29 24  1  0  0  0
 23 21  1  0  0  0
 22 23  1  0  0  0
 17 23  1  0  0  0
 18 19  1  0  0  0
 18 20  1  0  0  0
 24 25  1  0  0  0
M  END
> <minimizedAffinity>
-10.02092

$$$$
3RWP_ABQ_A_360


 37 41  0  0  0  0  0  0  0  0999 V2000
   40.9497   27.7862   29.6566 C   0  0  0  0  0  0  0  0  0  0  0  0
   39.3029   26.4624   30.5321 C   0  0  0  0  0  0  0  0  0  0  0  0
   40.2269   27.8664   28.4931 C   0  0  0  0  0  0  0  0  0  0  0  0
   38.5878   26.5264   29.3517 C   0  0  0  0  0  0  0  0  0  0  0  0
   40.5002   27.0599   30.7274 N   0  0  0  0  0  0  0  0  0  0  0  0
   39.0401   27.2440   28.2996 N   0  0  0  0  0  0  0  0  0  0  0  0
   40.7266   28.6735   27.3376 C   0  0  0  0  0  0  0  0  0  0  0  0
   39.8706   29.3829   26.7611 O   0  0  0  0  0  0  0  0  0  0  0  0
   42.9292   29.9875   27.3038 C   0  0  0  0  0  0  0  0  0  0  0  0
   45.1797   26.7859   25.2734 C   0  0  0  0  0  0  0  0  0  0  0  0
   43.0531   27.9103   26.3974 C   0  0  0  0  0  0  0  0  0  0  0  0
   42.1579   28.8493   27.0627 C   0  0  0  0  0  0  0  0  0  0  0  0
   44.2964   28.5261   26.2727 C   0  0  0  0  0  0  0  0  0  0  0  0
   42.9781   26.6080   25.9041 C   0  0  0  0  0  0  0  0  0  0  0  0
   45.3972   28.0134   25.7037 N   0  0  0  0  0  0  0  0  0  0  0  0
   44.0644   26.0673   25.3186 N   0  0  0  0  0  0  0  0  0  0  0  0
   44.2097   29.7968   26.8346 N   0  0  0  0  0  0  0  0  0  0  0  0
   41.8389   25.8148   25.9455 N   0  0  0  0  0  0  0  0  0  0  0  0
   41.0150   26.1578   26.3613 H   0  0  0  0  0  0  0  0  0  0  0  0
   41.8551   24.9094   25.5591 H   0  0  0  0  0  0  0  0  0  0  0  0
   45.3264   31.5601   28.1620 C   0  0  0  0  0  0  0  0  0  0  0  0
   45.0561   31.6328   25.6420 C   0  0  0  0  0  0  0  0  0  0  0  0
   45.3373   30.7455   26.8485 C   0  0  0  0  0  0  0  0  0  0  0  0
   37.3764   25.8367   29.1203 N   0  0  0  0  0  0  0  0  0  0  0  0
   36.9701   25.8352   28.2235 H   0  0  0  0  0  0  0  0  0  0  0  0
   34.8744   23.7516   29.3640 C   0  0  0  0  0  0  0  0  0  0  0  0
   37.1231   23.6582   30.0234 C   0  0  0  0  0  0  0  0  0  0  0  0
   35.1767   25.0381   30.1243 C   0  0  0  0  0  0  0  0  0  0  0  0
   36.7286   25.1230   30.2263 C   0  0  0  0  0  0  0  0  0  0  0  0
   35.9780   22.8528   29.6449 O   0  0  0  0  0  0  0  0  0  0  0  0
   33.1614   26.2470   29.5133 C   0  0  0  0  0  0  0  0  0  0  0  0
   35.2684   27.2991   28.9046 C   0  0  0  0  0  0  0  0  0  0  0  0
   32.4924   27.3256   28.9816 C   0  0  0  0  0  0  0  0  0  0  0  0
   34.5816   28.3862   28.3499 C   0  0  0  0  0  0  0  0  0  0  0  0
   34.5515   26.2340   29.4790 C   0  0  0  0  0  0  0  0  0  0  0  0
   33.2072   28.3655   28.4076 C   0  0  0  0  0  0  0  0  0  0  0  0
   32.4786   29.3655   27.8704 F   0  0  0  0  0  0  0  0  0  0  0  0
 35 31  2  0  0  0
 31 33  1  0  0  0
 35 32  1  0  0  0
 32 34  2  0  0  0
 33 36  2  0  0  0
 34 36  1  0  0  0
  5  1  2  0  0  0
  1  3  1  0  0  0
  2  4  2  0  0  0
  2  5  1  0  0  0
 12  9  2  0  0  0
  9 17  1  0  0  0
 16 10  2  0  0  0
 10 15  1  0  0  0
 12 11  1  0  0  0
 14 11  2  0  0  0
 11 13  1  0  0  0
  7 12  1  0  0  0
 28 35  1  0  0  0
 36 37  1  0  0  0
  6  3  2  0  0  0
  3  7  1  0  0  0
 13 17  1  0  0  0
 13 15  2  0  0  0
 24  4  1  0  0  0
  4  6  1  0  0  0
 18 14  1  0  0  0
 14 16  1  0  0  0
  8  7  2  0  0  0
 30 26  1  0  0  0
 26 28  1  0  0  0
 27 30  1  0  0  0
 27 29  1  0  0  0
 29 28  1  0  0  0
 29 24  1  0  0  0
 23 21  1  0  0  0
 22 23  1  0  0  0
 17 23  1  0  0  0
 18 19  1  0  0  0
 18 20  1  0  0  0
 24 25  1  0  0  0
M  END
> <minimizedAffinity>
-9.75318

$$$$
3RWP_ABQ_A_360


 37 41  0  0  0  0  0  0  0  0999 V2000
   37.9549   29.6743   27.0946 C   0  0  0  0  0  0  0  0  0  0  0  0
   35.8962   28.7462   27.4569 C   0  0  0  0  0  0  0  0  0  0  0  0
   38.4908   28.7519   27.9575 C   0  0  0  0  0  0  0  0  0  0  0  0
   36.4350   27.8329   28.3426 C   0  0  0  0  0  0  0  0  0  0  0  0
   36.6129   29.7008   26.8215 N   0  0  0  0  0  0  0  0  0  0  0  0
   37.7601   27.8154   28.6074 N   0  0  0  0  0  0  0  0  0  0  0  0
   39.9601   28.7293   28.2354 C   0  0  0  0  0  0  0  0  0  0  0  0
   40.3035   29.1303   29.3709 O   0  0  0  0  0  0  0  0  0  0  0  0
   40.7099   26.8330   26.6793 C   0  0  0  0  0  0  0  0  0  0  0  0
   44.8071   28.3958   26.2232 C   0  0  0  0  0  0  0  0  0  0  0  0
   42.3014   28.3952   27.1015 C   0  0  0  0  0  0  0  0  0  0  0  0
   40.9137   28.0327   27.3634 C   0  0  0  0  0  0  0  0  0  0  0  0
   42.8514   27.4069   26.2882 C   0  0  0  0  0  0  0  0  0  0  0  0
   43.1582   29.4456   27.4296 C   0  0  0  0  0  0  0  0  0  0  0  0
   44.1096   27.3486   25.8281 N   0  0  0  0  0  0  0  0  0  0  0  0
   44.4313   29.4122   26.9900 N   0  0  0  0  0  0  0  0  0  0  0  0
   41.8662   26.4570   26.0331 N   0  0  0  0  0  0  0  0  0  0  0  0
   42.8033   30.5357   28.2134 N   0  0  0  0  0  0  0  0  0  0  0  0
   41.8861   30.6130   28.5628 H   0  0  0  0  0  0  0  0  0  0  0  0
   43.4689   31.2312   28.4197 H   0  0  0  0  0  0  0  0  0  0  0  0
   40.8208   24.8465   24.4736 C   0  0  0  0  0  0  0  0  0  0  0  0
   42.4865   24.2062   26.2748 C   0  0  0  0  0  0  0  0  0  0  0  0
   42.1092   25.2470   25.2278 C   0  0  0  0  0  0  0  0  0  0  0  0
   35.6745   26.8878   29.0674 N   0  0  0  0  0  0  0  0  0  0  0  0
   35.7865   26.8036   30.0419 H   0  0  0  0  0  0  0  0  0  0  0  0
   34.2124   24.0389   29.7102 C   0  0  0  0  0  0  0  0  0  0  0  0
   33.4148   26.1718   29.1491 C   0  0  0  0  0  0  0  0  0  0  0  0
   34.9906   24.5051   28.4848 C   0  0  0  0  0  0  0  0  0  0  0  0
   34.7170   26.0331   28.3570 C   0  0  0  0  0  0  0  0  0  0  0  0
   33.0776   24.9351   29.8274 O   0  0  0  0  0  0  0  0  0  0  0  0
   36.8662   23.7745   29.8431 C   0  0  0  0  0  0  0  0  0  0  0  0
   37.3390   24.1781   27.4914 C   0  0  0  0  0  0  0  0  0  0  0  0
   38.1779   23.3988   30.0216 C   0  0  0  0  0  0  0  0  0  0  0  0
   38.6768   23.8109   27.6827 C   0  0  0  0  0  0  0  0  0  0  0  0
   36.4436   24.1614   28.5760 C   0  0  0  0  0  0  0  0  0  0  0  0
   39.0558   23.4292   28.9490 C   0  0  0  0  0  0  0  0  0  0  0  0
   40.3336   23.0877   29.2137 F   0  0  0  0  0  0  0  0  0  0  0  0
 35 31  2  0  0  0
 31 33  1  0  0  0
 35 32  1  0  0  0
 32 34  2  0  0  0
 33 36  2  0  0  0
 34 36  1  0  0  0
  5  1  2  0  0  0
  1  3  1  0  0  0
  2  4  2  0  0  0
  2  5  1  0  0  0
 12  9  2  0  0  0
  9 17  1  0  0  0
 16 10  2  0  0  0
 10 15  1  0  0  0
 12 11  1  0  0  0
 14 11  2  0  0  0
 11 13  1  0  0  0
  7 12  1  0  0  0
 28 35  1  0  0  0
 36 37  1  0  0  0
  6  3  2  0  0  0
  3  7  1  0  0  0
 13 17  1  0  0  0
 13 15  2  0  0  0
 24  4  1  0  0  0
  4  6  1  0  0  0
 18 14  1  0  0  0
 14 16  1  0  0  0
  8  7  2  0  0  0
 30 26  1  0  0  0
 26 28  1  0  0  0
 27 30  1  0  0  0
 27 29  1  0  0  0
 29 28  1  0  0  0
 29 24  1  0  0  0
 23 21  1  0  0  0
 22 23  1  0  0  0
 17 23  1  0  0  0
 18 19  1  0  0  0
 18 20  1  0  0  0
 24 25  1  0  0  0
M  END
> <minimizedAffinity>
-9.68901

$$$$
3RWP_ABQ_A_360


 37 41  0  0  0  0  0  0  0  0999 V2000
   38.5292   29.3524   27.5582 C   0  0  0  0  0  0  0  0  0  0  0  0
   36.8189   27.8671   27.2427 C   0  0  0  0  0  0  0  0  0  0  0  0
   39.1918   28.3919   28.2801 C   0  0  0  0  0  0  0  0  0  0  0  0
   37.4782   26.9094   27.9888 C   0  0  0  0  0  0  0  0  0  0  0  0
   37.2949   29.1122   27.0151 N   0  0  0  0  0  0  0  0  0  0  0  0
   38.6950   27.1560   28.5226 N   0  0  0  0  0  0  0  0  0  0  0  0
   40.5442   28.6668   28.8562 C   0  0  0  0  0  0  0  0  0  0  0  0
   40.6519   28.4966   30.0922 O   0  0  0  0  0  0  0  0  0  0  0  0
   42.5014   30.0081   27.8817 C   0  0  0  0  0  0  0  0  0  0  0  0
   43.8269   26.7516   25.2216 C   0  0  0  0  0  0  0  0  0  0  0  0
   42.3087   27.8950   27.0758 C   0  0  0  0  0  0  0  0  0  0  0  0
   41.7337   28.8499   28.0156 C   0  0  0  0  0  0  0  0  0  0  0  0
   43.3743   28.5217   26.4336 C   0  0  0  0  0  0  0  0  0  0  0  0
   42.0790   26.5714   26.7011 C   0  0  0  0  0  0  0  0  0  0  0  0
   44.1632   27.9997   25.4832 N   0  0  0  0  0  0  0  0  0  0  0  0
   42.8489   26.0205   25.7425 N   0  0  0  0  0  0  0  0  0  0  0  0
   43.4852   29.8145   26.9380 N   0  0  0  0  0  0  0  0  0  0  0  0
   41.0800   25.7653   27.2309 N   0  0  0  0  0  0  0  0  0  0  0  0
   40.4867   26.1149   27.9344 H   0  0  0  0  0  0  0  0  0  0  0  0
   40.9651   24.8441   26.9029 H   0  0  0  0  0  0  0  0  0  0  0  0
   45.6460   30.8897   27.4797 C   0  0  0  0  0  0  0  0  0  0  0  0
   43.7049   32.0799   26.3643 C   0  0  0  0  0  0  0  0  0  0  0  0
   44.4915   30.7783   26.4581 C   0  0  0  0  0  0  0  0  0  0  0  0
   36.9454   25.6367   28.2940 N   0  0  0  0  0  0  0  0  0  0  0  0
   36.4973   25.1063   27.5961 H   0  0  0  0  0  0  0  0  0  0  0  0
   35.8363   22.9862   29.8472 C   0  0  0  0  0  0  0  0  0  0  0  0
   37.9763   23.8896   29.5232 C   0  0  0  0  0  0  0  0  0  0  0  0
   35.7655   24.4625   30.2212 C   0  0  0  0  0  0  0  0  0  0  0  0
   37.0649   25.1117   29.6587 C   0  0  0  0  0  0  0  0  0  0  0  0
   37.2480   22.6604   29.7721 O   0  0  0  0  0  0  0  0  0  0  0  0
   33.6356   24.2470   29.0753 C   0  0  0  0  0  0  0  0  0  0  0  0
   34.1804   26.4633   29.9167 C   0  0  0  0  0  0  0  0  0  0  0  0
   32.4331   24.7374   28.6201 C   0  0  0  0  0  0  0  0  0  0  0  0
   32.9626   26.9606   29.4363 C   0  0  0  0  0  0  0  0  0  0  0  0
   34.5100   25.1090   29.7282 C   0  0  0  0  0  0  0  0  0  0  0  0
   32.1219   26.0763   28.8007 C   0  0  0  0  0  0  0  0  0  0  0  0
   30.9443   26.4897   28.2890 F   0  0  0  0  0  0  0  0  0  0  0  0
 35 31  2  0  0  0
 31 33  1  0  0  0
 35 32  1  0  0  0
 32 34  2  0  0  0
 33 36  2  0  0  0
 34 36  1  0  0  0
  5  1  2  0  0  0
  1  3  1  0  0  0
  2  4  2  0  0  0
  2  5  1  0  0  0
 12  9  2  0  0  0
  9 17  1  0  0  0
 16 10  2  0  0  0
 10 15  1  0  0  0
 12 11  1  0  0  0
 14 11  2  0  0  0
 11 13  1  0  0  0
  7 12  1  0  0  0
 28 35  1  0  0  0
 36 37  1  0  0  0
  6  3  2  0  0  0
  3  7  1  0  0  0
 13 17  1  0  0  0
 13 15  2  0  0  0
 24  4  1  0  0  0
  4  6  1  0  0  0
 18 14  1  0  0  0
 14 16  1  0  0  0
  8  7  2  0  0  0
 30 26  1  0  0  0
 26 28  1  0  0  0
 27 30  1  0  0  0
 27 29  1  0  0  0
 29 28  1  0  0  0
 29 24  1  0  0  0
 23 21  1  0  0  0
 22 23  1  0  0  0
 17 23  1  0  0  0
 18 19  1  0  0  0
 18 20  1  0  0  0
 24 25  1  0  0  0
M  END
> <minimizedAffinity>
-9.60781

$$$$
3RWP_ABQ_A_360


 37 41  0  0  0  0  0  0  0  0999 V2000
   38.4305   23.5258   29.7699 C   0  0  0  0  0  0  0  0  0  0  0  0
   36.1596   23.2774   29.8803 C   0  0  0  0  0  0  0  0  0  0  0  0
   38.2576   24.8838   29.8635 C   0  0  0  0  0  0  0  0  0  0  0  0
   35.9871   24.6463   29.9519 C   0  0  0  0  0  0  0  0  0  0  0  0
   37.3620   22.6688   29.7682 N   0  0  0  0  0  0  0  0  0  0  0  0
   37.0473   25.4844   29.9509 N   0  0  0  0  0  0  0  0  0  0  0  0
   39.4358   25.8047   29.8758 C   0  0  0  0  0  0  0  0  0  0  0  0
   39.8956   26.0819   31.0072 O   0  0  0  0  0  0  0  0  0  0  0  0
   40.4854   25.2927   27.5921 C   0  0  0  0  0  0  0  0  0  0  0  0
   42.2613   29.3038   27.1506 C   0  0  0  0  0  0  0  0  0  0  0  0
   40.8405   27.4046   28.3441 C   0  0  0  0  0  0  0  0  0  0  0  0
   40.1816   26.1423   28.6573 C   0  0  0  0  0  0  0  0  0  0  0  0
   41.4986   27.2484   27.1262 C   0  0  0  0  0  0  0  0  0  0  0  0
   40.9465   28.6686   28.9238 C   0  0  0  0  0  0  0  0  0  0  0  0
   42.2395   28.1648   26.4862 N   0  0  0  0  0  0  0  0  0  0  0  0
   41.6909   29.6089   28.3098 N   0  0  0  0  0  0  0  0  0  0  0  0
   41.2710   25.9518   26.6732 N   0  0  0  0  0  0  0  0  0  0  0  0
   40.3535   29.0364   30.1245 N   0  0  0  0  0  0  0  0  0  0  0  0
   39.7982   28.3900   30.6176 H   0  0  0  0  0  0  0  0  0  0  0  0
   40.4885   29.9434   30.4827 H   0  0  0  0  0  0  0  0  0  0  0  0
   40.7236   24.9035   24.5007 C   0  0  0  0  0  0  0  0  0  0  0  0
   42.7439   24.2930   25.9060 C   0  0  0  0  0  0  0  0  0  0  0  0
   41.8481   25.4271   25.4229 C   0  0  0  0  0  0  0  0  0  0  0  0
   34.7276   25.2859   29.9879 N   0  0  0  0  0  0  0  0  0  0  0  0
   34.3099   25.5104   30.8507 H   0  0  0  0  0  0  0  0  0  0  0  0
   31.7710   26.4272   29.1983 C   0  0  0  0  0  0  0  0  0  0  0  0
   33.9550   27.1406   28.7273 C   0  0  0  0  0  0  0  0  0  0  0  0
   32.5414   25.2163   28.6838 C   0  0  0  0  0  0  0  0  0  0  0  0
   34.0470   25.6128   28.7300 C   0  0  0  0  0  0  0  0  0  0  0  0
   32.5821   27.5849   28.8717 O   0  0  0  0  0  0  0  0  0  0  0  0
   31.1203   24.0869   30.2967 C   0  0  0  0  0  0  0  0  0  0  0  0
   32.9301   22.7645   29.3518 C   0  0  0  0  0  0  0  0  0  0  0  0
   30.7217   22.9869   31.0210 C   0  0  0  0  0  0  0  0  0  0  0  0
   32.5300   21.6533   30.1042 C   0  0  0  0  0  0  0  0  0  0  0  0
   32.2236   23.9761   29.4575 C   0  0  0  0  0  0  0  0  0  0  0  0
   31.4311   21.8001   30.9188 C   0  0  0  0  0  0  0  0  0  0  0  0
   31.0039   20.7809   31.6922 F   0  0  0  0  0  0  0  0  0  0  0  0
 35 31  2  0  0  0
 31 33  1  0  0  0
 35 32  1  0  0  0
 32 34  2  0  0  0
 33 36  2  0  0  0
 34 36  1  0  0  0
  5  1  2  0  0  0
  1  3  1  0  0  0
  2  4  2  0  0  0
  2  5  1  0  0  0
 12  9  2  0  0  0
  9 17  1  0  0  0
 16 10  2  0  0  0
 10 15  1  0  0  0
 12 11  1  0  0  0
 14 11  2  0  0  0
 11 13  1  0  0  0
  7 12  1  0  0  0
 28 35  1  0  0  0
 36 37  1  0  0  0
  6  3  2  0  0  0
  3  7  1  0  0  0
 13 17  1  0  0  0
 13 15  2  0  0  0
 24  4  1  0  0  0
  4  6  1  0  0  0
 18 14  1  0  0  0
 14 16  1  0  0  0
  8  7  2  0  0  0
 30 26  1  0  0  0
 26 28  1  0  0  0
 27 30  1  0  0  0
 27 29  1  0  0  0
 29 28  1  0  0  0
 29 24  1  0  0  0
 23 21  1  0  0  0
 22 23  1  0  0  0
 17 23  1  0  0  0
 18 19  1  0  0  0
 18 20  1  0  0  0
 24 25  1  0  0  0
M  END
> <minimizedAffinity>
-9.57711

$$$$
3RWP_ABQ_A_360


 37 41  0  0  0  0  0  0  0  0999 V2000
   39.0246   29.0359   26.5886 C   0  0  0  0  0  0  0  0  0  0  0  0
   36.7761   29.1564   26.9893 C   0  0  0  0  0  0  0  0  0  0  0  0
   39.1164   28.0694   27.5582 C   0  0  0  0  0  0  0  0  0  0  0  0
   36.8750   28.1992   27.9807 C   0  0  0  0  0  0  0  0  0  0  0  0
   37.8269   29.6229   26.2772 N   0  0  0  0  0  0  0  0  0  0  0  0
   38.0615   27.6269   28.2824 N   0  0  0  0  0  0  0  0  0  0  0  0
   40.4302   27.4302   27.8776 C   0  0  0  0  0  0  0  0  0  0  0  0
   40.3736   26.2449   28.2775 O   0  0  0  0  0  0  0  0  0  0  0  0
   42.2270   29.2604   27.9138 C   0  0  0  0  0  0  0  0  0  0  0  0
   44.7737   27.2668   24.9176 C   0  0  0  0  0  0  0  0  0  0  0  0
   42.6716   27.5261   26.5188 C   0  0  0  0  0  0  0  0  0  0  0  0
   41.7117   28.0336   27.4918 C   0  0  0  0  0  0  0  0  0  0  0  0
   43.6968   28.4625   26.4067 C   0  0  0  0  0  0  0  0  0  0  0  0
   42.8171   26.3826   25.7338 C   0  0  0  0  0  0  0  0  0  0  0  0
   44.7710   28.3909   25.6072 N   0  0  0  0  0  0  0  0  0  0  0  0
   43.8811   26.2842   24.9132 N   0  0  0  0  0  0  0  0  0  0  0  0
   43.4156   29.5190   27.2686 N   0  0  0  0  0  0  0  0  0  0  0  0
   41.9183   25.3241   25.7103 N   0  0  0  0  0  0  0  0  0  0  0  0
   41.1221   25.3414   26.2890 H   0  0  0  0  0  0  0  0  0  0  0  0
   42.0775   24.5563   25.1149 H   0  0  0  0  0  0  0  0  0  0  0  0
   44.4713   31.0776   28.8732 C   0  0  0  0  0  0  0  0  0  0  0  0
   43.4847   31.7811   26.6459 C   0  0  0  0  0  0  0  0  0  0  0  0
   44.2767   30.7093   27.3847 C   0  0  0  0  0  0  0  0  0  0  0  0
   35.7912   27.7702   28.7794 N   0  0  0  0  0  0  0  0  0  0  0  0
   35.8276   27.8674   29.7584 H   0  0  0  0  0  0  0  0  0  0  0  0
   33.4571   25.6904   29.7249 C   0  0  0  0  0  0  0  0  0  0  0  0
   33.4213   27.8554   28.8237 C   0  0  0  0  0  0  0  0  0  0  0  0
   34.3591   25.6838   28.4956 C   0  0  0  0  0  0  0  0  0  0  0  0
   34.6112   27.1788   28.1389 C   0  0  0  0  0  0  0  0  0  0  0  0
   32.6844   26.9157   29.6467 O   0  0  0  0  0  0  0  0  0  0  0  0
   36.2767   24.5258   27.5583 C   0  0  0  0  0  0  0  0  0  0  0  0
   36.1381   24.5785   29.9863 C   0  0  0  0  0  0  0  0  0  0  0  0
   37.4636   23.8373   27.6611 C   0  0  0  0  0  0  0  0  0  0  0  0
   37.3377   23.8628   30.0844 C   0  0  0  0  0  0  0  0  0  0  0  0
   35.6137   24.9011   28.7217 C   0  0  0  0  0  0  0  0  0  0  0  0
   37.9670   23.5139   28.9117 C   0  0  0  0  0  0  0  0  0  0  0  0
   39.1122   22.8013   28.9283 F   0  0  0  0  0  0  0  0  0  0  0  0
 35 31  2  0  0  0
 31 33  1  0  0  0
 35 32  1  0  0  0
 32 34  2  0  0  0
 33 36  2  0  0  0
 34 36  1  0  0  0
  5  1  2  0  0  0
  1  3  1  0  0  0
  2  4  2  0  0  0
  2  5  1  0  0  0
 12  9  2  0  0  0
  9 17  1  0  0  0
 16 10  2  0  0  0
 10 15  1  0  0  0
 12 11  1  0  0  0
 14 11  2  0  0  0
 11 13  1  0  0  0
  7 12  1  0  0  0
 28 35  1  0  0  0
 36 37  1  0  0  0
  6  3  2  0  0  0
  3  7  1  0  0  0
 13 17  1  0  0  0
 13 15  2  0  0  0
 24  4  1  0  0  0
  4  6  1  0  0  0
 18 14  1  0  0  0
 14 16  1  0  0  0
  8  7  2  0  0  0
 30 26  1  0  0  0
 26 28  1  0  0  0
 27 30  1  0  0  0
 27 29  1  0  0  0
 29 28  1  0  0  0
 29 24  1  0  0  0
 23 21  1  0  0  0
 22 23  1  0  0  0
 17 23  1  0  0  0
 18 19  1  0  0  0
 18 20  1  0  0  0
 24 25  1  0  0  0
M  END
> <minimizedAffinity>
-9.44962

$$$$
3RWP_ABQ_A_360


 37 41  0  0  0  0  0  0  0  0999 V2000
   38.9335   26.5549   30.2033 C   0  0  0  0  0  0  0  0  0  0  0  0
   40.8039   27.8671   30.0991 C   0  0  0  0  0  0  0  0  0  0  0  0
   38.7442   26.7683   28.8612 C   0  0  0  0  0  0  0  0  0  0  0  0
   40.5984   28.0985   28.7526 C   0  0  0  0  0  0  0  0  0  0  0  0
   39.9874   27.1173   30.8736 N   0  0  0  0  0  0  0  0  0  0  0  0
   39.5546   27.5409   28.1000 N   0  0  0  0  0  0  0  0  0  0  0  0
   37.5949   26.1369   28.1421 C   0  0  0  0  0  0  0  0  0  0  0  0
   37.8786   25.1462   27.4306 O   0  0  0  0  0  0  0  0  0  0  0  0
   35.2780   25.6671   29.1373 C   0  0  0  0  0  0  0  0  0  0  0  0
   33.5181   29.4196   27.6342 C   0  0  0  0  0  0  0  0  0  0  0  0
   35.4515   27.6449   28.0372 C   0  0  0  0  0  0  0  0  0  0  0  0
   36.1982   26.4639   28.4538 C   0  0  0  0  0  0  0  0  0  0  0  0
   34.1401   27.4962   28.4831 C   0  0  0  0  0  0  0  0  0  0  0  0
   35.7219   28.8330   27.3589 C   0  0  0  0  0  0  0  0  0  0  0  0
   33.1230   28.3500   28.2968 N   0  0  0  0  0  0  0  0  0  0  0  0
   34.7192   29.7078   27.1478 N   0  0  0  0  0  0  0  0  0  0  0  0
   34.0465   26.2826   29.1588 N   0  0  0  0  0  0  0  0  0  0  0  0
   36.9652   29.1830   26.8487 N   0  0  0  0  0  0  0  0  0  0  0  0
   37.7351   28.5820   26.9727 H   0  0  0  0  0  0  0  0  0  0  0  0
   37.0768   30.0320   26.3630 H   0  0  0  0  0  0  0  0  0  0  0  0
   33.0086   24.3858   30.3602 C   0  0  0  0  0  0  0  0  0  0  0  0
   31.8560   25.7154   28.5347 C   0  0  0  0  0  0  0  0  0  0  0  0
   32.7870   25.7837   29.7390 C   0  0  0  0  0  0  0  0  0  0  0  0
   41.4058   28.9466   27.9616 N   0  0  0  0  0  0  0  0  0  0  0  0
   41.3334   29.9244   28.0501 H   0  0  0  0  0  0  0  0  0  0  0  0
   44.5650   28.1240   28.0627 C   0  0  0  0  0  0  0  0  0  0  0  0
   42.6065   26.9456   27.5372 C   0  0  0  0  0  0  0  0  0  0  0  0
   43.7864   28.9657   27.0578 C   0  0  0  0  0  0  0  0  0  0  0  0
   42.3528   28.3590   27.0076 C   0  0  0  0  0  0  0  0  0  0  0  0
   43.9633   26.8044   28.0296 O   0  0  0  0  0  0  0  0  0  0  0  0
   44.2810   30.7024   28.6813 C   0  0  0  0  0  0  0  0  0  0  0  0
   43.4322   31.4567   26.5302 C   0  0  0  0  0  0  0  0  0  0  0  0
   44.3802   32.0156   29.0800 C   0  0  0  0  0  0  0  0  0  0  0  0
   43.5193   32.7906   26.9476 C   0  0  0  0  0  0  0  0  0  0  0  0
   43.8102   30.4209   27.4035 C   0  0  0  0  0  0  0  0  0  0  0  0
   43.9947   33.0293   28.2164 C   0  0  0  0  0  0  0  0  0  0  0  0
   44.0813   34.2871   28.6958 F   0  0  0  0  0  0  0  0  0  0  0  0
 35 31  2  0  0  0
 31 33  1  0  0  0
 35 32  1  0  0  0
 32 34  2  0  0  0
 33 36  2  0  0  0
 34 36  1  0  0  0
  5  1  2  0  0  0
  1  3  1  0  0  0
  2  4  2  0  0  0
  2  5  1  0  0  0
 12  9  2  0  0  0
  9 17  1  0  0  0
 16 10  2  0  0  0
 10 15  1  0  0  0
 12 11  1  0  0  0
 14 11  2  0  0  0
 11 13  1  0  0  0
  7 12  1  0  0  0
 28 35  1  0  0  0
 36 37  1  0  0  0
  6  3  2  0  0  0
  3  7  1  0  0  0
 13 17  1  0  0  0
 13 15  2  0  0  0
 24  4  1  0  0  0
  4  6  1  0  0  0
 18 14  1  0  0  0
 14 16  1  0  0  0
  8  7  2  0  0  0
 30 26  1  0  0  0
 26 28  1  0  0  0
 27 30  1  0  0  0
 27 29  1  0  0  0
 29 28  1  0  0  0
 29 24  1  0  0  0
 23 21  1  0  0  0
 22 23  1  0  0  0
 17 23  1  0  0  0
 18 19  1  0  0  0
 18 20  1  0  0  0
 24 25  1  0  0  0
M  END
> <minimizedAffinity>
-9.42375

$$$$
3RWP_ABQ_A_360


 37 41  0  0  0  0  0  0  0  0999 V2000
   38.8012   26.1645   26.8878 C   0  0  0  0  0  0  0  0  0  0  0  0
   36.6248   25.6706   26.3878 C   0  0  0  0  0  0  0  0  0  0  0  0
   38.5786   25.7184   28.1662 C   0  0  0  0  0  0  0  0  0  0  0  0
   36.3972   25.2431   27.6817 C   0  0  0  0  0  0  0  0  0  0  0  0
   37.8061   26.1590   25.9466 N   0  0  0  0  0  0  0  0  0  0  0  0
   37.3847   25.2538   28.6042 N   0  0  0  0  0  0  0  0  0  0  0  0
   39.6795   25.7201   29.1783 C   0  0  0  0  0  0  0  0  0  0  0  0
   39.4092   25.1784   30.2745 O   0  0  0  0  0  0  0  0  0  0  0  0
   42.1461   25.2024   28.7016 C   0  0  0  0  0  0  0  0  0  0  0  0
   43.2761   29.4379   28.2314 C   0  0  0  0  0  0  0  0  0  0  0  0
   41.6156   27.4087   28.6496 C   0  0  0  0  0  0  0  0  0  0  0  0
   41.0624   26.0724   28.8341 C   0  0  0  0  0  0  0  0  0  0  0  0
   42.9834   27.2735   28.4224 C   0  0  0  0  0  0  0  0  0  0  0  0
   41.1309   28.7161   28.6230 C   0  0  0  0  0  0  0  0  0  0  0  0
   43.8689   28.2599   28.2202 N   0  0  0  0  0  0  0  0  0  0  0  0
   41.9966   29.7303   28.4307 N   0  0  0  0  0  0  0  0  0  0  0  0
   43.2963   25.9173   28.4529 N   0  0  0  0  0  0  0  0  0  0  0  0
   39.8000   29.0663   28.8093 N   0  0  0  0  0  0  0  0  0  0  0  0
   39.1225   28.3668   28.9543 H   0  0  0  0  0  0  0  0  0  0  0  0
   39.5339   30.0141   28.7962 H   0  0  0  0  0  0  0  0  0  0  0  0
   44.8756   24.9252   26.8281 C   0  0  0  0  0  0  0  0  0  0  0  0
   44.7301   24.2466   29.2668 C   0  0  0  0  0  0  0  0  0  0  0  0
   44.6684   25.4076   28.2818 C   0  0  0  0  0  0  0  0  0  0  0  0
   35.1421   24.8083   28.1638 N   0  0  0  0  0  0  0  0  0  0  0  0
   34.4379   24.5309   27.5341 H   0  0  0  0  0  0  0  0  0  0  0  0
   32.4759   24.6407   30.0429 C   0  0  0  0  0  0  0  0  0  0  0  0
   34.4238   23.3440   29.8859 C   0  0  0  0  0  0  0  0  0  0  0  0
   33.6614   25.5988   30.0788 C   0  0  0  0  0  0  0  0  0  0  0  0
   34.8961   24.7733   29.6097 C   0  0  0  0  0  0  0  0  0  0  0  0
   33.0251   23.3170   30.2684 O   0  0  0  0  0  0  0  0  0  0  0  0
   32.1076   26.9737   28.8171 C   0  0  0  0  0  0  0  0  0  0  0  0
   34.3887   27.8036   28.9751 C   0  0  0  0  0  0  0  0  0  0  0  0
   31.7715   28.0942   28.0925 C   0  0  0  0  0  0  0  0  0  0  0  0
   34.0447   28.9336   28.2227 C   0  0  0  0  0  0  0  0  0  0  0  0
   33.4168   26.8285   29.2631 C   0  0  0  0  0  0  0  0  0  0  0  0
   32.7389   29.0444   27.8039 C   0  0  0  0  0  0  0  0  0  0  0  0
   32.3412   30.0922   27.0533 F   0  0  0  0  0  0  0  0  0  0  0  0
 35 31  2  0  0  0
 31 33  1  0  0  0
 35 32  1  0  0  0
 32 34  2  0  0  0
 33 36  2  0  0  0
 34 36  1  0  0  0
  5  1  2  0  0  0
  1  3  1  0  0  0
  2  4  2  0  0  0
  2  5  1  0  0  0
 12  9  2  0  0  0
  9 17  1  0  0  0
 16 10  2  0  0  0
 10 15  1  0  0  0
 12 11  1  0  0  0
 14 11  2  0  0  0
 11 13  1  0  0  0
  7 12  1  0  0  0
 28 35  1  0  0  0
 36 37  1  0  0  0
  6  3  2  0  0  0
  3  7  1  0  0  0
 13 17  1  0  0  0
 13 15  2  0  0  0
 24  4  1  0  0  0
  4  6  1  0  0  0
 18 14  1  0  0  0
 14 16  1  0  0  0
  8  7  2  0  0  0
 30 26  1  0  0  0
 26 28  1  0  0  0
 27 30  1  0  0  0
 27 29  1  0  0  0
 29 28  1  0  0  0
 29 24  1  0  0  0
 23 21  1  0  0  0
 22 23  1  0  0  0
 17 23  1  0  0  0
 18 19  1  0  0  0
 18 20  1  0  0  0
 24 25  1  0  0  0
M  END
> <minimizedAffinity>
-9.33072

$$$$
3RWP_ABQ_A_360


 37 41  0  0  0  0  0  0  0  0999 V2000
   37.8825   29.7303   27.0590 C   0  0  0  0  0  0  0  0  0  0  0  0
   35.7002   29.1191   27.3676 C   0  0  0  0  0  0  0  0  0  0  0  0
   38.2476   28.7879   27.9871 C   0  0  0  0  0  0  0  0  0  0  0  0
   36.0686   28.1866   28.3181 C   0  0  0  0  0  0  0  0  0  0  0  0
   36.5697   29.9300   26.7231 N   0  0  0  0  0  0  0  0  0  0  0  0
   37.3663   27.9978   28.6445 N   0  0  0  0  0  0  0  0  0  0  0  0
   39.6867   28.5745   28.3335 C   0  0  0  0  0  0  0  0  0  0  0  0
   40.2014   29.4447   29.0724 O   0  0  0  0  0  0  0  0  0  0  0  0
   41.0561   26.9432   26.9042 C   0  0  0  0  0  0  0  0  0  0  0  0
   40.8949   23.6966   29.8826 C   0  0  0  0  0  0  0  0  0  0  0  0
   40.4257   26.1290   28.9269 C   0  0  0  0  0  0  0  0  0  0  0  0
   40.3785   27.3070   28.0692 C   0  0  0  0  0  0  0  0  0  0  0  0
   41.1165   25.1326   28.2408 C   0  0  0  0  0  0  0  0  0  0  0  0
   39.9920   25.7838   30.2067 C   0  0  0  0  0  0  0  0  0  0  0  0
   41.3695   23.8866   28.6669 N   0  0  0  0  0  0  0  0  0  0  0  0
   40.2230   24.5365   30.6607 N   0  0  0  0  0  0  0  0  0  0  0  0
   41.5010   25.6440   27.0044 N   0  0  0  0  0  0  0  0  0  0  0  0
   39.3020   26.6345   31.0603 N   0  0  0  0  0  0  0  0  0  0  0  0
   39.1047   27.5578   30.7815 H   0  0  0  0  0  0  0  0  0  0  0  0
   39.0101   26.3142   31.9443 H   0  0  0  0  0  0  0  0  0  0  0  0
   43.5035   25.5972   25.5530 C   0  0  0  0  0  0  0  0  0  0  0  0
   41.2227   24.7341   24.8586 C   0  0  0  0  0  0  0  0  0  0  0  0
   42.2271   24.8481   25.9989 C   0  0  0  0  0  0  0  0  0  0  0  0
   35.1537   27.3959   29.0493 N   0  0  0  0  0  0  0  0  0  0  0  0
   35.3055   27.2184   30.0057 H   0  0  0  0  0  0  0  0  0  0  0  0
   32.9175   25.1367   29.7994 C   0  0  0  0  0  0  0  0  0  0  0  0
   32.7845   27.3897   29.1618 C   0  0  0  0  0  0  0  0  0  0  0  0
   33.7835   25.3069   28.5562 C   0  0  0  0  0  0  0  0  0  0  0  0
   33.9759   26.8416   28.3727 C   0  0  0  0  0  0  0  0  0  0  0  0
   32.1029   26.3340   29.8858 O   0  0  0  0  0  0  0  0  0  0  0  0
   35.8037   24.4997   27.4773 C   0  0  0  0  0  0  0  0  0  0  0  0
   35.5542   23.9499   29.8336 C   0  0  0  0  0  0  0  0  0  0  0  0
   37.0220   23.8600   27.4777 C   0  0  0  0  0  0  0  0  0  0  0  0
   36.7869   23.2856   29.8237 C   0  0  0  0  0  0  0  0  0  0  0  0
   35.0692   24.5489   28.6571 C   0  0  0  0  0  0  0  0  0  0  0  0
   37.4867   23.2628   28.6393 C   0  0  0  0  0  0  0  0  0  0  0  0
   38.6686   22.6192   28.5481 F   0  0  0  0  0  0  0  0  0  0  0  0
 35 31  2  0  0  0
 31 33  1  0  0  0
 35 32  1  0  0  0
 32 34  2  0  0  0
 33 36  2  0  0  0
 34 36  1  0  0  0
  5  1  2  0  0  0
  1  3  1  0  0  0
  2  4  2  0  0  0
  2  5  1  0  0  0
 12  9  2  0  0  0
  9 17  1  0  0  0
 16 10  2  0  0  0
 10 15  1  0  0  0
 12 11  1  0  0  0
 14 11  2  0  0  0
 11 13  1  0  0  0
  7 12  1  0  0  0
 28 35  1  0  0  0
 36 37  1  0  0  0
  6  3  2  0  0  0
  3  7  1  0  0  0
 13 17  1  0  0  0
 13 15  2  0  0  0
 24  4  1  0  0  0
  4  6  1  0  0  0
 18 14  1  0  0  0
 14 16  1  0  0  0
  8  7  2  0  0  0
 30 26  1  0  0  0
 26 28  1  0  0  0
 27 30  1  0  0  0
 27 29  1  0  0  0
 29 28  1  0  0  0
 29 24  1  0  0  0
 23 21  1  0  0  0
 22 23  1  0  0  0
 17 23  1  0  0  0
 18 19  1  0  0  0
 18 20  1  0  0  0
 24 25  1  0  0  0
M  END
> <minimizedAffinity>
-9.24511

$$$$
