1GPK_HUP_A_1540


 21 23  0  0  0  0  0  0  0  0999 V2000
    0.6073   68.9988   60.8990 C   0  0  0  0  0  0  0  0  0  0  0  0
    0.0773   69.5099   59.8760 O   0  0  0  0  0  0  0  0  0  0  0  0
    1.9182   68.5195   60.8404 N   0  0  0  0  0  0  0  0  0  0  0  0
   -0.0627   68.8647   62.1851 C   0  0  0  0  0  0  0  0  0  0  0  0
    0.5854   68.2875   63.2579 C   0  0  0  0  0  0  0  0  0  0  0  0
    1.9477   67.7912   63.1794 C   0  0  0  0  0  0  0  0  0  0  0  0
    2.6114   67.9295   61.9188 C   0  0  0  0  0  0  0  0  0  0  0  0
    4.0256   67.4710   61.6488 C   0  0  0  0  0  0  0  0  0  0  0  0
    4.7501   66.8684   62.9328 C   0  0  0  0  0  0  0  0  0  0  0  0
    5.4359   67.9603   63.7801 C   0  0  0  0  0  0  0  0  0  0  0  0
    4.6554   63.7699   63.6119 C   0  0  0  0  0  0  0  0  0  0  0  0
    3.7185   64.8293   64.1078 C   0  0  0  0  0  0  0  0  0  0  0  0
    3.7305   66.1259   63.8272 C   0  0  0  0  0  0  0  0  0  0  0  0
    2.6957   67.1165   64.4114 C   0  0  0  0  0  0  0  0  0  0  0  0
    1.7056   66.4175   65.2779 N   0  0  0  0  0  0  0  0  0  0  0  0
    3.4157   68.1968   65.2708 C   0  0  0  0  0  0  0  0  0  0  0  0
    4.8258   68.5607   64.8408 C   0  0  0  0  0  0  0  0  0  0  0  0
    5.4823   69.6266   65.6919 C   0  0  0  0  0  0  0  0  0  0  0  0
    2.3942   68.5993   59.9823 H   0  0  0  0  0  0  0  0  0  0  0  0
    1.2213   65.7038   64.7334 H   0  0  0  0  0  0  0  0  0  0  0  0
    1.0281   67.0924   65.6329 H   0  0  0  0  0  0  0  0  0  0  0  0
  1  2  2  0  0  0
  1  3  1  0  0  0
  1  4  1  0  0  0
  3  7  1  0  0  0
  4  5  2  0  0  0
  5  6  1  0  0  0
  6  7  2  0  0  0
  6 14  1  0  0  0
  7  8  1  0  0  0
  8  9  1  0  0  0
  9 10  1  0  0  0
  9 13  1  0  0  0
 10 17  2  0  0  0
 11 12  1  0  0  0
 12 13  2  0  0  0
 13 14  1  0  0  0
 14 15  1  0  0  0
 14 16  1  0  0  0
 16 17  1  0  0  0
 17 18  1  0  0  0
  3 19  1  0  0  0
 15 20  1  0  0  0
 15 21  1  0  0  0
M  END
> <minimizedAffinity>
-10.71968

$$$$
1GPK_HUP_A_1540


 21 23  0  0  0  0  0  0  0  0999 V2000
    0.1065   68.8324   61.8051 C   0  0  0  0  0  0  0  0  0  0  0  0
   -1.1035   69.1262   61.6096 O   0  0  0  0  0  0  0  0  0  0  0  0
    0.5696   68.6090   63.1040 N   0  0  0  0  0  0  0  0  0  0  0  0
    1.0964   68.7011   60.7450 C   0  0  0  0  0  0  0  0  0  0  0  0
    2.4055   68.3813   61.0420 C   0  0  0  0  0  0  0  0  0  0  0  0
    2.8714   68.1553   62.3986 C   0  0  0  0  0  0  0  0  0  0  0  0
    1.8986   68.2754   63.4415 C   0  0  0  0  0  0  0  0  0  0  0  0
    2.1983   68.0777   64.9093 C   0  0  0  0  0  0  0  0  0  0  0  0
    3.7061   67.6511   65.1940 C   0  0  0  0  0  0  0  0  0  0  0  0
    3.9040   66.1231   65.1117 C   0  0  0  0  0  0  0  0  0  0  0  0
    5.9746   69.7939   65.7711 C   0  0  0  0  0  0  0  0  0  0  0  0
    5.6081   69.2065   64.4419 C   0  0  0  0  0  0  0  0  0  0  0  0
    4.6567   68.3213   64.1752 C   0  0  0  0  0  0  0  0  0  0  0  0
    4.3820   67.7953   62.7464 C   0  0  0  0  0  0  0  0  0  0  0  0
    5.2911   68.4301   61.7512 N   0  0  0  0  0  0  0  0  0  0  0  0
    4.6025   66.2551   62.6922 C   0  0  0  0  0  0  0  0  0  0  0  0
    4.3110   65.4938   63.9733 C   0  0  0  0  0  0  0  0  0  0  0  0
    4.5211   63.9981   63.8719 C   0  0  0  0  0  0  0  0  0  0  0  0
   -0.0801   68.6905   63.8393 H   0  0  0  0  0  0  0  0  0  0  0  0
    5.1626   69.4418   61.7702 H   0  0  0  0  0  0  0  0  0  0  0  0
    5.0743   68.0772   60.8191 H   0  0  0  0  0  0  0  0  0  0  0  0
  1  2  2  0  0  0
  1  3  1  0  0  0
  1  4  1  0  0  0
  3  7  1  0  0  0
  4  5  2  0  0  0
  5  6  1  0  0  0
  6  7  2  0  0  0
  6 14  1  0  0  0
  7  8  1  0  0  0
  8  9  1  0  0  0
  9 10  1  0  0  0
  9 13  1  0  0  0
 10 17  2  0  0  0
 11 12  1  0  0  0
 12 13  2  0  0  0
 13 14  1  0  0  0
 14 15  1  0  0  0
 14 16  1  0  0  0
 16 17  1  0  0  0
 17 18  1  0  0  0
  3 19  1  0  0  0
 15 20  1  0  0  0
 15 21  1  0  0  0
M  END
> <minimizedAffinity>
-10.53745

$$$$
1GPK_HUP_A_1540


 21 23  0  0  0  0  0  0  0  0999 V2000
    4.6379   63.2138   63.2760 C   0  0  0  0  0  0  0  0  0  0  0  0
    5.1588   62.1756   62.7869 O   0  0  0  0  0  0  0  0  0  0  0  0
    4.9800   64.4707   62.7713 N   0  0  0  0  0  0  0  0  0  0  0  0
    3.6708   63.2067   64.3648 C   0  0  0  0  0  0  0  0  0  0  0  0
    3.1496   64.3892   64.8491 C   0  0  0  0  0  0  0  0  0  0  0  0
    3.5183   65.6881   64.3152 C   0  0  0  0  0  0  0  0  0  0  0  0
    4.4623   65.6973   63.2393 C   0  0  0  0  0  0  0  0  0  0  0  0
    4.9641   66.9505   62.5605 C   0  0  0  0  0  0  0  0  0  0  0  0
    4.2880   68.2822   63.1137 C   0  0  0  0  0  0  0  0  0  0  0  0
    2.9668   68.6094   62.3867 C   0  0  0  0  0  0  0  0  0  0  0  0
    5.5620   69.9441   65.4981 C   0  0  0  0  0  0  0  0  0  0  0  0
    4.5284   68.8640   65.6048 C   0  0  0  0  0  0  0  0  0  0  0  0
    3.9922   68.1479   64.6253 C   0  0  0  0  0  0  0  0  0  0  0  0
    2.9268   67.0546   64.8768 C   0  0  0  0  0  0  0  0  0  0  0  0
    2.6283   66.9128   66.3295 N   0  0  0  0  0  0  0  0  0  0  0  0
    1.6032   67.4190   64.1425 C   0  0  0  0  0  0  0  0  0  0  0  0
    1.7502   68.2150   62.8578 C   0  0  0  0  0  0  0  0  0  0  0  0
    0.4411   68.5325   62.1671 C   0  0  0  0  0  0  0  0  0  0  0  0
    5.6313   64.5033   62.0337 H   0  0  0  0  0  0  0  0  0  0  0  0
    3.4839   66.6735   66.8307 H   0  0  0  0  0  0  0  0  0  0  0  0
    1.9376   66.1744   66.4642 H   0  0  0  0  0  0  0  0  0  0  0  0
  1  2  2  0  0  0
  1  3  1  0  0  0
  1  4  1  0  0  0
  3  7  1  0  0  0
  4  5  2  0  0  0
  5  6  1  0  0  0
  6  7  2  0  0  0
  6 14  1  0  0  0
  7  8  1  0  0  0
  8  9  1  0  0  0
  9 10  1  0  0  0
  9 13  1  0  0  0
 10 17  2  0  0  0
 11 12  1  0  0  0
 12 13  2  0  0  0
 13 14  1  0  0  0
 14 15  1  0  0  0
 14 16  1  0  0  0
 16 17  1  0  0  0
 17 18  1  0  0  0
  3 19  1  0  0  0
 15 20  1  0  0  0
 15 21  1  0  0  0
M  END
> <minimizedAffinity>
-10.42565

$$$$
1GPK_HUP_A_1540


 21 23  0  0  0  0  0  0  0  0999 V2000
    1.1616   68.7633   60.5382 C   0  0  0  0  0  0  0  0  0  0  0  0
    0.1364   69.1832   59.9373 O   0  0  0  0  0  0  0  0  0  0  0  0
    1.2036   68.7687   61.9346 N   0  0  0  0  0  0  0  0  0  0  0  0
    2.3493   68.2528   59.8675 C   0  0  0  0  0  0  0  0  0  0  0  0
    3.4353   67.8158   60.5982 C   0  0  0  0  0  0  0  0  0  0  0  0
    3.4641   67.8310   62.0498 C   0  0  0  0  0  0  0  0  0  0  0  0
    2.2947   68.3244   62.7115 C   0  0  0  0  0  0  0  0  0  0  0  0
    2.1433   68.4165   64.2120 C   0  0  0  0  0  0  0  0  0  0  0  0
    3.3974   67.8443   65.0097 C   0  0  0  0  0  0  0  0  0  0  0  0
    3.2885   66.3244   65.2523 C   0  0  0  0  0  0  0  0  0  0  0  0
    5.8224   69.6990   65.8758 C   0  0  0  0  0  0  0  0  0  0  0  0
    5.7110   68.8913   64.6183 C   0  0  0  0  0  0  0  0  0  0  0  0
    4.7034   68.1210   64.2295 C   0  0  0  0  0  0  0  0  0  0  0  0
    4.7178   67.3366   62.8961 C   0  0  0  0  0  0  0  0  0  0  0  0
    5.9711   67.5906   62.1315 N   0  0  0  0  0  0  0  0  0  0  0  0
    4.6201   65.8078   63.1741 C   0  0  0  0  0  0  0  0  0  0  0  0
    3.8453   65.4036   64.4158 C   0  0  0  0  0  0  0  0  0  0  0  0
    3.7597   63.9088   64.6388 C   0  0  0  0  0  0  0  0  0  0  0  0
    0.4126   69.1080   62.4125 H   0  0  0  0  0  0  0  0  0  0  0  0
    6.0551   68.5886   61.9383 H   0  0  0  0  0  0  0  0  0  0  0  0
    5.9431   67.0752   61.2518 H   0  0  0  0  0  0  0  0  0  0  0  0
  1  2  2  0  0  0
  1  3  1  0  0  0
  1  4  1  0  0  0
  3  7  1  0  0  0
  4  5  2  0  0  0
  5  6  1  0  0  0
  6  7  2  0  0  0
  6 14  1  0  0  0
  7  8  1  0  0  0
  8  9  1  0  0  0
  9 10  1  0  0  0
  9 13  1  0  0  0
 10 17  2  0  0  0
 11 12  1  0  0  0
 12 13  2  0  0  0
 13 14  1  0  0  0
 14 15  1  0  0  0
 14 16  1  0  0  0
 16 17  1  0  0  0
 17 18  1  0  0  0
  3 19  1  0  0  0
 15 20  1  0  0  0
 15 21  1  0  0  0
M  END
> <minimizedAffinity>
-9.83642

$$$$
1GPK_HUP_A_1540


 21 23  0  0  0  0  0  0  0  0999 V2000
   -0.6595   68.1927   63.7037 C   0  0  0  0  0  0  0  0  0  0  0  0
   -1.8857   68.3051   63.9727 O   0  0  0  0  0  0  0  0  0  0  0  0
    0.2596   67.9444   64.7260 N   0  0  0  0  0  0  0  0  0  0  0  0
   -0.1046   68.3039   62.3618 C   0  0  0  0  0  0  0  0  0  0  0  0
    1.2528   68.1738   62.1501 C   0  0  0  0  0  0  0  0  0  0  0  0
    2.1954   67.9188   63.2246 C   0  0  0  0  0  0  0  0  0  0  0  0
    1.6515   67.8007   64.5433 C   0  0  0  0  0  0  0  0  0  0  0  0
    2.4764   67.5385   65.7818 C   0  0  0  0  0  0  0  0  0  0  0  0
    4.0265   67.3358   65.4770 C   0  0  0  0  0  0  0  0  0  0  0  0
    4.3654   65.8698   65.1351 C   0  0  0  0  0  0  0  0  0  0  0  0
    6.0744   69.7597   65.5170 C   0  0  0  0  0  0  0  0  0  0  0  0
    5.3320   69.2277   64.3287 C   0  0  0  0  0  0  0  0  0  0  0  0
    4.4626   68.2263   64.2907 C   0  0  0  0  0  0  0  0  0  0  0  0
    3.7625   67.7772   62.9862 C   0  0  0  0  0  0  0  0  0  0  0  0
    4.1730   68.6245   61.8315 N   0  0  0  0  0  0  0  0  0  0  0  0
    4.1339   66.3006   62.6612 C   0  0  0  0  0  0  0  0  0  0  0  0
    4.4128   65.4045   63.8549 C   0  0  0  0  0  0  0  0  0  0  0  0
    4.7523   63.9738   63.4953 C   0  0  0  0  0  0  0  0  0  0  0  0
   -0.0900   67.8637   65.6428 H   0  0  0  0  0  0  0  0  0  0  0  0
    3.9382   69.5983   62.0238 H   0  0  0  0  0  0  0  0  0  0  0  0
    3.6825   68.3160   60.9920 H   0  0  0  0  0  0  0  0  0  0  0  0
  1  2  2  0  0  0
  1  3  1  0  0  0
  1  4  1  0  0  0
  3  7  1  0  0  0
  4  5  2  0  0  0
  5  6  1  0  0  0
  6  7  2  0  0  0
  6 14  1  0  0  0
  7  8  1  0  0  0
  8  9  1  0  0  0
  9 10  1  0  0  0
  9 13  1  0  0  0
 10 17  2  0  0  0
 11 12  1  0  0  0
 12 13  2  0  0  0
 13 14  1  0  0  0
 14 15  1  0  0  0
 14 16  1  0  0  0
 16 17  1  0  0  0
 17 18  1  0  0  0
  3 19  1  0  0  0
 15 20  1  0  0  0
 15 21  1  0  0  0
M  END
> <minimizedAffinity>
-9.48767

$$$$
1GPK_HUP_A_1540


 21 23  0  0  0  0  0  0  0  0999 V2000
    3.6765   63.4801   65.1498 C   0  0  0  0  0  0  0  0  0  0  0  0
    3.5311   62.4497   65.8610 O   0  0  0  0  0  0  0  0  0  0  0  0
    3.0386   64.6705   65.5068 N   0  0  0  0  0  0  0  0  0  0  0  0
    4.4880   63.5302   63.9415 C   0  0  0  0  0  0  0  0  0  0  0  0
    4.5924   64.6978   63.2135 C   0  0  0  0  0  0  0  0  0  0  0  0
    3.9199   65.9263   63.5967 C   0  0  0  0  0  0  0  0  0  0  0  0
    3.1286   65.8820   64.7886 C   0  0  0  0  0  0  0  0  0  0  0  0
    2.3575   67.0585   65.3403 C   0  0  0  0  0  0  0  0  0  0  0  0
    2.5592   68.3960   64.4994 C   0  0  0  0  0  0  0  0  0  0  0  0
    3.7960   69.1937   64.9627 C   0  0  0  0  0  0  0  0  0  0  0  0
    0.6224   69.1839   62.1122 C   0  0  0  0  0  0  0  0  0  0  0  0
    1.9078   68.4195   62.0139 C   0  0  0  0  0  0  0  0  0  0  0  0
    2.7254   68.0677   62.9976 C   0  0  0  0  0  0  0  0  0  0  0  0
    4.0302   67.2725   62.7551 C   0  0  0  0  0  0  0  0  0  0  0  0
    4.2072   66.9488   61.3117 N   0  0  0  0  0  0  0  0  0  0  0  0
    5.2593   68.1075   63.2197 C   0  0  0  0  0  0  0  0  0  0  0  0
    5.0200   69.0591   64.3786 C   0  0  0  0  0  0  0  0  0  0  0  0
    6.2445   69.8378   64.8096 C   0  0  0  0  0  0  0  0  0  0  0  0
    2.4845   64.6638   66.3206 H   0  0  0  0  0  0  0  0  0  0  0  0
    3.4110   66.4006   60.9860 H   0  0  0  0  0  0  0  0  0  0  0  0
    5.0645   66.4106   61.1865 H   0  0  0  0  0  0  0  0  0  0  0  0
  1  2  2  0  0  0
  1  3  1  0  0  0
  1  4  1  0  0  0
  3  7  1  0  0  0
  4  5  2  0  0  0
  5  6  1  0  0  0
  6  7  2  0  0  0
  6 14  1  0  0  0
  7  8  1  0  0  0
  8  9  1  0  0  0
  9 10  1  0  0  0
  9 13  1  0  0  0
 10 17  2  0  0  0
 11 12  1  0  0  0
 12 13  2  0  0  0
 13 14  1  0  0  0
 14 15  1  0  0  0
 14 16  1  0  0  0
 16 17  1  0  0  0
 17 18  1  0  0  0
  3 19  1  0  0  0
 15 20  1  0  0  0
 15 21  1  0  0  0
M  END
> <minimizedAffinity>
-9.22327

$$$$
1GPK_HUP_A_1540


 21 23  0  0  0  0  0  0  0  0999 V2000
    5.9061   70.1293   65.8276 C   0  0  0  0  0  0  0  0  0  0  0  0
    6.8082   70.8680   66.3063 O   0  0  0  0  0  0  0  0  0  0  0  0
    6.0698   69.5571   64.5638 N   0  0  0  0  0  0  0  0  0  0  0  0
    4.6611   69.8122   66.5136 C   0  0  0  0  0  0  0  0  0  0  0  0
    3.7190   68.9982   65.9186 C   0  0  0  0  0  0  0  0  0  0  0  0
    3.9035   68.4136   64.6024 C   0  0  0  0  0  0  0  0  0  0  0  0
    5.1299   68.7169   63.9296 C   0  0  0  0  0  0  0  0  0  0  0  0
    5.4955   68.2016   62.5571 C   0  0  0  0  0  0  0  0  0  0  0  0
    4.4043   67.2192   61.9400 C   0  0  0  0  0  0  0  0  0  0  0  0
    4.6275   65.7554   62.3738 C   0  0  0  0  0  0  0  0  0  0  0  0
    2.0391   68.2783   60.1084 C   0  0  0  0  0  0  0  0  0  0  0  0
    2.0065   68.0749   61.5929 C   0  0  0  0  0  0  0  0  0  0  0  0
    2.9850   67.6469   62.3798 C   0  0  0  0  0  0  0  0  0  0  0  0
    2.8157   67.4818   63.9087 C   0  0  0  0  0  0  0  0  0  0  0  0
    1.4519   67.8883   64.3499 N   0  0  0  0  0  0  0  0  0  0  0  0
    3.0336   65.9942   64.3132 C   0  0  0  0  0  0  0  0  0  0  0  0
    4.0029   65.2038   63.4523 C   0  0  0  0  0  0  0  0  0  0  0  0
    4.1989   63.7681   63.8906 C   0  0  0  0  0  0  0  0  0  0  0  0
    6.9036   69.7548   64.0791 H   0  0  0  0  0  0  0  0  0  0  0  0
    1.2880   68.8621   64.0942 H   0  0  0  0  0  0  0  0  0  0  0  0
    1.3772   67.7854   65.3619 H   0  0  0  0  0  0  0  0  0  0  0  0
  1  2  2  0  0  0
  1  3  1  0  0  0
  1  4  1  0  0  0
  3  7  1  0  0  0
  4  5  2  0  0  0
  5  6  1  0  0  0
  6  7  2  0  0  0
  6 14  1  0  0  0
  7  8  1  0  0  0
  8  9  1  0  0  0
  9 10  1  0  0  0
  9 13  1  0  0  0
 10 17  2  0  0  0
 11 12  1  0  0  0
 12 13  2  0  0  0
 13 14  1  0  0  0
 14 15  1  0  0  0
 14 16  1  0  0  0
 16 17  1  0  0  0
 17 18  1  0  0  0
  3 19  1  0  0  0
 15 20  1  0  0  0
 15 21  1  0  0  0
M  END
> <minimizedAffinity>
-8.59826

$$$$
1GPK_HUP_A_1540


 21 23  0  0  0  0  0  0  0  0999 V2000
    5.8371   70.2099   65.8103 C   0  0  0  0  0  0  0  0  0  0  0  0
    6.2540   71.0095   66.6910 O   0  0  0  0  0  0  0  0  0  0  0  0
    4.7640   69.3605   66.0904 N   0  0  0  0  0  0  0  0  0  0  0  0
    6.4054   70.0983   64.4741 C   0  0  0  0  0  0  0  0  0  0  0  0
    5.8948   69.1924   63.5670 C   0  0  0  0  0  0  0  0  0  0  0  0
    4.7805   68.3140   63.8753 C   0  0  0  0  0  0  0  0  0  0  0  0
    4.2146   68.4277   65.1851 C   0  0  0  0  0  0  0  0  0  0  0  0
    3.0549   67.5976   65.6841 C   0  0  0  0  0  0  0  0  0  0  0  0
    2.4632   66.6120   64.5818 C   0  0  0  0  0  0  0  0  0  0  0  0
    1.3910   67.2942   63.7067 C   0  0  0  0  0  0  0  0  0  0  0  0
    3.5072   63.6323   64.2627 C   0  0  0  0  0  0  0  0  0  0  0  0
    4.0028   64.8431   63.5316 C   0  0  0  0  0  0  0  0  0  0  0  0
    3.5915   66.0981   63.6581 C   0  0  0  0  0  0  0  0  0  0  0  0
    4.1944   67.2615   62.8355 C   0  0  0  0  0  0  0  0  0  0  0  0
    5.2832   66.7832   61.9379 N   0  0  0  0  0  0  0  0  0  0  0  0
    3.0928   67.9201   61.9542 C   0  0  0  0  0  0  0  0  0  0  0  0
    1.6819   67.8870   62.5144 C   0  0  0  0  0  0  0  0  0  0  0  0
    0.6455   68.5534   61.6349 C   0  0  0  0  0  0  0  0  0  0  0  0
    4.3607   69.4168   66.9868 H   0  0  0  0  0  0  0  0  0  0  0  0
    6.0171   66.3472   62.4961 H   0  0  0  0  0  0  0  0  0  0  0  0
    5.6715   67.5738   61.4235 H   0  0  0  0  0  0  0  0  0  0  0  0
  1  2  2  0  0  0
  1  3  1  0  0  0
  1  4  1  0  0  0
  3  7  1  0  0  0
  4  5  2  0  0  0
  5  6  1  0  0  0
  6  7  2  0  0  0
  6 14  1  0  0  0
  7  8  1  0  0  0
  8  9  1  0  0  0
  9 10  1  0  0  0
  9 13  1  0  0  0
 10 17  2  0  0  0
 11 12  1  0  0  0
 12 13  2  0  0  0
 13 14  1  0  0  0
 14 15  1  0  0  0
 14 16  1  0  0  0
 16 17  1  0  0  0
 17 18  1  0  0  0
  3 19  1  0  0  0
 15 20  1  0  0  0
 15 21  1  0  0  0
M  END
> <minimizedAffinity>
-8.45347

$$$$
1GPK_HUP_A_1540


 21 23  0  0  0  0  0  0  0  0999 V2000
    2.4742   69.7059   67.6566 C   0  0  0  0  0  0  0  0  0  0  0  0
    2.6926   70.4404   68.6573 O   0  0  0  0  0  0  0  0  0  0  0  0
    3.5054   69.4283   66.7560 N   0  0  0  0  0  0  0  0  0  0  0  0
    1.1847   69.1001   67.3545 C   0  0  0  0  0  0  0  0  0  0  0  0
    1.0248   68.3110   66.2338 C   0  0  0  0  0  0  0  0  0  0  0  0
    2.1066   68.0348   65.3056 C   0  0  0  0  0  0  0  0  0  0  0  0
    3.3771   68.6221   65.6049 C   0  0  0  0  0  0  0  0  0  0  0  0
    4.6146   68.4476   64.7556 C   0  0  0  0  0  0  0  0  0  0  0  0
    4.3941   67.4806   63.5094 C   0  0  0  0  0  0  0  0  0  0  0  0
    4.6293   65.9997   63.8732 C   0  0  0  0  0  0  0  0  0  0  0  0
    3.4935   68.5805   60.6722 C   0  0  0  0  0  0  0  0  0  0  0  0
    2.6023   68.0768   61.7668 C   0  0  0  0  0  0  0  0  0  0  0  0
    2.9547   67.6258   62.9636 C   0  0  0  0  0  0  0  0  0  0  0  0
    1.9243   67.1329   64.0071 C   0  0  0  0  0  0  0  0  0  0  0  0
    0.5308   67.2643   63.4965 N   0  0  0  0  0  0  0  0  0  0  0  0
    2.1789   65.6342   64.3433 C   0  0  0  0  0  0  0  0  0  0  0  0
    3.6202   65.1654   64.2514 C   0  0  0  0  0  0  0  0  0  0  0  0
    3.8257   63.7074   64.6033 C   0  0  0  0  0  0  0  0  0  0  0  0
    4.3879   69.8249   66.9380 H   0  0  0  0  0  0  0  0  0  0  0  0
    0.3425   68.2408   63.2696 H   0  0  0  0  0  0  0  0  0  0  0  0
   -0.1245   66.9490   64.2117 H   0  0  0  0  0  0  0  0  0  0  0  0
  1  2  2  0  0  0
  1  3  1  0  0  0
  1  4  1  0  0  0
  3  7  1  0  0  0
  4  5  2  0  0  0
  5  6  1  0  0  0
  6  7  2  0  0  0
  6 14  1  0  0  0
  7  8  1  0  0  0
  8  9  1  0  0  0
  9 10  1  0  0  0
  9 13  1  0  0  0
 10 17  2  0  0  0
 11 12  1  0  0  0
 12 13  2  0  0  0
 13 14  1  0  0  0
 14 15  1  0  0  0
 14 16  1  0  0  0
 16 17  1  0  0  0
 17 18  1  0  0  0
  3 19  1  0  0  0
 15 20  1  0  0  0
 15 21  1  0  0  0
M  END
> <minimizedAffinity>
-7.86204

$$$$
