4ZEI_LAO_A_601
  RCSB PDB12061716373D
Coordinates from PDB:4ZEI:A:601 Model:1 without hydrogens
 14 14  0  0  0  0            999 V2000
  -17.4160  -25.4000   20.4820   O 0  0  0  0  0  0  0  0  0  0  0  0
  -16.9090  -26.8400   20.1720   P 0  0  0  0  0  0  0  0  0  0  0  0
  -18.0530  -27.8500   20.3410   O 0  0  0  0  0  0  0  0  0  0  0  0
  -15.7720  -27.1370   21.1450   O 0  0  0  0  0  0  0  0  0  0  0  0
  -16.3660  -26.8670   18.6770   O 0  0  0  0  0  0  0  0  0  0  0  0
  -16.0840  -28.0300   17.8800   C 0  0  0  0  0  0  0  0  0  0  0  0
  -14.6780  -28.2700   17.8580   C 0  0  0  0  0  0  0  0  0  0  0  0
  -14.1430  -28.6540   19.1900   O 0  0  0  0  0  0  0  0  0  0  0  0
  -14.2270  -29.2210   16.9040   C 0  0  0  0  0  0  0  0  0  0  0  0
  -14.5700  -30.5410   17.3340   O 0  0  0  0  0  0  0  0  0  0  0  0
  -14.8030  -29.0240   15.5130   C 0  0  0  0  0  0  0  0  0  0  0  0
  -16.1690  -28.7470   15.5360   O 0  0  0  0  0  0  0  0  0  0  0  0
  -16.5550  -27.7510   16.4610   C 0  0  0  0  0  0  0  0  0  0  0  0
  -17.8960  -27.5320   16.3590   O 0  0  0  0  0  0  0  0  0  0  0  0
 11 12  1  0  0  0  0
 11  9  1  0  0  0  0
 12 13  1  0  0  0  0
 14 13  1  0  0  0  0
 13  6  1  0  0  0  0
  9 10  1  0  0  0  0
  9  7  1  0  0  0  0
  7  6  1  0  0  0  0
  7  8  1  0  0  0  0
  6  5  1  0  0  0  0
  5  2  1  0  0  0  0
  2  3  2  0  0  0  0
  2  4  1  0  0  0  0
  2  1  1  0  0  0  0
A    1
OP2
A    2
P
A    3
OP1
A    4
OP3
A    5
O2
A    6
C2
A    7
C3
A    8
O3
A    9
C4
A   10
O4
A   11
C5
A   12
O5
A   13
C1
A   14
O1
M  END
>  <InstanceId>
4ZEI_LAO_A_601

>  <ChemCompId>
LAO

>  <PdbId>
4ZEI

>  <ChainId>
A

>  <ResidueNumber>
601

>  <InsertionCode>


>  <Model>
1

>  <AltIds>


>  <MissingHeavyAtoms>
0

>  <ObservedFormula>
C5 O8 P

>  <Name>
2-O-phosphono-alpha-L-arabinopyranose

>  <SystematicName>
[(2R,3R,4S,5S)-2,4,5-tris(oxidanyl)oxan-3-yl] dihydrogen phosphate

>  <Synonyms>


>  <Type>
SACCHARIDE

>  <Formula>
C5 H11 O8 P

>  <MolecularWeight>
230.11

>  <ModifiedDate>
2015-08-14

>  <Parent>


>  <OneLetterCode>


>  <SubcomponentList>


>  <AmbiguousFlag>
N

>  <InChI>
InChI=1S/C5H11O8P/c6-2-1-12-5(8)4(3(2)7)13-14(9,10)11/h2-8H,1H2,(H2,9,10,11)/t2-,3-,4+,5+/m0/s1

>  <InChIKey>
QIAIUTJEZJIPSH-QMKXCQHVSA-N

>  <SMILES>
C1[C@@H]([C@@H]([C@H]([C@@H](O1)O)OP(=O)(O)O)O)O

$$$$
