4ZEI_LAO_A_601


 19 19  0  0  0  0  0  0  0  0999 V2000
  -15.9158  -28.0283   17.8253 C   0  0  0  0  0  0  0  0  0  0  0  0
  -14.5091  -27.8871   17.6356 C   0  0  0  0  0  0  0  0  0  0  0  0
  -13.7506  -27.9573   18.9114 O   0  0  0  0  0  0  0  0  0  0  0  0
  -13.9152  -28.7885   16.7123 C   0  0  0  0  0  0  0  0  0  0  0  0
  -13.8303  -30.0928   17.2924 O   0  0  0  0  0  0  0  0  0  0  0  0
  -14.6671  -28.9150   15.3992 C   0  0  0  0  0  0  0  0  0  0  0  0
  -16.0458  -29.0102   15.5815 O   0  0  0  0  0  0  0  0  0  0  0  0
  -16.5933  -28.0518   16.4638 C   0  0  0  0  0  0  0  0  0  0  0  0
  -17.9452  -28.2103   16.5241 O   0  0  0  0  0  0  0  0  0  0  0  0
  -13.8271  -28.8495   19.2844 H   0  0  0  0  0  0  0  0  0  0  0  0
  -14.7236  -30.4255   17.4722 H   0  0  0  0  0  0  0  0  0  0  0  0
  -18.1522  -29.0889   16.8792 H   0  0  0  0  0  0  0  0  0  0  0  0
  -16.4239  -26.8974   18.5534 O   0  0  0  0  0  0  0  0  0  0  0  0
  -17.9404  -28.1117   20.2083 O   0  0  0  0  0  0  0  0  0  0  0  0
  -16.9865  -26.8914   20.0414 P   0  0  0  0  0  0  0  0  0  0  0  0
  -15.8306  -26.9837   21.0477 O   0  0  0  0  0  0  0  0  0  0  0  0
  -17.8170  -25.6339   20.2796 O   0  0  0  0  0  0  0  0  0  0  0  0
  -17.4440  -28.9323   20.0632 H   0  0  0  0  0  0  0  0  0  0  0  0
  -17.2529  -24.8508   20.1833 H   0  0  0  0  0  0  0  0  0  0  0  0
  6  7  1  0  0  0
  6  4  1  0  0  0
  7  8  1  0  0  0
  9  8  1  0  0  0
  8  1  1  0  0  0
  4  5  1  0  0  0
  4  2  1  0  0  0
  2  1  1  0  0  0
  2  3  1  0  0  0
  1 13  1  0  0  0
 13 15  1  0  0  0
 15 16  2  0  0  0
 15 17  1  0  0  0
 15 14  1  0  0  0
 14 18  1  0  0  0
 17 19  1  0  0  0
  3 10  1  0  0  0
  5 11  1  0  0  0
  9 12  1  0  0  0
M  END
> <minimizedAffinity>
-8.31648

$$$$
4ZEI_LAO_A_601


 19 19  0  0  0  0  0  0  0  0999 V2000
  -15.8901  -28.0482   17.8118 C   0  0  0  0  0  0  0  0  0  0  0  0
  -14.4846  -27.9089   17.6114 C   0  0  0  0  0  0  0  0  0  0  0  0
  -13.7158  -27.9886   18.8805 O   0  0  0  0  0  0  0  0  0  0  0  0
  -13.9003  -28.8059   16.6777 C   0  0  0  0  0  0  0  0  0  0  0  0
  -13.8136  -30.1139   17.2491 O   0  0  0  0  0  0  0  0  0  0  0  0
  -14.6632  -28.9226   15.3701 C   0  0  0  0  0  0  0  0  0  0  0  0
  -16.0406  -29.0158   15.5631 O   0  0  0  0  0  0  0  0  0  0  0  0
  -16.5787  -28.0617   16.4557 C   0  0  0  0  0  0  0  0  0  0  0  0
  -17.9305  -28.2176   16.5262 O   0  0  0  0  0  0  0  0  0  0  0  0
  -13.7912  -28.8829   19.2486 H   0  0  0  0  0  0  0  0  0  0  0  0
  -14.7061  -30.4457   17.4341 H   0  0  0  0  0  0  0  0  0  0  0  0
  -18.1365  -29.0979   16.8776 H   0  0  0  0  0  0  0  0  0  0  0  0
  -16.3896  -26.9207   18.5510 O   0  0  0  0  0  0  0  0  0  0  0  0
  -15.7790  -27.1793   21.0153 O   0  0  0  0  0  0  0  0  0  0  0  0
  -16.9630  -26.9271   20.0349 P   0  0  0  0  0  0  0  0  0  0  0  0
  -17.6336  -25.5829   20.3521 O   0  0  0  0  0  0  0  0  0  0  0  0
  -17.9461  -28.0808   20.2088 O   0  0  0  0  0  0  0  0  0  0  0  0
  -15.1314  -26.4620   20.9316 H   0  0  0  0  0  0  0  0  0  0  0  0
  -18.6997  -27.9563   19.6109 H   0  0  0  0  0  0  0  0  0  0  0  0
  6  7  1  0  0  0
  6  4  1  0  0  0
  7  8  1  0  0  0
  9  8  1  0  0  0
  8  1  1  0  0  0
  4  5  1  0  0  0
  4  2  1  0  0  0
  2  1  1  0  0  0
  2  3  1  0  0  0
  1 13  1  0  0  0
 13 15  1  0  0  0
 15 16  2  0  0  0
 15 17  1  0  0  0
 15 14  1  0  0  0
 14 18  1  0  0  0
 17 19  1  0  0  0
  3 10  1  0  0  0
  5 11  1  0  0  0
  9 12  1  0  0  0
M  END
> <minimizedAffinity>
-8.21673

$$$$
4ZEI_LAO_A_601


 19 19  0  0  0  0  0  0  0  0999 V2000
  -15.7431  -28.0995   18.1363 C   0  0  0  0  0  0  0  0  0  0  0  0
  -16.6399  -27.0034   18.3081 C   0  0  0  0  0  0  0  0  0  0  0  0
  -17.8703  -27.1376   17.4859 O   0  0  0  0  0  0  0  0  0  0  0  0
  -17.0248  -26.7221   19.6462 C   0  0  0  0  0  0  0  0  0  0  0  0
  -17.9509  -27.7111   20.1036 O   0  0  0  0  0  0  0  0  0  0  0  0
  -15.8677  -26.6834   20.6285 C   0  0  0  0  0  0  0  0  0  0  0  0
  -14.9679  -27.7301   20.4338 O   0  0  0  0  0  0  0  0  0  0  0  0
  -14.5722  -27.9280   19.0918 C   0  0  0  0  0  0  0  0  0  0  0  0
  -13.6601  -28.9385   19.0317 O   0  0  0  0  0  0  0  0  0  0  0  0
  -18.3912  -27.8914   17.8042 H   0  0  0  0  0  0  0  0  0  0  0  0
  -17.5181  -28.5790   20.1142 H   0  0  0  0  0  0  0  0  0  0  0  0
  -14.0685  -29.7617   19.3422 H   0  0  0  0  0  0  0  0  0  0  0  0
  -15.2245  -28.0974   16.7953 O   0  0  0  0  0  0  0  0  0  0  0  0
  -15.0307  -30.6421   16.7904 O   0  0  0  0  0  0  0  0  0  0  0  0
  -14.8278  -29.3656   15.9207 P   0  0  0  0  0  0  0  0  0  0  0  0
  -15.7046  -29.4396   14.6624 O   0  0  0  0  0  0  0  0  0  0  0  0
  -13.3489  -29.3021   15.5512 O   0  0  0  0  0  0  0  0  0  0  0  0
  -15.9639  -30.7150   17.0448 H   0  0  0  0  0  0  0  0  0  0  0  0
  -13.1852  -28.5160   15.0070 H   0  0  0  0  0  0  0  0  0  0  0  0
  6  7  1  0  0  0
  6  4  1  0  0  0
  7  8  1  0  0  0
  9  8  1  0  0  0
  8  1  1  0  0  0
  4  5  1  0  0  0
  4  2  1  0  0  0
  2  1  1  0  0  0
  2  3  1  0  0  0
  1 13  1  0  0  0
 13 15  1  0  0  0
 15 16  2  0  0  0
 15 17  1  0  0  0
 15 14  1  0  0  0
 14 18  1  0  0  0
 17 19  1  0  0  0
  3 10  1  0  0  0
  5 11  1  0  0  0
  9 12  1  0  0  0
M  END
> <minimizedAffinity>
-7.85113

$$$$
4ZEI_LAO_A_601


 19 19  0  0  0  0  0  0  0  0999 V2000
  -15.5794  -27.1391   19.0849 C   0  0  0  0  0  0  0  0  0  0  0  0
  -14.4251  -27.6440   19.7538 C   0  0  0  0  0  0  0  0  0  0  0  0
  -13.2704  -27.8320   18.8377 O   0  0  0  0  0  0  0  0  0  0  0  0
  -13.9857  -26.8974   20.8796 C   0  0  0  0  0  0  0  0  0  0  0  0
  -13.3570  -25.6885   20.4458 O   0  0  0  0  0  0  0  0  0  0  0  0
  -15.0959  -26.5203   21.8444 C   0  0  0  0  0  0  0  0  0  0  0  0
  -16.2400  -26.0670   21.1896 O   0  0  0  0  0  0  0  0  0  0  0  0
  -16.6675  -26.8792   20.1153 C   0  0  0  0  0  0  0  0  0  0  0  0
  -17.8146  -26.3669   19.5875 O   0  0  0  0  0  0  0  0  0  0  0  0
  -12.9694  -26.9680   18.5154 H   0  0  0  0  0  0  0  0  0  0  0  0
  -14.0045  -25.1364   19.9801 H   0  0  0  0  0  0  0  0  0  0  0  0
  -17.6404  -25.4804   19.2346 H   0  0  0  0  0  0  0  0  0  0  0  0
  -16.0726  -28.1215   18.1581 O   0  0  0  0  0  0  0  0  0  0  0  0
  -16.0638  -26.4779   16.2059 O   0  0  0  0  0  0  0  0  0  0  0  0
  -16.5968  -27.8633   16.6785 P   0  0  0  0  0  0  0  0  0  0  0  0
  -16.0992  -28.9693   15.7370 O   0  0  0  0  0  0  0  0  0  0  0  0
  -18.1206  -27.7866   16.6713 O   0  0  0  0  0  0  0  0  0  0  0  0
  -15.0939  -26.4902   16.1981 H   0  0  0  0  0  0  0  0  0  0  0  0
  -18.4885  -28.6359   16.9616 H   0  0  0  0  0  0  0  0  0  0  0  0
  6  7  1  0  0  0
  6  4  1  0  0  0
  7  8  1  0  0  0
  9  8  1  0  0  0
  8  1  1  0  0  0
  4  5  1  0  0  0
  4  2  1  0  0  0
  2  1  1  0  0  0
  2  3  1  0  0  0
  1 13  1  0  0  0
 13 15  1  0  0  0
 15 16  2  0  0  0
 15 17  1  0  0  0
 15 14  1  0  0  0
 14 18  1  0  0  0
 17 19  1  0  0  0
  3 10  1  0  0  0
  5 11  1  0  0  0
  9 12  1  0  0  0
M  END
> <minimizedAffinity>
-7.09224

$$$$
4ZEI_LAO_A_601


 19 19  0  0  0  0  0  0  0  0999 V2000
  -15.5234  -27.9327   18.7321 C   0  0  0  0  0  0  0  0  0  0  0  0
  -14.4216  -28.4678   18.0009 C   0  0  0  0  0  0  0  0  0  0  0  0
  -13.4997  -29.2602   18.8553 O   0  0  0  0  0  0  0  0  0  0  0  0
  -14.7549  -29.2467   16.8607 C   0  0  0  0  0  0  0  0  0  0  0  0
  -15.2589  -30.5201   17.2724 O   0  0  0  0  0  0  0  0  0  0  0  0
  -15.7948  -28.6085   15.9570 C   0  0  0  0  0  0  0  0  0  0  0  0
  -16.8511  -28.0475   16.6730 O   0  0  0  0  0  0  0  0  0  0  0  0
  -16.4621  -27.2337   17.7607 C   0  0  0  0  0  0  0  0  0  0  0  0
  -17.5703  -26.7041   18.3505 O   0  0  0  0  0  0  0  0  0  0  0  0
  -13.9546  -30.0573   19.1693 H   0  0  0  0  0  0  0  0  0  0  0  0
  -16.0790  -30.3960   17.7752 H   0  0  0  0  0  0  0  0  0  0  0  0
  -18.1229  -27.4198   18.7018 H   0  0  0  0  0  0  0  0  0  0  0  0
  -15.0520  -26.9541   19.6742 O   0  0  0  0  0  0  0  0  0  0  0  0
  -16.9365  -26.8167   21.3895 O   0  0  0  0  0  0  0  0  0  0  0  0
  -15.3885  -26.8811   21.2272 P   0  0  0  0  0  0  0  0  0  0  0  0
  -14.8330  -28.1161   21.9508 O   0  0  0  0  0  0  0  0  0  0  0  0
  -14.8187  -25.5978   21.8242 O   0  0  0  0  0  0  0  0  0  0  0  0
  -17.3341  -27.6202   21.0191 H   0  0  0  0  0  0  0  0  0  0  0  0
  -13.8524  -25.6035   21.7403 H   0  0  0  0  0  0  0  0  0  0  0  0
  6  7  1  0  0  0
  6  4  1  0  0  0
  7  8  1  0  0  0
  9  8  1  0  0  0
  8  1  1  0  0  0
  4  5  1  0  0  0
  4  2  1  0  0  0
  2  1  1  0  0  0
  2  3  1  0  0  0
  1 13  1  0  0  0
 13 15  1  0  0  0
 15 16  2  0  0  0
 15 17  1  0  0  0
 15 14  1  0  0  0
 14 18  1  0  0  0
 17 19  1  0  0  0
  3 10  1  0  0  0
  5 11  1  0  0  0
  9 12  1  0  0  0
M  END
> <minimizedAffinity>
-6.99635

$$$$
4ZEI_LAO_A_601


 19 19  0  0  0  0  0  0  0  0999 V2000
  -14.6650  -27.8119   18.4833 C   0  0  0  0  0  0  0  0  0  0  0  0
  -13.6739  -28.8311   18.3664 C   0  0  0  0  0  0  0  0  0  0  0  0
  -13.3504  -29.1541   16.9526 O   0  0  0  0  0  0  0  0  0  0  0  0
  -12.4573  -28.5943   19.0605 C   0  0  0  0  0  0  0  0  0  0  0  0
  -11.6920  -27.5998   18.3746 O   0  0  0  0  0  0  0  0  0  0  0  0
  -12.6424  -28.1277   20.4935 C   0  0  0  0  0  0  0  0  0  0  0  0
  -13.6406  -27.1623   20.6151 O   0  0  0  0  0  0  0  0  0  0  0  0
  -14.8501  -27.4758   19.9551 C   0  0  0  0  0  0  0  0  0  0  0  0
  -15.7612  -26.4889   20.1842 O   0  0  0  0  0  0  0  0  0  0  0  0
  -12.9210  -28.3902   16.5365 H   0  0  0  0  0  0  0  0  0  0  0  0
  -12.1798  -26.7614   18.3720 H   0  0  0  0  0  0  0  0  0  0  0  0
  -15.4331  -25.6539   19.8155 H   0  0  0  0  0  0  0  0  0  0  0  0
  -15.9213  -28.2955   17.9781 O   0  0  0  0  0  0  0  0  0  0  0  0
  -16.2130  -26.4615   16.2277 O   0  0  0  0  0  0  0  0  0  0  0  0
  -16.5987  -27.9275   16.5866 P   0  0  0  0  0  0  0  0  0  0  0  0
  -16.1132  -28.8847   15.4887 O   0  0  0  0  0  0  0  0  0  0  0  0
  -18.1180  -27.9748   16.7178 O   0  0  0  0  0  0  0  0  0  0  0  0
  -15.2497  -26.3938   16.1361 H   0  0  0  0  0  0  0  0  0  0  0  0
  -18.3952  -28.8770   16.9418 H   0  0  0  0  0  0  0  0  0  0  0  0
  6  7  1  0  0  0
  6  4  1  0  0  0
  7  8  1  0  0  0
  9  8  1  0  0  0
  8  1  1  0  0  0
  4  5  1  0  0  0
  4  2  1  0  0  0
  2  1  1  0  0  0
  2  3  1  0  0  0
  1 13  1  0  0  0
 13 15  1  0  0  0
 15 16  2  0  0  0
 15 17  1  0  0  0
 15 14  1  0  0  0
 14 18  1  0  0  0
 17 19  1  0  0  0
  3 10  1  0  0  0
  5 11  1  0  0  0
  9 12  1  0  0  0
M  END
> <minimizedAffinity>
-6.86219

$$$$
4ZEI_LAO_A_601


 19 19  0  0  0  0  0  0  0  0999 V2000
  -14.6496  -28.4784   18.3285 C   0  0  0  0  0  0  0  0  0  0  0  0
  -14.4899  -28.3706   16.9151 C   0  0  0  0  0  0  0  0  0  0  0  0
  -13.3996  -29.2362   16.3956 O   0  0  0  0  0  0  0  0  0  0  0  0
  -15.6566  -28.6077   16.1402 C   0  0  0  0  0  0  0  0  0  0  0  0
  -15.9531  -30.0066   16.1237 O   0  0  0  0  0  0  0  0  0  0  0  0
  -16.8913  -27.8797   16.6410 C   0  0  0  0  0  0  0  0  0  0  0  0
  -17.0252  -27.9483   18.0268 O   0  0  0  0  0  0  0  0  0  0  0  0
  -15.8499  -27.6450   18.7503 C   0  0  0  0  0  0  0  0  0  0  0  0
  -16.1135  -27.6957   20.0862 O   0  0  0  0  0  0  0  0  0  0  0  0
  -13.6430  -30.1679   16.5124 H   0  0  0  0  0  0  0  0  0  0  0  0
  -16.1509  -30.3058   17.0250 H   0  0  0  0  0  0  0  0  0  0  0  0
  -16.3839  -28.5952   20.3285 H   0  0  0  0  0  0  0  0  0  0  0  0
  -13.4882  -27.9491   18.9906 O   0  0  0  0  0  0  0  0  0  0  0  0
  -12.0131  -30.0264   19.1370 O   0  0  0  0  0  0  0  0  0  0  0  0
  -12.4612  -28.7478   19.9059 P   0  0  0  0  0  0  0  0  0  0  0  0
  -11.2423  -27.8713   20.2278 O   0  0  0  0  0  0  0  0  0  0  0  0
  -13.1529  -29.2098   21.1848 O   0  0  0  0  0  0  0  0  0  0  0  0
  -11.5675  -29.7696   18.3146 H   0  0  0  0  0  0  0  0  0  0  0  0
  -13.4465  -28.4363   21.6912 H   0  0  0  0  0  0  0  0  0  0  0  0
  6  7  1  0  0  0
  6  4  1  0  0  0
  7  8  1  0  0  0
  9  8  1  0  0  0
  8  1  1  0  0  0
  4  5  1  0  0  0
  4  2  1  0  0  0
  2  1  1  0  0  0
  2  3  1  0  0  0
  1 13  1  0  0  0
 13 15  1  0  0  0
 15 16  2  0  0  0
 15 17  1  0  0  0
 15 14  1  0  0  0
 14 18  1  0  0  0
 17 19  1  0  0  0
  3 10  1  0  0  0
  5 11  1  0  0  0
  9 12  1  0  0  0
M  END
> <minimizedAffinity>
-6.68502

$$$$
4ZEI_LAO_A_601


 19 19  0  0  0  0  0  0  0  0999 V2000
  -15.2253  -27.2017   17.5323 C   0  0  0  0  0  0  0  0  0  0  0  0
  -14.2654  -27.8957   18.3272 C   0  0  0  0  0  0  0  0  0  0  0  0
  -12.8782  -27.7321   17.8203 O   0  0  0  0  0  0  0  0  0  0  0  0
  -14.2733  -27.5904   19.7145 C   0  0  0  0  0  0  0  0  0  0  0  0
  -13.7006  -26.2981   19.9310 O   0  0  0  0  0  0  0  0  0  0  0  0
  -15.6561  -27.5938   20.3416 C   0  0  0  0  0  0  0  0  0  0  0  0
  -16.6041  -26.9530   19.5455 O   0  0  0  0  0  0  0  0  0  0  0  0
  -16.5919  -27.3377   18.1859 C   0  0  0  0  0  0  0  0  0  0  0  0
  -17.5874  -26.6869   17.5210 O   0  0  0  0  0  0  0  0  0  0  0  0
  -12.6058  -26.8061   17.9168 H   0  0  0  0  0  0  0  0  0  0  0  0
  -14.2459  -25.6254   19.4940 H   0  0  0  0  0  0  0  0  0  0  0  0
  -17.4290  -25.7306   17.5574 H   0  0  0  0  0  0  0  0  0  0  0  0
  -15.2976  -27.7988   16.2263 O   0  0  0  0  0  0  0  0  0  0  0  0
  -15.6926  -29.6891   14.5579 O   0  0  0  0  0  0  0  0  0  0  0  0
  -14.8881  -29.2837   15.8289 P   0  0  0  0  0  0  0  0  0  0  0  0
  -13.3810  -29.3628   15.5468 O   0  0  0  0  0  0  0  0  0  0  0  0
  -15.2855  -30.2494   16.9412 O   0  0  0  0  0  0  0  0  0  0  0  0
  -15.4641  -29.0936   13.8271 H   0  0  0  0  0  0  0  0  0  0  0  0
  -14.8017  -30.0259   17.7516 H   0  0  0  0  0  0  0  0  0  0  0  0
  6  7  1  0  0  0
  6  4  1  0  0  0
  7  8  1  0  0  0
  9  8  1  0  0  0
  8  1  1  0  0  0
  4  5  1  0  0  0
  4  2  1  0  0  0
  2  1  1  0  0  0
  2  3  1  0  0  0
  1 13  1  0  0  0
 13 15  1  0  0  0
 15 16  2  0  0  0
 15 17  1  0  0  0
 15 14  1  0  0  0
 14 18  1  0  0  0
 17 19  1  0  0  0
  3 10  1  0  0  0
  5 11  1  0  0  0
  9 12  1  0  0  0
M  END
> <minimizedAffinity>
-6.57507

$$$$
4ZEI_LAO_A_601


 19 19  0  0  0  0  0  0  0  0999 V2000
  -15.7070  -27.2847   19.8518 C   0  0  0  0  0  0  0  0  0  0  0  0
  -14.7563  -27.4184   18.7967 C   0  0  0  0  0  0  0  0  0  0  0  0
  -13.4531  -27.9557   19.2666 O   0  0  0  0  0  0  0  0  0  0  0  0
  -15.1778  -28.1838   17.6767 C   0  0  0  0  0  0  0  0  0  0  0  0
  -15.1844  -29.5738   18.0126 O   0  0  0  0  0  0  0  0  0  0  0  0
  -16.5624  -27.8252   17.1670 C   0  0  0  0  0  0  0  0  0  0  0  0
  -17.4824  -27.6523   18.1999 O   0  0  0  0  0  0  0  0  0  0  0  0
  -17.0338  -26.8336   19.2606 C   0  0  0  0  0  0  0  0  0  0  0  0
  -18.0290  -26.6978   20.1813 O   0  0  0  0  0  0  0  0  0  0  0  0
  -13.5697  -28.8710   19.5659 H   0  0  0  0  0  0  0  0  0  0  0  0
  -15.8304  -29.7328   18.7185 H   0  0  0  0  0  0  0  0  0  0  0  0
  -18.2468  -27.5670   20.5527 H   0  0  0  0  0  0  0  0  0  0  0  0
  -15.2680  -26.2750   20.7764 O   0  0  0  0  0  0  0  0  0  0  0  0
  -14.1269  -27.3201   22.8058 O   0  0  0  0  0  0  0  0  0  0  0  0
  -15.2748  -26.3638   22.3647 P   0  0  0  0  0  0  0  0  0  0  0  0
  -15.0657  -24.9711   22.9765 O   0  0  0  0  0  0  0  0  0  0  0  0
  -16.5849  -26.9794   22.8468 O   0  0  0  0  0  0  0  0  0  0  0  0
  -13.2751  -26.9586   22.5147 H   0  0  0  0  0  0  0  0  0  0  0  0
  -17.3249  -26.4081   22.5885 H   0  0  0  0  0  0  0  0  0  0  0  0
  6  7  1  0  0  0
  6  4  1  0  0  0
  7  8  1  0  0  0
  9  8  1  0  0  0
  8  1  1  0  0  0
  4  5  1  0  0  0
  4  2  1  0  0  0
  2  1  1  0  0  0
  2  3  1  0  0  0
  1 13  1  0  0  0
 13 15  1  0  0  0
 15 16  2  0  0  0
 15 17  1  0  0  0
 15 14  1  0  0  0
 14 18  1  0  0  0
 17 19  1  0  0  0
  3 10  1  0  0  0
  5 11  1  0  0  0
  9 12  1  0  0  0
M  END
> <minimizedAffinity>
-6.46914

$$$$
4ZEI_LAO_A_601


 19 19  0  0  0  0  0  0  0  0999 V2000
  -14.9161  -27.5930   19.9495 C   0  0  0  0  0  0  0  0  0  0  0  0
  -15.9646  -27.5762   18.9824 C   0  0  0  0  0  0  0  0  0  0  0  0
  -16.0178  -28.8229   18.1756 O   0  0  0  0  0  0  0  0  0  0  0  0
  -17.2668  -27.3134   19.4854 C   0  0  0  0  0  0  0  0  0  0  0  0
  -17.7600  -28.4613   20.1810 O   0  0  0  0  0  0  0  0  0  0  0  0
  -17.3367  -26.1317   20.4363 C   0  0  0  0  0  0  0  0  0  0  0  0
  -16.2881  -26.1239   21.3548 O   0  0  0  0  0  0  0  0  0  0  0  0
  -15.0082  -26.3308   20.7930 C   0  0  0  0  0  0  0  0  0  0  0  0
  -14.0644  -26.2532   21.7727 O   0  0  0  0  0  0  0  0  0  0  0  0
  -16.2658  -29.5670   18.7463 H   0  0  0  0  0  0  0  0  0  0  0  0
  -17.1953  -28.6415   20.9488 H   0  0  0  0  0  0  0  0  0  0  0  0
  -14.2164  -26.9554   22.4244 H   0  0  0  0  0  0  0  0  0  0  0  0
  -13.6414  -27.5893   19.2843 O   0  0  0  0  0  0  0  0  0  0  0  0
  -13.2358  -29.7296   17.9551 O   0  0  0  0  0  0  0  0  0  0  0  0
  -12.6612  -28.8266   19.0869 P   0  0  0  0  0  0  0  0  0  0  0  0
  -11.2558  -28.3372   18.7092 O   0  0  0  0  0  0  0  0  0  0  0  0
  -12.6214  -29.6682   20.3588 O   0  0  0  0  0  0  0  0  0  0  0  0
  -13.2757  -29.2250   17.1276 H   0  0  0  0  0  0  0  0  0  0  0  0
  -12.2673  -29.1355   21.0880 H   0  0  0  0  0  0  0  0  0  0  0  0
  6  7  1  0  0  0
  6  4  1  0  0  0
  7  8  1  0  0  0
  9  8  1  0  0  0
  8  1  1  0  0  0
  4  5  1  0  0  0
  4  2  1  0  0  0
  2  1  1  0  0  0
  2  3  1  0  0  0
  1 13  1  0  0  0
 13 15  1  0  0  0
 15 16  2  0  0  0
 15 17  1  0  0  0
 15 14  1  0  0  0
 14 18  1  0  0  0
 17 19  1  0  0  0
  3 10  1  0  0  0
  5 11  1  0  0  0
  9 12  1  0  0  0
M  END
> <minimizedAffinity>
-6.46422

$$$$
