1HIH_C20_B_101


 46 47  0  0  0  0  0  0  0  0999 V2000
    5.1688   -1.0074   15.2476 C   0  0  0  0  0  0  0  0  0  0  0  0
    5.1172   -0.3753   16.5288 O   0  0  0  0  0  0  0  0  0  0  0  0
    5.8477   -0.6991   17.0787 H   0  0  0  0  0  0  0  0  0  0  0  0
    5.0070   -2.5353   15.3896 C   0  0  0  0  0  0  0  0  0  0  0  0
    6.9613   -3.9775   15.5539 C   0  0  0  0  0  0  0  0  0  0  0  0
    6.9657   -4.2110   14.3479 O   0  0  0  0  0  0  0  0  0  0  0  0
    6.0937   -3.1527   16.1295 N   0  0  0  0  0  0  0  0  0  0  0  0
    6.1904   -2.9534   17.0887 H   0  0  0  0  0  0  0  0  0  0  0  0
    8.0347   -4.5891   16.4622 C   0  0  0  0  0  0  0  0  0  0  0  0
    6.8460   -7.9263   17.9743 C   0  0  0  0  0  0  0  0  0  0  0  0
    7.1546   -6.4284   17.8904 C   0  0  0  0  0  0  0  0  0  0  0  0
    6.9006   -5.6879   18.8403 O   0  0  0  0  0  0  0  0  0  0  0  0
    7.6825   -5.9949   16.7438 N   0  0  0  0  0  0  0  0  0  0  0  0
    7.8486   -6.6590   16.0363 H   0  0  0  0  0  0  0  0  0  0  0  0
    9.4227   -4.4954   15.7654 C   0  0  0  0  0  0  0  0  0  0  0  0
    9.9579   -3.0685   15.7441 C   0  0  0  0  0  0  0  0  0  0  0  0
   10.4210   -5.4358   16.4587 C   0  0  0  0  0  0  0  0  0  0  0  0
    3.6975   -2.8489   16.0999 C   0  0  0  0  0  0  0  0  0  0  0  0
    3.5009   -4.3334   16.3211 C   0  0  0  0  0  0  0  0  0  0  0  0
    3.4691   -5.2826   15.1865 C   0  0  0  0  0  0  0  0  0  0  0  0
    3.3589   -6.6203   15.4480 C   0  0  0  0  0  0  0  0  0  0  0  0
    3.2759   -7.0938   16.7631 C   0  0  0  0  0  0  0  0  0  0  0  0
    3.3038   -6.2346   17.8489 C   0  0  0  0  0  0  0  0  0  0  0  0
    3.4115   -4.8672   17.6700 C   0  0  0  0  0  0  0  0  0  0  0  0
    6.5111   -0.6601   14.6393 C   0  0  0  0  0  0  0  0  0  0  0  0
    6.3661    0.0788   13.4011 N   0  0  0  0  0  0  0  0  0  0  0  0
    4.9526    0.2830   13.1431 N   0  0  0  0  0  0  0  0  0  0  0  0
    4.4736    0.6482   11.9543 C   0  0  0  0  0  0  0  0  0  0  0  0
    5.1705    0.7053   10.9278 O   0  0  0  0  0  0  0  0  0  0  0  0
    4.3168    0.1450   13.8820 H   0  0  0  0  0  0  0  0  0  0  0  0
    2.9938    1.0384   11.9311 C   0  0  0  0  0  0  0  0  0  0  0  0
    2.6815    1.8040   10.7180 N   0  0  0  0  0  0  0  0  0  0  0  0
    2.8380    3.1206   10.6549 C   0  0  0  0  0  0  0  0  0  0  0  0
    3.1857    3.7916   11.6313 O   0  0  0  0  0  0  0  0  0  0  0  0
    2.5697    3.8196    9.3483 C   0  0  0  0  0  0  0  0  0  0  0  0
    2.3453    1.3256    9.9259 H   0  0  0  0  0  0  0  0  0  0  0  0
    2.0844   -0.2058   12.0636 C   0  0  0  0  0  0  0  0  0  0  0  0
    1.3500   -0.2050   13.3955 C   0  0  0  0  0  0  0  0  0  0  0  0
    1.0669   -0.2294   10.8914 C   0  0  0  0  0  0  0  0  0  0  0  0
    7.1708    1.2724   13.6836 C   0  0  0  0  0  0  0  0  0  0  0  0
    8.3010    1.6938   12.7616 C   0  0  0  0  0  0  0  0  0  0  0  0
    7.6433    2.8976   12.0725 C   0  0  0  0  0  0  0  0  0  0  0  0
    8.2490    3.2762   10.7318 C   0  0  0  0  0  0  0  0  0  0  0  0
    8.2486    2.0762    9.8057 C   0  0  0  0  0  0  0  0  0  0  0  0
    9.0313    0.9359   10.4361 C   0  0  0  0  0  0  0  0  0  0  0  0
    8.4307    0.5486   11.7597 C   0  0  0  0  0  0  0  0  0  0  0  0
 10 11  1  0  0  0
 11 12  2  0  0  0
 11 13  1  0  0  0
 13  9  1  0  0  0
  9 15  1  0  0  0
  9  5  1  0  0  0
 15 16  1  0  0  0
 15 17  1  0  0  0
  5  6  2  0  0  0
  5  7  1  0  0  0
  7  4  1  0  0  0
  4 18  1  0  0  0
  4  1  1  0  0  0
 18 19  1  0  0  0
 19 20  2  0  0  0
 19 24  1  0  0  0
 20 21  1  0  0  0
 21 22  2  0  0  0
 22 23  1  0  0  0
 23 24  2  0  0  0
  1  2  1  0  0  0
  1 25  1  0  0  0
 25 26  1  0  0  0
 26 40  1  0  0  0
 26 27  1  0  0  0
 40 41  1  0  0  0
 41 42  1  0  0  0
 41 46  1  0  0  0
 42 43  1  0  0  0
 43 44  1  0  0  0
 44 45  1  0  0  0
 45 46  1  0  0  0
 27 28  1  0  0  0
 28 29  2  0  0  0
 28 31  1  0  0  0
 31 32  1  0  0  0
 31 37  1  0  0  0
 32 33  1  0  0  0
 37 38  1  0  0  0
 37 39  1  0  0  0
 33 34  2  0  0  0
 33 35  1  0  0  0
 13 14  1  0  0  0
  7  8  1  0  0  0
  2  3  1  0  0  0
 27 30  1  0  0  0
 32 36  1  0  0  0
M  END
> <minimizedAffinity>
-9.91266

$$$$
1HIH_C20_B_101


 46 47  0  0  0  0  0  0  0  0999 V2000
    5.3222   -0.8665   15.2828 C   0  0  0  0  0  0  0  0  0  0  0  0
    5.1304    0.1202   16.2994 O   0  0  0  0  0  0  0  0  0  0  0  0
    4.3513    0.6572   16.0859 H   0  0  0  0  0  0  0  0  0  0  0  0
    5.5756   -0.1955   13.9166 C   0  0  0  0  0  0  0  0  0  0  0  0
    3.7462    0.2357   12.3695 C   0  0  0  0  0  0  0  0  0  0  0  0
    3.9522   -0.8002   11.7421 O   0  0  0  0  0  0  0  0  0  0  0  0
    4.4404    0.5800   13.4483 N   0  0  0  0  0  0  0  0  0  0  0  0
    4.1768    1.3872   13.9466 H   0  0  0  0  0  0  0  0  0  0  0  0
    2.5970    1.1669   11.9655 C   0  0  0  0  0  0  0  0  0  0  0  0
    3.6346    3.7046    9.2600 C   0  0  0  0  0  0  0  0  0  0  0  0
    3.2633    3.1703   10.6466 C   0  0  0  0  0  0  0  0  0  0  0  0
    3.2678    3.9203   11.6227 O   0  0  0  0  0  0  0  0  0  0  0  0
    2.9639    1.8719   10.7214 N   0  0  0  0  0  0  0  0  0  0  0  0
    2.9896    1.3475    9.8885 H   0  0  0  0  0  0  0  0  0  0  0  0
    1.2970    0.3353   11.7673 C   0  0  0  0  0  0  0  0  0  0  0  0
    0.6726   -0.0768   13.0952 C   0  0  0  0  0  0  0  0  0  0  0  0
    0.2903    1.1309   10.9216 C   0  0  0  0  0  0  0  0  0  0  0  0
    6.7846    0.7248   14.0131 C   0  0  0  0  0  0  0  0  0  0  0  0
    7.4971    0.8840   12.6872 C   0  0  0  0  0  0  0  0  0  0  0  0
    7.5015   -0.2009   11.6812 C   0  0  0  0  0  0  0  0  0  0  0  0
    8.1010    0.0221   10.4725 C   0  0  0  0  0  0  0  0  0  0  0  0
    8.7039    1.2521   10.1824 C   0  0  0  0  0  0  0  0  0  0  0  0
    8.7176    2.2900   11.0993 C   0  0  0  0  0  0  0  0  0  0  0  0
    8.1347    2.1446   12.3453 C   0  0  0  0  0  0  0  0  0  0  0  0
    4.0657   -1.7104   15.2459 C   0  0  0  0  0  0  0  0  0  0  0  0
    4.3427   -3.1016   15.5425 N   0  0  0  0  0  0  0  0  0  0  0  0
    5.6642   -3.1977   16.1347 N   0  0  0  0  0  0  0  0  0  0  0  0
    6.6227   -3.9892   15.6544 C   0  0  0  0  0  0  0  0  0  0  0  0
    6.5238   -4.6027   14.5791 O   0  0  0  0  0  0  0  0  0  0  0  0
    5.8621   -2.6518   16.9297 H   0  0  0  0  0  0  0  0  0  0  0  0
    7.8636   -4.1335   16.5387 C   0  0  0  0  0  0  0  0  0  0  0  0
    8.1097   -5.5458   16.8553 N   0  0  0  0  0  0  0  0  0  0  0  0
    7.5772   -6.1332   17.9198 C   0  0  0  0  0  0  0  0  0  0  0  0
    6.9028   -5.5134   18.7476 O   0  0  0  0  0  0  0  0  0  0  0  0
    7.8158   -7.6053   18.1292 C   0  0  0  0  0  0  0  0  0  0  0  0
    8.6881   -6.0740   16.2589 H   0  0  0  0  0  0  0  0  0  0  0  0
    9.1002   -3.4785   15.8796 C   0  0  0  0  0  0  0  0  0  0  0  0
    9.8046   -4.4555   14.9508 C   0  0  0  0  0  0  0  0  0  0  0  0
    8.6581   -2.2157   15.0923 C   0  0  0  0  0  0  0  0  0  0  0  0
    3.2023   -3.4446   16.3992 C   0  0  0  0  0  0  0  0  0  0  0  0
    2.6868   -4.8699   16.4869 C   0  0  0  0  0  0  0  0  0  0  0  0
    3.3859   -5.3237   17.7760 C   0  0  0  0  0  0  0  0  0  0  0  0
    3.5351   -6.8279   17.9269 C   0  0  0  0  0  0  0  0  0  0  0  0
    4.2428   -7.4023   16.7157 C   0  0  0  0  0  0  0  0  0  0  0  0
    3.4605   -7.0727   15.4549 C   0  0  0  0  0  0  0  0  0  0  0  0
    3.3177   -5.5839   15.2935 C   0  0  0  0  0  0  0  0  0  0  0  0
 10 11  1  0  0  0
 11 12  2  0  0  0
 11 13  1  0  0  0
 13  9  1  0  0  0
  9 15  1  0  0  0
  9  5  1  0  0  0
 15 16  1  0  0  0
 15 17  1  0  0  0
  5  6  2  0  0  0
  5  7  1  0  0  0
  7  4  1  0  0  0
  4 18  1  0  0  0
  4  1  1  0  0  0
 18 19  1  0  0  0
 19 20  2  0  0  0
 19 24  1  0  0  0
 20 21  1  0  0  0
 21 22  2  0  0  0
 22 23  1  0  0  0
 23 24  2  0  0  0
  1  2  1  0  0  0
  1 25  1  0  0  0
 25 26  1  0  0  0
 26 40  1  0  0  0
 26 27  1  0  0  0
 40 41  1  0  0  0
 41 42  1  0  0  0
 41 46  1  0  0  0
 42 43  1  0  0  0
 43 44  1  0  0  0
 44 45  1  0  0  0
 45 46  1  0  0  0
 27 28  1  0  0  0
 28 29  2  0  0  0
 28 31  1  0  0  0
 31 32  1  0  0  0
 31 37  1  0  0  0
 32 33  1  0  0  0
 37 38  1  0  0  0
 37 39  1  0  0  0
 33 34  2  0  0  0
 33 35  1  0  0  0
 13 14  1  0  0  0
  7  8  1  0  0  0
  2  3  1  0  0  0
 27 30  1  0  0  0
 32 36  1  0  0  0
M  END
> <minimizedAffinity>
-9.79837

$$$$
1HIH_C20_B_101


 46 47  0  0  0  0  0  0  0  0999 V2000
    5.8387   -0.6703   14.4162 C   0  0  0  0  0  0  0  0  0  0  0  0
    6.8653    0.2476   14.8000 O   0  0  0  0  0  0  0  0  0  0  0  0
    6.4650    1.0178   15.2328 H   0  0  0  0  0  0  0  0  0  0  0  0
    4.8741   -0.0140   13.4064 C   0  0  0  0  0  0  0  0  0  0  0  0
    6.5276    0.2073   11.6335 C   0  0  0  0  0  0  0  0  0  0  0  0
    6.8478   -0.9767   11.7014 O   0  0  0  0  0  0  0  0  0  0  0  0
    5.5633    0.7411   12.3747 N   0  0  0  0  0  0  0  0  0  0  0  0
    5.3074    1.6790   12.2198 H   0  0  0  0  0  0  0  0  0  0  0  0
    7.1971    1.1301   10.6083 C   0  0  0  0  0  0  0  0  0  0  0  0
    8.3129    4.6155   11.8097 C   0  0  0  0  0  0  0  0  0  0  0  0
    7.6402    3.5588   10.9283 C   0  0  0  0  0  0  0  0  0  0  0  0
    6.9961    3.8970    9.9354 O   0  0  0  0  0  0  0  0  0  0  0  0
    7.7810    2.2886   11.3129 N   0  0  0  0  0  0  0  0  0  0  0  0
    8.3114    2.1118   12.1233 H   0  0  0  0  0  0  0  0  0  0  0  0
    8.2940    0.3423    9.8355 C   0  0  0  0  0  0  0  0  0  0  0  0
    8.2483    0.6172    8.3371 C   0  0  0  0  0  0  0  0  0  0  0  0
    9.6808    0.6814   10.4042 C   0  0  0  0  0  0  0  0  0  0  0  0
    4.0248   -1.0857   12.7369 C   0  0  0  0  0  0  0  0  0  0  0  0
    2.6165   -0.6111   12.4493 C   0  0  0  0  0  0  0  0  0  0  0  0
    2.1663   -0.3314   11.0678 C   0  0  0  0  0  0  0  0  0  0  0  0
    0.8634    0.0275   10.8582 C   0  0  0  0  0  0  0  0  0  0  0  0
   -0.0366    0.1323   11.9256 C   0  0  0  0  0  0  0  0  0  0  0  0
    0.3496   -0.1231   13.2308 C   0  0  0  0  0  0  0  0  0  0  0  0
    1.6499   -0.4898   13.5279 C   0  0  0  0  0  0  0  0  0  0  0  0
    5.1083   -1.0680   15.6814 C   0  0  0  0  0  0  0  0  0  0  0  0
    4.9288   -2.5033   15.7709 N   0  0  0  0  0  0  0  0  0  0  0  0
    6.1519   -3.0950   16.2809 N   0  0  0  0  0  0  0  0  0  0  0  0
    6.9052   -3.9363   15.5733 C   0  0  0  0  0  0  0  0  0  0  0  0
    6.7114   -4.1765   14.3703 O   0  0  0  0  0  0  0  0  0  0  0  0
    6.4390   -2.8637   17.1938 H   0  0  0  0  0  0  0  0  0  0  0  0
    8.0233   -4.6342   16.3514 C   0  0  0  0  0  0  0  0  0  0  0  0
    7.6690   -6.0335   16.6196 N   0  0  0  0  0  0  0  0  0  0  0  0
    7.1496   -6.4199   17.7784 C   0  0  0  0  0  0  0  0  0  0  0  0
    6.9994   -5.6432   18.7263 O   0  0  0  0  0  0  0  0  0  0  0  0
    6.7411   -7.8599   17.9440 C   0  0  0  0  0  0  0  0  0  0  0  0
    7.8215   -6.7066   15.9176 H   0  0  0  0  0  0  0  0  0  0  0  0
    9.3750   -4.5265   15.6072 C   0  0  0  0  0  0  0  0  0  0  0  0
    9.9502   -3.1231   15.7217 C   0  0  0  0  0  0  0  0  0  0  0  0
   10.3716   -5.5627   16.1930 C   0  0  0  0  0  0  0  0  0  0  0  0
    3.7397   -2.5907   16.6256 C   0  0  0  0  0  0  0  0  0  0  0  0
    2.7620   -3.7448   16.4951 C   0  0  0  0  0  0  0  0  0  0  0  0
    3.5159   -4.8195   17.2909 C   0  0  0  0  0  0  0  0  0  0  0  0
    3.1199   -6.2499   16.9673 C   0  0  0  0  0  0  0  0  0  0  0  0
    3.2612   -6.5026   15.4793 C   0  0  0  0  0  0  0  0  0  0  0  0
    2.3926   -5.5256   14.7040 C   0  0  0  0  0  0  0  0  0  0  0  0
    2.7860   -4.1067   15.0117 C   0  0  0  0  0  0  0  0  0  0  0  0
 10 11  1  0  0  0
 11 12  2  0  0  0
 11 13  1  0  0  0
 13  9  1  0  0  0
  9 15  1  0  0  0
  9  5  1  0  0  0
 15 16  1  0  0  0
 15 17  1  0  0  0
  5  6  2  0  0  0
  5  7  1  0  0  0
  7  4  1  0  0  0
  4 18  1  0  0  0
  4  1  1  0  0  0
 18 19  1  0  0  0
 19 20  2  0  0  0
 19 24  1  0  0  0
 20 21  1  0  0  0
 21 22  2  0  0  0
 22 23  1  0  0  0
 23 24  2  0  0  0
  1  2  1  0  0  0
  1 25  1  0  0  0
 25 26  1  0  0  0
 26 40  1  0  0  0
 26 27  1  0  0  0
 40 41  1  0  0  0
 41 42  1  0  0  0
 41 46  1  0  0  0
 42 43  1  0  0  0
 43 44  1  0  0  0
 44 45  1  0  0  0
 45 46  1  0  0  0
 27 28  1  0  0  0
 28 29  2  0  0  0
 28 31  1  0  0  0
 31 32  1  0  0  0
 31 37  1  0  0  0
 32 33  1  0  0  0
 37 38  1  0  0  0
 37 39  1  0  0  0
 33 34  2  0  0  0
 33 35  1  0  0  0
 13 14  1  0  0  0
  7  8  1  0  0  0
  2  3  1  0  0  0
 27 30  1  0  0  0
 32 36  1  0  0  0
M  END
> <minimizedAffinity>
-9.63492

$$$$
1HIH_C20_B_101


 46 47  0  0  0  0  0  0  0  0999 V2000
    6.9556   -1.2164   13.2781 C   0  0  0  0  0  0  0  0  0  0  0  0
    6.6727   -1.4592   11.8979 O   0  0  0  0  0  0  0  0  0  0  0  0
    5.7192   -1.3715   11.7430 H   0  0  0  0  0  0  0  0  0  0  0  0
    6.2389   -2.2525   14.1690 C   0  0  0  0  0  0  0  0  0  0  0  0
    7.1481   -4.1064   15.4584 C   0  0  0  0  0  0  0  0  0  0  0  0
    6.5407   -4.9441   14.7963 O   0  0  0  0  0  0  0  0  0  0  0  0
    7.1007   -2.8045   15.1996 N   0  0  0  0  0  0  0  0  0  0  0  0
    7.6681   -2.1939   15.7235 H   0  0  0  0  0  0  0  0  0  0  0  0
    8.0720   -4.5471   16.6000 C   0  0  0  0  0  0  0  0  0  0  0  0
    7.1563   -7.9753   18.0983 C   0  0  0  0  0  0  0  0  0  0  0  0
    7.3295   -6.4558   18.0152 C   0  0  0  0  0  0  0  0  0  0  0  0
    6.9873   -5.7394   18.9559 O   0  0  0  0  0  0  0  0  0  0  0  0
    7.8424   -5.9785   16.8793 N   0  0  0  0  0  0  0  0  0  0  0  0
    8.0846   -6.6262   16.1786 H   0  0  0  0  0  0  0  0  0  0  0  0
    9.5538   -4.2924   16.1995 C   0  0  0  0  0  0  0  0  0  0  0  0
   10.5291   -4.8332   17.2383 C   0  0  0  0  0  0  0  0  0  0  0  0
    9.8369   -4.9094   14.8207 C   0  0  0  0  0  0  0  0  0  0  0  0
    5.0339   -1.6070   14.8392 C   0  0  0  0  0  0  0  0  0  0  0  0
    3.9813   -2.6200   15.2354 C   0  0  0  0  0  0  0  0  0  0  0  0
    3.4059   -3.5582   14.2465 C   0  0  0  0  0  0  0  0  0  0  0  0
    2.5096   -4.4990   14.6729 C   0  0  0  0  0  0  0  0  0  0  0  0
    2.1357   -4.5807   16.0198 C   0  0  0  0  0  0  0  0  0  0  0  0
    2.6548   -3.7202   16.9726 C   0  0  0  0  0  0  0  0  0  0  0  0
    3.5653   -2.7393   16.6229 C   0  0  0  0  0  0  0  0  0  0  0  0
    6.4749    0.1859   13.5859 C   0  0  0  0  0  0  0  0  0  0  0  0
    6.0768    0.8941   12.3858 N   0  0  0  0  0  0  0  0  0  0  0  0
    4.6807    1.2711   12.5086 N   0  0  0  0  0  0  0  0  0  0  0  0
    3.6857    0.5700   11.9661 C   0  0  0  0  0  0  0  0  0  0  0  0
    3.8465   -0.5406   11.4339 O   0  0  0  0  0  0  0  0  0  0  0  0
    4.4580    2.0841   13.0171 H   0  0  0  0  0  0  0  0  0  0  0  0
    2.3103    1.2406   12.0021 C   0  0  0  0  0  0  0  0  0  0  0  0
    2.0514    1.9538   10.7453 N   0  0  0  0  0  0  0  0  0  0  0  0
    2.4739    3.1951   10.5387 C   0  0  0  0  0  0  0  0  0  0  0  0
    3.0461    3.8519   11.4137 O   0  0  0  0  0  0  0  0  0  0  0  0
    2.2349    3.8262    9.1925 C   0  0  0  0  0  0  0  0  0  0  0  0
    1.5484    1.4969   10.0330 H   0  0  0  0  0  0  0  0  0  0  0  0
    1.1947    0.2140   12.3093 C   0  0  0  0  0  0  0  0  0  0  0  0
    1.4177   -0.4453   13.6616 C   0  0  0  0  0  0  0  0  0  0  0  0
   -0.1845    0.9260   12.2819 C   0  0  0  0  0  0  0  0  0  0  0  0
    7.0604    1.9821   12.3555 C   0  0  0  0  0  0  0  0  0  0  0  0
    7.9884    2.1690   11.1686 C   0  0  0  0  0  0  0  0  0  0  0  0
    7.1138    1.5763   10.0549 C   0  0  0  0  0  0  0  0  0  0  0  0
    7.8735    1.1137    8.8234 C   0  0  0  0  0  0  0  0  0  0  0  0
    8.9553    0.1293    9.2214 C   0  0  0  0  0  0  0  0  0  0  0  0
    9.9048    0.7781   10.2153 C   0  0  0  0  0  0  0  0  0  0  0  0
    9.1608    1.2295   11.4423 C   0  0  0  0  0  0  0  0  0  0  0  0
 10 11  1  0  0  0
 11 12  2  0  0  0
 11 13  1  0  0  0
 13  9  1  0  0  0
  9 15  1  0  0  0
  9  5  1  0  0  0
 15 16  1  0  0  0
 15 17  1  0  0  0
  5  6  2  0  0  0
  5  7  1  0  0  0
  7  4  1  0  0  0
  4 18  1  0  0  0
  4  1  1  0  0  0
 18 19  1  0  0  0
 19 20  2  0  0  0
 19 24  1  0  0  0
 20 21  1  0  0  0
 21 22  2  0  0  0
 22 23  1  0  0  0
 23 24  2  0  0  0
  1  2  1  0  0  0
  1 25  1  0  0  0
 25 26  1  0  0  0
 26 40  1  0  0  0
 26 27  1  0  0  0
 40 41  1  0  0  0
 41 42  1  0  0  0
 41 46  1  0  0  0
 42 43  1  0  0  0
 43 44  1  0  0  0
 44 45  1  0  0  0
 45 46  1  0  0  0
 27 28  1  0  0  0
 28 29  2  0  0  0
 28 31  1  0  0  0
 31 32  1  0  0  0
 31 37  1  0  0  0
 32 33  1  0  0  0
 37 38  1  0  0  0
 37 39  1  0  0  0
 33 34  2  0  0  0
 33 35  1  0  0  0
 13 14  1  0  0  0
  7  8  1  0  0  0
  2  3  1  0  0  0
 27 30  1  0  0  0
 32 36  1  0  0  0
M  END
> <minimizedAffinity>
-9.50177

$$$$
1HIH_C20_B_101


 46 47  0  0  0  0  0  0  0  0999 V2000
    5.2812   -0.4295   14.6769 C   0  0  0  0  0  0  0  0  0  0  0  0
    5.0048    0.4204   15.7928 O   0  0  0  0  0  0  0  0  0  0  0  0
    5.6800    0.2866   16.4762 H   0  0  0  0  0  0  0  0  0  0  0  0
    5.2326   -1.9126   15.0996 C   0  0  0  0  0  0  0  0  0  0  0  0
    7.0106   -3.5515   15.3802 C   0  0  0  0  0  0  0  0  0  0  0  0
    6.5442   -4.2946   14.5204 O   0  0  0  0  0  0  0  0  0  0  0  0
    6.4780   -2.3742   15.6875 N   0  0  0  0  0  0  0  0  0  0  0  0
    6.9423   -1.7957   16.3347 H   0  0  0  0  0  0  0  0  0  0  0  0
    8.3077   -3.9294   16.1055 C   0  0  0  0  0  0  0  0  0  0  0  0
    8.8001   -7.5149   17.4237 C   0  0  0  0  0  0  0  0  0  0  0  0
    8.9099   -5.9882   17.3688 C   0  0  0  0  0  0  0  0  0  0  0  0
    9.4961   -5.3752   18.2608 O   0  0  0  0  0  0  0  0  0  0  0  0
    8.3262   -5.3885   16.3291 N   0  0  0  0  0  0  0  0  0  0  0  0
    7.8764   -5.9592   15.6649 H   0  0  0  0  0  0  0  0  0  0  0  0
    9.5307   -3.4849   15.2524 C   0  0  0  0  0  0  0  0  0  0  0  0
   10.6019   -2.8055   16.0973 C   0  0  0  0  0  0  0  0  0  0  0  0
   10.1173   -4.6947   14.5082 C   0  0  0  0  0  0  0  0  0  0  0  0
    4.1129   -2.1220   16.1098 C   0  0  0  0  0  0  0  0  0  0  0  0
    3.4674   -3.4852   15.9829 C   0  0  0  0  0  0  0  0  0  0  0  0
    2.7497   -3.8849   14.7522 C   0  0  0  0  0  0  0  0  0  0  0  0
    2.2457   -5.1531   14.6644 C   0  0  0  0  0  0  0  0  0  0  0  0
    2.3999   -6.0650   15.7157 C   0  0  0  0  0  0  0  0  0  0  0  0
    3.0666   -5.7258   16.8813 C   0  0  0  0  0  0  0  0  0  0  0  0
    3.6042   -4.4625   17.0500 C   0  0  0  0  0  0  0  0  0  0  0  0
    6.6583   -0.0566   14.1702 C   0  0  0  0  0  0  0  0  0  0  0  0
    6.5949    0.6361   12.8988 N   0  0  0  0  0  0  0  0  0  0  0  0
    5.2049    0.9176   12.5904 N   0  0  0  0  0  0  0  0  0  0  0  0
    4.7705    1.1828   11.3588 C   0  0  0  0  0  0  0  0  0  0  0  0
    5.4822    1.0711   10.3471 O   0  0  0  0  0  0  0  0  0  0  0  0
    4.5513    0.9123   13.3266 H   0  0  0  0  0  0  0  0  0  0  0  0
    3.3262    1.6801   11.2617 C   0  0  0  0  0  0  0  0  0  0  0  0
    2.5199    1.1403   12.3634 N   0  0  0  0  0  0  0  0  0  0  0  0
    1.6977    0.1116   12.1976 C   0  0  0  0  0  0  0  0  0  0  0  0
    1.5050   -0.4084   11.0945 O   0  0  0  0  0  0  0  0  0  0  0  0
    0.9661   -0.4308   13.3969 C   0  0  0  0  0  0  0  0  0  0  0  0
    2.5914    1.5545   13.2537 H   0  0  0  0  0  0  0  0  0  0  0  0
    3.2674    3.2253   11.2229 C   0  0  0  0  0  0  0  0  0  0  0  0
    4.5641    3.8069   10.6809 C   0  0  0  0  0  0  0  0  0  0  0  0
    2.0702    3.6750   10.3430 C   0  0  0  0  0  0  0  0  0  0  0  0
    7.4665    1.7876   13.1559 C   0  0  0  0  0  0  0  0  0  0  0  0
    8.6143    2.1276   12.2222 C   0  0  0  0  0  0  0  0  0  0  0  0
    7.9719    3.2677   11.4198 C   0  0  0  0  0  0  0  0  0  0  0  0
    8.6030    3.5292   10.0630 C   0  0  0  0  0  0  0  0  0  0  0  0
    8.6173    2.2538    9.2438 C   0  0  0  0  0  0  0  0  0  0  0  0
    9.3859    1.1718    9.9845 C   0  0  0  0  0  0  0  0  0  0  0  0
    8.7602    0.9003   11.3252 C   0  0  0  0  0  0  0  0  0  0  0  0
 10 11  1  0  0  0
 11 12  2  0  0  0
 11 13  1  0  0  0
 13  9  1  0  0  0
  9 15  1  0  0  0
  9  5  1  0  0  0
 15 16  1  0  0  0
 15 17  1  0  0  0
  5  6  2  0  0  0
  5  7  1  0  0  0
  7  4  1  0  0  0
  4 18  1  0  0  0
  4  1  1  0  0  0
 18 19  1  0  0  0
 19 20  2  0  0  0
 19 24  1  0  0  0
 20 21  1  0  0  0
 21 22  2  0  0  0
 22 23  1  0  0  0
 23 24  2  0  0  0
  1  2  1  0  0  0
  1 25  1  0  0  0
 25 26  1  0  0  0
 26 40  1  0  0  0
 26 27  1  0  0  0
 40 41  1  0  0  0
 41 42  1  0  0  0
 41 46  1  0  0  0
 42 43  1  0  0  0
 43 44  1  0  0  0
 44 45  1  0  0  0
 45 46  1  0  0  0
 27 28  1  0  0  0
 28 29  2  0  0  0
 28 31  1  0  0  0
 31 32  1  0  0  0
 31 37  1  0  0  0
 32 33  1  0  0  0
 37 38  1  0  0  0
 37 39  1  0  0  0
 33 34  2  0  0  0
 33 35  1  0  0  0
 13 14  1  0  0  0
  7  8  1  0  0  0
  2  3  1  0  0  0
 27 30  1  0  0  0
 32 36  1  0  0  0
M  END
> <minimizedAffinity>
-9.36098

$$$$
1HIH_C20_B_101


 46 47  0  0  0  0  0  0  0  0999 V2000
    4.8370   -1.2746   15.5117 C   0  0  0  0  0  0  0  0  0  0  0  0
    5.1037   -0.5213   16.6972 O   0  0  0  0  0  0  0  0  0  0  0  0
    4.2687   -0.3250   17.1501 H   0  0  0  0  0  0  0  0  0  0  0  0
    3.9562   -0.4623   14.5395 C   0  0  0  0  0  0  0  0  0  0  0  0
    5.7048   -0.1348   12.8778 C   0  0  0  0  0  0  0  0  0  0  0  0
    5.9649   -1.3343   12.8265 O   0  0  0  0  0  0  0  0  0  0  0  0
    4.7310    0.3643   13.6307 N   0  0  0  0  0  0  0  0  0  0  0  0
    4.5279    1.3257   13.5708 H   0  0  0  0  0  0  0  0  0  0  0  0
    6.4676    0.8586   11.9933 C   0  0  0  0  0  0  0  0  0  0  0  0
    4.4675    4.0493   11.1840 C   0  0  0  0  0  0  0  0  0  0  0  0
    5.1570    2.7015   10.9523 C   0  0  0  0  0  0  0  0  0  0  0  0
    5.1205    2.1677    9.8438 O   0  0  0  0  0  0  0  0  0  0  0  0
    5.7630    2.1559   12.0088 N   0  0  0  0  0  0  0  0  0  0  0  0
    5.7385    2.6533   12.8581 H   0  0  0  0  0  0  0  0  0  0  0  0
    7.9238    1.0135   12.5190 C   0  0  0  0  0  0  0  0  0  0  0  0
    8.7142    2.0439   11.7213 C   0  0  0  0  0  0  0  0  0  0  0  0
    7.9053    1.3842   14.0103 C   0  0  0  0  0  0  0  0  0  0  0  0
    3.0924   -1.4084   13.7171 C   0  0  0  0  0  0  0  0  0  0  0  0
    2.0407   -0.6773   12.9105 C   0  0  0  0  0  0  0  0  0  0  0  0
    2.1804   -0.4967   11.4486 C   0  0  0  0  0  0  0  0  0  0  0  0
    1.1675    0.1102   10.7587 C   0  0  0  0  0  0  0  0  0  0  0  0
    0.0144    0.5573   11.4152 C   0  0  0  0  0  0  0  0  0  0  0  0
   -0.1508    0.4038   12.7817 C   0  0  0  0  0  0  0  0  0  0  0  0
    0.8278   -0.1979   13.5522 C   0  0  0  0  0  0  0  0  0  0  0  0
    4.1347   -2.5439   15.9455 C   0  0  0  0  0  0  0  0  0  0  0  0
    4.7938   -3.7270   15.4296 N   0  0  0  0  0  0  0  0  0  0  0  0
    6.0813   -3.8662   16.0846 N   0  0  0  0  0  0  0  0  0  0  0  0
    7.1783   -4.2858   15.4549 C   0  0  0  0  0  0  0  0  0  0  0  0
    7.2349   -4.4555   14.2258 O   0  0  0  0  0  0  0  0  0  0  0  0
    6.1476   -3.6398   17.0404 H   0  0  0  0  0  0  0  0  0  0  0  0
    8.3792   -4.5899   16.3537 C   0  0  0  0  0  0  0  0  0  0  0  0
    8.6050   -6.0380   16.4400 N   0  0  0  0  0  0  0  0  0  0  0  0
    9.0162   -6.6223   17.5586 C   0  0  0  0  0  0  0  0  0  0  0  0
    9.3034   -5.9789   18.5725 O   0  0  0  0  0  0  0  0  0  0  0  0
    9.1476   -8.1223   17.5855 C   0  0  0  0  0  0  0  0  0  0  0  0
    8.4463   -6.5934   15.6427 H   0  0  0  0  0  0  0  0  0  0  0  0
    9.6461   -3.8488   15.8654 C   0  0  0  0  0  0  0  0  0  0  0  0
   10.2387   -4.5301   14.6415 C   0  0  0  0  0  0  0  0  0  0  0  0
    9.2877   -2.3746   15.5362 C   0  0  0  0  0  0  0  0  0  0  0  0
    3.7894   -4.7592   15.7085 C   0  0  0  0  0  0  0  0  0  0  0  0
    4.1424   -6.0041   16.5026 C   0  0  0  0  0  0  0  0  0  0  0  0
    3.8325   -7.0816   15.4541 C   0  0  0  0  0  0  0  0  0  0  0  0
    3.5689   -8.4667   16.0195 C   0  0  0  0  0  0  0  0  0  0  0  0
    2.4595   -8.4029   17.0505 C   0  0  0  0  0  0  0  0  0  0  0  0
    2.8427   -7.4418   18.1639 C   0  0  0  0  0  0  0  0  0  0  0  0
    3.0952   -6.0652   17.6124 C   0  0  0  0  0  0  0  0  0  0  0  0
 10 11  1  0  0  0
 11 12  2  0  0  0
 11 13  1  0  0  0
 13  9  1  0  0  0
  9 15  1  0  0  0
  9  5  1  0  0  0
 15 16  1  0  0  0
 15 17  1  0  0  0
  5  6  2  0  0  0
  5  7  1  0  0  0
  7  4  1  0  0  0
  4 18  1  0  0  0
  4  1  1  0  0  0
 18 19  1  0  0  0
 19 20  2  0  0  0
 19 24  1  0  0  0
 20 21  1  0  0  0
 21 22  2  0  0  0
 22 23  1  0  0  0
 23 24  2  0  0  0
  1  2  1  0  0  0
  1 25  1  0  0  0
 25 26  1  0  0  0
 26 40  1  0  0  0
 26 27  1  0  0  0
 40 41  1  0  0  0
 41 42  1  0  0  0
 41 46  1  0  0  0
 42 43  1  0  0  0
 43 44  1  0  0  0
 44 45  1  0  0  0
 45 46  1  0  0  0
 27 28  1  0  0  0
 28 29  2  0  0  0
 28 31  1  0  0  0
 31 32  1  0  0  0
 31 37  1  0  0  0
 32 33  1  0  0  0
 37 38  1  0  0  0
 37 39  1  0  0  0
 33 34  2  0  0  0
 33 35  1  0  0  0
 13 14  1  0  0  0
  7  8  1  0  0  0
  2  3  1  0  0  0
 27 30  1  0  0  0
 32 36  1  0  0  0
M  END
> <minimizedAffinity>
-9.29495

$$$$
1HIH_C20_B_101


 46 47  0  0  0  0  0  0  0  0999 V2000
    5.4433   -1.2743   14.6248 C   0  0  0  0  0  0  0  0  0  0  0  0
    6.4802   -0.5035   15.2366 O   0  0  0  0  0  0  0  0  0  0  0  0
    6.0861    0.2198   15.7489 H   0  0  0  0  0  0  0  0  0  0  0  0
    4.6227   -0.4032   13.6508 C   0  0  0  0  0  0  0  0  0  0  0  0
    6.3719    0.0281   12.0136 C   0  0  0  0  0  0  0  0  0  0  0  0
    6.5359   -1.1675   11.7840 O   0  0  0  0  0  0  0  0  0  0  0  0
    5.4495    0.4852   12.8529 N   0  0  0  0  0  0  0  0  0  0  0  0
    5.3222    1.4578   12.9369 H   0  0  0  0  0  0  0  0  0  0  0  0
    7.2002    1.0784   11.2641 C   0  0  0  0  0  0  0  0  0  0  0  0
    9.0432   -0.2792    8.1663 C   0  0  0  0  0  0  0  0  0  0  0  0
    8.8514    0.3075    9.5681 C   0  0  0  0  0  0  0  0  0  0  0  0
    9.8256    0.5305   10.2866 O   0  0  0  0  0  0  0  0  0  0  0  0
    7.5925    0.5331    9.9495 N   0  0  0  0  0  0  0  0  0  0  0  0
    6.8752    0.3211    9.3093 H   0  0  0  0  0  0  0  0  0  0  0  0
    6.3636    2.3795   11.0961 C   0  0  0  0  0  0  0  0  0  0  0  0
    7.2330    3.6303   11.1478 C   0  0  0  0  0  0  0  0  0  0  0  0
    5.5721    2.3266    9.7799 C   0  0  0  0  0  0  0  0  0  0  0  0
    3.8245   -1.2965   12.7112 C   0  0  0  0  0  0  0  0  0  0  0  0
    2.4564   -0.7297   12.3979 C   0  0  0  0  0  0  0  0  0  0  0  0
    1.4519   -0.5120   13.4623 C   0  0  0  0  0  0  0  0  0  0  0  0
    0.2575    0.0676   13.1341 C   0  0  0  0  0  0  0  0  0  0  0  0
   -0.0202    0.4511   11.8164 C   0  0  0  0  0  0  0  0  0  0  0  0
    0.8966    0.2638   10.7954 C   0  0  0  0  0  0  0  0  0  0  0  0
    2.1271   -0.3174   11.0437 C   0  0  0  0  0  0  0  0  0  0  0  0
    4.5704   -1.8038   15.7429 C   0  0  0  0  0  0  0  0  0  0  0  0
    4.6613   -3.2454   15.8601 N   0  0  0  0  0  0  0  0  0  0  0  0
    5.9409   -3.5849   16.4547 N   0  0  0  0  0  0  0  0  0  0  0  0
    6.8925   -4.2542   15.8048 C   0  0  0  0  0  0  0  0  0  0  0  0
    6.8314   -4.5199   14.5931 O   0  0  0  0  0  0  0  0  0  0  0  0
    6.1143   -3.3074   17.3832 H   0  0  0  0  0  0  0  0  0  0  0  0
    8.0727   -4.7205   16.6605 C   0  0  0  0  0  0  0  0  0  0  0  0
    7.9484   -6.1490   16.9756 N   0  0  0  0  0  0  0  0  0  0  0  0
    7.2949   -6.5807   18.0472 C   0  0  0  0  0  0  0  0  0  0  0  0
    6.8141   -5.8091   18.8826 O   0  0  0  0  0  0  0  0  0  0  0  0
    7.1466   -8.0648   18.2553 C   0  0  0  0  0  0  0  0  0  0  0  0
    8.3630   -6.8078   16.3728 H   0  0  0  0  0  0  0  0  0  0  0  0
    9.4219   -4.4094   15.9709 C   0  0  0  0  0  0  0  0  0  0  0  0
    9.5936   -2.9132   15.7587 C   0  0  0  0  0  0  0  0  0  0  0  0
   10.5849   -4.9640   16.8369 C   0  0  0  0  0  0  0  0  0  0  0  0
    3.4604   -3.5454   16.6474 C   0  0  0  0  0  0  0  0  0  0  0  0
    2.7697   -4.8933   16.5435 C   0  0  0  0  0  0  0  0  0  0  0  0
    3.3134   -5.5660   17.8118 C   0  0  0  0  0  0  0  0  0  0  0  0
    3.2665   -7.0843   17.8003 C   0  0  0  0  0  0  0  0  0  0  0  0
    3.9842   -7.6155   16.5754 C   0  0  0  0  0  0  0  0  0  0  0  0
    3.3410   -7.0575   15.3164 C   0  0  0  0  0  0  0  0  0  0  0  0
    3.3931   -5.5542   15.3160 C   0  0  0  0  0  0  0  0  0  0  0  0
 10 11  1  0  0  0
 11 12  2  0  0  0
 11 13  1  0  0  0
 13  9  1  0  0  0
  9 15  1  0  0  0
  9  5  1  0  0  0
 15 16  1  0  0  0
 15 17  1  0  0  0
  5  6  2  0  0  0
  5  7  1  0  0  0
  7  4  1  0  0  0
  4 18  1  0  0  0
  4  1  1  0  0  0
 18 19  1  0  0  0
 19 20  2  0  0  0
 19 24  1  0  0  0
 20 21  1  0  0  0
 21 22  2  0  0  0
 22 23  1  0  0  0
 23 24  2  0  0  0
  1  2  1  0  0  0
  1 25  1  0  0  0
 25 26  1  0  0  0
 26 40  1  0  0  0
 26 27  1  0  0  0
 40 41  1  0  0  0
 41 42  1  0  0  0
 41 46  1  0  0  0
 42 43  1  0  0  0
 43 44  1  0  0  0
 44 45  1  0  0  0
 45 46  1  0  0  0
 27 28  1  0  0  0
 28 29  2  0  0  0
 28 31  1  0  0  0
 31 32  1  0  0  0
 31 37  1  0  0  0
 32 33  1  0  0  0
 37 38  1  0  0  0
 37 39  1  0  0  0
 33 34  2  0  0  0
 33 35  1  0  0  0
 13 14  1  0  0  0
  7  8  1  0  0  0
  2  3  1  0  0  0
 27 30  1  0  0  0
 32 36  1  0  0  0
M  END
> <minimizedAffinity>
-9.22522

$$$$
1HIH_C20_B_101


 46 47  0  0  0  0  0  0  0  0999 V2000
    4.6779   -1.6876   15.4914 C   0  0  0  0  0  0  0  0  0  0  0  0
    5.5795   -1.0848   16.4227 O   0  0  0  0  0  0  0  0  0  0  0  0
    6.4850   -1.3738   16.2295 H   0  0  0  0  0  0  0  0  0  0  0  0
    4.7159   -3.2250   15.6172 C   0  0  0  0  0  0  0  0  0  0  0  0
    6.9395   -4.2156   15.6395 C   0  0  0  0  0  0  0  0  0  0  0  0
    7.0087   -4.2364   14.4132 O   0  0  0  0  0  0  0  0  0  0  0  0
    5.9044   -3.7074   16.2986 N   0  0  0  0  0  0  0  0  0  0  0  0
    5.9440   -3.6561   17.2810 H   0  0  0  0  0  0  0  0  0  0  0  0
    8.1119   -4.7236   16.4872 C   0  0  0  0  0  0  0  0  0  0  0  0
    7.0665   -8.0389   18.1461 C   0  0  0  0  0  0  0  0  0  0  0  0
    7.2343   -6.5278   17.9609 C   0  0  0  0  0  0  0  0  0  0  0  0
    6.7835   -5.7458   18.7978 O   0  0  0  0  0  0  0  0  0  0  0  0
    7.8656   -6.1324   16.8536 N   0  0  0  0  0  0  0  0  0  0  0  0
    8.1897   -6.8289   16.2379 H   0  0  0  0  0  0  0  0  0  0  0  0
    9.4362   -4.5847   15.6823 C   0  0  0  0  0  0  0  0  0  0  0  0
   10.0081   -3.1741   15.7593 C   0  0  0  0  0  0  0  0  0  0  0  0
   10.4637   -5.6117   16.1836 C   0  0  0  0  0  0  0  0  0  0  0  0
    3.4901   -3.7081   16.3801 C   0  0  0  0  0  0  0  0  0  0  0  0
    3.4816   -5.2099   16.5691 C   0  0  0  0  0  0  0  0  0  0  0  0
    3.2853   -5.8160   17.9045 C   0  0  0  0  0  0  0  0  0  0  0  0
    3.2165   -7.1779   18.0076 C   0  0  0  0  0  0  0  0  0  0  0  0
    3.3295   -7.9936   16.8752 C   0  0  0  0  0  0  0  0  0  0  0  0
    3.5125   -7.4609   15.6101 C   0  0  0  0  0  0  0  0  0  0  0  0
    3.5947   -6.0932   15.4204 C   0  0  0  0  0  0  0  0  0  0  0  0
    5.1129   -1.2474   14.1096 C   0  0  0  0  0  0  0  0  0  0  0  0
    4.9271    0.1766   13.9150 N   0  0  0  0  0  0  0  0  0  0  0  0
    5.6559    0.5837   12.7278 N   0  0  0  0  0  0  0  0  0  0  0  0
    6.9232    0.9948   12.7553 C   0  0  0  0  0  0  0  0  0  0  0  0
    7.6382    0.9298   13.7688 O   0  0  0  0  0  0  0  0  0  0  0  0
    5.1916    0.5548   11.8602 H   0  0  0  0  0  0  0  0  0  0  0  0
    7.4488    1.5999   11.4514 C   0  0  0  0  0  0  0  0  0  0  0  0
    8.3061    2.7588   11.7295 N   0  0  0  0  0  0  0  0  0  0  0  0
    7.9074    4.0033   11.4964 C   0  0  0  0  0  0  0  0  0  0  0  0
    6.8229    4.2605   10.9656 O   0  0  0  0  0  0  0  0  0  0  0  0
    8.8174    5.1391   11.8833 C   0  0  0  0  0  0  0  0  0  0  0  0
    9.2054    2.6081   12.1007 H   0  0  0  0  0  0  0  0  0  0  0  0
    8.1889    0.5408   10.6009 C   0  0  0  0  0  0  0  0  0  0  0  0
    7.8875    0.7221    9.1212 C   0  0  0  0  0  0  0  0  0  0  0  0
    9.7167    0.6510   10.8534 C   0  0  0  0  0  0  0  0  0  0  0  0
    3.4640    0.2704   13.8633 C   0  0  0  0  0  0  0  0  0  0  0  0
    2.7128    0.1117   12.5536 C   0  0  0  0  0  0  0  0  0  0  0  0
    2.6573    1.5780   12.1027 C   0  0  0  0  0  0  0  0  0  0  0  0
    1.5557    1.8995   11.1073 C   0  0  0  0  0  0  0  0  0  0  0  0
    0.2128    1.4703   11.6642 C   0  0  0  0  0  0  0  0  0  0  0  0
    0.2313   -0.0185   11.9694 C   0  0  0  0  0  0  0  0  0  0  0  0
    1.3134   -0.3428   12.9627 C   0  0  0  0  0  0  0  0  0  0  0  0
 10 11  1  0  0  0
 11 12  2  0  0  0
 11 13  1  0  0  0
 13  9  1  0  0  0
  9 15  1  0  0  0
  9  5  1  0  0  0
 15 16  1  0  0  0
 15 17  1  0  0  0
  5  6  2  0  0  0
  5  7  1  0  0  0
  7  4  1  0  0  0
  4 18  1  0  0  0
  4  1  1  0  0  0
 18 19  1  0  0  0
 19 20  2  0  0  0
 19 24  1  0  0  0
 20 21  1  0  0  0
 21 22  2  0  0  0
 22 23  1  0  0  0
 23 24  2  0  0  0
  1  2  1  0  0  0
  1 25  1  0  0  0
 25 26  1  0  0  0
 26 40  1  0  0  0
 26 27  1  0  0  0
 40 41  1  0  0  0
 41 42  1  0  0  0
 41 46  1  0  0  0
 42 43  1  0  0  0
 43 44  1  0  0  0
 44 45  1  0  0  0
 45 46  1  0  0  0
 27 28  1  0  0  0
 28 29  2  0  0  0
 28 31  1  0  0  0
 31 32  1  0  0  0
 31 37  1  0  0  0
 32 33  1  0  0  0
 37 38  1  0  0  0
 37 39  1  0  0  0
 33 34  2  0  0  0
 33 35  1  0  0  0
 13 14  1  0  0  0
  7  8  1  0  0  0
  2  3  1  0  0  0
 27 30  1  0  0  0
 32 36  1  0  0  0
M  END
> <minimizedAffinity>
-9.16676

$$$$
1HIH_C20_B_101


 46 47  0  0  0  0  0  0  0  0999 V2000
    4.0969   -2.2403   14.8970 C   0  0  0  0  0  0  0  0  0  0  0  0
    2.9947   -2.2385   15.8075 O   0  0  0  0  0  0  0  0  0  0  0  0
    3.3236   -2.1265   16.7131 H   0  0  0  0  0  0  0  0  0  0  0  0
    5.0481   -3.4171   15.1990 C   0  0  0  0  0  0  0  0  0  0  0  0
    4.7997   -5.6273   16.1886 C   0  0  0  0  0  0  0  0  0  0  0  0
    5.7822   -5.4808   16.9111 O   0  0  0  0  0  0  0  0  0  0  0  0
    4.3493   -4.6780   15.3761 N   0  0  0  0  0  0  0  0  0  0  0  0
    3.5147   -4.8340   14.8778 H   0  0  0  0  0  0  0  0  0  0  0  0
    3.9837   -6.9241   16.2492 C   0  0  0  0  0  0  0  0  0  0  0  0
    5.8956  -10.2467   16.6250 C   0  0  0  0  0  0  0  0  0  0  0  0
    4.8821   -9.2392   16.0741 C   0  0  0  0  0  0  0  0  0  0  0  0
    4.1425   -9.5498   15.1405 O   0  0  0  0  0  0  0  0  0  0  0  0
    4.8728   -8.0337   16.6466 N   0  0  0  0  0  0  0  0  0  0  0  0
    5.5030   -7.8731   17.3858 H   0  0  0  0  0  0  0  0  0  0  0  0
    2.8169   -6.7591   17.2652 C   0  0  0  0  0  0  0  0  0  0  0  0
    2.2746   -8.1027   17.7379 C   0  0  0  0  0  0  0  0  0  0  0  0
    3.2802   -5.9131   18.4616 C   0  0  0  0  0  0  0  0  0  0  0  0
    6.0488   -3.5730   14.0622 C   0  0  0  0  0  0  0  0  0  0  0  0
    7.4740   -3.6890   14.5586 C   0  0  0  0  0  0  0  0  0  0  0  0
    8.2728   -4.9123   14.3244 C   0  0  0  0  0  0  0  0  0  0  0  0
    9.5777   -4.9368   14.7330 C   0  0  0  0  0  0  0  0  0  0  0  0
   10.1569   -3.8290   15.3637 C   0  0  0  0  0  0  0  0  0  0  0  0
    9.4398   -2.6676   15.5979 C   0  0  0  0  0  0  0  0  0  0  0  0
    8.1141   -2.5625   15.2171 C   0  0  0  0  0  0  0  0  0  0  0  0
    4.8078   -0.9140   15.0640 C   0  0  0  0  0  0  0  0  0  0  0  0
    5.0753   -0.2821   13.7875 N   0  0  0  0  0  0  0  0  0  0  0  0
    3.9057    0.4800   13.3906 N   0  0  0  0  0  0  0  0  0  0  0  0
    3.1896    0.2026   12.3015 C   0  0  0  0  0  0  0  0  0  0  0  0
    3.3676   -0.8139   11.6104 O   0  0  0  0  0  0  0  0  0  0  0  0
    3.6279    1.2387   13.9532 H   0  0  0  0  0  0  0  0  0  0  0  0
    2.1384    1.2474   11.9195 C   0  0  0  0  0  0  0  0  0  0  0  0
    2.4897    1.8912   10.6477 N   0  0  0  0  0  0  0  0  0  0  0  0
    2.9842    3.1218   10.5930 C   0  0  0  0  0  0  0  0  0  0  0  0
    3.1117    3.8273   11.5982 O   0  0  0  0  0  0  0  0  0  0  0  0
    3.3921    3.6790    9.2548 C   0  0  0  0  0  0  0  0  0  0  0  0
    2.3543    1.3943    9.8087 H   0  0  0  0  0  0  0  0  0  0  0  0
    0.7236    0.6244   11.8654 C   0  0  0  0  0  0  0  0  0  0  0  0
    0.3727   -0.0471   13.1842 C   0  0  0  0  0  0  0  0  0  0  0  0
   -0.3154    1.7295   11.5344 C   0  0  0  0  0  0  0  0  0  0  0  0
    6.2928    0.4771   14.0930 C   0  0  0  0  0  0  0  0  0  0  0  0
    7.5510    0.3119   13.2596 C   0  0  0  0  0  0  0  0  0  0  0  0
    7.8888    1.7864   12.9980 C   0  0  0  0  0  0  0  0  0  0  0  0
    8.7734    2.0346   11.7883 C   0  0  0  0  0  0  0  0  0  0  0  0
    8.1508    1.4116   10.5546 C   0  0  0  0  0  0  0  0  0  0  0  0
    7.9570   -0.0804   10.7702 C   0  0  0  0  0  0  0  0  0  0  0  0
    7.0731   -0.3336   11.9608 C   0  0  0  0  0  0  0  0  0  0  0  0
 10 11  1  0  0  0
 11 12  2  0  0  0
 11 13  1  0  0  0
 13  9  1  0  0  0
  9 15  1  0  0  0
  9  5  1  0  0  0
 15 16  1  0  0  0
 15 17  1  0  0  0
  5  6  2  0  0  0
  5  7  1  0  0  0
  7  4  1  0  0  0
  4 18  1  0  0  0
  4  1  1  0  0  0
 18 19  1  0  0  0
 19 20  2  0  0  0
 19 24  1  0  0  0
 20 21  1  0  0  0
 21 22  2  0  0  0
 22 23  1  0  0  0
 23 24  2  0  0  0
  1  2  1  0  0  0
  1 25  1  0  0  0
 25 26  1  0  0  0
 26 40  1  0  0  0
 26 27  1  0  0  0
 40 41  1  0  0  0
 41 42  1  0  0  0
 41 46  1  0  0  0
 42 43  1  0  0  0
 43 44  1  0  0  0
 44 45  1  0  0  0
 45 46  1  0  0  0
 27 28  1  0  0  0
 28 29  2  0  0  0
 28 31  1  0  0  0
 31 32  1  0  0  0
 31 37  1  0  0  0
 32 33  1  0  0  0
 37 38  1  0  0  0
 37 39  1  0  0  0
 33 34  2  0  0  0
 33 35  1  0  0  0
 13 14  1  0  0  0
  7  8  1  0  0  0
  2  3  1  0  0  0
 27 30  1  0  0  0
 32 36  1  0  0  0
M  END
> <minimizedAffinity>
-9.05524

$$$$
1HIH_C20_B_101


 46 47  0  0  0  0  0  0  0  0999 V2000
    4.7575   -1.0274   15.2275 C   0  0  0  0  0  0  0  0  0  0  0  0
    5.1508   -0.3857   16.4429 O   0  0  0  0  0  0  0  0  0  0  0  0
    6.0497   -0.6635   16.6790 H   0  0  0  0  0  0  0  0  0  0  0  0
    4.7432   -2.5603   15.4035 C   0  0  0  0  0  0  0  0  0  0  0  0
    6.7437   -3.9173   15.6904 C   0  0  0  0  0  0  0  0  0  0  0  0
    6.7250   -4.3001   14.5233 O   0  0  0  0  0  0  0  0  0  0  0  0
    5.8662   -3.0505   16.1832 N   0  0  0  0  0  0  0  0  0  0  0  0
    5.9808   -2.7299   17.1070 H   0  0  0  0  0  0  0  0  0  0  0  0
    7.8575   -4.3811   16.6368 C   0  0  0  0  0  0  0  0  0  0  0  0
    7.1841   -7.9474   17.9268 C   0  0  0  0  0  0  0  0  0  0  0  0
    7.2271   -6.4164   17.9242 C   0  0  0  0  0  0  0  0  0  0  0  0
    6.7851   -5.7811   18.8814 O   0  0  0  0  0  0  0  0  0  0  0  0
    7.7426   -5.8392   16.8368 N   0  0  0  0  0  0  0  0  0  0  0  0
    8.0691   -6.4271   16.1178 H   0  0  0  0  0  0  0  0  0  0  0  0
    9.2429   -4.0131   16.0316 C   0  0  0  0  0  0  0  0  0  0  0  0
    9.6745   -4.9958   14.9495 C   0  0  0  0  0  0  0  0  0  0  0  0
    9.2079   -2.5805   15.4766 C   0  0  0  0  0  0  0  0  0  0  0  0
    3.4532   -2.9859   16.0911 C   0  0  0  0  0  0  0  0  0  0  0  0
    3.4156   -4.4710   16.3812 C   0  0  0  0  0  0  0  0  0  0  0  0
    3.3293   -4.9820   17.7671 C   0  0  0  0  0  0  0  0  0  0  0  0
    3.2278   -6.3309   17.9681 C   0  0  0  0  0  0  0  0  0  0  0  0
    3.2060   -7.2215   16.8879 C   0  0  0  0  0  0  0  0  0  0  0  0
    3.2835   -6.7786   15.5780 C   0  0  0  0  0  0  0  0  0  0  0  0
    3.3901   -5.4300   15.2894 C   0  0  0  0  0  0  0  0  0  0  0  0
    5.7573   -0.6143   14.1681 C   0  0  0  0  0  0  0  0  0  0  0  0
    5.1834    0.3216   13.2221 N   0  0  0  0  0  0  0  0  0  0  0  0
    6.0732    0.4357   12.0812 N   0  0  0  0  0  0  0  0  0  0  0  0
    6.0905    1.4950   11.2730 C   0  0  0  0  0  0  0  0  0  0  0  0
    5.4558    2.5375   11.5032 O   0  0  0  0  0  0  0  0  0  0  0  0
    6.6940   -0.3055   11.8954 H   0  0  0  0  0  0  0  0  0  0  0  0
    6.9235    1.3387    9.9985 C   0  0  0  0  0  0  0  0  0  0  0  0
    6.3342    2.1129    8.8991 N   0  0  0  0  0  0  0  0  0  0  0  0
    6.3751    1.6940    7.6403 C   0  0  0  0  0  0  0  0  0  0  0  0
    6.9722    0.6666    7.3055 O   0  0  0  0  0  0  0  0  0  0  0  0
    5.6779    2.5092    6.5833 C   0  0  0  0  0  0  0  0  0  0  0  0
    5.8946    2.9701    9.1021 H   0  0  0  0  0  0  0  0  0  0  0  0
    8.3987    1.7356   10.2416 C   0  0  0  0  0  0  0  0  0  0  0  0
    8.5078    2.7839   11.3382 C   0  0  0  0  0  0  0  0  0  0  0  0
    9.2171    0.4732   10.6247 C   0  0  0  0  0  0  0  0  0  0  0  0
    3.8681   -0.2824   12.9832 C   0  0  0  0  0  0  0  0  0  0  0  0
    2.6242    0.5759   12.8394 C   0  0  0  0  0  0  0  0  0  0  0  0
    1.5845   -0.3591   13.4729 C   0  0  0  0  0  0  0  0  0  0  0  0
    0.1470   -0.0874   13.0637 C   0  0  0  0  0  0  0  0  0  0  0  0
    0.0247   -0.1129   11.5531 C   0  0  0  0  0  0  0  0  0  0  0  0
    0.9530    0.9235   10.9414 C   0  0  0  0  0  0  0  0  0  0  0  0
    2.3800    0.6546   11.3340 C   0  0  0  0  0  0  0  0  0  0  0  0
 10 11  1  0  0  0
 11 12  2  0  0  0
 11 13  1  0  0  0
 13  9  1  0  0  0
  9 15  1  0  0  0
  9  5  1  0  0  0
 15 16  1  0  0  0
 15 17  1  0  0  0
  5  6  2  0  0  0
  5  7  1  0  0  0
  7  4  1  0  0  0
  4 18  1  0  0  0
  4  1  1  0  0  0
 18 19  1  0  0  0
 19 20  2  0  0  0
 19 24  1  0  0  0
 20 21  1  0  0  0
 21 22  2  0  0  0
 22 23  1  0  0  0
 23 24  2  0  0  0
  1  2  1  0  0  0
  1 25  1  0  0  0
 25 26  1  0  0  0
 26 40  1  0  0  0
 26 27  1  0  0  0
 40 41  1  0  0  0
 41 42  1  0  0  0
 41 46  1  0  0  0
 42 43  1  0  0  0
 43 44  1  0  0  0
 44 45  1  0  0  0
 45 46  1  0  0  0
 27 28  1  0  0  0
 28 29  2  0  0  0
 28 31  1  0  0  0
 31 32  1  0  0  0
 31 37  1  0  0  0
 32 33  1  0  0  0
 37 38  1  0  0  0
 37 39  1  0  0  0
 33 34  2  0  0  0
 33 35  1  0  0  0
 13 14  1  0  0  0
  7  8  1  0  0  0
  2  3  1  0  0  0
 27 30  1  0  0  0
 32 36  1  0  0  0
M  END
> <minimizedAffinity>
-8.86418

$$$$
