3GI6_D78_A_200


 48 51  0  0  0  0  0  0  0  0999 V2000
   20.3404   28.5619   13.1799 C   0  0  0  0  0  0  0  0  0  0  0  0
   20.3749   29.6121   14.2034 N   0  0  0  0  0  0  0  0  0  0  0  0
   20.1339   29.3714   15.4991 C   0  0  0  0  0  0  0  0  0  0  0  0
   19.9594   28.2582   15.9830 O   0  0  0  0  0  0  0  0  0  0  0  0
   20.5842   30.5333   13.9263 H   0  0  0  0  0  0  0  0  0  0  0  0
   20.0623   30.5626   16.4166 C   0  0  0  0  0  0  0  0  0  0  0  0
   21.0741   31.5532   16.1565 O   0  0  0  0  0  0  0  0  0  0  0  0
   20.3929   32.8226   16.0759 C   0  0  0  0  0  0  0  0  0  0  0  0
   21.0675   33.8395   16.0805 O   0  0  0  0  0  0  0  0  0  0  0  0
   18.7068   31.2475   16.1698 C   0  0  0  0  0  0  0  0  0  0  0  0
   19.0612   32.6521   16.0420 N   0  0  0  0  0  0  0  0  0  0  0  0
   18.0873   33.6321   15.9820 C   0  0  0  0  0  0  0  0  0  0  0  0
   17.4567   33.9690   14.7777 C   0  0  0  0  0  0  0  0  0  0  0  0
   16.4742   34.9666   14.7268 C   0  0  0  0  0  0  0  0  0  0  0  0
   16.1148   35.6633   15.8718 C   0  0  0  0  0  0  0  0  0  0  0  0
   17.7051   34.3553   17.1382 C   0  0  0  0  0  0  0  0  0  0  0  0
   16.7216   35.3575   17.0912 C   0  0  0  0  0  0  0  0  0  0  0  0
   16.3167   36.1104   18.3414 C   0  0  0  0  0  0  0  0  0  0  0  0
   15.4532   35.4075   19.0410 F   0  0  0  0  0  0  0  0  0  0  0  0
   15.7374   37.2479   18.0485 F   0  0  0  0  0  0  0  0  0  0  0  0
   17.3634   36.3648   19.0991 F   0  0  0  0  0  0  0  0  0  0  0  0
   21.7057   27.9774   12.8013 C   0  0  0  0  0  0  0  0  0  0  0  0
   22.8114   28.8263   13.1556 O   0  0  0  0  0  0  0  0  0  0  0  0
   22.7518   29.6585   12.6607 H   0  0  0  0  0  0  0  0  0  0  0  0
   21.7809   27.7285   11.2916 C   0  0  0  0  0  0  0  0  0  0  0  0
   21.7290   26.2810   10.9872 N   0  0  0  0  0  0  0  0  0  0  0  0
   20.1833   27.1387    9.3072 O   0  0  0  0  0  0  0  0  0  0  0  0
   20.7284   25.8804    9.7624 S   0  0  0  0  0  0  0  0  0  0  0  0
   21.4450   25.2329    8.7140 O   0  0  0  0  0  0  0  0  0  0  0  0
   19.5301   24.9173   10.2734 C   0  0  0  0  0  0  0  0  0  0  0  0
   18.3474   24.7869    9.5379 C   0  0  0  0  0  0  0  0  0  0  0  0
   17.3008   23.9703    9.9839 C   0  0  0  0  0  0  0  0  0  0  0  0
   17.4218   23.2729   11.1997 C   0  0  0  0  0  0  0  0  0  0  0  0
   18.5929   23.4007   11.9328 C   0  0  0  0  0  0  0  0  0  0  0  0
   19.6360   24.2148   11.4754 C   0  0  0  0  0  0  0  0  0  0  0  0
   16.4352   22.4685   11.7108 O   0  0  0  0  0  0  0  0  0  0  0  0
   15.5874   21.6438   10.8973 C   0  0  0  0  0  0  0  0  0  0  0  0
   23.0709   25.6702   10.8389 C   0  0  0  0  0  0  0  0  0  0  0  0
   24.0933   26.7268   10.3931 C   0  0  0  0  0  0  0  0  0  0  0  0
   25.1825   26.9703   11.4379 C   0  0  0  0  0  0  0  0  0  0  0  0
   24.7186   26.3255    9.0654 C   0  0  0  0  0  0  0  0  0  0  0  0
   19.6151   29.2691   12.0215 C   0  0  0  0  0  0  0  0  0  0  0  0
   18.2472   28.6385   11.7845 C   0  0  0  0  0  0  0  0  0  0  0  0
   17.3312   29.2368   10.9141 C   0  0  0  0  0  0  0  0  0  0  0  0
   16.0748   28.6768   10.7103 C   0  0  0  0  0  0  0  0  0  0  0  0
   15.7063   27.5092   11.3690 C   0  0  0  0  0  0  0  0  0  0  0  0
   16.6087   26.9097   12.2330 C   0  0  0  0  0  0  0  0  0  0  0  0
   17.8737   27.4707   12.4452 C   0  0  0  0  0  0  0  0  0  0  0  0
 27 28  2  0  0  0
 28 29  2  0  0  0
 28 30  1  0  0  0
 28 26  1  0  0  0
 30 31  2  0  0  0
 30 35  1  0  0  0
 31 32  1  0  0  0
 32 33  2  0  0  0
 33 36  1  0  0  0
 33 34  1  0  0  0
 36 37  1  0  0  0
 34 35  2  0  0  0
 26 38  1  0  0  0
 26 25  1  0  0  0
 38 39  1  0  0  0
 39 40  1  0  0  0
 39 41  1  0  0  0
 25 22  1  0  0  0
 22 23  1  0  0  0
 22  1  1  0  0  0
  1 42  1  0  0  0
  1  2  1  0  0  0
 42 43  1  0  0  0
 43 44  2  0  0  0
 43 48  1  0  0  0
 44 45  1  0  0  0
 45 46  2  0  0  0
 46 47  1  0  0  0
 47 48  2  0  0  0
  2  3  1  0  0  0
  3  4  2  0  0  0
  3  6  1  0  0  0
  6  7  1  0  0  0
  6 10  1  0  0  0
  7  8  1  0  0  0
  8  9  2  0  0  0
  8 11  1  0  0  0
 10 11  1  0  0  0
 11 12  1  0  0  0
 12 13  2  0  0  0
 12 16  1  0  0  0
 13 14  1  0  0  0
 14 15  2  0  0  0
 15 17  1  0  0  0
 16 17  2  0  0  0
 17 18  1  0  0  0
 18 19  1  0  0  0
 18 20  1  0  0  0
 18 21  1  0  0  0
 23 24  1  0  0  0
  2  5  1  0  0  0
M  END
> <minimizedAffinity>
-9.73040

$$$$
3GI6_D78_A_200


 48 51  0  0  0  0  0  0  0  0999 V2000
   19.2662   29.5798   14.2421 C   0  0  0  0  0  0  0  0  0  0  0  0
   20.2606   28.9467   13.3692 N   0  0  0  0  0  0  0  0  0  0  0  0
   21.0746   29.6472   12.5683 C   0  0  0  0  0  0  0  0  0  0  0  0
   21.1504   30.8710   12.5457 O   0  0  0  0  0  0  0  0  0  0  0  0
   20.3329   27.9648   13.3721 H   0  0  0  0  0  0  0  0  0  0  0  0
   21.9467   28.8652   11.6228 C   0  0  0  0  0  0  0  0  0  0  0  0
   22.7093   27.8271   12.2657 O   0  0  0  0  0  0  0  0  0  0  0  0
   22.4999   26.6270   11.4925 C   0  0  0  0  0  0  0  0  0  0  0  0
   23.2181   25.6658   11.7153 O   0  0  0  0  0  0  0  0  0  0  0  0
   21.0159   28.1648   10.6176 C   0  0  0  0  0  0  0  0  0  0  0  0
   21.5194   26.8007   10.5913 N   0  0  0  0  0  0  0  0  0  0  0  0
   21.0515   25.8841    9.6677 C   0  0  0  0  0  0  0  0  0  0  0  0
   21.8691   25.3894    8.6437 C   0  0  0  0  0  0  0  0  0  0  0  0
   21.3841   24.4642    7.7101 C   0  0  0  0  0  0  0  0  0  0  0  0
   20.0677   24.0285    7.7656 C   0  0  0  0  0  0  0  0  0  0  0  0
   19.7119   25.4259    9.7057 C   0  0  0  0  0  0  0  0  0  0  0  0
   19.2210   24.4995    8.7706 C   0  0  0  0  0  0  0  0  0  0  0  0
   17.7889   24.0111    8.8363 C   0  0  0  0  0  0  0  0  0  0  0  0
   17.6465   22.9105    8.1309 F   0  0  0  0  0  0  0  0  0  0  0  0
   16.9589   24.8944    8.3404 F   0  0  0  0  0  0  0  0  0  0  0  0
   17.4313   23.7628   10.0792 F   0  0  0  0  0  0  0  0  0  0  0  0
   19.7848   29.9986   15.6222 C   0  0  0  0  0  0  0  0  0  0  0  0
   19.9744   28.8937   16.5234 O   0  0  0  0  0  0  0  0  0  0  0  0
   19.1202   28.4684   16.6978 H   0  0  0  0  0  0  0  0  0  0  0  0
   18.8083   30.9737   16.2873 C   0  0  0  0  0  0  0  0  0  0  0  0
   18.9169   32.3248   15.6928 N   0  0  0  0  0  0  0  0  0  0  0  0
   17.9375   33.6302   13.8808 O   0  0  0  0  0  0  0  0  0  0  0  0
   17.5284   32.9012   15.0592 S   0  0  0  0  0  0  0  0  0  0  0  0
   16.6489   31.8345   14.7119 O   0  0  0  0  0  0  0  0  0  0  0  0
   16.7825   33.9027   16.0913 C   0  0  0  0  0  0  0  0  0  0  0  0
   15.9797   33.4062   17.1236 C   0  0  0  0  0  0  0  0  0  0  0  0
   15.3177   34.2673   18.0074 C   0  0  0  0  0  0  0  0  0  0  0  0
   15.4422   35.6606   17.8577 C   0  0  0  0  0  0  0  0  0  0  0  0
   16.2366   36.1570   16.8341 C   0  0  0  0  0  0  0  0  0  0  0  0
   16.8993   35.2878   15.9594 C   0  0  0  0  0  0  0  0  0  0  0  0
   14.8120   36.5674   18.6716 O   0  0  0  0  0  0  0  0  0  0  0  0
   15.4141   37.7989   19.0978 C   0  0  0  0  0  0  0  0  0  0  0  0
   19.5732   33.3035   16.5913 C   0  0  0  0  0  0  0  0  0  0  0  0
   20.7666   33.9631   15.8835 C   0  0  0  0  0  0  0  0  0  0  0  0
   21.1624   35.2976   16.5157 C   0  0  0  0  0  0  0  0  0  0  0  0
   21.9568   33.0156   15.8670 C   0  0  0  0  0  0  0  0  0  0  0  0
   18.1546   28.5164   14.2832 C   0  0  0  0  0  0  0  0  0  0  0  0
   17.5593   28.3131   12.8943 C   0  0  0  0  0  0  0  0  0  0  0  0
   17.2498   29.4118   12.0870 C   0  0  0  0  0  0  0  0  0  0  0  0
   16.6878   29.2323   10.8279 C   0  0  0  0  0  0  0  0  0  0  0  0
   16.4236   27.9547   10.3476 C   0  0  0  0  0  0  0  0  0  0  0  0
   16.7281   26.8603   11.1413 C   0  0  0  0  0  0  0  0  0  0  0  0
   17.2906   27.0347   12.4114 C   0  0  0  0  0  0  0  0  0  0  0  0
 27 28  2  0  0  0
 28 29  2  0  0  0
 28 30  1  0  0  0
 28 26  1  0  0  0
 30 31  2  0  0  0
 30 35  1  0  0  0
 31 32  1  0  0  0
 32 33  2  0  0  0
 33 36  1  0  0  0
 33 34  1  0  0  0
 36 37  1  0  0  0
 34 35  2  0  0  0
 26 38  1  0  0  0
 26 25  1  0  0  0
 38 39  1  0  0  0
 39 40  1  0  0  0
 39 41  1  0  0  0
 25 22  1  0  0  0
 22 23  1  0  0  0
 22  1  1  0  0  0
  1 42  1  0  0  0
  1  2  1  0  0  0
 42 43  1  0  0  0
 43 44  2  0  0  0
 43 48  1  0  0  0
 44 45  1  0  0  0
 45 46  2  0  0  0
 46 47  1  0  0  0
 47 48  2  0  0  0
  2  3  1  0  0  0
  3  4  2  0  0  0
  3  6  1  0  0  0
  6  7  1  0  0  0
  6 10  1  0  0  0
  7  8  1  0  0  0
  8  9  2  0  0  0
  8 11  1  0  0  0
 10 11  1  0  0  0
 11 12  1  0  0  0
 12 13  2  0  0  0
 12 16  1  0  0  0
 13 14  1  0  0  0
 14 15  2  0  0  0
 15 17  1  0  0  0
 16 17  2  0  0  0
 17 18  1  0  0  0
 18 19  1  0  0  0
 18 20  1  0  0  0
 18 21  1  0  0  0
 23 24  1  0  0  0
  2  5  1  0  0  0
M  END
> <minimizedAffinity>
-9.41478

$$$$
3GI6_D78_A_200


 48 51  0  0  0  0  0  0  0  0999 V2000
   20.1516   32.0617   14.3181 C   0  0  0  0  0  0  0  0  0  0  0  0
   20.5651   33.1311   15.2330 N   0  0  0  0  0  0  0  0  0  0  0  0
   21.1215   32.8899   16.4276 C   0  0  0  0  0  0  0  0  0  0  0  0
   21.4335   31.7788   16.8423 O   0  0  0  0  0  0  0  0  0  0  0  0
   20.4279   34.0662   14.9573 H   0  0  0  0  0  0  0  0  0  0  0  0
   21.3661   34.0753   17.3227 C   0  0  0  0  0  0  0  0  0  0  0  0
   22.0228   35.1724   16.6611 O   0  0  0  0  0  0  0  0  0  0  0  0
   21.2539   36.3542   16.9673 C   0  0  0  0  0  0  0  0  0  0  0  0
   21.7381   37.4418   16.6988 O   0  0  0  0  0  0  0  0  0  0  0  0
   19.9909   34.5973   17.7739 C   0  0  0  0  0  0  0  0  0  0  0  0
   20.0911   36.0318   17.5569 N   0  0  0  0  0  0  0  0  0  0  0  0
   19.1067   36.8929   18.0062 C   0  0  0  0  0  0  0  0  0  0  0  0
   19.4155   38.1596   18.5176 C   0  0  0  0  0  0  0  0  0  0  0  0
   18.4110   39.0229   18.9744 C   0  0  0  0  0  0  0  0  0  0  0  0
   17.0794   38.6331   18.9500 C   0  0  0  0  0  0  0  0  0  0  0  0
   17.7417   36.5156   17.9902 C   0  0  0  0  0  0  0  0  0  0  0  0
   16.7315   37.3775   18.4488 C   0  0  0  0  0  0  0  0  0  0  0  0
   15.2759   36.9610   18.4107 C   0  0  0  0  0  0  0  0  0  0  0  0
   15.0492   36.0046   19.2843 F   0  0  0  0  0  0  0  0  0  0  0  0
   14.9429   36.4922   17.2340 F   0  0  0  0  0  0  0  0  0  0  0  0
   14.4863   37.9781   18.6869 F   0  0  0  0  0  0  0  0  0  0  0  0
   21.2577   31.5242   13.4035 C   0  0  0  0  0  0  0  0  0  0  0  0
   20.9228   31.5771   12.0057 O   0  0  0  0  0  0  0  0  0  0  0  0
   20.1589   31.0044   11.8344 H   0  0  0  0  0  0  0  0  0  0  0  0
   21.5738   30.0651   13.7470 C   0  0  0  0  0  0  0  0  0  0  0  0
   20.8315   29.1374   12.8644 N   0  0  0  0  0  0  0  0  0  0  0  0
   22.0018   29.2453   10.7277 O   0  0  0  0  0  0  0  0  0  0  0  0
   21.7629   28.3151   11.8071 S   0  0  0  0  0  0  0  0  0  0  0  0
   22.9912   27.9211   12.4139 O   0  0  0  0  0  0  0  0  0  0  0  0
   20.9946   27.0056   11.2417 C   0  0  0  0  0  0  0  0  0  0  0  0
   21.3780   25.7194   11.6357 C   0  0  0  0  0  0  0  0  0  0  0  0
   20.7298   24.5830   11.1362 C   0  0  0  0  0  0  0  0  0  0  0  0
   19.6806   24.7221   10.2092 C   0  0  0  0  0  0  0  0  0  0  0  0
   19.2984   25.9963    9.8149 C   0  0  0  0  0  0  0  0  0  0  0  0
   19.9487   27.1264   10.3247 C   0  0  0  0  0  0  0  0  0  0  0  0
   19.0094   23.6581    9.6625 O   0  0  0  0  0  0  0  0  0  0  0  0
   17.9877   23.7970    8.6637 C   0  0  0  0  0  0  0  0  0  0  0  0
   19.9036   28.2497   13.6040 C   0  0  0  0  0  0  0  0  0  0  0  0
   18.4564   28.7423   13.4514 C   0  0  0  0  0  0  0  0  0  0  0  0
   18.2278   29.5036   12.1454 C   0  0  0  0  0  0  0  0  0  0  0  0
   17.4895   27.5721   13.5539 C   0  0  0  0  0  0  0  0  0  0  0  0
   18.9789   32.7186   13.5689 C   0  0  0  0  0  0  0  0  0  0  0  0
   17.7619   32.8348   14.4800 C   0  0  0  0  0  0  0  0  0  0  0  0
   17.1562   34.0754   14.7004 C   0  0  0  0  0  0  0  0  0  0  0  0
   16.0587   34.1899   15.5466 C   0  0  0  0  0  0  0  0  0  0  0  0
   15.5424   33.0705   16.1894 C   0  0  0  0  0  0  0  0  0  0  0  0
   16.1366   31.8370   15.9758 C   0  0  0  0  0  0  0  0  0  0  0  0
   17.2441   31.7160   15.1280 C   0  0  0  0  0  0  0  0  0  0  0  0
 27 28  2  0  0  0
 28 29  2  0  0  0
 28 30  1  0  0  0
 28 26  1  0  0  0
 30 31  2  0  0  0
 30 35  1  0  0  0
 31 32  1  0  0  0
 32 33  2  0  0  0
 33 36  1  0  0  0
 33 34  1  0  0  0
 36 37  1  0  0  0
 34 35  2  0  0  0
 26 38  1  0  0  0
 26 25  1  0  0  0
 38 39  1  0  0  0
 39 40  1  0  0  0
 39 41  1  0  0  0
 25 22  1  0  0  0
 22 23  1  0  0  0
 22  1  1  0  0  0
  1 42  1  0  0  0
  1  2  1  0  0  0
 42 43  1  0  0  0
 43 44  2  0  0  0
 43 48  1  0  0  0
 44 45  1  0  0  0
 45 46  2  0  0  0
 46 47  1  0  0  0
 47 48  2  0  0  0
  2  3  1  0  0  0
  3  4  2  0  0  0
  3  6  1  0  0  0
  6  7  1  0  0  0
  6 10  1  0  0  0
  7  8  1  0  0  0
  8  9  2  0  0  0
  8 11  1  0  0  0
 10 11  1  0  0  0
 11 12  1  0  0  0
 12 13  2  0  0  0
 12 16  1  0  0  0
 13 14  1  0  0  0
 14 15  2  0  0  0
 15 17  1  0  0  0
 16 17  2  0  0  0
 17 18  1  0  0  0
 18 19  1  0  0  0
 18 20  1  0  0  0
 18 21  1  0  0  0
 23 24  1  0  0  0
  2  5  1  0  0  0
M  END
> <minimizedAffinity>
-9.38102

$$$$
3GI6_D78_A_200


 48 51  0  0  0  0  0  0  0  0999 V2000
   17.8480   31.1784   15.0655 C   0  0  0  0  0  0  0  0  0  0  0  0
   17.5190   30.0860   14.1435 N   0  0  0  0  0  0  0  0  0  0  0  0
   17.6699   30.1860   12.8161 C   0  0  0  0  0  0  0  0  0  0  0  0
   18.1811   31.1404   12.2402 O   0  0  0  0  0  0  0  0  0  0  0  0
   17.1723   29.2432   14.5162 H   0  0  0  0  0  0  0  0  0  0  0  0
   17.1607   29.0428   11.9795 C   0  0  0  0  0  0  0  0  0  0  0  0
   16.9864   29.3771   10.5901 O   0  0  0  0  0  0  0  0  0  0  0  0
   17.6420   28.3378    9.8338 C   0  0  0  0  0  0  0  0  0  0  0  0
   17.4407   28.2864    8.6312 O   0  0  0  0  0  0  0  0  0  0  0  0
   18.2231   27.9311   12.0314 C   0  0  0  0  0  0  0  0  0  0  0  0
   18.3718   27.5465   10.6368 N   0  0  0  0  0  0  0  0  0  0  0  0
   19.1219   26.4421   10.2763 C   0  0  0  0  0  0  0  0  0  0  0  0
   19.1584   25.2878   11.0686 C   0  0  0  0  0  0  0  0  0  0  0  0
   19.9252   24.1757   10.6968 C   0  0  0  0  0  0  0  0  0  0  0  0
   20.6879   24.1991    9.5377 C   0  0  0  0  0  0  0  0  0  0  0  0
   19.9074   26.4443    9.0978 C   0  0  0  0  0  0  0  0  0  0  0  0
   20.6790   25.3319    8.7221 C   0  0  0  0  0  0  0  0  0  0  0  0
   21.5017   25.3486    7.4506 C   0  0  0  0  0  0  0  0  0  0  0  0
   21.5835   24.1392    6.9410 F   0  0  0  0  0  0  0  0  0  0  0  0
   22.7266   25.7524    7.6785 F   0  0  0  0  0  0  0  0  0  0  0  0
   20.9655   26.1479    6.5518 F   0  0  0  0  0  0  0  0  0  0  0  0
   19.0898   30.9456   15.9331 C   0  0  0  0  0  0  0  0  0  0  0  0
   18.7941   30.3591   17.2127 O   0  0  0  0  0  0  0  0  0  0  0  0
   18.2421   30.9682   17.7277 H   0  0  0  0  0  0  0  0  0  0  0  0
   19.8187   32.2684   16.1895 C   0  0  0  0  0  0  0  0  0  0  0  0
   21.2346   32.1871   15.7661 N   0  0  0  0  0  0  0  0  0  0  0  0
   20.2770   32.9572   13.6598 O   0  0  0  0  0  0  0  0  0  0  0  0
   21.4699   32.3109   14.1565 S   0  0  0  0  0  0  0  0  0  0  0  0
   22.6245   33.0971   13.8723 O   0  0  0  0  0  0  0  0  0  0  0  0
   21.6277   30.8512   13.4716 C   0  0  0  0  0  0  0  0  0  0  0  0
   22.1437   29.7693   14.1925 C   0  0  0  0  0  0  0  0  0  0  0  0
   22.2996   28.5099   13.6005 C   0  0  0  0  0  0  0  0  0  0  0  0
   21.9479   28.3181   12.2518 C   0  0  0  0  0  0  0  0  0  0  0  0
   21.4370   29.3893   11.5330 C   0  0  0  0  0  0  0  0  0  0  0  0
   21.2792   30.6430   12.1357 C   0  0  0  0  0  0  0  0  0  0  0  0
   22.0874   27.1206   11.5975 O   0  0  0  0  0  0  0  0  0  0  0  0
   23.3004   26.7116   10.9478 C   0  0  0  0  0  0  0  0  0  0  0  0
   22.1233   33.0900   16.5348 C   0  0  0  0  0  0  0  0  0  0  0  0
   21.3087   34.2236   17.1765 C   0  0  0  0  0  0  0  0  0  0  0  0
   21.7706   34.5498   18.5970 C   0  0  0  0  0  0  0  0  0  0  0  0
   21.3662   35.4698   16.3058 C   0  0  0  0  0  0  0  0  0  0  0  0
   16.5408   31.3265   15.8640 C   0  0  0  0  0  0  0  0  0  0  0  0
   16.2188   32.7993   16.0916 C   0  0  0  0  0  0  0  0  0  0  0  0
   16.6874   33.7735   15.2051 C   0  0  0  0  0  0  0  0  0  0  0  0
   16.4137   35.1199   15.4195 C   0  0  0  0  0  0  0  0  0  0  0  0
   15.6671   35.5224   16.5211 C   0  0  0  0  0  0  0  0  0  0  0  0
   15.1984   34.5630   17.4043 C   0  0  0  0  0  0  0  0  0  0  0  0
   15.4738   33.2062   17.1958 C   0  0  0  0  0  0  0  0  0  0  0  0
 27 28  2  0  0  0
 28 29  2  0  0  0
 28 30  1  0  0  0
 28 26  1  0  0  0
 30 31  2  0  0  0
 30 35  1  0  0  0
 31 32  1  0  0  0
 32 33  2  0  0  0
 33 36  1  0  0  0
 33 34  1  0  0  0
 36 37  1  0  0  0
 34 35  2  0  0  0
 26 38  1  0  0  0
 26 25  1  0  0  0
 38 39  1  0  0  0
 39 40  1  0  0  0
 39 41  1  0  0  0
 25 22  1  0  0  0
 22 23  1  0  0  0
 22  1  1  0  0  0
  1 42  1  0  0  0
  1  2  1  0  0  0
 42 43  1  0  0  0
 43 44  2  0  0  0
 43 48  1  0  0  0
 44 45  1  0  0  0
 45 46  2  0  0  0
 46 47  1  0  0  0
 47 48  2  0  0  0
  2  3  1  0  0  0
  3  4  2  0  0  0
  3  6  1  0  0  0
  6  7  1  0  0  0
  6 10  1  0  0  0
  7  8  1  0  0  0
  8  9  2  0  0  0
  8 11  1  0  0  0
 10 11  1  0  0  0
 11 12  1  0  0  0
 12 13  2  0  0  0
 12 16  1  0  0  0
 13 14  1  0  0  0
 14 15  2  0  0  0
 15 17  1  0  0  0
 16 17  2  0  0  0
 17 18  1  0  0  0
 18 19  1  0  0  0
 18 20  1  0  0  0
 18 21  1  0  0  0
 23 24  1  0  0  0
  2  5  1  0  0  0
M  END
> <minimizedAffinity>
-9.33930

$$$$
3GI6_D78_A_200


 48 51  0  0  0  0  0  0  0  0999 V2000
   21.8650   29.6257   12.8307 C   0  0  0  0  0  0  0  0  0  0  0  0
   21.8072   30.2937   14.1353 N   0  0  0  0  0  0  0  0  0  0  0  0
   21.9223   31.6209   14.2772 C   0  0  0  0  0  0  0  0  0  0  0  0
   21.9874   32.4204   13.3497 O   0  0  0  0  0  0  0  0  0  0  0  0
   21.6782   29.7431   14.9412 H   0  0  0  0  0  0  0  0  0  0  0  0
   21.9874   32.1578   15.6821 C   0  0  0  0  0  0  0  0  0  0  0  0
   22.7316   33.3847   15.7972 O   0  0  0  0  0  0  0  0  0  0  0  0
   21.9019   34.2979   16.5452 C   0  0  0  0  0  0  0  0  0  0  0  0
   22.4077   35.3287   16.9588 O   0  0  0  0  0  0  0  0  0  0  0  0
   20.5462   32.4787   16.1148 C   0  0  0  0  0  0  0  0  0  0  0  0
   20.6594   33.8093   16.6907 N   0  0  0  0  0  0  0  0  0  0  0  0
   19.5977   34.3913   17.3589 C   0  0  0  0  0  0  0  0  0  0  0  0
   19.7966   35.3380   18.3717 C   0  0  0  0  0  0  0  0  0  0  0  0
   18.7143   35.9186   19.0457 C   0  0  0  0  0  0  0  0  0  0  0  0
   17.4117   35.5521   18.7382 C   0  0  0  0  0  0  0  0  0  0  0  0
   18.2605   34.0321   17.0611 C   0  0  0  0  0  0  0  0  0  0  0  0
   17.1724   34.6107   17.7357 C   0  0  0  0  0  0  0  0  0  0  0  0
   15.7488   34.2234   17.3932 C   0  0  0  0  0  0  0  0  0  0  0  0
   15.0920   35.2602   16.9213 F   0  0  0  0  0  0  0  0  0  0  0  0
   15.0986   33.8067   18.4510 F   0  0  0  0  0  0  0  0  0  0  0  0
   15.7244   33.2644   16.4910 F   0  0  0  0  0  0  0  0  0  0  0  0
   20.5630   29.6620   12.0230 C   0  0  0  0  0  0  0  0  0  0  0  0
   20.2460   30.9655   11.5038 O   0  0  0  0  0  0  0  0  0  0  0  0
   20.0987   31.5796   12.2400 H   0  0  0  0  0  0  0  0  0  0  0  0
   19.3830   29.2116   12.8899 C   0  0  0  0  0  0  0  0  0  0  0  0
   18.0987   29.3915   12.1766 N   0  0  0  0  0  0  0  0  0  0  0  0
   17.3287   27.2233   12.9845 O   0  0  0  0  0  0  0  0  0  0  0  0
   17.3491   28.0015   11.7673 S   0  0  0  0  0  0  0  0  0  0  0  0
   16.0233   28.2566   11.3100 O   0  0  0  0  0  0  0  0  0  0  0  0
   18.1723   27.2050   10.6216 C   0  0  0  0  0  0  0  0  0  0  0  0
   18.5874   25.8840   10.8198 C   0  0  0  0  0  0  0  0  0  0  0  0
   19.3152   25.1965    9.8407 C   0  0  0  0  0  0  0  0  0  0  0  0
   19.6544   25.8387    8.6358 C   0  0  0  0  0  0  0  0  0  0  0  0
   19.2456   27.1495    8.4361 C   0  0  0  0  0  0  0  0  0  0  0  0
   18.5130   27.8262    9.4186 C   0  0  0  0  0  0  0  0  0  0  0  0
   20.3789   25.2384    7.6375 O   0  0  0  0  0  0  0  0  0  0  0  0
   20.5594   25.8155    6.3356 C   0  0  0  0  0  0  0  0  0  0  0  0
   17.1868   30.3433   12.8536 C   0  0  0  0  0  0  0  0  0  0  0  0
   17.9073   31.0370   14.0198 C   0  0  0  0  0  0  0  0  0  0  0  0
   17.9531   32.5572   13.8633 C   0  0  0  0  0  0  0  0  0  0  0  0
   17.2498   30.6640   15.3401 C   0  0  0  0  0  0  0  0  0  0  0  0
   22.3267   28.2096   13.2175 C   0  0  0  0  0  0  0  0  0  0  0  0
   23.0828   27.5611   12.0632 C   0  0  0  0  0  0  0  0  0  0  0  0
   22.3889   26.9825   10.9963 C   0  0  0  0  0  0  0  0  0  0  0  0
   23.0735   26.3718    9.9513 C   0  0  0  0  0  0  0  0  0  0  0  0
   24.4630   26.3261    9.9480 C   0  0  0  0  0  0  0  0  0  0  0  0
   25.1583   26.8979   11.0015 C   0  0  0  0  0  0  0  0  0  0  0  0
   24.4747   27.5109   12.0583 C   0  0  0  0  0  0  0  0  0  0  0  0
 27 28  2  0  0  0
 28 29  2  0  0  0
 28 30  1  0  0  0
 28 26  1  0  0  0
 30 31  2  0  0  0
 30 35  1  0  0  0
 31 32  1  0  0  0
 32 33  2  0  0  0
 33 36  1  0  0  0
 33 34  1  0  0  0
 36 37  1  0  0  0
 34 35  2  0  0  0
 26 38  1  0  0  0
 26 25  1  0  0  0
 38 39  1  0  0  0
 39 40  1  0  0  0
 39 41  1  0  0  0
 25 22  1  0  0  0
 22 23  1  0  0  0
 22  1  1  0  0  0
  1 42  1  0  0  0
  1  2  1  0  0  0
 42 43  1  0  0  0
 43 44  2  0  0  0
 43 48  1  0  0  0
 44 45  1  0  0  0
 45 46  2  0  0  0
 46 47  1  0  0  0
 47 48  2  0  0  0
  2  3  1  0  0  0
  3  4  2  0  0  0
  3  6  1  0  0  0
  6  7  1  0  0  0
  6 10  1  0  0  0
  7  8  1  0  0  0
  8  9  2  0  0  0
  8 11  1  0  0  0
 10 11  1  0  0  0
 11 12  1  0  0  0
 12 13  2  0  0  0
 12 16  1  0  0  0
 13 14  1  0  0  0
 14 15  2  0  0  0
 15 17  1  0  0  0
 16 17  2  0  0  0
 17 18  1  0  0  0
 18 19  1  0  0  0
 18 20  1  0  0  0
 18 21  1  0  0  0
 23 24  1  0  0  0
  2  5  1  0  0  0
M  END
> <minimizedAffinity>
-9.32353

$$$$
3GI6_D78_A_200


 48 51  0  0  0  0  0  0  0  0999 V2000
   21.6075   29.9064   12.7845 C   0  0  0  0  0  0  0  0  0  0  0  0
   20.2152   30.2261   13.1173 N   0  0  0  0  0  0  0  0  0  0  0  0
   19.5786   31.2972   12.6249 C   0  0  0  0  0  0  0  0  0  0  0  0
   20.0406   32.0596   11.7828 O   0  0  0  0  0  0  0  0  0  0  0  0
   19.7276   29.6281   13.7287 H   0  0  0  0  0  0  0  0  0  0  0  0
   18.2009   31.5828   13.1602 C   0  0  0  0  0  0  0  0  0  0  0  0
   17.7438   30.6154   14.1234 O   0  0  0  0  0  0  0  0  0  0  0  0
   17.2606   31.3644   15.2579 C   0  0  0  0  0  0  0  0  0  0  0  0
   16.6213   30.7697   16.1106 O   0  0  0  0  0  0  0  0  0  0  0  0
   18.2681   32.9328   13.8951 C   0  0  0  0  0  0  0  0  0  0  0  0
   17.5895   32.6622   15.1526 N   0  0  0  0  0  0  0  0  0  0  0  0
   17.2859   33.6830   16.0347 C   0  0  0  0  0  0  0  0  0  0  0  0
   16.0061   34.2492   16.0914 C   0  0  0  0  0  0  0  0  0  0  0  0
   15.7098   35.2861   16.9858 C   0  0  0  0  0  0  0  0  0  0  0  0
   16.6889   35.7942   17.8278 C   0  0  0  0  0  0  0  0  0  0  0  0
   18.2696   34.2163   16.9029 C   0  0  0  0  0  0  0  0  0  0  0  0
   17.9771   35.2571   17.8001 C   0  0  0  0  0  0  0  0  0  0  0  0
   19.0394   35.8047   18.7304 C   0  0  0  0  0  0  0  0  0  0  0  0
   19.1585   35.0385   19.7925 F   0  0  0  0  0  0  0  0  0  0  0  0
   18.7307   37.0043   19.1558 F   0  0  0  0  0  0  0  0  0  0  0  0
   20.2077   35.8703   18.1264 F   0  0  0  0  0  0  0  0  0  0  0  0
   21.7953   28.6883   11.8734 C   0  0  0  0  0  0  0  0  0  0  0  0
   21.4496   28.9403   10.5001 O   0  0  0  0  0  0  0  0  0  0  0  0
   20.5054   29.1534   10.4382 H   0  0  0  0  0  0  0  0  0  0  0  0
   20.9326   27.5192   12.3588 C   0  0  0  0  0  0  0  0  0  0  0  0
   20.4413   26.7111   11.2204 N   0  0  0  0  0  0  0  0  0  0  0  0
   22.4302   25.4402   11.8332 O   0  0  0  0  0  0  0  0  0  0  0  0
   21.3328   25.3840   10.8952 S   0  0  0  0  0  0  0  0  0  0  0  0
   20.5652   24.1984   11.0880 O   0  0  0  0  0  0  0  0  0  0  0  0
   21.9051   25.4172    9.3800 C   0  0  0  0  0  0  0  0  0  0  0  0
   21.0439   25.3158    8.2823 C   0  0  0  0  0  0  0  0  0  0  0  0
   21.5345   25.3253    6.9707 C   0  0  0  0  0  0  0  0  0  0  0  0
   22.9184   25.4241    6.7380 C   0  0  0  0  0  0  0  0  0  0  0  0
   23.7760   25.5234    7.8243 C   0  0  0  0  0  0  0  0  0  0  0  0
   23.2753   25.5192    9.1316 C   0  0  0  0  0  0  0  0  0  0  0  0
   23.4759   25.4226    5.4846 O   0  0  0  0  0  0  0  0  0  0  0  0
   24.5447   24.5466    5.0961 C   0  0  0  0  0  0  0  0  0  0  0  0
   18.9932   26.4080   11.3054 C   0  0  0  0  0  0  0  0  0  0  0  0
   18.2167   27.6399   11.7953 C   0  0  0  0  0  0  0  0  0  0  0  0
   17.8582   28.5998   10.6606 C   0  0  0  0  0  0  0  0  0  0  0  0
   16.9597   27.2083   12.5358 C   0  0  0  0  0  0  0  0  0  0  0  0
   22.2417   29.7538   14.1782 C   0  0  0  0  0  0  0  0  0  0  0  0
   22.2810   31.0983   14.8964 C   0  0  0  0  0  0  0  0  0  0  0  0
   23.2709   32.0372   14.5912 C   0  0  0  0  0  0  0  0  0  0  0  0
   23.3233   33.2564   15.2578 C   0  0  0  0  0  0  0  0  0  0  0  0
   22.3902   33.5648   16.2412 C   0  0  0  0  0  0  0  0  0  0  0  0
   21.4054   32.6398   16.5492 C   0  0  0  0  0  0  0  0  0  0  0  0
   21.3497   31.4091   15.8842 C   0  0  0  0  0  0  0  0  0  0  0  0
 27 28  2  0  0  0
 28 29  2  0  0  0
 28 30  1  0  0  0
 28 26  1  0  0  0
 30 31  2  0  0  0
 30 35  1  0  0  0
 31 32  1  0  0  0
 32 33  2  0  0  0
 33 36  1  0  0  0
 33 34  1  0  0  0
 36 37  1  0  0  0
 34 35  2  0  0  0
 26 38  1  0  0  0
 26 25  1  0  0  0
 38 39  1  0  0  0
 39 40  1  0  0  0
 39 41  1  0  0  0
 25 22  1  0  0  0
 22 23  1  0  0  0
 22  1  1  0  0  0
  1 42  1  0  0  0
  1  2  1  0  0  0
 42 43  1  0  0  0
 43 44  2  0  0  0
 43 48  1  0  0  0
 44 45  1  0  0  0
 45 46  2  0  0  0
 46 47  1  0  0  0
 47 48  2  0  0  0
  2  3  1  0  0  0
  3  4  2  0  0  0
  3  6  1  0  0  0
  6  7  1  0  0  0
  6 10  1  0  0  0
  7  8  1  0  0  0
  8  9  2  0  0  0
  8 11  1  0  0  0
 10 11  1  0  0  0
 11 12  1  0  0  0
 12 13  2  0  0  0
 12 16  1  0  0  0
 13 14  1  0  0  0
 14 15  2  0  0  0
 15 17  1  0  0  0
 16 17  2  0  0  0
 17 18  1  0  0  0
 18 19  1  0  0  0
 18 20  1  0  0  0
 18 21  1  0  0  0
 23 24  1  0  0  0
  2  5  1  0  0  0
M  END
> <minimizedAffinity>
-9.22670

$$$$
3GI6_D78_A_200


 48 51  0  0  0  0  0  0  0  0999 V2000
   17.5495   32.6120   15.3738 C   0  0  0  0  0  0  0  0  0  0  0  0
   17.4558   31.3123   14.7004 N   0  0  0  0  0  0  0  0  0  0  0  0
   18.0811   31.0459   13.5458 C   0  0  0  0  0  0  0  0  0  0  0  0
   18.8641   31.8038   12.9835 O   0  0  0  0  0  0  0  0  0  0  0  0
   16.9101   30.6053   15.1147 H   0  0  0  0  0  0  0  0  0  0  0  0
   17.7841   29.7218   12.8942 C   0  0  0  0  0  0  0  0  0  0  0  0
   17.5266   29.8188   11.4811 O   0  0  0  0  0  0  0  0  0  0  0  0
   18.3547   28.8232   10.8449 C   0  0  0  0  0  0  0  0  0  0  0  0
   18.1469   28.5663    9.6701 O   0  0  0  0  0  0  0  0  0  0  0  0
   19.0389   28.8452   13.0504 C   0  0  0  0  0  0  0  0  0  0  0  0
   19.2347   28.3022   11.7156 N   0  0  0  0  0  0  0  0  0  0  0  0
   20.1747   27.3167   11.4759 C   0  0  0  0  0  0  0  0  0  0  0  0
   19.8002   26.0122   11.1298 C   0  0  0  0  0  0  0  0  0  0  0  0
   20.7604   25.0197   10.8933 C   0  0  0  0  0  0  0  0  0  0  0  0
   22.1134   25.3018   11.0173 C   0  0  0  0  0  0  0  0  0  0  0  0
   21.5605   27.5827   11.5966 C   0  0  0  0  0  0  0  0  0  0  0  0
   22.5266   26.5899   11.3619 C   0  0  0  0  0  0  0  0  0  0  0  0
   24.0046   26.8976   11.4826 C   0  0  0  0  0  0  0  0  0  0  0  0
   24.4752   27.3446   10.3390 F   0  0  0  0  0  0  0  0  0  0  0  0
   24.6931   25.8262   11.7881 F   0  0  0  0  0  0  0  0  0  0  0  0
   24.2235   27.8059   12.4108 F   0  0  0  0  0  0  0  0  0  0  0  0
   18.8284   32.8314   16.1894 C   0  0  0  0  0  0  0  0  0  0  0  0
   18.5918   32.9700   17.6013 O   0  0  0  0  0  0  0  0  0  0  0  0
   18.0554   33.7618   17.7631 H   0  0  0  0  0  0  0  0  0  0  0  0
   19.5538   34.0954   15.7172 C   0  0  0  0  0  0  0  0  0  0  0  0
   21.0198   33.9544   15.8636 N   0  0  0  0  0  0  0  0  0  0  0  0
   21.6673   33.7707   18.2075 O   0  0  0  0  0  0  0  0  0  0  0  0
   21.6535   34.7460   17.1416 S   0  0  0  0  0  0  0  0  0  0  0  0
   22.9749   35.1967   16.8539 O   0  0  0  0  0  0  0  0  0  0  0  0
   20.7320   36.0089   17.5667 C   0  0  0  0  0  0  0  0  0  0  0  0
   20.9616   37.2806   17.0312 C   0  0  0  0  0  0  0  0  0  0  0  0
   20.1802   38.3797   17.4087 C   0  0  0  0  0  0  0  0  0  0  0  0
   19.1505   38.2193   18.3539 C   0  0  0  0  0  0  0  0  0  0  0  0
   18.9206   36.9596   18.8883 C   0  0  0  0  0  0  0  0  0  0  0  0
   19.7033   35.8659   18.4998 C   0  0  0  0  0  0  0  0  0  0  0  0
   18.3547   39.2495   18.7864 O   0  0  0  0  0  0  0  0  0  0  0  0
   17.3715   39.8897   17.9592 C   0  0  0  0  0  0  0  0  0  0  0  0
   21.4780   32.5471   15.7910 C   0  0  0  0  0  0  0  0  0  0  0  0
   22.2493   32.3022   14.4851 C   0  0  0  0  0  0  0  0  0  0  0  0
   23.7332   32.6509   14.6031 C   0  0  0  0  0  0  0  0  0  0  0  0
   22.0827   30.8571   14.0395 C   0  0  0  0  0  0  0  0  0  0  0  0
   16.2581   32.6317   16.2104 C   0  0  0  0  0  0  0  0  0  0  0  0
   15.9823   34.0374   16.7326 C   0  0  0  0  0  0  0  0  0  0  0  0
   16.3392   35.1581   15.9768 C   0  0  0  0  0  0  0  0  0  0  0  0
   16.1085   36.4422   16.4577 C   0  0  0  0  0  0  0  0  0  0  0  0
   15.5168   36.6355   17.7009 C   0  0  0  0  0  0  0  0  0  0  0  0
   15.1594   35.5299   18.4560 C   0  0  0  0  0  0  0  0  0  0  0  0
   15.3926   34.2345   17.9789 C   0  0  0  0  0  0  0  0  0  0  0  0
 27 28  2  0  0  0
 28 29  2  0  0  0
 28 30  1  0  0  0
 28 26  1  0  0  0
 30 31  2  0  0  0
 30 35  1  0  0  0
 31 32  1  0  0  0
 32 33  2  0  0  0
 33 36  1  0  0  0
 33 34  1  0  0  0
 36 37  1  0  0  0
 34 35  2  0  0  0
 26 38  1  0  0  0
 26 25  1  0  0  0
 38 39  1  0  0  0
 39 40  1  0  0  0
 39 41  1  0  0  0
 25 22  1  0  0  0
 22 23  1  0  0  0
 22  1  1  0  0  0
  1 42  1  0  0  0
  1  2  1  0  0  0
 42 43  1  0  0  0
 43 44  2  0  0  0
 43 48  1  0  0  0
 44 45  1  0  0  0
 45 46  2  0  0  0
 46 47  1  0  0  0
 47 48  2  0  0  0
  2  3  1  0  0  0
  3  4  2  0  0  0
  3  6  1  0  0  0
  6  7  1  0  0  0
  6 10  1  0  0  0
  7  8  1  0  0  0
  8  9  2  0  0  0
  8 11  1  0  0  0
 10 11  1  0  0  0
 11 12  1  0  0  0
 12 13  2  0  0  0
 12 16  1  0  0  0
 13 14  1  0  0  0
 14 15  2  0  0  0
 15 17  1  0  0  0
 16 17  2  0  0  0
 17 18  1  0  0  0
 18 19  1  0  0  0
 18 20  1  0  0  0
 18 21  1  0  0  0
 23 24  1  0  0  0
  2  5  1  0  0  0
M  END
> <minimizedAffinity>
-9.19973

$$$$
3GI6_D78_A_200


 48 51  0  0  0  0  0  0  0  0999 V2000
   20.5067   29.0677   12.7043 C   0  0  0  0  0  0  0  0  0  0  0  0
   20.4730   29.9909   13.8437 N   0  0  0  0  0  0  0  0  0  0  0  0
   20.3301   29.5767   15.1097 C   0  0  0  0  0  0  0  0  0  0  0  0
   20.3118   28.4028   15.4638 O   0  0  0  0  0  0  0  0  0  0  0  0
   20.5591   30.9562   13.6706 H   0  0  0  0  0  0  0  0  0  0  0  0
   20.1693   30.6382   16.1650 C   0  0  0  0  0  0  0  0  0  0  0  0
   21.1736   31.6679   16.1057 O   0  0  0  0  0  0  0  0  0  0  0  0
   20.4708   32.9275   16.1407 C   0  0  0  0  0  0  0  0  0  0  0  0
   21.1202   33.9445   16.3229 O   0  0  0  0  0  0  0  0  0  0  0  0
   18.8185   31.3304   15.9131 C   0  0  0  0  0  0  0  0  0  0  0  0
   19.1486   32.7446   15.9916 N   0  0  0  0  0  0  0  0  0  0  0  0
   18.1591   33.7105   15.9892 C   0  0  0  0  0  0  0  0  0  0  0  0
   17.4363   34.0197   14.8301 C   0  0  0  0  0  0  0  0  0  0  0  0
   16.4386   35.0032   14.8371 C   0  0  0  0  0  0  0  0  0  0  0  0
   16.1550   35.7136   15.9950 C   0  0  0  0  0  0  0  0  0  0  0  0
   17.8532   34.4473   17.1595 C   0  0  0  0  0  0  0  0  0  0  0  0
   16.8546   35.4355   17.1704 C   0  0  0  0  0  0  0  0  0  0  0  0
   16.5327   36.2032   18.4357 C   0  0  0  0  0  0  0  0  0  0  0  0
   16.1497   37.4271   18.1450 F   0  0  0  0  0  0  0  0  0  0  0  0
   17.5811   36.3041   19.2140 F   0  0  0  0  0  0  0  0  0  0  0  0
   15.5715   35.6123   19.1148 F   0  0  0  0  0  0  0  0  0  0  0  0
   21.8877   28.8662   12.0710 C   0  0  0  0  0  0  0  0  0  0  0  0
   21.9051   29.0876   10.6498 O   0  0  0  0  0  0  0  0  0  0  0  0
   21.3346   28.4353   10.2140 H   0  0  0  0  0  0  0  0  0  0  0  0
   22.3882   27.4402   12.3216 C   0  0  0  0  0  0  0  0  0  0  0  0
   22.2792   26.6146   11.0979 N   0  0  0  0  0  0  0  0  0  0  0  0
   24.4735   27.3347   10.3148 O   0  0  0  0  0  0  0  0  0  0  0  0
   23.7073   26.1213   10.4825 S   0  0  0  0  0  0  0  0  0  0  0  0
   24.3649   25.2301   11.3799 O   0  0  0  0  0  0  0  0  0  0  0  0
   23.5097   25.3956    9.0476 C   0  0  0  0  0  0  0  0  0  0  0  0
   24.0488   25.9477    7.8809 C   0  0  0  0  0  0  0  0  0  0  0  0
   23.8656   25.3347    6.6352 C   0  0  0  0  0  0  0  0  0  0  0  0
   23.1158   24.1483    6.5384 C   0  0  0  0  0  0  0  0  0  0  0  0
   22.5783   23.5983    7.6934 C   0  0  0  0  0  0  0  0  0  0  0  0
   22.7722   24.2154    8.9349 C   0  0  0  0  0  0  0  0  0  0  0  0
   22.8782   23.4991    5.3536 O   0  0  0  0  0  0  0  0  0  0  0  0
   22.4049   24.1609    4.1709 C   0  0  0  0  0  0  0  0  0  0  0  0
   21.3110   25.5010   11.2331 C   0  0  0  0  0  0  0  0  0  0  0  0
   19.9321   25.9237   10.7037 C   0  0  0  0  0  0  0  0  0  0  0  0
   19.9971   26.5114    9.2939 C   0  0  0  0  0  0  0  0  0  0  0  0
   18.9720   24.7439   10.7378 C   0  0  0  0  0  0  0  0  0  0  0  0
   19.4650   29.6905   11.7582 C   0  0  0  0  0  0  0  0  0  0  0  0
   18.2184   28.8153   11.6872 C   0  0  0  0  0  0  0  0  0  0  0  0
   17.3564   28.8958   10.5895 C   0  0  0  0  0  0  0  0  0  0  0  0
   16.2075   28.1148   10.5296 C   0  0  0  0  0  0  0  0  0  0  0  0
   15.8950   27.2374   11.5617 C   0  0  0  0  0  0  0  0  0  0  0  0
   16.7446   27.1511   12.6530 C   0  0  0  0  0  0  0  0  0  0  0  0
   17.9008   27.9376   12.7209 C   0  0  0  0  0  0  0  0  0  0  0  0
 27 28  2  0  0  0
 28 29  2  0  0  0
 28 30  1  0  0  0
 28 26  1  0  0  0
 30 31  2  0  0  0
 30 35  1  0  0  0
 31 32  1  0  0  0
 32 33  2  0  0  0
 33 36  1  0  0  0
 33 34  1  0  0  0
 36 37  1  0  0  0
 34 35  2  0  0  0
 26 38  1  0  0  0
 26 25  1  0  0  0
 38 39  1  0  0  0
 39 40  1  0  0  0
 39 41  1  0  0  0
 25 22  1  0  0  0
 22 23  1  0  0  0
 22  1  1  0  0  0
  1 42  1  0  0  0
  1  2  1  0  0  0
 42 43  1  0  0  0
 43 44  2  0  0  0
 43 48  1  0  0  0
 44 45  1  0  0  0
 45 46  2  0  0  0
 46 47  1  0  0  0
 47 48  2  0  0  0
  2  3  1  0  0  0
  3  4  2  0  0  0
  3  6  1  0  0  0
  6  7  1  0  0  0
  6 10  1  0  0  0
  7  8  1  0  0  0
  8  9  2  0  0  0
  8 11  1  0  0  0
 10 11  1  0  0  0
 11 12  1  0  0  0
 12 13  2  0  0  0
 12 16  1  0  0  0
 13 14  1  0  0  0
 14 15  2  0  0  0
 15 17  1  0  0  0
 16 17  2  0  0  0
 17 18  1  0  0  0
 18 19  1  0  0  0
 18 20  1  0  0  0
 18 21  1  0  0  0
 23 24  1  0  0  0
  2  5  1  0  0  0
M  END
> <minimizedAffinity>
-9.18353

$$$$
3GI6_D78_A_200


 48 51  0  0  0  0  0  0  0  0999 V2000
   21.3552   29.2127   13.6573 C   0  0  0  0  0  0  0  0  0  0  0  0
   21.5462   28.5535   12.3610 N   0  0  0  0  0  0  0  0  0  0  0  0
   22.6977   27.9671   12.0073 C   0  0  0  0  0  0  0  0  0  0  0  0
   23.6677   27.8291   12.7448 O   0  0  0  0  0  0  0  0  0  0  0  0
   20.7961   28.5414   11.7235 H   0  0  0  0  0  0  0  0  0  0  0  0
   22.8015   27.4545   10.5957 C   0  0  0  0  0  0  0  0  0  0  0  0
   23.3680   26.1343   10.5012 O   0  0  0  0  0  0  0  0  0  0  0  0
   22.4804   25.3674    9.6610 C   0  0  0  0  0  0  0  0  0  0  0  0
   22.8649   24.2822    9.2564 O   0  0  0  0  0  0  0  0  0  0  0  0
   21.3702   27.3565   10.0398 C   0  0  0  0  0  0  0  0  0  0  0  0
   21.3378   26.0353    9.4328 N   0  0  0  0  0  0  0  0  0  0  0  0
   20.2627   25.6283    8.6642 C   0  0  0  0  0  0  0  0  0  0  0  0
   19.6822   24.3637    8.8232 C   0  0  0  0  0  0  0  0  0  0  0  0
   18.5959   23.9591    8.0363 C   0  0  0  0  0  0  0  0  0  0  0  0
   18.0789   24.7992    7.0603 C   0  0  0  0  0  0  0  0  0  0  0  0
   19.7193   26.4695    7.6627 C   0  0  0  0  0  0  0  0  0  0  0  0
   18.6311   26.0672    6.8703 C   0  0  0  0  0  0  0  0  0  0  0  0
   18.0552   26.9867    5.8136 C   0  0  0  0  0  0  0  0  0  0  0  0
   18.9237   27.1720    4.8438 F   0  0  0  0  0  0  0  0  0  0  0  0
   17.7745   28.1667    6.3076 F   0  0  0  0  0  0  0  0  0  0  0  0
   16.9525   26.4829    5.2995 F   0  0  0  0  0  0  0  0  0  0  0  0
   20.0357   28.8857   14.3652 C   0  0  0  0  0  0  0  0  0  0  0  0
   20.2128   28.2877   15.6613 O   0  0  0  0  0  0  0  0  0  0  0  0
   20.6610   27.4329   15.5645 H   0  0  0  0  0  0  0  0  0  0  0  0
   19.2014   27.9174   13.5208 C   0  0  0  0  0  0  0  0  0  0  0  0
   17.8080   28.3967   13.3816 N   0  0  0  0  0  0  0  0  0  0  0  0
   18.7812   29.9664   11.7893 O   0  0  0  0  0  0  0  0  0  0  0  0
   17.6624   29.8710   12.6984 S   0  0  0  0  0  0  0  0  0  0  0  0
   16.4288   29.9828   11.9929 O   0  0  0  0  0  0  0  0  0  0  0  0
   17.7580   31.0459   13.8099 C   0  0  0  0  0  0  0  0  0  0  0  0
   18.3236   32.2869   13.4992 C   0  0  0  0  0  0  0  0  0  0  0  0
   18.4258   33.2999   14.4607 C   0  0  0  0  0  0  0  0  0  0  0  0
   17.9678   33.0742   15.7716 C   0  0  0  0  0  0  0  0  0  0  0  0
   17.4074   31.8439   16.0840 C   0  0  0  0  0  0  0  0  0  0  0  0
   17.3041   30.8398   15.1140 C   0  0  0  0  0  0  0  0  0  0  0  0
   18.0490   34.0094   16.7719 O   0  0  0  0  0  0  0  0  0  0  0  0
   16.9845   34.2690   17.6994 C   0  0  0  0  0  0  0  0  0  0  0  0
   16.9097   27.3971   12.7573 C   0  0  0  0  0  0  0  0  0  0  0  0
   17.6191   26.6964   11.5885 C   0  0  0  0  0  0  0  0  0  0  0  0
   17.6358   25.1748   11.7365 C   0  0  0  0  0  0  0  0  0  0  0  0
   16.9712   27.0892   10.2692 C   0  0  0  0  0  0  0  0  0  0  0  0
   21.5203   30.6973   13.2877 C   0  0  0  0  0  0  0  0  0  0  0  0
   21.9549   31.5051   14.5056 C   0  0  0  0  0  0  0  0  0  0  0  0
   21.2020   31.4744   15.6831 C   0  0  0  0  0  0  0  0  0  0  0  0
   21.5829   32.2253   16.7898 C   0  0  0  0  0  0  0  0  0  0  0  0
   22.7219   33.0212   16.7455 C   0  0  0  0  0  0  0  0  0  0  0  0
   23.4742   33.0567   15.5822 C   0  0  0  0  0  0  0  0  0  0  0  0
   23.0937   32.3059   14.4635 C   0  0  0  0  0  0  0  0  0  0  0  0
 27 28  2  0  0  0
 28 29  2  0  0  0
 28 30  1  0  0  0
 28 26  1  0  0  0
 30 31  2  0  0  0
 30 35  1  0  0  0
 31 32  1  0  0  0
 32 33  2  0  0  0
 33 36  1  0  0  0
 33 34  1  0  0  0
 36 37  1  0  0  0
 34 35  2  0  0  0
 26 38  1  0  0  0
 26 25  1  0  0  0
 38 39  1  0  0  0
 39 40  1  0  0  0
 39 41  1  0  0  0
 25 22  1  0  0  0
 22 23  1  0  0  0
 22  1  1  0  0  0
  1 42  1  0  0  0
  1  2  1  0  0  0
 42 43  1  0  0  0
 43 44  2  0  0  0
 43 48  1  0  0  0
 44 45  1  0  0  0
 45 46  2  0  0  0
 46 47  1  0  0  0
 47 48  2  0  0  0
  2  3  1  0  0  0
  3  4  2  0  0  0
  3  6  1  0  0  0
  6  7  1  0  0  0
  6 10  1  0  0  0
  7  8  1  0  0  0
  8  9  2  0  0  0
  8 11  1  0  0  0
 10 11  1  0  0  0
 11 12  1  0  0  0
 12 13  2  0  0  0
 12 16  1  0  0  0
 13 14  1  0  0  0
 14 15  2  0  0  0
 15 17  1  0  0  0
 16 17  2  0  0  0
 17 18  1  0  0  0
 18 19  1  0  0  0
 18 20  1  0  0  0
 18 21  1  0  0  0
 23 24  1  0  0  0
  2  5  1  0  0  0
M  END
> <minimizedAffinity>
-8.90431

$$$$
3GI6_D78_A_200


 48 51  0  0  0  0  0  0  0  0999 V2000
   19.8470   31.9247   14.5441 C   0  0  0  0  0  0  0  0  0  0  0  0
   20.3417   33.0279   15.3746 N   0  0  0  0  0  0  0  0  0  0  0  0
   21.0253   32.8319   16.5101 C   0  0  0  0  0  0  0  0  0  0  0  0
   21.3940   31.7382   16.9246 O   0  0  0  0  0  0  0  0  0  0  0  0
   20.1638   33.9520   15.0853 H   0  0  0  0  0  0  0  0  0  0  0  0
   21.3485   34.0487   17.3353 C   0  0  0  0  0  0  0  0  0  0  0  0
   21.9754   35.1053   16.5848 O   0  0  0  0  0  0  0  0  0  0  0  0
   21.2474   36.3126   16.8915 C   0  0  0  0  0  0  0  0  0  0  0  0
   21.7288   37.3792   16.5449 O   0  0  0  0  0  0  0  0  0  0  0  0
   20.0154   34.6140   17.8555 C   0  0  0  0  0  0  0  0  0  0  0  0
   20.1226   36.0362   17.5714 N   0  0  0  0  0  0  0  0  0  0  0  0
   19.1844   36.9330   18.0488 C   0  0  0  0  0  0  0  0  0  0  0  0
   19.5560   38.1817   18.5627 C   0  0  0  0  0  0  0  0  0  0  0  0
   18.5981   39.0815   19.0482 C   0  0  0  0  0  0  0  0  0  0  0  0
   17.2514   38.7465   19.0505 C   0  0  0  0  0  0  0  0  0  0  0  0
   17.8051   36.6118   18.0605 C   0  0  0  0  0  0  0  0  0  0  0  0
   16.8414   37.5105   18.5479 C   0  0  0  0  0  0  0  0  0  0  0  0
   15.3694   37.1540   18.5392 C   0  0  0  0  0  0  0  0  0  0  0  0
   14.6428   38.1960   18.8787 F   0  0  0  0  0  0  0  0  0  0  0  0
   15.1021   36.2034   19.3995 F   0  0  0  0  0  0  0  0  0  0  0  0
   14.9891   36.7476   17.3456 F   0  0  0  0  0  0  0  0  0  0  0  0
   20.9130   31.2166   13.7008 C   0  0  0  0  0  0  0  0  0  0  0  0
   21.8262   32.1201   13.0538 O   0  0  0  0  0  0  0  0  0  0  0  0
   21.3401   32.6753   12.4242 H   0  0  0  0  0  0  0  0  0  0  0  0
   20.2544   30.3669   12.6095 C   0  0  0  0  0  0  0  0  0  0  0  0
   19.7039   29.1127   13.1706 N   0  0  0  0  0  0  0  0  0  0  0  0
   17.5727   28.2852   14.0191 O   0  0  0  0  0  0  0  0  0  0  0  0
   18.1369   28.8378   12.8092 S   0  0  0  0  0  0  0  0  0  0  0  0
   17.4784   30.0513   12.4545 O   0  0  0  0  0  0  0  0  0  0  0  0
   17.9913   27.7700   11.5996 C   0  0  0  0  0  0  0  0  0  0  0  0
   18.0269   28.1851   10.2642 C   0  0  0  0  0  0  0  0  0  0  0  0
   17.8830   27.2692    9.2147 C   0  0  0  0  0  0  0  0  0  0  0  0
   17.6844   25.9048    9.4940 C   0  0  0  0  0  0  0  0  0  0  0  0
   17.6472   25.4894   10.8173 C   0  0  0  0  0  0  0  0  0  0  0  0
   17.7981   26.4119   11.8595 C   0  0  0  0  0  0  0  0  0  0  0  0
   17.5183   24.9509    8.5222 O   0  0  0  0  0  0  0  0  0  0  0  0
   17.6409   23.5420    8.7685 C   0  0  0  0  0  0  0  0  0  0  0  0
   20.5580   27.9321   12.9014 C   0  0  0  0  0  0  0  0  0  0  0  0
   21.6497   28.2834   11.8791 C   0  0  0  0  0  0  0  0  0  0  0  0
   23.0592   28.1724   12.4608 C   0  0  0  0  0  0  0  0  0  0  0  0
   21.5187   27.4012   10.6465 C   0  0  0  0  0  0  0  0  0  0  0  0
   18.7474   32.6154   13.7183 C   0  0  0  0  0  0  0  0  0  0  0  0
   17.5464   32.9440   14.5984 C   0  0  0  0  0  0  0  0  0  0  0  0
   16.8704   31.9302   15.2839 C   0  0  0  0  0  0  0  0  0  0  0  0
   15.7621   32.2220   16.0714 C   0  0  0  0  0  0  0  0  0  0  0  0
   15.3058   33.5297   16.1923 C   0  0  0  0  0  0  0  0  0  0  0  0
   15.9706   34.5404   15.5166 C   0  0  0  0  0  0  0  0  0  0  0  0
   17.0847   34.2524   14.7192 C   0  0  0  0  0  0  0  0  0  0  0  0
 27 28  2  0  0  0
 28 29  2  0  0  0
 28 30  1  0  0  0
 28 26  1  0  0  0
 30 31  2  0  0  0
 30 35  1  0  0  0
 31 32  1  0  0  0
 32 33  2  0  0  0
 33 36  1  0  0  0
 33 34  1  0  0  0
 36 37  1  0  0  0
 34 35  2  0  0  0
 26 38  1  0  0  0
 26 25  1  0  0  0
 38 39  1  0  0  0
 39 40  1  0  0  0
 39 41  1  0  0  0
 25 22  1  0  0  0
 22 23  1  0  0  0
 22  1  1  0  0  0
  1 42  1  0  0  0
  1  2  1  0  0  0
 42 43  1  0  0  0
 43 44  2  0  0  0
 43 48  1  0  0  0
 44 45  1  0  0  0
 45 46  2  0  0  0
 46 47  1  0  0  0
 47 48  2  0  0  0
  2  3  1  0  0  0
  3  4  2  0  0  0
  3  6  1  0  0  0
  6  7  1  0  0  0
  6 10  1  0  0  0
  7  8  1  0  0  0
  8  9  2  0  0  0
  8 11  1  0  0  0
 10 11  1  0  0  0
 11 12  1  0  0  0
 12 13  2  0  0  0
 12 16  1  0  0  0
 13 14  1  0  0  0
 14 15  2  0  0  0
 15 17  1  0  0  0
 16 17  2  0  0  0
 17 18  1  0  0  0
 18 19  1  0  0  0
 18 20  1  0  0  0
 18 21  1  0  0  0
 23 24  1  0  0  0
  2  5  1  0  0  0
M  END
> <minimizedAffinity>
-8.84748

$$$$
