3GI6_D78_A_200
  RCSB PDB12061708453D
Coordinates from PDB:3GI6:A:200 Model:1 without hydrogens
 46 49  0  0  0  0            999 V2000
   18.5300   33.2210   13.7050   O 0  0  0  0  0  0  0  0  0  0  0  0
   18.0010   32.3800   14.7540   S 0  0  0  0  0  0  0  0  0  0  0  0
   17.1750   31.3540   14.2090   O 0  0  0  0  0  0  0  0  0  0  0  0
   17.1370   33.2760   15.7910   C 0  0  0  0  0  0  0  0  0  0  0  0
   17.3800   34.6460   15.9350   C 0  0  0  0  0  0  0  0  0  0  0  0
   16.6490   35.4220   16.8430   C 0  0  0  0  0  0  0  0  0  0  0  0
   15.6580   34.8230   17.6420   C 0  0  0  0  0  0  0  0  0  0  0  0
   14.9130   35.5120   18.5650   O 0  0  0  0  0  0  0  0  0  0  0  0
   15.0930   36.9090   18.8420   C 0  0  0  0  0  0  0  0  0  0  0  0
   15.4150   33.4640   17.5030   C 0  0  0  0  0  0  0  0  0  0  0  0
   16.1470   32.6980   16.5880   C 0  0  0  0  0  0  0  0  0  0  0  0
   19.3170   31.7420   15.4770   N 0  0  0  0  0  0  0  0  0  0  0  0
   20.0500   32.7400   16.2910   C 0  0  0  0  0  0  0  0  0  0  0  0
   21.5460   32.3940   16.3420   C 0  0  0  0  0  0  0  0  0  0  0  0
   22.1840   32.3320   14.9540   C 0  0  0  0  0  0  0  0  0  0  0  0
   22.2870   33.3940   17.2170   C 0  0  0  0  0  0  0  0  0  0  0  0
   19.0690   30.4740   16.1990   C 0  0  0  0  0  0  0  0  0  0  0  0
   19.9100   29.3340   15.6160   C 0  0  0  0  0  0  0  0  0  0  0  0
   19.8110   28.2180   16.5180   O 0  0  0  0  0  0  0  0  0  0  0  0
   19.4550   29.0090   14.1890   C 0  0  0  0  0  0  0  0  0  0  0  0
   18.1360   28.2200   14.1130   C 0  0  0  0  0  0  0  0  0  0  0  0
   17.7940   27.8910   12.6640   C 0  0  0  0  0  0  0  0  0  0  0  0
   17.9350   26.5870   12.1800   C 0  0  0  0  0  0  0  0  0  0  0  0
   17.6440   26.2860   10.8540   C 0  0  0  0  0  0  0  0  0  0  0  0
   17.2060   27.2780    9.9840   C 0  0  0  0  0  0  0  0  0  0  0  0
   17.0630   28.5730   10.4560   C 0  0  0  0  0  0  0  0  0  0  0  0
   17.3580   28.8830   11.7890   C 0  0  0  0  0  0  0  0  0  0  0  0
   20.3670   28.1510   13.4250   N 0  0  0  0  0  0  0  0  0  0  0  0
   21.0910   28.6000   12.3910   C 0  0  0  0  0  0  0  0  0  0  0  0
   21.1500   29.7720   12.0350   O 0  0  0  0  0  0  0  0  0  0  0  0
   21.8760   27.5810   11.6090   C 0  0  0  0  0  0  0  0  0  0  0  0
   21.8370   26.2600   12.1800   O 0  0  0  0  0  0  0  0  0  0  0  0
   21.4930   25.3600   11.1060   C 0  0  0  0  0  0  0  0  0  0  0  0
   21.6150   24.1610   11.2980   O 0  0  0  0  0  0  0  0  0  0  0  0
   21.2270   27.4750   10.2180   C 0  0  0  0  0  0  0  0  0  0  0  0
   21.1100   26.0400   10.0130   N 0  0  0  0  0  0  0  0  0  0  0  0
   20.7250   25.5220    8.7900   C 0  0  0  0  0  0  0  0  0  0  0  0
   21.1370   24.2520    8.3670   C 0  0  0  0  0  0  0  0  0  0  0  0
   20.7450   23.7380    7.1240   C 0  0  0  0  0  0  0  0  0  0  0  0
   19.9510   24.4880    6.2680   C 0  0  0  0  0  0  0  0  0  0  0  0
   19.9150   26.2700    7.9010   C 0  0  0  0  0  0  0  0  0  0  0  0
   19.5210   25.7590    6.6530   C 0  0  0  0  0  0  0  0  0  0  0  0
   18.6430   26.5690    5.7220   C 0  0  0  0  0  0  0  0  0  0  0  0
   17.3830   26.4820    6.0880   F 0  0  0  0  0  0  0  0  0  0  0  0
   18.7160   26.1280    4.4910   F 0  0  0  0  0  0  0  0  0  0  0  0
   18.9950   27.8380    5.7260   F 0  0  0  0  0  0  0  0  0  0  0  0
  1  2  2  0  0  0  0
  2  3  2  0  0  0  0
  2  4  1  0  0  0  0
  2 12  1  0  0  0  0
  4  5  2  0  0  0  0
  4 11  1  0  0  0  0
  5  6  1  0  0  0  0
  6  7  2  0  0  0  0
  7  8  1  0  0  0  0
  7 10  1  0  0  0  0
  8  9  1  0  0  0  0
 10 11  2  0  0  0  0
 12 13  1  0  0  0  0
 12 17  1  0  0  0  0
 13 14  1  0  0  0  0
 14 15  1  0  0  0  0
 14 16  1  0  0  0  0
 17 18  1  0  0  0  0
 18 19  1  0  0  0  0
 18 20  1  0  0  0  0
 20 21  1  0  0  0  0
 20 28  1  0  0  0  0
 21 22  1  0  0  0  0
 22 23  2  0  0  0  0
 22 27  1  0  0  0  0
 23 24  1  0  0  0  0
 24 25  2  0  0  0  0
 25 26  1  0  0  0  0
 26 27  2  0  0  0  0
 28 29  1  0  0  0  0
 29 30  2  0  0  0  0
 29 31  1  0  0  0  0
 31 32  1  0  0  0  0
 31 35  1  0  0  0  0
 32 33  1  0  0  0  0
 33 34  2  0  0  0  0
 33 36  1  0  0  0  0
 35 36  1  0  0  0  0
 36 37  1  0  0  0  0
 37 38  2  0  0  0  0
 37 41  1  0  0  0  0
 38 39  1  0  0  0  0
 39 40  2  0  0  0  0
 40 42  1  0  0  0  0
 41 42  2  0  0  0  0
 42 43  1  0  0  0  0
 43 44  1  0  0  0  0
 43 45  1  0  0  0  0
 43 46  1  0  0  0  0
A    1
O9
A    2
S8
A    3
O10
A    4
C5
A    5
C4
A    6
C3
A    7
C2
A    8
O19
A    9
C18
A   10
C7
A   11
C6
A   12
N11
A   13
C12
A   14
C13
A   15
C14
A   16
C15
A   17
C16
A   18
C17
A   19
O18
A   20
C19
A   21
C32
A   22
C38
A   23
C33
A   24
C34
A   25
C35
A   26
C36
A   27
C37
A   28
N20
A   29
C21
A   30
O22
A   31
C29
A   32
O28
A   33
C26
A   34
O27
A   35
C25
A   36
N24
A   37
C43
A   38
C44
A   39
C45
A   40
C40
A   41
C42
A   42
C41
A   43
C46
A   44
F1
A   45
F2
A   46
F3
M  END
>  <InstanceId>
3GI6_D78_A_200

>  <ChemCompId>
D78

>  <PdbId>
3GI6

>  <ChainId>
A

>  <ResidueNumber>
200

>  <InsertionCode>


>  <Model>
1

>  <AltIds>


>  <MissingHeavyAtoms>
0

>  <ObservedFormula>
C32 N3 O7 S F3

>  <Name>
(5S)-N-[(1S,2R)-2-Hydroxy-3-[[(4-methoxyphenyl)sulfonyl](2-methylpropyl)amino]-1-(phenylmethyl)propyl]-2-oxo-3-[3-(trifluoromethyl)phenyl]-5-oxazolidinecarboxamide

>  <SystematicName>
(5S)-N-[(2S,3R)-3-hydroxy-4-[(4-methoxyphenyl)sulfonyl-(2-methylpropyl)amino]-1-phenyl-butan-2-yl]-2-oxo-3-[3-(trifluoromethyl)phenyl]-1,3-oxazolidine-5-carboxamide

>  <Synonyms>
(5S)-N-[(1S,2R)-1-benzyl-2-hydroxy-3-{[(4-methoxyphenyl)sulfonyl](2-methylpropyl)amino}propyl]-2-oxo-3-[3-(trifluoromethyl)phenyl]-1,3-oxazolidine-5-carboxamide

>  <Type>
NON-POLYMER

>  <Formula>
C32 H36 F3 N3 O7 S

>  <MolecularWeight>
663.704

>  <ModifiedDate>
2011-06-04

>  <Parent>


>  <OneLetterCode>


>  <SubcomponentList>


>  <AmbiguousFlag>
N

>  <InChI>
InChI=1S/C32H36F3N3O7S/c1-21(2)18-37(46(42,43)26-14-12-25(44-3)13-15-26)19-28(39)27(16-22-8-5-4-6-9-22)36-30(40)29-20-38(31(41)45-29)24-11-7-10-23(17-24)32(33,34)35/h4-15,17,21,27-29,39H,16,18-20H2,1-3H3,(H,36,40)/t27-,28+,29-/m0/s1

>  <InChIKey>
DDUYAVRQCCSESZ-NHKHRBQYSA-N

>  <SMILES>
CC(C)C[N@@](C[C@H]([C@H](Cc1ccccc1)NC(=O)[C@@H]2CN(C(=O)O2)c3cccc(c3)C(F)(F)F)O)S(=O)(=O)c4ccc(cc4)OC

$$$$
