4UIN_QI9_H_1226
  RCSB PDB12061715073D
Coordinates from PDB:4UIN:H:1226 Model:1 without hydrogens
 24 27  0  0  0  0            999 V2000
    4.7180   -7.6830  -57.3950   O 0  0  0  0  0  0  0  0  0  0  0  0
    4.4460   -7.3750  -56.0490   C 0  0  0  0  0  0  0  0  0  0  0  0
    5.6570   -7.7890  -55.1600   C 0  0  0  0  0  0  0  0  0  0  0  0
    5.7700   -9.3150  -54.9680   N 0  0  0  0  0  0  0  0  0  0  0  0
    6.3790  -10.0130  -56.1950   C 0  0  0  0  0  0  0  0  0  0  0  0
    7.7790   -9.4530  -56.4460   C 0  0  0  0  0  0  0  0  0  0  0  0
    6.7500   -9.5690  -53.7020   C 0  0  0  0  0  0  0  0  0  0  0  0
    8.1110   -8.9300  -54.0080   C 0  0  0  0  0  0  0  0  0  0  0  0
    8.5890   -7.8670  -53.0450   C 0  0  0  0  0  0  0  0  0  0  0  0
    7.9860   -7.3890  -51.9520   C 0  0  0  0  0  0  0  0  0  0  0  0
    8.0940   -8.3440  -55.4390   C 0  0  0  0  0  0  0  0  0  0  0  0
    7.0220   -7.2660  -55.6220   C 0  0  0  0  0  0  0  0  0  0  0  0
    4.1130   -5.9300  -55.8220   C 0  0  0  0  0  0  0  0  0  0  0  0
    4.5680   -4.9560  -56.7420   C 0  0  0  0  0  0  0  0  0  0  0  0
    4.2650   -3.6210  -56.5350   C 0  0  0  0  0  0  0  0  0  0  0  0
    3.5430   -3.1530  -55.4830   N 0  0  0  0  0  0  0  0  0  0  0  0
    3.0920   -4.0950  -54.5670   C 0  0  0  0  0  0  0  0  0  0  0  0
    3.3560   -5.5120  -54.6930   C 0  0  0  0  0  0  0  0  0  0  0  0
    2.8550   -6.3920  -53.7070   C 0  0  0  0  0  0  0  0  0  0  0  0
    2.3410   -3.6190  -53.4690   C 0  0  0  0  0  0  0  0  0  0  0  0
    1.8610   -4.5170  -52.5190   C 0  0  0  0  0  0  0  0  0  0  0  0
    2.1110   -5.8770  -52.6410   C 0  0  0  0  0  0  0  0  0  0  0  0
    1.6260   -6.7630  -51.6730   O 0  0  0  0  0  0  0  0  0  0  0  0
    1.4730   -8.1560  -51.8770   C 0  0  0  0  0  0  0  0  0  0  0  0
  7  4  1  0  0  0  0
  7  8  1  0  0  0  0
  4  5  1  0  0  0  0
  4  3  1  0  0  0  0
  5  6  1  0  0  0  0
  8  9  1  0  0  0  0
  8 11  1  0  0  0  0
 23 24  1  0  0  0  0
 23 22  1  0  0  0  0
 10  9  2  0  0  0  0
  6 11  1  0  0  0  0
  3  2  1  0  0  0  0
  3 12  1  0  0  0  0
 11 12  1  0  0  0  0
 22 19  2  0  0  0  0
 22 21  1  0  0  0  0
 19 18  1  0  0  0  0
  2  1  1  0  0  0  0
  2 13  1  0  0  0  0
 21 20  2  0  0  0  0
 18 13  2  0  0  0  0
 18 17  1  0  0  0  0
 13 14  1  0  0  0  0
 20 17  1  0  0  0  0
 17 16  2  0  0  0  0
 14 15  2  0  0  0  0
 16 15  1  0  0  0  0
A    1
O1
A    2
C10
A    3
C11
A    4
N1
A    5
C15
A    6
C14
A    7
C16
A    8
C17
A    9
C18
A   10
C19
A   11
C13
A   12
C12
A   13
C4
A   14
C5
A   15
C6
A   16
N
A   17
C7
A   18
C3
A   19
C2
A   20
C8
A   21
C9
A   22
C1
A   23
O
A   24
C
M  END
>  <InstanceId>
4UIN_QI9_H_1226

>  <ChemCompId>
QI9

>  <PdbId>
4UIN

>  <ChainId>
H

>  <ResidueNumber>
1226

>  <InsertionCode>


>  <Model>
1

>  <AltIds>


>  <MissingHeavyAtoms>
0

>  <ObservedFormula>
C20 N2 O2

>  <Name>
Quinine

>  <SystematicName>
(R)-[(1S,2S,4S,5R)-5-ethenyl-1-azabicyclo[2.2.2]octan-2-yl]-(6-methoxyquinolin-4-yl)methanol

>  <Synonyms>
(3alpha,8alpha,9R)-6'-methoxycinchonan-9-ol

>  <Type>
NON-POLYMER

>  <Formula>
C20 H24 N2 O2

>  <MolecularWeight>
324.417

>  <ModifiedDate>
2015-01-09

>  <Parent>


>  <OneLetterCode>


>  <SubcomponentList>


>  <AmbiguousFlag>
N

>  <InChI>
InChI=1S/C20H24N2O2/c1-3-13-12-22-9-7-14(13)10-19(22)20(23)16-6-8-21-18-5-4-15(24-2)11-17(16)18/h3-6,8,11,13-14,19-20,23H,1,7,9-10,12H2,2H3/t13-,14-,19-,20+/m0/s1

>  <InChIKey>
LOUPRKONTZGTKE-WZBLMQSHSA-N

>  <SMILES>
COc1ccc2c(c1)c(ccn2)[C@H]([C@@H]3C[C@@H]4CC[N@]3C[C@@H]4C=C)O

$$$$
