4YTH_467_A_4000


 32 34  0  0  0  0  0  0  0  0999 V2000
   12.2542   17.7636    4.7562 F   0  0  0  0  0  0  0  0  0  0  0  0
   12.1874   16.5373    4.1902 C   0  0  0  0  0  0  0  0  0  0  0  0
   11.3244   16.2711    3.1052 C   0  0  0  0  0  0  0  0  0  0  0  0
   11.2520   15.0134    2.5335 N   0  0  0  0  0  0  0  0  0  0  0  0
   12.0665   13.9970    3.0760 C   0  0  0  0  0  0  0  0  0  0  0  0
   12.9330   14.1838    4.1113 N   0  0  0  0  0  0  0  0  0  0  0  0
   13.0094   15.4442    4.6847 C   0  0  0  0  0  0  0  0  0  0  0  0
   11.9458   12.6470    2.5555 C   0  0  0  0  0  0  0  0  0  0  0  0
   12.7038   11.4634    2.9049 C   0  0  0  0  0  0  0  0  0  0  0  0
   13.8283   11.1352    3.7497 C   0  0  0  0  0  0  0  0  0  0  0  0
   14.2751    9.8242    3.7370 C   0  0  0  0  0  0  0  0  0  0  0  0
   15.5713    9.3574    4.7321 Cl  0  0  0  0  0  0  0  0  0  0  0  0
   13.6640    8.8007    2.9350 C   0  0  0  0  0  0  0  0  0  0  0  0
   12.6057    9.0719    2.1319 N   0  0  0  0  0  0  0  0  0  0  0  0
   12.1619   10.3878    2.1209 C   0  0  0  0  0  0  0  0  0  0  0  0
   11.1386   10.9073    1.2976 N   0  0  0  0  0  0  0  0  0  0  0  0
   11.0128   12.2730    1.5772 C   0  0  0  0  0  0  0  0  0  0  0  0
   10.6077   10.3988    0.6428 H   0  0  0  0  0  0  0  0  0  0  0  0
   13.8765   15.6641    5.7675 N   0  0  0  0  0  0  0  0  0  0  0  0
   13.4624   15.6629    6.6607 H   0  0  0  0  0  0  0  0  0  0  0  0
   15.3644   15.9018    5.7274 C   0  0  0  0  0  0  0  0  0  0  0  0
   15.6489   17.1715    6.5368 C   0  0  0  0  0  0  0  0  0  0  0  0
   16.0951   14.7172    6.3676 C   0  0  0  0  0  0  0  0  0  0  0  0
   15.7954   16.1541    4.2542 C   0  0  0  0  0  0  0  0  0  0  0  0
   16.1109   15.0245    3.5308 N   0  0  0  0  0  0  0  0  0  0  0  0
   15.9017   17.2683    3.7601 O   0  0  0  0  0  0  0  0  0  0  0  0
   16.0305   14.1491    3.9739 H   0  0  0  0  0  0  0  0  0  0  0  0
   16.5545   15.0579    2.1529 C   0  0  0  0  0  0  0  0  0  0  0  0
   15.4602   14.6064    1.2353 C   0  0  0  0  0  0  0  0  0  0  0  0
   15.0040   13.4092    1.5414 F   0  0  0  0  0  0  0  0  0  0  0  0
   15.8641   14.5161   -0.0350 F   0  0  0  0  0  0  0  0  0  0  0  0
   14.4289   15.4302    1.2697 F   0  0  0  0  0  0  0  0  0  0  0  0
 32 29  1  0  0  0
 30 29  1  0  0  0
 29 31  1  0  0  0
 29 28  1  0  0  0
 16 17  1  0  0  0
 16 15  1  0  0  0
 17  8  2  0  0  0
 15 14  2  0  0  0
 15  9  1  0  0  0
 14 13  1  0  0  0
 28 25  1  0  0  0
  4  5  2  0  0  0
  4  3  1  0  0  0
  8  9  1  0  0  0
  8  5  1  0  0  0
  9 10  2  0  0  0
 13 11  2  0  0  0
  5  6  1  0  0  0
  3  2  2  0  0  0
 11 10  1  0  0  0
 11 12  1  0  0  0
 25 24  1  0  0  0
  6  7  2  0  0  0
  2  7  1  0  0  0
  2  1  1  0  0  0
  7 19  1  0  0  0
 26 24  2  0  0  0
 24 21  1  0  0  0
 19 21  1  0  0  0
 21 22  1  0  0  0
 21 23  1  0  0  0
 19 20  1  0  0  0
 25 27  1  0  0  0
 16 18  1  0  0  0
M  END
> <minimizedAffinity>
-8.73669

$$$$
4YTH_467_A_4000


 32 34  0  0  0  0  0  0  0  0999 V2000
   16.5638   15.6293    7.3531 F   0  0  0  0  0  0  0  0  0  0  0  0
   16.2003   14.4645    6.7704 C   0  0  0  0  0  0  0  0  0  0  0  0
   17.0761   13.3584    6.7220 C   0  0  0  0  0  0  0  0  0  0  0  0
   16.7045   12.1705    6.1180 N   0  0  0  0  0  0  0  0  0  0  0  0
   15.4184   12.1005    5.5417 C   0  0  0  0  0  0  0  0  0  0  0  0
   14.5154   13.1211    5.5631 N   0  0  0  0  0  0  0  0  0  0  0  0
   14.8843   14.3121    6.1702 C   0  0  0  0  0  0  0  0  0  0  0  0
   15.0350   10.8987    4.8229 C   0  0  0  0  0  0  0  0  0  0  0  0
   13.9958   10.7222    3.8297 C   0  0  0  0  0  0  0  0  0  0  0  0
   12.9494   11.5212    3.2360 C   0  0  0  0  0  0  0  0  0  0  0  0
   12.1136   10.9012    2.3219 C   0  0  0  0  0  0  0  0  0  0  0  0
   10.8823   11.7884    1.5569 Cl  0  0  0  0  0  0  0  0  0  0  0  0
   12.2561    9.5217    1.9469 C   0  0  0  0  0  0  0  0  0  0  0  0
   13.2279    8.7421    2.4820 N   0  0  0  0  0  0  0  0  0  0  0  0
   14.0593    9.3476    3.4151 C   0  0  0  0  0  0  0  0  0  0  0  0
   15.0740    8.7041    4.1576 N   0  0  0  0  0  0  0  0  0  0  0  0
   15.6616    9.6562    4.9988 C   0  0  0  0  0  0  0  0  0  0  0  0
   15.3239    7.7539    4.0946 H   0  0  0  0  0  0  0  0  0  0  0  0
   13.9847   15.3905    6.1897 N   0  0  0  0  0  0  0  0  0  0  0  0
   13.4682   15.5082    7.0195 H   0  0  0  0  0  0  0  0  0  0  0  0
   13.7144   16.3894    5.0938 C   0  0  0  0  0  0  0  0  0  0  0  0
   12.5889   15.8221    4.2223 C   0  0  0  0  0  0  0  0  0  0  0  0
   13.2619   17.7190    5.7055 C   0  0  0  0  0  0  0  0  0  0  0  0
   14.9898   16.5309    4.2145 C   0  0  0  0  0  0  0  0  0  0  0  0
   15.0773   15.6517    3.1571 N   0  0  0  0  0  0  0  0  0  0  0  0
   15.8905   17.3251    4.4491 O   0  0  0  0  0  0  0  0  0  0  0  0
   14.3390   15.0157    3.0169 H   0  0  0  0  0  0  0  0  0  0  0  0
   16.1983   15.6143    2.2415 C   0  0  0  0  0  0  0  0  0  0  0  0
   16.0282   14.5100    1.2441 C   0  0  0  0  0  0  0  0  0  0  0  0
   15.5344   14.9333    0.0987 F   0  0  0  0  0  0  0  0  0  0  0  0
   15.1814   13.5668    1.6665 F   0  0  0  0  0  0  0  0  0  0  0  0
   17.1787   13.9220    0.9720 F   0  0  0  0  0  0  0  0  0  0  0  0
 32 29  1  0  0  0
 30 29  1  0  0  0
 29 31  1  0  0  0
 29 28  1  0  0  0
 16 17  1  0  0  0
 16 15  1  0  0  0
 17  8  2  0  0  0
 15 14  2  0  0  0
 15  9  1  0  0  0
 14 13  1  0  0  0
 28 25  1  0  0  0
  4  5  2  0  0  0
  4  3  1  0  0  0
  8  9  1  0  0  0
  8  5  1  0  0  0
  9 10  2  0  0  0
 13 11  2  0  0  0
  5  6  1  0  0  0
  3  2  2  0  0  0
 11 10  1  0  0  0
 11 12  1  0  0  0
 25 24  1  0  0  0
  6  7  2  0  0  0
  2  7  1  0  0  0
  2  1  1  0  0  0
  7 19  1  0  0  0
 26 24  2  0  0  0
 24 21  1  0  0  0
 19 21  1  0  0  0
 21 22  1  0  0  0
 21 23  1  0  0  0
 19 20  1  0  0  0
 25 27  1  0  0  0
 16 18  1  0  0  0
M  END
> <minimizedAffinity>
-8.26671

$$$$
4YTH_467_A_4000


 32 34  0  0  0  0  0  0  0  0999 V2000
   12.4255   17.7962    4.7850 F   0  0  0  0  0  0  0  0  0  0  0  0
   12.3216   16.5784    4.2065 C   0  0  0  0  0  0  0  0  0  0  0  0
   11.3253   16.3001    3.2459 C   0  0  0  0  0  0  0  0  0  0  0  0
   11.2162   15.0507    2.6618 N   0  0  0  0  0  0  0  0  0  0  0  0
   12.1319   14.0552    3.0635 C   0  0  0  0  0  0  0  0  0  0  0  0
   13.1273   14.2552    3.9726 N   0  0  0  0  0  0  0  0  0  0  0  0
   13.2406   15.5074    4.5579 C   0  0  0  0  0  0  0  0  0  0  0  0
   11.9851   12.7110    2.5347 C   0  0  0  0  0  0  0  0  0  0  0  0
   12.7024   11.5056    2.8952 C   0  0  0  0  0  0  0  0  0  0  0  0
   13.7992   11.1432    3.7622 C   0  0  0  0  0  0  0  0  0  0  0  0
   14.2097    9.8204    3.7534 C   0  0  0  0  0  0  0  0  0  0  0  0
   15.4709    9.3142    4.7740 Cl  0  0  0  0  0  0  0  0  0  0  0  0
   13.5879    8.8172    2.9342 C   0  0  0  0  0  0  0  0  0  0  0  0
   12.5549    9.1205    2.1100 N   0  0  0  0  0  0  0  0  0  0  0  0
   12.1479   10.4482    2.0952 C   0  0  0  0  0  0  0  0  0  0  0  0
   11.1572   10.9990    1.2525 N   0  0  0  0  0  0  0  0  0  0  0  0
   11.0632   12.3666    1.5353 C   0  0  0  0  0  0  0  0  0  0  0  0
   10.6266   10.5078    0.5844 H   0  0  0  0  0  0  0  0  0  0  0  0
   14.2422   15.7396    5.5148 N   0  0  0  0  0  0  0  0  0  0  0  0
   13.9777   15.6208    6.4556 H   0  0  0  0  0  0  0  0  0  0  0  0
   15.6730   16.1488    5.2754 C   0  0  0  0  0  0  0  0  0  0  0  0
   15.8128   16.4812    3.7860 C   0  0  0  0  0  0  0  0  0  0  0  0
   16.0013   17.3932    6.1064 C   0  0  0  0  0  0  0  0  0  0  0  0
   16.6027   14.9438    5.5970 C   0  0  0  0  0  0  0  0  0  0  0  0
   16.2731   13.7614    4.9708 N   0  0  0  0  0  0  0  0  0  0  0  0
   17.5387   15.0004    6.3829 O   0  0  0  0  0  0  0  0  0  0  0  0
   15.4997   13.7559    4.3616 H   0  0  0  0  0  0  0  0  0  0  0  0
   17.0047   12.5267    5.1620 C   0  0  0  0  0  0  0  0  0  0  0  0
   17.9597   12.2989    4.0308 C   0  0  0  0  0  0  0  0  0  0  0  0
   17.6260   12.9645    2.9442 F   0  0  0  0  0  0  0  0  0  0  0  0
   18.0121   11.0171    3.6574 F   0  0  0  0  0  0  0  0  0  0  0  0
   19.1851   12.6734    4.3490 F   0  0  0  0  0  0  0  0  0  0  0  0
 32 29  1  0  0  0
 30 29  1  0  0  0
 29 31  1  0  0  0
 29 28  1  0  0  0
 16 17  1  0  0  0
 16 15  1  0  0  0
 17  8  2  0  0  0
 15 14  2  0  0  0
 15  9  1  0  0  0
 14 13  1  0  0  0
 28 25  1  0  0  0
  4  5  2  0  0  0
  4  3  1  0  0  0
  8  9  1  0  0  0
  8  5  1  0  0  0
  9 10  2  0  0  0
 13 11  2  0  0  0
  5  6  1  0  0  0
  3  2  2  0  0  0
 11 10  1  0  0  0
 11 12  1  0  0  0
 25 24  1  0  0  0
  6  7  2  0  0  0
  2  7  1  0  0  0
  2  1  1  0  0  0
  7 19  1  0  0  0
 26 24  2  0  0  0
 24 21  1  0  0  0
 19 21  1  0  0  0
 21 22  1  0  0  0
 21 23  1  0  0  0
 19 20  1  0  0  0
 25 27  1  0  0  0
 16 18  1  0  0  0
M  END
> <minimizedAffinity>
-8.22127

$$$$
4YTH_467_A_4000


 32 34  0  0  0  0  0  0  0  0999 V2000
   18.6106   13.5574    7.3597 F   0  0  0  0  0  0  0  0  0  0  0  0
   17.8608   12.6887    6.6445 C   0  0  0  0  0  0  0  0  0  0  0  0
   18.0422   11.2930    6.7539 C   0  0  0  0  0  0  0  0  0  0  0  0
   17.2792   10.4067    6.0148 N   0  0  0  0  0  0  0  0  0  0  0  0
   16.3135   10.9440    5.1374 C   0  0  0  0  0  0  0  0  0  0  0  0
   16.0728   12.2774    4.9907 N   0  0  0  0  0  0  0  0  0  0  0  0
   16.8345   13.1680    5.7322 C   0  0  0  0  0  0  0  0  0  0  0  0
   15.5610   10.0424    4.2837 C   0  0  0  0  0  0  0  0  0  0  0  0
   14.3231   10.2815    3.5709 C   0  0  0  0  0  0  0  0  0  0  0  0
   13.3526   11.3451    3.4583 C   0  0  0  0  0  0  0  0  0  0  0  0
   12.2394   11.1125    2.6675 C   0  0  0  0  0  0  0  0  0  0  0  0
   11.0732   12.3312    2.4605 Cl  0  0  0  0  0  0  0  0  0  0  0  0
   12.0280    9.8778    1.9641 C   0  0  0  0  0  0  0  0  0  0  0  0
   12.9187    8.8586    2.0448 N   0  0  0  0  0  0  0  0  0  0  0  0
   14.0287    9.0729    2.8513 C   0  0  0  0  0  0  0  0  0  0  0  0
   15.0304    8.1222    3.1472 N   0  0  0  0  0  0  0  0  0  0  0  0
   15.9553    8.7249    4.0077 C   0  0  0  0  0  0  0  0  0  0  0  0
   15.0709    7.1987    2.8082 H   0  0  0  0  0  0  0  0  0  0  0  0
   16.6262   14.5494    5.5876 N   0  0  0  0  0  0  0  0  0  0  0  0
   17.3320   15.0462    5.1141 H   0  0  0  0  0  0  0  0  0  0  0  0
   15.4526   15.3632    6.0696 C   0  0  0  0  0  0  0  0  0  0  0  0
   14.5554   14.4328    6.8928 C   0  0  0  0  0  0  0  0  0  0  0  0
   15.9473   16.5087    6.9583 C   0  0  0  0  0  0  0  0  0  0  0  0
   14.6429   15.8595    4.8375 C   0  0  0  0  0  0  0  0  0  0  0  0
   14.3537   14.8963    3.8954 N   0  0  0  0  0  0  0  0  0  0  0  0
   14.3139   17.0255    4.6673 O   0  0  0  0  0  0  0  0  0  0  0  0
   14.6551   13.9742    4.0632 H   0  0  0  0  0  0  0  0  0  0  0  0
   13.6299   15.1697    2.6716 C   0  0  0  0  0  0  0  0  0  0  0  0
   14.2979   14.5095    1.5049 C   0  0  0  0  0  0  0  0  0  0  0  0
   15.0917   13.5227    1.8673 F   0  0  0  0  0  0  0  0  0  0  0  0
   15.0739   15.3522    0.8172 F   0  0  0  0  0  0  0  0  0  0  0  0
   13.4147   14.0026    0.6646 F   0  0  0  0  0  0  0  0  0  0  0  0
 32 29  1  0  0  0
 30 29  1  0  0  0
 29 31  1  0  0  0
 29 28  1  0  0  0
 16 17  1  0  0  0
 16 15  1  0  0  0
 17  8  2  0  0  0
 15 14  2  0  0  0
 15  9  1  0  0  0
 14 13  1  0  0  0
 28 25  1  0  0  0
  4  5  2  0  0  0
  4  3  1  0  0  0
  8  9  1  0  0  0
  8  5  1  0  0  0
  9 10  2  0  0  0
 13 11  2  0  0  0
  5  6  1  0  0  0
  3  2  2  0  0  0
 11 10  1  0  0  0
 11 12  1  0  0  0
 25 24  1  0  0  0
  6  7  2  0  0  0
  2  7  1  0  0  0
  2  1  1  0  0  0
  7 19  1  0  0  0
 26 24  2  0  0  0
 24 21  1  0  0  0
 19 21  1  0  0  0
 21 22  1  0  0  0
 21 23  1  0  0  0
 19 20  1  0  0  0
 25 27  1  0  0  0
 16 18  1  0  0  0
M  END
> <minimizedAffinity>
-8.10170

$$$$
4YTH_467_A_4000


 32 34  0  0  0  0  0  0  0  0999 V2000
   16.0652   15.6337    7.7381 F   0  0  0  0  0  0  0  0  0  0  0  0
   15.7442   14.5403    7.0102 C   0  0  0  0  0  0  0  0  0  0  0  0
   14.4079   14.1027    6.8856 C   0  0  0  0  0  0  0  0  0  0  0  0
   14.0833   12.9787    6.1471 N   0  0  0  0  0  0  0  0  0  0  0  0
   15.1359   12.2748    5.5247 C   0  0  0  0  0  0  0  0  0  0  0  0
   16.4457   12.6460    5.5888 N   0  0  0  0  0  0  0  0  0  0  0  0
   16.7736   13.7737    6.3263 C   0  0  0  0  0  0  0  0  0  0  0  0
   14.8359   11.0422    4.8185 C   0  0  0  0  0  0  0  0  0  0  0  0
   13.8359   10.7941    3.8007 C   0  0  0  0  0  0  0  0  0  0  0  0
   12.7666   11.5267    3.1636 C   0  0  0  0  0  0  0  0  0  0  0  0
   11.9904   10.8480    2.2388 C   0  0  0  0  0  0  0  0  0  0  0  0
   10.7369   11.6560    1.4237 Cl  0  0  0  0  0  0  0  0  0  0  0  0
   12.2149    9.4715    1.8939 C   0  0  0  0  0  0  0  0  0  0  0  0
   13.2103    8.7534    2.4701 N   0  0  0  0  0  0  0  0  0  0  0  0
   13.9824    9.4178    3.4141 C   0  0  0  0  0  0  0  0  0  0  0  0
   15.0077    8.8414    4.1961 N   0  0  0  0  0  0  0  0  0  0  0  0
   15.5209    9.8375    5.0349 C   0  0  0  0  0  0  0  0  0  0  0  0
   15.3082    7.9047    4.1579 H   0  0  0  0  0  0  0  0  0  0  0  0
   18.1170   14.1702    6.4303 N   0  0  0  0  0  0  0  0  0  0  0  0
   18.6072   13.8363    7.2161 H   0  0  0  0  0  0  0  0  0  0  0  0
   18.8989   15.0451    5.4842 C   0  0  0  0  0  0  0  0  0  0  0  0
   19.6467   16.0820    6.3290 C   0  0  0  0  0  0  0  0  0  0  0  0
   19.9115   14.1948    4.7105 C   0  0  0  0  0  0  0  0  0  0  0  0
   17.9043   15.7972    4.5542 C   0  0  0  0  0  0  0  0  0  0  0  0
   17.3790   15.0477    3.5240 N   0  0  0  0  0  0  0  0  0  0  0  0
   17.6262   16.9824    4.6759 O   0  0  0  0  0  0  0  0  0  0  0  0
   17.6456   14.1028    3.4515 H   0  0  0  0  0  0  0  0  0  0  0  0
   16.4555   15.5774    2.5428 C   0  0  0  0  0  0  0  0  0  0  0  0
   15.9862   14.4940    1.6212 C   0  0  0  0  0  0  0  0  0  0  0  0
   16.9157   14.1172    0.7673 F   0  0  0  0  0  0  0  0  0  0  0  0
   14.9504   14.8768    0.8691 F   0  0  0  0  0  0  0  0  0  0  0  0
   15.6190   13.4158    2.2890 F   0  0  0  0  0  0  0  0  0  0  0  0
 32 29  1  0  0  0
 30 29  1  0  0  0
 29 31  1  0  0  0
 29 28  1  0  0  0
 16 17  1  0  0  0
 16 15  1  0  0  0
 17  8  2  0  0  0
 15 14  2  0  0  0
 15  9  1  0  0  0
 14 13  1  0  0  0
 28 25  1  0  0  0
  4  5  2  0  0  0
  4  3  1  0  0  0
  8  9  1  0  0  0
  8  5  1  0  0  0
  9 10  2  0  0  0
 13 11  2  0  0  0
  5  6  1  0  0  0
  3  2  2  0  0  0
 11 10  1  0  0  0
 11 12  1  0  0  0
 25 24  1  0  0  0
  6  7  2  0  0  0
  2  7  1  0  0  0
  2  1  1  0  0  0
  7 19  1  0  0  0
 26 24  2  0  0  0
 24 21  1  0  0  0
 19 21  1  0  0  0
 21 22  1  0  0  0
 21 23  1  0  0  0
 19 20  1  0  0  0
 25 27  1  0  0  0
 16 18  1  0  0  0
M  END
> <minimizedAffinity>
-7.95052

$$$$
4YTH_467_A_4000


 32 34  0  0  0  0  0  0  0  0999 V2000
   10.4937   11.7090    1.7852 F   0  0  0  0  0  0  0  0  0  0  0  0
   11.6097   11.5747    2.5369 C   0  0  0  0  0  0  0  0  0  0  0  0
   12.3856   10.3959    2.5024 C   0  0  0  0  0  0  0  0  0  0  0  0
   13.5223   10.2581    3.2789 N   0  0  0  0  0  0  0  0  0  0  0  0
   13.8803   11.3354    4.1169 C   0  0  0  0  0  0  0  0  0  0  0  0
   13.1889   12.5075    4.1913 N   0  0  0  0  0  0  0  0  0  0  0  0
   12.0505   12.6493    3.4122 C   0  0  0  0  0  0  0  0  0  0  0  0
   15.0160   11.1845    5.0087 C   0  0  0  0  0  0  0  0  0  0  0  0
   15.8568   10.0256    5.2270 C   0  0  0  0  0  0  0  0  0  0  0  0
   15.9023    8.6504    4.7880 C   0  0  0  0  0  0  0  0  0  0  0  0
   16.8966    7.8441    5.3168 C   0  0  0  0  0  0  0  0  0  0  0  0
   17.0329    6.2247    4.8196 Cl  0  0  0  0  0  0  0  0  0  0  0  0
   17.8682    8.3230    6.2605 C   0  0  0  0  0  0  0  0  0  0  0  0
   17.8573    9.6080    6.6933 N   0  0  0  0  0  0  0  0  0  0  0  0
   16.8522   10.4206    6.1854 C   0  0  0  0  0  0  0  0  0  0  0  0
   16.6012   11.7580    6.5639 N   0  0  0  0  0  0  0  0  0  0  0  0
   15.4932   12.2102    5.8379 C   0  0  0  0  0  0  0  0  0  0  0  0
   17.1148   12.2799    7.2220 H   0  0  0  0  0  0  0  0  0  0  0  0
   11.3033   13.8366    3.4824 N   0  0  0  0  0  0  0  0  0  0  0  0
   10.4993   13.8090    4.0499 H   0  0  0  0  0  0  0  0  0  0  0  0
   11.5836   15.1477    2.7938 C   0  0  0  0  0  0  0  0  0  0  0  0
   11.4468   14.9132    1.2857 C   0  0  0  0  0  0  0  0  0  0  0  0
   10.5590   16.1958    3.2396 C   0  0  0  0  0  0  0  0  0  0  0  0
   13.0506   15.5706    3.0920 C   0  0  0  0  0  0  0  0  0  0  0  0
   13.9797   15.1769    2.1536 N   0  0  0  0  0  0  0  0  0  0  0  0
   13.3916   16.1690    4.1032 O   0  0  0  0  0  0  0  0  0  0  0  0
   13.6642   14.6796    1.3647 H   0  0  0  0  0  0  0  0  0  0  0  0
   15.3958   15.4565    2.2673 C   0  0  0  0  0  0  0  0  0  0  0  0
   16.1943   14.1957    2.1400 C   0  0  0  0  0  0  0  0  0  0  0  0
   16.9977   13.9991    3.1652 F   0  0  0  0  0  0  0  0  0  0  0  0
   16.9882   14.2008    1.0654 F   0  0  0  0  0  0  0  0  0  0  0  0
   15.4133   13.1346    2.0556 F   0  0  0  0  0  0  0  0  0  0  0  0
 32 29  1  0  0  0
 30 29  1  0  0  0
 29 31  1  0  0  0
 29 28  1  0  0  0
 16 17  1  0  0  0
 16 15  1  0  0  0
 17  8  2  0  0  0
 15 14  2  0  0  0
 15  9  1  0  0  0
 14 13  1  0  0  0
 28 25  1  0  0  0
  4  5  2  0  0  0
  4  3  1  0  0  0
  8  9  1  0  0  0
  8  5  1  0  0  0
  9 10  2  0  0  0
 13 11  2  0  0  0
  5  6  1  0  0  0
  3  2  2  0  0  0
 11 10  1  0  0  0
 11 12  1  0  0  0
 25 24  1  0  0  0
  6  7  2  0  0  0
  2  7  1  0  0  0
  2  1  1  0  0  0
  7 19  1  0  0  0
 26 24  2  0  0  0
 24 21  1  0  0  0
 19 21  1  0  0  0
 21 22  1  0  0  0
 21 23  1  0  0  0
 19 20  1  0  0  0
 25 27  1  0  0  0
 16 18  1  0  0  0
M  END
> <minimizedAffinity>
-7.74366

$$$$
4YTH_467_A_4000


 32 34  0  0  0  0  0  0  0  0999 V2000
   10.7097   11.7335    1.8402 F   0  0  0  0  0  0  0  0  0  0  0  0
   11.8166   11.5473    2.5943 C   0  0  0  0  0  0  0  0  0  0  0  0
   12.5135   10.3197    2.5917 C   0  0  0  0  0  0  0  0  0  0  0  0
   13.6410   10.1292    3.3705 N   0  0  0  0  0  0  0  0  0  0  0  0
   14.0711   11.2034    4.1780 C   0  0  0  0  0  0  0  0  0  0  0  0
   13.4582   12.4199    4.2206 N   0  0  0  0  0  0  0  0  0  0  0  0
   12.3292   12.6145    3.4390 C   0  0  0  0  0  0  0  0  0  0  0  0
   15.1971   11.0031    5.0724 C   0  0  0  0  0  0  0  0  0  0  0  0
   16.0058    9.8180    5.2697 C   0  0  0  0  0  0  0  0  0  0  0  0
   16.0179    8.4521    4.8008 C   0  0  0  0  0  0  0  0  0  0  0  0
   16.9875    7.6084    5.3171 C   0  0  0  0  0  0  0  0  0  0  0  0
   17.0842    5.9972    4.7851 Cl  0  0  0  0  0  0  0  0  0  0  0  0
   17.9656    8.0407    6.2765 C   0  0  0  0  0  0  0  0  0  0  0  0
   17.9858    9.3158    6.7374 N   0  0  0  0  0  0  0  0  0  0  0  0
   17.0054   10.1655    6.2420 C   0  0  0  0  0  0  0  0  0  0  0  0
   16.7873   11.5005    6.6486 N   0  0  0  0  0  0  0  0  0  0  0  0
   15.6960   11.9975    5.9267 C   0  0  0  0  0  0  0  0  0  0  0  0
   17.3104   11.9942    7.3208 H   0  0  0  0  0  0  0  0  0  0  0  0
   11.6616   13.8496    3.4769 N   0  0  0  0  0  0  0  0  0  0  0  0
   10.8007   13.8617    3.9544 H   0  0  0  0  0  0  0  0  0  0  0  0
   12.1038   15.1588    2.8750 C   0  0  0  0  0  0  0  0  0  0  0  0
   13.1442   14.8403    1.7959 C   0  0  0  0  0  0  0  0  0  0  0  0
   10.9051   15.8638    2.2322 C   0  0  0  0  0  0  0  0  0  0  0  0
   12.7894   16.0151    3.9779 C   0  0  0  0  0  0  0  0  0  0  0  0
   14.0012   15.5369    4.4271 N   0  0  0  0  0  0  0  0  0  0  0  0
   12.2895   17.0200    4.4648 O   0  0  0  0  0  0  0  0  0  0  0  0
   14.3571   14.7135    4.0216 H   0  0  0  0  0  0  0  0  0  0  0  0
   14.7782   16.1824    5.4644 C   0  0  0  0  0  0  0  0  0  0  0  0
   14.5364   15.5274    6.7895 C   0  0  0  0  0  0  0  0  0  0  0  0
   13.8462   14.4105    6.6841 F   0  0  0  0  0  0  0  0  0  0  0  0
   13.8314   16.3010    7.6200 F   0  0  0  0  0  0  0  0  0  0  0  0
   15.6704   15.2222    7.3927 F   0  0  0  0  0  0  0  0  0  0  0  0
 32 29  1  0  0  0
 30 29  1  0  0  0
 29 31  1  0  0  0
 29 28  1  0  0  0
 16 17  1  0  0  0
 16 15  1  0  0  0
 17  8  2  0  0  0
 15 14  2  0  0  0
 15  9  1  0  0  0
 14 13  1  0  0  0
 28 25  1  0  0  0
  4  5  2  0  0  0
  4  3  1  0  0  0
  8  9  1  0  0  0
  8  5  1  0  0  0
  9 10  2  0  0  0
 13 11  2  0  0  0
  5  6  1  0  0  0
  3  2  2  0  0  0
 11 10  1  0  0  0
 11 12  1  0  0  0
 25 24  1  0  0  0
  6  7  2  0  0  0
  2  7  1  0  0  0
  2  1  1  0  0  0
  7 19  1  0  0  0
 26 24  2  0  0  0
 24 21  1  0  0  0
 19 21  1  0  0  0
 21 22  1  0  0  0
 21 23  1  0  0  0
 19 20  1  0  0  0
 25 27  1  0  0  0
 16 18  1  0  0  0
M  END
> <minimizedAffinity>
-7.71860

$$$$
4YTH_467_A_4000


 32 34  0  0  0  0  0  0  0  0999 V2000
   19.0907   10.8978    6.9496 F   0  0  0  0  0  0  0  0  0  0  0  0
   17.9628   10.7624    6.2161 C   0  0  0  0  0  0  0  0  0  0  0  0
   17.0675    9.6921    6.4297 C   0  0  0  0  0  0  0  0  0  0  0  0
   15.9184    9.5513    5.6721 N   0  0  0  0  0  0  0  0  0  0  0  0
   15.6712   10.5118    4.6684 C   0  0  0  0  0  0  0  0  0  0  0  0
   16.4817   11.5780    4.4155 N   0  0  0  0  0  0  0  0  0  0  0  0
   17.6328   11.7229    5.1751 C   0  0  0  0  0  0  0  0  0  0  0  0
   14.5212   10.3396    3.7991 C   0  0  0  0  0  0  0  0  0  0  0  0
   13.5098   11.3053    3.4222 C   0  0  0  0  0  0  0  0  0  0  0  0
   13.1710   12.6699    3.7525 C   0  0  0  0  0  0  0  0  0  0  0  0
   12.0347   13.2047    3.1684 C   0  0  0  0  0  0  0  0  0  0  0  0
   11.5940   14.8156    3.4832 Cl  0  0  0  0  0  0  0  0  0  0  0  0
   11.2052   12.4652    2.2578 C   0  0  0  0  0  0  0  0  0  0  0  0
   11.4937   11.1833    1.9233 N   0  0  0  0  0  0  0  0  0  0  0  0
   12.6195   10.6297    2.5188 C   0  0  0  0  0  0  0  0  0  0  0  0
   13.0524    9.2921    2.3828 N   0  0  0  0  0  0  0  0  0  0  0  0
   14.2085    9.1331    3.1557 C   0  0  0  0  0  0  0  0  0  0  0  0
   12.6178    8.5949    1.8404 H   0  0  0  0  0  0  0  0  0  0  0  0
   18.5003   12.7987    4.9246 N   0  0  0  0  0  0  0  0  0  0  0  0
   19.2928   12.5971    4.3765 H   0  0  0  0  0  0  0  0  0  0  0  0
   18.3646   14.2247    5.3937 C   0  0  0  0  0  0  0  0  0  0  0  0
   18.2224   14.1951    6.9192 C   0  0  0  0  0  0  0  0  0  0  0  0
   19.6212   15.0155    5.0162 C   0  0  0  0  0  0  0  0  0  0  0  0
   17.0644   14.8318    4.7929 C   0  0  0  0  0  0  0  0  0  0  0  0
   16.9706   14.7813    3.4191 N   0  0  0  0  0  0  0  0  0  0  0  0
   16.1920   15.3655    5.4644 O   0  0  0  0  0  0  0  0  0  0  0  0
   17.7051   14.3606    2.9164 H   0  0  0  0  0  0  0  0  0  0  0  0
   15.8481   15.3148    2.6762 C   0  0  0  0  0  0  0  0  0  0  0  0
   15.8466   14.7901    1.2734 C   0  0  0  0  0  0  0  0  0  0  0  0
   14.8600   13.9467    1.0489 F   0  0  0  0  0  0  0  0  0  0  0  0
   16.9616   14.1152    0.9798 F   0  0  0  0  0  0  0  0  0  0  0  0
   15.7255   15.7656    0.3919 F   0  0  0  0  0  0  0  0  0  0  0  0
 32 29  1  0  0  0
 30 29  1  0  0  0
 29 31  1  0  0  0
 29 28  1  0  0  0
 16 17  1  0  0  0
 16 15  1  0  0  0
 17  8  2  0  0  0
 15 14  2  0  0  0
 15  9  1  0  0  0
 14 13  1  0  0  0
 28 25  1  0  0  0
  4  5  2  0  0  0
  4  3  1  0  0  0
  8  9  1  0  0  0
  8  5  1  0  0  0
  9 10  2  0  0  0
 13 11  2  0  0  0
  5  6  1  0  0  0
  3  2  2  0  0  0
 11 10  1  0  0  0
 11 12  1  0  0  0
 25 24  1  0  0  0
  6  7  2  0  0  0
  2  7  1  0  0  0
  2  1  1  0  0  0
  7 19  1  0  0  0
 26 24  2  0  0  0
 24 21  1  0  0  0
 19 21  1  0  0  0
 21 22  1  0  0  0
 21 23  1  0  0  0
 19 20  1  0  0  0
 25 27  1  0  0  0
 16 18  1  0  0  0
M  END
> <minimizedAffinity>
-7.69984

$$$$
4YTH_467_A_4000


 32 34  0  0  0  0  0  0  0  0999 V2000
   16.7545   16.6809    8.2994 F   0  0  0  0  0  0  0  0  0  0  0  0
   15.8523   16.3730    7.3404 C   0  0  0  0  0  0  0  0  0  0  0  0
   14.5733   16.9699    7.3112 C   0  0  0  0  0  0  0  0  0  0  0  0
   13.6492   16.6468    6.3336 N   0  0  0  0  0  0  0  0  0  0  0  0
   14.0238   15.6913    5.3653 C   0  0  0  0  0  0  0  0  0  0  0  0
   15.2440   15.0856    5.3220 N   0  0  0  0  0  0  0  0  0  0  0  0
   16.1731   15.4095    6.2993 C   0  0  0  0  0  0  0  0  0  0  0  0
   13.0440   15.2666    4.3816 C   0  0  0  0  0  0  0  0  0  0  0  0
   12.7712   13.9349    3.8818 C   0  0  0  0  0  0  0  0  0  0  0  0
   13.3218   12.6091    4.0404 C   0  0  0  0  0  0  0  0  0  0  0  0
   12.7549   11.5890    3.2944 C   0  0  0  0  0  0  0  0  0  0  0  0
   13.3280    9.9973    3.4559 Cl  0  0  0  0  0  0  0  0  0  0  0  0
   11.6553   11.8007    2.3943 C   0  0  0  0  0  0  0  0  0  0  0  0
   11.1118   13.0309    2.2218 N   0  0  0  0  0  0  0  0  0  0  0  0
   11.6855   14.0654    2.9493 C   0  0  0  0  0  0  0  0  0  0  0  0
   11.3381   15.4313    2.8574 N   0  0  0  0  0  0  0  0  0  0  0  0
   12.1618   16.1451    3.7355 C   0  0  0  0  0  0  0  0  0  0  0  0
   10.6399   15.8137    2.2782 H   0  0  0  0  0  0  0  0  0  0  0  0
   17.4319   14.7865    6.2956 N   0  0  0  0  0  0  0  0  0  0  0  0
   17.6723   14.2917    7.1121 H   0  0  0  0  0  0  0  0  0  0  0  0
   18.4593   14.7840    5.1928 C   0  0  0  0  0  0  0  0  0  0  0  0
   18.5798   16.2208    4.6737 C   0  0  0  0  0  0  0  0  0  0  0  0
   19.8130   14.3293    5.7476 C   0  0  0  0  0  0  0  0  0  0  0  0
   17.9491   13.8852    4.0302 C   0  0  0  0  0  0  0  0  0  0  0  0
   17.2004   14.5313    3.0706 N   0  0  0  0  0  0  0  0  0  0  0  0
   18.1430   12.6786    3.9706 O   0  0  0  0  0  0  0  0  0  0  0  0
   17.0520   15.4996    3.1684 H   0  0  0  0  0  0  0  0  0  0  0  0
   16.6205   13.8604    1.9261 C   0  0  0  0  0  0  0  0  0  0  0  0
   15.5122   14.6799    1.3399 C   0  0  0  0  0  0  0  0  0  0  0  0
   15.8382   15.2194    0.1833 F   0  0  0  0  0  0  0  0  0  0  0  0
   15.1669   15.7058    2.1230 F   0  0  0  0  0  0  0  0  0  0  0  0
   14.4299   13.9526    1.1326 F   0  0  0  0  0  0  0  0  0  0  0  0
 32 29  1  0  0  0
 30 29  1  0  0  0
 29 31  1  0  0  0
 29 28  1  0  0  0
 16 17  1  0  0  0
 16 15  1  0  0  0
 17  8  2  0  0  0
 15 14  2  0  0  0
 15  9  1  0  0  0
 14 13  1  0  0  0
 28 25  1  0  0  0
  4  5  2  0  0  0
  4  3  1  0  0  0
  8  9  1  0  0  0
  8  5  1  0  0  0
  9 10  2  0  0  0
 13 11  2  0  0  0
  5  6  1  0  0  0
  3  2  2  0  0  0
 11 10  1  0  0  0
 11 12  1  0  0  0
 25 24  1  0  0  0
  6  7  2  0  0  0
  2  7  1  0  0  0
  2  1  1  0  0  0
  7 19  1  0  0  0
 26 24  2  0  0  0
 24 21  1  0  0  0
 19 21  1  0  0  0
 21 22  1  0  0  0
 21 23  1  0  0  0
 19 20  1  0  0  0
 25 27  1  0  0  0
 16 18  1  0  0  0
M  END
> <minimizedAffinity>
-7.66281

$$$$
4YTH_467_A_4000


 32 34  0  0  0  0  0  0  0  0999 V2000
   19.1510   16.8100    4.8523 F   0  0  0  0  0  0  0  0  0  0  0  0
   17.8895   16.3731    4.6372 C   0  0  0  0  0  0  0  0  0  0  0  0
   17.6003   15.0001    4.4817 C   0  0  0  0  0  0  0  0  0  0  0  0
   16.3098   14.5566    4.2534 N   0  0  0  0  0  0  0  0  0  0  0  0
   15.2867   15.5249    4.1728 C   0  0  0  0  0  0  0  0  0  0  0  0
   15.4887   16.8639    4.3272 N   0  0  0  0  0  0  0  0  0  0  0  0
   16.7808   17.3110    4.5586 C   0  0  0  0  0  0  0  0  0  0  0  0
   13.9386   15.0971    3.8450 C   0  0  0  0  0  0  0  0  0  0  0  0
   13.4531   13.7681    3.5360 C   0  0  0  0  0  0  0  0  0  0  0  0
   14.0143   12.4501    3.3520 C   0  0  0  0  0  0  0  0  0  0  0  0
   13.1467   11.4309    2.9957 C   0  0  0  0  0  0  0  0  0  0  0  0
   13.7305    9.8473    2.7966 Cl  0  0  0  0  0  0  0  0  0  0  0  0
   11.7362   11.6359    2.8157 C   0  0  0  0  0  0  0  0  0  0  0  0
   11.1743   12.8587    2.9820 N   0  0  0  0  0  0  0  0  0  0  0  0
   12.0379   13.8927    3.3194 C   0  0  0  0  0  0  0  0  0  0  0  0
   11.6841   15.2535    3.4538 N   0  0  0  0  0  0  0  0  0  0  0  0
   12.8419   15.9691    3.7803 C   0  0  0  0  0  0  0  0  0  0  0  0
   10.7825   15.6318    3.3382 H   0  0  0  0  0  0  0  0  0  0  0  0
   17.0257   18.6868    4.7003 N   0  0  0  0  0  0  0  0  0  0  0  0
   17.2303   19.1775    3.8717 H   0  0  0  0  0  0  0  0  0  0  0  0
   17.0131   19.5027    5.9676 C   0  0  0  0  0  0  0  0  0  0  0  0
   17.3367   18.5550    7.1275 C   0  0  0  0  0  0  0  0  0  0  0  0
   18.0844   20.5951    5.8904 C   0  0  0  0  0  0  0  0  0  0  0  0
   15.5824   20.0727    6.1863 C   0  0  0  0  0  0  0  0  0  0  0  0
   14.5686   19.1394    6.1788 N   0  0  0  0  0  0  0  0  0  0  0  0
   15.3393   21.2653    6.3111 O   0  0  0  0  0  0  0  0  0  0  0  0
   14.8072   18.1923    6.0553 H   0  0  0  0  0  0  0  0  0  0  0  0
   13.1707   19.4790    6.3433 C   0  0  0  0  0  0  0  0  0  0  0  0
   12.3783   18.2725    6.7431 C   0  0  0  0  0  0  0  0  0  0  0  0
   11.7976   18.4140    7.9170 F   0  0  0  0  0  0  0  0  0  0  0  0
   13.1362   17.1778    6.8539 F   0  0  0  0  0  0  0  0  0  0  0  0
   11.4221   18.0107    5.8712 F   0  0  0  0  0  0  0  0  0  0  0  0
 32 29  1  0  0  0
 30 29  1  0  0  0
 29 31  1  0  0  0
 29 28  1  0  0  0
 16 17  1  0  0  0
 16 15  1  0  0  0
 17  8  2  0  0  0
 15 14  2  0  0  0
 15  9  1  0  0  0
 14 13  1  0  0  0
 28 25  1  0  0  0
  4  5  2  0  0  0
  4  3  1  0  0  0
  8  9  1  0  0  0
  8  5  1  0  0  0
  9 10  2  0  0  0
 13 11  2  0  0  0
  5  6  1  0  0  0
  3  2  2  0  0  0
 11 10  1  0  0  0
 11 12  1  0  0  0
 25 24  1  0  0  0
  6  7  2  0  0  0
  2  7  1  0  0  0
  2  1  1  0  0  0
  7 19  1  0  0  0
 26 24  2  0  0  0
 24 21  1  0  0  0
 19 21  1  0  0  0
 21 22  1  0  0  0
 21 23  1  0  0  0
 19 20  1  0  0  0
 25 27  1  0  0  0
 16 18  1  0  0  0
M  END
> <minimizedAffinity>
-7.65096

$$$$
