3D8W_D8W_A_301
  RCSB PDB12061708173D
Coordinates from PDB:3D8W:A:301 Model:1 without hydrogens
 19 20  0  0  0  0            999 V2000
   -3.7480    7.2170   14.9300   C 0  0  0  0  0  0  0  0  0  0  0  0
   -2.6520    8.0100   15.2590   C 0  0  0  0  0  0  0  0  0  0  0  0
   -1.8770    8.5300   14.2250   C 0  0  0  0  0  0  0  0  0  0  0  0
   -2.1710    8.2920   12.8860   C 0  0  0  0  0  0  0  0  0  0  0  0
   -3.2660    7.4850   12.5570   C 0  0  0  0  0  0  0  0  0  0  0  0
   -4.0140    6.9550   13.5950   C 0  0  0  0  0  0  0  0  0  0  0  0
   -5.3140    6.0650   13.2440   S 0  0  0  0  0  0  0  0  0  0  0  0
   -6.2340    6.2910   14.3440   O 0  0  0  0  0  0  0  0  0  0  0  0
   -5.9170    6.5480   11.9750   O 0  0  0  0  0  0  0  0  0  0  0  0
   -4.7700    4.6710   13.0150   N 0  0  0  0  0  0  0  0  0  0  0  0
   -4.7940    3.6140   13.8680   C 0  0  0  0  0  0  0  0  0  0  0  0
   -5.9290    3.4400   15.1330   S 0  0  0  0  0  0  0  0  0  0  0  0
   -3.9190    2.5820   13.7980   N 0  0  0  0  0  0  0  0  0  0  0  0
   -4.1670    1.6230   14.8170   N 0  0  0  0  0  0  0  0  0  0  0  0
   -5.2090    1.9380   15.6060   C 0  0  0  0  0  0  0  0  0  0  0  0
   -5.9160    0.9030   16.7060   S 0  0  0  0  0  0  0  0  0  0  0  0
   -5.3520    1.2210   17.9840   O 0  0  0  0  0  0  0  0  0  0  0  0
   -7.3050    1.1480   16.6630   O 0  0  0  0  0  0  0  0  0  0  0  0
   -5.5330   -0.5790   16.2990   N 0  0  0  0  0  0  0  0  0  0  0  0
  1  2  2  0  0  0  0
  1  6  1  0  0  0  0
  2  3  1  0  0  0  0
  3  4  2  0  0  0  0
  4  5  1  0  0  0  0
  5  6  2  0  0  0  0
  6  7  1  0  0  0  0
  7  8  2  0  0  0  0
  7  9  2  0  0  0  0
  7 10  1  0  0  0  0
 10 11  1  0  0  0  0
 11 12  1  0  0  0  0
 11 13  2  0  0  0  0
 12 15  1  0  0  0  0
 13 14  1  0  0  0  0
 14 15  2  0  0  0  0
 15 16  1  0  0  0  0
 16 17  2  0  0  0  0
 16 18  2  0  0  0  0
 16 19  1  0  0  0  0
A    1
C1
A    2
C2
A    3
C3
A    4
C4
A    5
C5
A    6
C6
A    7
S1
A    8
O1
A    9
O2
A   10
N1
A   11
C7
A   12
S2
A   13
N2
A   14
N3
A   15
C8
A   16
S3
A   17
O3
A   18
O4
A   19
N4
M  END
>  <InstanceId>
3D8W_D8W_A_301

>  <ChemCompId>
D8W

>  <PdbId>
3D8W

>  <ChainId>
A

>  <ResidueNumber>
301

>  <InsertionCode>


>  <Model>
1

>  <AltIds>


>  <MissingHeavyAtoms>
0

>  <ObservedFormula>
C8 N4 O4 S3

>  <Name>
5-[(phenylsulfonyl)amino]-1,3,4-thiadiazole-2-sulfonamide

>  <SystematicName>
5-(phenylsulfonylamino)-1,3,4-thiadiazole-2-sulfonamide

>  <Synonyms>


>  <Type>
NON-POLYMER

>  <Formula>
C8 H8 N4 O4 S3

>  <MolecularWeight>
320.369

>  <ModifiedDate>
2011-06-04

>  <Parent>


>  <OneLetterCode>


>  <SubcomponentList>


>  <AmbiguousFlag>
N

>  <InChI>
InChI=1S/C8H8N4O4S3/c9-18(13,14)8-11-10-7(17-8)12-19(15,16)6-4-2-1-3-5-6/h1-5H,(H,10,12)(H2,9,13,14)

>  <InChIKey>
PWDGTQXZLNDOKS-UHFFFAOYSA-N

>  <SMILES>
c1ccc(cc1)S(=O)(=O)Nc2nnc(s2)S(=O)(=O)N

$$$$
