5U0Y_7PJ_A_301


 21 22  0  0  0  0  0  0  0  0999 V2000
    8.9505   -0.1978   24.6148 C   0  0  0  0  0  0  0  0  0  0  0  0
    9.1511   -0.3951   25.9577 C   0  0  0  0  0  0  0  0  0  0  0  0
    9.8136    0.5928   23.9063 C   0  0  0  0  0  0  0  0  0  0  0  0
   10.9562    0.9415   25.8819 C   0  0  0  0  0  0  0  0  0  0  0  0
    7.4262   -1.5127   25.4634 C   0  0  0  0  0  0  0  0  0  0  0  0
   10.1605    0.1737   26.6354 N   0  0  0  0  0  0  0  0  0  0  0  0
    8.2002   -1.2188   26.4806 N   0  0  0  0  0  0  0  0  0  0  0  0
   10.8268    1.1689   24.5625 N   0  0  0  0  0  0  0  0  0  0  0  0
    7.8407   -0.9254   24.3025 N   0  0  0  0  0  0  0  0  0  0  0  0
   12.0145    1.5584   26.5562 N   0  0  0  0  0  0  0  0  0  0  0  0
    9.6581    0.8313   22.5836 O   0  0  0  0  0  0  0  0  0  0  0  0
    8.1135   -1.5245   27.4124 H   0  0  0  0  0  0  0  0  0  0  0  0
   11.4660    1.7486   24.0886 H   0  0  0  0  0  0  0  0  0  0  0  0
   12.6403    2.1379   26.0646 H   0  0  0  0  0  0  0  0  0  0  0  0
   12.1337    1.4133   27.5227 H   0  0  0  0  0  0  0  0  0  0  0  0
    6.0173   -2.5434   25.5637 S   0  0  0  0  0  0  0  0  0  0  0  0
    5.8665   -3.4149   23.9630 C   0  0  0  0  0  0  0  0  0  0  0  0
    5.9071   -4.9656   24.0614 C   0  0  0  0  0  0  0  0  0  0  0  0
    6.9817   -5.4341   23.5821 O   0  0  0  0  0  0  0  0  0  0  0  0
    4.9620   -5.6262   24.5838 O   0  0  0  0  0  0  0  0  0  0  0  0
    4.2047   -5.1818   24.9109 H   0  0  0  0  0  0  0  0  0  0  0  0
 19 18  2  0  0  0
 18 20  1  0  0  0
 18 17  1  0  0  0
 11  3  2  0  0  0
 17 16  1  0  0  0
  3  1  1  0  0  0
  3  8  1  0  0  0
  9  1  1  0  0  0
  9  5  2  0  0  0
  1  2  2  0  0  0
  8  4  1  0  0  0
 16  5  1  0  0  0
  5  7  1  0  0  0
  2  7  1  0  0  0
  2  6  1  0  0  0
  4  6  2  0  0  0
  4 10  1  0  0  0
  7 12  1  0  0  0
  8 13  1  0  0  0
 10 14  1  0  0  0
 10 15  1  0  0  0
 20 21  1  0  0  0
M  END
> <minimizedAffinity>
-6.86332

$$$$
5U0Y_7PJ_A_301


 21 22  0  0  0  0  0  0  0  0999 V2000
    8.4200   -0.8424   25.4892 C   0  0  0  0  0  0  0  0  0  0  0  0
    8.1403   -0.6118   24.1660 C   0  0  0  0  0  0  0  0  0  0  0  0
    9.5074   -0.2478   26.0691 C   0  0  0  0  0  0  0  0  0  0  0  0
    9.9544    0.7061   24.0148 C   0  0  0  0  0  0  0  0  0  0  0  0
    6.6225   -1.9109   24.8568 C   0  0  0  0  0  0  0  0  0  0  0  0
    8.9037    0.1682   23.3846 N   0  0  0  0  0  0  0  0  0  0  0  0
    7.0165   -1.2772   23.7782 N   0  0  0  0  0  0  0  0  0  0  0  0
   10.2812    0.5339   25.3081 N   0  0  0  0  0  0  0  0  0  0  0  0
    7.4347   -1.6757   25.9290 N   0  0  0  0  0  0  0  0  0  0  0  0
   10.7783    1.5183   23.2293 N   0  0  0  0  0  0  0  0  0  0  0  0
    9.8372   -0.4483   27.3659 O   0  0  0  0  0  0  0  0  0  0  0  0
    6.5950   -1.2815   22.8886 H   0  0  0  0  0  0  0  0  0  0  0  0
   11.0752    0.9752   25.6876 H   0  0  0  0  0  0  0  0  0  0  0  0
   11.5702    1.9472   23.6271 H   0  0  0  0  0  0  0  0  0  0  0  0
   10.5665    1.6612   22.2786 H   0  0  0  0  0  0  0  0  0  0  0  0
    5.2137   -2.9438   24.9327 S   0  0  0  0  0  0  0  0  0  0  0  0
    5.7453   -4.5351   25.6606 C   0  0  0  0  0  0  0  0  0  0  0  0
    5.8802   -4.5281   27.2090 C   0  0  0  0  0  0  0  0  0  0  0  0
    4.8393   -4.9832   27.7688 O   0  0  0  0  0  0  0  0  0  0  0  0
    6.9323   -4.1239   27.7854 O   0  0  0  0  0  0  0  0  0  0  0  0
    7.6514   -3.8036   27.2772 H   0  0  0  0  0  0  0  0  0  0  0  0
 19 18  2  0  0  0
 18 20  1  0  0  0
 18 17  1  0  0  0
 11  3  2  0  0  0
 17 16  1  0  0  0
  3  1  1  0  0  0
  3  8  1  0  0  0
  9  1  1  0  0  0
  9  5  2  0  0  0
  1  2  2  0  0  0
  8  4  1  0  0  0
 16  5  1  0  0  0
  5  7  1  0  0  0
  2  7  1  0  0  0
  2  6  1  0  0  0
  4  6  2  0  0  0
  4 10  1  0  0  0
  7 12  1  0  0  0
  8 13  1  0  0  0
 10 14  1  0  0  0
 10 15  1  0  0  0
 20 21  1  0  0  0
M  END
> <minimizedAffinity>
-6.31615

$$$$
5U0Y_7PJ_A_301


 21 22  0  0  0  0  0  0  0  0999 V2000
    8.6830   -0.5703   25.4281 C   0  0  0  0  0  0  0  0  0  0  0  0
    8.3015   -0.4246   24.1183 C   0  0  0  0  0  0  0  0  0  0  0  0
    9.7533    0.1343   25.9079 C   0  0  0  0  0  0  0  0  0  0  0  0
    9.9889    1.0229   23.7902 C   0  0  0  0  0  0  0  0  0  0  0  0
    6.9416   -1.8049   24.9635 C   0  0  0  0  0  0  0  0  0  0  0  0
    8.9473    0.3754   23.2553 N   0  0  0  0  0  0  0  0  0  0  0  0
    7.2130   -1.1936   23.8353 N   0  0  0  0  0  0  0  0  0  0  0  0
   10.4107    0.9378   25.0646 N   0  0  0  0  0  0  0  0  0  0  0  0
    7.7989   -1.4568   25.9677 N   0  0  0  0  0  0  0  0  0  0  0  0
   10.6921    1.8595   22.9178 N   0  0  0  0  0  0  0  0  0  0  0  0
   10.1806    0.0214   27.1867 O   0  0  0  0  0  0  0  0  0  0  0  0
    6.7372   -1.2726   22.9771 H   0  0  0  0  0  0  0  0  0  0  0  0
   11.1888    1.4573   25.3709 H   0  0  0  0  0  0  0  0  0  0  0  0
   11.4703    2.3674   23.2431 H   0  0  0  0  0  0  0  0  0  0  0  0
   10.4090    1.9407   21.9784 H   0  0  0  0  0  0  0  0  0  0  0  0
    5.6293   -2.9405   25.1772 S   0  0  0  0  0  0  0  0  0  0  0  0
    5.3216   -3.7270   23.5550 C   0  0  0  0  0  0  0  0  0  0  0  0
    6.4812   -4.6234   23.0375 C   0  0  0  0  0  0  0  0  0  0  0  0
    6.8336   -5.4754   23.9057 O   0  0  0  0  0  0  0  0  0  0  0  0
    6.9626   -4.4866   21.8747 O   0  0  0  0  0  0  0  0  0  0  0  0
    6.6300   -3.8209   21.3053 H   0  0  0  0  0  0  0  0  0  0  0  0
 19 18  2  0  0  0
 18 20  1  0  0  0
 18 17  1  0  0  0
 11  3  2  0  0  0
 17 16  1  0  0  0
  3  1  1  0  0  0
  3  8  1  0  0  0
  9  1  1  0  0  0
  9  5  2  0  0  0
  1  2  2  0  0  0
  8  4  1  0  0  0
 16  5  1  0  0  0
  5  7  1  0  0  0
  2  7  1  0  0  0
  2  6  1  0  0  0
  4  6  2  0  0  0
  4 10  1  0  0  0
  7 12  1  0  0  0
  8 13  1  0  0  0
 10 14  1  0  0  0
 10 15  1  0  0  0
 20 21  1  0  0  0
M  END
> <minimizedAffinity>
-6.28058

$$$$
5U0Y_7PJ_A_301


 21 22  0  0  0  0  0  0  0  0999 V2000
    6.1464   -2.9368   25.5936 C   0  0  0  0  0  0  0  0  0  0  0  0
    5.0308   -3.6705   25.2786 C   0  0  0  0  0  0  0  0  0  0  0  0
    6.5417   -1.9135   24.7758 C   0  0  0  0  0  0  0  0  0  0  0  0
    4.7503   -2.4410   23.4185 C   0  0  0  0  0  0  0  0  0  0  0  0
    5.7608   -4.4821   27.0889 C   0  0  0  0  0  0  0  0  0  0  0  0
    4.2988   -3.4475   24.1758 N   0  0  0  0  0  0  0  0  0  0  0  0
    4.7929   -4.6299   26.2163 N   0  0  0  0  0  0  0  0  0  0  0  0
    5.8258   -1.6740   23.6717 N   0  0  0  0  0  0  0  0  0  0  0  0
    6.6081   -3.4618   26.7640 N   0  0  0  0  0  0  0  0  0  0  0  0
    4.0174   -2.1850   22.2554 N   0  0  0  0  0  0  0  0  0  0  0  0
    7.6393   -1.1646   25.0310 O   0  0  0  0  0  0  0  0  0  0  0  0
    4.0595   -5.2864   26.2347 H   0  0  0  0  0  0  0  0  0  0  0  0
    6.0814   -0.9498   23.0557 H   0  0  0  0  0  0  0  0  0  0  0  0
    4.2922   -1.4586   21.6503 H   0  0  0  0  0  0  0  0  0  0  0  0
    3.2268   -2.7312   22.0416 H   0  0  0  0  0  0  0  0  0  0  0  0
    5.9580   -5.4707   28.5175 S   0  0  0  0  0  0  0  0  0  0  0  0
    6.8516   -6.9841   28.0120 C   0  0  0  0  0  0  0  0  0  0  0  0
    8.3969   -6.9059   28.1598 C   0  0  0  0  0  0  0  0  0  0  0  0
    8.7847   -5.7183   28.3677 O   0  0  0  0  0  0  0  0  0  0  0  0
    9.1270   -7.9377   28.0910 O   0  0  0  0  0  0  0  0  0  0  0  0
    8.7397   -8.7760   27.9324 H   0  0  0  0  0  0  0  0  0  0  0  0
 19 18  2  0  0  0
 18 20  1  0  0  0
 18 17  1  0  0  0
 11  3  2  0  0  0
 17 16  1  0  0  0
  3  1  1  0  0  0
  3  8  1  0  0  0
  9  1  1  0  0  0
  9  5  2  0  0  0
  1  2  2  0  0  0
  8  4  1  0  0  0
 16  5  1  0  0  0
  5  7  1  0  0  0
  2  7  1  0  0  0
  2  6  1  0  0  0
  4  6  2  0  0  0
  4 10  1  0  0  0
  7 12  1  0  0  0
  8 13  1  0  0  0
 10 14  1  0  0  0
 10 15  1  0  0  0
 20 21  1  0  0  0
M  END
> <minimizedAffinity>
-6.25152

$$$$
5U0Y_7PJ_A_301


 21 22  0  0  0  0  0  0  0  0999 V2000
    6.1980   -6.3323   26.8698 C   0  0  0  0  0  0  0  0  0  0  0  0
    5.2174   -5.3752   26.9379 C   0  0  0  0  0  0  0  0  0  0  0  0
    7.0691   -6.4904   27.9130 C   0  0  0  0  0  0  0  0  0  0  0  0
    5.9661   -4.7561   28.9644 C   0  0  0  0  0  0  0  0  0  0  0  0
    4.9596   -6.3308   25.0700 C   0  0  0  0  0  0  0  0  0  0  0  0
    5.0736   -4.5521   27.9885 N   0  0  0  0  0  0  0  0  0  0  0  0
    4.4460   -5.3814   25.8150 N   0  0  0  0  0  0  0  0  0  0  0  0
    6.9429   -5.6807   28.9701 N   0  0  0  0  0  0  0  0  0  0  0  0
    6.0221   -6.9476   25.6659 N   0  0  0  0  0  0  0  0  0  0  0  0
    5.8527   -3.9103   30.0723 N   0  0  0  0  0  0  0  0  0  0  0  0
    8.0616   -7.4097   27.8954 O   0  0  0  0  0  0  0  0  0  0  0  0
    3.6762   -4.8033   25.6090 H   0  0  0  0  0  0  0  0  0  0  0  0
    7.5536   -5.7600   29.7382 H   0  0  0  0  0  0  0  0  0  0  0  0
    6.4762   -4.0034   30.8284 H   0  0  0  0  0  0  0  0  0  0  0  0
    5.1493   -3.2219   30.0961 H   0  0  0  0  0  0  0  0  0  0  0  0
    4.3610   -6.7735   23.4879 S   0  0  0  0  0  0  0  0  0  0  0  0
    5.0115   -5.5466   22.2979 C   0  0  0  0  0  0  0  0  0  0  0  0
    6.4497   -5.0432   22.6049 C   0  0  0  0  0  0  0  0  0  0  0  0
    6.5891   -3.8211   22.3032 O   0  0  0  0  0  0  0  0  0  0  0  0
    7.3279   -5.8008   23.1120 O   0  0  0  0  0  0  0  0  0  0  0  0
    7.1232   -6.6958   23.2989 H   0  0  0  0  0  0  0  0  0  0  0  0
 19 18  2  0  0  0
 18 20  1  0  0  0
 18 17  1  0  0  0
 11  3  2  0  0  0
 17 16  1  0  0  0
  3  1  1  0  0  0
  3  8  1  0  0  0
  9  1  1  0  0  0
  9  5  2  0  0  0
  1  2  2  0  0  0
  8  4  1  0  0  0
 16  5  1  0  0  0
  5  7  1  0  0  0
  2  7  1  0  0  0
  2  6  1  0  0  0
  4  6  2  0  0  0
  4 10  1  0  0  0
  7 12  1  0  0  0
  8 13  1  0  0  0
 10 14  1  0  0  0
 10 15  1  0  0  0
 20 21  1  0  0  0
M  END
> <minimizedAffinity>
-6.17808

$$$$
5U0Y_7PJ_A_301


 21 22  0  0  0  0  0  0  0  0999 V2000
    4.8151   -3.7060   24.2101 C   0  0  0  0  0  0  0  0  0  0  0  0
    5.8154   -4.6294   24.0391 C   0  0  0  0  0  0  0  0  0  0  0  0
    4.4723   -2.8746   23.1789 C   0  0  0  0  0  0  0  0  0  0  0  0
    6.1253   -3.9006   21.9359 C   0  0  0  0  0  0  0  0  0  0  0  0
    5.1216   -4.8926   26.0185 C   0  0  0  0  0  0  0  0  0  0  0  0
    6.5063   -4.7524   22.8949 N   0  0  0  0  0  0  0  0  0  0  0  0
    5.9994   -5.3689   25.1684 N   0  0  0  0  0  0  0  0  0  0  0  0
    5.1481   -2.9811   22.0295 N   0  0  0  0  0  0  0  0  0  0  0  0
    4.3692   -3.8853   25.4859 N   0  0  0  0  0  0  0  0  0  0  0  0
    6.8295   -3.9936   20.7314 N   0  0  0  0  0  0  0  0  0  0  0  0
    3.5024   -1.9384   23.2946 O   0  0  0  0  0  0  0  0  0  0  0  0
    6.6459   -6.0971   25.3136 H   0  0  0  0  0  0  0  0  0  0  0  0
    4.9343   -2.3973   21.2662 H   0  0  0  0  0  0  0  0  0  0  0  0
    6.6029   -3.3975   19.9814 H   0  0  0  0  0  0  0  0  0  0  0  0
    7.5521   -4.6551   20.6335 H   0  0  0  0  0  0  0  0  0  0  0  0
    4.9208   -5.4733   27.6556 S   0  0  0  0  0  0  0  0  0  0  0  0
    6.4852   -5.1453   28.5442 C   0  0  0  0  0  0  0  0  0  0  0  0
    7.6522   -6.1055   28.1807 C   0  0  0  0  0  0  0  0  0  0  0  0
    7.2262   -7.1812   27.6656 O   0  0  0  0  0  0  0  0  0  0  0  0
    8.8621   -5.7907   28.3797 O   0  0  0  0  0  0  0  0  0  0  0  0
    9.0734   -4.9654   28.7698 H   0  0  0  0  0  0  0  0  0  0  0  0
 19 18  2  0  0  0
 18 20  1  0  0  0
 18 17  1  0  0  0
 11  3  2  0  0  0
 17 16  1  0  0  0
  3  1  1  0  0  0
  3  8  1  0  0  0
  9  1  1  0  0  0
  9  5  2  0  0  0
  1  2  2  0  0  0
  8  4  1  0  0  0
 16  5  1  0  0  0
  5  7  1  0  0  0
  2  7  1  0  0  0
  2  6  1  0  0  0
  4  6  2  0  0  0
  4 10  1  0  0  0
  7 12  1  0  0  0
  8 13  1  0  0  0
 10 14  1  0  0  0
 10 15  1  0  0  0
 20 21  1  0  0  0
M  END
> <minimizedAffinity>
-6.16380

$$$$
5U0Y_7PJ_A_301


 21 22  0  0  0  0  0  0  0  0999 V2000
    6.2226   -2.6769   25.3421 C   0  0  0  0  0  0  0  0  0  0  0  0
    6.7570   -2.7625   26.6028 C   0  0  0  0  0  0  0  0  0  0  0  0
    5.2184   -3.5281   24.9690 C   0  0  0  0  0  0  0  0  0  0  0  0
    5.3779   -4.4746   27.0686 C   0  0  0  0  0  0  0  0  0  0  0  0
    7.7884   -1.1842   25.6467 C   0  0  0  0  0  0  0  0  0  0  0  0
    6.3530   -3.6696   27.5060 N   0  0  0  0  0  0  0  0  0  0  0  0
    7.7299   -1.8269   26.7885 N   0  0  0  0  0  0  0  0  0  0  0  0
    4.8005   -4.4394   25.8543 N   0  0  0  0  0  0  0  0  0  0  0  0
    6.8881   -1.6542   24.7339 N   0  0  0  0  0  0  0  0  0  0  0  0
    4.9373   -5.4392   27.9801 N   0  0  0  0  0  0  0  0  0  0  0  0
    4.6624   -3.4964   23.7359 O   0  0  0  0  0  0  0  0  0  0  0  0
    8.2680   -1.6689   27.5976 H   0  0  0  0  0  0  0  0  0  0  0  0
    4.0837   -5.0728   25.6214 H   0  0  0  0  0  0  0  0  0  0  0  0
    4.2219   -6.0661   27.7261 H   0  0  0  0  0  0  0  0  0  0  0  0
    5.3424   -5.4915   28.8758 H   0  0  0  0  0  0  0  0  0  0  0  0
    8.8885    0.1334   25.3137 S   0  0  0  0  0  0  0  0  0  0  0  0
    9.3440    0.0274   23.5457 C   0  0  0  0  0  0  0  0  0  0  0  0
   10.3320    1.1257   23.0626 C   0  0  0  0  0  0  0  0  0  0  0  0
   11.5139    0.8930   23.4538 O   0  0  0  0  0  0  0  0  0  0  0  0
    9.9501    2.1008   22.3514 O   0  0  0  0  0  0  0  0  0  0  0  0
    9.0472    2.1829   22.1147 H   0  0  0  0  0  0  0  0  0  0  0  0
 19 18  2  0  0  0
 18 20  1  0  0  0
 18 17  1  0  0  0
 11  3  2  0  0  0
 17 16  1  0  0  0
  3  1  1  0  0  0
  3  8  1  0  0  0
  9  1  1  0  0  0
  9  5  2  0  0  0
  1  2  2  0  0  0
  8  4  1  0  0  0
 16  5  1  0  0  0
  5  7  1  0  0  0
  2  7  1  0  0  0
  2  6  1  0  0  0
  4  6  2  0  0  0
  4 10  1  0  0  0
  7 12  1  0  0  0
  8 13  1  0  0  0
 10 14  1  0  0  0
 10 15  1  0  0  0
 20 21  1  0  0  0
M  END
> <minimizedAffinity>
-6.14400

$$$$
5U0Y_7PJ_A_301


 21 22  0  0  0  0  0  0  0  0999 V2000
    4.3667   -5.8117   26.4148 C   0  0  0  0  0  0  0  0  0  0  0  0
    5.4773   -5.0388   26.1879 C   0  0  0  0  0  0  0  0  0  0  0  0
    3.8988   -5.9738   27.6903 C   0  0  0  0  0  0  0  0  0  0  0  0
    5.6511   -4.6455   28.3937 C   0  0  0  0  0  0  0  0  0  0  0  0
    4.8592   -5.7294   24.2880 C   0  0  0  0  0  0  0  0  0  0  0  0
    6.1583   -4.4338   27.1737 N   0  0  0  0  0  0  0  0  0  0  0  0
    5.7773   -4.9878   24.8599 N   0  0  0  0  0  0  0  0  0  0  0  0
    4.5626   -5.3789   28.6875 N   0  0  0  0  0  0  0  0  0  0  0  0
    3.9708   -6.2487   25.1856 N   0  0  0  0  0  0  0  0  0  0  0  0
    6.3403   -4.0376   29.4477 N   0  0  0  0  0  0  0  0  0  0  0  0
    2.8156   -6.7334   27.9738 O   0  0  0  0  0  0  0  0  0  0  0  0
    6.5170   -4.5033   24.4270 H   0  0  0  0  0  0  0  0  0  0  0  0
    4.2600   -5.4760   29.6193 H   0  0  0  0  0  0  0  0  0  0  0  0
    6.0236   -4.1505   30.3730 H   0  0  0  0  0  0  0  0  0  0  0  0
    7.1423   -3.4968   29.2644 H   0  0  0  0  0  0  0  0  0  0  0  0
    4.7657   -6.0283   22.5677 S   0  0  0  0  0  0  0  0  0  0  0  0
    4.7614   -4.4012   21.7329 C   0  0  0  0  0  0  0  0  0  0  0  0
    6.1720   -3.8213   21.4332 C   0  0  0  0  0  0  0  0  0  0  0  0
    6.6744   -3.2681   22.4558 O   0  0  0  0  0  0  0  0  0  0  0  0
    6.7117   -3.9340   20.2937 O   0  0  0  0  0  0  0  0  0  0  0  0
    6.2532   -4.3637   19.5986 H   0  0  0  0  0  0  0  0  0  0  0  0
 19 18  2  0  0  0
 18 20  1  0  0  0
 18 17  1  0  0  0
 11  3  2  0  0  0
 17 16  1  0  0  0
  3  1  1  0  0  0
  3  8  1  0  0  0
  9  1  1  0  0  0
  9  5  2  0  0  0
  1  2  2  0  0  0
  8  4  1  0  0  0
 16  5  1  0  0  0
  5  7  1  0  0  0
  2  7  1  0  0  0
  2  6  1  0  0  0
  4  6  2  0  0  0
  4 10  1  0  0  0
  7 12  1  0  0  0
  8 13  1  0  0  0
 10 14  1  0  0  0
 10 15  1  0  0  0
 20 21  1  0  0  0
M  END
> <minimizedAffinity>
-5.99411

$$$$
5U0Y_7PJ_A_301


 21 22  0  0  0  0  0  0  0  0999 V2000
    6.4919   -1.8579   25.2346 C   0  0  0  0  0  0  0  0  0  0  0  0
    6.7896   -1.5267   23.9369 C   0  0  0  0  0  0  0  0  0  0  0  0
    7.2795   -1.3952   26.2533 C   0  0  0  0  0  0  0  0  0  0  0  0
    8.5779   -0.3651   24.6461 C   0  0  0  0  0  0  0  0  0  0  0  0
    5.0521   -2.7270   23.8402 C   0  0  0  0  0  0  0  0  0  0  0  0
    7.8474   -0.7717   23.6014 N   0  0  0  0  0  0  0  0  0  0  0  0
    5.8864   -2.0680   23.0723 N   0  0  0  0  0  0  0  0  0  0  0  0
    8.3386   -0.6405   25.9407 N   0  0  0  0  0  0  0  0  0  0  0  0
    5.3681   -2.6266   25.1648 N   0  0  0  0  0  0  0  0  0  0  0  0
    9.6944    0.4169   24.3342 N   0  0  0  0  0  0  0  0  0  0  0  0
    7.0400   -1.6991   27.5498 O   0  0  0  0  0  0  0  0  0  0  0  0
    5.8649   -1.9835   22.0917 H   0  0  0  0  0  0  0  0  0  0  0  0
    8.9321   -0.2930   26.6452 H   0  0  0  0  0  0  0  0  0  0  0  0
   10.2777    0.7512   25.0533 H   0  0  0  0  0  0  0  0  0  0  0  0
    9.8971    0.6331   23.3953 H   0  0  0  0  0  0  0  0  0  0  0  0
    3.6798   -3.6362   23.2507 S   0  0  0  0  0  0  0  0  0  0  0  0
    3.7217   -5.2729   24.0655 C   0  0  0  0  0  0  0  0  0  0  0  0
    3.1879   -5.2856   25.5252 C   0  0  0  0  0  0  0  0  0  0  0  0
    3.2683   -6.4401   26.0398 O   0  0  0  0  0  0  0  0  0  0  0  0
    2.7555   -4.2369   26.0869 O   0  0  0  0  0  0  0  0  0  0  0  0
    2.7374   -3.4268   25.6163 H   0  0  0  0  0  0  0  0  0  0  0  0
 19 18  2  0  0  0
 18 20  1  0  0  0
 18 17  1  0  0  0
 11  3  2  0  0  0
 17 16  1  0  0  0
  3  1  1  0  0  0
  3  8  1  0  0  0
  9  1  1  0  0  0
  9  5  2  0  0  0
  1  2  2  0  0  0
  8  4  1  0  0  0
 16  5  1  0  0  0
  5  7  1  0  0  0
  2  7  1  0  0  0
  2  6  1  0  0  0
  4  6  2  0  0  0
  4 10  1  0  0  0
  7 12  1  0  0  0
  8 13  1  0  0  0
 10 14  1  0  0  0
 10 15  1  0  0  0
 20 21  1  0  0  0
M  END
> <minimizedAffinity>
-5.86910

$$$$
5U0Y_7PJ_A_301


 21 22  0  0  0  0  0  0  0  0999 V2000
    4.6928   -4.4328   26.1369 C   0  0  0  0  0  0  0  0  0  0  0  0
    3.6606   -5.3091   26.3584 C   0  0  0  0  0  0  0  0  0  0  0  0
    5.7100   -4.3348   27.0468 C   0  0  0  0  0  0  0  0  0  0  0  0
    4.6028   -5.9234   28.3040 C   0  0  0  0  0  0  0  0  0  0  0  0
    3.2363   -4.3759   24.5096 C   0  0  0  0  0  0  0  0  0  0  0  0
    3.5813   -6.0803   27.4541 N   0  0  0  0  0  0  0  0  0  0  0  0
    2.7577   -5.2722   25.3388 N   0  0  0  0  0  0  0  0  0  0  0  0
    5.6507   -5.0951   28.1457 N   0  0  0  0  0  0  0  0  0  0  0  0
    4.4155   -3.8393   24.9413 N   0  0  0  0  0  0  0  0  0  0  0  0
    4.5496   -6.7047   29.4625 N   0  0  0  0  0  0  0  0  0  0  0  0
    6.7466   -3.4804   26.8856 O   0  0  0  0  0  0  0  0  0  0  0  0
    1.9317   -5.7997   25.2455 H   0  0  0  0  0  0  0  0  0  0  0  0
    6.3608   -5.0493   28.8260 H   0  0  0  0  0  0  0  0  0  0  0  0
    5.2680   -6.6410   30.1326 H   0  0  0  0  0  0  0  0  0  0  0  0
    3.7938   -7.3186   29.6079 H   0  0  0  0  0  0  0  0  0  0  0  0
    2.4653   -3.9096   23.0112 S   0  0  0  0  0  0  0  0  0  0  0  0
    3.7194   -3.0418   22.0018 C   0  0  0  0  0  0  0  0  0  0  0  0
    3.8307   -1.5158   22.2753 C   0  0  0  0  0  0  0  0  0  0  0  0
    3.6546   -0.8398   21.2189 O   0  0  0  0  0  0  0  0  0  0  0  0
    4.0524   -1.0601   23.4353 O   0  0  0  0  0  0  0  0  0  0  0  0
    4.1694   -1.6482   24.1553 H   0  0  0  0  0  0  0  0  0  0  0  0
 19 18  2  0  0  0
 18 20  1  0  0  0
 18 17  1  0  0  0
 11  3  2  0  0  0
 17 16  1  0  0  0
  3  1  1  0  0  0
  3  8  1  0  0  0
  9  1  1  0  0  0
  9  5  2  0  0  0
  1  2  2  0  0  0
  8  4  1  0  0  0
 16  5  1  0  0  0
  5  7  1  0  0  0
  2  7  1  0  0  0
  2  6  1  0  0  0
  4  6  2  0  0  0
  4 10  1  0  0  0
  7 12  1  0  0  0
  8 13  1  0  0  0
 10 14  1  0  0  0
 10 15  1  0  0  0
 20 21  1  0  0  0
M  END
> <minimizedAffinity>
-5.85024

$$$$
