3FVK_8DX_A_1


 24 25  0  0  0  0  0  0  0  0999 V2000
   -7.3840   15.4900   20.3378 C   0  0  0  0  0  0  0  0  0  0  0  0
   -7.5457   15.4870   21.8590 C   0  0  0  0  0  0  0  0  0  0  0  0
   -8.1444   14.3742   19.8467 O   0  0  0  0  0  0  0  0  0  0  0  0
   -8.4367   13.4888   20.9168 C   0  0  0  0  0  0  0  0  0  0  0  0
   -8.5659   14.4012   22.1228 C   0  0  0  0  0  0  0  0  0  0  0  0
   -9.6817   12.6632   20.5799 C   0  0  0  0  0  0  0  0  0  0  0  0
  -10.9576   13.4883   20.6964 C   0  0  0  0  0  0  0  0  0  0  0  0
  -10.9742   14.5543   19.7390 O   0  0  0  0  0  0  0  0  0  0  0  0
  -10.9640   14.0991   22.0861 C   0  0  0  0  0  0  0  0  0  0  0  0
   -9.8630   15.0078   22.1864 O   0  0  0  0  0  0  0  0  0  0  0  0
  -10.2090   15.1322   19.8853 H   0  0  0  0  0  0  0  0  0  0  0  0
   -7.9843   16.7665   19.7758 C   0  0  0  0  0  0  0  0  0  0  0  0
   -9.2385   16.8613   19.7444 O   0  0  0  0  0  0  0  0  0  0  0  0
   -7.2084   17.6579   19.3638 O   0  0  0  0  0  0  0  0  0  0  0  0
   -9.7695   16.1602   20.0677 H   0  0  0  0  0  0  0  0  0  0  0  0
   -5.9263   15.2793   19.9261 C   0  0  0  0  0  0  0  0  0  0  0  0
   -5.7267   14.9091   18.4451 C   0  0  0  0  0  0  0  0  0  0  0  0
   -6.1204   13.5333   18.1337 N   0  0  0  0  0  0  0  0  0  0  0  0
   -5.5468   12.8852   18.6734 H   0  0  0  0  0  0  0  0  0  0  0  0
   -5.9858   13.3583   17.1379 H   0  0  0  0  0  0  0  0  0  0  0  0
   -3.7640   16.1842   18.4088 O   0  0  0  0  0  0  0  0  0  0  0  0
   -4.2672   15.0794   18.1248 C   0  0  0  0  0  0  0  0  0  0  0  0
   -3.6226   14.1538   17.5766 O   0  0  0  0  0  0  0  0  0  0  0  0
   -4.0447   13.3401   17.3824 H   0  0  0  0  0  0  0  0  0  0  0  0
 21 22  2  0  0  0
 22 23  1  0  0  0
 22 17  1  0  0  0
 17 18  1  0  0  0
 17 16  1  0  0  0
 16  1  1  0  0  0
  1  2  1  0  0  0
  1 12  1  0  0  0
  1  3  1  0  0  0
  2  5  1  0  0  0
 12 13  1  0  0  0
 12 14  2  0  0  0
  3  4  1  0  0  0
  4  5  1  0  0  0
  4  6  1  0  0  0
  5 10  1  0  0  0
  6  7  1  0  0  0
  7  8  1  0  0  0
  7  9  1  0  0  0
  9 10  1  0  0  0
 23 24  1  0  0  0
 18 19  1  0  0  0
 18 20  1  0  0  0
 13 15  1  0  0  0
  8 11  1  0  0  0
M  END
> <minimizedAffinity>
-10.19790

$$$$
