5HTL_C2E_A_201


 56 62  0  0  0  0  0  0  0  0999 V2000
   -1.1749  -15.6293   -9.8742 P   0  0  0  0  0  0  0  0  0  0  0  0
   -2.0351  -14.5085  -10.4047 O   0  0  0  0  0  0  0  0  0  0  0  0
   -1.8277  -16.3697   -8.7260 O   0  0  0  0  0  0  0  0  0  0  0  0
   -0.8641  -16.6109  -11.0727 O   0  0  0  0  0  0  0  0  0  0  0  0
    0.0187  -17.6976  -11.0362 C   0  0  0  0  0  0  0  0  0  0  0  0
    0.3175  -18.2794  -12.3403 C   0  0  0  0  0  0  0  0  0  0  0  0
   -0.8353  -18.7987  -12.9301 O   0  0  0  0  0  0  0  0  0  0  0  0
    0.8418  -17.2527  -13.3059 C   0  0  0  0  0  0  0  0  0  0  0  0
    2.2490  -17.2467  -13.2880 O   0  0  0  0  0  0  0  0  0  0  0  0
    0.2739  -17.6057  -14.5305 C   0  0  0  0  0  0  0  0  0  0  0  0
    1.1777  -18.4470  -15.2787 O   0  0  0  0  0  0  0  0  0  0  0  0
   -0.9896  -18.3242  -14.2354 C   0  0  0  0  0  0  0  0  0  0  0  0
    3.0679  -15.8890  -13.4387 P   0  0  0  0  0  0  0  0  0  0  0  0
    4.5500  -16.1895  -13.5882 O   0  0  0  0  0  0  0  0  0  0  0  0
    2.5916  -15.2149  -14.6923 O   0  0  0  0  0  0  0  0  0  0  0  0
    2.7578  -14.8973  -12.2742 O   0  0  0  0  0  0  0  0  0  0  0  0
    3.0759  -15.2025  -10.9260 C   0  0  0  0  0  0  0  0  0  0  0  0
    2.4429  -14.3801   -9.9271 C   0  0  0  0  0  0  0  0  0  0  0  0
    2.9676  -13.0093   -9.9984 O   0  0  0  0  0  0  0  0  0  0  0  0
    0.9863  -14.2287  -10.1368 C   0  0  0  0  0  0  0  0  0  0  0  0
    0.2032  -15.0804   -9.3246 O   0  0  0  0  0  0  0  0  0  0  0  0
    0.6845  -12.8118   -9.8528 C   0  0  0  0  0  0  0  0  0  0  0  0
    0.3734  -12.5644   -8.5401 O   0  0  0  0  0  0  0  0  0  0  0  0
    1.9325  -12.0705  -10.1739 C   0  0  0  0  0  0  0  0  0  0  0  0
   -2.8720  -14.8716  -10.7346 H   0  0  0  0  0  0  0  0  0  0  0  0
    1.3747  -19.2464  -14.7658 H   0  0  0  0  0  0  0  0  0  0  0  0
    4.8740  -16.6261  -12.7849 H   0  0  0  0  0  0  0  0  0  0  0  0
    1.1223  -12.8162   -7.9774 H   0  0  0  0  0  0  0  0  0  0  0  0
   -2.1105  -17.4353  -14.2438 N   0  0  0  0  0  0  0  0  0  0  0  0
   -2.4258  -16.2345  -13.7667 C   0  0  0  0  0  0  0  0  0  0  0  0
   -3.6980  -16.0115  -14.1197 N   0  0  0  0  0  0  0  0  0  0  0  0
   -4.1683  -17.0883  -14.8171 C   0  0  0  0  0  0  0  0  0  0  0  0
   -5.4176  -17.3531  -15.3901 C   0  0  0  0  0  0  0  0  0  0  0  0
   -6.4151  -16.4498  -15.3145 O   0  0  0  0  0  0  0  0  0  0  0  0
   -5.6078  -18.5133  -16.0298 N   0  0  0  0  0  0  0  0  0  0  0  0
   -4.6177  -19.4070  -16.1003 C   0  0  0  0  0  0  0  0  0  0  0  0
   -4.8841  -20.6268  -16.7974 N   0  0  0  0  0  0  0  0  0  0  0  0
   -3.3963  -19.2016  -15.5603 N   0  0  0  0  0  0  0  0  0  0  0  0
   -3.1343  -18.0464  -14.9088 C   0  0  0  0  0  0  0  0  0  0  0  0
   -6.4774  -18.7080  -16.4483 H   0  0  0  0  0  0  0  0  0  0  0  0
   -5.7717  -20.7836  -17.1935 H   0  0  0  0  0  0  0  0  0  0  0  0
   -4.1800  -21.3097  -16.8812 H   0  0  0  0  0  0  0  0  0  0  0  0
    2.0971  -11.5396  -11.5205 N   0  0  0  0  0  0  0  0  0  0  0  0
    1.5420  -11.9627  -12.6732 C   0  0  0  0  0  0  0  0  0  0  0  0
    1.9970  -11.2140  -13.6932 N   0  0  0  0  0  0  0  0  0  0  0  0
    2.8645  -10.3029  -13.1908 C   0  0  0  0  0  0  0  0  0  0  0  0
    3.6539   -9.2773  -13.7226 C   0  0  0  0  0  0  0  0  0  0  0  0
    3.6726   -8.9937  -15.0774 O   0  0  0  0  0  0  0  0  0  0  0  0
    4.4151   -8.5480  -12.9086 N   0  0  0  0  0  0  0  0  0  0  0  0
    4.4394   -8.7821  -11.6002 C   0  0  0  0  0  0  0  0  0  0  0  0
    5.2728   -7.9509  -10.8277 N   0  0  0  0  0  0  0  0  0  0  0  0
    3.7126   -9.7551  -11.0371 N   0  0  0  0  0  0  0  0  0  0  0  0
    2.9242  -10.5210  -11.8210 C   0  0  0  0  0  0  0  0  0  0  0  0
    4.9684   -7.8242  -13.2817 H   0  0  0  0  0  0  0  0  0  0  0  0
    5.7991   -7.2412  -11.2620 H   0  0  0  0  0  0  0  0  0  0  0  0
    5.3294   -8.0795   -9.8533 H   0  0  0  0  0  0  0  0  0  0  0  0
  1  2  1  0  0  0
  3  1  2  0  0  0
  4  1  1  0  0  0
  5  4  1  0  0  0
  6  7  1  0  0  0
  6  5  1  0  0  0
  8  6  1  0  0  0
  9 13  1  0  0  0
  9  8  1  0  0  0
 10  8  1  0  0  0
 10 12  1  0  0  0
 11 10  1  0  0  0
 12  7  1  0  0  0
 12 29  1  0  0  0
 29 39  1  0  0  0
 29 30  1  0  0  0
 30 31  2  0  0  0
 32 31  1  0  0  0
 32 33  1  0  0  0
 33 34  2  0  0  0
 35 33  1  0  0  0
 36 35  1  0  0  0
 37 36  1  0  0  0
 38 36  2  0  0  0
 38 39  1  0  0  0
 39 32  2  0  0  0
 13 14  1  0  0  0
 13 16  1  0  0  0
 15 13  2  0  0  0
 17 16  1  0  0  0
 17 18  1  0  0  0
 18 19  1  0  0  0
 18 20  1  0  0  0
 19 24  1  0  0  0
 20 22  1  0  0  0
 21 20  1  0  0  0
 21  1  1  0  0  0
 22 23  1  0  0  0
 24 22  1  0  0  0
 24 43  1  0  0  0
 43 53  1  0  0  0
 44 45  2  0  0  0
 44 43  1  0  0  0
 45 46  1  0  0  0
 46 53  2  0  0  0
 46 47  1  0  0  0
 47 48  2  0  0  0
 47 49  1  0  0  0
 50 49  1  0  0  0
 50 51  1  0  0  0
 52 50  2  0  0  0
 53 52  1  0  0  0
  2 25  1  0  0  0
 11 26  1  0  0  0
 35 40  1  0  0  0
 37 41  1  0  0  0
 37 42  1  0  0  0
 14 27  1  0  0  0
 23 28  1  0  0  0
 49 54  1  0  0  0
 51 55  1  0  0  0
 51 56  1  0  0  0
M  END
> <minimizedAffinity>
-13.64247

$$$$
5HTL_C2E_A_201


 56 62  0  0  0  0  0  0  0  0999 V2000
    3.1604  -15.9719  -13.5589 P   0  0  0  0  0  0  0  0  0  0  0  0
    2.6461  -15.3453  -14.8318 O   0  0  0  0  0  0  0  0  0  0  0  0
    4.6401  -16.2867  -13.6225 O   0  0  0  0  0  0  0  0  0  0  0  0
    2.8466  -14.9805  -12.3692 O   0  0  0  0  0  0  0  0  0  0  0  0
    3.0308  -15.2483  -11.0068 C   0  0  0  0  0  0  0  0  0  0  0  0
    2.4248  -14.2702  -10.1099 C   0  0  0  0  0  0  0  0  0  0  0  0
    2.9960  -13.0098  -10.2879 O   0  0  0  0  0  0  0  0  0  0  0  0
    0.9564  -14.0938  -10.3818 C   0  0  0  0  0  0  0  0  0  0  0  0
    0.2046  -14.9316   -9.5372 O   0  0  0  0  0  0  0  0  0  0  0  0
    0.7315  -12.7285  -10.2022 C   0  0  0  0  0  0  0  0  0  0  0  0
    0.2869  -12.4664   -8.8538 O   0  0  0  0  0  0  0  0  0  0  0  0
    2.0133  -12.0346  -10.4768 C   0  0  0  0  0  0  0  0  0  0  0  0
   -1.1258  -15.6395  -10.0528 P   0  0  0  0  0  0  0  0  0  0  0  0
   -1.8390  -16.3142   -8.8930 O   0  0  0  0  0  0  0  0  0  0  0  0
   -2.0210  -14.5666  -10.6008 O   0  0  0  0  0  0  0  0  0  0  0  0
   -0.8388  -16.6077  -11.2428 O   0  0  0  0  0  0  0  0  0  0  0  0
   -0.0178  -17.7548  -11.0935 C   0  0  0  0  0  0  0  0  0  0  0  0
    0.4429  -18.3635  -12.3150 C   0  0  0  0  0  0  0  0  0  0  0  0
   -0.6885  -18.9639  -13.0353 O   0  0  0  0  0  0  0  0  0  0  0  0
    1.0133  -17.3890  -13.2708 C   0  0  0  0  0  0  0  0  0  0  0  0
    2.4260  -17.3405  -13.2586 O   0  0  0  0  0  0  0  0  0  0  0  0
    0.5149  -17.7917  -14.6008 C   0  0  0  0  0  0  0  0  0  0  0  0
    1.3292  -18.6842  -15.2501 O   0  0  0  0  0  0  0  0  0  0  0  0
   -0.7875  -18.4624  -14.3477 C   0  0  0  0  0  0  0  0  0  0  0  0
    3.1118  -14.5097  -14.9920 H   0  0  0  0  0  0  0  0  0  0  0  0
    0.9597  -12.7734   -8.2261 H   0  0  0  0  0  0  0  0  0  0  0  0
   -1.2728  -17.0115   -8.5268 H   0  0  0  0  0  0  0  0  0  0  0  0
    1.4126  -19.4915  -14.7189 H   0  0  0  0  0  0  0  0  0  0  0  0
    2.0906  -11.5990  -11.8373 N   0  0  0  0  0  0  0  0  0  0  0  0
    1.6128  -11.9654  -13.0232 C   0  0  0  0  0  0  0  0  0  0  0  0
    2.1318  -11.1144  -13.9172 N   0  0  0  0  0  0  0  0  0  0  0  0
    2.9389  -10.2196  -13.2731 C   0  0  0  0  0  0  0  0  0  0  0  0
    3.7088   -9.1510  -13.7469 C   0  0  0  0  0  0  0  0  0  0  0  0
    3.7278   -8.8449  -15.0595 O   0  0  0  0  0  0  0  0  0  0  0  0
    4.4187   -8.4234  -12.8762 N   0  0  0  0  0  0  0  0  0  0  0  0
    4.3993   -8.7315  -11.5767 C   0  0  0  0  0  0  0  0  0  0  0  0
    5.1787   -7.9159  -10.6981 N   0  0  0  0  0  0  0  0  0  0  0  0
    3.6770   -9.7549  -11.0700 N   0  0  0  0  0  0  0  0  0  0  0  0
    2.9297  -10.5236  -11.8936 C   0  0  0  0  0  0  0  0  0  0  0  0
    4.9550   -7.6612  -13.1935 H   0  0  0  0  0  0  0  0  0  0  0  0
    5.7076   -7.1685  -11.0599 H   0  0  0  0  0  0  0  0  0  0  0  0
    5.1865   -8.1018   -9.7313 H   0  0  0  0  0  0  0  0  0  0  0  0
   -2.0004  -17.6560  -14.3781 N   0  0  0  0  0  0  0  0  0  0  0  0
   -2.2287  -16.4456  -13.8317 C   0  0  0  0  0  0  0  0  0  0  0  0
   -3.5018  -16.0801  -14.0632 N   0  0  0  0  0  0  0  0  0  0  0  0
   -4.1036  -17.0737  -14.7600 C   0  0  0  0  0  0  0  0  0  0  0  0
   -5.3837  -17.2944  -15.2801 C   0  0  0  0  0  0  0  0  0  0  0  0
   -6.4050  -16.3719  -15.1309 O   0  0  0  0  0  0  0  0  0  0  0  0
   -5.6371  -18.4243  -15.9381 N   0  0  0  0  0  0  0  0  0  0  0  0
   -4.6944  -19.3466  -16.1046 C   0  0  0  0  0  0  0  0  0  0  0  0
   -5.0637  -20.5019  -16.8196 N   0  0  0  0  0  0  0  0  0  0  0  0
   -3.4552  -19.1938  -15.6217 N   0  0  0  0  0  0  0  0  0  0  0  0
   -3.1494  -18.0646  -14.9480 C   0  0  0  0  0  0  0  0  0  0  0  0
   -6.5367  -18.5789  -16.3069 H   0  0  0  0  0  0  0  0  0  0  0  0
   -5.9805  -20.5941  -17.1663 H   0  0  0  0  0  0  0  0  0  0  0  0
   -4.4052  -21.2175  -16.9729 H   0  0  0  0  0  0  0  0  0  0  0  0
  1  2  1  0  0  0
  3  1  2  0  0  0
  4  1  1  0  0  0
  5  4  1  0  0  0
  6  7  1  0  0  0
  6  5  1  0  0  0
  8  6  1  0  0  0
  9 13  1  0  0  0
  9  8  1  0  0  0
 10  8  1  0  0  0
 10 12  1  0  0  0
 11 10  1  0  0  0
 12  7  1  0  0  0
 12 29  1  0  0  0
 29 39  1  0  0  0
 29 30  1  0  0  0
 30 31  2  0  0  0
 32 31  1  0  0  0
 32 33  1  0  0  0
 33 34  2  0  0  0
 35 33  1  0  0  0
 36 35  1  0  0  0
 37 36  1  0  0  0
 38 36  2  0  0  0
 38 39  1  0  0  0
 39 32  2  0  0  0
 13 14  1  0  0  0
 13 16  1  0  0  0
 15 13  2  0  0  0
 17 16  1  0  0  0
 17 18  1  0  0  0
 18 19  1  0  0  0
 18 20  1  0  0  0
 19 24  1  0  0  0
 20 22  1  0  0  0
 21 20  1  0  0  0
 21  1  1  0  0  0
 22 23  1  0  0  0
 24 22  1  0  0  0
 24 43  1  0  0  0
 43 53  1  0  0  0
 44 45  2  0  0  0
 44 43  1  0  0  0
 45 46  1  0  0  0
 46 53  2  0  0  0
 46 47  1  0  0  0
 47 48  2  0  0  0
 47 49  1  0  0  0
 50 49  1  0  0  0
 50 51  1  0  0  0
 52 50  2  0  0  0
 53 52  1  0  0  0
  2 25  1  0  0  0
 11 26  1  0  0  0
 35 40  1  0  0  0
 37 41  1  0  0  0
 37 42  1  0  0  0
 14 27  1  0  0  0
 23 28  1  0  0  0
 49 54  1  0  0  0
 51 55  1  0  0  0
 51 56  1  0  0  0
M  END
> <minimizedAffinity>
-12.93843

$$$$
