1MFI_FHC_A_115
  RCSB PDB12061703173D
Coordinates from PDB:1MFI:A:115 Model:1 without hydrogens
 13 13  0  0  0  0            999 V2000
   -9.1690   28.4400   13.5290   C 0  0  0  0  0  0  0  0  0  0  0  0
  -10.0220   29.1530   14.5370   C 0  0  0  0  0  0  0  0  0  0  0  0
  -10.8670   28.6340   15.4980   C 0  0  0  0  0  0  0  0  0  0  0  0
  -11.2050   27.1660   15.6600   C 0  0  0  0  0  0  0  0  0  0  0  0
  -11.2630   26.7520   16.8610   O 0  0  0  0  0  0  0  0  0  0  0  0
  -11.4930   26.4520   14.6570   O 0  5  0  0  0  0  0  0  0  0  0  0
  -11.5110   29.5480   16.3560   F 0  0  0  0  0  0  0  0  0  0  0  0
   -9.0370   27.0470   13.4410   C 0  0  0  0  0  0  0  0  0  0  0  0
   -8.1620   26.4570   12.4720   C 0  0  0  0  0  0  0  0  0  0  0  0
   -7.4150   27.3030   11.6460   C 0  0  0  0  0  0  0  0  0  0  0  0
   -6.5100   26.8660   10.6920   O 0  0  0  0  0  0  0  0  0  0  0  0
   -7.5760   28.6600   11.7280   C 0  0  0  0  0  0  0  0  0  0  0  0
   -8.4110   29.2120   12.6600   C 0  0  0  0  0  0  0  0  0  0  0  0
  1  2  1  0  0  0  0
  1  8  1  0  0  0  0
  1 13  2  0  0  0  0
  2  3  2  0  0  0  0
  3  4  1  0  0  0  0
  3  7  1  0  0  0  0
  4  5  2  0  0  0  0
  4  6  1  0  0  0  0
  8  9  2  0  0  0  0
  9 10  1  0  0  0  0
 10 11  1  0  0  0  0
 10 12  2  0  0  0  0
 12 13  1  0  0  0  0
M  CHG  1   6  -1
A    1
C1
A    2
C7
A    3
C8
A    4
C9
A    5
O3
A    6
O2
A    7
F1
A    8
C6
A    9
C5
A   10
C4
A   11
O1
A   12
C3
A   13
C2
M  END
>  <InstanceId>
1MFI_FHC_A_115

>  <ChemCompId>
FHC

>  <PdbId>
1MFI

>  <ChainId>
A

>  <ResidueNumber>
115

>  <InsertionCode>


>  <Model>
1

>  <AltIds>


>  <MissingHeavyAtoms>
0

>  <ObservedFormula>
C9 O3 F

>  <Name>
2-FLUORO-3-(4-HYDROXYPHENYL)-2E-PROPENEOATE

>  <SystematicName>
(E)-2-fluoro-3-(4-hydroxyphenyl)prop-2-enoate

>  <Synonyms>
(E)-2-FLUORO-P-HYDROXYCINNAMATE

>  <Type>
NON-POLYMER

>  <Formula>
C9 H6 F O3

>  <MolecularWeight>
181.141

>  <ModifiedDate>
2011-06-04

>  <Parent>


>  <OneLetterCode>


>  <SubcomponentList>


>  <AmbiguousFlag>
N

>  <InChI>
InChI=1S/C9H7FO3/c10-8(9(12)13)5-6-1-3-7(11)4-2-6/h1-5,11H,(H,12,13)/p-1/b8-5+

>  <InChIKey>
SBIZDOWXYPNTOJ-VMPITWQZSA-M

>  <SMILES>
c1cc(ccc1\C=C(/C(=O)[O-])\F)O

$$$$
