2RKA_PGA_A_623
  RCSB PDB12061706563D
Coordinates from PDB:2RKA:A:623 Model:1 without hydrogens
  9  8  0  0  0  0            999 V2000
   13.1880    3.3870   18.4610   P 0  0  0  0  0  0  0  0  0  0  0  0
   14.0660    4.7340   18.4330   O 0  0  0  0  0  0  0  0  0  0  0  0
   13.5220    2.5810   17.2280   O 0  0  0  0  0  0  0  0  0  0  0  0
   11.7300    3.7740   18.4510   O 0  0  0  0  0  0  0  0  0  0  0  0
   13.4560    2.5720   19.7030   O 0  0  0  0  0  0  0  0  0  0  0  0
   15.2790    4.8540   19.1330   C 0  0  0  0  0  0  0  0  0  0  0  0
   16.3710    5.2120   18.1610   C 0  0  0  0  0  0  0  0  0  0  0  0
   17.3720    4.4820   18.0970   O 0  0  0  0  0  0  0  0  0  0  0  0
   16.2980    6.2190   17.4180   O 0  0  0  0  0  0  0  0  0  0  0  0
  1  2  1  0  0  0  0
  1  3  2  0  0  0  0
  1  4  1  0  0  0  0
  1  5  1  0  0  0  0
  2  6  1  0  0  0  0
  6  7  1  0  0  0  0
  7  8  2  0  0  0  0
  7  9  1  0  0  0  0
A    1
P
A    2
O1P
A    3
O2P
A    4
O3P
A    5
O4P
A    6
C2
A    7
C1
A    8
O1
A    9
O2
M  END
>  <InstanceId>
2RKA_PGA_A_623

>  <ChemCompId>
PGA

>  <PdbId>
2RKA

>  <ChainId>
A

>  <ResidueNumber>
623

>  <InsertionCode>


>  <Model>
1

>  <AltIds>


>  <MissingHeavyAtoms>
0

>  <ObservedFormula>
C2 O6 P

>  <Name>
2-PHOSPHOGLYCOLIC ACID

>  <SystematicName>
2-phosphonooxyethanoic acid

>  <Synonyms>


>  <Type>
NON-POLYMER

>  <Formula>
C2 H5 O6 P

>  <MolecularWeight>
156.031

>  <ModifiedDate>
2011-06-04

>  <Parent>


>  <OneLetterCode>


>  <SubcomponentList>


>  <AmbiguousFlag>
N

>  <InChI>
InChI=1S/C2H5O6P/c3-2(4)1-8-9(5,6)7/h1H2,(H,3,4)(H2,5,6,7)

>  <InChIKey>
ASCFNMCAHFUBCO-UHFFFAOYSA-N

>  <SMILES>
C(C(=O)O)OP(=O)(O)O

$$$$
