2OI0_283_A_1


 21 22  0  0  0  0  0  0  0  0999 V2000
   46.2776   28.5637    2.3038 C   0  0  0  0  0  0  0  0  0  0  0  0
   45.1011   29.2870    1.9480 C   0  0  0  0  0  0  0  0  0  0  0  0
   43.8956   28.1564    3.7055 C   0  0  0  0  0  0  0  0  0  0  0  0
   45.0398   27.4431    4.0544 C   0  0  0  0  0  0  0  0  0  0  0  0
   46.2330   27.6355    3.3698 C   0  0  0  0  0  0  0  0  0  0  0  0
   43.9142   29.0715    2.6677 C   0  0  0  0  0  0  0  0  0  0  0  0
   41.4979   28.8284    2.0880 O   0  0  0  0  0  0  0  0  0  0  0  0
   42.0650   30.8803    3.4024 O   0  0  0  0  0  0  0  0  0  0  0  0
   42.4080   29.9282    2.3453 S   0  0  0  0  0  0  0  0  0  0  0  0
   42.4826   30.4466   -0.4359 C   0  0  0  0  0  0  0  0  0  0  0  0
   42.6014   30.9966    0.9506 N   0  0  0  0  0  0  0  0  0  0  0  0
   41.5888   32.0982    0.9401 C   0  0  0  0  0  0  0  0  0  0  0  0
   40.3352   31.4842    0.3198 C   0  0  0  0  0  0  0  0  0  0  0  0
   38.8669   32.4899    0.2036 S   0  0  0  0  0  0  0  0  0  0  0  0
   41.0769   30.8244   -0.8337 C   0  0  0  0  0  0  0  0  0  0  0  0
   39.1522   33.6316   -0.4782 H   0  0  0  0  0  0  0  0  0  0  0  0
   47.2801   26.8509    3.8513 O   0  0  0  0  0  0  0  0  0  0  0  0
   47.7574   27.0458    5.2085 C   0  0  0  0  0  0  0  0  0  0  0  0
   51.9673   27.3466    4.9056 C   0  0  0  0  0  0  0  0  0  0  0  0
   50.4897   27.1680    5.0401 C   0  0  0  0  0  0  0  0  0  0  0  0
   49.3173   27.0422    5.1505 C   0  0  0  0  0  0  0  0  0  0  0  0
  1  2  1  0  0  0
  1  5  2  0  0  0
  2  6  2  0  0  0
  3  6  1  0  0  0
  3  4  2  0  0  0
  4  5  1  0  0  0
  5 17  1  0  0  0
 17 18  1  0  0  0
 18 21  1  0  0  0
 19 20  1  0  0  0
 20 21  3  0  0  0
  6  9  1  0  0  0
  7  9  2  0  0  0
  8  9  2  0  0  0
  9 11  1  0  0  0
 10 11  1  0  0  0
 10 15  1  0  0  0
 11 12  1  0  0  0
 12 13  1  0  0  0
 13 15  1  0  0  0
 13 14  1  0  0  0
 14 16  1  0  0  0
M  END
> <minimizedAffinity>
-7.98982

$$$$
2OI0_283_A_1


 21 22  0  0  0  0  0  0  0  0999 V2000
   45.1312   27.5615    4.0921 C   0  0  0  0  0  0  0  0  0  0  0  0
   43.8546   28.1094    3.7698 C   0  0  0  0  0  0  0  0  0  0  0  0
   44.9257   29.6969    2.3026 C   0  0  0  0  0  0  0  0  0  0  0  0
   46.1758   29.1697    2.6172 C   0  0  0  0  0  0  0  0  0  0  0  0
   46.2957   28.1062    3.5027 C   0  0  0  0  0  0  0  0  0  0  0  0
   43.7716   29.1800    2.8644 C   0  0  0  0  0  0  0  0  0  0  0  0
   41.4600   28.7506    2.0243 O   0  0  0  0  0  0  0  0  0  0  0  0
   41.7232   30.8508    3.3581 O   0  0  0  0  0  0  0  0  0  0  0  0
   42.2518   29.9180    2.3621 S   0  0  0  0  0  0  0  0  0  0  0  0
   42.4769   30.4350   -0.4112 C   0  0  0  0  0  0  0  0  0  0  0  0
   42.5207   30.9856    0.9794 N   0  0  0  0  0  0  0  0  0  0  0  0
   41.5106   32.0876    0.9136 C   0  0  0  0  0  0  0  0  0  0  0  0
   40.2921   31.4737    0.2268 C   0  0  0  0  0  0  0  0  0  0  0  0
   38.8326   32.4799    0.0309 S   0  0  0  0  0  0  0  0  0  0  0  0
   41.0948   30.8131   -0.8846 C   0  0  0  0  0  0  0  0  0  0  0  0
   39.1548   33.6211   -0.6350 H   0  0  0  0  0  0  0  0  0  0  0  0
   47.6135   27.6957    3.6995 O   0  0  0  0  0  0  0  0  0  0  0  0
   47.9096   26.6913    4.7051 C   0  0  0  0  0  0  0  0  0  0  0  0
   48.1673   22.9431    2.7584 C   0  0  0  0  0  0  0  0  0  0  0  0
   47.9987   24.2620    3.4405 C   0  0  0  0  0  0  0  0  0  0  0  0
   47.8781   25.3040    3.9902 C   0  0  0  0  0  0  0  0  0  0  0  0
  1  2  1  0  0  0
  1  5  2  0  0  0
  2  6  2  0  0  0
  3  6  1  0  0  0
  3  4  2  0  0  0
  4  5  1  0  0  0
  5 17  1  0  0  0
 17 18  1  0  0  0
 18 21  1  0  0  0
 19 20  1  0  0  0
 20 21  3  0  0  0
  6  9  1  0  0  0
  7  9  2  0  0  0
  8  9  2  0  0  0
  9 11  1  0  0  0
 10 11  1  0  0  0
 10 15  1  0  0  0
 11 12  1  0  0  0
 12 13  1  0  0  0
 13 15  1  0  0  0
 13 14  1  0  0  0
 14 16  1  0  0  0
M  END
> <minimizedAffinity>
-7.88154

$$$$
2OI0_283_A_1


 21 22  0  0  0  0  0  0  0  0999 V2000
   46.1119   26.8873    2.4474 C   0  0  0  0  0  0  0  0  0  0  0  0
   45.1209   27.5270    1.6458 C   0  0  0  0  0  0  0  0  0  0  0  0
   43.9401   28.1693    3.6492 C   0  0  0  0  0  0  0  0  0  0  0  0
   44.9018   27.5419    4.4373 C   0  0  0  0  0  0  0  0  0  0  0  0
   45.9894   26.9024    3.8562 C   0  0  0  0  0  0  0  0  0  0  0  0
   44.0387   28.1702    2.2690 C   0  0  0  0  0  0  0  0  0  0  0  0
   43.2597   28.9405    0.0254 O   0  0  0  0  0  0  0  0  0  0  0  0
   41.4358   28.5023    1.6810 O   0  0  0  0  0  0  0  0  0  0  0  0
   42.7719   29.0230    1.3889 S   0  0  0  0  0  0  0  0  0  0  0  0
   43.4905   31.7602    1.3629 C   0  0  0  0  0  0  0  0  0  0  0  0
   42.6418   30.6875    1.9693 N   0  0  0  0  0  0  0  0  0  0  0  0
   41.2623   31.2396    1.7922 C   0  0  0  0  0  0  0  0  0  0  0  0
   41.2061   31.7204    0.3435 C   0  0  0  0  0  0  0  0  0  0  0  0
   39.6695   32.3863   -0.2699 S   0  0  0  0  0  0  0  0  0  0  0  0
   42.5482   32.4358    0.3970 C   0  0  0  0  0  0  0  0  0  0  0  0
   39.2716   33.4151    0.5257 H   0  0  0  0  0  0  0  0  0  0  0  0
   46.8596   26.3353    4.7862 O   0  0  0  0  0  0  0  0  0  0  0  0
   48.0171   27.0868    5.2370 C   0  0  0  0  0  0  0  0  0  0  0  0
   51.1138   25.6313    2.7476 C   0  0  0  0  0  0  0  0  0  0  0  0
   50.0736   26.1586    3.6819 C   0  0  0  0  0  0  0  0  0  0  0  0
   49.2412   26.5828    4.4097 C   0  0  0  0  0  0  0  0  0  0  0  0
  1  2  1  0  0  0
  1  5  2  0  0  0
  2  6  2  0  0  0
  3  6  1  0  0  0
  3  4  2  0  0  0
  4  5  1  0  0  0
  5 17  1  0  0  0
 17 18  1  0  0  0
 18 21  1  0  0  0
 19 20  1  0  0  0
 20 21  3  0  0  0
  6  9  1  0  0  0
  7  9  2  0  0  0
  8  9  2  0  0  0
  9 11  1  0  0  0
 10 11  1  0  0  0
 10 15  1  0  0  0
 11 12  1  0  0  0
 12 13  1  0  0  0
 13 15  1  0  0  0
 13 14  1  0  0  0
 14 16  1  0  0  0
M  END
> <minimizedAffinity>
-7.68403

$$$$
2OI0_283_A_1


 21 22  0  0  0  0  0  0  0  0999 V2000
   44.5015   27.5678    3.9722 C   0  0  0  0  0  0  0  0  0  0  0  0
   43.5077   28.4991    3.5492 C   0  0  0  0  0  0  0  0  0  0  0  0
   45.1967   29.7256    2.3396 C   0  0  0  0  0  0  0  0  0  0  0  0
   46.1728   28.8225    2.7535 C   0  0  0  0  0  0  0  0  0  0  0  0
   45.8439   27.7426    3.5630 C   0  0  0  0  0  0  0  0  0  0  0  0
   43.8762   29.5750    2.7248 C   0  0  0  0  0  0  0  0  0  0  0  0
   42.0106   31.1256    3.3154 O   0  0  0  0  0  0  0  0  0  0  0  0
   43.3906   31.8365    1.3533 O   0  0  0  0  0  0  0  0  0  0  0  0
   42.7349   30.7694    2.1103 S   0  0  0  0  0  0  0  0  0  0  0  0
   41.2295   30.8604   -0.2844 C   0  0  0  0  0  0  0  0  0  0  0  0
   41.6970   30.0425    0.8780 N   0  0  0  0  0  0  0  0  0  0  0  0
   42.3543   28.8809    0.2016 C   0  0  0  0  0  0  0  0  0  0  0  0
   43.2400   29.4959   -0.8803 C   0  0  0  0  0  0  0  0  0  0  0  0
   44.2537   28.4086   -1.8657 S   0  0  0  0  0  0  0  0  0  0  0  0
   42.1695   30.4495   -1.3910 C   0  0  0  0  0  0  0  0  0  0  0  0
   43.4686   27.4679   -2.4558 H   0  0  0  0  0  0  0  0  0  0  0  0
   46.9351   26.9336    3.8768 O   0  0  0  0  0  0  0  0  0  0  0  0
   47.5370   27.0203    5.1952 C   0  0  0  0  0  0  0  0  0  0  0  0
   51.7612   27.0584    4.9508 C   0  0  0  0  0  0  0  0  0  0  0  0
   50.2671   27.0812    4.9682 C   0  0  0  0  0  0  0  0  0  0  0  0
   49.0830   27.0850    4.9895 C   0  0  0  0  0  0  0  0  0  0  0  0
  1  2  1  0  0  0
  1  5  2  0  0  0
  2  6  2  0  0  0
  3  6  1  0  0  0
  3  4  2  0  0  0
  4  5  1  0  0  0
  5 17  1  0  0  0
 17 18  1  0  0  0
 18 21  1  0  0  0
 19 20  1  0  0  0
 20 21  3  0  0  0
  6  9  1  0  0  0
  7  9  2  0  0  0
  8  9  2  0  0  0
  9 11  1  0  0  0
 10 11  1  0  0  0
 10 15  1  0  0  0
 11 12  1  0  0  0
 12 13  1  0  0  0
 13 15  1  0  0  0
 13 14  1  0  0  0
 14 16  1  0  0  0
M  END
> <minimizedAffinity>
-7.64716

$$$$
2OI0_283_A_1


 21 22  0  0  0  0  0  0  0  0999 V2000
   46.5318   28.3513    2.7498 C   0  0  0  0  0  0  0  0  0  0  0  0
   45.5637   29.1551    2.0787 C   0  0  0  0  0  0  0  0  0  0  0  0
   43.8713   28.3580    3.6022 C   0  0  0  0  0  0  0  0  0  0  0  0
   44.8110   27.5669    4.2585 C   0  0  0  0  0  0  0  0  0  0  0  0
   46.1385   27.5539    3.8496 C   0  0  0  0  0  0  0  0  0  0  0  0
   44.2318   29.1484    2.5251 C   0  0  0  0  0  0  0  0  0  0  0  0
   42.2138   30.5487    2.9729 O   0  0  0  0  0  0  0  0  0  0  0  0
   43.4748   31.1508    0.8976 O   0  0  0  0  0  0  0  0  0  0  0  0
   42.9546   30.1233    1.8006 S   0  0  0  0  0  0  0  0  0  0  0  0
   41.4048   29.7466   -0.5372 C   0  0  0  0  0  0  0  0  0  0  0  0
   41.9856   29.1369    0.6997 N   0  0  0  0  0  0  0  0  0  0  0  0
   42.7607   27.9823    0.1474 C   0  0  0  0  0  0  0  0  0  0  0  0
   43.5489   28.5549   -1.0291 C   0  0  0  0  0  0  0  0  0  0  0  0
   44.6637   27.4756   -1.9084 S   0  0  0  0  0  0  0  0  0  0  0  0
   42.3657   29.3108   -1.6161 C   0  0  0  0  0  0  0  0  0  0  0  0
   43.9824   26.3864   -2.3546 H   0  0  0  0  0  0  0  0  0  0  0  0
   46.9462   26.7171    4.6183 O   0  0  0  0  0  0  0  0  0  0  0  0
   48.3603   26.6033    4.3099 C   0  0  0  0  0  0  0  0  0  0  0  0
   48.6297   22.7498    2.5827 C   0  0  0  0  0  0  0  0  0  0  0  0
   48.6047   24.1268    3.1627 C   0  0  0  0  0  0  0  0  0  0  0  0
   48.5688   25.2187    3.6199 C   0  0  0  0  0  0  0  0  0  0  0  0
  1  2  1  0  0  0
  1  5  2  0  0  0
  2  6  2  0  0  0
  3  6  1  0  0  0
  3  4  2  0  0  0
  4  5  1  0  0  0
  5 17  1  0  0  0
 17 18  1  0  0  0
 18 21  1  0  0  0
 19 20  1  0  0  0
 20 21  3  0  0  0
  6  9  1  0  0  0
  7  9  2  0  0  0
  8  9  2  0  0  0
  9 11  1  0  0  0
 10 11  1  0  0  0
 10 15  1  0  0  0
 11 12  1  0  0  0
 12 13  1  0  0  0
 13 15  1  0  0  0
 13 14  1  0  0  0
 14 16  1  0  0  0
M  END
> <minimizedAffinity>
-7.32272

$$$$
2OI0_283_A_1


 21 22  0  0  0  0  0  0  0  0999 V2000
   44.6569   27.3696    3.8504 C   0  0  0  0  0  0  0  0  0  0  0  0
   43.9378   27.5026    2.6261 C   0  0  0  0  0  0  0  0  0  0  0  0
   45.9410   28.3196    1.5584 C   0  0  0  0  0  0  0  0  0  0  0  0
   46.6475   28.1969    2.7523 C   0  0  0  0  0  0  0  0  0  0  0  0
   46.0252   27.7237    3.9005 C   0  0  0  0  0  0  0  0  0  0  0  0
   44.6022   27.9778    1.4834 C   0  0  0  0  0  0  0  0  0  0  0  0
   44.8696   27.6641   -0.9791 O   0  0  0  0  0  0  0  0  0  0  0  0
   42.5145   27.5166   -0.1476 O   0  0  0  0  0  0  0  0  0  0  0  0
   43.8313   28.1528   -0.0920 S   0  0  0  0  0  0  0  0  0  0  0  0
   42.1076   30.2038   -1.0036 C   0  0  0  0  0  0  0  0  0  0  0  0
   43.4226   29.8472   -0.3852 N   0  0  0  0  0  0  0  0  0  0  0  0
   43.4042   30.6491    0.8780 C   0  0  0  0  0  0  0  0  0  0  0  0
   42.0261   30.4027    1.4890 C   0  0  0  0  0  0  0  0  0  0  0  0
   41.6522   31.1476    3.0658 S   0  0  0  0  0  0  0  0  0  0  0  0
   41.2715   30.6130    0.1842 C   0  0  0  0  0  0  0  0  0  0  0  0
   41.8382   32.4925    2.9873 H   0  0  0  0  0  0  0  0  0  0  0  0
   46.8761   27.6547    5.0028 O   0  0  0  0  0  0  0  0  0  0  0  0
   48.1281   26.9271    4.8984 C   0  0  0  0  0  0  0  0  0  0  0  0
   47.6020   23.1874    2.9898 C   0  0  0  0  0  0  0  0  0  0  0  0
   47.7190   24.5304    3.6347 C   0  0  0  0  0  0  0  0  0  0  0  0
   47.8193   25.5878    4.1584 C   0  0  0  0  0  0  0  0  0  0  0  0
  1  2  1  0  0  0
  1  5  2  0  0  0
  2  6  2  0  0  0
  3  6  1  0  0  0
  3  4  2  0  0  0
  4  5  1  0  0  0
  5 17  1  0  0  0
 17 18  1  0  0  0
 18 21  1  0  0  0
 19 20  1  0  0  0
 20 21  3  0  0  0
  6  9  1  0  0  0
  7  9  2  0  0  0
  8  9  2  0  0  0
  9 11  1  0  0  0
 10 11  1  0  0  0
 10 15  1  0  0  0
 11 12  1  0  0  0
 12 13  1  0  0  0
 13 15  1  0  0  0
 13 14  1  0  0  0
 14 16  1  0  0  0
M  END
> <minimizedAffinity>
-7.26280

$$$$
2OI0_283_A_1


 21 22  0  0  0  0  0  0  0  0999 V2000
   44.8979   27.4814    4.3404 C   0  0  0  0  0  0  0  0  0  0  0  0
   44.0617   28.4072    3.6494 C   0  0  0  0  0  0  0  0  0  0  0  0
   45.9222   29.0047    2.2344 C   0  0  0  0  0  0  0  0  0  0  0  0
   46.7453   28.1061    2.9087 C   0  0  0  0  0  0  0  0  0  0  0  0
   46.2514   27.3389    3.9562 C   0  0  0  0  0  0  0  0  0  0  0  0
   44.5941   29.1607    2.5902 C   0  0  0  0  0  0  0  0  0  0  0  0
   44.2914   31.5647    1.9874 O   0  0  0  0  0  0  0  0  0  0  0  0
   43.5745   29.9383    0.2265 O   0  0  0  0  0  0  0  0  0  0  0  0
   43.6534   30.3092    1.6399 S   0  0  0  0  0  0  0  0  0  0  0  0
   41.4247   31.2258    3.1238 C   0  0  0  0  0  0  0  0  0  0  0  0
   41.9536   30.2496    2.1208 N   0  0  0  0  0  0  0  0  0  0  0  0
   41.0322   30.4599    0.9607 C   0  0  0  0  0  0  0  0  0  0  0  0
   40.9489   31.9749    0.7847 C   0  0  0  0  0  0  0  0  0  0  0  0
   39.9830   32.6194   -0.5690 S   0  0  0  0  0  0  0  0  0  0  0  0
   40.7415   32.2614    2.2648 C   0  0  0  0  0  0  0  0  0  0  0  0
   38.7131   32.1394   -0.4887 H   0  0  0  0  0  0  0  0  0  0  0  0
   47.2029   26.4863    4.5143 O   0  0  0  0  0  0  0  0  0  0  0  0
   48.5645   26.5027    4.0105 C   0  0  0  0  0  0  0  0  0  0  0  0
   49.0234   22.6514    2.3187 C   0  0  0  0  0  0  0  0  0  0  0  0
   48.9341   24.0060    2.9436 C   0  0  0  0  0  0  0  0  0  0  0  0
   48.8540   25.0843    3.4265 C   0  0  0  0  0  0  0  0  0  0  0  0
  1  2  1  0  0  0
  1  5  2  0  0  0
  2  6  2  0  0  0
  3  6  1  0  0  0
  3  4  2  0  0  0
  4  5  1  0  0  0
  5 17  1  0  0  0
 17 18  1  0  0  0
 18 21  1  0  0  0
 19 20  1  0  0  0
 20 21  3  0  0  0
  6  9  1  0  0  0
  7  9  2  0  0  0
  8  9  2  0  0  0
  9 11  1  0  0  0
 10 11  1  0  0  0
 10 15  1  0  0  0
 11 12  1  0  0  0
 12 13  1  0  0  0
 13 15  1  0  0  0
 13 14  1  0  0  0
 14 16  1  0  0  0
M  END
> <minimizedAffinity>
-7.21215

$$$$
2OI0_283_A_1


 21 22  0  0  0  0  0  0  0  0999 V2000
   46.4516   28.0586    2.4097 C   0  0  0  0  0  0  0  0  0  0  0  0
   45.6654   29.0095    1.6944 C   0  0  0  0  0  0  0  0  0  0  0  0
   43.9206   28.7825    3.3450 C   0  0  0  0  0  0  0  0  0  0  0  0
   44.6814   27.8494    4.0453 C   0  0  0  0  0  0  0  0  0  0  0  0
   45.9429   27.4804    3.5958 C   0  0  0  0  0  0  0  0  0  0  0  0
   44.3971   29.3638    2.1832 C   0  0  0  0  0  0  0  0  0  0  0  0
   44.0282   31.7908    1.7278 O   0  0  0  0  0  0  0  0  0  0  0  0
   43.0937   30.2406    0.0007 O   0  0  0  0  0  0  0  0  0  0  0  0
   43.3487   30.5499    1.4082 S   0  0  0  0  0  0  0  0  0  0  0  0
   41.3692   31.2915    3.2898 C   0  0  0  0  0  0  0  0  0  0  0  0
   41.7217   30.4647    2.0936 N   0  0  0  0  0  0  0  0  0  0  0  0
   40.6730   30.8741    1.1078 C   0  0  0  0  0  0  0  0  0  0  0  0
   40.6394   32.4000    1.1690 C   0  0  0  0  0  0  0  0  0  0  0  0
   39.5427   33.2691    0.0632 S   0  0  0  0  0  0  0  0  0  0  0  0
   40.6329   32.4640    2.6895 C   0  0  0  0  0  0  0  0  0  0  0  0
   38.2717   32.8175    0.2377 H   0  0  0  0  0  0  0  0  0  0  0  0
   46.5712   26.5450    4.4167 O   0  0  0  0  0  0  0  0  0  0  0  0
   47.7720   26.9187    5.1420 C   0  0  0  0  0  0  0  0  0  0  0  0
   50.8960   25.3894    2.7323 C   0  0  0  0  0  0  0  0  0  0  0  0
   49.8388   25.9898    3.6012 C   0  0  0  0  0  0  0  0  0  0  0  0
   48.9896   26.4599    4.2797 C   0  0  0  0  0  0  0  0  0  0  0  0
  1  2  1  0  0  0
  1  5  2  0  0  0
  2  6  2  0  0  0
  3  6  1  0  0  0
  3  4  2  0  0  0
  4  5  1  0  0  0
  5 17  1  0  0  0
 17 18  1  0  0  0
 18 21  1  0  0  0
 19 20  1  0  0  0
 20 21  3  0  0  0
  6  9  1  0  0  0
  7  9  2  0  0  0
  8  9  2  0  0  0
  9 11  1  0  0  0
 10 11  1  0  0  0
 10 15  1  0  0  0
 11 12  1  0  0  0
 12 13  1  0  0  0
 13 15  1  0  0  0
 13 14  1  0  0  0
 14 16  1  0  0  0
M  END
> <minimizedAffinity>
-7.18371

$$$$
2OI0_283_A_1


 21 22  0  0  0  0  0  0  0  0999 V2000
   44.6946   27.6566    4.1952 C   0  0  0  0  0  0  0  0  0  0  0  0
   43.5783   28.1649    3.4676 C   0  0  0  0  0  0  0  0  0  0  0  0
   45.0932   29.2136    1.9102 C   0  0  0  0  0  0  0  0  0  0  0  0
   46.1876   28.7244    2.6193 C   0  0  0  0  0  0  0  0  0  0  0  0
   46.0072   27.9464    3.7559 C   0  0  0  0  0  0  0  0  0  0  0  0
   43.7993   28.9421    2.3186 C   0  0  0  0  0  0  0  0  0  0  0  0
   41.5380   28.5143    1.3506 O   0  0  0  0  0  0  0  0  0  0  0  0
   42.0724   30.9248    1.7549 O   0  0  0  0  0  0  0  0  0  0  0  0
   42.5036   29.5962    1.3186 S   0  0  0  0  0  0  0  0  0  0  0  0
   42.7348   29.0255   -1.4437 C   0  0  0  0  0  0  0  0  0  0  0  0
   43.1017   29.9313   -0.3106 N   0  0  0  0  0  0  0  0  0  0  0  0
   42.6475   31.2652   -0.8141 C   0  0  0  0  0  0  0  0  0  0  0  0
   41.2400   31.0298   -1.3587 C   0  0  0  0  0  0  0  0  0  0  0  0
   40.3302   32.4281   -1.9897 S   0  0  0  0  0  0  0  0  0  0  0  0
   41.6116   29.7684   -2.1246 C   0  0  0  0  0  0  0  0  0  0  0  0
   41.0564   33.0393   -2.9637 H   0  0  0  0  0  0  0  0  0  0  0  0
   47.2041   27.5322    4.3386 O   0  0  0  0  0  0  0  0  0  0  0  0
   48.0124   26.5232    3.6781 C   0  0  0  0  0  0  0  0  0  0  0  0
   51.8048   28.3714    3.3518 C   0  0  0  0  0  0  0  0  0  0  0  0
   50.4756   27.6898    3.3954 C   0  0  0  0  0  0  0  0  0  0  0  0
   49.4243   27.1470    3.4458 C   0  0  0  0  0  0  0  0  0  0  0  0
  1  2  1  0  0  0
  1  5  2  0  0  0
  2  6  2  0  0  0
  3  6  1  0  0  0
  3  4  2  0  0  0
  4  5  1  0  0  0
  5 17  1  0  0  0
 17 18  1  0  0  0
 18 21  1  0  0  0
 19 20  1  0  0  0
 20 21  3  0  0  0
  6  9  1  0  0  0
  7  9  2  0  0  0
  8  9  2  0  0  0
  9 11  1  0  0  0
 10 11  1  0  0  0
 10 15  1  0  0  0
 11 12  1  0  0  0
 12 13  1  0  0  0
 13 15  1  0  0  0
 13 14  1  0  0  0
 14 16  1  0  0  0
M  END
> <minimizedAffinity>
-7.06648

$$$$
2OI0_283_A_1


 21 22  0  0  0  0  0  0  0  0999 V2000
   48.6267   23.2517    2.9280 C   0  0  0  0  0  0  0  0  0  0  0  0
   47.8042   24.3269    3.3766 C   0  0  0  0  0  0  0  0  0  0  0  0
   49.6645   25.8392    3.1075 C   0  0  0  0  0  0  0  0  0  0  0  0
   50.4744   24.7925    2.6736 C   0  0  0  0  0  0  0  0  0  0  0  0
   49.9736   23.5005    2.5758 C   0  0  0  0  0  0  0  0  0  0  0  0
   48.3431   25.6216    3.4557 C   0  0  0  0  0  0  0  0  0  0  0  0
   47.7924   27.1408    5.3590 O   0  0  0  0  0  0  0  0  0  0  0  0
   47.6399   28.1918    3.0937 O   0  0  0  0  0  0  0  0  0  0  0  0
   47.4186   27.0344    3.9616 S   0  0  0  0  0  0  0  0  0  0  0  0
   44.6888   27.6823    4.3329 C   0  0  0  0  0  0  0  0  0  0  0  0
   45.6898   26.7437    3.7362 N   0  0  0  0  0  0  0  0  0  0  0  0
   45.3017   26.7468    2.2911 C   0  0  0  0  0  0  0  0  0  0  0  0
   45.1207   28.2194    1.9279 C   0  0  0  0  0  0  0  0  0  0  0  0
   44.7202   28.6334    0.2400 S   0  0  0  0  0  0  0  0  0  0  0  0
   44.2977   28.5527    3.1638 C   0  0  0  0  0  0  0  0  0  0  0  0
   43.5929   27.9710   -0.1340 H   0  0  0  0  0  0  0  0  0  0  0  0
   50.9118   22.5765    2.1178 O   0  0  0  0  0  0  0  0  0  0  0  0
   50.6817   21.1580    2.3240 C   0  0  0  0  0  0  0  0  0  0  0  0
   52.6834   20.2206    5.9323 C   0  0  0  0  0  0  0  0  0  0  0  0
   52.0306   20.5108    4.6197 C   0  0  0  0  0  0  0  0  0  0  0  0
   51.4988   20.7401    3.5868 C   0  0  0  0  0  0  0  0  0  0  0  0
  1  2  1  0  0  0
  1  5  2  0  0  0
  2  6  2  0  0  0
  3  6  1  0  0  0
  3  4  2  0  0  0
  4  5  1  0  0  0
  5 17  1  0  0  0
 17 18  1  0  0  0
 18 21  1  0  0  0
 19 20  1  0  0  0
 20 21  3  0  0  0
  6  9  1  0  0  0
  7  9  2  0  0  0
  8  9  2  0  0  0
  9 11  1  0  0  0
 10 11  1  0  0  0
 10 15  1  0  0  0
 11 12  1  0  0  0
 12 13  1  0  0  0
 13 15  1  0  0  0
 13 14  1  0  0  0
 14 16  1  0  0  0
M  END
> <minimizedAffinity>
-7.01715

$$$$
