4IVA_1J5_A_1201


 25 28  0  0  0  0  0  0  0  0999 V2000
  -17.1593   -9.8551  -12.0397 C   0  0  0  0  0  0  0  0  0  0  0  0
  -15.9292   -9.5065  -11.5494 N   0  0  0  0  0  0  0  0  0  0  0  0
  -15.8360   -8.1248  -11.6281 C   0  0  0  0  0  0  0  0  0  0  0  0
  -17.0500   -7.6895  -12.2010 C   0  0  0  0  0  0  0  0  0  0  0  0
  -17.7996   -8.7928  -12.4286 N   0  0  0  0  0  0  0  0  0  0  0  0
  -17.2770   -6.3284  -12.4209 C   0  0  0  0  0  0  0  0  0  0  0  0
  -16.3770   -5.4198  -12.1207 N   0  0  0  0  0  0  0  0  0  0  0  0
  -15.2103   -5.7680  -11.5765 C   0  0  0  0  0  0  0  0  0  0  0  0
  -14.8892   -7.1203  -11.3132 C   0  0  0  0  0  0  0  0  0  0  0  0
  -13.5416   -7.0880  -10.7190 C   0  0  0  0  0  0  0  0  0  0  0  0
  -13.1575   -5.7971  -10.6820 C   0  0  0  0  0  0  0  0  0  0  0  0
  -14.1554   -4.9947  -11.1900 N   0  0  0  0  0  0  0  0  0  0  0  0
  -14.1136   -4.0137  -11.2630 H   0  0  0  0  0  0  0  0  0  0  0  0
  -14.9321  -10.4784  -11.0461 C   0  0  0  0  0  0  0  0  0  0  0  0
  -13.6329  -10.3943  -11.8726 C   0  0  0  0  0  0  0  0  0  0  0  0
  -12.6583  -11.4846  -11.3828 C   0  0  0  0  0  0  0  0  0  0  0  0
  -12.4205  -11.3172   -9.8679 C   0  0  0  0  0  0  0  0  0  0  0  0
  -13.7240  -11.4068   -9.0582 C   0  0  0  0  0  0  0  0  0  0  0  0
  -14.7023  -10.3182   -9.5369 C   0  0  0  0  0  0  0  0  0  0  0  0
  -11.5017  -12.3516   -9.3574 C   0  0  0  0  0  0  0  0  0  0  0  0
  -10.7896  -13.1273   -8.9242 N   0  0  0  0  0  0  0  0  0  0  0  0
  -19.1964  -11.3292  -11.8221 C   0  0  0  0  0  0  0  0  0  0  0  0
  -17.6968  -11.2688  -12.1270 C   0  0  0  0  0  0  0  0  0  0  0  0
  -17.4622  -11.7715  -13.4305 O   0  0  0  0  0  0  0  0  0  0  0  0
  -17.9284  -11.2203  -14.0784 H   0  0  0  0  0  0  0  0  0  0  0  0
 24 23  1  0  0  0
  6  4  1  0  0  0
  6  7  2  0  0  0
  5  4  1  0  0  0
  5  1  2  0  0  0
  4  3  2  0  0  0
  7  8  1  0  0  0
 23  1  1  0  0  0
 23 22  1  0  0  0
  1  2  1  0  0  0
 15 16  1  0  0  0
 15 14  1  0  0  0
  8  9  2  0  0  0
  8 12  1  0  0  0
  3  2  1  0  0  0
  3  9  1  0  0  0
  2 14  1  0  0  0
  9 10  1  0  0  0
 12 11  1  0  0  0
 16 17  1  0  0  0
 14 19  1  0  0  0
 10 11  2  0  0  0
 17 20  1  0  0  0
 17 18  1  0  0  0
 19 18  1  0  0  0
 20 21  3  0  0  0
 24 25  1  0  0  0
 12 13  1  0  0  0
M  END
> <minimizedAffinity>
-9.18914

$$$$
4IVA_1J5_A_1201


 25 28  0  0  0  0  0  0  0  0999 V2000
  -16.7677  -11.5149  -12.5818 C   0  0  0  0  0  0  0  0  0  0  0  0
  -15.7732  -10.8581  -11.9076 N   0  0  0  0  0  0  0  0  0  0  0  0
  -16.0943   -9.5088  -11.9212 C   0  0  0  0  0  0  0  0  0  0  0  0
  -17.3010   -9.4079  -12.6461 C   0  0  0  0  0  0  0  0  0  0  0  0
  -17.6458  -10.6621  -13.0193 N   0  0  0  0  0  0  0  0  0  0  0  0
  -17.9006   -8.1617  -12.8461 C   0  0  0  0  0  0  0  0  0  0  0  0
  -17.3638   -7.0543  -12.3865 N   0  0  0  0  0  0  0  0  0  0  0  0
  -16.2247   -7.0839  -11.6936 C   0  0  0  0  0  0  0  0  0  0  0  0
  -15.5443   -8.2974  -11.4369 C   0  0  0  0  0  0  0  0  0  0  0  0
  -14.3561   -7.9151  -10.6547 C   0  0  0  0  0  0  0  0  0  0  0  0
  -14.3894   -6.5754  -10.5155 C   0  0  0  0  0  0  0  0  0  0  0  0
  -15.5115   -6.0663  -11.1316 N   0  0  0  0  0  0  0  0  0  0  0  0
  -15.7603   -5.1142  -11.1616 H   0  0  0  0  0  0  0  0  0  0  0  0
  -14.5999  -11.5284  -11.3024 C   0  0  0  0  0  0  0  0  0  0  0  0
  -13.2982  -11.0457  -11.9735 C   0  0  0  0  0  0  0  0  0  0  0  0
  -12.1110  -11.8353  -11.3855 C   0  0  0  0  0  0  0  0  0  0  0  0
  -12.0950  -11.6711   -9.8518 C   0  0  0  0  0  0  0  0  0  0  0  0
  -13.3974  -12.1597   -9.1980 C   0  0  0  0  0  0  0  0  0  0  0  0
  -14.5889  -11.3732   -9.7754 C   0  0  0  0  0  0  0  0  0  0  0  0
  -10.9792  -12.4238   -9.2491 C   0  0  0  0  0  0  0  0  0  0  0  0
  -10.1478  -13.0276   -8.7585 N   0  0  0  0  0  0  0  0  0  0  0  0
  -17.2389  -13.7557  -11.5202 C   0  0  0  0  0  0  0  0  0  0  0  0
  -16.8357  -13.0129  -12.7974 C   0  0  0  0  0  0  0  0  0  0  0  0
  -17.7777  -13.2895  -13.8186 O   0  0  0  0  0  0  0  0  0  0  0  0
  -18.6532  -12.9741  -13.5450 H   0  0  0  0  0  0  0  0  0  0  0  0
 24 23  1  0  0  0
  6  4  1  0  0  0
  6  7  2  0  0  0
  5  4  1  0  0  0
  5  1  2  0  0  0
  4  3  2  0  0  0
  7  8  1  0  0  0
 23  1  1  0  0  0
 23 22  1  0  0  0
  1  2  1  0  0  0
 15 16  1  0  0  0
 15 14  1  0  0  0
  8  9  2  0  0  0
  8 12  1  0  0  0
  3  2  1  0  0  0
  3  9  1  0  0  0
  2 14  1  0  0  0
  9 10  1  0  0  0
 12 11  1  0  0  0
 16 17  1  0  0  0
 14 19  1  0  0  0
 10 11  2  0  0  0
 17 20  1  0  0  0
 17 18  1  0  0  0
 19 18  1  0  0  0
 20 21  3  0  0  0
 24 25  1  0  0  0
 12 13  1  0  0  0
M  END
> <minimizedAffinity>
-8.31860

$$$$
4IVA_1J5_A_1201


 25 28  0  0  0  0  0  0  0  0999 V2000
  -14.5312   -7.3184  -11.2316 C   0  0  0  0  0  0  0  0  0  0  0  0
  -14.8039   -8.6602  -11.2137 N   0  0  0  0  0  0  0  0  0  0  0  0
  -16.1087   -8.8165  -11.6576 C   0  0  0  0  0  0  0  0  0  0  0  0
  -16.5867   -7.5136  -11.9132 C   0  0  0  0  0  0  0  0  0  0  0  0
  -15.5783   -6.6577  -11.6274 N   0  0  0  0  0  0  0  0  0  0  0  0
  -17.8899   -7.3201  -12.3787 C   0  0  0  0  0  0  0  0  0  0  0  0
  -18.7097   -8.3270  -12.5782 N   0  0  0  0  0  0  0  0  0  0  0  0
  -18.3169   -9.5819  -12.3554 C   0  0  0  0  0  0  0  0  0  0  0  0
  -17.0159   -9.8793  -11.8861 C   0  0  0  0  0  0  0  0  0  0  0  0
  -16.9729  -11.3474  -11.7736 C   0  0  0  0  0  0  0  0  0  0  0  0
  -18.1839  -11.8073  -12.1443 C   0  0  0  0  0  0  0  0  0  0  0  0
  -18.9977  -10.7546  -12.5012 N   0  0  0  0  0  0  0  0  0  0  0  0
  -19.9278  -10.8363  -12.8135 H   0  0  0  0  0  0  0  0  0  0  0  0
  -13.8368   -9.6966  -10.7862 C   0  0  0  0  0  0  0  0  0  0  0  0
  -14.3675  -10.4518   -9.5509 C   0  0  0  0  0  0  0  0  0  0  0  0
  -13.2936  -11.4528   -9.0784 C   0  0  0  0  0  0  0  0  0  0  0  0
  -12.9192  -12.3916  -10.2436 C   0  0  0  0  0  0  0  0  0  0  0  0
  -12.3890  -11.6242  -11.4653 C   0  0  0  0  0  0  0  0  0  0  0  0
  -13.4569  -10.6251  -11.9479 C   0  0  0  0  0  0  0  0  0  0  0  0
  -11.8828  -13.3578   -9.8347 C   0  0  0  0  0  0  0  0  0  0  0  0
  -11.0510  -14.0753   -9.5350 N   0  0  0  0  0  0  0  0  0  0  0  0
  -13.2237   -5.1696  -11.0243 C   0  0  0  0  0  0  0  0  0  0  0  0
  -13.2095   -6.6898  -10.8402 C   0  0  0  0  0  0  0  0  0  0  0  0
  -12.9369   -6.9960   -9.4842 O   0  0  0  0  0  0  0  0  0  0  0  0
  -13.6361   -6.6266   -8.9225 H   0  0  0  0  0  0  0  0  0  0  0  0
 24 23  1  0  0  0
  6  4  1  0  0  0
  6  7  2  0  0  0
  5  4  1  0  0  0
  5  1  2  0  0  0
  4  3  2  0  0  0
  7  8  1  0  0  0
 23  1  1  0  0  0
 23 22  1  0  0  0
  1  2  1  0  0  0
 15 16  1  0  0  0
 15 14  1  0  0  0
  8  9  2  0  0  0
  8 12  1  0  0  0
  3  2  1  0  0  0
  3  9  1  0  0  0
  2 14  1  0  0  0
  9 10  1  0  0  0
 12 11  1  0  0  0
 16 17  1  0  0  0
 14 19  1  0  0  0
 10 11  2  0  0  0
 17 20  1  0  0  0
 17 18  1  0  0  0
 19 18  1  0  0  0
 20 21  3  0  0  0
 24 25  1  0  0  0
 12 13  1  0  0  0
M  END
> <minimizedAffinity>
-7.88842

$$$$
4IVA_1J5_A_1201


 25 28  0  0  0  0  0  0  0  0999 V2000
  -15.5677   -8.8009  -11.2093 C   0  0  0  0  0  0  0  0  0  0  0  0
  -15.1240  -10.0963  -11.2040 N   0  0  0  0  0  0  0  0  0  0  0  0
  -16.0263  -10.8389  -11.9512 C   0  0  0  0  0  0  0  0  0  0  0  0
  -17.0190   -9.9282  -12.3715 C   0  0  0  0  0  0  0  0  0  0  0  0
  -16.6778   -8.7144  -11.8800 N   0  0  0  0  0  0  0  0  0  0  0  0
  -18.0909  -10.3659  -13.1538 C   0  0  0  0  0  0  0  0  0  0  0  0
  -18.2195  -11.6242  -13.5087 N   0  0  0  0  0  0  0  0  0  0  0  0
  -17.3142  -12.5328  -13.1433 C   0  0  0  0  0  0  0  0  0  0  0  0
  -16.1928  -12.1861  -12.3536 C   0  0  0  0  0  0  0  0  0  0  0  0
  -15.4452  -13.4425  -12.1731 C   0  0  0  0  0  0  0  0  0  0  0  0
  -16.1340  -14.4072  -12.8135 C   0  0  0  0  0  0  0  0  0  0  0  0
  -17.2564  -13.8701  -13.4048 N   0  0  0  0  0  0  0  0  0  0  0  0
  -17.9155  -14.3741  -13.9347 H   0  0  0  0  0  0  0  0  0  0  0  0
  -13.8990  -10.5497  -10.5069 C   0  0  0  0  0  0  0  0  0  0  0  0
  -14.2609  -11.4815   -9.3328 C   0  0  0  0  0  0  0  0  0  0  0  0
  -12.9704  -11.8532   -8.5745 C   0  0  0  0  0  0  0  0  0  0  0  0
  -11.9623  -12.4849   -9.5563 C   0  0  0  0  0  0  0  0  0  0  0  0
  -11.6094  -11.5427  -10.7184 C   0  0  0  0  0  0  0  0  0  0  0  0
  -12.8917  -11.1697  -11.4852 C   0  0  0  0  0  0  0  0  0  0  0  0
  -10.7068  -12.8432   -8.8706 C   0  0  0  0  0  0  0  0  0  0  0  0
   -9.7575  -13.1578   -8.3263 N   0  0  0  0  0  0  0  0  0  0  0  0
  -13.4546   -7.4289  -11.0580 C   0  0  0  0  0  0  0  0  0  0  0  0
  -14.8764   -7.6374  -10.5284 C   0  0  0  0  0  0  0  0  0  0  0  0
  -15.6348   -6.4604  -10.7436 O   0  0  0  0  0  0  0  0  0  0  0  0
  -15.6866   -6.2786  -11.6950 H   0  0  0  0  0  0  0  0  0  0  0  0
 24 23  1  0  0  0
  6  4  1  0  0  0
  6  7  2  0  0  0
  5  4  1  0  0  0
  5  1  2  0  0  0
  4  3  2  0  0  0
  7  8  1  0  0  0
 23  1  1  0  0  0
 23 22  1  0  0  0
  1  2  1  0  0  0
 15 16  1  0  0  0
 15 14  1  0  0  0
  8  9  2  0  0  0
  8 12  1  0  0  0
  3  2  1  0  0  0
  3  9  1  0  0  0
  2 14  1  0  0  0
  9 10  1  0  0  0
 12 11  1  0  0  0
 16 17  1  0  0  0
 14 19  1  0  0  0
 10 11  2  0  0  0
 17 20  1  0  0  0
 17 18  1  0  0  0
 19 18  1  0  0  0
 20 21  3  0  0  0
 24 25  1  0  0  0
 12 13  1  0  0  0
M  END
> <minimizedAffinity>
-7.83261

$$$$
4IVA_1J5_A_1201


 25 28  0  0  0  0  0  0  0  0999 V2000
  -12.1780  -13.1748  -10.2618 C   0  0  0  0  0  0  0  0  0  0  0  0
  -13.2584  -12.5225  -10.7932 N   0  0  0  0  0  0  0  0  0  0  0  0
  -14.0477  -13.4798  -11.4131 C   0  0  0  0  0  0  0  0  0  0  0  0
  -13.3729  -14.7069  -11.2380 C   0  0  0  0  0  0  0  0  0  0  0  0
  -12.2460  -14.4435  -10.5366 N   0  0  0  0  0  0  0  0  0  0  0  0
  -13.9124  -15.8876  -11.7550 C   0  0  0  0  0  0  0  0  0  0  0  0
  -15.0422  -15.8963  -12.4251 N   0  0  0  0  0  0  0  0  0  0  0  0
  -15.7271  -14.7694  -12.6237 C   0  0  0  0  0  0  0  0  0  0  0  0
  -15.2639  -13.5246  -12.1366 C   0  0  0  0  0  0  0  0  0  0  0  0
  -16.2837  -12.5452  -12.5500 C   0  0  0  0  0  0  0  0  0  0  0  0
  -17.2278  -13.2225  -13.2321 C   0  0  0  0  0  0  0  0  0  0  0  0
  -16.9057  -14.5612  -13.2777 N   0  0  0  0  0  0  0  0  0  0  0  0
  -17.4437  -15.2601  -13.7150 H   0  0  0  0  0  0  0  0  0  0  0  0
  -13.4785  -11.0621  -10.6881 C   0  0  0  0  0  0  0  0  0  0  0  0
  -13.2790  -10.3872  -12.0602 C   0  0  0  0  0  0  0  0  0  0  0  0
  -13.4203   -8.8608  -11.8909 C   0  0  0  0  0  0  0  0  0  0  0  0
  -14.7883   -8.5396  -11.2546 C   0  0  0  0  0  0  0  0  0  0  0  0
  -14.9701   -9.2166   -9.8867 C   0  0  0  0  0  0  0  0  0  0  0  0
  -14.8356  -10.7424  -10.0463 C   0  0  0  0  0  0  0  0  0  0  0  0
  -14.9569   -7.0871  -11.0636 C   0  0  0  0  0  0  0  0  0  0  0  0
  -15.0970   -5.9618  -10.9603 N   0  0  0  0  0  0  0  0  0  0  0  0
  -11.4431  -12.3051   -8.0093 C   0  0  0  0  0  0  0  0  0  0  0  0
  -11.0605  -12.5191   -9.4767 C   0  0  0  0  0  0  0  0  0  0  0  0
   -9.9063  -13.3376   -9.5463 O   0  0  0  0  0  0  0  0  0  0  0  0
  -10.0988  -14.2023   -9.1514 H   0  0  0  0  0  0  0  0  0  0  0  0
 24 23  1  0  0  0
  6  4  1  0  0  0
  6  7  2  0  0  0
  5  4  1  0  0  0
  5  1  2  0  0  0
  4  3  2  0  0  0
  7  8  1  0  0  0
 23  1  1  0  0  0
 23 22  1  0  0  0
  1  2  1  0  0  0
 15 16  1  0  0  0
 15 14  1  0  0  0
  8  9  2  0  0  0
  8 12  1  0  0  0
  3  2  1  0  0  0
  3  9  1  0  0  0
  2 14  1  0  0  0
  9 10  1  0  0  0
 12 11  1  0  0  0
 16 17  1  0  0  0
 14 19  1  0  0  0
 10 11  2  0  0  0
 17 20  1  0  0  0
 17 18  1  0  0  0
 19 18  1  0  0  0
 20 21  3  0  0  0
 24 25  1  0  0  0
 12 13  1  0  0  0
M  END
> <minimizedAffinity>
-7.82945

$$$$
4IVA_1J5_A_1201


 25 28  0  0  0  0  0  0  0  0999 V2000
  -13.4394   -8.9086  -10.8867 C   0  0  0  0  0  0  0  0  0  0  0  0
  -14.6017   -9.4827  -11.3275 N   0  0  0  0  0  0  0  0  0  0  0  0
  -15.4876   -8.4510  -11.6004 C   0  0  0  0  0  0  0  0  0  0  0  0
  -14.8010   -7.2600  -11.2816 C   0  0  0  0  0  0  0  0  0  0  0  0
  -13.5685   -7.6156  -10.8507 N   0  0  0  0  0  0  0  0  0  0  0  0
  -15.4262   -6.0211  -11.4449 C   0  0  0  0  0  0  0  0  0  0  0  0
  -16.6616   -5.9219  -11.8804 N   0  0  0  0  0  0  0  0  0  0  0  0
  -17.3629   -7.0107  -12.1989 C   0  0  0  0  0  0  0  0  0  0  0  0
  -16.8157   -8.3089  -12.0703 C   0  0  0  0  0  0  0  0  0  0  0  0
  -17.8812   -9.2224  -12.5176 C   0  0  0  0  0  0  0  0  0  0  0  0
  -18.9412   -8.4598  -12.8497 C   0  0  0  0  0  0  0  0  0  0  0  0
  -18.6384   -7.1284  -12.6670 N   0  0  0  0  0  0  0  0  0  0  0  0
  -19.2490   -6.3773  -12.8468 H   0  0  0  0  0  0  0  0  0  0  0  0
  -14.8055  -10.9431  -11.4619 C   0  0  0  0  0  0  0  0  0  0  0  0
  -15.8297  -11.4420  -10.4225 C   0  0  0  0  0  0  0  0  0  0  0  0
  -15.9417  -12.9765  -10.5290 C   0  0  0  0  0  0  0  0  0  0  0  0
  -16.3128  -13.3647  -11.9749 C   0  0  0  0  0  0  0  0  0  0  0  0
  -15.2809  -12.8633  -12.9979 C   0  0  0  0  0  0  0  0  0  0  0  0
  -15.1656  -11.3307  -12.9027 C   0  0  0  0  0  0  0  0  0  0  0  0
  -16.4169  -14.8284  -12.1214 C   0  0  0  0  0  0  0  0  0  0  0  0
  -16.4973  -15.9532  -12.2794 N   0  0  0  0  0  0  0  0  0  0  0  0
  -11.5240  -10.3415  -11.6918 C   0  0  0  0  0  0  0  0  0  0  0  0
  -12.1874   -9.6636  -10.4895 C   0  0  0  0  0  0  0  0  0  0  0  0
  -11.2723   -8.7593   -9.8965 O   0  0  0  0  0  0  0  0  0  0  0  0
  -11.0321   -8.0741  -10.5396 H   0  0  0  0  0  0  0  0  0  0  0  0
 24 23  1  0  0  0
  6  4  1  0  0  0
  6  7  2  0  0  0
  5  4  1  0  0  0
  5  1  2  0  0  0
  4  3  2  0  0  0
  7  8  1  0  0  0
 23  1  1  0  0  0
 23 22  1  0  0  0
  1  2  1  0  0  0
 15 16  1  0  0  0
 15 14  1  0  0  0
  8  9  2  0  0  0
  8 12  1  0  0  0
  3  2  1  0  0  0
  3  9  1  0  0  0
  2 14  1  0  0  0
  9 10  1  0  0  0
 12 11  1  0  0  0
 16 17  1  0  0  0
 14 19  1  0  0  0
 10 11  2  0  0  0
 17 20  1  0  0  0
 17 18  1  0  0  0
 19 18  1  0  0  0
 20 21  3  0  0  0
 24 25  1  0  0  0
 12 13  1  0  0  0
M  END
> <minimizedAffinity>
-7.72257

$$$$
4IVA_1J5_A_1201


 25 28  0  0  0  0  0  0  0  0999 V2000
  -13.8158  -10.5691  -10.1602 C   0  0  0  0  0  0  0  0  0  0  0  0
  -14.8674   -9.9980  -10.8258 N   0  0  0  0  0  0  0  0  0  0  0  0
  -14.6300   -8.6320  -10.8666 C   0  0  0  0  0  0  0  0  0  0  0  0
  -13.4122   -8.4326  -10.1820 C   0  0  0  0  0  0  0  0  0  0  0  0
  -12.9803   -9.6497   -9.7777 N   0  0  0  0  0  0  0  0  0  0  0  0
  -12.8855   -7.1461  -10.0415 C   0  0  0  0  0  0  0  0  0  0  0  0
  -13.5022   -6.0901  -10.5214 N   0  0  0  0  0  0  0  0  0  0  0  0
  -14.6562   -6.2131  -11.1785 C   0  0  0  0  0  0  0  0  0  0  0  0
  -15.2672   -7.4740  -11.3743 C   0  0  0  0  0  0  0  0  0  0  0  0
  -16.4980   -7.1923  -12.1329 C   0  0  0  0  0  0  0  0  0  0  0  0
  -16.5514   -5.8587  -12.3175 C   0  0  0  0  0  0  0  0  0  0  0  0
  -15.4463   -5.2611  -11.7524 N   0  0  0  0  0  0  0  0  0  0  0  0
  -15.2561   -4.2952  -11.7615 H   0  0  0  0  0  0  0  0  0  0  0  0
  -16.0134  -10.7592  -11.3730 C   0  0  0  0  0  0  0  0  0  0  0  0
  -17.3235   -9.9667  -11.1895 C   0  0  0  0  0  0  0  0  0  0  0  0
  -18.5025  -10.8307  -11.6814 C   0  0  0  0  0  0  0  0  0  0  0  0
  -18.2538  -11.2533  -13.1439 C   0  0  0  0  0  0  0  0  0  0  0  0
  -16.9465  -12.0448  -13.3094 C   0  0  0  0  0  0  0  0  0  0  0  0
  -15.7621  -11.1879  -12.8253 C   0  0  0  0  0  0  0  0  0  0  0  0
  -19.3555  -12.0939  -13.6482 C   0  0  0  0  0  0  0  0  0  0  0  0
  -20.1801  -12.7544  -14.0728 N   0  0  0  0  0  0  0  0  0  0  0  0
  -12.7715  -12.7245  -10.9563 C   0  0  0  0  0  0  0  0  0  0  0  0
  -13.6495  -12.0518   -9.8971 C   0  0  0  0  0  0  0  0  0  0  0  0
  -13.0640  -12.2305   -8.6195 O   0  0  0  0  0  0  0  0  0  0  0  0
  -12.1896  -11.8111   -8.6031 H   0  0  0  0  0  0  0  0  0  0  0  0
 24 23  1  0  0  0
  6  4  1  0  0  0
  6  7  2  0  0  0
  5  4  1  0  0  0
  5  1  2  0  0  0
  4  3  2  0  0  0
  7  8  1  0  0  0
 23  1  1  0  0  0
 23 22  1  0  0  0
  1  2  1  0  0  0
 15 16  1  0  0  0
 15 14  1  0  0  0
  8  9  2  0  0  0
  8 12  1  0  0  0
  3  2  1  0  0  0
  3  9  1  0  0  0
  2 14  1  0  0  0
  9 10  1  0  0  0
 12 11  1  0  0  0
 16 17  1  0  0  0
 14 19  1  0  0  0
 10 11  2  0  0  0
 17 20  1  0  0  0
 17 18  1  0  0  0
 19 18  1  0  0  0
 20 21  3  0  0  0
 24 25  1  0  0  0
 12 13  1  0  0  0
M  END
> <minimizedAffinity>
-7.70424

$$$$
4IVA_1J5_A_1201


 25 28  0  0  0  0  0  0  0  0999 V2000
  -12.5803   -9.8654  -10.1862 C   0  0  0  0  0  0  0  0  0  0  0  0
  -13.8022   -9.9827  -10.7930 N   0  0  0  0  0  0  0  0  0  0  0  0
  -14.3137   -8.7007  -10.9298 C   0  0  0  0  0  0  0  0  0  0  0  0
  -13.3510   -7.8397  -10.3610 C   0  0  0  0  0  0  0  0  0  0  0  0
  -12.3315   -8.6163   -9.9265 N   0  0  0  0  0  0  0  0  0  0  0  0
  -13.5669   -6.4594  -10.3371 C   0  0  0  0  0  0  0  0  0  0  0  0
  -14.6632   -5.9224  -10.8223 N   0  0  0  0  0  0  0  0  0  0  0  0
  -15.6101   -6.6829  -11.3734 C   0  0  0  0  0  0  0  0  0  0  0  0
  -15.4817   -8.0898  -11.4468 C   0  0  0  0  0  0  0  0  0  0  0  0
  -16.7094   -8.5546  -12.1150 C   0  0  0  0  0  0  0  0  0  0  0  0
  -17.4579   -7.4634  -12.3690 C   0  0  0  0  0  0  0  0  0  0  0  0
  -16.8039   -6.3324  -11.9321 N   0  0  0  0  0  0  0  0  0  0  0  0
  -17.1457   -5.4125  -12.0110 H   0  0  0  0  0  0  0  0  0  0  0  0
  -14.4050  -11.2725  -11.1996 C   0  0  0  0  0  0  0  0  0  0  0  0
  -15.7086  -11.5285  -10.4165 C   0  0  0  0  0  0  0  0  0  0  0  0
  -16.2531  -12.9209  -10.7952 C   0  0  0  0  0  0  0  0  0  0  0  0
  -16.4433  -12.9989  -12.3240 C   0  0  0  0  0  0  0  0  0  0  0  0
  -15.1349  -12.7450  -13.0896 C   0  0  0  0  0  0  0  0  0  0  0  0
  -14.5857  -11.3541  -12.7216 C   0  0  0  0  0  0  0  0  0  0  0  0
  -16.9516  -14.3228  -12.7286 C   0  0  0  0  0  0  0  0  0  0  0  0
  -17.3012  -15.3591  -13.0454 N   0  0  0  0  0  0  0  0  0  0  0  0
  -12.2619  -11.9552   -8.8072 C   0  0  0  0  0  0  0  0  0  0  0  0
  -11.6546  -11.0181   -9.8552 C   0  0  0  0  0  0  0  0  0  0  0  0
  -11.3864  -11.7486  -11.0390 O   0  0  0  0  0  0  0  0  0  0  0  0
  -12.2156  -12.1066  -11.3928 H   0  0  0  0  0  0  0  0  0  0  0  0
 24 23  1  0  0  0
  6  4  1  0  0  0
  6  7  2  0  0  0
  5  4  1  0  0  0
  5  1  2  0  0  0
  4  3  2  0  0  0
  7  8  1  0  0  0
 23  1  1  0  0  0
 23 22  1  0  0  0
  1  2  1  0  0  0
 15 16  1  0  0  0
 15 14  1  0  0  0
  8  9  2  0  0  0
  8 12  1  0  0  0
  3  2  1  0  0  0
  3  9  1  0  0  0
  2 14  1  0  0  0
  9 10  1  0  0  0
 12 11  1  0  0  0
 16 17  1  0  0  0
 14 19  1  0  0  0
 10 11  2  0  0  0
 17 20  1  0  0  0
 17 18  1  0  0  0
 19 18  1  0  0  0
 20 21  3  0  0  0
 24 25  1  0  0  0
 12 13  1  0  0  0
M  END
> <minimizedAffinity>
-7.63521

$$$$
4IVA_1J5_A_1201


 25 28  0  0  0  0  0  0  0  0999 V2000
  -16.3230  -13.4702  -12.7776 C   0  0  0  0  0  0  0  0  0  0  0  0
  -16.2045  -12.1666  -12.3758 N   0  0  0  0  0  0  0  0  0  0  0  0
  -17.3905  -11.5286  -12.7076 C   0  0  0  0  0  0  0  0  0  0  0  0
  -18.1912  -12.5071  -13.3346 C   0  0  0  0  0  0  0  0  0  0  0  0
  -17.4770  -13.6565  -13.3462 N   0  0  0  0  0  0  0  0  0  0  0  0
  -19.4688  -12.1813  -13.7972 C   0  0  0  0  0  0  0  0  0  0  0  0
  -19.9579  -10.9677  -13.6804 N   0  0  0  0  0  0  0  0  0  0  0  0
  -19.2503   -9.9994  -13.0970 C   0  0  0  0  0  0  0  0  0  0  0  0
  -17.9485  -10.2323  -12.5946 C   0  0  0  0  0  0  0  0  0  0  0  0
  -17.5148   -8.9408  -12.0342 C   0  0  0  0  0  0  0  0  0  0  0  0
  -18.5177   -8.0648  -12.2395 C   0  0  0  0  0  0  0  0  0  0  0  0
  -19.5680   -8.6922  -12.8728 N   0  0  0  0  0  0  0  0  0  0  0  0
  -20.4174   -8.2629  -13.1248 H   0  0  0  0  0  0  0  0  0  0  0  0
  -15.0019  -11.6091  -11.7160 C   0  0  0  0  0  0  0  0  0  0  0  0
  -14.3136  -10.5779  -12.6330 C   0  0  0  0  0  0  0  0  0  0  0  0
  -13.0163  -10.0935  -11.9539 C   0  0  0  0  0  0  0  0  0  0  0  0
  -13.3481   -9.5306  -10.5566 C   0  0  0  0  0  0  0  0  0  0  0  0
  -14.0302  -10.5711   -9.6541 C   0  0  0  0  0  0  0  0  0  0  0  0
  -15.3300  -11.0574  -10.3217 C   0  0  0  0  0  0  0  0  0  0  0  0
  -12.1290   -9.0678   -9.8678 C   0  0  0  0  0  0  0  0  0  0  0  0
  -11.2117   -8.6762   -9.3184 N   0  0  0  0  0  0  0  0  0  0  0  0
  -15.7584  -15.6858  -11.7086 C   0  0  0  0  0  0  0  0  0  0  0  0
  -15.2656  -14.5401  -12.5973 C   0  0  0  0  0  0  0  0  0  0  0  0
  -14.9070  -15.0527  -13.8683 O   0  0  0  0  0  0  0  0  0  0  0  0
  -15.6855  -15.4516  -14.2875 H   0  0  0  0  0  0  0  0  0  0  0  0
 24 23  1  0  0  0
  6  4  1  0  0  0
  6  7  2  0  0  0
  5  4  1  0  0  0
  5  1  2  0  0  0
  4  3  2  0  0  0
  7  8  1  0  0  0
 23  1  1  0  0  0
 23 22  1  0  0  0
  1  2  1  0  0  0
 15 16  1  0  0  0
 15 14  1  0  0  0
  8  9  2  0  0  0
  8 12  1  0  0  0
  3  2  1  0  0  0
  3  9  1  0  0  0
  2 14  1  0  0  0
  9 10  1  0  0  0
 12 11  1  0  0  0
 16 17  1  0  0  0
 14 19  1  0  0  0
 10 11  2  0  0  0
 17 20  1  0  0  0
 17 18  1  0  0  0
 19 18  1  0  0  0
 20 21  3  0  0  0
 24 25  1  0  0  0
 12 13  1  0  0  0
M  END
> <minimizedAffinity>
-7.41365

$$$$
4IVA_1J5_A_1201


 25 28  0  0  0  0  0  0  0  0999 V2000
  -15.9020  -12.7706  -12.3202 C   0  0  0  0  0  0  0  0  0  0  0  0
  -14.8478  -12.1806  -11.6756 N   0  0  0  0  0  0  0  0  0  0  0  0
  -14.0134  -13.2001  -11.2418 C   0  0  0  0  0  0  0  0  0  0  0  0
  -14.6350  -14.4023  -11.6419 C   0  0  0  0  0  0  0  0  0  0  0  0
  -15.7767  -14.0639  -12.2846 N   0  0  0  0  0  0  0  0  0  0  0  0
  -14.0410  -15.6332  -11.3511 C   0  0  0  0  0  0  0  0  0  0  0  0
  -12.9076  -15.7156  -10.6921 N   0  0  0  0  0  0  0  0  0  0  0  0
  -12.2714  -14.6156  -10.2873 C   0  0  0  0  0  0  0  0  0  0  0  0
  -12.7918  -13.3239  -10.5368 C   0  0  0  0  0  0  0  0  0  0  0  0
  -11.8133  -12.3937   -9.9477 C   0  0  0  0  0  0  0  0  0  0  0  0
  -10.8361  -13.1429   -9.4008 C   0  0  0  0  0  0  0  0  0  0  0  0
  -11.0989  -14.4799   -9.6041 N   0  0  0  0  0  0  0  0  0  0  0  0
  -10.5281  -15.2231   -9.3025 H   0  0  0  0  0  0  0  0  0  0  0  0
  -14.6925  -10.7177  -11.5085 C   0  0  0  0  0  0  0  0  0  0  0  0
  -15.0005  -10.3058  -10.0547 C   0  0  0  0  0  0  0  0  0  0  0  0
  -14.9234   -8.7694   -9.9442 C   0  0  0  0  0  0  0  0  0  0  0  0
  -13.5390   -8.2892  -10.4260 C   0  0  0  0  0  0  0  0  0  0  0  0
  -13.2487   -8.7046  -11.8772 C   0  0  0  0  0  0  0  0  0  0  0  0
  -13.3185  -10.2383  -11.9966 C   0  0  0  0  0  0  0  0  0  0  0  0
  -13.4299   -6.8206  -10.3480 C   0  0  0  0  0  0  0  0  0  0  0  0
  -13.3589   -5.6843  -10.3311 N   0  0  0  0  0  0  0  0  0  0  0  0
  -18.0897  -11.5691  -11.9454 C   0  0  0  0  0  0  0  0  0  0  0  0
  -17.0521  -12.0312  -12.9727 C   0  0  0  0  0  0  0  0  0  0  0  0
  -16.5428  -10.9049  -13.6647 O   0  0  0  0  0  0  0  0  0  0  0  0
  -16.1062  -10.3093  -13.0359 H   0  0  0  0  0  0  0  0  0  0  0  0
 24 23  1  0  0  0
  6  4  1  0  0  0
  6  7  2  0  0  0
  5  4  1  0  0  0
  5  1  2  0  0  0
  4  3  2  0  0  0
  7  8  1  0  0  0
 23  1  1  0  0  0
 23 22  1  0  0  0
  1  2  1  0  0  0
 15 16  1  0  0  0
 15 14  1  0  0  0
  8  9  2  0  0  0
  8 12  1  0  0  0
  3  2  1  0  0  0
  3  9  1  0  0  0
  2 14  1  0  0  0
  9 10  1  0  0  0
 12 11  1  0  0  0
 16 17  1  0  0  0
 14 19  1  0  0  0
 10 11  2  0  0  0
 17 20  1  0  0  0
 17 18  1  0  0  0
 19 18  1  0  0  0
 20 21  3  0  0  0
 24 25  1  0  0  0
 12 13  1  0  0  0
M  END
> <minimizedAffinity>
-7.21922

$$$$
