1G53_F6B_A_555
  RCSB PDB12061702343D
Coordinates from PDB:1G53:A:555 Model:1 without hydrogens
 22 23  0  0  0  0            999 V2000
   -3.7680    3.4250   14.6740   C 0  0  0  0  0  0  0  0  0  0  0  0
   -4.1570    2.3160   15.4320   C 0  0  0  0  0  0  0  0  0  0  0  0
   -5.5080    2.2120   15.8600   C 0  0  0  0  0  0  0  0  0  0  0  0
   -6.3880    3.2440   15.5080   C 0  0  0  0  0  0  0  0  0  0  0  0
   -5.9630    4.3370   14.7630   C 0  0  0  0  0  0  0  0  0  0  0  0
   -4.6610    4.4450   14.3310   C 0  0  0  0  0  0  0  0  0  0  0  0
   -4.2310    5.6510   13.4910   C 0  0  0  0  0  0  0  0  0  0  0  0
   -5.1200    6.4610   13.2620   O 0  0  0  0  0  0  0  0  0  0  0  0
   -2.9350    5.9180   12.9430   N 0  0  0  0  0  0  0  0  0  0  0  0
   -2.6530    7.3290   12.7280   C 0  0  0  0  0  0  0  0  0  0  0  0
   -6.0100    0.7770   16.8160   S 0  0  0  0  0  0  0  0  0  0  0  0
   -5.5210   -0.6150   16.0610   N 0  0  0  0  0  0  0  0  0  0  0  0
   -7.4390    1.0090   16.9510   O 0  0  0  0  0  0  0  0  0  0  0  0
   -5.3740    0.9890   18.1060   O 0  0  0  0  0  0  0  0  0  0  0  0
   -1.5610    7.9550   13.3490   C 0  0  0  0  0  0  0  0  0  0  0  0
   -0.2950    7.9540   12.6830   C 0  0  0  0  0  0  0  0  0  0  0  0
    0.8120    8.6020   13.3330   C 0  0  0  0  0  0  0  0  0  0  0  0
    0.6240    9.2310   14.6240   C 0  0  0  0  0  0  0  0  0  0  0  0
   -0.6590    9.2190   15.2750   C 0  0  0  0  0  0  0  0  0  0  0  0
   -1.7460    8.5840   14.6450   C 0  0  0  0  0  0  0  0  0  0  0  0
   -0.1380    7.3680   11.4880   F 0  0  0  0  0  0  0  0  0  0  0  0
   -2.9340    8.5820   15.2660   F 0  0  0  0  0  0  0  0  0  0  0  0
  1  2  2  0  0  0  0
  1  6  1  0  0  0  0
  2  3  1  0  0  0  0
  3  4  2  0  0  0  0
  3 11  1  0  0  0  0
  4  5  1  0  0  0  0
  5  6  2  0  0  0  0
  6  7  1  0  0  0  0
  7  8  2  0  0  0  0
  7  9  1  0  0  0  0
  9 10  1  0  0  0  0
 10 15  1  0  0  0  0
 11 12  1  0  0  0  0
 11 13  2  0  0  0  0
 11 14  2  0  0  0  0
 15 16  2  0  0  0  0
 15 20  1  0  0  0  0
 16 17  1  0  0  0  0
 16 21  1  0  0  0  0
 17 18  2  0  0  0  0
 18 19  1  0  0  0  0
 19 20  2  0  0  0  0
 20 22  1  0  0  0  0
A    1
C01
A    2
C02
A    3
C03
A    4
C04
A    5
C05
A    6
C06
A    7
C07
A    8
O08
A    9
N09
A   10
C10
A   11
S11
A   12
NP2
A   13
O13
A   14
O14
A   15
C15
A   16
C16
A   17
C17
A   18
C18
A   19
C19
A   20
C20
A   21
F21
A   22
F22
M  END
>  <InstanceId>
1G53_F6B_A_555

>  <ChemCompId>
F6B

>  <PdbId>
1G53

>  <ChainId>
A

>  <ResidueNumber>
555

>  <InsertionCode>


>  <Model>
1

>  <AltIds>


>  <MissingHeavyAtoms>
0

>  <ObservedFormula>
C14 N2 O3 S F2

>  <Name>
N-(2,6-DIFLOURO-BENZYL)-4-SULFAMOYL-BENZAMIDE

>  <SystematicName>
N-[(2,6-difluorophenyl)methyl]-4-sulfamoyl-benzamide

>  <Synonyms>


>  <Type>
NON-POLYMER

>  <Formula>
C14 H12 F2 N2 O3 S

>  <MolecularWeight>
326.318

>  <ModifiedDate>
2011-06-04

>  <Parent>


>  <OneLetterCode>


>  <SubcomponentList>


>  <AmbiguousFlag>
N

>  <InChI>
InChI=1S/C14H12F2N2O3S/c15-12-2-1-3-13(16)11(12)8-18-14(19)9-4-6-10(7-5-9)22(17,20)21/h1-7H,8H2,(H,18,19)(H2,17,20,21)

>  <InChIKey>
ZFNCKGXGCCDDFN-UHFFFAOYSA-N

>  <SMILES>
c1cc(c(c(c1)F)CNC(=O)c2ccc(cc2)S(=O)(=O)N)F

$$$$
