3GCU_R48_A_401
  RCSB PDB12061708433D
Coordinates from PDB:3GCU:A:401 Model:1 without hydrogens
 38 42  0  0  0  0            999 V2000
   12.0610    1.4800    3.3380   C 0  0  0  0  0  0  0  0  0  0  0  0
   12.0070    2.3380    2.2090   C 0  0  0  0  0  0  0  0  0  0  0  0
   11.8720    3.7320    2.3700   C 0  0  0  0  0  0  0  0  0  0  0  0
   11.8240    4.5870    1.2970   N 0  0  0  0  0  0  0  0  0  0  0  0
   11.8020    4.2330    3.6680   C 0  0  0  0  0  0  0  0  0  0  0  0
   11.8560    3.3990    4.8000   C 0  0  0  0  0  0  0  0  0  0  0  0
   11.9780    2.0200    4.6330   C 0  0  0  0  0  0  0  0  0  0  0  0
   12.0290    1.2170    5.7020   N 0  0  0  0  0  0  0  0  0  0  0  0
   12.1450   -0.1200    5.5590   C 0  0  0  0  0  0  0  0  0  0  0  0
   12.2280   -0.6770    4.3440   N 0  0  0  0  0  0  0  0  0  0  0  0
   12.1770    0.0800    3.2080   C 0  0  0  0  0  0  0  0  0  0  0  0
   12.2660   -0.4790    1.9810   N 0  0  0  0  0  0  0  0  0  0  0  0
   12.0430   -1.8130    1.7190   C 0  0  0  0  0  0  0  0  0  0  0  0
   12.9910   -2.5650    0.9780   C 0  0  0  0  0  0  0  0  0  0  0  0
   10.8580   -2.4440    2.1280   C 0  0  0  0  0  0  0  0  0  0  0  0
   10.6260   -3.7960    1.8160   C 0  0  0  0  0  0  0  0  0  0  0  0
   11.5770   -4.5270    1.0960   C 0  0  0  0  0  0  0  0  0  0  0  0
   12.7690   -3.9180    0.6790   C 0  0  0  0  0  0  0  0  0  0  0  0
   13.6160   -4.7000   -0.0190   N 0  0  0  0  0  0  0  0  0  0  0  0
   14.9170   -4.9360    0.1640   C 0  0  0  0  0  0  0  0  0  0  0  0
   15.5560   -4.4140    1.0730   O 0  0  0  0  0  0  0  0  0  0  0  0
   15.4700   -5.7740   -0.7320   N 0  0  0  0  0  0  0  0  0  0  0  0
   16.7290   -6.3000   -0.7260   C 0  0  0  0  0  0  0  0  0  0  0  0
   17.5120   -6.5020    0.3640   C 0  0  0  0  0  0  0  0  0  0  0  0
   18.6130   -7.1730   -0.0660   C 0  0  0  0  0  0  0  0  0  0  0  0
   19.8240   -7.6190    0.8090   C 0  0  0  0  0  0  0  0  0  0  0  0
   19.3350   -8.8180    1.6190   C 0  0  0  0  0  0  0  0  0  0  0  0
   21.0840   -8.0740    0.0650   C 0  0  0  0  0  0  0  0  0  0  0  0
   20.2420   -6.5170    1.7550   C 0  0  0  0  0  0  0  0  0  0  0  0
   18.4510   -7.4100   -1.3650   N 0  0  0  0  0  0  0  0  0  0  0  0
   17.3430   -6.9310   -1.7330   N 0  0  0  0  0  0  0  0  0  0  0  0
   16.8790   -7.0260   -2.9950   C 0  0  0  0  0  0  0  0  0  0  0  0
   16.9710   -8.2910   -3.5790   C 0  0  0  0  0  0  0  0  0  0  0  0
   16.5220   -8.5200   -4.8690   C 0  0  0  0  0  0  0  0  0  0  0  0
   15.9620   -7.4810   -5.5880   C 0  0  0  0  0  0  0  0  0  0  0  0
   15.5020   -7.7570   -7.0240   C 0  0  0  0  0  0  0  0  0  0  0  0
   15.8650   -6.2040   -5.0370   C 0  0  0  0  0  0  0  0  0  0  0  0
   16.3140   -5.9630   -3.7230   C 0  0  0  0  0  0  0  0  0  0  0  0
  2  1  2  0  0  0  0
 11  1  1  0  0  0  0
  1  7  1  0  0  0  0
  2  3  1  0  0  0  0
  4  3  1  0  0  0  0
  3  5  2  0  0  0  0
  5  6  1  0  0  0  0
  7  6  2  0  0  0  0
  7  8  1  0  0  0  0
  9  8  2  0  0  0  0
 10  9  1  0  0  0  0
 11 10  2  0  0  0  0
 12 11  1  0  0  0  0
 13 12  1  0  0  0  0
 14 13  2  0  0  0  0
 13 15  1  0  0  0  0
 18 14  1  0  0  0  0
 16 15  2  0  0  0  0
 17 16  1  0  0  0  0
 18 17  2  0  0  0  0
 19 18  1  0  0  0  0
 19 20  1  0  0  0  0
 22 20  1  0  0  0  0
 20 21  2  0  0  0  0
 23 22  1  0  0  0  0
 31 23  1  0  0  0  0
 23 24  2  0  0  0  0
 25 24  1  0  0  0  0
 30 25  2  0  0  0  0
 25 26  1  0  0  0  0
 28 26  1  0  0  0  0
 26 29  1  0  0  0  0
 26 27  1  0  0  0  0
 31 30  1  0  0  0  0
 32 31  1  0  0  0  0
 38 32  2  0  0  0  0
 33 32  1  0  0  0  0
 34 33  2  0  0  0  0
 35 34  1  0  0  0  0
 36 35  1  0  0  0  0
 35 37  2  0  0  0  0
 37 38  1  0  0  0  0
A    1
C5
A    2
C1S
A    3
C2B
A    4
N1E
A    5
C1M
A    6
C1P
A    7
C4
A    8
N3
A    9
C2
A   10
N1
A   11
C6
A   12
N1Y
A   13
C2D
A   14
C1Q
A   15
C1J
A   16
C1G
A   17
C1I
A   18
C2C
A   19
N1W
A   20
C1Z
A   21
O1F
A   22
N1X
A   23
C2G
A   24
C1R
A   25
C2F
A   26
C2L
A   27
C1C
A   28
C1D
A   29
C1B
A   30
N1V
A   31
N2K
A   32
C2E
A   33
C1N
A   34
C1K
A   35
C2A
A   36
C1A
A   37
C1L
A   38
C1O
M  END
>  <InstanceId>
3GCU_R48_A_401

>  <ChemCompId>
R48

>  <PdbId>
3GCU

>  <ChainId>
A

>  <ResidueNumber>
401

>  <InsertionCode>


>  <Model>
1

>  <AltIds>


>  <MissingHeavyAtoms>
0

>  <ObservedFormula>
C29 N8 O

>  <Name>
1-{3-[(6-aminoquinazolin-4-yl)amino]phenyl}-3-[3-tert-butyl-1-(4-methylphenyl)-1H-pyrazol-5-yl]urea

>  <SystematicName>
1-[3-[(6-aminoquinazolin-4-yl)amino]phenyl]-3-[5-tert-butyl-2-(4-methylphenyl)pyrazol-3-yl]urea

>  <Synonyms>
1-(3-(6-aminoquinazolin-4-ylamino)phenyl)-3-(3-tert-butyl-1-p-tolyl-1H-pyrazol-5-yl)urea

>  <Type>
NON-POLYMER

>  <Formula>
C29 H30 N8 O

>  <MolecularWeight>
506.602

>  <ModifiedDate>
2011-06-04

>  <Parent>


>  <OneLetterCode>


>  <SubcomponentList>


>  <AmbiguousFlag>
N

>  <InChI>
InChI=1S/C29H30N8O/c1-18-8-11-22(12-9-18)37-26(16-25(36-37)29(2,3)4)35-28(38)34-21-7-5-6-20(15-21)33-27-23-14-19(30)10-13-24(23)31-17-32-27/h5-17H,30H2,1-4H3,(H,31,32,33)(H2,34,35,38)

>  <InChIKey>
NTLVXUKPLVSAJT-UHFFFAOYSA-N

>  <SMILES>
Cc1ccc(cc1)n2c(cc(n2)C(C)(C)C)NC(=O)Nc3cccc(c3)Nc4c5cc(ccc5ncn4)N

$$$$
