3GCU_R48_A_401


 43 47  0  0  0  0  0  0  0  0999 V2000
   13.6869   -4.7307    0.0752 N   0  0  0  0  0  0  0  0  0  0  0  0
   14.9904   -4.9471    0.2644 C   0  0  0  0  0  0  0  0  0  0  0  0
   15.6355   -4.3523    1.1230 O   0  0  0  0  0  0  0  0  0  0  0  0
   15.5387   -5.8521   -0.5671 N   0  0  0  0  0  0  0  0  0  0  0  0
   13.2780   -5.2623   -0.6455 H   0  0  0  0  0  0  0  0  0  0  0  0
   14.9579   -6.1797   -1.2914 H   0  0  0  0  0  0  0  0  0  0  0  0
   12.1325   -1.7260    1.6196 C   0  0  0  0  0  0  0  0  0  0  0  0
   13.0780   -2.5321    0.9344 C   0  0  0  0  0  0  0  0  0  0  0  0
   10.9370   -2.3179    2.0556 C   0  0  0  0  0  0  0  0  0  0  0  0
   10.6922   -3.6838    1.8246 C   0  0  0  0  0  0  0  0  0  0  0  0
   11.6408   -4.4677    1.1591 C   0  0  0  0  0  0  0  0  0  0  0  0
   12.8431   -3.8983    0.7165 C   0  0  0  0  0  0  0  0  0  0  0  0
   12.3685   -0.3809    1.8017 N   0  0  0  0  0  0  0  0  0  0  0  0
   12.6073    0.1557    1.0116 H   0  0  0  0  0  0  0  0  0  0  0  0
   12.0405    1.6364    3.0442 C   0  0  0  0  0  0  0  0  0  0  0  0
   11.8320    2.4051    1.8697 C   0  0  0  0  0  0  0  0  0  0  0  0
   11.5626    3.7864    1.9518 C   0  0  0  0  0  0  0  0  0  0  0  0
   11.3636    4.5566    0.8329 N   0  0  0  0  0  0  0  0  0  0  0  0
   11.5166    4.3659    3.2178 C   0  0  0  0  0  0  0  0  0  0  0  0
   11.7227    3.6213    4.3938 C   0  0  0  0  0  0  0  0  0  0  0  0
   11.9774    2.2531    4.3056 C   0  0  0  0  0  0  0  0  0  0  0  0
   12.1737    1.5346    5.4171 N   0  0  0  0  0  0  0  0  0  0  0  0
   12.4194    0.2092    5.3506 C   0  0  0  0  0  0  0  0  0  0  0  0
   12.4889   -0.4189    4.1699 N   0  0  0  0  0  0  0  0  0  0  0  0
   12.2935    0.2494    2.9946 C   0  0  0  0  0  0  0  0  0  0  0  0
   11.3967    4.1445   -0.0605 H   0  0  0  0  0  0  0  0  0  0  0  0
   11.1879    5.5210    0.9240 H   0  0  0  0  0  0  0  0  0  0  0  0
   16.7998   -6.3718   -0.5309 C   0  0  0  0  0  0  0  0  0  0  0  0
   17.5510   -6.5854    0.5790 C   0  0  0  0  0  0  0  0  0  0  0  0
   18.6680   -7.2447    0.1727 C   0  0  0  0  0  0  0  0  0  0  0  0
   18.5461   -7.4640   -1.1338 N   0  0  0  0  0  0  0  0  0  0  0  0
   17.4470   -6.9853   -1.5279 N   0  0  0  0  0  0  0  0  0  0  0  0
   17.0213   -7.0646   -2.8044 C   0  0  0  0  0  0  0  0  0  0  0  0
   17.0321   -8.3427   -3.3667 C   0  0  0  0  0  0  0  0  0  0  0  0
   16.6117   -8.5572   -4.6688 C   0  0  0  0  0  0  0  0  0  0  0  0
   16.1622   -7.4894   -5.4223 C   0  0  0  0  0  0  0  0  0  0  0  0
   15.7321   -7.7524   -6.8700 C   0  0  0  0  0  0  0  0  0  0  0  0
   16.1485   -6.1995   -4.8933 C   0  0  0  0  0  0  0  0  0  0  0  0
   16.5691   -5.9726   -3.5675 C   0  0  0  0  0  0  0  0  0  0  0  0
   19.8547   -7.6971    1.0771 C   0  0  0  0  0  0  0  0  0  0  0  0
   19.2935   -8.7864    1.9889 C   0  0  0  0  0  0  0  0  0  0  0  0
   21.0729   -8.2995    0.3691 C   0  0  0  0  0  0  0  0  0  0  0  0
   20.3568   -6.5502    1.9235 C   0  0  0  0  0  0  0  0  0  0  0  0
 16 15  2  0  0  0
 25 15  1  0  0  0
 15 21  1  0  0  0
 16 17  1  0  0  0
 18 17  1  0  0  0
 17 19  2  0  0  0
 19 20  1  0  0  0
 21 20  2  0  0  0
 21 22  1  0  0  0
 23 22  2  0  0  0
 24 23  1  0  0  0
 25 24  2  0  0  0
 13 25  1  0  0  0
  7 13  1  0  0  0
  8  7  2  0  0  0
  7  9  1  0  0  0
 12  8  1  0  0  0
 10  9  2  0  0  0
 11 10  1  0  0  0
 12 11  2  0  0  0
  1 12  1  0  0  0
  1  2  1  0  0  0
  4  2  1  0  0  0
  2  3  2  0  0  0
 28  4  1  0  0  0
 32 28  1  0  0  0
 28 29  2  0  0  0
 30 29  1  0  0  0
 31 30  2  0  0  0
 30 40  1  0  0  0
 42 40  1  0  0  0
 40 43  1  0  0  0
 40 41  1  0  0  0
 32 31  1  0  0  0
 33 32  1  0  0  0
 39 33  2  0  0  0
 34 33  1  0  0  0
 35 34  2  0  0  0
 36 35  1  0  0  0
 37 36  1  0  0  0
 36 38  2  0  0  0
 38 39  1  0  0  0
 18 26  1  0  0  0
 18 27  1  0  0  0
 13 14  1  0  0  0
  1  5  1  0  0  0
  4  6  1  0  0  0
M  END
> <minimizedAffinity>
-13.99273

$$$$
3GCU_R48_A_401


 43 47  0  0  0  0  0  0  0  0999 V2000
   13.6981   -5.0200    0.3108 N   0  0  0  0  0  0  0  0  0  0  0  0
   15.0311   -5.0892    0.3287 C   0  0  0  0  0  0  0  0  0  0  0  0
   15.7195   -4.2993    0.9684 O   0  0  0  0  0  0  0  0  0  0  0  0
   15.5549   -6.0782   -0.4186 N   0  0  0  0  0  0  0  0  0  0  0  0
   13.2542   -5.7036   -0.2414 H   0  0  0  0  0  0  0  0  0  0  0  0
   14.9190   -6.5769   -0.9809 H   0  0  0  0  0  0  0  0  0  0  0  0
   12.2786   -2.0341    2.0134 C   0  0  0  0  0  0  0  0  0  0  0  0
   13.2215   -2.8766    1.3697 C   0  0  0  0  0  0  0  0  0  0  0  0
   10.9657   -2.5013    2.1805 C   0  0  0  0  0  0  0  0  0  0  0  0
   10.6018   -3.7823    1.7268 C   0  0  0  0  0  0  0  0  0  0  0  0
   11.5472   -4.6056    1.1060 C   0  0  0  0  0  0  0  0  0  0  0  0
   12.8651   -4.1607    0.9303 C   0  0  0  0  0  0  0  0  0  0  0  0
   12.6395   -0.7667    2.4150 N   0  0  0  0  0  0  0  0  0  0  0  0
   13.0036   -0.6577    3.3232 H   0  0  0  0  0  0  0  0  0  0  0  0
   12.2161    1.5804    2.2323 C   0  0  0  0  0  0  0  0  0  0  0  0
   12.0412    1.7259    3.6330 C   0  0  0  0  0  0  0  0  0  0  0  0
   11.7504    2.9857    4.1950 C   0  0  0  0  0  0  0  0  0  0  0  0
   11.5691    3.1555    5.5452 N   0  0  0  0  0  0  0  0  0  0  0  0
   11.6343    4.0722    3.3309 C   0  0  0  0  0  0  0  0  0  0  0  0
   11.8020    3.9478    1.9394 C   0  0  0  0  0  0  0  0  0  0  0  0
   12.1009    2.7008    1.3916 C   0  0  0  0  0  0  0  0  0  0  0  0
   12.2639    2.5707    0.0700 N   0  0  0  0  0  0  0  0  0  0  0  0
   12.5554    1.3719   -0.4772 C   0  0  0  0  0  0  0  0  0  0  0  0
   12.6736    0.2780    0.2862 N   0  0  0  0  0  0  0  0  0  0  0  0
   12.5261    0.3365    1.6430 C   0  0  0  0  0  0  0  0  0  0  0  0
   11.6517    2.3860    6.1536 H   0  0  0  0  0  0  0  0  0  0  0  0
   11.3565    4.0469    5.9050 H   0  0  0  0  0  0  0  0  0  0  0  0
   16.8581   -6.4756   -0.4935 C   0  0  0  0  0  0  0  0  0  0  0  0
   17.6961   -6.6893    0.5524 C   0  0  0  0  0  0  0  0  0  0  0  0
   18.8402   -7.2097    0.0351 C   0  0  0  0  0  0  0  0  0  0  0  0
   18.6545   -7.3523   -1.2744 N   0  0  0  0  0  0  0  0  0  0  0  0
   17.4928   -6.9564   -1.5683 N   0  0  0  0  0  0  0  0  0  0  0  0
   16.9944   -6.9913   -2.8202 C   0  0  0  0  0  0  0  0  0  0  0  0
   16.5199   -5.7751   -3.3158 C   0  0  0  0  0  0  0  0  0  0  0  0
   15.9900   -5.6781   -4.5916 C   0  0  0  0  0  0  0  0  0  0  0  0
   15.9400   -6.8023   -5.3939 C   0  0  0  0  0  0  0  0  0  0  0  0
   15.3202   -6.6711   -6.7898 C   0  0  0  0  0  0  0  0  0  0  0  0
   16.3963   -8.0334   -4.9249 C   0  0  0  0  0  0  0  0  0  0  0  0
   16.9425   -8.1404   -3.6301 C   0  0  0  0  0  0  0  0  0  0  0  0
   20.1196   -7.6050    0.8338 C   0  0  0  0  0  0  0  0  0  0  0  0
   19.7486   -8.8589    1.6231 C   0  0  0  0  0  0  0  0  0  0  0  0
   21.3664   -7.9531    0.0138 C   0  0  0  0  0  0  0  0  0  0  0  0
   20.5149   -6.5098    1.7974 C   0  0  0  0  0  0  0  0  0  0  0  0
 16 15  2  0  0  0
 25 15  1  0  0  0
 15 21  1  0  0  0
 16 17  1  0  0  0
 18 17  1  0  0  0
 17 19  2  0  0  0
 19 20  1  0  0  0
 21 20  2  0  0  0
 21 22  1  0  0  0
 23 22  2  0  0  0
 24 23  1  0  0  0
 25 24  2  0  0  0
 13 25  1  0  0  0
  7 13  1  0  0  0
  8  7  2  0  0  0
  7  9  1  0  0  0
 12  8  1  0  0  0
 10  9  2  0  0  0
 11 10  1  0  0  0
 12 11  2  0  0  0
  1 12  1  0  0  0
  1  2  1  0  0  0
  4  2  1  0  0  0
  2  3  2  0  0  0
 28  4  1  0  0  0
 32 28  1  0  0  0
 28 29  2  0  0  0
 30 29  1  0  0  0
 31 30  2  0  0  0
 30 40  1  0  0  0
 42 40  1  0  0  0
 40 43  1  0  0  0
 40 41  1  0  0  0
 32 31  1  0  0  0
 33 32  1  0  0  0
 39 33  2  0  0  0
 34 33  1  0  0  0
 35 34  2  0  0  0
 36 35  1  0  0  0
 37 36  1  0  0  0
 36 38  2  0  0  0
 38 39  1  0  0  0
 18 26  1  0  0  0
 18 27  1  0  0  0
 13 14  1  0  0  0
  1  5  1  0  0  0
  4  6  1  0  0  0
M  END
> <minimizedAffinity>
-13.11742

$$$$
3GCU_R48_A_401


 43 47  0  0  0  0  0  0  0  0999 V2000
   13.6495   -5.1276    0.3711 N   0  0  0  0  0  0  0  0  0  0  0  0
   14.9754   -5.2795    0.3976 C   0  0  0  0  0  0  0  0  0  0  0  0
   15.6921   -4.6465    1.1676 O   0  0  0  0  0  0  0  0  0  0  0  0
   15.4599   -6.1648   -0.4926 N   0  0  0  0  0  0  0  0  0  0  0  0
   13.1809   -5.6848   -0.2916 H   0  0  0  0  0  0  0  0  0  0  0  0
   14.8105   -6.5266   -1.1380 H   0  0  0  0  0  0  0  0  0  0  0  0
   12.3932   -2.4981    2.6814 C   0  0  0  0  0  0  0  0  0  0  0  0
   13.3043   -3.2920    1.9377 C   0  0  0  0  0  0  0  0  0  0  0  0
   11.0195   -2.7549    2.5527 C   0  0  0  0  0  0  0  0  0  0  0  0
   10.5628   -3.7854    1.7109 C   0  0  0  0  0  0  0  0  0  0  0  0
   11.4751   -4.5677    0.9947 C   0  0  0  0  0  0  0  0  0  0  0  0
   12.8521   -4.3307    1.1095 C   0  0  0  0  0  0  0  0  0  0  0  0
   12.8536   -1.4661    3.4694 N   0  0  0  0  0  0  0  0  0  0  0  0
   13.4899   -1.6842    4.1882 H   0  0  0  0  0  0  0  0  0  0  0  0
   12.5355    0.4286    2.0446 C   0  0  0  0  0  0  0  0  0  0  0  0
   12.9343   -0.2899    0.8878 C   0  0  0  0  0  0  0  0  0  0  0  0
   12.9536    0.3340   -0.3762 C   0  0  0  0  0  0  0  0  0  0  0  0
   13.3413   -0.3337   -1.5113 N   0  0  0  0  0  0  0  0  0  0  0  0
   12.5774    1.6735   -0.4460 C   0  0  0  0  0  0  0  0  0  0  0  0
   12.1810    2.4036    0.6897 C   0  0  0  0  0  0  0  0  0  0  0  0
   12.1532    1.7767    1.9349 C   0  0  0  0  0  0  0  0  0  0  0  0
   11.7768    2.4605    3.0216 N   0  0  0  0  0  0  0  0  0  0  0  0
   11.7421    1.8693    4.2344 C   0  0  0  0  0  0  0  0  0  0  0  0
   12.0986    0.5873    4.3848 N   0  0  0  0  0  0  0  0  0  0  0  0
   12.4882   -0.1738    3.3194 C   0  0  0  0  0  0  0  0  0  0  0  0
   13.6068   -1.2803   -1.4591 H   0  0  0  0  0  0  0  0  0  0  0  0
   13.3539    0.1340   -2.3775 H   0  0  0  0  0  0  0  0  0  0  0  0
   16.7396   -6.6232   -0.6115 C   0  0  0  0  0  0  0  0  0  0  0  0
   17.5663   -6.9758    0.4055 C   0  0  0  0  0  0  0  0  0  0  0  0
   18.6798   -7.5078   -0.1641 C   0  0  0  0  0  0  0  0  0  0  0  0
   18.4848   -7.5206   -1.4800 N   0  0  0  0  0  0  0  0  0  0  0  0
   17.3459   -7.0377   -1.7294 N   0  0  0  0  0  0  0  0  0  0  0  0
   16.8446   -6.9318   -2.9762 C   0  0  0  0  0  0  0  0  0  0  0  0
   16.4030   -5.6591   -3.3437 C   0  0  0  0  0  0  0  0  0  0  0  0
   15.8737   -5.4187   -4.6008 C   0  0  0  0  0  0  0  0  0  0  0  0
   15.7914   -6.4539   -5.5127 C   0  0  0  0  0  0  0  0  0  0  0  0
   15.1730   -6.1649   -6.8853 C   0  0  0  0  0  0  0  0  0  0  0  0
   16.2144   -7.7382   -5.1730 C   0  0  0  0  0  0  0  0  0  0  0  0
   16.7596   -7.9909   -3.8982 C   0  0  0  0  0  0  0  0  0  0  0  0
   19.9370   -8.0423    0.5873 C   0  0  0  0  0  0  0  0  0  0  0  0
   21.0882   -7.1245    0.1808 C   0  0  0  0  0  0  0  0  0  0  0  0
   19.8839   -8.0308    2.1187 C   0  0  0  0  0  0  0  0  0  0  0  0
   20.2571   -9.4579    0.1660 C   0  0  0  0  0  0  0  0  0  0  0  0
 16 15  2  0  0  0
 25 15  1  0  0  0
 15 21  1  0  0  0
 16 17  1  0  0  0
 18 17  1  0  0  0
 17 19  2  0  0  0
 19 20  1  0  0  0
 21 20  2  0  0  0
 21 22  1  0  0  0
 23 22  2  0  0  0
 24 23  1  0  0  0
 25 24  2  0  0  0
 13 25  1  0  0  0
  7 13  1  0  0  0
  8  7  2  0  0  0
  7  9  1  0  0  0
 12  8  1  0  0  0
 10  9  2  0  0  0
 11 10  1  0  0  0
 12 11  2  0  0  0
  1 12  1  0  0  0
  1  2  1  0  0  0
  4  2  1  0  0  0
  2  3  2  0  0  0
 28  4  1  0  0  0
 32 28  1  0  0  0
 28 29  2  0  0  0
 30 29  1  0  0  0
 31 30  2  0  0  0
 30 40  1  0  0  0
 42 40  1  0  0  0
 40 43  1  0  0  0
 40 41  1  0  0  0
 32 31  1  0  0  0
 33 32  1  0  0  0
 39 33  2  0  0  0
 34 33  1  0  0  0
 35 34  2  0  0  0
 36 35  1  0  0  0
 37 36  1  0  0  0
 36 38  2  0  0  0
 38 39  1  0  0  0
 18 26  1  0  0  0
 18 27  1  0  0  0
 13 14  1  0  0  0
  1  5  1  0  0  0
  4  6  1  0  0  0
M  END
> <minimizedAffinity>
-12.44615

$$$$
3GCU_R48_A_401


 43 47  0  0  0  0  0  0  0  0999 V2000
   14.3365   -5.0157    0.3570 N   0  0  0  0  0  0  0  0  0  0  0  0
   14.9115   -5.0333   -0.8475 C   0  0  0  0  0  0  0  0  0  0  0  0
   14.6244   -4.2214   -1.7224 O   0  0  0  0  0  0  0  0  0  0  0  0
   15.8131   -6.0159   -1.0281 N   0  0  0  0  0  0  0  0  0  0  0  0
   14.6433   -5.7189    0.9739 H   0  0  0  0  0  0  0  0  0  0  0  0
   15.8791   -6.6790   -0.3035 H   0  0  0  0  0  0  0  0  0  0  0  0
   12.5591   -2.0189    1.6570 C   0  0  0  0  0  0  0  0  0  0  0  0
   13.6014   -2.8225    1.1268 C   0  0  0  0  0  0  0  0  0  0  0  0
   11.3073   -2.6100    1.8875 C   0  0  0  0  0  0  0  0  0  0  0  0
   11.1000   -3.9729    1.6068 C   0  0  0  0  0  0  0  0  0  0  0  0
   12.1422   -4.7545    1.0968 C   0  0  0  0  0  0  0  0  0  0  0  0
   13.4018   -4.1858    0.8607 C   0  0  0  0  0  0  0  0  0  0  0  0
   12.7656   -0.6765    1.8877 N   0  0  0  0  0  0  0  0  0  0  0  0
   13.1021   -0.1277    1.1428 H   0  0  0  0  0  0  0  0  0  0  0  0
   12.1773    1.2997    3.1000 C   0  0  0  0  0  0  0  0  0  0  0  0
   12.0194    2.0616    1.9132 C   0  0  0  0  0  0  0  0  0  0  0  0
   11.6416    3.4184    1.9737 C   0  0  0  0  0  0  0  0  0  0  0  0
   11.4880    4.1819    0.8432 N   0  0  0  0  0  0  0  0  0  0  0  0
   11.4382    3.9814    3.2316 C   0  0  0  0  0  0  0  0  0  0  0  0
   11.5919    3.2433    4.4197 C   0  0  0  0  0  0  0  0  0  0  0  0
   11.9546    1.8986    4.3519 C   0  0  0  0  0  0  0  0  0  0  0  0
   12.1023    1.1865    5.4749 N   0  0  0  0  0  0  0  0  0  0  0  0
   12.4510   -0.1165    5.4279 C   0  0  0  0  0  0  0  0  0  0  0  0
   12.6737   -0.7270    4.2570 N   0  0  0  0  0  0  0  0  0  0  0  0
   12.5363   -0.0643    3.0703 C   0  0  0  0  0  0  0  0  0  0  0  0
   11.6324    3.7815   -0.0446 H   0  0  0  0  0  0  0  0  0  0  0  0
   11.2335    5.1298    0.9202 H   0  0  0  0  0  0  0  0  0  0  0  0
   16.6469   -6.2070   -2.0911 C   0  0  0  0  0  0  0  0  0  0  0  0
   16.4481   -5.7675   -3.3597 C   0  0  0  0  0  0  0  0  0  0  0  0
   17.5830   -6.0495   -4.0523 C   0  0  0  0  0  0  0  0  0  0  0  0
   18.4472   -6.5873   -3.1956 N   0  0  0  0  0  0  0  0  0  0  0  0
   17.9104   -6.6447   -2.0550 N   0  0  0  0  0  0  0  0  0  0  0  0
   18.5408   -7.1245   -0.9645 C   0  0  0  0  0  0  0  0  0  0  0  0
   18.3215   -8.4749   -0.6849 C   0  0  0  0  0  0  0  0  0  0  0  0
   18.9183   -9.0882    0.4040 C   0  0  0  0  0  0  0  0  0  0  0  0
   19.7555   -8.3542    1.2227 C   0  0  0  0  0  0  0  0  0  0  0  0
   20.3775   -9.0520    2.4377 C   0  0  0  0  0  0  0  0  0  0  0  0
   19.9869   -7.0016    0.9765 C   0  0  0  0  0  0  0  0  0  0  0  0
   19.3885   -6.3705   -0.1325 C   0  0  0  0  0  0  0  0  0  0  0  0
   17.8405   -5.7594   -5.5624 C   0  0  0  0  0  0  0  0  0  0  0  0
   16.9803   -6.7593   -6.3325 C   0  0  0  0  0  0  0  0  0  0  0  0
   17.4602   -4.3656   -6.0732 C   0  0  0  0  0  0  0  0  0  0  0  0
   19.2938   -5.9788   -5.9146 C   0  0  0  0  0  0  0  0  0  0  0  0
 16 15  2  0  0  0
 25 15  1  0  0  0
 15 21  1  0  0  0
 16 17  1  0  0  0
 18 17  1  0  0  0
 17 19  2  0  0  0
 19 20  1  0  0  0
 21 20  2  0  0  0
 21 22  1  0  0  0
 23 22  2  0  0  0
 24 23  1  0  0  0
 25 24  2  0  0  0
 13 25  1  0  0  0
  7 13  1  0  0  0
  8  7  2  0  0  0
  7  9  1  0  0  0
 12  8  1  0  0  0
 10  9  2  0  0  0
 11 10  1  0  0  0
 12 11  2  0  0  0
  1 12  1  0  0  0
  1  2  1  0  0  0
  4  2  1  0  0  0
  2  3  2  0  0  0
 28  4  1  0  0  0
 32 28  1  0  0  0
 28 29  2  0  0  0
 30 29  1  0  0  0
 31 30  2  0  0  0
 30 40  1  0  0  0
 42 40  1  0  0  0
 40 43  1  0  0  0
 40 41  1  0  0  0
 32 31  1  0  0  0
 33 32  1  0  0  0
 39 33  2  0  0  0
 34 33  1  0  0  0
 35 34  2  0  0  0
 36 35  1  0  0  0
 37 36  1  0  0  0
 36 38  2  0  0  0
 38 39  1  0  0  0
 18 26  1  0  0  0
 18 27  1  0  0  0
 13 14  1  0  0  0
  1  5  1  0  0  0
  4  6  1  0  0  0
M  END
> <minimizedAffinity>
-12.14027

$$$$
3GCU_R48_A_401


 43 47  0  0  0  0  0  0  0  0999 V2000
   17.0758   -7.3399   -2.1432 N   0  0  0  0  0  0  0  0  0  0  0  0
   17.6488   -7.0723   -3.3187 C   0  0  0  0  0  0  0  0  0  0  0  0
   17.8555   -5.9239   -3.7004 O   0  0  0  0  0  0  0  0  0  0  0  0
   17.9642   -8.1554   -4.0524 N   0  0  0  0  0  0  0  0  0  0  0  0
   16.9567   -8.2974   -1.9477 H   0  0  0  0  0  0  0  0  0  0  0  0
   17.6482   -9.0198   -3.7030 H   0  0  0  0  0  0  0  0  0  0  0  0
   15.1999   -4.7252   -0.2794 C   0  0  0  0  0  0  0  0  0  0  0  0
   15.6037   -5.5670   -1.3478 C   0  0  0  0  0  0  0  0  0  0  0  0
   15.8368   -4.8660    0.9633 C   0  0  0  0  0  0  0  0  0  0  0  0
   16.8601   -5.8158    1.1363 C   0  0  0  0  0  0  0  0  0  0  0  0
   17.2555   -6.6290    0.0688 C   0  0  0  0  0  0  0  0  0  0  0  0
   16.6348   -6.5044   -1.1822 C   0  0  0  0  0  0  0  0  0  0  0  0
   14.1684   -3.8287   -0.4529 N   0  0  0  0  0  0  0  0  0  0  0  0
   14.2680   -3.1417   -1.1510 H   0  0  0  0  0  0  0  0  0  0  0  0
   12.5082   -2.6187    0.7722 C   0  0  0  0  0  0  0  0  0  0  0  0
   13.1320   -1.3703    0.5150 C   0  0  0  0  0  0  0  0  0  0  0  0
   12.5779   -0.1728    1.0115 C   0  0  0  0  0  0  0  0  0  0  0  0
   13.1628    1.0483    0.7847 N   0  0  0  0  0  0  0  0  0  0  0  0
   11.4091   -0.2602    1.7645 C   0  0  0  0  0  0  0  0  0  0  0  0
   10.7770   -1.4885    2.0322 C   0  0  0  0  0  0  0  0  0  0  0  0
   11.3243   -2.6678    1.5282 C   0  0  0  0  0  0  0  0  0  0  0  0
   10.7312   -3.8414    1.7752 N   0  0  0  0  0  0  0  0  0  0  0  0
   11.2459   -4.9924    1.2937 C   0  0  0  0  0  0  0  0  0  0  0  0
   12.3723   -4.9921    0.5694 N   0  0  0  0  0  0  0  0  0  0  0  0
   13.0287   -3.8312    0.2731 C   0  0  0  0  0  0  0  0  0  0  0  0
   13.9887    1.1072    0.2522 H   0  0  0  0  0  0  0  0  0  0  0  0
   12.7562    1.8651    1.1545 H   0  0  0  0  0  0  0  0  0  0  0  0
   18.6678   -8.2041   -5.2205 C   0  0  0  0  0  0  0  0  0  0  0  0
   19.9115   -8.7201   -5.3903 C   0  0  0  0  0  0  0  0  0  0  0  0
   20.1648   -8.6951   -6.7254 C   0  0  0  0  0  0  0  0  0  0  0  0
   19.0733   -8.2309   -7.3277 N   0  0  0  0  0  0  0  0  0  0  0  0
   18.1989   -7.9801   -6.4530 N   0  0  0  0  0  0  0  0  0  0  0  0
   16.9699   -7.5123   -6.7490 C   0  0  0  0  0  0  0  0  0  0  0  0
   16.9045   -6.1608   -7.0936 C   0  0  0  0  0  0  0  0  0  0  0  0
   15.7004   -5.5625   -7.4257 C   0  0  0  0  0  0  0  0  0  0  0  0
   14.5436   -6.3188   -7.4275 C   0  0  0  0  0  0  0  0  0  0  0  0
   13.2215   -5.6224   -7.7695 C   0  0  0  0  0  0  0  0  0  0  0  0
   14.5738   -7.6682   -7.0784 C   0  0  0  0  0  0  0  0  0  0  0  0
   15.7954   -8.2868   -6.7446 C   0  0  0  0  0  0  0  0  0  0  0  0
   21.4769   -9.1624   -7.4262 C   0  0  0  0  0  0  0  0  0  0  0  0
   22.3011   -9.8611   -6.3467 C   0  0  0  0  0  0  0  0  0  0  0  0
   21.3269  -10.1592   -8.5804 C   0  0  0  0  0  0  0  0  0  0  0  0
   22.2548   -7.9815   -7.9593 C   0  0  0  0  0  0  0  0  0  0  0  0
 16 15  2  0  0  0
 25 15  1  0  0  0
 15 21  1  0  0  0
 16 17  1  0  0  0
 18 17  1  0  0  0
 17 19  2  0  0  0
 19 20  1  0  0  0
 21 20  2  0  0  0
 21 22  1  0  0  0
 23 22  2  0  0  0
 24 23  1  0  0  0
 25 24  2  0  0  0
 13 25  1  0  0  0
  7 13  1  0  0  0
  8  7  2  0  0  0
  7  9  1  0  0  0
 12  8  1  0  0  0
 10  9  2  0  0  0
 11 10  1  0  0  0
 12 11  2  0  0  0
  1 12  1  0  0  0
  1  2  1  0  0  0
  4  2  1  0  0  0
  2  3  2  0  0  0
 28  4  1  0  0  0
 32 28  1  0  0  0
 28 29  2  0  0  0
 30 29  1  0  0  0
 31 30  2  0  0  0
 30 40  1  0  0  0
 42 40  1  0  0  0
 40 43  1  0  0  0
 40 41  1  0  0  0
 32 31  1  0  0  0
 33 32  1  0  0  0
 39 33  2  0  0  0
 34 33  1  0  0  0
 35 34  2  0  0  0
 36 35  1  0  0  0
 37 36  1  0  0  0
 36 38  2  0  0  0
 38 39  1  0  0  0
 18 26  1  0  0  0
 18 27  1  0  0  0
 13 14  1  0  0  0
  1  5  1  0  0  0
  4  6  1  0  0  0
M  END
> <minimizedAffinity>
-11.16515

$$$$
