2FXV_5GP_A_200
  RCSB PDB12061705373D
Coordinates from PDB:2FXV:A:200 Model:1 without hydrogens
 24 26  0  0  0  0            999 V2000
   12.6590   14.4740    3.5030   P 0  0  0  0  0  0  0  0  0  0  0  0
   12.2320   13.9340    4.9310   O 0  0  0  0  0  0  0  0  0  0  0  0
   13.1780   13.3790    2.6650   O 0  0  0  0  0  0  0  0  0  0  0  0
   11.4670   15.1680    3.0130   O 0  0  0  0  0  0  0  0  0  0  0  0
   13.7590   15.5460    3.7430   O 0  0  0  0  0  0  0  0  0  0  0  0
   13.5470   16.7260    4.4830   C 0  0  0  0  0  0  0  0  0  0  0  0
   14.5560   17.0370    5.5450   C 0  0  0  0  0  0  0  0  0  0  0  0
   15.7680   17.2010    4.7830   O 0  0  0  0  0  0  0  0  0  0  0  0
   14.3770   18.3820    6.3030   C 0  0  0  0  0  0  0  0  0  0  0  0
   14.3820   18.0940    7.7590   O 0  0  0  0  0  0  0  0  0  0  0  0
   15.5370   19.2450    5.8950   C 0  0  0  0  0  0  0  0  0  0  0  0
   16.4000   19.6660    6.9470   O 0  0  0  0  0  0  0  0  0  0  0  0
   16.3470   18.5020    4.8670   C 0  0  0  0  0  0  0  0  0  0  0  0
   16.2410   18.9010    3.4150   N 0  0  0  0  0  0  0  0  0  0  0  0
   15.7090   18.3920    2.2660   C 0  0  0  0  0  0  0  0  0  0  0  0
   15.8760   19.1140    1.1880   N 0  0  0  0  0  0  0  0  0  0  0  0
   16.5800   20.2140    1.5990   C 0  0  0  0  0  0  0  0  0  0  0  0
   17.0800   21.3340    0.9930   C 0  0  0  0  0  0  0  0  0  0  0  0
   16.9360   21.5310   -0.2320   O 0  0  0  0  0  0  0  0  0  0  0  0
   17.7950   22.3300    1.7430   N 0  0  0  0  0  0  0  0  0  0  0  0
   18.0170   22.1990    3.1420   C 0  0  0  0  0  0  0  0  0  0  0  0
   18.6750   23.1200    3.8290   N 0  0  0  0  0  0  0  0  0  0  0  0
   17.5220   21.0620    3.7920   N 0  0  0  0  0  0  0  0  0  0  0  0
   16.8060   20.0780    3.0000   C 0  0  0  0  0  0  0  0  0  0  0  0
  1  2  2  0  0  0  0
  1  3  1  0  0  0  0
  1  4  1  0  0  0  0
  1  5  1  0  0  0  0
  5  6  1  0  0  0  0
  6  7  1  0  0  0  0
  7  8  1  0  0  0  0
  7  9  1  0  0  0  0
  8 13  1  0  0  0  0
  9 10  1  0  0  0  0
  9 11  1  0  0  0  0
 11 12  1  0  0  0  0
 11 13  1  0  0  0  0
 13 14  1  0  0  0  0
 14 15  1  0  0  0  0
 14 24  1  0  0  0  0
 15 16  2  0  0  0  0
 16 17  1  0  0  0  0
 17 18  1  0  0  0  0
 17 24  2  0  0  0  0
 18 19  2  0  0  0  0
 18 20  1  0  0  0  0
 20 21  1  0  0  0  0
 21 22  1  0  0  0  0
 21 23  2  0  0  0  0
 23 24  1  0  0  0  0
A    1
P
A    2
O1P
A    3
O2P
A    4
O3P
A    5
O5'
A    6
C5'
A    7
C4'
A    8
O4'
A    9
C3'
A   10
O3'
A   11
C2'
A   12
O2'
A   13
C1'
A   14
N9
A   15
C8
A   16
N7
A   17
C5
A   18
C6
A   19
O6
A   20
N1
A   21
C2
A   22
N2
A   23
N3
A   24
C4
M  END
>  <InstanceId>
2FXV_5GP_A_200

>  <ChemCompId>
5GP

>  <PdbId>
2FXV

>  <ChainId>
A

>  <ResidueNumber>
200

>  <InsertionCode>


>  <Model>
1

>  <AltIds>


>  <MissingHeavyAtoms>
0

>  <ObservedFormula>
C10 N5 O8 P

>  <Name>
GUANOSINE-5'-MONOPHOSPHATE

>  <SystematicName>
[(2R,3S,4R,5R)-5-(2-amino-6-oxo-1H-purin-9-yl)-3,4-dihydroxy-oxolan-2-yl]methyl dihydrogen phosphate

>  <Synonyms>


>  <Type>
NON-POLYMER

>  <Formula>
C10 H14 N5 O8 P

>  <MolecularWeight>
363.221

>  <ModifiedDate>
2011-06-04

>  <Parent>


>  <OneLetterCode>


>  <SubcomponentList>


>  <AmbiguousFlag>
N

>  <InChI>
InChI=1S/C10H14N5O8P/c11-10-13-7-4(8(18)14-10)12-2-15(7)9-6(17)5(16)3(23-9)1-22-24(19,20)21/h2-3,5-6,9,16-17H,1H2,(H2,19,20,21)(H3,11,13,14,18)/t3-,5-,6-,9-/m1/s1

>  <InChIKey>
RQFCJASXJCIDSX-UUOKFMHZSA-N

>  <SMILES>
c1nc2c(n1[C@H]3[C@@H]([C@@H]([C@H](O3)COP(=O)(O)O)O)O)N=C(NC2=O)N

$$$$
