5WAL_9ZS_A_1201


 25 28  0  0  0  0  0  0  0  0999 V2000
   -8.7933    9.1476   15.2721 C   0  0  0  0  0  0  0  0  0  0  0  0
   -7.4343    7.6227   16.1201 C   0  0  0  0  0  0  0  0  0  0  0  0
   -9.6595    9.9688   14.5478 C   0  0  0  0  0  0  0  0  0  0  0  0
  -10.2314   11.0604   15.1690 C   0  0  0  0  0  0  0  0  0  0  0  0
   -8.1133    7.9884   14.9867 N   0  0  0  0  0  0  0  0  0  0  0  0
   -9.9257   11.3758   16.4248 N   0  0  0  0  0  0  0  0  0  0  0  0
   -9.0697   10.6630   17.1570 C   0  0  0  0  0  0  0  0  0  0  0  0
   -8.4859    9.4847   16.6162 C   0  0  0  0  0  0  0  0  0  0  0  0
   -7.6414    8.5213   17.0627 N   0  0  0  0  0  0  0  0  0  0  0  0
   -8.1135    7.5088   14.1269 H   0  0  0  0  0  0  0  0  0  0  0  0
   -6.6133    6.3890   16.2197 C   0  0  0  0  0  0  0  0  0  0  0  0
   -5.2103    6.4829   16.2171 C   0  0  0  0  0  0  0  0  0  0  0  0
   -4.4123    5.3430   16.3537 C   0  0  0  0  0  0  0  0  0  0  0  0
   -7.1956    5.1223   16.3905 C   0  0  0  0  0  0  0  0  0  0  0  0
   -5.0064    4.0956   16.5219 C   0  0  0  0  0  0  0  0  0  0  0  0
   -6.3991    3.9891   16.5250 C   0  0  0  0  0  0  0  0  0  0  0  0
   -4.4664    8.0285   16.0303 Cl  0  0  0  0  0  0  0  0  0  0  0  0
   -8.9119    4.9827   16.4201 Cl  0  0  0  0  0  0  0  0  0  0  0  0
   -8.8567   11.1461   18.4484 N   0  0  0  0  0  0  0  0  0  0  0  0
   -7.6971   11.5310   19.0348 C   0  0  0  0  0  0  0  0  0  0  0  0
   -6.6041   11.4030   18.5026 O   0  0  0  0  0  0  0  0  0  0  0  0
   -9.6607   11.2174   19.0122 H   0  0  0  0  0  0  0  0  0  0  0  0
   -7.8374   12.0945   20.4311 C   0  0  0  0  0  0  0  0  0  0  0  0
   -6.8822   11.6576   21.5447 C   0  0  0  0  0  0  0  0  0  0  0  0
   -6.7733   13.0587   20.9422 C   0  0  0  0  0  0  0  0  0  0  0  0
  3  4  2  0  0  0
  3  1  1  0  0  0
  5  1  1  0  0  0
  5  2  1  0  0  0
  4  6  1  0  0  0
  1  8  2  0  0  0
  2 11  1  0  0  0
  2  9  2  0  0  0
 18 14  1  0  0  0
 14 11  2  0  0  0
 14 16  1  0  0  0
 11 12  1  0  0  0
  6  7  2  0  0  0
 17 12  1  0  0  0
 12 13  2  0  0  0
 16 15  2  0  0  0
 15 13  1  0  0  0
  8  9  1  0  0  0
  8  7  1  0  0  0
  7 19  1  0  0  0
 19 20  1  0  0  0
 21 20  2  0  0  0
 20 23  1  0  0  0
 23 25  1  0  0  0
 23 24  1  0  0  0
 25 24  1  0  0  0
  5 10  1  0  0  0
 19 22  1  0  0  0
M  END
> <minimizedAffinity>
-8.42892

$$$$
5WAL_9ZS_A_1201


 25 28  0  0  0  0  0  0  0  0999 V2000
   -8.9309   10.0561   17.0777 C   0  0  0  0  0  0  0  0  0  0  0  0
   -7.2689    8.8051   17.8287 C   0  0  0  0  0  0  0  0  0  0  0  0
   -9.9944   10.9248   16.8258 C   0  0  0  0  0  0  0  0  0  0  0  0
  -10.4031   11.1312   15.5238 C   0  0  0  0  0  0  0  0  0  0  0  0
   -8.2572    9.6742   18.2126 N   0  0  0  0  0  0  0  0  0  0  0  0
   -9.8410   10.4726   14.5136 N   0  0  0  0  0  0  0  0  0  0  0  0
   -8.8545    9.5935   14.6890 C   0  0  0  0  0  0  0  0  0  0  0  0
   -8.3281    9.3703   15.9908 C   0  0  0  0  0  0  0  0  0  0  0  0
   -7.3355    8.6157   16.5254 N   0  0  0  0  0  0  0  0  0  0  0  0
   -8.4487    9.9700   19.1318 H   0  0  0  0  0  0  0  0  0  0  0  0
   -6.2942    8.2050   18.7751 C   0  0  0  0  0  0  0  0  0  0  0  0
   -5.4298    9.0380   19.5074 C   0  0  0  0  0  0  0  0  0  0  0  0
   -4.5326    8.5044   20.4375 C   0  0  0  0  0  0  0  0  0  0  0  0
   -6.2536    6.8227   19.0209 C   0  0  0  0  0  0  0  0  0  0  0  0
   -4.5058    7.1321   20.6682 C   0  0  0  0  0  0  0  0  0  0  0  0
   -5.3587    6.2940   19.9462 C   0  0  0  0  0  0  0  0  0  0  0  0
   -5.4719   10.7424   19.2424 Cl  0  0  0  0  0  0  0  0  0  0  0  0
   -7.3178    5.7827   18.1538 Cl  0  0  0  0  0  0  0  0  0  0  0  0
   -8.3937    8.9863   13.5204 N   0  0  0  0  0  0  0  0  0  0  0  0
   -8.3012    7.6672   13.2238 C   0  0  0  0  0  0  0  0  0  0  0  0
   -8.5343    6.7818   14.0339 O   0  0  0  0  0  0  0  0  0  0  0  0
   -8.0941    9.6017   12.8128 H   0  0  0  0  0  0  0  0  0  0  0  0
   -7.8381    7.3538   11.8188 C   0  0  0  0  0  0  0  0  0  0  0  0
   -8.8523    7.0082   10.7255 C   0  0  0  0  0  0  0  0  0  0  0  0
   -8.1322    8.3570   10.7096 C   0  0  0  0  0  0  0  0  0  0  0  0
  3  4  2  0  0  0
  3  1  1  0  0  0
  5  1  1  0  0  0
  5  2  1  0  0  0
  4  6  1  0  0  0
  1  8  2  0  0  0
  2 11  1  0  0  0
  2  9  2  0  0  0
 18 14  1  0  0  0
 14 11  2  0  0  0
 14 16  1  0  0  0
 11 12  1  0  0  0
  6  7  2  0  0  0
 17 12  1  0  0  0
 12 13  2  0  0  0
 16 15  2  0  0  0
 15 13  1  0  0  0
  8  9  1  0  0  0
  8  7  1  0  0  0
  7 19  1  0  0  0
 19 20  1  0  0  0
 21 20  2  0  0  0
 20 23  1  0  0  0
 23 25  1  0  0  0
 23 24  1  0  0  0
 25 24  1  0  0  0
  5 10  1  0  0  0
 19 22  1  0  0  0
M  END
> <minimizedAffinity>
-7.83014

$$$$
5WAL_9ZS_A_1201


 25 28  0  0  0  0  0  0  0  0999 V2000
   -7.4199    6.5080   17.1393 C   0  0  0  0  0  0  0  0  0  0  0  0
   -7.1952    8.6629   17.5831 C   0  0  0  0  0  0  0  0  0  0  0  0
   -7.5271    5.1168   17.0908 C   0  0  0  0  0  0  0  0  0  0  0  0
   -7.9290    4.5117   15.9174 C   0  0  0  0  0  0  0  0  0  0  0  0
   -7.1073    7.4085   18.1289 N   0  0  0  0  0  0  0  0  0  0  0  0
   -8.1579    5.2257   14.8183 N   0  0  0  0  0  0  0  0  0  0  0  0
   -8.0273    6.5518   14.7825 C   0  0  0  0  0  0  0  0  0  0  0  0
   -7.6814    7.2614   15.9650 C   0  0  0  0  0  0  0  0  0  0  0  0
   -7.5095    8.5631   16.3064 N   0  0  0  0  0  0  0  0  0  0  0  0
   -6.8649    7.1926   19.0583 H   0  0  0  0  0  0  0  0  0  0  0  0
   -6.9699    9.9098   18.3581 C   0  0  0  0  0  0  0  0  0  0  0  0
   -7.8966   10.9636   18.2685 C   0  0  0  0  0  0  0  0  0  0  0  0
   -7.7335   12.1314   19.0199 C   0  0  0  0  0  0  0  0  0  0  0  0
   -5.8883   10.0476   19.2434 C   0  0  0  0  0  0  0  0  0  0  0  0
   -6.6556   12.2509   19.8922 C   0  0  0  0  0  0  0  0  0  0  0  0
   -5.7276   11.2114   19.9893 C   0  0  0  0  0  0  0  0  0  0  0  0
   -9.2471   10.8143   17.2051 Cl  0  0  0  0  0  0  0  0  0  0  0  0
   -4.7515    8.7622   19.3889 Cl  0  0  0  0  0  0  0  0  0  0  0  0
   -8.2941    7.1354   13.5436 N   0  0  0  0  0  0  0  0  0  0  0  0
   -7.7113    6.8948   12.3440 C   0  0  0  0  0  0  0  0  0  0  0  0
   -6.7470    6.1564   12.2053 O   0  0  0  0  0  0  0  0  0  0  0  0
   -9.0047    7.8168   13.5404 H   0  0  0  0  0  0  0  0  0  0  0  0
   -8.3086    7.6461   11.1754 C   0  0  0  0  0  0  0  0  0  0  0  0
   -9.2880    6.9528   10.2249 C   0  0  0  0  0  0  0  0  0  0  0  0
   -9.7895    8.0048   11.2149 C   0  0  0  0  0  0  0  0  0  0  0  0
  3  4  2  0  0  0
  3  1  1  0  0  0
  5  1  1  0  0  0
  5  2  1  0  0  0
  4  6  1  0  0  0
  1  8  2  0  0  0
  2 11  1  0  0  0
  2  9  2  0  0  0
 18 14  1  0  0  0
 14 11  2  0  0  0
 14 16  1  0  0  0
 11 12  1  0  0  0
  6  7  2  0  0  0
 17 12  1  0  0  0
 12 13  2  0  0  0
 16 15  2  0  0  0
 15 13  1  0  0  0
  8  9  1  0  0  0
  8  7  1  0  0  0
  7 19  1  0  0  0
 19 20  1  0  0  0
 21 20  2  0  0  0
 20 23  1  0  0  0
 23 25  1  0  0  0
 23 24  1  0  0  0
 25 24  1  0  0  0
  5 10  1  0  0  0
 19 22  1  0  0  0
M  END
> <minimizedAffinity>
-7.82558

$$$$
5WAL_9ZS_A_1201


 25 28  0  0  0  0  0  0  0  0999 V2000
   -7.4050    6.4763   17.1442 C   0  0  0  0  0  0  0  0  0  0  0  0
   -7.2399    8.6309   17.6148 C   0  0  0  0  0  0  0  0  0  0  0  0
   -7.4749    5.0835   17.0785 C   0  0  0  0  0  0  0  0  0  0  0  0
   -7.8549    4.4821   15.8958 C   0  0  0  0  0  0  0  0  0  0  0  0
   -7.1212    7.3728   18.1460 N   0  0  0  0  0  0  0  0  0  0  0  0
   -8.0974    5.2030   14.8042 N   0  0  0  0  0  0  0  0  0  0  0  0
   -8.0020    6.5324   14.7849 C   0  0  0  0  0  0  0  0  0  0  0  0
   -7.6808    7.2366   15.9776 C   0  0  0  0  0  0  0  0  0  0  0  0
   -7.5453    8.5382   16.3354 N   0  0  0  0  0  0  0  0  0  0  0  0
   -6.8776    7.1522   19.0740 H   0  0  0  0  0  0  0  0  0  0  0  0
   -7.0516    9.8739   18.4057 C   0  0  0  0  0  0  0  0  0  0  0  0
   -5.9228   10.0096   19.2332 C   0  0  0  0  0  0  0  0  0  0  0  0
   -5.6968   11.1855   19.9552 C   0  0  0  0  0  0  0  0  0  0  0  0
   -7.9346   10.9610   18.3004 C   0  0  0  0  0  0  0  0  0  0  0  0
   -6.5825   12.2528   19.8389 C   0  0  0  0  0  0  0  0  0  0  0  0
   -7.7081   12.1298   19.0210 C   0  0  0  0  0  0  0  0  0  0  0  0
   -4.8089    8.6987   19.3661 Cl  0  0  0  0  0  0  0  0  0  0  0  0
   -9.3127   10.8290   17.2760 Cl  0  0  0  0  0  0  0  0  0  0  0  0
   -8.2783    7.1237   13.5517 N   0  0  0  0  0  0  0  0  0  0  0  0
   -7.7033    6.8919   12.3466 C   0  0  0  0  0  0  0  0  0  0  0  0
   -6.7387    6.1561   12.1964 O   0  0  0  0  0  0  0  0  0  0  0  0
   -8.9900    7.8039   13.5579 H   0  0  0  0  0  0  0  0  0  0  0  0
   -8.3098    7.6498   11.1871 C   0  0  0  0  0  0  0  0  0  0  0  0
   -9.2932    6.9606   10.2378 C   0  0  0  0  0  0  0  0  0  0  0  0
   -9.7914    8.0041   11.2382 C   0  0  0  0  0  0  0  0  0  0  0  0
  3  4  2  0  0  0
  3  1  1  0  0  0
  5  1  1  0  0  0
  5  2  1  0  0  0
  4  6  1  0  0  0
  1  8  2  0  0  0
  2 11  1  0  0  0
  2  9  2  0  0  0
 18 14  1  0  0  0
 14 11  2  0  0  0
 14 16  1  0  0  0
 11 12  1  0  0  0
  6  7  2  0  0  0
 17 12  1  0  0  0
 12 13  2  0  0  0
 16 15  2  0  0  0
 15 13  1  0  0  0
  8  9  1  0  0  0
  8  7  1  0  0  0
  7 19  1  0  0  0
 19 20  1  0  0  0
 21 20  2  0  0  0
 20 23  1  0  0  0
 23 25  1  0  0  0
 23 24  1  0  0  0
 25 24  1  0  0  0
  5 10  1  0  0  0
 19 22  1  0  0  0
M  END
> <minimizedAffinity>
-7.80114

$$$$
5WAL_9ZS_A_1201


 25 28  0  0  0  0  0  0  0  0999 V2000
   -6.4993    7.2364   18.7114 C   0  0  0  0  0  0  0  0  0  0  0  0
   -7.1411    8.2713   16.8652 C   0  0  0  0  0  0  0  0  0  0  0  0
   -6.1930    6.3918   19.7800 C   0  0  0  0  0  0  0  0  0  0  0  0
   -5.3744    6.8526   20.7910 C   0  0  0  0  0  0  0  0  0  0  0  0
   -7.2182    7.0863   17.5502 N   0  0  0  0  0  0  0  0  0  0  0  0
   -4.9221    8.1038   20.7937 N   0  0  0  0  0  0  0  0  0  0  0  0
   -5.2158    8.9764   19.8298 C   0  0  0  0  0  0  0  0  0  0  0  0
   -5.9987    8.5647   18.7166 C   0  0  0  0  0  0  0  0  0  0  0  0
   -6.4428    9.1393   17.5707 N   0  0  0  0  0  0  0  0  0  0  0  0
   -7.6999    6.2771   17.2631 H   0  0  0  0  0  0  0  0  0  0  0  0
   -7.7599    8.4875   15.5324 C   0  0  0  0  0  0  0  0  0  0  0  0
   -7.4072    7.6538   14.4563 C   0  0  0  0  0  0  0  0  0  0  0  0
   -8.0058    7.8057   13.2019 C   0  0  0  0  0  0  0  0  0  0  0  0
   -8.7502    9.4613   15.3236 C   0  0  0  0  0  0  0  0  0  0  0  0
   -8.9854    8.7762   13.0129 C   0  0  0  0  0  0  0  0  0  0  0  0
   -9.3435    9.6113   14.0737 C   0  0  0  0  0  0  0  0  0  0  0  0
   -6.2089    6.4344   14.6884 Cl  0  0  0  0  0  0  0  0  0  0  0  0
   -9.2167   10.4803   16.6312 Cl  0  0  0  0  0  0  0  0  0  0  0  0
   -4.6674   10.2478   20.0009 N   0  0  0  0  0  0  0  0  0  0  0  0
   -5.2577   11.3763   20.4643 C   0  0  0  0  0  0  0  0  0  0  0  0
   -6.4516   11.4512   20.7161 O   0  0  0  0  0  0  0  0  0  0  0  0
   -3.7196   10.3378   19.7500 H   0  0  0  0  0  0  0  0  0  0  0  0
   -4.3411   12.5704   20.6079 C   0  0  0  0  0  0  0  0  0  0  0  0
   -3.6018   12.8286   21.9233 C   0  0  0  0  0  0  0  0  0  0  0  0
   -2.8378   12.3339   20.6946 C   0  0  0  0  0  0  0  0  0  0  0  0
  3  4  2  0  0  0
  3  1  1  0  0  0
  5  1  1  0  0  0
  5  2  1  0  0  0
  4  6  1  0  0  0
  1  8  2  0  0  0
  2 11  1  0  0  0
  2  9  2  0  0  0
 18 14  1  0  0  0
 14 11  2  0  0  0
 14 16  1  0  0  0
 11 12  1  0  0  0
  6  7  2  0  0  0
 17 12  1  0  0  0
 12 13  2  0  0  0
 16 15  2  0  0  0
 15 13  1  0  0  0
  8  9  1  0  0  0
  8  7  1  0  0  0
  7 19  1  0  0  0
 19 20  1  0  0  0
 21 20  2  0  0  0
 20 23  1  0  0  0
 23 25  1  0  0  0
 23 24  1  0  0  0
 25 24  1  0  0  0
  5 10  1  0  0  0
 19 22  1  0  0  0
M  END
> <minimizedAffinity>
-7.49093

$$$$
5WAL_9ZS_A_1201


 25 28  0  0  0  0  0  0  0  0999 V2000
   -7.9511    8.5229   14.3938 C   0  0  0  0  0  0  0  0  0  0  0  0
   -7.4408    9.1824   16.4422 C   0  0  0  0  0  0  0  0  0  0  0  0
   -8.3251    8.3337   13.0621 C   0  0  0  0  0  0  0  0  0  0  0  0
   -8.1105    7.1063   12.4689 C   0  0  0  0  0  0  0  0  0  0  0  0
   -7.9738    9.5977   15.2494 N   0  0  0  0  0  0  0  0  0  0  0  0
   -7.6092    6.0861   13.1604 N   0  0  0  0  0  0  0  0  0  0  0  0
   -7.2761    6.1847   14.4473 C   0  0  0  0  0  0  0  0  0  0  0  0
   -7.4028    7.4320   15.1179 C   0  0  0  0  0  0  0  0  0  0  0  0
   -7.1313    7.9032   16.3608 N   0  0  0  0  0  0  0  0  0  0  0  0
   -8.3107   10.4996   15.0438 H   0  0  0  0  0  0  0  0  0  0  0  0
   -7.2547   10.0792   17.6114 C   0  0  0  0  0  0  0  0  0  0  0  0
   -6.1315    9.9184   18.4419 C   0  0  0  0  0  0  0  0  0  0  0  0
   -5.9074   10.7755   19.5236 C   0  0  0  0  0  0  0  0  0  0  0  0
   -8.1341   11.1413   17.8790 C   0  0  0  0  0  0  0  0  0  0  0  0
   -6.7893   11.8226   19.7741 C   0  0  0  0  0  0  0  0  0  0  0  0
   -7.9094   11.9922   18.9570 C   0  0  0  0  0  0  0  0  0  0  0  0
   -5.0221    8.6355   18.1250 Cl  0  0  0  0  0  0  0  0  0  0  0  0
   -9.5052   11.3741   16.8633 Cl  0  0  0  0  0  0  0  0  0  0  0  0
   -6.7786    5.0124   15.0171 N   0  0  0  0  0  0  0  0  0  0  0  0
   -5.5475    4.7680   15.5282 C   0  0  0  0  0  0  0  0  0  0  0  0
   -4.6251    5.5675   15.4616 O   0  0  0  0  0  0  0  0  0  0  0  0
   -7.4097    4.2576   15.0529 H   0  0  0  0  0  0  0  0  0  0  0  0
   -5.3693    3.4032   16.1547 C   0  0  0  0  0  0  0  0  0  0  0  0
   -4.4464    2.3665   15.5090 C   0  0  0  0  0  0  0  0  0  0  0  0
   -4.0331    3.0645   16.8052 C   0  0  0  0  0  0  0  0  0  0  0  0
  3  4  2  0  0  0
  3  1  1  0  0  0
  5  1  1  0  0  0
  5  2  1  0  0  0
  4  6  1  0  0  0
  1  8  2  0  0  0
  2 11  1  0  0  0
  2  9  2  0  0  0
 18 14  1  0  0  0
 14 11  2  0  0  0
 14 16  1  0  0  0
 11 12  1  0  0  0
  6  7  2  0  0  0
 17 12  1  0  0  0
 12 13  2  0  0  0
 16 15  2  0  0  0
 15 13  1  0  0  0
  8  9  1  0  0  0
  8  7  1  0  0  0
  7 19  1  0  0  0
 19 20  1  0  0  0
 21 20  2  0  0  0
 20 23  1  0  0  0
 23 25  1  0  0  0
 23 24  1  0  0  0
 25 24  1  0  0  0
  5 10  1  0  0  0
 19 22  1  0  0  0
M  END
> <minimizedAffinity>
-7.48447

$$$$
5WAL_9ZS_A_1201


 25 28  0  0  0  0  0  0  0  0999 V2000
   -6.2097    6.4721   18.8176 C   0  0  0  0  0  0  0  0  0  0  0  0
   -6.9529    7.8474   17.2532 C   0  0  0  0  0  0  0  0  0  0  0  0
   -5.8633    5.4385   19.6898 C   0  0  0  0  0  0  0  0  0  0  0  0
   -4.9129    5.6677   20.6639 C   0  0  0  0  0  0  0  0  0  0  0  0
   -7.0523    6.5685   17.7366 N   0  0  0  0  0  0  0  0  0  0  0  0
   -4.3665    6.8704   20.8227 N   0  0  0  0  0  0  0  0  0  0  0  0
   -4.6876    7.9126   20.0562 C   0  0  0  0  0  0  0  0  0  0  0  0
   -5.6092    7.7473   18.9862 C   0  0  0  0  0  0  0  0  0  0  0  0
   -6.1211    8.5370   18.0090 N   0  0  0  0  0  0  0  0  0  0  0  0
   -7.6222    5.8514   17.3759 H   0  0  0  0  0  0  0  0  0  0  0  0
   -7.6850    8.3276   16.0534 C   0  0  0  0  0  0  0  0  0  0  0  0
   -8.5636    9.4199   16.1634 C   0  0  0  0  0  0  0  0  0  0  0  0
   -9.2326    9.9213   15.0427 C   0  0  0  0  0  0  0  0  0  0  0  0
   -7.4741    7.7680   14.7825 C   0  0  0  0  0  0  0  0  0  0  0  0
   -9.0117    9.3544   13.7910 C   0  0  0  0  0  0  0  0  0  0  0  0
   -8.1422    8.2681   13.6689 C   0  0  0  0  0  0  0  0  0  0  0  0
   -8.8265   10.1417   17.7084 Cl  0  0  0  0  0  0  0  0  0  0  0  0
   -6.3856    6.4438   14.6167 Cl  0  0  0  0  0  0  0  0  0  0  0  0
   -4.0272    9.1002   20.3724 N   0  0  0  0  0  0  0  0  0  0  0  0
   -4.2714    9.9691   21.3833 C   0  0  0  0  0  0  0  0  0  0  0  0
   -5.2270    9.8647   22.1385 O   0  0  0  0  0  0  0  0  0  0  0  0
   -3.2798    9.3405   19.7784 H   0  0  0  0  0  0  0  0  0  0  0  0
   -3.2984   11.1217   21.4913 C   0  0  0  0  0  0  0  0  0  0  0  0
   -3.5027   12.3912   20.6607 C   0  0  0  0  0  0  0  0  0  0  0  0
   -3.7583   12.4077   22.1681 C   0  0  0  0  0  0  0  0  0  0  0  0
  3  4  2  0  0  0
  3  1  1  0  0  0
  5  1  1  0  0  0
  5  2  1  0  0  0
  4  6  1  0  0  0
  1  8  2  0  0  0
  2 11  1  0  0  0
  2  9  2  0  0  0
 18 14  1  0  0  0
 14 11  2  0  0  0
 14 16  1  0  0  0
 11 12  1  0  0  0
  6  7  2  0  0  0
 17 12  1  0  0  0
 12 13  2  0  0  0
 16 15  2  0  0  0
 15 13  1  0  0  0
  8  9  1  0  0  0
  8  7  1  0  0  0
  7 19  1  0  0  0
 19 20  1  0  0  0
 21 20  2  0  0  0
 20 23  1  0  0  0
 23 25  1  0  0  0
 23 24  1  0  0  0
 25 24  1  0  0  0
  5 10  1  0  0  0
 19 22  1  0  0  0
M  END
> <minimizedAffinity>
-7.40439

$$$$
5WAL_9ZS_A_1201


 25 28  0  0  0  0  0  0  0  0999 V2000
   -6.7947    5.7589   16.8226 C   0  0  0  0  0  0  0  0  0  0  0  0
   -7.5310    7.8382   16.6621 C   0  0  0  0  0  0  0  0  0  0  0  0
   -6.5007    4.3952   16.7689 C   0  0  0  0  0  0  0  0  0  0  0  0
   -5.3654    3.9245   17.3968 C   0  0  0  0  0  0  0  0  0  0  0  0
   -7.7833    6.5454   16.2822 N   0  0  0  0  0  0  0  0  0  0  0  0
   -4.5811    4.7372   18.1001 N   0  0  0  0  0  0  0  0  0  0  0  0
   -4.8302    6.0400   18.2324 C   0  0  0  0  0  0  0  0  0  0  0  0
   -5.9427    6.6196   17.5630 C   0  0  0  0  0  0  0  0  0  0  0  0
   -6.4617    7.8664   17.4334 N   0  0  0  0  0  0  0  0  0  0  0  0
   -8.5342    6.2374   15.7250 H   0  0  0  0  0  0  0  0  0  0  0  0
   -8.3612    8.9932   16.2348 C   0  0  0  0  0  0  0  0  0  0  0  0
   -8.7727    9.0982   14.8943 C   0  0  0  0  0  0  0  0  0  0  0  0
   -9.5909   10.1508   14.4729 C   0  0  0  0  0  0  0  0  0  0  0  0
   -8.8153    9.9586   17.1483 C   0  0  0  0  0  0  0  0  0  0  0  0
  -10.0314   11.0987   15.3919 C   0  0  0  0  0  0  0  0  0  0  0  0
   -9.6286   11.0059   16.7261 C   0  0  0  0  0  0  0  0  0  0  0  0
   -8.2479    7.9151   13.7533 Cl  0  0  0  0  0  0  0  0  0  0  0  0
   -8.3444    9.8401   18.8006 Cl  0  0  0  0  0  0  0  0  0  0  0  0
   -3.9106    6.7377   19.0160 N   0  0  0  0  0  0  0  0  0  0  0  0
   -4.0089    7.1158   20.3136 C   0  0  0  0  0  0  0  0  0  0  0  0
   -5.0246    6.9684   20.9779 O   0  0  0  0  0  0  0  0  0  0  0  0
   -3.0737    6.9905   18.5632 H   0  0  0  0  0  0  0  0  0  0  0  0
   -2.7792    7.7856   20.8844 C   0  0  0  0  0  0  0  0  0  0  0  0
   -1.8367    7.0170   21.8141 C   0  0  0  0  0  0  0  0  0  0  0  0
   -1.4076    7.3476   20.3842 C   0  0  0  0  0  0  0  0  0  0  0  0
  3  4  2  0  0  0
  3  1  1  0  0  0
  5  1  1  0  0  0
  5  2  1  0  0  0
  4  6  1  0  0  0
  1  8  2  0  0  0
  2 11  1  0  0  0
  2  9  2  0  0  0
 18 14  1  0  0  0
 14 11  2  0  0  0
 14 16  1  0  0  0
 11 12  1  0  0  0
  6  7  2  0  0  0
 17 12  1  0  0  0
 12 13  2  0  0  0
 16 15  2  0  0  0
 15 13  1  0  0  0
  8  9  1  0  0  0
  8  7  1  0  0  0
  7 19  1  0  0  0
 19 20  1  0  0  0
 21 20  2  0  0  0
 20 23  1  0  0  0
 23 25  1  0  0  0
 23 24  1  0  0  0
 25 24  1  0  0  0
  5 10  1  0  0  0
 19 22  1  0  0  0
M  END
> <minimizedAffinity>
-7.24804

$$$$
5WAL_9ZS_A_1201


 25 28  0  0  0  0  0  0  0  0999 V2000
   -8.0315    9.2294   17.6585 C   0  0  0  0  0  0  0  0  0  0  0  0
   -6.7570    7.4490   17.3476 C   0  0  0  0  0  0  0  0  0  0  0  0
   -8.7777   10.3306   18.0824 C   0  0  0  0  0  0  0  0  0  0  0  0
   -9.3541   11.1581   17.1403 C   0  0  0  0  0  0  0  0  0  0  0  0
   -7.3030    8.2618   18.3070 N   0  0  0  0  0  0  0  0  0  0  0  0
   -9.2603   10.8910   15.8403 N   0  0  0  0  0  0  0  0  0  0  0  0
   -8.6042    9.8302   15.3700 C   0  0  0  0  0  0  0  0  0  0  0  0
   -7.9250    8.9623   16.2684 C   0  0  0  0  0  0  0  0  0  0  0  0
   -7.1484    7.8556   16.1558 N   0  0  0  0  0  0  0  0  0  0  0  0
   -7.1933    8.1692   19.2810 H   0  0  0  0  0  0  0  0  0  0  0  0
   -5.8615    6.3052   17.6573 C   0  0  0  0  0  0  0  0  0  0  0  0
   -4.7761    6.4865   18.5327 C   0  0  0  0  0  0  0  0  0  0  0  0
   -3.9427    5.4179   18.8769 C   0  0  0  0  0  0  0  0  0  0  0  0
   -6.1052    5.0157   17.1570 C   0  0  0  0  0  0  0  0  0  0  0  0
   -4.1990    4.1467   18.3715 C   0  0  0  0  0  0  0  0  0  0  0  0
   -5.2734    3.9541   17.5001 C   0  0  0  0  0  0  0  0  0  0  0  0
   -4.4645    8.0552   19.1802 Cl  0  0  0  0  0  0  0  0  0  0  0  0
   -7.4417    4.7621   16.1009 Cl  0  0  0  0  0  0  0  0  0  0  0  0
   -8.6194    9.6979   13.9812 N   0  0  0  0  0  0  0  0  0  0  0  0
   -9.0977    8.6790   13.2265 C   0  0  0  0  0  0  0  0  0  0  0  0
   -9.5163    7.6337   13.7024 O   0  0  0  0  0  0  0  0  0  0  0  0
   -8.2282   10.4493   13.4797 H   0  0  0  0  0  0  0  0  0  0  0  0
   -9.0366    8.9006   11.7318 C   0  0  0  0  0  0  0  0  0  0  0  0
   -7.8785    8.3309   10.9087 C   0  0  0  0  0  0  0  0  0  0  0  0
   -9.2737    7.7139   10.8050 C   0  0  0  0  0  0  0  0  0  0  0  0
  3  4  2  0  0  0
  3  1  1  0  0  0
  5  1  1  0  0  0
  5  2  1  0  0  0
  4  6  1  0  0  0
  1  8  2  0  0  0
  2 11  1  0  0  0
  2  9  2  0  0  0
 18 14  1  0  0  0
 14 11  2  0  0  0
 14 16  1  0  0  0
 11 12  1  0  0  0
  6  7  2  0  0  0
 17 12  1  0  0  0
 12 13  2  0  0  0
 16 15  2  0  0  0
 15 13  1  0  0  0
  8  9  1  0  0  0
  8  7  1  0  0  0
  7 19  1  0  0  0
 19 20  1  0  0  0
 21 20  2  0  0  0
 20 23  1  0  0  0
 23 25  1  0  0  0
 23 24  1  0  0  0
 25 24  1  0  0  0
  5 10  1  0  0  0
 19 22  1  0  0  0
M  END
> <minimizedAffinity>
-7.24608

$$$$
5WAL_9ZS_A_1201


 25 28  0  0  0  0  0  0  0  0999 V2000
   -6.6065    5.7091   16.8867 C   0  0  0  0  0  0  0  0  0  0  0  0
   -7.4303    7.7559   16.7340 C   0  0  0  0  0  0  0  0  0  0  0  0
   -6.2526    4.3600   16.8253 C   0  0  0  0  0  0  0  0  0  0  0  0
   -5.1065    3.9334   17.4649 C   0  0  0  0  0  0  0  0  0  0  0  0
   -7.6209    6.4569   16.3395 N   0  0  0  0  0  0  0  0  0  0  0  0
   -4.3679    4.7728   18.1861 N   0  0  0  0  0  0  0  0  0  0  0  0
   -4.6753    6.0622   18.3261 C   0  0  0  0  0  0  0  0  0  0  0  0
   -5.8028    6.5991   17.6464 C   0  0  0  0  0  0  0  0  0  0  0  0
   -6.3739    7.8233   17.5203 N   0  0  0  0  0  0  0  0  0  0  0  0
   -8.3501    6.1218   15.7692 H   0  0  0  0  0  0  0  0  0  0  0  0
   -8.3042    8.8777   16.3052 C   0  0  0  0  0  0  0  0  0  0  0  0
   -8.7207    9.8362   17.2460 C   0  0  0  0  0  0  0  0  0  0  0  0
   -9.5071   10.9268   16.8625 C   0  0  0  0  0  0  0  0  0  0  0  0
   -8.6753    9.0574   14.9625 C   0  0  0  0  0  0  0  0  0  0  0  0
   -9.8657   11.0890   15.5275 C   0  0  0  0  0  0  0  0  0  0  0  0
   -9.4591   10.1431   14.5837 C   0  0  0  0  0  0  0  0  0  0  0  0
   -8.2624    9.6534   18.8993 Cl  0  0  0  0  0  0  0  0  0  0  0  0
   -8.1590    7.9101   13.7865 Cl  0  0  0  0  0  0  0  0  0  0  0  0
   -3.7977    6.7919   19.1285 N   0  0  0  0  0  0  0  0  0  0  0  0
   -3.9590    7.2112   20.4071 C   0  0  0  0  0  0  0  0  0  0  0  0
   -5.0038    7.0778   21.0277 O   0  0  0  0  0  0  0  0  0  0  0  0
   -2.9420    7.0362   18.7073 H   0  0  0  0  0  0  0  0  0  0  0  0
   -2.7614    7.9085   21.0124 C   0  0  0  0  0  0  0  0  0  0  0  0
   -1.8074    7.1505   21.9390 C   0  0  0  0  0  0  0  0  0  0  0  0
   -1.3684    7.5286   20.5240 C   0  0  0  0  0  0  0  0  0  0  0  0
  3  4  2  0  0  0
  3  1  1  0  0  0
  5  1  1  0  0  0
  5  2  1  0  0  0
  4  6  1  0  0  0
  1  8  2  0  0  0
  2 11  1  0  0  0
  2  9  2  0  0  0
 18 14  1  0  0  0
 14 11  2  0  0  0
 14 16  1  0  0  0
 11 12  1  0  0  0
  6  7  2  0  0  0
 17 12  1  0  0  0
 12 13  2  0  0  0
 16 15  2  0  0  0
 15 13  1  0  0  0
  8  9  1  0  0  0
  8  7  1  0  0  0
  7 19  1  0  0  0
 19 20  1  0  0  0
 21 20  2  0  0  0
 20 23  1  0  0  0
 23 25  1  0  0  0
 23 24  1  0  0  0
 25 24  1  0  0  0
  5 10  1  0  0  0
 19 22  1  0  0  0
M  END
> <minimizedAffinity>
-7.18161

$$$$
