3M5E_JDR_A_264


 26 27  0  0  0  0  0  0  0  0999 V2000
   -3.9362    4.5930   12.0941 N   0  0  0  0  0  0  0  0  0  0  0  0
   -4.6196    4.9195   11.4651 H   0  0  0  0  0  0  0  0  0  0  0  0
   -1.1190    1.8785   10.7270 N   0  0  0  0  0  0  0  0  0  0  0  0
   -0.8229    3.1576   10.9160 C   0  0  0  0  0  0  0  0  0  0  0  0
   -1.7152    4.0404   11.3580 N   0  0  0  0  0  0  0  0  0  0  0  0
   -2.9613    3.6453   11.6243 C   0  0  0  0  0  0  0  0  0  0  0  0
   -3.3175    2.3105   11.4403 C   0  0  0  0  0  0  0  0  0  0  0  0
   -2.3419    1.4335   10.9786 C   0  0  0  0  0  0  0  0  0  0  0  0
   -2.6859   -0.2348   10.7060 Cl  0  0  0  0  0  0  0  0  0  0  0  0
   -4.6862    1.8222   11.7223 C   0  0  0  0  0  0  0  0  0  0  0  0
   -5.6421    2.2411   11.0655 O   0  0  0  0  0  0  0  0  0  0  0  0
    0.7935    3.7498   10.5642 S   0  0  0  0  0  0  0  0  0  0  0  0
    1.0610    5.4019   11.2875 C   0  0  0  0  0  0  0  0  0  0  0  0
   -3.9522    5.0861   13.4565 C   0  0  0  0  0  0  0  0  0  0  0  0
   -4.7097    4.2293   14.4163 C   0  0  0  0  0  0  0  0  0  0  0  0
   -6.0828    4.3223   14.6531 C   0  0  0  0  0  0  0  0  0  0  0  0
   -6.6810    3.4591   15.5792 C   0  0  0  0  0  0  0  0  0  0  0  0
   -5.8850    2.5198   16.2492 C   0  0  0  0  0  0  0  0  0  0  0  0
   -4.5232    2.4386   16.0006 C   0  0  0  0  0  0  0  0  0  0  0  0
   -3.9354    3.2985   15.0844 C   0  0  0  0  0  0  0  0  0  0  0  0
   -6.5523    1.4149   17.4122 S   0  0  0  0  0  0  0  0  0  0  0  0
   -6.3849    2.0289   18.7790 O   0  0  0  0  0  0  0  0  0  0  0  0
   -7.9778    1.1124   16.9717 O   0  0  0  0  0  0  0  0  0  0  0  0
   -5.6321   -0.0337   17.3569 N   0  0  0  0  0  0  0  0  0  0  0  0
   -4.6748    0.1602   17.6508 H   0  0  0  0  0  0  0  0  0  0  0  0
   -5.6281   -0.3978   16.4041 H   0  0  0  0  0  0  0  0  0  0  0  0
  3  4  2  0  0  0
  3  8  1  0  0  0
  4  5  1  0  0  0
  4 12  1  0  0  0
  5  6  2  0  0  0
  6  7  1  0  0  0
  6  1  1  0  0  0
  7  8  2  0  0  0
  7 10  1  0  0  0
  8  9  1  0  0  0
  1 14  1  0  0  0
 15 16  2  0  0  0
 15 20  1  0  0  0
 15 14  1  0  0  0
 16 17  1  0  0  0
 17 18  2  0  0  0
 18 19  1  0  0  0
 18 21  1  0  0  0
 19 20  2  0  0  0
 21 22  2  0  0  0
 21 23  2  0  0  0
 21 24  1  0  0  0
 10 11  2  0  0  0
 12 13  1  0  0  0
  1  2  1  0  0  0
 24 25  1  0  0  0
 24 26  1  0  0  0
M  END
> <minimizedAffinity>
-7.71352

$$$$
3M5E_JDR_A_264


 26 27  0  0  0  0  0  0  0  0999 V2000
   -4.4017    5.4678   12.2708 N   0  0  0  0  0  0  0  0  0  0  0  0
   -4.8836    6.1177   11.7099 H   0  0  0  0  0  0  0  0  0  0  0  0
   -2.8633    2.0493   10.5040 N   0  0  0  0  0  0  0  0  0  0  0  0
   -4.0588    2.0617   11.0785 C   0  0  0  0  0  0  0  0  0  0  0  0
   -4.5680    3.1521   11.6465 N   0  0  0  0  0  0  0  0  0  0  0  0
   -3.8645    4.2855   11.6519 C   0  0  0  0  0  0  0  0  0  0  0  0
   -2.6032    4.3192   11.0599 C   0  0  0  0  0  0  0  0  0  0  0  0
   -2.1243    3.1494   10.4798 C   0  0  0  0  0  0  0  0  0  0  0  0
   -0.5703    3.0842    9.7337 Cl  0  0  0  0  0  0  0  0  0  0  0  0
   -1.7840    5.5519   11.0387 C   0  0  0  0  0  0  0  0  0  0  0  0
   -1.1652    5.9032   12.0458 O   0  0  0  0  0  0  0  0  0  0  0  0
   -5.0292    0.5977   11.1263 S   0  0  0  0  0  0  0  0  0  0  0  0
   -4.0760   -0.8019   11.8020 C   0  0  0  0  0  0  0  0  0  0  0  0
   -4.2617    5.7398   13.6871 C   0  0  0  0  0  0  0  0  0  0  0  0
   -4.6797    4.6167   14.5777 C   0  0  0  0  0  0  0  0  0  0  0  0
   -3.8245    3.6244   15.0613 C   0  0  0  0  0  0  0  0  0  0  0  0
   -4.3362    2.6210   15.8932 C   0  0  0  0  0  0  0  0  0  0  0  0
   -5.6988    2.6361   16.2214 C   0  0  0  0  0  0  0  0  0  0  0  0
   -6.5342    3.6302   15.7350 C   0  0  0  0  0  0  0  0  0  0  0  0
   -6.0223    4.6200   14.9085 C   0  0  0  0  0  0  0  0  0  0  0  0
   -6.4089    1.4266   17.2469 S   0  0  0  0  0  0  0  0  0  0  0  0
   -6.2544    1.8856   18.6747 O   0  0  0  0  0  0  0  0  0  0  0  0
   -7.8318    1.2043   16.7534 O   0  0  0  0  0  0  0  0  0  0  0  0
   -5.5166   -0.0270   17.0497 N   0  0  0  0  0  0  0  0  0  0  0  0
   -4.5612    0.1133   17.3782 H   0  0  0  0  0  0  0  0  0  0  0  0
   -5.5023   -0.2860   16.0632 H   0  0  0  0  0  0  0  0  0  0  0  0
  3  4  2  0  0  0
  3  8  1  0  0  0
  4  5  1  0  0  0
  4 12  1  0  0  0
  5  6  2  0  0  0
  6  7  1  0  0  0
  6  1  1  0  0  0
  7  8  2  0  0  0
  7 10  1  0  0  0
  8  9  1  0  0  0
  1 14  1  0  0  0
 15 16  2  0  0  0
 15 20  1  0  0  0
 15 14  1  0  0  0
 16 17  1  0  0  0
 17 18  2  0  0  0
 18 19  1  0  0  0
 18 21  1  0  0  0
 19 20  2  0  0  0
 21 22  2  0  0  0
 21 23  2  0  0  0
 21 24  1  0  0  0
 10 11  2  0  0  0
 12 13  1  0  0  0
  1  2  1  0  0  0
 24 25  1  0  0  0
 24 26  1  0  0  0
M  END
> <minimizedAffinity>
-7.35365

$$$$
3M5E_JDR_A_264


 26 27  0  0  0  0  0  0  0  0999 V2000
   -4.5694    5.5010   12.3235 N   0  0  0  0  0  0  0  0  0  0  0  0
   -5.4593    5.9057   12.2074 H   0  0  0  0  0  0  0  0  0  0  0  0
   -2.5390    4.1212    8.9846 N   0  0  0  0  0  0  0  0  0  0  0  0
   -2.2428    3.6990   10.2066 C   0  0  0  0  0  0  0  0  0  0  0  0
   -2.8879    4.1297   11.2880 N   0  0  0  0  0  0  0  0  0  0  0  0
   -3.8713    5.0221   11.1603 C   0  0  0  0  0  0  0  0  0  0  0  0
   -4.2169    5.4939    9.8953 C   0  0  0  0  0  0  0  0  0  0  0  0
   -3.5091    5.0059    8.8022 C   0  0  0  0  0  0  0  0  0  0  0  0
   -3.8514    5.5369    7.1969 Cl  0  0  0  0  0  0  0  0  0  0  0  0
   -5.3007    6.4832    9.7008 C   0  0  0  0  0  0  0  0  0  0  0  0
   -6.4435    6.2369   10.0932 O   0  0  0  0  0  0  0  0  0  0  0  0
   -0.9442    2.5405   10.4486 S   0  0  0  0  0  0  0  0  0  0  0  0
   -1.5959    0.9234   10.9820 C   0  0  0  0  0  0  0  0  0  0  0  0
   -4.0146    5.4111   13.6590 C   0  0  0  0  0  0  0  0  0  0  0  0
   -4.7400    4.4759   14.5693 C   0  0  0  0  0  0  0  0  0  0  0  0
   -6.0691    4.6271   14.9701 C   0  0  0  0  0  0  0  0  0  0  0  0
   -6.6405    3.6797   15.8284 C   0  0  0  0  0  0  0  0  0  0  0  0
   -5.8625    2.5992   16.2666 C   0  0  0  0  0  0  0  0  0  0  0  0
   -4.5448    2.4622   15.8571 C   0  0  0  0  0  0  0  0  0  0  0  0
   -3.9830    3.4057   15.0093 C   0  0  0  0  0  0  0  0  0  0  0  0
   -6.4987    1.3831   17.3320 S   0  0  0  0  0  0  0  0  0  0  0  0
   -6.3333    1.8782   18.7464 O   0  0  0  0  0  0  0  0  0  0  0  0
   -7.9211    1.0910   16.8748 O   0  0  0  0  0  0  0  0  0  0  0  0
   -5.5501   -0.0358   17.1444 N   0  0  0  0  0  0  0  0  0  0  0  0
   -4.5947    0.1513   17.4487 H   0  0  0  0  0  0  0  0  0  0  0  0
   -5.5459   -0.3148   16.1633 H   0  0  0  0  0  0  0  0  0  0  0  0
  3  4  2  0  0  0
  3  8  1  0  0  0
  4  5  1  0  0  0
  4 12  1  0  0  0
  5  6  2  0  0  0
  6  7  1  0  0  0
  6  1  1  0  0  0
  7  8  2  0  0  0
  7 10  1  0  0  0
  8  9  1  0  0  0
  1 14  1  0  0  0
 15 16  2  0  0  0
 15 20  1  0  0  0
 15 14  1  0  0  0
 16 17  1  0  0  0
 17 18  2  0  0  0
 18 19  1  0  0  0
 18 21  1  0  0  0
 19 20  2  0  0  0
 21 22  2  0  0  0
 21 23  2  0  0  0
 21 24  1  0  0  0
 10 11  2  0  0  0
 12 13  1  0  0  0
  1  2  1  0  0  0
 24 25  1  0  0  0
 24 26  1  0  0  0
M  END
> <minimizedAffinity>
-7.18248

$$$$
3M5E_JDR_A_264


 26 27  0  0  0  0  0  0  0  0999 V2000
   -4.8329    6.5587   13.0546 N   0  0  0  0  0  0  0  0  0  0  0  0
   -5.3376    7.2381   13.5575 H   0  0  0  0  0  0  0  0  0  0  0  0
   -5.4183    6.2545    8.9633 N   0  0  0  0  0  0  0  0  0  0  0  0
   -4.3014    5.8347    9.5426 C   0  0  0  0  0  0  0  0  0  0  0  0
   -4.1001    5.9220   10.8551 N   0  0  0  0  0  0  0  0  0  0  0  0
   -5.0437    6.4514   11.6356 C   0  0  0  0  0  0  0  0  0  0  0  0
   -6.2338    6.9058   11.0704 C   0  0  0  0  0  0  0  0  0  0  0  0
   -6.3884    6.7862    9.6934 C   0  0  0  0  0  0  0  0  0  0  0  0
   -7.8181    7.3307    8.8965 Cl  0  0  0  0  0  0  0  0  0  0  0  0
   -7.3114    7.4998   11.8932 C   0  0  0  0  0  0  0  0  0  0  0  0
   -7.8537    6.8353   12.7791 O   0  0  0  0  0  0  0  0  0  0  0  0
   -3.0088    5.1472    8.5711 S   0  0  0  0  0  0  0  0  0  0  0  0
   -3.3942    5.2543    6.7923 C   0  0  0  0  0  0  0  0  0  0  0  0
   -3.9070    5.7065   13.7730 C   0  0  0  0  0  0  0  0  0  0  0  0
   -4.5530    4.6096   14.5533 C   0  0  0  0  0  0  0  0  0  0  0  0
   -5.9235    4.5107   14.8018 C   0  0  0  0  0  0  0  0  0  0  0  0
   -6.4111    3.4308   15.5480 C   0  0  0  0  0  0  0  0  0  0  0  0
   -5.5091    2.4721   16.0298 C   0  0  0  0  0  0  0  0  0  0  0  0
   -4.1512    2.5835   15.7719 C   0  0  0  0  0  0  0  0  0  0  0  0
   -3.6735    3.6573   15.0348 C   0  0  0  0  0  0  0  0  0  0  0  0
   -6.0357    1.1044   16.9630 S   0  0  0  0  0  0  0  0  0  0  0  0
   -5.4815   -0.1376   16.3121 O   0  0  0  0  0  0  0  0  0  0  0  0
   -5.6184    1.3618   18.4042 O   0  0  0  0  0  0  0  0  0  0  0  0
   -7.7494    1.0349   16.8823 N   0  0  0  0  0  0  0  0  0  0  0  0
   -8.0377    0.8625   15.9192 H   0  0  0  0  0  0  0  0  0  0  0  0
   -8.1410    1.9212   17.2010 H   0  0  0  0  0  0  0  0  0  0  0  0
  3  4  2  0  0  0
  3  8  1  0  0  0
  4  5  1  0  0  0
  4 12  1  0  0  0
  5  6  2  0  0  0
  6  7  1  0  0  0
  6  1  1  0  0  0
  7  8  2  0  0  0
  7 10  1  0  0  0
  8  9  1  0  0  0
  1 14  1  0  0  0
 15 16  2  0  0  0
 15 20  1  0  0  0
 15 14  1  0  0  0
 16 17  1  0  0  0
 17 18  2  0  0  0
 18 19  1  0  0  0
 18 21  1  0  0  0
 19 20  2  0  0  0
 21 22  2  0  0  0
 21 23  2  0  0  0
 21 24  1  0  0  0
 10 11  2  0  0  0
 12 13  1  0  0  0
  1  2  1  0  0  0
 24 25  1  0  0  0
 24 26  1  0  0  0
M  END
> <minimizedAffinity>
-7.10647

$$$$
3M5E_JDR_A_264


 26 27  0  0  0  0  0  0  0  0999 V2000
   -4.0625    5.0583   12.1326 N   0  0  0  0  0  0  0  0  0  0  0  0
   -4.7745    5.5361   11.6488 H   0  0  0  0  0  0  0  0  0  0  0  0
   -1.7346    2.3140   10.0773 N   0  0  0  0  0  0  0  0  0  0  0  0
   -2.7124    1.9326   10.8885 C   0  0  0  0  0  0  0  0  0  0  0  0
   -3.4708    2.8015   11.5522 N   0  0  0  0  0  0  0  0  0  0  0  0
   -3.2543    4.1105   11.4130 C   0  0  0  0  0  0  0  0  0  0  0  0
   -2.2374    4.5573   10.5711 C   0  0  0  0  0  0  0  0  0  0  0  0
   -1.4792    3.6027    9.9017 C   0  0  0  0  0  0  0  0  0  0  0  0
   -0.1899    4.0530    8.8478 Cl  0  0  0  0  0  0  0  0  0  0  0  0
   -1.9581    5.9986   10.3819 C   0  0  0  0  0  0  0  0  0  0  0  0
   -1.4650    6.6606   11.2980 O   0  0  0  0  0  0  0  0  0  0  0  0
   -3.0375    0.2235   11.1347 S   0  0  0  0  0  0  0  0  0  0  0  0
   -4.8020   -0.1548   10.8752 C   0  0  0  0  0  0  0  0  0  0  0  0
   -3.8702    5.3375   13.5413 C   0  0  0  0  0  0  0  0  0  0  0  0
   -4.5600    4.3851   14.4613 C   0  0  0  0  0  0  0  0  0  0  0  0
   -5.9284    4.3976   14.7392 C   0  0  0  0  0  0  0  0  0  0  0  0
   -6.4599    3.4485   15.6209 C   0  0  0  0  0  0  0  0  0  0  0  0
   -5.6031    2.5059   16.2059 C   0  0  0  0  0  0  0  0  0  0  0  0
   -4.2468    2.5053   15.9173 C   0  0  0  0  0  0  0  0  0  0  0  0
   -3.7254    3.4501   15.0455 C   0  0  0  0  0  0  0  0  0  0  0  0
   -6.1857    1.2971   17.3096 S   0  0  0  0  0  0  0  0  0  0  0  0
   -5.4096    0.0297   17.0555 O   0  0  0  0  0  0  0  0  0  0  0  0
   -6.0860    1.8874   18.7093 O   0  0  0  0  0  0  0  0  0  0  0  0
   -7.8371    0.9985   16.9464 N   0  0  0  0  0  0  0  0  0  0  0  0
   -7.9129    0.6025   16.0095 H   0  0  0  0  0  0  0  0  0  0  0  0
   -8.3582    1.8743   16.9886 H   0  0  0  0  0  0  0  0  0  0  0  0
  3  4  2  0  0  0
  3  8  1  0  0  0
  4  5  1  0  0  0
  4 12  1  0  0  0
  5  6  2  0  0  0
  6  7  1  0  0  0
  6  1  1  0  0  0
  7  8  2  0  0  0
  7 10  1  0  0  0
  8  9  1  0  0  0
  1 14  1  0  0  0
 15 16  2  0  0  0
 15 20  1  0  0  0
 15 14  1  0  0  0
 16 17  1  0  0  0
 17 18  2  0  0  0
 18 19  1  0  0  0
 18 21  1  0  0  0
 19 20  2  0  0  0
 21 22  2  0  0  0
 21 23  2  0  0  0
 21 24  1  0  0  0
 10 11  2  0  0  0
 12 13  1  0  0  0
  1  2  1  0  0  0
 24 25  1  0  0  0
 24 26  1  0  0  0
M  END
> <minimizedAffinity>
-6.94299

$$$$
3M5E_JDR_A_264


 26 27  0  0  0  0  0  0  0  0999 V2000
   -2.5728    4.0519   12.7183 N   0  0  0  0  0  0  0  0  0  0  0  0
   -2.6634    3.0726   12.6723 H   0  0  0  0  0  0  0  0  0  0  0  0
    0.8903    5.8185   11.2829 N   0  0  0  0  0  0  0  0  0  0  0  0
    0.0869    6.4443   12.1328 C   0  0  0  0  0  0  0  0  0  0  0  0
   -1.0262    5.8891   12.6055 N   0  0  0  0  0  0  0  0  0  0  0  0
   -1.3670    4.6581   12.2203 C   0  0  0  0  0  0  0  0  0  0  0  0
   -0.5528    3.9626   11.3283 C   0  0  0  0  0  0  0  0  0  0  0  0
    0.5991    4.5930   10.8702 C   0  0  0  0  0  0  0  0  0  0  0  0
    1.6652    3.8221    9.7544 Cl  0  0  0  0  0  0  0  0  0  0  0  0
   -0.8865    2.5947   10.8714 C   0  0  0  0  0  0  0  0  0  0  0  0
   -1.0703    1.6936   11.6929 O   0  0  0  0  0  0  0  0  0  0  0  0
    0.4646    8.0759   12.6644 S   0  0  0  0  0  0  0  0  0  0  0  0
   -0.7267    8.6517   13.9188 C   0  0  0  0  0  0  0  0  0  0  0  0
   -3.6591    4.8254   13.2849 C   0  0  0  0  0  0  0  0  0  0  0  0
   -4.4734    4.0966   14.3023 C   0  0  0  0  0  0  0  0  0  0  0  0
   -5.7881    4.4171   14.6470 C   0  0  0  0  0  0  0  0  0  0  0  0
   -6.4496    3.6556   15.6182 C   0  0  0  0  0  0  0  0  0  0  0  0
   -5.7743    2.5869   16.2237 C   0  0  0  0  0  0  0  0  0  0  0  0
   -4.4695    2.2801   15.8681 C   0  0  0  0  0  0  0  0  0  0  0  0
   -3.8181    3.0400   14.9076 C   0  0  0  0  0  0  0  0  0  0  0  0
   -6.5261    1.5957   17.4366 S   0  0  0  0  0  0  0  0  0  0  0  0
   -6.4883    2.3543   18.7390 O   0  0  0  0  0  0  0  0  0  0  0  0
   -7.9028    1.2154   16.9099 O   0  0  0  0  0  0  0  0  0  0  0  0
   -5.5845    0.1712   17.6164 N   0  0  0  0  0  0  0  0  0  0  0  0
   -4.6596    0.4172   17.9692 H   0  0  0  0  0  0  0  0  0  0  0  0
   -5.4915   -0.2913   16.7120 H   0  0  0  0  0  0  0  0  0  0  0  0
  3  4  2  0  0  0
  3  8  1  0  0  0
  4  5  1  0  0  0
  4 12  1  0  0  0
  5  6  2  0  0  0
  6  7  1  0  0  0
  6  1  1  0  0  0
  7  8  2  0  0  0
  7 10  1  0  0  0
  8  9  1  0  0  0
  1 14  1  0  0  0
 15 16  2  0  0  0
 15 20  1  0  0  0
 15 14  1  0  0  0
 16 17  1  0  0  0
 17 18  2  0  0  0
 18 19  1  0  0  0
 18 21  1  0  0  0
 19 20  2  0  0  0
 21 22  2  0  0  0
 21 23  2  0  0  0
 21 24  1  0  0  0
 10 11  2  0  0  0
 12 13  1  0  0  0
  1  2  1  0  0  0
 24 25  1  0  0  0
 24 26  1  0  0  0
M  END
> <minimizedAffinity>
-6.69192

$$$$
3M5E_JDR_A_264


 26 27  0  0  0  0  0  0  0  0999 V2000
   -4.1349    4.8488   12.8461 N   0  0  0  0  0  0  0  0  0  0  0  0
   -3.3700    5.0427   12.2575 H   0  0  0  0  0  0  0  0  0  0  0  0
   -4.6289    0.9870   14.2663 N   0  0  0  0  0  0  0  0  0  0  0  0
   -4.7947    2.0458   15.0480 C   0  0  0  0  0  0  0  0  0  0  0  0
   -4.6434    3.2918   14.6060 N   0  0  0  0  0  0  0  0  0  0  0  0
   -4.3096    3.5062   13.3322 C   0  0  0  0  0  0  0  0  0  0  0  0
   -4.1250    2.4235   12.4742 C   0  0  0  0  0  0  0  0  0  0  0  0
   -4.2992    1.1446   12.9922 C   0  0  0  0  0  0  0  0  0  0  0  0
   -4.0810   -0.2606   12.0157 Cl  0  0  0  0  0  0  0  0  0  0  0  0
   -3.7554    2.6086   11.0528 C   0  0  0  0  0  0  0  0  0  0  0  0
   -4.6198    2.5561   10.1750 O   0  0  0  0  0  0  0  0  0  0  0  0
   -5.2133    1.8346   16.7414 S   0  0  0  0  0  0  0  0  0  0  0  0
   -6.8065    0.9666   16.9221 C   0  0  0  0  0  0  0  0  0  0  0  0
   -5.0403    5.9270   13.1884 C   0  0  0  0  0  0  0  0  0  0  0  0
   -5.8005    6.4880   12.0322 C   0  0  0  0  0  0  0  0  0  0  0  0
   -6.9047    7.3357   12.1422 C   0  0  0  0  0  0  0  0  0  0  0  0
   -7.5346    7.7989   10.9806 C   0  0  0  0  0  0  0  0  0  0  0  0
   -7.0409    7.3989    9.7312 C   0  0  0  0  0  0  0  0  0  0  0  0
   -5.9416    6.5587    9.6392 C   0  0  0  0  0  0  0  0  0  0  0  0
   -5.3236    6.1004   10.7935 C   0  0  0  0  0  0  0  0  0  0  0  0
   -7.7673    7.9301    8.2449 S   0  0  0  0  0  0  0  0  0  0  0  0
   -9.2575    7.7351    8.3656 O   0  0  0  0  0  0  0  0  0  0  0  0
   -7.2847    9.3525    7.9972 O   0  0  0  0  0  0  0  0  0  0  0  0
   -7.1929    6.9183    6.9821 N   0  0  0  0  0  0  0  0  0  0  0  0
   -7.5121    5.9626    7.1405 H   0  0  0  0  0  0  0  0  0  0  0  0
   -6.1732    6.9383    6.9676 H   0  0  0  0  0  0  0  0  0  0  0  0
  3  4  2  0  0  0
  3  8  1  0  0  0
  4  5  1  0  0  0
  4 12  1  0  0  0
  5  6  2  0  0  0
  6  7  1  0  0  0
  6  1  1  0  0  0
  7  8  2  0  0  0
  7 10  1  0  0  0
  8  9  1  0  0  0
  1 14  1  0  0  0
 15 16  2  0  0  0
 15 20  1  0  0  0
 15 14  1  0  0  0
 16 17  1  0  0  0
 17 18  2  0  0  0
 18 19  1  0  0  0
 18 21  1  0  0  0
 19 20  2  0  0  0
 21 22  2  0  0  0
 21 23  2  0  0  0
 21 24  1  0  0  0
 10 11  2  0  0  0
 12 13  1  0  0  0
  1  2  1  0  0  0
 24 25  1  0  0  0
 24 26  1  0  0  0
M  END
> <minimizedAffinity>
-6.66236

$$$$
3M5E_JDR_A_264


 26 27  0  0  0  0  0  0  0  0999 V2000
   -3.3185    6.7316   14.4485 N   0  0  0  0  0  0  0  0  0  0  0  0
   -3.4004    7.1687   15.3268 H   0  0  0  0  0  0  0  0  0  0  0  0
    0.2225    7.1398   12.3346 N   0  0  0  0  0  0  0  0  0  0  0  0
   -0.5757    6.0939   12.1658 C   0  0  0  0  0  0  0  0  0  0  0  0
   -1.7174    5.9504   12.8341 N   0  0  0  0  0  0  0  0  0  0  0  0
   -2.0906    6.8810   13.7142 C   0  0  0  0  0  0  0  0  0  0  0  0
   -1.2830    7.9973   13.9243 C   0  0  0  0  0  0  0  0  0  0  0  0
   -0.1027    8.0940   13.1952 C   0  0  0  0  0  0  0  0  0  0  0  0
    0.9714    9.4294   13.3922 Cl  0  0  0  0  0  0  0  0  0  0  0  0
   -1.6531    9.0577   14.8886 C   0  0  0  0  0  0  0  0  0  0  0  0
   -1.6301    8.8300   16.1003 O   0  0  0  0  0  0  0  0  0  0  0  0
   -0.1340    4.8206   11.0384 S   0  0  0  0  0  0  0  0  0  0  0  0
   -1.6071    3.9192   10.4538 C   0  0  0  0  0  0  0  0  0  0  0  0
   -4.4397    5.9631   13.9465 C   0  0  0  0  0  0  0  0  0  0  0  0
   -4.7107    4.7008   14.6966 C   0  0  0  0  0  0  0  0  0  0  0  0
   -3.7484    3.7377   15.0068 C   0  0  0  0  0  0  0  0  0  0  0  0
   -4.1260    2.5925   15.7186 C   0  0  0  0  0  0  0  0  0  0  0  0
   -5.4650    2.4393   16.1036 C   0  0  0  0  0  0  0  0  0  0  0  0
   -6.4080    3.4065   15.7900 C   0  0  0  0  0  0  0  0  0  0  0  0
   -6.0287    4.5375   15.0817 C   0  0  0  0  0  0  0  0  0  0  0  0
   -6.0118    1.0474   16.9882 S   0  0  0  0  0  0  0  0  0  0  0  0
   -5.4463   -0.1772   16.3146 O   0  0  0  0  0  0  0  0  0  0  0  0
   -5.6230    1.2645   18.4440 O   0  0  0  0  0  0  0  0  0  0  0  0
   -7.7237    0.9833   16.8716 N   0  0  0  0  0  0  0  0  0  0  0  0
   -7.9930    0.8380   15.8986 H   0  0  0  0  0  0  0  0  0  0  0  0
   -8.1204    1.8612   17.2068 H   0  0  0  0  0  0  0  0  0  0  0  0
  3  4  2  0  0  0
  3  8  1  0  0  0
  4  5  1  0  0  0
  4 12  1  0  0  0
  5  6  2  0  0  0
  6  7  1  0  0  0
  6  1  1  0  0  0
  7  8  2  0  0  0
  7 10  1  0  0  0
  8  9  1  0  0  0
  1 14  1  0  0  0
 15 16  2  0  0  0
 15 20  1  0  0  0
 15 14  1  0  0  0
 16 17  1  0  0  0
 17 18  2  0  0  0
 18 19  1  0  0  0
 18 21  1  0  0  0
 19 20  2  0  0  0
 21 22  2  0  0  0
 21 23  2  0  0  0
 21 24  1  0  0  0
 10 11  2  0  0  0
 12 13  1  0  0  0
  1  2  1  0  0  0
 24 25  1  0  0  0
 24 26  1  0  0  0
M  END
> <minimizedAffinity>
-6.65413

$$$$
3M5E_JDR_A_264


 26 27  0  0  0  0  0  0  0  0999 V2000
   -5.1092    6.1527   12.5996 N   0  0  0  0  0  0  0  0  0  0  0  0
   -6.0064    5.8118   12.3802 H   0  0  0  0  0  0  0  0  0  0  0  0
   -4.0550    9.9666   11.3678 N   0  0  0  0  0  0  0  0  0  0  0  0
   -3.1900    9.1635   11.9732 C   0  0  0  0  0  0  0  0  0  0  0  0
   -3.5122    7.9352   12.3711 N   0  0  0  0  0  0  0  0  0  0  0  0
   -4.7477    7.4757   12.1656 C   0  0  0  0  0  0  0  0  0  0  0  0
   -5.6900    8.2847   11.5331 C   0  0  0  0  0  0  0  0  0  0  0  0
   -5.2947    9.5581   11.1375 C   0  0  0  0  0  0  0  0  0  0  0  0
   -6.3897   10.6404   10.3593 Cl  0  0  0  0  0  0  0  0  0  0  0  0
   -7.0730    7.8210   11.2812 C   0  0  0  0  0  0  0  0  0  0  0  0
   -7.8184    7.5501   12.2254 O   0  0  0  0  0  0  0  0  0  0  0  0
   -1.5525    9.7133   12.2946 S   0  0  0  0  0  0  0  0  0  0  0  0
   -0.8614    8.8954   13.7703 C   0  0  0  0  0  0  0  0  0  0  0  0
   -4.2051    5.3019   13.3468 C   0  0  0  0  0  0  0  0  0  0  0  0
   -4.8704    4.4297   14.3597 C   0  0  0  0  0  0  0  0  0  0  0  0
   -6.1693    4.6144   14.8381 C   0  0  0  0  0  0  0  0  0  0  0  0
   -6.6846    3.7257   15.7896 C   0  0  0  0  0  0  0  0  0  0  0  0
   -5.8819    2.6690   16.2412 C   0  0  0  0  0  0  0  0  0  0  0  0
   -4.5950    2.4980   15.7540 C   0  0  0  0  0  0  0  0  0  0  0  0
   -4.0886    3.3835   14.8137 C   0  0  0  0  0  0  0  0  0  0  0  0
   -6.4487    1.5253   17.4199 S   0  0  0  0  0  0  0  0  0  0  0  0
   -6.4207    2.2012   18.7674 O   0  0  0  0  0  0  0  0  0  0  0  0
   -7.8027    1.0236   16.9379 O   0  0  0  0  0  0  0  0  0  0  0  0
   -5.3464    0.2093   17.4553 N   0  0  0  0  0  0  0  0  0  0  0  0
   -4.4358    0.5370   17.7775 H   0  0  0  0  0  0  0  0  0  0  0  0
   -5.2547   -0.1826   16.5181 H   0  0  0  0  0  0  0  0  0  0  0  0
  3  4  2  0  0  0
  3  8  1  0  0  0
  4  5  1  0  0  0
  4 12  1  0  0  0
  5  6  2  0  0  0
  6  7  1  0  0  0
  6  1  1  0  0  0
  7  8  2  0  0  0
  7 10  1  0  0  0
  8  9  1  0  0  0
  1 14  1  0  0  0
 15 16  2  0  0  0
 15 20  1  0  0  0
 15 14  1  0  0  0
 16 17  1  0  0  0
 17 18  2  0  0  0
 18 19  1  0  0  0
 18 21  1  0  0  0
 19 20  2  0  0  0
 21 22  2  0  0  0
 21 23  2  0  0  0
 21 24  1  0  0  0
 10 11  2  0  0  0
 12 13  1  0  0  0
  1  2  1  0  0  0
 24 25  1  0  0  0
 24 26  1  0  0  0
M  END
> <minimizedAffinity>
-6.61021

$$$$
3M5E_JDR_A_264


 26 27  0  0  0  0  0  0  0  0999 V2000
   -3.6485    4.9440   12.3744 N   0  0  0  0  0  0  0  0  0  0  0  0
   -2.9597    4.2471   12.4701 H   0  0  0  0  0  0  0  0  0  0  0  0
   -4.8596    6.0519    8.5691 N   0  0  0  0  0  0  0  0  0  0  0  0
   -5.5929    6.3195    9.6416 C   0  0  0  0  0  0  0  0  0  0  0  0
   -5.2159    5.9738   10.8701 N   0  0  0  0  0  0  0  0  0  0  0  0
   -4.0615    5.3302   11.0516 C   0  0  0  0  0  0  0  0  0  0  0  0
   -3.2583    5.0280    9.9535 C   0  0  0  0  0  0  0  0  0  0  0  0
   -3.7031    5.4166    8.6944 C   0  0  0  0  0  0  0  0  0  0  0  0
   -2.7887    5.0777    7.2714 Cl  0  0  0  0  0  0  0  0  0  0  0  0
   -1.9687    4.3167   10.1023 C   0  0  0  0  0  0  0  0  0  0  0  0
   -1.9493    3.1317   10.4427 O   0  0  0  0  0  0  0  0  0  0  0  0
   -7.1345    7.1452    9.4720 S   0  0  0  0  0  0  0  0  0  0  0  0
   -6.9226    8.9549    9.5375 C   0  0  0  0  0  0  0  0  0  0  0  0
   -4.2063    5.5401   13.5716 C   0  0  0  0  0  0  0  0  0  0  0  0
   -4.8279    4.5656   14.5167 C   0  0  0  0  0  0  0  0  0  0  0  0
   -6.1315    4.6559   15.0090 C   0  0  0  0  0  0  0  0  0  0  0  0
   -6.6028    3.6763   15.8916 C   0  0  0  0  0  0  0  0  0  0  0  0
   -5.7522    2.6255   16.2616 C   0  0  0  0  0  0  0  0  0  0  0  0
   -4.4611    2.5488   15.7615 C   0  0  0  0  0  0  0  0  0  0  0  0
   -3.9985    3.5240   14.8900 C   0  0  0  0  0  0  0  0  0  0  0  0
   -6.2626    1.3724   17.3516 S   0  0  0  0  0  0  0  0  0  0  0  0
   -7.6380    0.9246   16.9262 O   0  0  0  0  0  0  0  0  0  0  0  0
   -5.1710    0.3113   17.3522 O   0  0  0  0  0  0  0  0  0  0  0  0
   -6.3805    2.0522   18.9239 N   0  0  0  0  0  0  0  0  0  0  0  0
   -7.1103    2.7648   18.9323 H   0  0  0  0  0  0  0  0  0  0  0  0
   -5.4885    2.4761   19.1788 H   0  0  0  0  0  0  0  0  0  0  0  0
  3  4  2  0  0  0
  3  8  1  0  0  0
  4  5  1  0  0  0
  4 12  1  0  0  0
  5  6  2  0  0  0
  6  7  1  0  0  0
  6  1  1  0  0  0
  7  8  2  0  0  0
  7 10  1  0  0  0
  8  9  1  0  0  0
  1 14  1  0  0  0
 15 16  2  0  0  0
 15 20  1  0  0  0
 15 14  1  0  0  0
 16 17  1  0  0  0
 17 18  2  0  0  0
 18 19  1  0  0  0
 18 21  1  0  0  0
 19 20  2  0  0  0
 21 22  2  0  0  0
 21 23  2  0  0  0
 21 24  1  0  0  0
 10 11  2  0  0  0
 12 13  1  0  0  0
  1  2  1  0  0  0
 24 25  1  0  0  0
 24 26  1  0  0  0
M  END
> <minimizedAffinity>
-6.53651

$$$$
