2O4Z_HSW_A_300


 10  9  0  0  0  0  0  0  0  0999 V2000
   -4.6477    1.2297   15.7179 S   0  0  0  0  0  0  0  0  0  0  0  0
   -3.3933    1.6338   16.4192 O   0  0  0  0  0  0  0  0  0  0  0  0
   -5.6374    2.3430   15.9092 O   0  0  0  0  0  0  0  0  0  0  0  0
   -4.4177    0.9965   14.1313 N   0  0  0  0  0  0  0  0  0  0  0  0
   -3.7462    0.2413   13.9925 H   0  0  0  0  0  0  0  0  0  0  0  0
   -4.0577    1.8531   13.7104 H   0  0  0  0  0  0  0  0  0  0  0  0
   -5.5122    0.0906   17.7891 O   0  0  0  0  0  0  0  0  0  0  0  0
   -5.2303   -0.1583   16.3477 N   0  0  0  0  0  0  0  0  0  0  0  0
   -5.8613   -0.7185   18.1946 H   0  0  0  0  0  0  0  0  0  0  0  0
   -6.0883   -0.4267   15.8658 H   0  0  0  0  0  0  0  0  0  0  0  0
  7  8  1  0  0  0
  8  1  1  0  0  0
  1  2  2  0  0  0
  1  3  2  0  0  0
  1  4  1  0  0  0
  7  9  1  0  0  0
  8 10  1  0  0  0
  4  5  1  0  0  0
  4  6  1  0  0  0
M  END
> <minimizedAffinity>
-4.32060

$$$$
2O4Z_HSW_A_300


 10  9  0  0  0  0  0  0  0  0999 V2000
   -4.7629    0.9659   16.2078 S   0  0  0  0  0  0  0  0  0  0  0  0
   -4.6874   -0.2308   15.3184 O   0  0  0  0  0  0  0  0  0  0  0  0
   -3.3525    1.4152   16.4621 O   0  0  0  0  0  0  0  0  0  0  0  0
   -5.5896    2.1838   15.5313 N   0  0  0  0  0  0  0  0  0  0  0  0
   -6.5494    1.8867   15.3552 H   0  0  0  0  0  0  0  0  0  0  0  0
   -5.1479    2.4465   14.6502 H   0  0  0  0  0  0  0  0  0  0  0  0
   -6.9497    0.8683   17.4501 O   0  0  0  0  0  0  0  0  0  0  0  0
   -5.4965    0.5844   17.6145 N   0  0  0  0  0  0  0  0  0  0  0  0
   -7.4165    0.6513   18.2722 H   0  0  0  0  0  0  0  0  0  0  0  0
   -5.3559   -0.4038   17.8243 H   0  0  0  0  0  0  0  0  0  0  0  0
  7  8  1  0  0  0
  8  1  1  0  0  0
  1  2  2  0  0  0
  1  3  2  0  0  0
  1  4  1  0  0  0
  7  9  1  0  0  0
  8 10  1  0  0  0
  4  5  1  0  0  0
  4  6  1  0  0  0
M  END
> <minimizedAffinity>
-4.25301

$$$$
2O4Z_HSW_A_300


 10  9  0  0  0  0  0  0  0  0999 V2000
   -4.1632    0.8607   12.2251 S   0  0  0  0  0  0  0  0  0  0  0  0
   -4.3068   -0.6226   12.1352 O   0  0  0  0  0  0  0  0  0  0  0  0
   -4.3466    1.2342   13.6682 O   0  0  0  0  0  0  0  0  0  0  0  0
   -2.7064    1.3687   11.7308 N   0  0  0  0  0  0  0  0  0  0  0  0
   -2.5737    1.1187   10.7508 H   0  0  0  0  0  0  0  0  0  0  0  0
   -1.9820    0.9255   12.2958 H   0  0  0  0  0  0  0  0  0  0  0  0
   -4.5750    2.2751   10.1843 O   0  0  0  0  0  0  0  0  0  0  0  0
   -5.2891    1.5987   11.3031 N   0  0  0  0  0  0  0  0  0  0  0  0
   -5.2186    2.7253    9.6151 H   0  0  0  0  0  0  0  0  0  0  0  0
   -5.9432    0.9091   10.9328 H   0  0  0  0  0  0  0  0  0  0  0  0
  7  8  1  0  0  0
  8  1  1  0  0  0
  1  2  2  0  0  0
  1  3  2  0  0  0
  1  4  1  0  0  0
  7  9  1  0  0  0
  8 10  1  0  0  0
  4  5  1  0  0  0
  4  6  1  0  0  0
M  END
> <minimizedAffinity>
-4.25291

$$$$
2O4Z_HSW_A_300


 10  9  0  0  0  0  0  0  0  0999 V2000
   -6.1581    1.3759   17.0258 S   0  0  0  0  0  0  0  0  0  0  0  0
   -5.9925    1.9189   18.4066 O   0  0  0  0  0  0  0  0  0  0  0  0
   -7.5858    0.9277   16.8973 O   0  0  0  0  0  0  0  0  0  0  0  0
   -5.8501    2.4863   15.8871 N   0  0  0  0  0  0  0  0  0  0  0  0
   -4.8817    2.7962   15.9675 H   0  0  0  0  0  0  0  0  0  0  0  0
   -6.4738    3.2836   16.0123 H   0  0  0  0  0  0  0  0  0  0  0  0
   -3.8080    0.6803   16.4530 O   0  0  0  0  0  0  0  0  0  0  0  0
   -5.1473    0.1181   16.7837 N   0  0  0  0  0  0  0  0  0  0  0  0
   -3.1812   -0.0445   16.3026 H   0  0  0  0  0  0  0  0  0  0  0  0
   -5.0881   -0.4495   17.6291 H   0  0  0  0  0  0  0  0  0  0  0  0
  7  8  1  0  0  0
  8  1  1  0  0  0
  1  2  2  0  0  0
  1  3  2  0  0  0
  1  4  1  0  0  0
  7  9  1  0  0  0
  8 10  1  0  0  0
  4  5  1  0  0  0
  4  6  1  0  0  0
M  END
> <minimizedAffinity>
-4.24884

$$$$
2O4Z_HSW_A_300


 10  9  0  0  0  0  0  0  0  0999 V2000
   -6.0976    1.2970   17.0167 S   0  0  0  0  0  0  0  0  0  0  0  0
   -7.5204    0.8617   16.8943 O   0  0  0  0  0  0  0  0  0  0  0  0
   -5.9236    2.4902   16.1214 O   0  0  0  0  0  0  0  0  0  0  0  0
   -5.7108    1.7156   18.5332 N   0  0  0  0  0  0  0  0  0  0  0  0
   -5.8264    0.9102   19.1482 H   0  0  0  0  0  0  0  0  0  0  0  0
   -6.3218    2.4710   18.8437 H   0  0  0  0  0  0  0  0  0  0  0  0
   -3.7315    0.6829   16.4177 O   0  0  0  0  0  0  0  0  0  0  0  0
   -5.0932    0.0955   16.5583 N   0  0  0  0  0  0  0  0  0  0  0  0
   -3.1079   -0.0083   16.1449 H   0  0  0  0  0  0  0  0  0  0  0  0
   -5.0844   -0.6402   17.2647 H   0  0  0  0  0  0  0  0  0  0  0  0
  7  8  1  0  0  0
  8  1  1  0  0  0
  1  2  2  0  0  0
  1  3  2  0  0  0
  1  4  1  0  0  0
  7  9  1  0  0  0
  8 10  1  0  0  0
  4  5  1  0  0  0
  4  6  1  0  0  0
M  END
> <minimizedAffinity>
-4.06455

$$$$
2O4Z_HSW_A_300


 10  9  0  0  0  0  0  0  0  0999 V2000
   -4.4620    1.9278   15.3415 S   0  0  0  0  0  0  0  0  0  0  0  0
   -5.8701    2.3025   15.6665 O   0  0  0  0  0  0  0  0  0  0  0  0
   -4.4892    1.2197   14.0173 O   0  0  0  0  0  0  0  0  0  0  0  0
   -3.4923    3.2206   15.2274 N   0  0  0  0  0  0  0  0  0  0  0  0
   -3.4682    3.7076   16.1233 H   0  0  0  0  0  0  0  0  0  0  0  0
   -3.8479    3.8499   14.5078 H   0  0  0  0  0  0  0  0  0  0  0  0
   -4.9962    0.4706   17.3229 O   0  0  0  0  0  0  0  0  0  0  0  0
   -3.8533    0.9467   16.4944 N   0  0  0  0  0  0  0  0  0  0  0  0
   -4.6669   -0.1175   18.0205 H   0  0  0  0  0  0  0  0  0  0  0  0
   -3.3810    0.1524   16.0626 H   0  0  0  0  0  0  0  0  0  0  0  0
  7  8  1  0  0  0
  8  1  1  0  0  0
  1  2  2  0  0  0
  1  3  2  0  0  0
  1  4  1  0  0  0
  7  9  1  0  0  0
  8 10  1  0  0  0
  4  5  1  0  0  0
  4  6  1  0  0  0
M  END
> <minimizedAffinity>
-4.05128

$$$$
2O4Z_HSW_A_300


 10  9  0  0  0  0  0  0  0  0999 V2000
   -4.6561    1.1590   15.7297 S   0  0  0  0  0  0  0  0  0  0  0  0
   -3.4158    1.4339   16.5137 O   0  0  0  0  0  0  0  0  0  0  0  0
   -4.7758   -0.3328   15.6035 O   0  0  0  0  0  0  0  0  0  0  0  0
   -5.9842    1.7341   16.4578 N   0  0  0  0  0  0  0  0  0  0  0  0
   -5.9109    2.7475   16.5475 H   0  0  0  0  0  0  0  0  0  0  0  0
   -6.0720    1.3163   17.3841 H   0  0  0  0  0  0  0  0  0  0  0  0
   -4.2074    0.7690   13.2840 O   0  0  0  0  0  0  0  0  0  0  0  0
   -4.5595    1.8449   14.2523 N   0  0  0  0  0  0  0  0  0  0  0  0
   -4.1419    1.1452   12.3923 H   0  0  0  0  0  0  0  0  0  0  0  0
   -5.4568    2.2600   14.0012 H   0  0  0  0  0  0  0  0  0  0  0  0
  7  8  1  0  0  0
  8  1  1  0  0  0
  1  2  2  0  0  0
  1  3  2  0  0  0
  1  4  1  0  0  0
  7  9  1  0  0  0
  8 10  1  0  0  0
  4  5  1  0  0  0
  4  6  1  0  0  0
M  END
> <minimizedAffinity>
-4.02651

$$$$
2O4Z_HSW_A_300


 10  9  0  0  0  0  0  0  0  0999 V2000
   -4.5101    2.1487   12.7020 S   0  0  0  0  0  0  0  0  0  0  0  0
   -3.1410    2.6112   12.3273 O   0  0  0  0  0  0  0  0  0  0  0  0
   -4.3417    0.9599   13.6043 O   0  0  0  0  0  0  0  0  0  0  0  0
   -5.3517    3.2897   13.4859 N   0  0  0  0  0  0  0  0  0  0  0  0
   -5.4706    4.1012   12.8795 H   0  0  0  0  0  0  0  0  0  0  0  0
   -4.8472    3.5657   14.3284 H   0  0  0  0  0  0  0  0  0  0  0  0
   -4.5142    2.0670   10.1865 O   0  0  0  0  0  0  0  0  0  0  0  0
   -5.3546    1.7314   11.3697 N   0  0  0  0  0  0  0  0  0  0  0  0
   -4.9894    1.8302    9.3747 H   0  0  0  0  0  0  0  0  0  0  0  0
   -5.5549    0.7313   11.3828 H   0  0  0  0  0  0  0  0  0  0  0  0
  7  8  1  0  0  0
  8  1  1  0  0  0
  1  2  2  0  0  0
  1  3  2  0  0  0
  1  4  1  0  0  0
  7  9  1  0  0  0
  8 10  1  0  0  0
  4  5  1  0  0  0
  4  6  1  0  0  0
M  END
> <minimizedAffinity>
-4.00886

$$$$
2O4Z_HSW_A_300


 10  9  0  0  0  0  0  0  0  0999 V2000
   -4.1435    0.9089   12.1509 S   0  0  0  0  0  0  0  0  0  0  0  0
   -2.7912    1.4481   11.8205 O   0  0  0  0  0  0  0  0  0  0  0  0
   -4.3571    1.1264   13.6216 O   0  0  0  0  0  0  0  0  0  0  0  0
   -5.3221    1.6594   11.3310 N   0  0  0  0  0  0  0  0  0  0  0  0
   -5.1844    1.5165   10.3305 H   0  0  0  0  0  0  0  0  0  0  0  0
   -5.2979    2.6578   11.5384 H   0  0  0  0  0  0  0  0  0  0  0  0
   -2.9709   -1.0422   11.0770 O   0  0  0  0  0  0  0  0  0  0  0  0
   -4.2240   -0.6821   11.7977 N   0  0  0  0  0  0  0  0  0  0  0  0
   -2.9872   -1.9855   10.8517 H   0  0  0  0  0  0  0  0  0  0  0  0
   -4.3007   -1.2265   12.6569 H   0  0  0  0  0  0  0  0  0  0  0  0
  7  8  1  0  0  0
  8  1  1  0  0  0
  1  2  2  0  0  0
  1  3  2  0  0  0
  1  4  1  0  0  0
  7  9  1  0  0  0
  8 10  1  0  0  0
  4  5  1  0  0  0
  4  6  1  0  0  0
M  END
> <minimizedAffinity>
-3.82534

$$$$
2O4Z_HSW_A_300


 10  9  0  0  0  0  0  0  0  0999 V2000
   -4.7510    1.0535   16.3664 S   0  0  0  0  0  0  0  0  0  0  0  0
   -5.1315    0.6280   17.7458 O   0  0  0  0  0  0  0  0  0  0  0  0
   -3.3677    1.6324   16.4499 O   0  0  0  0  0  0  0  0  0  0  0  0
   -4.7415   -0.1845   15.3214 N   0  0  0  0  0  0  0  0  0  0  0  0
   -5.6781   -0.5837   15.2587 H   0  0  0  0  0  0  0  0  0  0  0  0
   -4.0888   -0.8980   15.6456 H   0  0  0  0  0  0  0  0  0  0  0  0
   -5.1298    2.8854   14.6824 O   0  0  0  0  0  0  0  0  0  0  0  0
   -5.7986    2.1722   15.8064 N   0  0  0  0  0  0  0  0  0  0  0  0
   -5.7286    3.5600   14.3257 H   0  0  0  0  0  0  0  0  0  0  0  0
   -6.6492    1.7178   15.4740 H   0  0  0  0  0  0  0  0  0  0  0  0
  7  8  1  0  0  0
  8  1  1  0  0  0
  1  2  2  0  0  0
  1  3  2  0  0  0
  1  4  1  0  0  0
  7  9  1  0  0  0
  8 10  1  0  0  0
  4  5  1  0  0  0
  4  6  1  0  0  0
M  END
> <minimizedAffinity>
-3.81848

$$$$
