1OLX_TDP_A_601


 30 31  0  0  0  0  0  0  0  0999 V2000
   75.6342    1.8243    7.4427 N   0  0  0  0  0  0  0  0  0  0  0  0
   75.4043    3.1201    7.0345 C   0  0  0  0  0  0  0  0  0  0  0  0
   73.7218    3.3255    6.5364 S   0  0  0  0  0  0  0  0  0  0  0  0
   73.3856    1.6469    6.8841 C   0  0  0  0  0  0  0  0  0  0  0  0
   74.4389    0.9265    7.3567 C   0  0  0  0  0  0  0  0  0  0  0  0
   74.4507   -0.5595    7.7572 C   0  0  0  0  0  0  0  0  0  0  0  0
   76.9613    1.3854    7.9407 C   0  0  0  0  0  0  0  0  0  0  0  0
   77.1274    0.7712   11.7183 N   0  0  0  0  0  0  0  0  0  0  0  0
   77.4147    1.9964   12.1941 C   0  0  0  0  0  0  0  0  0  0  0  0
   77.5593    2.1070   13.7133 C   0  0  0  0  0  0  0  0  0  0  0  0
   77.5756    3.0915   11.3907 N   0  0  0  0  0  0  0  0  0  0  0  0
   77.4269    2.8865   10.0656 C   0  0  0  0  0  0  0  0  0  0  0  0
   77.6014    4.0023    9.3053 N   0  0  0  0  0  0  0  0  0  0  0  0
   77.1218    1.5960    9.4655 C   0  0  0  0  0  0  0  0  0  0  0  0
   76.9787    0.5573   10.3963 C   0  0  0  0  0  0  0  0  0  0  0  0
   77.8071    4.8637    9.7353 H   0  0  0  0  0  0  0  0  0  0  0  0
   77.5218    3.9477    8.3256 H   0  0  0  0  0  0  0  0  0  0  0  0
   71.9403    1.2534    6.6146 C   0  0  0  0  0  0  0  0  0  0  0  0
   71.0354    2.5085    6.4915 C   0  0  0  0  0  0  0  0  0  0  0  0
   70.1052    2.4763    7.5812 O   0  0  0  0  0  0  0  0  0  0  0  0
   69.0132    3.5503    7.7388 P   0  0  0  0  0  0  0  0  0  0  0  0
   69.0565    4.1369    9.1284 O   0  0  0  0  0  0  0  0  0  0  0  0
   67.7195    2.8513    7.4839 O   0  0  0  0  0  0  0  0  0  0  0  0
   67.7211    2.4857    6.5854 H   0  0  0  0  0  0  0  0  0  0  0  0
   69.2311    4.6912    6.6796 O   0  0  0  0  0  0  0  0  0  0  0  0
   68.3363    5.2751    5.4801 P   0  0  0  0  0  0  0  0  0  0  0  0
   66.9968    5.5942    6.1353 O   0  0  0  0  0  0  0  0  0  0  0  0
   69.0482    6.5166    5.0311 O   0  0  0  0  0  0  0  0  0  0  0  0
   68.1831    4.2615    4.4182 O   0  0  0  0  0  0  0  0  0  0  0  0
   67.7171    3.4887    4.7737 H   0  0  0  0  0  0  0  0  0  0  0  0
  8  9  2  0  0  0
  8 15  1  0  0  0
  9 10  1  0  0  0
  9 11  1  0  0  0
 11 12  2  0  0  0
 12 13  1  0  0  0
 12 14  1  0  0  0
 14 15  2  0  0  0
 14  7  1  0  0  0
  7  1  1  0  0  0
  1  2  2  0  0  0
  1  5  1  0  0  0
  2  3  1  0  0  0
  3  4  1  0  0  0
  4  5  2  0  0  0
  4 18  1  0  0  0
  5  6  1  0  0  0
 18 19  1  0  0  0
 19 20  1  0  0  0
 20 21  1  0  0  0
 21 25  1  0  0  0
 21 22  2  0  0  0
 21 23  1  0  0  0
 25 26  1  0  0  0
 26 27  2  0  0  0
 26 28  1  0  0  0
 26 29  1  0  0  0
 13 16  1  0  0  0
 13 17  1  0  0  0
 23 24  1  0  0  0
 29 30  1  0  0  0
M  CHG 1   1   1
M  CHG 1  28  -1
M  END
> <minimizedAffinity>
-10.98455

$$$$
1OLX_TDP_A_601


 30 31  0  0  0  0  0  0  0  0999 V2000
   75.7671    2.0570    7.4311 N   0  0  0  0  0  0  0  0  0  0  0  0
   75.4637    3.3395    7.0289 C   0  0  0  0  0  0  0  0  0  0  0  0
   73.7606    3.4620    6.5755 S   0  0  0  0  0  0  0  0  0  0  0  0
   73.5159    1.7695    6.9321 C   0  0  0  0  0  0  0  0  0  0  0  0
   74.6151    1.1020    7.3768 C   0  0  0  0  0  0  0  0  0  0  0  0
   74.7100   -0.3812    7.7770 C   0  0  0  0  0  0  0  0  0  0  0  0
   77.1268    1.6840    7.8939 C   0  0  0  0  0  0  0  0  0  0  0  0
   77.4545    3.0870   11.4435 N   0  0  0  0  0  0  0  0  0  0  0  0
   77.5584    1.9684   12.1838 C   0  0  0  0  0  0  0  0  0  0  0  0
   77.7029    2.1760   13.6928 C   0  0  0  0  0  0  0  0  0  0  0  0
   77.5361    0.7112   11.6458 N   0  0  0  0  0  0  0  0  0  0  0  0
   77.4051    0.6380   10.3051 C   0  0  0  0  0  0  0  0  0  0  0  0
   77.3821   -0.6320    9.8152 N   0  0  0  0  0  0  0  0  0  0  0  0
   77.2814    1.7944    9.4298 C   0  0  0  0  0  0  0  0  0  0  0  0
   77.3219    3.0230   10.1042 C   0  0  0  0  0  0  0  0  0  0  0  0
   77.4677   -1.3976   10.4281 H   0  0  0  0  0  0  0  0  0  0  0  0
   77.2799   -0.7847    8.8480 H   0  0  0  0  0  0  0  0  0  0  0  0
   72.0849    1.3057    6.7010 C   0  0  0  0  0  0  0  0  0  0  0  0
   71.1313    2.5157    6.5114 C   0  0  0  0  0  0  0  0  0  0  0  0
   70.2782    2.5748    7.6613 O   0  0  0  0  0  0  0  0  0  0  0  0
   69.0852    3.5460    7.7288 P   0  0  0  0  0  0  0  0  0  0  0  0
   68.9468    4.1044    9.1238 O   0  0  0  0  0  0  0  0  0  0  0  0
   67.8881    2.7426    7.3436 O   0  0  0  0  0  0  0  0  0  0  0  0
   68.0057    2.3977    6.4447 H   0  0  0  0  0  0  0  0  0  0  0  0
   69.2987    4.7239    6.7099 O   0  0  0  0  0  0  0  0  0  0  0  0
   68.4032    5.3430    5.5288 P   0  0  0  0  0  0  0  0  0  0  0  0
   68.3396    4.2312    4.4871 O   0  0  0  0  0  0  0  0  0  0  0  0
   67.0633    5.6030    6.1506 O   0  0  0  0  0  0  0  0  0  0  0  0
   69.0480    6.5521    4.9804 O   0  0  0  0  0  0  0  0  0  0  0  0
   69.9061    6.3146    4.5955 H   0  0  0  0  0  0  0  0  0  0  0  0
  8  9  2  0  0  0
  8 15  1  0  0  0
  9 10  1  0  0  0
  9 11  1  0  0  0
 11 12  2  0  0  0
 12 13  1  0  0  0
 12 14  1  0  0  0
 14 15  2  0  0  0
 14  7  1  0  0  0
  7  1  1  0  0  0
  1  2  2  0  0  0
  1  5  1  0  0  0
  2  3  1  0  0  0
  3  4  1  0  0  0
  4  5  2  0  0  0
  4 18  1  0  0  0
  5  6  1  0  0  0
 18 19  1  0  0  0
 19 20  1  0  0  0
 20 21  1  0  0  0
 21 25  1  0  0  0
 21 22  2  0  0  0
 21 23  1  0  0  0
 25 26  1  0  0  0
 26 27  2  0  0  0
 26 28  1  0  0  0
 26 29  1  0  0  0
 13 16  1  0  0  0
 13 17  1  0  0  0
 23 24  1  0  0  0
 29 30  1  0  0  0
M  CHG 1   1   1
M  CHG 1  28  -1
M  END
> <minimizedAffinity>
-10.53721

$$$$
1OLX_TDP_A_601


 30 31  0  0  0  0  0  0  0  0999 V2000
   76.0244    1.7817    7.5292 N   0  0  0  0  0  0  0  0  0  0  0  0
   75.6952    0.4992    7.9103 C   0  0  0  0  0  0  0  0  0  0  0  0
   73.9876    0.1755    7.5932 S   0  0  0  0  0  0  0  0  0  0  0  0
   73.7698    1.7916    6.9667 C   0  0  0  0  0  0  0  0  0  0  0  0
   74.8844    2.5722    6.9653 C   0  0  0  0  0  0  0  0  0  0  0  0
   75.0081    4.0247    6.4717 C   0  0  0  0  0  0  0  0  0  0  0  0
   77.4067    2.3056    7.6594 C   0  0  0  0  0  0  0  0  0  0  0  0
   78.6691    2.0047    4.0552 N   0  0  0  0  0  0  0  0  0  0  0  0
   79.2121    3.2169    3.8410 C   0  0  0  0  0  0  0  0  0  0  0  0
   79.8216    3.4416    2.4558 C   0  0  0  0  0  0  0  0  0  0  0  0
   79.2287    4.2059    4.7855 N   0  0  0  0  0  0  0  0  0  0  0  0
   78.6653    3.9057    5.9741 C   0  0  0  0  0  0  0  0  0  0  0  0
   78.6998    4.9210    6.8803 N   0  0  0  0  0  0  0  0  0  0  0  0
   78.0516    2.6240    6.2892 C   0  0  0  0  0  0  0  0  0  0  0  0
   78.1031    1.6969    5.2385 C   0  0  0  0  0  0  0  0  0  0  0  0
   79.1209    5.7786    6.6428 H   0  0  0  0  0  0  0  0  0  0  0  0
   78.3037    4.7976    7.7731 H   0  0  0  0  0  0  0  0  0  0  0  0
   72.3486    2.0700    6.4986 C   0  0  0  0  0  0  0  0  0  0  0  0
   71.5459    2.8380    7.5827 C   0  0  0  0  0  0  0  0  0  0  0  0
   70.1636    2.4996    7.4143 O   0  0  0  0  0  0  0  0  0  0  0  0
   69.0459    3.5236    7.6843 P   0  0  0  0  0  0  0  0  0  0  0  0
   69.1212    4.0126    9.1099 O   0  0  0  0  0  0  0  0  0  0  0  0
   67.7657    2.8023    7.4240 O   0  0  0  0  0  0  0  0  0  0  0  0
   67.7462    2.5007    6.5023 H   0  0  0  0  0  0  0  0  0  0  0  0
   69.1912    4.7424    6.7022 O   0  0  0  0  0  0  0  0  0  0  0  0
   68.3005    5.2976    5.4862 P   0  0  0  0  0  0  0  0  0  0  0  0
   66.9651    5.6499    6.1326 O   0  0  0  0  0  0  0  0  0  0  0  0
   69.0239    6.5177    4.9983 O   0  0  0  0  0  0  0  0  0  0  0  0
   68.1361    4.2534    4.4562 O   0  0  0  0  0  0  0  0  0  0  0  0
   67.6631    3.4964    4.8359 H   0  0  0  0  0  0  0  0  0  0  0  0
  8  9  2  0  0  0
  8 15  1  0  0  0
  9 10  1  0  0  0
  9 11  1  0  0  0
 11 12  2  0  0  0
 12 13  1  0  0  0
 12 14  1  0  0  0
 14 15  2  0  0  0
 14  7  1  0  0  0
  7  1  1  0  0  0
  1  2  2  0  0  0
  1  5  1  0  0  0
  2  3  1  0  0  0
  3  4  1  0  0  0
  4  5  2  0  0  0
  4 18  1  0  0  0
  5  6  1  0  0  0
 18 19  1  0  0  0
 19 20  1  0  0  0
 20 21  1  0  0  0
 21 25  1  0  0  0
 21 22  2  0  0  0
 21 23  1  0  0  0
 25 26  1  0  0  0
 26 27  2  0  0  0
 26 28  1  0  0  0
 26 29  1  0  0  0
 13 16  1  0  0  0
 13 17  1  0  0  0
 23 24  1  0  0  0
 29 30  1  0  0  0
M  CHG 1   1   1
M  CHG 1  28  -1
M  END
> <minimizedAffinity>
-10.37803

$$$$
1OLX_TDP_A_601


 30 31  0  0  0  0  0  0  0  0999 V2000
   73.4476    1.9874    6.9822 N   0  0  0  0  0  0  0  0  0  0  0  0
   73.6981    3.3006    6.6484 C   0  0  0  0  0  0  0  0  0  0  0  0
   75.4276    3.6477    6.7466 S   0  0  0  0  0  0  0  0  0  0  0  0
   75.7558    2.0072    7.2493 C   0  0  0  0  0  0  0  0  0  0  0  0
   74.6662    1.1980    7.3482 C   0  0  0  0  0  0  0  0  0  0  0  0
   74.6375   -0.2860    7.7553 C   0  0  0  0  0  0  0  0  0  0  0  0
   72.0760    1.4217    6.9542 C   0  0  0  0  0  0  0  0  0  0  0  0
   69.5967    3.7367    5.1739 N   0  0  0  0  0  0  0  0  0  0  0  0
   69.0618    4.4243    6.1993 C   0  0  0  0  0  0  0  0  0  0  0  0
   68.0000    5.4613    5.8276 C   0  0  0  0  0  0  0  0  0  0  0  0
   69.4252    4.2258    7.5027 N   0  0  0  0  0  0  0  0  0  0  0  0
   70.3702    3.2884    7.7228 C   0  0  0  0  0  0  0  0  0  0  0  0
   70.6957    3.1214    9.0341 N   0  0  0  0  0  0  0  0  0  0  0  0
   70.9971    2.4957    6.6754 C   0  0  0  0  0  0  0  0  0  0  0  0
   70.5398    2.7978    5.3848 C   0  0  0  0  0  0  0  0  0  0  0  0
   70.2572    3.6701    9.7239 H   0  0  0  0  0  0  0  0  0  0  0  0
   71.3696    2.4518    9.2925 H   0  0  0  0  0  0  0  0  0  0  0  0
   77.2343    1.7335    7.4851 C   0  0  0  0  0  0  0  0  0  0  0  0
   78.0704    2.0656    6.2203 C   0  0  0  0  0  0  0  0  0  0  0  0
   79.0206    3.0743    6.5859 O   0  0  0  0  0  0  0  0  0  0  0  0
   79.9377    3.7328    5.5390 P   0  0  0  0  0  0  0  0  0  0  0  0
   79.6527    3.1687    4.1687 O   0  0  0  0  0  0  0  0  0  0  0  0
   81.3320    3.4264    5.9737 O   0  0  0  0  0  0  0  0  0  0  0  0
   81.4854    3.8006    6.8554 H   0  0  0  0  0  0  0  0  0  0  0  0
   79.7025    5.2870    5.5270 O   0  0  0  0  0  0  0  0  0  0  0  0
   78.5225    6.2332    6.0679 P   0  0  0  0  0  0  0  0  0  0  0  0
   79.1215    7.6350    6.0299 O   0  0  0  0  0  0  0  0  0  0  0  0
   77.4093    6.0745    5.0753 O   0  0  0  0  0  0  0  0  0  0  0  0
   78.1507    5.8487    7.4435 O   0  0  0  0  0  0  0  0  0  0  0  0
   78.9118    5.9749    8.0314 H   0  0  0  0  0  0  0  0  0  0  0  0
  8  9  2  0  0  0
  8 15  1  0  0  0
  9 10  1  0  0  0
  9 11  1  0  0  0
 11 12  2  0  0  0
 12 13  1  0  0  0
 12 14  1  0  0  0
 14 15  2  0  0  0
 14  7  1  0  0  0
  7  1  1  0  0  0
  1  2  2  0  0  0
  1  5  1  0  0  0
  2  3  1  0  0  0
  3  4  1  0  0  0
  4  5  2  0  0  0
  4 18  1  0  0  0
  5  6  1  0  0  0
 18 19  1  0  0  0
 19 20  1  0  0  0
 20 21  1  0  0  0
 21 25  1  0  0  0
 21 22  2  0  0  0
 21 23  1  0  0  0
 25 26  1  0  0  0
 26 27  2  0  0  0
 26 28  1  0  0  0
 26 29  1  0  0  0
 13 16  1  0  0  0
 13 17  1  0  0  0
 23 24  1  0  0  0
 29 30  1  0  0  0
M  CHG 1   1   1
M  CHG 1  28  -1
M  END
> <minimizedAffinity>
-8.20069

$$$$
1OLX_TDP_A_601


 30 31  0  0  0  0  0  0  0  0999 V2000
   77.0961    3.5855    6.1994 N   0  0  0  0  0  0  0  0  0  0  0  0
   76.4013    4.7311    5.8777 C   0  0  0  0  0  0  0  0  0  0  0  0
   77.4834    5.9372    5.1738 S   0  0  0  0  0  0  0  0  0  0  0  0
   78.8453    4.8572    5.3493 C   0  0  0  0  0  0  0  0  0  0  0  0
   78.5608    3.6430    5.8938 C   0  0  0  0  0  0  0  0  0  0  0  0
   79.5402    2.4868    6.1638 C   0  0  0  0  0  0  0  0  0  0  0  0
   76.4209    2.3993    6.7816 C   0  0  0  0  0  0  0  0  0  0  0  0
   77.4102    3.1173   10.4122 N   0  0  0  0  0  0  0  0  0  0  0  0
   77.2091    1.9256   11.0036 C   0  0  0  0  0  0  0  0  0  0  0  0
   77.5131    1.8627   12.5018 C   0  0  0  0  0  0  0  0  0  0  0  0
   76.7586    0.8236   10.3304 N   0  0  0  0  0  0  0  0  0  0  0  0
   76.5209    0.9853    9.0123 C   0  0  0  0  0  0  0  0  0  0  0  0
   76.0690   -0.1354    8.3852 N   0  0  0  0  0  0  0  0  0  0  0  0
   76.7058    2.2377    8.2942 C   0  0  0  0  0  0  0  0  0  0  0  0
   77.1739    3.2879    9.0967 C   0  0  0  0  0  0  0  0  0  0  0  0
   75.9522   -0.9705    8.8933 H   0  0  0  0  0  0  0  0  0  0  0  0
   75.8589   -0.1107    7.4237 H   0  0  0  0  0  0  0  0  0  0  0  0
   80.1527    5.4486    4.8421 C   0  0  0  0  0  0  0  0  0  0  0  0
   80.3629    5.1266    3.3383 C   0  0  0  0  0  0  0  0  0  0  0  0
   80.5658    3.7123    3.2260 O   0  0  0  0  0  0  0  0  0  0  0  0
   80.0364    2.9170    2.0185 P   0  0  0  0  0  0  0  0  0  0  0  0
   81.1204    2.7645    0.9799 O   0  0  0  0  0  0  0  0  0  0  0  0
   78.8841    3.7044    1.4901 O   0  0  0  0  0  0  0  0  0  0  0  0
   78.2053    3.7855    2.1782 H   0  0  0  0  0  0  0  0  0  0  0  0
   79.5533    1.4963    2.4867 O   0  0  0  0  0  0  0  0  0  0  0  0
   78.1070    0.8494    2.7514 P   0  0  0  0  0  0  0  0  0  0  0  0
   77.2176    2.0449    3.0756 O   0  0  0  0  0  0  0  0  0  0  0  0
   77.7245    0.2048    1.4522 O   0  0  0  0  0  0  0  0  0  0  0  0
   78.1696   -0.0927    3.8858 O   0  0  0  0  0  0  0  0  0  0  0  0
   78.4211    0.3867    4.6907 H   0  0  0  0  0  0  0  0  0  0  0  0
  8  9  2  0  0  0
  8 15  1  0  0  0
  9 10  1  0  0  0
  9 11  1  0  0  0
 11 12  2  0  0  0
 12 13  1  0  0  0
 12 14  1  0  0  0
 14 15  2  0  0  0
 14  7  1  0  0  0
  7  1  1  0  0  0
  1  2  2  0  0  0
  1  5  1  0  0  0
  2  3  1  0  0  0
  3  4  1  0  0  0
  4  5  2  0  0  0
  4 18  1  0  0  0
  5  6  1  0  0  0
 18 19  1  0  0  0
 19 20  1  0  0  0
 20 21  1  0  0  0
 21 25  1  0  0  0
 21 22  2  0  0  0
 21 23  1  0  0  0
 25 26  1  0  0  0
 26 27  2  0  0  0
 26 28  1  0  0  0
 26 29  1  0  0  0
 13 16  1  0  0  0
 13 17  1  0  0  0
 23 24  1  0  0  0
 29 30  1  0  0  0
M  CHG 1   1   1
M  CHG 1  28  -1
M  END
> <minimizedAffinity>
-8.09917

$$$$
1OLX_TDP_A_601


 30 31  0  0  0  0  0  0  0  0999 V2000
   73.3974    1.9687    6.9527 N   0  0  0  0  0  0  0  0  0  0  0  0
   73.6604    3.2729    6.5943 C   0  0  0  0  0  0  0  0  0  0  0  0
   75.3956    3.5980    6.6619 S   0  0  0  0  0  0  0  0  0  0  0  0
   75.7093    1.9614    7.1861 C   0  0  0  0  0  0  0  0  0  0  0  0
   74.6106    1.1688    7.3138 C   0  0  0  0  0  0  0  0  0  0  0  0
   74.5682   -0.3081    7.7450 C   0  0  0  0  0  0  0  0  0  0  0  0
   72.0181    1.4212    6.9536 C   0  0  0  0  0  0  0  0  0  0  0  0
   69.5545    3.7640    5.1881 N   0  0  0  0  0  0  0  0  0  0  0  0
   69.0315    4.4556    6.2169 C   0  0  0  0  0  0  0  0  0  0  0  0
   67.9788    5.5040    5.8515 C   0  0  0  0  0  0  0  0  0  0  0  0
   69.3989    4.2515    7.5183 N   0  0  0  0  0  0  0  0  0  0  0  0
   70.3352    3.3042    7.7327 C   0  0  0  0  0  0  0  0  0  0  0  0
   70.6651    3.1320    9.0422 N   0  0  0  0  0  0  0  0  0  0  0  0
   70.9491    2.5066    6.6813 C   0  0  0  0  0  0  0  0  0  0  0  0
   70.4889    2.8151    5.3933 C   0  0  0  0  0  0  0  0  0  0  0  0
   70.2355    3.6842    9.7348 H   0  0  0  0  0  0  0  0  0  0  0  0
   71.3333    2.4552    9.2966 H   0  0  0  0  0  0  0  0  0  0  0  0
   77.1873    1.6716    7.4049 C   0  0  0  0  0  0  0  0  0  0  0  0
   78.0487    2.9330    7.1290 C   0  0  0  0  0  0  0  0  0  0  0  0
   79.0209    2.5809    6.1367 O   0  0  0  0  0  0  0  0  0  0  0  0
   79.6193    3.6350    5.1872 P   0  0  0  0  0  0  0  0  0  0  0  0
   81.1253    3.6255    5.2816 O   0  0  0  0  0  0  0  0  0  0  0  0
   79.0552    4.9438    5.6295 O   0  0  0  0  0  0  0  0  0  0  0  0
   78.0881    4.9198    5.5579 H   0  0  0  0  0  0  0  0  0  0  0  0
   79.1834    3.3285    3.7083 O   0  0  0  0  0  0  0  0  0  0  0  0
   77.7852    3.4228    2.9232 P   0  0  0  0  0  0  0  0  0  0  0  0
   77.0009    2.2097    3.4115 O   0  0  0  0  0  0  0  0  0  0  0  0
   77.1663    4.7097    3.3822 O   0  0  0  0  0  0  0  0  0  0  0  0
   78.0132    3.3600    1.4663 O   0  0  0  0  0  0  0  0  0  0  0  0
   78.4132    2.5063    1.2382 H   0  0  0  0  0  0  0  0  0  0  0  0
  8  9  2  0  0  0
  8 15  1  0  0  0
  9 10  1  0  0  0
  9 11  1  0  0  0
 11 12  2  0  0  0
 12 13  1  0  0  0
 12 14  1  0  0  0
 14 15  2  0  0  0
 14  7  1  0  0  0
  7  1  1  0  0  0
  1  2  2  0  0  0
  1  5  1  0  0  0
  2  3  1  0  0  0
  3  4  1  0  0  0
  4  5  2  0  0  0
  4 18  1  0  0  0
  5  6  1  0  0  0
 18 19  1  0  0  0
 19 20  1  0  0  0
 20 21  1  0  0  0
 21 25  1  0  0  0
 21 22  2  0  0  0
 21 23  1  0  0  0
 25 26  1  0  0  0
 26 27  2  0  0  0
 26 28  1  0  0  0
 26 29  1  0  0  0
 13 16  1  0  0  0
 13 17  1  0  0  0
 23 24  1  0  0  0
 29 30  1  0  0  0
M  CHG 1   1   1
M  CHG 1  28  -1
M  END
> <minimizedAffinity>
-8.00077

$$$$
