1OLX_TDP_A_601
  RCSB PDB12061703343D
Coordinates from PDB:1OLX:A:601 Model:1 without hydrogens
 26 27  0  0  0  0            999 V2000
   77.2010    0.5650   11.6500   N 0  0  0  0  0  0  0  0  0  0  0  0
   77.4630    1.7830   12.1580   C 0  0  0  0  0  0  0  0  0  0  0  0
   77.5550    1.8660   13.6830   C 0  0  0  0  0  0  0  0  0  0  0  0
   77.6430    2.8940   11.3810   N 0  0  0  0  0  0  0  0  0  0  0  0
   77.5410    2.7130   10.0480   C 0  0  0  0  0  0  0  0  0  0  0  0
   77.7330    3.8440    9.3150   N 0  0  0  0  0  0  0  0  0  0  0  0
   77.2660    1.4320    9.4140   C 0  0  0  0  0  0  0  0  0  0  0  0
   77.0990    0.3750   10.3200   C 0  0  0  0  0  0  0  0  0  0  0  0
   77.1590    1.2490    7.8810   C 0  0  0  0  0  0  0  0  0  0  0  0
   75.9320    1.8660    7.3190   N 0  3  0  0  0  0  0  0  0  0  0  0
   75.9500    3.1120    6.7310   C 0  0  0  0  0  0  0  0  0  0  0  0
   74.3290    3.5720    6.2000   S 0  0  0  0  0  0  0  0  0  0  0  0
   73.6800    2.0570    6.7790   C 0  0  0  0  0  0  0  0  0  0  0  0
   74.5830    1.2170    7.3540   C 0  0  0  0  0  0  0  0  0  0  0  0
   74.3140   -0.1720    7.9600   C 0  0  0  0  0  0  0  0  0  0  0  0
   72.1800    1.9210    6.5600   C 0  0  0  0  0  0  0  0  0  0  0  0
   71.3880    2.7750    7.5860   C 0  0  0  0  0  0  0  0  0  0  0  0
   69.9990    2.6740    7.2480   O 0  0  0  0  0  0  0  0  0  0  0  0
   68.9720    3.7060    7.7490   P 0  0  0  0  0  0  0  0  0  0  0  0
   69.0130    4.9850    6.8360   O 0  0  0  0  0  0  0  0  0  0  0  0
   69.2770    4.0940    9.1750   O 0  0  0  0  0  0  0  0  0  0  0  0
   67.6420    3.0380    7.6400   O 0  0  0  0  0  0  0  0  0  0  0  0
   68.7590    5.2370    5.2700   P 0  0  0  0  0  0  0  0  0  0  0  0
   68.2420    6.6700    5.2020   O 0  0  0  0  0  0  0  0  0  0  0  0
   70.1080    5.0990    4.6290   O 0  5  0  0  0  0  0  0  0  0  0  0
   67.7570    4.2830    4.7560   O 0  0  0  0  0  0  0  0  0  0  0  0
  1  2  2  0  0  0  0
  1  8  1  0  0  0  0
  2  3  1  0  0  0  0
  2  4  1  0  0  0  0
  4  5  2  0  0  0  0
  5  6  1  0  0  0  0
  5  7  1  0  0  0  0
  7  8  2  0  0  0  0
  7  9  1  0  0  0  0
  9 10  1  0  0  0  0
 10 11  2  0  0  0  0
 10 14  1  0  0  0  0
 11 12  1  0  0  0  0
 12 13  1  0  0  0  0
 13 14  2  0  0  0  0
 13 16  1  0  0  0  0
 14 15  1  0  0  0  0
 16 17  1  0  0  0  0
 17 18  1  0  0  0  0
 18 19  1  0  0  0  0
 19 20  1  0  0  0  0
 19 21  2  0  0  0  0
 19 22  1  0  0  0  0
 20 23  1  0  0  0  0
 23 24  2  0  0  0  0
 23 25  1  0  0  0  0
 23 26  1  0  0  0  0
M  CHG  2  10   1  25  -1
A    1
N1'
A    2
C2'
A    3
C2A
A    4
N3'
A    5
C4'
A    6
N4'
A    7
C5'
A    8
C6'
A    9
C35
A   10
N3
A   11
C2
A   12
S1
A   13
C5
A   14
C4
A   15
C4A
A   16
C5A
A   17
C5B
A   18
O5G
A   19
P1
A   20
O11
A   21
O12
A   22
O13
A   23
P2
A   24
O21
A   25
O22
A   26
O23
M  END
>  <InstanceId>
1OLX_TDP_A_601

>  <ChemCompId>
TDP

>  <PdbId>
1OLX

>  <ChainId>
A

>  <ResidueNumber>
601

>  <InsertionCode>


>  <Model>
1

>  <AltIds>


>  <MissingHeavyAtoms>
0

>  <ObservedFormula>
C12 N4 O7 P2 S

>  <Name>
THIAMIN DIPHOSPHATE

>  <SystematicName>
[2-[3-[(4-amino-2-methyl-pyrimidin-5-yl)methyl]-4-methyl-1,3-thiazol-3-ium-5-yl]ethoxy-hydroxy-phosphoryl] hydrogen phosphate

>  <Synonyms>


>  <Type>
NON-POLYMER

>  <Formula>
C12 H18 N4 O7 P2 S

>  <MolecularWeight>
424.306

>  <ModifiedDate>
2011-06-04

>  <Parent>


>  <OneLetterCode>


>  <SubcomponentList>


>  <AmbiguousFlag>
N

>  <InChI>
InChI=1S/C12H18N4O7P2S/c1-8-11(3-4-22-25(20,21)23-24(17,18)19)26-7-16(8)6-10-5-14-9(2)15-12(10)13/h5,7H,3-4,6H2,1-2H3,(H4-,13,14,15,17,18,19,20,21)

>  <InChIKey>
AYEKOFBPNLCAJY-UHFFFAOYSA-N

>  <SMILES>
Cc1c(sc[n+]1Cc2cnc(nc2N)C)CCO[P@@](=O)(O)O[P@](=O)(O)[O-]

$$$$
