3PRS_RIT_A_1001
  RCSB PDB12061710183D
Coordinates from PDB:3PRS:A:1001 Model:1 without hydrogens
 50 53  0  0  0  0            999 V2000
    2.7890    8.6360   16.1290   C 0  0  0  0  0  0  0  0  0  0  0  0
    3.1400    8.1810   14.8630   C 0  0  0  0  0  0  0  0  0  0  0  0
    4.7180    7.5550   14.9430   S 0  0  0  0  0  0  0  0  0  0  0  0
    4.8470    7.9150   16.6130   C 0  0  0  0  0  0  0  0  0  0  0  0
    3.7590    8.4800   17.1150   N 0  0  0  0  0  0  0  0  0  0  0  0
    2.3350    8.2090   13.6320   C 0  0  0  0  0  0  0  0  0  0  0  0
    2.6200    7.0870   12.7570   O 0  0  0  0  0  0  0  0  0  0  0  0
    1.6770    6.9560   11.7860   C 0  0  0  0  0  0  0  0  0  0  0  0
    0.5950    7.5100   11.8610   O 0  0  0  0  0  0  0  0  0  0  0  0
    2.1650    6.1530   10.7920   N 0  0  0  0  0  0  0  0  0  0  0  0
    1.3860    6.0740    9.5130   C 0  0  0  0  0  0  0  0  0  0  0  0
    1.3350    4.6090    9.0200   C 0  0  0  0  0  0  0  0  0  0  0  0
    0.4810    3.6890    9.8940   C 0  0  0  0  0  0  0  0  0  0  0  0
   -0.9780    4.1640   10.0740   C 0  0  0  0  0  0  0  0  0  0  0  0
    2.0260    7.0260    8.4580   C 0  0  0  0  0  0  0  0  0  0  0  0
    1.9450    8.4830    8.8420   C 0  0  0  0  0  0  0  0  0  0  0  0
    0.7520    9.1890    8.6020   C 0  0  0  0  0  0  0  0  0  0  0  0
    0.6660   10.5530    8.9710   C 0  0  0  0  0  0  0  0  0  0  0  0
    1.7580   11.1910    9.5700   C 0  0  0  0  0  0  0  0  0  0  0  0
    2.9310   10.4830    9.8120   C 0  0  0  0  0  0  0  0  0  0  0  0
    3.0360    9.1290    9.4400   C 0  0  0  0  0  0  0  0  0  0  0  0
    2.6620    4.0940    8.8740   O 0  0  0  0  0  0  0  0  0  0  0  0
   -1.8040    3.2440   10.9990   C 0  0  0  0  0  0  0  0  0  0  0  0
   -2.1920    1.8750   10.4720   C 0  0  0  0  0  0  0  0  0  0  0  0
   -3.2680    1.6770    9.6160   C 0  0  0  0  0  0  0  0  0  0  0  0
   -3.6210    0.4050    9.1620   C 0  0  0  0  0  0  0  0  0  0  0  0
   -2.8690   -0.6980    9.6000   C 0  0  0  0  0  0  0  0  0  0  0  0
   -1.7920   -0.5330   10.4420   C 0  0  0  0  0  0  0  0  0  0  0  0
   -1.4570    0.7500   10.8730   C 0  0  0  0  0  0  0  0  0  0  0  0
   -1.5440    4.2650    8.7180   N 0  0  0  0  0  0  0  0  0  0  0  0
   -4.2440    4.3260    7.0750   N 0  0  0  0  0  0  0  0  0  0  0  0
   -3.0430    5.1970    7.0360   C 0  0  0  0  0  0  0  0  0  0  0  0
   -2.5100    5.2120    8.4880   C 0  0  0  0  0  0  0  0  0  0  0  0
   -2.9160    5.9490    9.3760   O 0  0  0  0  0  0  0  0  0  0  0  0
   -3.3980    6.6570    6.6560   C 0  0  0  0  0  0  0  0  0  0  0  0
   -2.1350    7.5120    6.6510   C 0  0  0  0  0  0  0  0  0  0  0  0
   -4.0490    6.6610    5.2570   C 0  0  0  0  0  0  0  0  0  0  0  0
   -4.4000    3.3980    6.0590   C 0  0  0  0  0  0  0  0  0  0  0  0
   -5.5730    2.6430    6.1260   N 0  0  0  0  0  0  0  0  0  0  0  0
   -5.8520    1.7200    5.0290   C 0  0  0  0  0  0  0  0  0  0  0  0
   -3.6110    3.3330    5.1190   O 0  0  0  0  0  0  0  0  0  0  0  0
   -6.1120    0.3210    5.4880   C 0  0  0  0  0  0  0  0  0  0  0  0
   -5.1260   -0.5680    5.8420   C 0  0  0  0  0  0  0  0  0  0  0  0
   -5.8390   -2.0450    6.3170   S 0  0  0  0  0  0  0  0  0  0  0  0
   -7.3990   -1.4070    6.0240   C 0  0  0  0  0  0  0  0  0  0  0  0
   -7.3940   -0.1880    5.5840   N 0  0  0  0  0  0  0  0  0  0  0  0
   -8.5870   -2.3040    6.2900   C 0  0  0  0  0  0  0  0  0  0  0  0
   -9.0810   -2.9710    5.0230   C 0  0  0  0  0  0  0  0  0  0  0  0
   -8.2790   -3.3080    7.4070   C 0  0  0  0  0  0  0  0  0  0  0  0
   -6.5900    2.8060    7.1590   C 0  0  0  0  0  0  0  0  0  0  0  0
  1  2  2  0  0  0  0
  1  5  1  0  0  0  0
  2  3  1  0  0  0  0
  2  6  1  0  0  0  0
  3  4  1  0  0  0  0
  4  5  2  0  0  0  0
  6  7  1  0  0  0  0
  7  8  1  0  0  0  0
  8 10  1  0  0  0  0
  8  9  2  0  0  0  0
 10 11  1  0  0  0  0
 11 12  1  0  0  0  0
 11 15  1  0  0  0  0
 12 13  1  0  0  0  0
 12 22  1  0  0  0  0
 13 14  1  0  0  0  0
 14 23  1  0  0  0  0
 14 30  1  0  0  0  0
 33 32  1  0  0  0  0
 33 30  1  0  0  0  0
 33 34  2  0  0  0  0
 32 31  1  0  0  0  0
 32 35  1  0  0  0  0
 31 38  1  0  0  0  0
 38 39  1  0  0  0  0
 38 41  2  0  0  0  0
 15 16  1  0  0  0  0
 16 17  2  0  0  0  0
 16 21  1  0  0  0  0
 17 18  1  0  0  0  0
 18 19  2  0  0  0  0
 19 20  1  0  0  0  0
 20 21  2  0  0  0  0
 23 24  1  0  0  0  0
 24 25  2  0  0  0  0
 24 29  1  0  0  0  0
 25 26  1  0  0  0  0
 26 27  2  0  0  0  0
 27 28  1  0  0  0  0
 28 29  2  0  0  0  0
 35 36  1  0  0  0  0
 35 37  1  0  0  0  0
 39 40  1  0  0  0  0
 39 50  1  0  0  0  0
 40 42  1  0  0  0  0
 42 43  2  0  0  0  0
 42 46  1  0  0  0  0
 43 44  1  0  0  0  0
 44 45  1  0  0  0  0
 45 46  2  0  0  0  0
 45 47  1  0  0  0  0
 47 48  1  0  0  0  0
 47 49  1  0  0  0  0
A    1
C1
A    2
C2
A    3
S3
A    4
C4
A    5
N5
A    6
C6
A    7
O7
A    8
C10
A    9
O24
A   10
N11
A   11
C12
A   12
C13
A   13
C14
A   14
C15
A   15
C26
A   16
C28
A   17
C31
A   18
C32
A   19
C33
A   20
C34
A   21
C35
A   22
O41
A   23
C44
A   24
C45
A   25
C48
A   26
C49
A   27
C50
A   28
C51
A   29
C52
A   30
N58
A   31
N20
A   32
C19
A   33
C18
A   34
O61
A   35
C62
A   36
C64
A   37
C68
A   38
C21
A   39
N74
A   40
C75
A   41
O76
A   42
C77
A   43
C80
A   44
S81
A   45
C82
A   46
N83
A   47
C85
A   48
C86
A   49
C90
A   50
C95
M  END
>  <InstanceId>
3PRS_RIT_A_1001

>  <ChemCompId>
RIT

>  <PdbId>
3PRS

>  <ChainId>
A

>  <ResidueNumber>
1001

>  <InsertionCode>


>  <Model>
1

>  <AltIds>


>  <MissingHeavyAtoms>
0

>  <ObservedFormula>
C37 N6 O5 S2

>  <Name>
RITONAVIR

>  <SystematicName>
1,3-thiazol-5-ylmethyl N-[(2S,3S,5S)-3-hydroxy-5-[[(2S)-3-methyl-2-[[methyl-[(2-propan-2-yl-1,3-thiazol-4-yl)methyl]carbamoyl]amino]butanoyl]amino]-1,6-diphenyl-hexan-2-yl]carbamate

>  <Synonyms>
A-84538

>  <Type>
peptide-like

>  <Formula>
C37 H48 N6 O5 S2

>  <MolecularWeight>
720.944

>  <ModifiedDate>
2011-06-04

>  <Parent>


>  <OneLetterCode>


>  <SubcomponentList>
013 015 VAL 019

>  <AmbiguousFlag>
N

>  <InChI>
InChI=1S/C37H48N6O5S2/c1-24(2)33(42-36(46)43(5)20-29-22-49-35(40-29)25(3)4)34(45)39-28(16-26-12-8-6-9-13-26)18-32(44)31(17-27-14-10-7-11-15-27)41-37(47)48-21-30-19-38-23-50-30/h6-15,19,22-25,28,31-33,44H,16-18,20-21H2,1-5H3,(H,39,45)(H,41,47)(H,42,46)/t28-,31-,32-,33-/m0/s1

>  <InChIKey>
NCDNCNXCDXHOMX-XGKFQTDJSA-N

>  <SMILES>
CC(C)c1nc(cs1)CN(C)C(=O)N[C@@H](C(C)C)C(=O)N[C@@H](Cc2ccccc2)C[C@@H]([C@H](Cc3ccccc3)NC(=O)OCc4cncs4)O

$$$$
