3PRS_RIT_A_1001


 54 57  0  0  0  0  0  0  0  0999 V2000
   -1.2131    4.7505    9.6547 C   0  0  0  0  0  0  0  0  0  0  0  0
   -1.7499    4.8552    8.2872 N   0  0  0  0  0  0  0  0  0  0  0  0
   -2.5045    5.9566    7.9699 C   0  0  0  0  0  0  0  0  0  0  0  0
   -2.7506    6.8289    8.7914 O   0  0  0  0  0  0  0  0  0  0  0  0
   -1.5723    4.1543    7.6190 H   0  0  0  0  0  0  0  0  0  0  0  0
   -3.0327    5.9338    6.5163 C   0  0  0  0  0  0  0  0  0  0  0  0
   -4.3118    5.1840    6.5824 N   0  0  0  0  0  0  0  0  0  0  0  0
   -4.2899    3.8417    6.2425 C   0  0  0  0  0  0  0  0  0  0  0  0
   -5.5323    3.2048    6.2782 N   0  0  0  0  0  0  0  0  0  0  0  0
   -3.2658    3.2962    5.8375 O   0  0  0  0  0  0  0  0  0  0  0  0
   -6.7824    3.8741    6.6209 C   0  0  0  0  0  0  0  0  0  0  0  0
   -5.1472    5.6257    6.8585 H   0  0  0  0  0  0  0  0  0  0  0  0
   -5.5987    1.8165    5.8296 C   0  0  0  0  0  0  0  0  0  0  0  0
   -5.6882    0.8372    6.9558 C   0  0  0  0  0  0  0  0  0  0  0  0
   -5.2755   -0.4707    6.8723 C   0  0  0  0  0  0  0  0  0  0  0  0
   -5.5362   -1.2438    8.3723 S   0  0  0  0  0  0  0  0  0  0  0  0
   -6.1737    0.2023    9.0273 C   0  0  0  0  0  0  0  0  0  0  0  0
   -6.2110    1.1881    8.1868 N   0  0  0  0  0  0  0  0  0  0  0  0
   -6.6236    0.1821   10.4708 C   0  0  0  0  0  0  0  0  0  0  0  0
   -6.5802   -1.2159   11.0523 C   0  0  0  0  0  0  0  0  0  0  0  0
   -5.8350    1.1966   11.3071 C   0  0  0  0  0  0  0  0  0  0  0  0
   -3.2452    7.4044    6.0758 C   0  0  0  0  0  0  0  0  0  0  0  0
   -2.1348    7.8231    5.1177 C   0  0  0  0  0  0  0  0  0  0  0  0
   -4.6186    7.5209    5.3821 C   0  0  0  0  0  0  0  0  0  0  0  0
   -2.1654    4.0048   10.6146 C   0  0  0  0  0  0  0  0  0  0  0  0
   -2.0981    2.4892   10.6422 C   0  0  0  0  0  0  0  0  0  0  0  0
   -2.6269    1.6954    9.6322 C   0  0  0  0  0  0  0  0  0  0  0  0
   -2.5742    0.3016    9.6898 C   0  0  0  0  0  0  0  0  0  0  0  0
   -1.9802   -0.3031   10.8102 C   0  0  0  0  0  0  0  0  0  0  0  0
   -1.4400    0.4568   11.8236 C   0  0  0  0  0  0  0  0  0  0  0  0
   -1.4993    1.8471   11.7357 C   0  0  0  0  0  0  0  0  0  0  0  0
    0.1671    4.0693    9.5211 C   0  0  0  0  0  0  0  0  0  0  0  0
    1.2199    4.9230    8.8122 C   0  0  0  0  0  0  0  0  0  0  0  0
    2.5227    4.3457    8.9416 O   0  0  0  0  0  0  0  0  0  0  0  0
    2.7821    4.3392    9.8763 H   0  0  0  0  0  0  0  0  0  0  0  0
    1.2457    6.3990    9.2730 C   0  0  0  0  0  0  0  0  0  0  0  0
    1.7797    7.1903   11.5352 C   0  0  0  0  0  0  0  0  0  0  0  0
    0.6451    7.5067   11.8446 O   0  0  0  0  0  0  0  0  0  0  0  0
    2.2188    6.5620   10.4023 N   0  0  0  0  0  0  0  0  0  0  0  0
    3.1421    6.2280   10.3308 H   0  0  0  0  0  0  0  0  0  0  0  0
    2.8439    7.4551   12.3394 O   0  0  0  0  0  0  0  0  0  0  0  0
    2.7621    6.7277   13.5924 C   0  0  0  0  0  0  0  0  0  0  0  0
    3.0241    8.2172   15.6747 C   0  0  0  0  0  0  0  0  0  0  0  0
    3.5122    7.3845   14.6741 C   0  0  0  0  0  0  0  0  0  0  0  0
    5.1907    7.2254   14.8883 S   0  0  0  0  0  0  0  0  0  0  0  0
    5.1786    8.2473   16.2634 C   0  0  0  0  0  0  0  0  0  0  0  0
    3.9724    8.6998   16.5721 N   0  0  0  0  0  0  0  0  0  0  0  0
    1.6304    7.3684    8.1149 C   0  0  0  0  0  0  0  0  0  0  0  0
    1.6762    8.8159    8.5386 C   0  0  0  0  0  0  0  0  0  0  0  0
    0.4698    9.5240    8.6883 C   0  0  0  0  0  0  0  0  0  0  0  0
    0.5058   10.8788    9.0972 C   0  0  0  0  0  0  0  0  0  0  0  0
    1.7309   11.5058    9.3508 C   0  0  0  0  0  0  0  0  0  0  0  0
    2.9189   10.7957    9.2090 C   0  0  0  0  0  0  0  0  0  0  0  0
    2.9001    9.4509    8.7918 C   0  0  0  0  0  0  0  0  0  0  0  0
 43 44  2  0  0  0
 43 47  1  0  0  0
 44 45  1  0  0  0
 44 42  1  0  0  0
 45 46  1  0  0  0
 46 47  2  0  0  0
 42 41  1  0  0  0
 41 37  1  0  0  0
 37 39  1  0  0  0
 37 38  2  0  0  0
 39 36  1  0  0  0
 36 33  1  0  0  0
 36 48  1  0  0  0
 33 32  1  0  0  0
 33 34  1  0  0  0
 32  1  1  0  0  0
  1 25  1  0  0  0
  1  2  1  0  0  0
  3  6  1  0  0  0
  3  2  1  0  0  0
  3  4  2  0  0  0
  6  7  1  0  0  0
  6 22  1  0  0  0
  7  8  1  0  0  0
  8  9  1  0  0  0
  8 10  2  0  0  0
 48 49  1  0  0  0
 49 50  2  0  0  0
 49 54  1  0  0  0
 50 51  1  0  0  0
 51 52  2  0  0  0
 52 53  1  0  0  0
 53 54  2  0  0  0
 25 26  1  0  0  0
 26 27  2  0  0  0
 26 31  1  0  0  0
 27 28  1  0  0  0
 28 29  2  0  0  0
 29 30  1  0  0  0
 30 31  2  0  0  0
 22 23  1  0  0  0
 22 24  1  0  0  0
  9 13  1  0  0  0
  9 11  1  0  0  0
 13 14  1  0  0  0
 14 15  2  0  0  0
 14 18  1  0  0  0
 15 16  1  0  0  0
 16 17  1  0  0  0
 17 18  2  0  0  0
 17 19  1  0  0  0
 19 20  1  0  0  0
 19 21  1  0  0  0
 39 40  1  0  0  0
 34 35  1  0  0  0
  2  5  1  0  0  0
  7 12  1  0  0  0
M  END
> <minimizedAffinity>
-10.05069

$$$$
3PRS_RIT_A_1001


 54 57  0  0  0  0  0  0  0  0999 V2000
    0.0566    5.3713    9.4185 C   0  0  0  0  0  0  0  0  0  0  0  0
   -0.6229    5.8606    8.2068 N   0  0  0  0  0  0  0  0  0  0  0  0
   -1.9000    6.3468    8.3317 C   0  0  0  0  0  0  0  0  0  0  0  0
   -2.4815    6.3648    9.4078 O   0  0  0  0  0  0  0  0  0  0  0  0
   -0.1732    5.8393    7.3313 H   0  0  0  0  0  0  0  0  0  0  0  0
   -2.5123    6.8009    6.9858 C   0  0  0  0  0  0  0  0  0  0  0  0
   -3.7543    6.0021    6.8380 N   0  0  0  0  0  0  0  0  0  0  0  0
   -3.6226    4.6410    6.6192 C   0  0  0  0  0  0  0  0  0  0  0  0
   -4.8254    3.9542    6.4406 N   0  0  0  0  0  0  0  0  0  0  0  0
   -2.5206    4.1134    6.4865 O   0  0  0  0  0  0  0  0  0  0  0  0
   -6.1379    4.5906    6.4546 C   0  0  0  0  0  0  0  0  0  0  0  0
   -4.6414    6.4253    6.8937 H   0  0  0  0  0  0  0  0  0  0  0  0
   -4.7552    2.5354    6.1008 C   0  0  0  0  0  0  0  0  0  0  0  0
   -5.4211    1.6547    7.1089 C   0  0  0  0  0  0  0  0  0  0  0  0
   -6.6623    1.0910    6.9371 C   0  0  0  0  0  0  0  0  0  0  0  0
   -7.0512    0.1492    8.3072 S   0  0  0  0  0  0  0  0  0  0  0  0
   -5.5534    0.5498    9.0302 C   0  0  0  0  0  0  0  0  0  0  0  0
   -4.8208    1.3446    8.3153 N   0  0  0  0  0  0  0  0  0  0  0  0
   -5.2498   -0.0371   10.3903 C   0  0  0  0  0  0  0  0  0  0  0  0
   -6.5090   -0.4917   11.0988 C   0  0  0  0  0  0  0  0  0  0  0  0
   -4.1944   -1.1445   10.2885 C   0  0  0  0  0  0  0  0  0  0  0  0
   -2.8088    8.3180    7.0983 C   0  0  0  0  0  0  0  0  0  0  0  0
   -1.5106    9.0827    7.3352 C   0  0  0  0  0  0  0  0  0  0  0  0
   -3.4743    8.7916    5.7892 C   0  0  0  0  0  0  0  0  0  0  0  0
    0.1911    3.8333    9.4480 C   0  0  0  0  0  0  0  0  0  0  0  0
   -0.7453    3.0585   10.3565 C   0  0  0  0  0  0  0  0  0  0  0  0
   -2.0898    3.3780   10.4977 C   0  0  0  0  0  0  0  0  0  0  0  0
   -2.9277    2.6656   11.3573 C   0  0  0  0  0  0  0  0  0  0  0  0
   -2.3823    1.6081   12.1044 C   0  0  0  0  0  0  0  0  0  0  0  0
   -1.0552    1.2622   11.9803 C   0  0  0  0  0  0  0  0  0  0  0  0
   -0.2434    1.9859   11.1077 C   0  0  0  0  0  0  0  0  0  0  0  0
    1.4184    6.0991    9.4684 C   0  0  0  0  0  0  0  0  0  0  0  0
    1.3769    7.5396    8.9557 C   0  0  0  0  0  0  0  0  0  0  0  0
    1.9254    7.6326    7.6374 O   0  0  0  0  0  0  0  0  0  0  0  0
    2.8652    7.3936    7.6606 H   0  0  0  0  0  0  0  0  0  0  0  0
    2.0683    8.5591    9.8909 C   0  0  0  0  0  0  0  0  0  0  0  0
    2.2476    7.8131   12.2233 C   0  0  0  0  0  0  0  0  0  0  0  0
    1.1336    8.1636   12.5687 O   0  0  0  0  0  0  0  0  0  0  0  0
    2.8075    7.8338   10.9755 N   0  0  0  0  0  0  0  0  0  0  0  0
    3.6666    7.3878   10.7956 H   0  0  0  0  0  0  0  0  0  0  0  0
    3.1556    7.3275   13.1116 O   0  0  0  0  0  0  0  0  0  0  0  0
    2.6081    7.2600   14.4538 C   0  0  0  0  0  0  0  0  0  0  0  0
    4.8746    7.8238   15.5347 C   0  0  0  0  0  0  0  0  0  0  0  0
    3.4881    7.8863   15.4525 C   0  0  0  0  0  0  0  0  0  0  0  0
    2.9228    8.8398   16.7408 S   0  0  0  0  0  0  0  0  0  0  0  0
    4.5108    9.1097   17.3246 C   0  0  0  0  0  0  0  0  0  0  0  0
    5.4467    8.5205   16.5953 N   0  0  0  0  0  0  0  0  0  0  0  0
    3.0576    9.4847    9.1205 C   0  0  0  0  0  0  0  0  0  0  0  0
    2.7525   10.9532    9.2858 C   0  0  0  0  0  0  0  0  0  0  0  0
    3.8114   11.8510    9.5139 C   0  0  0  0  0  0  0  0  0  0  0  0
    3.5326   13.2314    9.6579 C   0  0  0  0  0  0  0  0  0  0  0  0
    2.2156   13.6969    9.5725 C   0  0  0  0  0  0  0  0  0  0  0  0
    1.1753   12.8033    9.3378 C   0  0  0  0  0  0  0  0  0  0  0  0
    1.4353   11.4259    9.2041 C   0  0  0  0  0  0  0  0  0  0  0  0
 43 44  2  0  0  0
 43 47  1  0  0  0
 44 45  1  0  0  0
 44 42  1  0  0  0
 45 46  1  0  0  0
 46 47  2  0  0  0
 42 41  1  0  0  0
 41 37  1  0  0  0
 37 39  1  0  0  0
 37 38  2  0  0  0
 39 36  1  0  0  0
 36 33  1  0  0  0
 36 48  1  0  0  0
 33 32  1  0  0  0
 33 34  1  0  0  0
 32  1  1  0  0  0
  1 25  1  0  0  0
  1  2  1  0  0  0
  3  6  1  0  0  0
  3  2  1  0  0  0
  3  4  2  0  0  0
  6  7  1  0  0  0
  6 22  1  0  0  0
  7  8  1  0  0  0
  8  9  1  0  0  0
  8 10  2  0  0  0
 48 49  1  0  0  0
 49 50  2  0  0  0
 49 54  1  0  0  0
 50 51  1  0  0  0
 51 52  2  0  0  0
 52 53  1  0  0  0
 53 54  2  0  0  0
 25 26  1  0  0  0
 26 27  2  0  0  0
 26 31  1  0  0  0
 27 28  1  0  0  0
 28 29  2  0  0  0
 29 30  1  0  0  0
 30 31  2  0  0  0
 22 23  1  0  0  0
 22 24  1  0  0  0
  9 13  1  0  0  0
  9 11  1  0  0  0
 13 14  1  0  0  0
 14 15  2  0  0  0
 14 18  1  0  0  0
 15 16  1  0  0  0
 16 17  1  0  0  0
 17 18  2  0  0  0
 17 19  1  0  0  0
 19 20  1  0  0  0
 19 21  1  0  0  0
 39 40  1  0  0  0
 34 35  1  0  0  0
  2  5  1  0  0  0
  7 12  1  0  0  0
M  END
> <minimizedAffinity>
-9.97401

$$$$
3PRS_RIT_A_1001


 54 57  0  0  0  0  0  0  0  0999 V2000
   -1.0315    4.7360    8.6230 C   0  0  0  0  0  0  0  0  0  0  0  0
   -1.5459    3.3746    8.8496 N   0  0  0  0  0  0  0  0  0  0  0  0
   -2.3580    3.1611    9.9348 C   0  0  0  0  0  0  0  0  0  0  0  0
   -2.6436    4.0597   10.7142 O   0  0  0  0  0  0  0  0  0  0  0  0
   -1.3133    2.6380    8.2392 H   0  0  0  0  0  0  0  0  0  0  0  0
   -2.8065    1.6877   10.0783 C   0  0  0  0  0  0  0  0  0  0  0  0
   -3.0481    1.2212    8.6903 N   0  0  0  0  0  0  0  0  0  0  0  0
   -4.3615    1.0361    8.2923 C   0  0  0  0  0  0  0  0  0  0  0  0
   -4.5202    0.5504    6.9926 N   0  0  0  0  0  0  0  0  0  0  0  0
   -5.2988    1.1884    9.0726 O   0  0  0  0  0  0  0  0  0  0  0  0
   -3.4113    0.2299    6.1006 C   0  0  0  0  0  0  0  0  0  0  0  0
   -2.3002    1.0491    8.0737 H   0  0  0  0  0  0  0  0  0  0  0  0
   -5.8736    0.2323    6.5452 C   0  0  0  0  0  0  0  0  0  0  0  0
   -6.4860    1.3098    5.7089 C   0  0  0  0  0  0  0  0  0  0  0  0
   -7.3767    2.2410    6.1859 C   0  0  0  0  0  0  0  0  0  0  0  0
   -7.8246    3.2965    4.9207 S   0  0  0  0  0  0  0  0  0  0  0  0
   -6.8101    2.4518    3.8326 C   0  0  0  0  0  0  0  0  0  0  0  0
   -6.1952    1.4421    4.3637 N   0  0  0  0  0  0  0  0  0  0  0  0
   -6.7433    2.9465    2.4052 C   0  0  0  0  0  0  0  0  0  0  0  0
   -7.1716    1.8781    1.4206 C   0  0  0  0  0  0  0  0  0  0  0  0
   -7.5265    4.2540    2.2389 C   0  0  0  0  0  0  0  0  0  0  0  0
   -1.6482    0.9131   10.7568 C   0  0  0  0  0  0  0  0  0  0  0  0
   -1.4244    1.4483   12.1674 C   0  0  0  0  0  0  0  0  0  0  0  0
   -2.0162   -0.5845   10.8079 C   0  0  0  0  0  0  0  0  0  0  0  0
   -2.1204    5.8196    8.7796 C   0  0  0  0  0  0  0  0  0  0  0  0
   -2.3983    6.7205    7.5906 C   0  0  0  0  0  0  0  0  0  0  0  0
   -2.0027    8.0514    7.5481 C   0  0  0  0  0  0  0  0  0  0  0  0
   -2.2897    8.8683    6.4531 C   0  0  0  0  0  0  0  0  0  0  0  0
   -3.0099    8.3224    5.3774 C   0  0  0  0  0  0  0  0  0  0  0  0
   -3.4087    7.0045    5.3866 C   0  0  0  0  0  0  0  0  0  0  0  0
   -3.1011    6.2094    6.4899 C   0  0  0  0  0  0  0  0  0  0  0  0
    0.1476    4.9165    9.6047 C   0  0  0  0  0  0  0  0  0  0  0  0
    1.3633    5.6204    8.9994 C   0  0  0  0  0  0  0  0  0  0  0  0
    2.5532    4.8497    9.1927 O   0  0  0  0  0  0  0  0  0  0  0  0
    2.7418    4.7784   10.1415 H   0  0  0  0  0  0  0  0  0  0  0  0
    1.5757    7.0625    9.5164 C   0  0  0  0  0  0  0  0  0  0  0  0
    2.1593    7.5580   11.8494 C   0  0  0  0  0  0  0  0  0  0  0  0
    1.0388    7.8695   12.2111 O   0  0  0  0  0  0  0  0  0  0  0  0
    2.5656    7.0579   10.6429 N   0  0  0  0  0  0  0  0  0  0  0  0
    3.4769    6.7068   10.5183 H   0  0  0  0  0  0  0  0  0  0  0  0
    3.2401    7.6910   12.6640 O   0  0  0  0  0  0  0  0  0  0  0  0
    3.1235    8.8554   13.5221 C   0  0  0  0  0  0  0  0  0  0  0  0
    4.6952    7.8152   15.2746 C   0  0  0  0  0  0  0  0  0  0  0  0
    3.6172    8.6018   14.8845 C   0  0  0  0  0  0  0  0  0  0  0  0
    2.9109    9.2639   16.2813 S   0  0  0  0  0  0  0  0  0  0  0  0
    4.0459    8.4877   17.3033 C   0  0  0  0  0  0  0  0  0  0  0  0
    4.9334    7.7572   16.6447 N   0  0  0  0  0  0  0  0  0  0  0  0
    2.0748    8.0207    8.3932 C   0  0  0  0  0  0  0  0  0  0  0  0
    2.0377    9.4760    8.7902 C   0  0  0  0  0  0  0  0  0  0  0  0
    3.2478   10.1483    9.0411 C   0  0  0  0  0  0  0  0  0  0  0  0
    3.2199   11.5168    9.4023 C   0  0  0  0  0  0  0  0  0  0  0  0
    1.9993   12.1932    9.5070 C   0  0  0  0  0  0  0  0  0  0  0  0
    0.8077   11.5230    9.2483 C   0  0  0  0  0  0  0  0  0  0  0  0
    0.8183   10.1589    8.8995 C   0  0  0  0  0  0  0  0  0  0  0  0
 43 44  2  0  0  0
 43 47  1  0  0  0
 44 45  1  0  0  0
 44 42  1  0  0  0
 45 46  1  0  0  0
 46 47  2  0  0  0
 42 41  1  0  0  0
 41 37  1  0  0  0
 37 39  1  0  0  0
 37 38  2  0  0  0
 39 36  1  0  0  0
 36 33  1  0  0  0
 36 48  1  0  0  0
 33 32  1  0  0  0
 33 34  1  0  0  0
 32  1  1  0  0  0
  1 25  1  0  0  0
  1  2  1  0  0  0
  3  6  1  0  0  0
  3  2  1  0  0  0
  3  4  2  0  0  0
  6  7  1  0  0  0
  6 22  1  0  0  0
  7  8  1  0  0  0
  8  9  1  0  0  0
  8 10  2  0  0  0
 48 49  1  0  0  0
 49 50  2  0  0  0
 49 54  1  0  0  0
 50 51  1  0  0  0
 51 52  2  0  0  0
 52 53  1  0  0  0
 53 54  2  0  0  0
 25 26  1  0  0  0
 26 27  2  0  0  0
 26 31  1  0  0  0
 27 28  1  0  0  0
 28 29  2  0  0  0
 29 30  1  0  0  0
 30 31  2  0  0  0
 22 23  1  0  0  0
 22 24  1  0  0  0
  9 13  1  0  0  0
  9 11  1  0  0  0
 13 14  1  0  0  0
 14 15  2  0  0  0
 14 18  1  0  0  0
 15 16  1  0  0  0
 16 17  1  0  0  0
 17 18  2  0  0  0
 17 19  1  0  0  0
 19 20  1  0  0  0
 19 21  1  0  0  0
 39 40  1  0  0  0
 34 35  1  0  0  0
  2  5  1  0  0  0
  7 12  1  0  0  0
M  END
> <minimizedAffinity>
-9.38375

$$$$
3PRS_RIT_A_1001


 54 57  0  0  0  0  0  0  0  0999 V2000
   -4.4201    5.4735    5.3866 C   0  0  0  0  0  0  0  0  0  0  0  0
   -5.2780    4.3650    4.9343 N   0  0  0  0  0  0  0  0  0  0  0  0
   -5.0213    3.8060    3.7077 C   0  0  0  0  0  0  0  0  0  0  0  0
   -4.1211    4.2151    2.9874 O   0  0  0  0  0  0  0  0  0  0  0  0
   -6.0153    4.0342    5.4966 H   0  0  0  0  0  0  0  0  0  0  0  0
   -6.0081    2.6741    3.3366 C   0  0  0  0  0  0  0  0  0  0  0  0
   -6.7594    2.3927    4.5852 N   0  0  0  0  0  0  0  0  0  0  0  0
   -6.8497    1.0744    4.9995 C   0  0  0  0  0  0  0  0  0  0  0  0
   -7.6096    0.8704    6.1533 N   0  0  0  0  0  0  0  0  0  0  0  0
   -6.3825    0.1554    4.3306 O   0  0  0  0  0  0  0  0  0  0  0  0
   -8.2895    1.9362    6.8812 C   0  0  0  0  0  0  0  0  0  0  0  0
   -7.1793    3.1185    5.1012 H   0  0  0  0  0  0  0  0  0  0  0  0
   -7.8339   -0.5064    6.5861 C   0  0  0  0  0  0  0  0  0  0  0  0
   -6.9908   -0.9008    7.7562 C   0  0  0  0  0  0  0  0  0  0  0  0
   -7.4944   -1.3955    8.9350 C   0  0  0  0  0  0  0  0  0  0  0  0
   -6.2062   -1.7329   10.0038 S   0  0  0  0  0  0  0  0  0  0  0  0
   -5.0742   -1.2042    8.8352 C   0  0  0  0  0  0  0  0  0  0  0  0
   -5.6131   -0.7859    7.7333 N   0  0  0  0  0  0  0  0  0  0  0  0
   -3.6076   -1.2672    9.1980 C   0  0  0  0  0  0  0  0  0  0  0  0
   -2.8629   -0.0302    8.7403 C   0  0  0  0  0  0  0  0  0  0  0  0
   -3.4224   -1.5511   10.6933 C   0  0  0  0  0  0  0  0  0  0  0  0
   -6.9310    3.2115    2.2135 C   0  0  0  0  0  0  0  0  0  0  0  0
   -7.2918    2.0812    1.2552 C   0  0  0  0  0  0  0  0  0  0  0  0
   -8.2079    3.7923    2.8563 C   0  0  0  0  0  0  0  0  0  0  0  0
   -5.1120    6.8491    5.2727 C   0  0  0  0  0  0  0  0  0  0  0  0
   -4.3910    8.0537    5.8484 C   0  0  0  0  0  0  0  0  0  0  0  0
   -3.0060    8.1589    5.8732 C   0  0  0  0  0  0  0  0  0  0  0  0
   -2.3634    9.2664    6.4292 C   0  0  0  0  0  0  0  0  0  0  0  0
   -3.1484   10.2892    6.9876 C   0  0  0  0  0  0  0  0  0  0  0  0
   -4.5234   10.2174    6.9709 C   0  0  0  0  0  0  0  0  0  0  0  0
   -5.1387    9.1033    6.4015 C   0  0  0  0  0  0  0  0  0  0  0  0
   -3.9987    5.1257    6.8317 C   0  0  0  0  0  0  0  0  0  0  0  0
   -2.6707    4.3735    6.9322 C   0  0  0  0  0  0  0  0  0  0  0  0
   -2.8733    2.9592    6.8544 O   0  0  0  0  0  0  0  0  0  0  0  0
   -3.3952    2.6649    7.6172 H   0  0  0  0  0  0  0  0  0  0  0  0
   -1.8452    4.7224    8.1926 C   0  0  0  0  0  0  0  0  0  0  0  0
   -0.1430    6.4753    8.4360 C   0  0  0  0  0  0  0  0  0  0  0  0
    0.8108    5.7282    8.5603 O   0  0  0  0  0  0  0  0  0  0  0  0
   -1.4457    6.1674    8.1546 N   0  0  0  0  0  0  0  0  0  0  0  0
   -2.0988    6.8704    7.9346 H   0  0  0  0  0  0  0  0  0  0  0  0
   -0.0253    7.8217    8.5861 O   0  0  0  0  0  0  0  0  0  0  0  0
    1.2983    8.1950    9.0493 C   0  0  0  0  0  0  0  0  0  0  0  0
    1.1800    9.8640   11.0048 C   0  0  0  0  0  0  0  0  0  0  0  0
    1.3080    8.5883   10.4668 C   0  0  0  0  0  0  0  0  0  0  0  0
    1.4888    7.4876   11.7490 S   0  0  0  0  0  0  0  0  0  0  0  0
    1.3916    8.7343   12.9201 C   0  0  0  0  0  0  0  0  0  0  0  0
    1.2257    9.9387   12.3939 N   0  0  0  0  0  0  0  0  0  0  0  0
   -2.6329    4.4380    9.5070 C   0  0  0  0  0  0  0  0  0  0  0  0
   -2.0078    3.3581   10.3555 C   0  0  0  0  0  0  0  0  0  0  0  0
   -2.7999    2.6915   11.3081 C   0  0  0  0  0  0  0  0  0  0  0  0
   -2.2221    1.6693   12.0989 C   0  0  0  0  0  0  0  0  0  0  0  0
   -0.8758    1.3256   11.9322 C   0  0  0  0  0  0  0  0  0  0  0  0
   -0.1019    1.9837   10.9815 C   0  0  0  0  0  0  0  0  0  0  0  0
   -0.6591    3.0107   10.1956 C   0  0  0  0  0  0  0  0  0  0  0  0
 43 44  2  0  0  0
 43 47  1  0  0  0
 44 45  1  0  0  0
 44 42  1  0  0  0
 45 46  1  0  0  0
 46 47  2  0  0  0
 42 41  1  0  0  0
 41 37  1  0  0  0
 37 39  1  0  0  0
 37 38  2  0  0  0
 39 36  1  0  0  0
 36 33  1  0  0  0
 36 48  1  0  0  0
 33 32  1  0  0  0
 33 34  1  0  0  0
 32  1  1  0  0  0
  1 25  1  0  0  0
  1  2  1  0  0  0
  3  6  1  0  0  0
  3  2  1  0  0  0
  3  4  2  0  0  0
  6  7  1  0  0  0
  6 22  1  0  0  0
  7  8  1  0  0  0
  8  9  1  0  0  0
  8 10  2  0  0  0
 48 49  1  0  0  0
 49 50  2  0  0  0
 49 54  1  0  0  0
 50 51  1  0  0  0
 51 52  2  0  0  0
 52 53  1  0  0  0
 53 54  2  0  0  0
 25 26  1  0  0  0
 26 27  2  0  0  0
 26 31  1  0  0  0
 27 28  1  0  0  0
 28 29  2  0  0  0
 29 30  1  0  0  0
 30 31  2  0  0  0
 22 23  1  0  0  0
 22 24  1  0  0  0
  9 13  1  0  0  0
  9 11  1  0  0  0
 13 14  1  0  0  0
 14 15  2  0  0  0
 14 18  1  0  0  0
 15 16  1  0  0  0
 16 17  1  0  0  0
 17 18  2  0  0  0
 17 19  1  0  0  0
 19 20  1  0  0  0
 19 21  1  0  0  0
 39 40  1  0  0  0
 34 35  1  0  0  0
  2  5  1  0  0  0
  7 12  1  0  0  0
M  END
> <minimizedAffinity>
-9.35721

$$$$
3PRS_RIT_A_1001


 54 57  0  0  0  0  0  0  0  0999 V2000
   -4.4270    3.0104    6.8746 C   0  0  0  0  0  0  0  0  0  0  0  0
   -5.0711    3.6732    5.7278 N   0  0  0  0  0  0  0  0  0  0  0  0
   -6.3592    4.1214    5.8781 C   0  0  0  0  0  0  0  0  0  0  0  0
   -6.9786    3.9679    6.9219 O   0  0  0  0  0  0  0  0  0  0  0  0
   -4.5905    3.7915    4.8767 H   0  0  0  0  0  0  0  0  0  0  0  0
   -6.9308    4.7709    4.5959 C   0  0  0  0  0  0  0  0  0  0  0  0
   -8.0782    3.9133    4.2077 N   0  0  0  0  0  0  0  0  0  0  0  0
   -7.8029    2.6293    3.7679 C   0  0  0  0  0  0  0  0  0  0  0  0
   -8.9198    1.8902    3.3722 N   0  0  0  0  0  0  0  0  0  0  0  0
   -6.6492    2.2259    3.6390 O   0  0  0  0  0  0  0  0  0  0  0  0
  -10.2848    2.4046    3.3858 C   0  0  0  0  0  0  0  0  0  0  0  0
   -9.0033    4.2458    4.2610 H   0  0  0  0  0  0  0  0  0  0  0  0
   -8.6918    0.5665    2.7985 C   0  0  0  0  0  0  0  0  0  0  0  0
   -8.7869   -0.5356    3.8043 C   0  0  0  0  0  0  0  0  0  0  0  0
   -9.8968   -1.3275    3.9748 C   0  0  0  0  0  0  0  0  0  0  0  0
   -9.5944   -2.4684    5.2086 S   0  0  0  0  0  0  0  0  0  0  0  0
   -8.0193   -1.8386    5.4299 C   0  0  0  0  0  0  0  0  0  0  0  0
   -7.7407   -0.8366    4.6567 N   0  0  0  0  0  0  0  0  0  0  0  0
   -7.1434   -2.4873    6.4781 C   0  0  0  0  0  0  0  0  0  0  0  0
   -5.6733   -2.3653    6.1342 C   0  0  0  0  0  0  0  0  0  0  0  0
   -7.4713   -1.9523    7.8769 C   0  0  0  0  0  0  0  0  0  0  0  0
   -7.3797    6.2081    4.9632 C   0  0  0  0  0  0  0  0  0  0  0  0
   -6.1682    7.0404    5.3703 C   0  0  0  0  0  0  0  0  0  0  0  0
   -8.0718    6.8400    3.7373 C   0  0  0  0  0  0  0  0  0  0  0  0
   -4.4581    1.4702    6.7689 C   0  0  0  0  0  0  0  0  0  0  0  0
   -4.4083    0.6714    8.0580 C   0  0  0  0  0  0  0  0  0  0  0  0
   -3.4220   -0.2711    8.3200 C   0  0  0  0  0  0  0  0  0  0  0  0
   -3.4092   -1.0113    9.5035 C   0  0  0  0  0  0  0  0  0  0  0  0
   -4.4337   -0.7984   10.4409 C   0  0  0  0  0  0  0  0  0  0  0  0
   -5.4207    0.1346   10.2135 C   0  0  0  0  0  0  0  0  0  0  0  0
   -5.4039    0.8656    9.0264 C   0  0  0  0  0  0  0  0  0  0  0  0
   -2.9942    3.5832    6.9501 C   0  0  0  0  0  0  0  0  0  0  0  0
   -2.9299    5.0550    7.3615 C   0  0  0  0  0  0  0  0  0  0  0  0
   -2.7539    5.9009    6.2209 O   0  0  0  0  0  0  0  0  0  0  0  0
   -1.8978    5.7108    5.8064 H   0  0  0  0  0  0  0  0  0  0  0  0
   -1.8479    5.3636    8.4226 C   0  0  0  0  0  0  0  0  0  0  0  0
   -0.0579    7.0435    8.3678 C   0  0  0  0  0  0  0  0  0  0  0  0
    0.8722    6.2572    8.3654 O   0  0  0  0  0  0  0  0  0  0  0  0
   -1.3996    6.7887    8.2917 N   0  0  0  0  0  0  0  0  0  0  0  0
   -2.0489    7.5161    8.1556 H   0  0  0  0  0  0  0  0  0  0  0  0
    0.1364    8.3857    8.4673 O   0  0  0  0  0  0  0  0  0  0  0  0
    1.4238    8.6978    9.0598 C   0  0  0  0  0  0  0  0  0  0  0  0
    0.9728   10.0098   11.2274 C   0  0  0  0  0  0  0  0  0  0  0  0
    1.3441    8.8731   10.5183 C   0  0  0  0  0  0  0  0  0  0  0  0
    1.7147    7.6479   11.6363 S   0  0  0  0  0  0  0  0  0  0  0  0
    1.3723    8.6689   12.9687 C   0  0  0  0  0  0  0  0  0  0  0  0
    0.9887    9.8862   12.6138 N   0  0  0  0  0  0  0  0  0  0  0  0
   -2.3606    5.1139    9.8730 C   0  0  0  0  0  0  0  0  0  0  0  0
   -1.9079    3.7940   10.4471 C   0  0  0  0  0  0  0  0  0  0  0  0
   -0.5725    3.3903   10.2653 C   0  0  0  0  0  0  0  0  0  0  0  0
   -0.1388    2.1585   10.8118 C   0  0  0  0  0  0  0  0  0  0  0  0
   -1.0312    1.3520   11.5270 C   0  0  0  0  0  0  0  0  0  0  0  0
   -2.3478    1.7630   11.7099 C   0  0  0  0  0  0  0  0  0  0  0  0
   -2.7972    2.9799   11.1624 C   0  0  0  0  0  0  0  0  0  0  0  0
 43 44  2  0  0  0
 43 47  1  0  0  0
 44 45  1  0  0  0
 44 42  1  0  0  0
 45 46  1  0  0  0
 46 47  2  0  0  0
 42 41  1  0  0  0
 41 37  1  0  0  0
 37 39  1  0  0  0
 37 38  2  0  0  0
 39 36  1  0  0  0
 36 33  1  0  0  0
 36 48  1  0  0  0
 33 32  1  0  0  0
 33 34  1  0  0  0
 32  1  1  0  0  0
  1 25  1  0  0  0
  1  2  1  0  0  0
  3  6  1  0  0  0
  3  2  1  0  0  0
  3  4  2  0  0  0
  6  7  1  0  0  0
  6 22  1  0  0  0
  7  8  1  0  0  0
  8  9  1  0  0  0
  8 10  2  0  0  0
 48 49  1  0  0  0
 49 50  2  0  0  0
 49 54  1  0  0  0
 50 51  1  0  0  0
 51 52  2  0  0  0
 52 53  1  0  0  0
 53 54  2  0  0  0
 25 26  1  0  0  0
 26 27  2  0  0  0
 26 31  1  0  0  0
 27 28  1  0  0  0
 28 29  2  0  0  0
 29 30  1  0  0  0
 30 31  2  0  0  0
 22 23  1  0  0  0
 22 24  1  0  0  0
  9 13  1  0  0  0
  9 11  1  0  0  0
 13 14  1  0  0  0
 14 15  2  0  0  0
 14 18  1  0  0  0
 15 16  1  0  0  0
 16 17  1  0  0  0
 17 18  2  0  0  0
 17 19  1  0  0  0
 19 20  1  0  0  0
 19 21  1  0  0  0
 39 40  1  0  0  0
 34 35  1  0  0  0
  2  5  1  0  0  0
  7 12  1  0  0  0
M  END
> <minimizedAffinity>
-8.95875

$$$$
3PRS_RIT_A_1001


 54 57  0  0  0  0  0  0  0  0999 V2000
   -1.1198    4.4080    9.5585 C   0  0  0  0  0  0  0  0  0  0  0  0
   -1.7413    3.3572   10.3825 N   0  0  0  0  0  0  0  0  0  0  0  0
   -2.5285    2.4237    9.7565 C   0  0  0  0  0  0  0  0  0  0  0  0
   -2.7350    2.4572    8.5512 O   0  0  0  0  0  0  0  0  0  0  0  0
   -1.5960    3.3255   11.3557 H   0  0  0  0  0  0  0  0  0  0  0  0
   -3.1450    1.3947   10.7330 C   0  0  0  0  0  0  0  0  0  0  0  0
   -4.1129    0.6203    9.9168 N   0  0  0  0  0  0  0  0  0  0  0  0
   -5.4282    0.5755   10.3476 C   0  0  0  0  0  0  0  0  0  0  0  0
   -6.2782   -0.2080    9.5641 N   0  0  0  0  0  0  0  0  0  0  0  0
   -5.7793    1.1016   11.4013 O   0  0  0  0  0  0  0  0  0  0  0  0
   -5.8458   -0.9546    8.3878 C   0  0  0  0  0  0  0  0  0  0  0  0
   -3.8295    0.1544    9.0971 H   0  0  0  0  0  0  0  0  0  0  0  0
   -7.6544   -0.3846   10.0203 C   0  0  0  0  0  0  0  0  0  0  0  0
   -8.6237    0.5233    9.3335 C   0  0  0  0  0  0  0  0  0  0  0  0
   -9.7191    0.0868    8.6282 C   0  0  0  0  0  0  0  0  0  0  0  0
  -10.5708    1.4333    8.0142 S   0  0  0  0  0  0  0  0  0  0  0  0
   -9.4353    2.4980    8.7239 C   0  0  0  0  0  0  0  0  0  0  0  0
   -8.4767    1.8979    9.3568 N   0  0  0  0  0  0  0  0  0  0  0  0
   -9.6525    3.9830    8.5386 C   0  0  0  0  0  0  0  0  0  0  0  0
  -10.9837    4.2771    7.8788 C   0  0  0  0  0  0  0  0  0  0  0  0
   -9.4677    4.7352    9.8617 C   0  0  0  0  0  0  0  0  0  0  0  0
   -1.9907    0.5058   11.2614 C   0  0  0  0  0  0  0  0  0  0  0  0
   -1.1581   -0.0101   10.0923 C   0  0  0  0  0  0  0  0  0  0  0  0
   -1.1117    1.3469   12.2106 C   0  0  0  0  0  0  0  0  0  0  0  0
   -1.9539    5.7068    9.5179 C   0  0  0  0  0  0  0  0  0  0  0  0
   -2.2993    6.2836    8.1576 C   0  0  0  0  0  0  0  0  0  0  0  0
   -1.7740    7.4837    7.6954 C   0  0  0  0  0  0  0  0  0  0  0  0
   -2.1240    8.0072    6.4495 C   0  0  0  0  0  0  0  0  0  0  0  0
   -3.0431    7.2995    5.6568 C   0  0  0  0  0  0  0  0  0  0  0  0
   -3.5748    6.1033    6.0840 C   0  0  0  0  0  0  0  0  0  0  0  0
   -3.2009    5.5998    7.3293 C   0  0  0  0  0  0  0  0  0  0  0  0
    0.2993    4.6176   10.1320 C   0  0  0  0  0  0  0  0  0  0  0  0
    1.2366    5.4008    9.2114 C   0  0  0  0  0  0  0  0  0  0  0  0
    2.5123    4.7606    9.1106 O   0  0  0  0  0  0  0  0  0  0  0  0
    2.9437    4.7609    9.9794 H   0  0  0  0  0  0  0  0  0  0  0  0
    1.4176    6.8832    9.6134 C   0  0  0  0  0  0  0  0  0  0  0  0
    2.0457    7.7580   11.8201 C   0  0  0  0  0  0  0  0  0  0  0  0
    0.9682    8.2609   12.0834 O   0  0  0  0  0  0  0  0  0  0  0  0
    2.3953    6.9870   10.7457 N   0  0  0  0  0  0  0  0  0  0  0  0
    3.2595    6.5162   10.7168 H   0  0  0  0  0  0  0  0  0  0  0  0
    3.1311    7.9240   12.6222 O   0  0  0  0  0  0  0  0  0  0  0  0
    3.2103    6.8892   13.6365 C   0  0  0  0  0  0  0  0  0  0  0  0
    2.8380    8.2354   15.7981 C   0  0  0  0  0  0  0  0  0  0  0  0
    3.5866    7.4217   14.9552 C   0  0  0  0  0  0  0  0  0  0  0  0
    5.0807    7.1139   15.7045 S   0  0  0  0  0  0  0  0  0  0  0  0
    4.6633    8.0562   17.0731 C   0  0  0  0  0  0  0  0  0  0  0  0
    3.4526    8.5885   16.9960 N   0  0  0  0  0  0  0  0  0  0  0  0
    1.9114    7.7581    8.4219 C   0  0  0  0  0  0  0  0  0  0  0  0
    1.9745    9.2299    8.7482 C   0  0  0  0  0  0  0  0  0  0  0  0
    0.7755    9.9534    8.8831 C   0  0  0  0  0  0  0  0  0  0  0  0
    0.8282   11.3319    9.2009 C   0  0  0  0  0  0  0  0  0  0  0  0
    2.0622   11.9670    9.3801 C   0  0  0  0  0  0  0  0  0  0  0  0
    3.2430   11.2421    9.2536 C   0  0  0  0  0  0  0  0  0  0  0  0
    3.2074    9.8730    8.9264 C   0  0  0  0  0  0  0  0  0  0  0  0
 43 44  2  0  0  0
 43 47  1  0  0  0
 44 45  1  0  0  0
 44 42  1  0  0  0
 45 46  1  0  0  0
 46 47  2  0  0  0
 42 41  1  0  0  0
 41 37  1  0  0  0
 37 39  1  0  0  0
 37 38  2  0  0  0
 39 36  1  0  0  0
 36 33  1  0  0  0
 36 48  1  0  0  0
 33 32  1  0  0  0
 33 34  1  0  0  0
 32  1  1  0  0  0
  1 25  1  0  0  0
  1  2  1  0  0  0
  3  6  1  0  0  0
  3  2  1  0  0  0
  3  4  2  0  0  0
  6  7  1  0  0  0
  6 22  1  0  0  0
  7  8  1  0  0  0
  8  9  1  0  0  0
  8 10  2  0  0  0
 48 49  1  0  0  0
 49 50  2  0  0  0
 49 54  1  0  0  0
 50 51  1  0  0  0
 51 52  2  0  0  0
 52 53  1  0  0  0
 53 54  2  0  0  0
 25 26  1  0  0  0
 26 27  2  0  0  0
 26 31  1  0  0  0
 27 28  1  0  0  0
 28 29  2  0  0  0
 29 30  1  0  0  0
 30 31  2  0  0  0
 22 23  1  0  0  0
 22 24  1  0  0  0
  9 13  1  0  0  0
  9 11  1  0  0  0
 13 14  1  0  0  0
 14 15  2  0  0  0
 14 18  1  0  0  0
 15 16  1  0  0  0
 16 17  1  0  0  0
 17 18  2  0  0  0
 17 19  1  0  0  0
 19 20  1  0  0  0
 19 21  1  0  0  0
 39 40  1  0  0  0
 34 35  1  0  0  0
  2  5  1  0  0  0
  7 12  1  0  0  0
M  END
> <minimizedAffinity>
-8.89421

$$$$
3PRS_RIT_A_1001


 54 57  0  0  0  0  0  0  0  0999 V2000
   -1.3291    4.4883    9.5029 C   0  0  0  0  0  0  0  0  0  0  0  0
   -2.0189    3.5080   10.3588 N   0  0  0  0  0  0  0  0  0  0  0  0
   -2.7079    2.4888    9.7510 C   0  0  0  0  0  0  0  0  0  0  0  0
   -2.7742    2.3904    8.5334 O   0  0  0  0  0  0  0  0  0  0  0  0
   -1.9866    3.5819   11.3399 H   0  0  0  0  0  0  0  0  0  0  0  0
   -3.4110    1.5460   10.7558 C   0  0  0  0  0  0  0  0  0  0  0  0
   -4.3819    0.7714    9.9434 N   0  0  0  0  0  0  0  0  0  0  0  0
   -5.6698    0.6368   10.4342 C   0  0  0  0  0  0  0  0  0  0  0  0
   -6.5211   -0.1429    9.6481 N   0  0  0  0  0  0  0  0  0  0  0  0
   -5.9908    1.0844   11.5328 O   0  0  0  0  0  0  0  0  0  0  0  0
   -6.1149   -0.7994    8.4104 C   0  0  0  0  0  0  0  0  0  0  0  0
   -4.1193    0.3672    9.0849 H   0  0  0  0  0  0  0  0  0  0  0  0
   -7.8622   -0.4134   10.1594 C   0  0  0  0  0  0  0  0  0  0  0  0
   -8.8159   -0.8665    9.1008 C   0  0  0  0  0  0  0  0  0  0  0  0
   -9.4276   -0.0234    8.2049 C   0  0  0  0  0  0  0  0  0  0  0  0
  -10.4250   -0.9341    7.1602 S   0  0  0  0  0  0  0  0  0  0  0  0
   -9.9780   -2.3775    7.9623 C   0  0  0  0  0  0  0  0  0  0  0  0
   -9.1604   -2.1972    8.9516 N   0  0  0  0  0  0  0  0  0  0  0  0
  -10.5706   -3.6744    7.4587 C   0  0  0  0  0  0  0  0  0  0  0  0
  -11.8005   -3.4358    6.6074 C   0  0  0  0  0  0  0  0  0  0  0  0
   -9.5113   -4.5226    6.7452 C   0  0  0  0  0  0  0  0  0  0  0  0
   -2.3222    0.6368   11.3802 C   0  0  0  0  0  0  0  0  0  0  0  0
   -1.7495   -0.2915   10.3141 C   0  0  0  0  0  0  0  0  0  0  0  0
   -1.2067    1.5286   11.9644 C   0  0  0  0  0  0  0  0  0  0  0  0
   -2.0734    5.8387    9.4218 C   0  0  0  0  0  0  0  0  0  0  0  0
   -2.3664    6.4035    8.0443 C   0  0  0  0  0  0  0  0  0  0  0  0
   -1.9045    7.6456    7.6280 C   0  0  0  0  0  0  0  0  0  0  0  0
   -2.2060    8.1555    6.3640 C   0  0  0  0  0  0  0  0  0  0  0  0
   -3.0100    7.3888    5.5038 C   0  0  0  0  0  0  0  0  0  0  0  0
   -3.4762    6.1505    5.8847 C   0  0  0  0  0  0  0  0  0  0  0  0
   -3.1525    5.6624    7.1501 C   0  0  0  0  0  0  0  0  0  0  0  0
    0.1019    4.6190   10.0703 C   0  0  0  0  0  0  0  0  0  0  0  0
    1.0730    5.3638    9.1528 C   0  0  0  0  0  0  0  0  0  0  0  0
    2.2934    4.6340    8.9941 O   0  0  0  0  0  0  0  0  0  0  0  0
    2.7450    4.5691    9.8502 H   0  0  0  0  0  0  0  0  0  0  0  0
    1.3759    6.8123    9.6025 C   0  0  0  0  0  0  0  0  0  0  0  0
    2.0181    7.3515   11.9103 C   0  0  0  0  0  0  0  0  0  0  0  0
    0.9177    7.7203   12.2795 O   0  0  0  0  0  0  0  0  0  0  0  0
    2.3833    6.7993   10.7133 N   0  0  0  0  0  0  0  0  0  0  0  0
    3.2771    6.4068   10.5854 H   0  0  0  0  0  0  0  0  0  0  0  0
    3.1168    7.4630   12.7038 O   0  0  0  0  0  0  0  0  0  0  0  0
    2.9021    6.8548   14.0037 C   0  0  0  0  0  0  0  0  0  0  0  0
    3.0141    8.6963   15.7981 C   0  0  0  0  0  0  0  0  0  0  0  0
    3.5333    7.6168   15.0924 C   0  0  0  0  0  0  0  0  0  0  0  0
    5.0863    7.2848   15.6977 S   0  0  0  0  0  0  0  0  0  0  0  0
    4.9881    8.5625   16.8349 C   0  0  0  0  0  0  0  0  0  0  0  0
    3.8420    9.2249   16.7844 N   0  0  0  0  0  0  0  0  0  0  0  0
    1.9092    7.6908    8.4309 C   0  0  0  0  0  0  0  0  0  0  0  0
    1.9803    9.1593    8.7706 C   0  0  0  0  0  0  0  0  0  0  0  0
    0.7884    9.9027    8.8476 C   0  0  0  0  0  0  0  0  0  0  0  0
    0.8480   11.2781    9.1776 C   0  0  0  0  0  0  0  0  0  0  0  0
    2.0816   11.8903    9.4257 C   0  0  0  0  0  0  0  0  0  0  0  0
    3.2548   11.1457    9.3563 C   0  0  0  0  0  0  0  0  0  0  0  0
    3.2130    9.7795    9.0178 C   0  0  0  0  0  0  0  0  0  0  0  0
 43 44  2  0  0  0
 43 47  1  0  0  0
 44 45  1  0  0  0
 44 42  1  0  0  0
 45 46  1  0  0  0
 46 47  2  0  0  0
 42 41  1  0  0  0
 41 37  1  0  0  0
 37 39  1  0  0  0
 37 38  2  0  0  0
 39 36  1  0  0  0
 36 33  1  0  0  0
 36 48  1  0  0  0
 33 32  1  0  0  0
 33 34  1  0  0  0
 32  1  1  0  0  0
  1 25  1  0  0  0
  1  2  1  0  0  0
  3  6  1  0  0  0
  3  2  1  0  0  0
  3  4  2  0  0  0
  6  7  1  0  0  0
  6 22  1  0  0  0
  7  8  1  0  0  0
  8  9  1  0  0  0
  8 10  2  0  0  0
 48 49  1  0  0  0
 49 50  2  0  0  0
 49 54  1  0  0  0
 50 51  1  0  0  0
 51 52  2  0  0  0
 52 53  1  0  0  0
 53 54  2  0  0  0
 25 26  1  0  0  0
 26 27  2  0  0  0
 26 31  1  0  0  0
 27 28  1  0  0  0
 28 29  2  0  0  0
 29 30  1  0  0  0
 30 31  2  0  0  0
 22 23  1  0  0  0
 22 24  1  0  0  0
  9 13  1  0  0  0
  9 11  1  0  0  0
 13 14  1  0  0  0
 14 15  2  0  0  0
 14 18  1  0  0  0
 15 16  1  0  0  0
 16 17  1  0  0  0
 17 18  2  0  0  0
 17 19  1  0  0  0
 19 20  1  0  0  0
 19 21  1  0  0  0
 39 40  1  0  0  0
 34 35  1  0  0  0
  2  5  1  0  0  0
  7 12  1  0  0  0
M  END
> <minimizedAffinity>
-8.86905

$$$$
3PRS_RIT_A_1001


 54 57  0  0  0  0  0  0  0  0999 V2000
   -6.1399    4.4151    5.3527 C   0  0  0  0  0  0  0  0  0  0  0  0
   -6.8441    3.4549    4.4858 N   0  0  0  0  0  0  0  0  0  0  0  0
   -6.3307    3.2124    3.2366 C   0  0  0  0  0  0  0  0  0  0  0  0
   -5.3274    3.7815    2.8293 O   0  0  0  0  0  0  0  0  0  0  0  0
   -7.6607    2.9997    4.7942 H   0  0  0  0  0  0  0  0  0  0  0  0
   -7.1760    2.2102    2.4158 C   0  0  0  0  0  0  0  0  0  0  0  0
   -8.0599    1.5483    3.4073 N   0  0  0  0  0  0  0  0  0  0  0  0
   -7.6297    0.3519    3.9564 C   0  0  0  0  0  0  0  0  0  0  0  0
   -8.5268   -0.2445    4.8451 N   0  0  0  0  0  0  0  0  0  0  0  0
   -6.5843   -0.1838    3.5951 O   0  0  0  0  0  0  0  0  0  0  0  0
   -9.8350    0.3087    5.1775 C   0  0  0  0  0  0  0  0  0  0  0  0
   -8.9226    1.9460    3.6658 H   0  0  0  0  0  0  0  0  0  0  0  0
   -8.1828   -1.5594    5.3796 C   0  0  0  0  0  0  0  0  0  0  0  0
   -8.1963   -1.6098    6.8739 C   0  0  0  0  0  0  0  0  0  0  0  0
   -9.2766   -2.0148    7.6199 C   0  0  0  0  0  0  0  0  0  0  0  0
   -8.8796   -1.9392    9.2789 S   0  0  0  0  0  0  0  0  0  0  0  0
   -7.3092   -1.3792    8.8961 C   0  0  0  0  0  0  0  0  0  0  0  0
   -7.0972   -1.2372    7.6255 N   0  0  0  0  0  0  0  0  0  0  0  0
   -6.3612   -1.1059   10.0422 C   0  0  0  0  0  0  0  0  0  0  0  0
   -6.8430    0.0402   10.9075 C   0  0  0  0  0  0  0  0  0  0  0  0
   -6.0886   -2.3821   10.8468 C   0  0  0  0  0  0  0  0  0  0  0  0
   -7.9826    3.0263    1.3740 C   0  0  0  0  0  0  0  0  0  0  0  0
   -9.2175    2.2406    0.9450 C   0  0  0  0  0  0  0  0  0  0  0  0
   -8.4003    4.3682    2.0109 C   0  0  0  0  0  0  0  0  0  0  0  0
   -6.8970    5.7526    5.5013 C   0  0  0  0  0  0  0  0  0  0  0  0
   -6.1183    7.0353    5.2762 C   0  0  0  0  0  0  0  0  0  0  0  0
   -4.7434    7.1204    5.4555 C   0  0  0  0  0  0  0  0  0  0  0  0
   -4.0506    8.3173    5.2651 C   0  0  0  0  0  0  0  0  0  0  0  0
   -4.7758    9.4626    4.8957 C   0  0  0  0  0  0  0  0  0  0  0  0
   -6.1381    9.4080    4.7026 C   0  0  0  0  0  0  0  0  0  0  0  0
   -6.8030    8.1971    4.8916 C   0  0  0  0  0  0  0  0  0  0  0  0
   -5.9183    3.6921    6.6999 C   0  0  0  0  0  0  0  0  0  0  0  0
   -5.0757    2.4198    6.5958 C   0  0  0  0  0  0  0  0  0  0  0  0
   -5.8970    1.2507    6.6754 O   0  0  0  0  0  0  0  0  0  0  0  0
   -6.3187    1.2106    7.5480 H   0  0  0  0  0  0  0  0  0  0  0  0
   -3.9329    2.3367    7.6345 C   0  0  0  0  0  0  0  0  0  0  0  0
   -2.9249    4.5684    7.4542 C   0  0  0  0  0  0  0  0  0  0  0  0
   -2.5722    4.4695    6.2927 O   0  0  0  0  0  0  0  0  0  0  0  0
   -3.6651    3.6974    8.2054 N   0  0  0  0  0  0  0  0  0  0  0  0
   -4.0104    3.9549    9.0907 H   0  0  0  0  0  0  0  0  0  0  0  0
   -2.5885    5.6419    8.2182 O   0  0  0  0  0  0  0  0  0  0  0  0
   -2.1501    5.2404    9.5420 C   0  0  0  0  0  0  0  0  0  0  0  0
    0.0547    3.9129    9.5355 C   0  0  0  0  0  0  0  0  0  0  0  0
   -0.6899    5.0834    9.6275 C   0  0  0  0  0  0  0  0  0  0  0  0
    0.3846    6.3781    9.8676 S   0  0  0  0  0  0  0  0  0  0  0  0
    1.7467    5.3393    9.8388 C   0  0  0  0  0  0  0  0  0  0  0  0
    1.4331    4.0656    9.6535 N   0  0  0  0  0  0  0  0  0  0  0  0
   -4.2628    1.3462    8.7917 C   0  0  0  0  0  0  0  0  0  0  0  0
   -3.1799    1.2708    9.8397 C   0  0  0  0  0  0  0  0  0  0  0  0
   -2.1315    0.3471    9.6757 C   0  0  0  0  0  0  0  0  0  0  0  0
   -1.1063    0.2801   10.6497 C   0  0  0  0  0  0  0  0  0  0  0  0
   -1.1364    1.1265   11.7637 C   0  0  0  0  0  0  0  0  0  0  0  0
   -2.1721    2.0433   11.9136 C   0  0  0  0  0  0  0  0  0  0  0  0
   -3.2053    2.1139   10.9595 C   0  0  0  0  0  0  0  0  0  0  0  0
 43 44  2  0  0  0
 43 47  1  0  0  0
 44 45  1  0  0  0
 44 42  1  0  0  0
 45 46  1  0  0  0
 46 47  2  0  0  0
 42 41  1  0  0  0
 41 37  1  0  0  0
 37 39  1  0  0  0
 37 38  2  0  0  0
 39 36  1  0  0  0
 36 33  1  0  0  0
 36 48  1  0  0  0
 33 32  1  0  0  0
 33 34  1  0  0  0
 32  1  1  0  0  0
  1 25  1  0  0  0
  1  2  1  0  0  0
  3  6  1  0  0  0
  3  2  1  0  0  0
  3  4  2  0  0  0
  6  7  1  0  0  0
  6 22  1  0  0  0
  7  8  1  0  0  0
  8  9  1  0  0  0
  8 10  2  0  0  0
 48 49  1  0  0  0
 49 50  2  0  0  0
 49 54  1  0  0  0
 50 51  1  0  0  0
 51 52  2  0  0  0
 52 53  1  0  0  0
 53 54  2  0  0  0
 25 26  1  0  0  0
 26 27  2  0  0  0
 26 31  1  0  0  0
 27 28  1  0  0  0
 28 29  2  0  0  0
 29 30  1  0  0  0
 30 31  2  0  0  0
 22 23  1  0  0  0
 22 24  1  0  0  0
  9 13  1  0  0  0
  9 11  1  0  0  0
 13 14  1  0  0  0
 14 15  2  0  0  0
 14 18  1  0  0  0
 15 16  1  0  0  0
 16 17  1  0  0  0
 17 18  2  0  0  0
 17 19  1  0  0  0
 19 20  1  0  0  0
 19 21  1  0  0  0
 39 40  1  0  0  0
 34 35  1  0  0  0
  2  5  1  0  0  0
  7 12  1  0  0  0
M  END
> <minimizedAffinity>
-8.80466

$$$$
3PRS_RIT_A_1001


 54 57  0  0  0  0  0  0  0  0999 V2000
   -6.0513    3.1370    3.9045 C   0  0  0  0  0  0  0  0  0  0  0  0
   -7.1485    2.5058    4.6575 N   0  0  0  0  0  0  0  0  0  0  0  0
   -7.0153    1.1875    5.0140 C   0  0  0  0  0  0  0  0  0  0  0  0
   -6.0281    0.5327    4.7084 O   0  0  0  0  0  0  0  0  0  0  0  0
   -7.9555    3.0158    4.8984 H   0  0  0  0  0  0  0  0  0  0  0  0
   -8.2447    0.6354    5.7731 C   0  0  0  0  0  0  0  0  0  0  0  0
   -8.0408    1.0429    7.1855 N   0  0  0  0  0  0  0  0  0  0  0  0
   -7.4110    0.1447    8.0307 C   0  0  0  0  0  0  0  0  0  0  0  0
   -7.2927    0.5672    9.3565 N   0  0  0  0  0  0  0  0  0  0  0  0
   -7.0858   -0.9780    7.6509 O   0  0  0  0  0  0  0  0  0  0  0  0
   -7.8007    1.8404    9.8553 C   0  0  0  0  0  0  0  0  0  0  0  0
   -8.3429    1.9218    7.5105 H   0  0  0  0  0  0  0  0  0  0  0  0
   -6.7338   -0.3739   10.3235 C   0  0  0  0  0  0  0  0  0  0  0  0
   -5.2425   -0.3120   10.4116 C   0  0  0  0  0  0  0  0  0  0  0  0
   -4.4164   -1.3965   10.2404 C   0  0  0  0  0  0  0  0  0  0  0  0
   -2.7906   -0.9017   10.4067 S   0  0  0  0  0  0  0  0  0  0  0  0
   -3.2909    0.7093   10.6910 C   0  0  0  0  0  0  0  0  0  0  0  0
   -4.5770    0.8690   10.6840 N   0  0  0  0  0  0  0  0  0  0  0  0
   -2.2173    1.7484   10.9237 C   0  0  0  0  0  0  0  0  0  0  0  0
   -2.8094    3.1185   11.1818 C   0  0  0  0  0  0  0  0  0  0  0  0
   -1.2507    1.3030   12.0273 C   0  0  0  0  0  0  0  0  0  0  0  0
   -9.5055    1.2927    5.1565 C   0  0  0  0  0  0  0  0  0  0  0  0
  -10.4268    0.2161    4.5922 C   0  0  0  0  0  0  0  0  0  0  0  0
  -10.2343    2.0947    6.2550 C   0  0  0  0  0  0  0  0  0  0  0  0
   -6.4439    3.4793    2.4509 C   0  0  0  0  0  0  0  0  0  0  0  0
   -7.9084    3.3694    2.0690 C   0  0  0  0  0  0  0  0  0  0  0  0
   -8.4085    2.3236    1.3037 C   0  0  0  0  0  0  0  0  0  0  0  0
   -9.7558    2.2551    0.9446 C   0  0  0  0  0  0  0  0  0  0  0  0
  -10.6163    3.2840    1.3628 C   0  0  0  0  0  0  0  0  0  0  0  0
  -10.1520    4.3296    2.1290 C   0  0  0  0  0  0  0  0  0  0  0  0
   -8.8031    4.3680    2.4800 C   0  0  0  0  0  0  0  0  0  0  0  0
   -5.6272    4.3757    4.7246 C   0  0  0  0  0  0  0  0  0  0  0  0
   -4.8329    4.0463    5.9896 C   0  0  0  0  0  0  0  0  0  0  0  0
   -5.6892    3.5376    7.0170 O   0  0  0  0  0  0  0  0  0  0  0  0
   -6.3214    4.2244    7.2804 H   0  0  0  0  0  0  0  0  0  0  0  0
   -3.9980    5.2294    6.5327 C   0  0  0  0  0  0  0  0  0  0  0  0
   -2.2176    5.3595    8.2187 C   0  0  0  0  0  0  0  0  0  0  0  0
   -2.7494    6.2018    8.9194 O   0  0  0  0  0  0  0  0  0  0  0  0
   -2.7139    4.7198    7.1162 N   0  0  0  0  0  0  0  0  0  0  0  0
   -2.2442    3.9511    6.7192 H   0  0  0  0  0  0  0  0  0  0  0  0
   -0.9527    4.9210    8.4571 O   0  0  0  0  0  0  0  0  0  0  0  0
   -0.3774    5.5571    9.6276 C   0  0  0  0  0  0  0  0  0  0  0  0
    2.1055    6.0881    9.2072 C   0  0  0  0  0  0  0  0  0  0  0  0
    0.7601    6.4279    9.2927 C   0  0  0  0  0  0  0  0  0  0  0  0
    0.6073    8.0829    8.9377 S   0  0  0  0  0  0  0  0  0  0  0  0
    2.2949    8.2546    8.6974 C   0  0  0  0  0  0  0  0  0  0  0  0
    2.9681    7.1264    8.8675 N   0  0  0  0  0  0  0  0  0  0  0  0
   -3.6821    6.2810    5.4267 C   0  0  0  0  0  0  0  0  0  0  0  0
   -4.0581    7.6892    5.8172 C   0  0  0  0  0  0  0  0  0  0  0  0
   -5.3787    8.1278    5.6097 C   0  0  0  0  0  0  0  0  0  0  0  0
   -5.7404    9.4440    5.9851 C   0  0  0  0  0  0  0  0  0  0  0  0
   -4.7922   10.2988    6.5582 C   0  0  0  0  0  0  0  0  0  0  0  0
   -3.4907    9.8541    6.7682 C   0  0  0  0  0  0  0  0  0  0  0  0
   -3.1127    8.5517    6.3894 C   0  0  0  0  0  0  0  0  0  0  0  0
 43 44  2  0  0  0
 43 47  1  0  0  0
 44 45  1  0  0  0
 44 42  1  0  0  0
 45 46  1  0  0  0
 46 47  2  0  0  0
 42 41  1  0  0  0
 41 37  1  0  0  0
 37 39  1  0  0  0
 37 38  2  0  0  0
 39 36  1  0  0  0
 36 33  1  0  0  0
 36 48  1  0  0  0
 33 32  1  0  0  0
 33 34  1  0  0  0
 32  1  1  0  0  0
  1 25  1  0  0  0
  1  2  1  0  0  0
  3  6  1  0  0  0
  3  2  1  0  0  0
  3  4  2  0  0  0
  6  7  1  0  0  0
  6 22  1  0  0  0
  7  8  1  0  0  0
  8  9  1  0  0  0
  8 10  2  0  0  0
 48 49  1  0  0  0
 49 50  2  0  0  0
 49 54  1  0  0  0
 50 51  1  0  0  0
 51 52  2  0  0  0
 52 53  1  0  0  0
 53 54  2  0  0  0
 25 26  1  0  0  0
 26 27  2  0  0  0
 26 31  1  0  0  0
 27 28  1  0  0  0
 28 29  2  0  0  0
 29 30  1  0  0  0
 30 31  2  0  0  0
 22 23  1  0  0  0
 22 24  1  0  0  0
  9 13  1  0  0  0
  9 11  1  0  0  0
 13 14  1  0  0  0
 14 15  2  0  0  0
 14 18  1  0  0  0
 15 16  1  0  0  0
 16 17  1  0  0  0
 17 18  2  0  0  0
 17 19  1  0  0  0
 19 20  1  0  0  0
 19 21  1  0  0  0
 39 40  1  0  0  0
 34 35  1  0  0  0
  2  5  1  0  0  0
  7 12  1  0  0  0
M  END
> <minimizedAffinity>
-8.67856

$$$$
3PRS_RIT_A_1001


 54 57  0  0  0  0  0  0  0  0999 V2000
   -4.4088    5.5533    5.4634 C   0  0  0  0  0  0  0  0  0  0  0  0
   -5.3793    4.5967    4.9045 N   0  0  0  0  0  0  0  0  0  0  0  0
   -5.0986    4.0241    3.6895 C   0  0  0  0  0  0  0  0  0  0  0  0
   -4.0844    4.3014    3.0640 O   0  0  0  0  0  0  0  0  0  0  0  0
   -6.2068    4.3742    5.3893 H   0  0  0  0  0  0  0  0  0  0  0  0
   -6.2069    3.0629    3.1994 C   0  0  0  0  0  0  0  0  0  0  0  0
   -6.9903    2.7262    4.4141 N   0  0  0  0  0  0  0  0  0  0  0  0
   -7.1565    1.3865    4.7226 C   0  0  0  0  0  0  0  0  0  0  0  0
   -7.9429    1.1346    5.8490 N   0  0  0  0  0  0  0  0  0  0  0  0
   -6.7291    0.4984    3.9885 O   0  0  0  0  0  0  0  0  0  0  0  0
   -8.5757    2.1757    6.6512 C   0  0  0  0  0  0  0  0  0  0  0  0
   -7.3785    3.4312    4.9812 H   0  0  0  0  0  0  0  0  0  0  0  0
   -8.2463   -0.2575    6.1699 C   0  0  0  0  0  0  0  0  0  0  0  0
   -7.1776   -0.9223    6.9770 C   0  0  0  0  0  0  0  0  0  0  0  0
   -6.3020   -1.8543    6.4745 C   0  0  0  0  0  0  0  0  0  0  0  0
   -5.2365   -2.3550    7.7113 S   0  0  0  0  0  0  0  0  0  0  0  0
   -6.0042   -1.3053    8.8226 C   0  0  0  0  0  0  0  0  0  0  0  0
   -6.9972   -0.6420    8.3189 N   0  0  0  0  0  0  0  0  0  0  0  0
   -5.4703   -1.2659   10.2368 C   0  0  0  0  0  0  0  0  0  0  0  0
   -6.0486   -2.3790   11.0858 C   0  0  0  0  0  0  0  0  0  0  0  0
   -3.9373   -1.2491   10.2458 C   0  0  0  0  0  0  0  0  0  0  0  0
   -7.0580    3.8287    2.1548 C   0  0  0  0  0  0  0  0  0  0  0  0
   -7.6991    2.8410    1.1854 C   0  0  0  0  0  0  0  0  0  0  0  0
   -8.1481    4.6312    2.8955 C   0  0  0  0  0  0  0  0  0  0  0  0
   -4.9415    7.0025    5.4821 C   0  0  0  0  0  0  0  0  0  0  0  0
   -6.4336    7.2102    5.3006 C   0  0  0  0  0  0  0  0  0  0  0  0
   -6.9637    8.0138    4.2992 C   0  0  0  0  0  0  0  0  0  0  0  0
   -8.3395    8.2091    4.1653 C   0  0  0  0  0  0  0  0  0  0  0  0
   -9.2000    7.5820    5.0818 C   0  0  0  0  0  0  0  0  0  0  0  0
   -8.7053    6.7730    6.0803 C   0  0  0  0  0  0  0  0  0  0  0  0
   -7.3271    6.5891    6.1852 C   0  0  0  0  0  0  0  0  0  0  0  0
   -4.0468    5.0233    6.8686 C   0  0  0  0  0  0  0  0  0  0  0  0
   -2.6707    4.3607    6.9518 C   0  0  0  0  0  0  0  0  0  0  0  0
   -2.7883    2.9358    7.0092 O   0  0  0  0  0  0  0  0  0  0  0  0
   -3.2471    2.6818    7.8253 H   0  0  0  0  0  0  0  0  0  0  0  0
   -1.7992    4.8685    8.1242 C   0  0  0  0  0  0  0  0  0  0  0  0
   -0.1865    6.7187    8.1961 C   0  0  0  0  0  0  0  0  0  0  0  0
    0.7950    6.0398    8.4387 O   0  0  0  0  0  0  0  0  0  0  0  0
   -1.4638    6.3156    7.9185 N   0  0  0  0  0  0  0  0  0  0  0  0
   -2.1400    6.9538    7.5948 H   0  0  0  0  0  0  0  0  0  0  0  0
   -0.1344    8.0775    8.1813 O   0  0  0  0  0  0  0  0  0  0  0  0
    1.1543    8.5687    8.6326 C   0  0  0  0  0  0  0  0  0  0  0  0
    1.1469    8.3123   11.1934 C   0  0  0  0  0  0  0  0  0  0  0  0
    1.1158    9.0570   10.0197 C   0  0  0  0  0  0  0  0  0  0  0  0
    1.0202   10.7016   10.4375 S   0  0  0  0  0  0  0  0  0  0  0  0
    1.0233   10.3441   12.1130 C   0  0  0  0  0  0  0  0  0  0  0  0
    1.0967    9.0474   12.3742 N   0  0  0  0  0  0  0  0  0  0  0  0
   -2.5078    4.6924    9.5011 C   0  0  0  0  0  0  0  0  0  0  0  0
   -1.9479    3.5549   10.3193 C   0  0  0  0  0  0  0  0  0  0  0  0
   -2.8152    2.8088   11.1381 C   0  0  0  0  0  0  0  0  0  0  0  0
   -2.2979    1.7329   11.8989 C   0  0  0  0  0  0  0  0  0  0  0  0
   -0.9366    1.4150   11.8347 C   0  0  0  0  0  0  0  0  0  0  0  0
   -0.0875    2.1523   11.0154 C   0  0  0  0  0  0  0  0  0  0  0  0
   -0.5848    3.2327   10.2617 C   0  0  0  0  0  0  0  0  0  0  0  0
 43 44  2  0  0  0
 43 47  1  0  0  0
 44 45  1  0  0  0
 44 42  1  0  0  0
 45 46  1  0  0  0
 46 47  2  0  0  0
 42 41  1  0  0  0
 41 37  1  0  0  0
 37 39  1  0  0  0
 37 38  2  0  0  0
 39 36  1  0  0  0
 36 33  1  0  0  0
 36 48  1  0  0  0
 33 32  1  0  0  0
 33 34  1  0  0  0
 32  1  1  0  0  0
  1 25  1  0  0  0
  1  2  1  0  0  0
  3  6  1  0  0  0
  3  2  1  0  0  0
  3  4  2  0  0  0
  6  7  1  0  0  0
  6 22  1  0  0  0
  7  8  1  0  0  0
  8  9  1  0  0  0
  8 10  2  0  0  0
 48 49  1  0  0  0
 49 50  2  0  0  0
 49 54  1  0  0  0
 50 51  1  0  0  0
 51 52  2  0  0  0
 52 53  1  0  0  0
 53 54  2  0  0  0
 25 26  1  0  0  0
 26 27  2  0  0  0
 26 31  1  0  0  0
 27 28  1  0  0  0
 28 29  2  0  0  0
 29 30  1  0  0  0
 30 31  2  0  0  0
 22 23  1  0  0  0
 22 24  1  0  0  0
  9 13  1  0  0  0
  9 11  1  0  0  0
 13 14  1  0  0  0
 14 15  2  0  0  0
 14 18  1  0  0  0
 15 16  1  0  0  0
 16 17  1  0  0  0
 17 18  2  0  0  0
 17 19  1  0  0  0
 19 20  1  0  0  0
 19 21  1  0  0  0
 39 40  1  0  0  0
 34 35  1  0  0  0
  2  5  1  0  0  0
  7 12  1  0  0  0
M  END
> <minimizedAffinity>
-8.62614

$$$$
