1K6T_XN1_B_509
  RCSB PDB12061703023D
Coordinates from PDB:1K6T:B:509 Model:1 without hydrogens
 46 50  0  0  0  0            999 V2000
    3.1820   -5.3320   16.3030   N 0  0  0  0  0  0  0  0  0  0  0  0
    4.6020   -5.1460   15.8000   C 0  0  0  0  0  0  0  0  0  0  0  0
    5.4030   -3.9970   16.4070   C 0  0  0  0  0  0  0  0  0  0  0  0
    6.7370   -4.0250   15.7400   C 0  0  0  0  0  0  0  0  0  0  0  0
    6.8500   -3.5830   14.5800   O 0  0  0  0  0  0  0  0  0  0  0  0
    7.7600   -4.5330   16.4390   N 0  0  0  0  0  0  0  0  0  0  0  0
    9.1730   -4.7000   16.0900   C 0  0  0  0  0  0  0  0  0  0  0  0
    9.9070   -5.3650   17.2820   C 0  0  0  0  0  0  0  0  0  0  0  0
    9.8290   -3.4800   15.8720   C 0  0  0  0  0  0  0  0  0  0  0  0
    9.4110   -5.5860   14.9160   C 0  0  0  0  0  0  0  0  0  0  0  0
    4.4900   -2.7760   16.1220   N 0  0  0  0  0  0  0  0  0  0  0  0
    3.0610   -2.8590   16.5660   C 0  0  0  0  0  0  0  0  0  0  0  0
    2.4390   -4.1420   16.0320   C 0  0  0  0  0  0  0  0  0  0  0  0
    5.0120   -1.4890   16.6570   C 0  0  0  0  0  0  0  0  0  0  0  0
    4.9970   -0.4370   15.6040   C 0  0  0  0  0  0  0  0  0  0  0  0
    5.1220    0.6140   16.5270   O 0  0  0  0  0  0  0  0  0  0  0  0
    6.1660   -0.2630   14.6360   C 0  0  0  0  0  0  0  0  0  0  0  0
    6.1370    0.8190   13.5370   C 0  0  0  0  0  0  0  0  0  0  0  0
    7.4940    0.7770   12.6920   C 0  0  0  0  0  0  0  0  0  0  0  0
    7.4930    1.8430   11.5870   C 0  0  0  0  0  0  0  0  0  0  0  0
    7.3260    3.2730   11.8930   C 0  0  0  0  0  0  0  0  0  0  0  0
    7.3180    4.2330   10.8230   C 0  0  0  0  0  0  0  0  0  0  0  0
    7.4810    3.7660    9.4410   C 0  0  0  0  0  0  0  0  0  0  0  0
    7.6480    2.3510    9.1530   C 0  0  0  0  0  0  0  0  0  0  0  0
    7.6530    1.4040   10.2200   C 0  0  0  0  0  0  0  0  0  0  0  0
    4.9510    0.6120   12.5330   C 0  0  0  0  0  0  0  0  0  0  0  0
    4.4830   -0.5370   12.1980   O 0  0  0  0  0  0  0  0  0  0  0  0
    4.5160    1.7590   12.0580   N 0  0  0  0  0  0  0  0  0  0  0  0
    3.4530    1.8920   11.0810   C 0  0  0  0  0  0  0  0  0  0  0  0
    3.4150    3.2820   10.4760   C 0  0  0  0  0  0  0  0  0  0  0  0
    3.7030    4.2740   11.4470   O 0  0  0  0  0  0  0  0  0  0  0  0
    2.0500    3.3980    9.8540   C 0  0  0  0  0  0  0  0  0  0  0  0
    1.0530    2.6850   10.7290   C 0  0  0  0  0  0  0  0  0  0  0  0
   -0.3210    2.7010   10.9570   C 0  0  0  0  0  0  0  0  0  0  0  0
   -0.8560    1.7970   11.9360   C 0  0  0  0  0  0  0  0  0  0  0  0
    0.0030    0.8880   12.6750   C 0  0  0  0  0  0  0  0  0  0  0  0
    1.3940    0.8600   12.4570   C 0  0  0  0  0  0  0  0  0  0  0  0
    1.9990    1.6960   11.5320   C 0  0  0  0  0  0  0  0  0  0  0  0
    2.4960   -6.4920   15.7040   C 0  0  0  0  0  0  0  0  0  0  0  0
    3.1180   -7.8800   15.8760   C 0  0  0  0  0  0  0  0  0  0  0  0
    3.2680   -8.5080   17.1620   C 0  0  0  0  0  0  0  0  0  0  0  0
    3.8580   -9.8240   17.3710   N 0  0  0  0  0  0  0  0  0  0  0  0
    4.2940  -10.4710   16.1490   C 0  0  0  0  0  0  0  0  0  0  0  0
    4.1720   -9.8990   14.8360   C 0  0  0  0  0  0  0  0  0  0  0  0
    3.5750   -8.5820   14.7060   C 0  0  0  0  0  0  0  0  0  0  0  0
    8.8850    0.7840   13.3100   C 0  0  0  0  0  0  0  0  0  0  0  0
  1  2  1  0  0  0  0
  1 13  1  0  0  0  0
  1 39  1  0  0  0  0
  2  3  1  0  0  0  0
  3  4  1  0  0  0  0
  3 11  1  0  0  0  0
  4  5  2  0  0  0  0
  4  6  1  0  0  0  0
  6  7  1  0  0  0  0
  7  8  1  0  0  0  0
  7  9  1  0  0  0  0
  7 10  1  0  0  0  0
 11 12  1  0  0  0  0
 11 14  1  0  0  0  0
 12 13  1  0  0  0  0
 14 15  1  0  0  0  0
 15 16  1  0  0  0  0
 15 17  1  0  0  0  0
 17 18  1  0  0  0  0
 18 19  1  0  0  0  0
 18 26  1  0  0  0  0
 19 20  1  0  0  0  0
 19 46  1  0  0  0  0
 20 21  2  0  0  0  0
 20 25  1  0  0  0  0
 21 22  1  0  0  0  0
 22 23  2  0  0  0  0
 23 24  1  0  0  0  0
 24 25  2  0  0  0  0
 26 27  2  0  0  0  0
 26 28  1  0  0  0  0
 28 29  1  0  0  0  0
 29 30  1  0  0  0  0
 29 38  1  0  0  0  0
 30 31  1  0  0  0  0
 30 32  1  0  0  0  0
 32 33  1  0  0  0  0
 33 34  2  0  0  0  0
 33 38  1  0  0  0  0
 34 35  1  0  0  0  0
 35 36  2  0  0  0  0
 36 37  1  0  0  0  0
 37 38  2  0  0  0  0
 39 40  1  0  0  0  0
 40 41  2  0  0  0  0
 40 45  1  0  0  0  0
 41 42  1  0  0  0  0
 42 43  2  0  0  0  0
 43 44  1  0  0  0  0
 44 45  2  0  0  0  0
A    1
N1
A    2
C1
A    3
C2
A    4
C3
A    5
O1
A    6
N2
A    7
C4
A    8
C5
A    9
C6
A   10
C7
A   11
N3
A   12
C8
A   13
C9
A   14
C10
A   15
C11
A   16
O2
A   17
C12
A   18
C13
A   19
C14
A   20
C15
A   21
C16
A   22
C17
A   23
C18
A   24
C19
A   25
C20
A   26
C21
A   27
O3
A   28
N4
A   29
C22
A   30
C23
A   31
O4
A   32
C24
A   33
C25
A   34
C26
A   35
C27
A   36
C28
A   37
C29
A   38
C30
A   39
C31
A   40
C32
A   41
C33
A   42
N5
A   43
C34
A   44
C35
A   45
C36
A   46
C37
M  END
>  <InstanceId>
1K6T_XN1_B_509

>  <ChemCompId>
XN1

>  <PdbId>
1K6T

>  <ChainId>
B

>  <ResidueNumber>
509

>  <InsertionCode>


>  <Model>
1

>  <AltIds>


>  <MissingHeavyAtoms>
0

>  <ObservedFormula>
C37 N5 O4

>  <Name>
N-[2-HYDROXY-1-INDANYL]-5-[(2-TERTIARYBUTYLAMINOCARBONYL)-4(3-PYRIDYLMETHYL)PIPERAZINO]-4-HYDROXY-2-(1-PHENYLETHYL)-PENTANAMIDE

>  <SystematicName>
(1S,2S,4R)-N-tert-butyl-1-[(2S,4S,5S)-2-hydroxy-4-[[(1S,2R)-2-hydroxy-2,3-dihydro-1H-inden-1-yl]carbamoyl]-5-phenyl-hexyl]-4-(pyridin-3-ylmethyl)piperazine-2-carboxamide

>  <Synonyms>
ANALOGUE OF INDINAVIR

>  <Type>
NON-POLYMER

>  <Formula>
C37 H49 N5 O4

>  <MolecularWeight>
627.816

>  <ModifiedDate>
2011-06-04

>  <Parent>


>  <OneLetterCode>


>  <SubcomponentList>


>  <AmbiguousFlag>
N

>  <InChI>
InChI=1S/C37H49N5O4/c1-25(27-12-6-5-7-13-27)31(35(45)39-34-30-15-9-8-14-28(30)19-33(34)44)20-29(43)23-42-18-17-41(22-26-11-10-16-38-21-26)24-32(42)36(46)40-37(2,3)4/h5-16,21,25,29,31-34,43-44H,17-20,22-24H2,1-4H3,(H,39,45)(H,40,46)/t25-,29+,31+,32+,33-,34+/m1/s1

>  <InChIKey>
AITMPVIQUIXEST-FGUNTGOFSA-N

>  <SMILES>
C[C@H](c1ccccc1)[C@H](C[C@@H](C[N@@]2CC[N@](C[C@H]2C(=O)NC(C)(C)C)Cc3cccnc3)O)C(=O)N[C@H]4c5ccccc5C[C@H]4O

$$$$
