1K6T_XN1_B_509


 50 54  0  0  0  0  0  0  0  0999 V2000
    5.0433   -0.6798   15.4661 C   0  0  0  0  0  0  0  0  0  0  0  0
    5.0667    0.4627   16.2824 O   0  0  0  0  0  0  0  0  0  0  0  0
    5.8848    0.4711   16.8035 H   0  0  0  0  0  0  0  0  0  0  0  0
    5.1084   -1.6198   16.6184 C   0  0  0  0  0  0  0  0  0  0  0  0
    3.5595   -5.5999   16.6740 N   0  0  0  0  0  0  0  0  0  0  0  0
    4.9218   -5.3509   16.0526 C   0  0  0  0  0  0  0  0  0  0  0  0
    5.6728   -4.1050   16.5151 C   0  0  0  0  0  0  0  0  0  0  0  0
    4.6506   -2.9776   16.2159 N   0  0  0  0  0  0  0  0  0  0  0  0
    3.2672   -3.1292   16.7721 C   0  0  0  0  0  0  0  0  0  0  0  0
    2.7097   -4.4900   16.3780 C   0  0  0  0  0  0  0  0  0  0  0  0
    6.9545   -4.0874   15.7520 C   0  0  0  0  0  0  0  0  0  0  0  0
    6.9274   -3.9401   14.5146 O   0  0  0  0  0  0  0  0  0  0  0  0
    8.0860   -4.2330   16.4532 N   0  0  0  0  0  0  0  0  0  0  0  0
    7.9545   -4.3440   17.4225 H   0  0  0  0  0  0  0  0  0  0  0  0
    9.4864   -4.2553   16.0233 C   0  0  0  0  0  0  0  0  0  0  0  0
   10.3755   -4.6303   17.2360 C   0  0  0  0  0  0  0  0  0  0  0  0
    9.9438   -3.0030   15.5889 C   0  0  0  0  0  0  0  0  0  0  0  0
    9.7849   -5.2643   14.9684 C   0  0  0  0  0  0  0  0  0  0  0  0
    2.9243   -6.8479   16.2115 C   0  0  0  0  0  0  0  0  0  0  0  0
    3.5948   -8.1811   16.5521 C   0  0  0  0  0  0  0  0  0  0  0  0
    4.0972   -8.4822   17.8665 C   0  0  0  0  0  0  0  0  0  0  0  0
    4.7456   -9.7351   18.2322 N   0  0  0  0  0  0  0  0  0  0  0  0
    4.8478  -10.6823   17.1394 C   0  0  0  0  0  0  0  0  0  0  0  0
    4.3660  -10.4434   15.8064 C   0  0  0  0  0  0  0  0  0  0  0  0
    3.7322   -9.1699   15.5159 C   0  0  0  0  0  0  0  0  0  0  0  0
    6.2209   -0.5130   14.5074 C   0  0  0  0  0  0  0  0  0  0  0  0
    6.2779    0.6635   13.5114 C   0  0  0  0  0  0  0  0  0  0  0  0
    5.1620    0.5659   12.4147 C   0  0  0  0  0  0  0  0  0  0  0  0
    4.8394   -0.5213   11.8102 O   0  0  0  0  0  0  0  0  0  0  0  0
    4.6193    1.7397   12.1736 N   0  0  0  0  0  0  0  0  0  0  0  0
    4.9362    2.5085   12.7006 H   0  0  0  0  0  0  0  0  0  0  0  0
    3.5863    1.9782   11.1846 C   0  0  0  0  0  0  0  0  0  0  0  0
    3.5480    3.4303   10.7495 C   0  0  0  0  0  0  0  0  0  0  0  0
    3.7907    4.3014   11.8413 O   0  0  0  0  0  0  0  0  0  0  0  0
    2.2020    3.6062   10.1005 C   0  0  0  0  0  0  0  0  0  0  0  0
    1.1878    2.7831   10.8501 C   0  0  0  0  0  0  0  0  0  0  0  0
   -0.1929    2.7575   11.0323 C   0  0  0  0  0  0  0  0  0  0  0  0
   -0.7460    1.7370   11.8776 C   0  0  0  0  0  0  0  0  0  0  0  0
    0.1017    0.7547   12.5308 C   0  0  0  0  0  0  0  0  0  0  0  0
    1.4992    0.7673   12.3576 C   0  0  0  0  0  0  0  0  0  0  0  0
    2.1216    1.7145   11.5601 C   0  0  0  0  0  0  0  0  0  0  0  0
    3.1283    4.1457   12.5326 H   0  0  0  0  0  0  0  0  0  0  0  0
    7.6895    0.6763   12.7600 C   0  0  0  0  0  0  0  0  0  0  0  0
    9.0326    0.5463   13.4642 C   0  0  0  0  0  0  0  0  0  0  0  0
    7.8007    1.8758   11.8081 C   0  0  0  0  0  0  0  0  0  0  0  0
    7.6920    3.2608   12.2944 C   0  0  0  0  0  0  0  0  0  0  0  0
    7.7890    4.3513   11.3627 C   0  0  0  0  0  0  0  0  0  0  0  0
    7.9991    4.0603    9.9394 C   0  0  0  0  0  0  0  0  0  0  0  0
    8.1077    2.6878    9.4730 C   0  0  0  0  0  0  0  0  0  0  0  0
    8.0085    1.6108   10.4033 C   0  0  0  0  0  0  0  0  0  0  0  0
  5  6  1  0  0  0
  5 10  1  0  0  0
  5 19  1  0  0  0
  6  7  1  0  0  0
  7 11  1  0  0  0
  7  8  1  0  0  0
 11 12  2  0  0  0
 11 13  1  0  0  0
 13 15  1  0  0  0
 15 16  1  0  0  0
 15 17  1  0  0  0
 15 18  1  0  0  0
  8  9  1  0  0  0
  8  4  1  0  0  0
  9 10  1  0  0  0
  4  1  1  0  0  0
  1  2  1  0  0  0
  1 26  1  0  0  0
 26 27  1  0  0  0
 27 43  1  0  0  0
 27 28  1  0  0  0
 43 45  1  0  0  0
 43 44  1  0  0  0
 45 46  2  0  0  0
 45 50  1  0  0  0
 46 47  1  0  0  0
 47 48  2  0  0  0
 48 49  1  0  0  0
 49 50  2  0  0  0
 28 29  2  0  0  0
 28 30  1  0  0  0
 30 32  1  0  0  0
 32 33  1  0  0  0
 32 41  1  0  0  0
 33 34  1  0  0  0
 33 35  1  0  0  0
 35 36  1  0  0  0
 36 37  2  0  0  0
 36 41  1  0  0  0
 37 38  1  0  0  0
 38 39  2  0  0  0
 39 40  1  0  0  0
 40 41  2  0  0  0
 19 20  1  0  0  0
 20 21  2  0  0  0
 20 25  1  0  0  0
 21 22  1  0  0  0
 22 23  2  0  0  0
 23 24  1  0  0  0
 24 25  2  0  0  0
 13 14  1  0  0  0
  2  3  1  0  0  0
 30 31  1  0  0  0
 34 42  1  0  0  0
M  END
> <minimizedAffinity>
-11.58144

$$$$
1K6T_XN1_B_509


 50 54  0  0  0  0  0  0  0  0999 V2000
    5.5070   -1.5034   15.9920 C   0  0  0  0  0  0  0  0  0  0  0  0
    5.0921   -0.6474   17.0251 O   0  0  0  0  0  0  0  0  0  0  0  0
    4.1312   -0.7182   17.1373 H   0  0  0  0  0  0  0  0  0  0  0  0
    4.6653   -0.8280   14.9667 C   0  0  0  0  0  0  0  0  0  0  0  0
    7.3449    1.1638   12.3029 N   0  0  0  0  0  0  0  0  0  0  0  0
    5.9287    0.8748   11.8393 C   0  0  0  0  0  0  0  0  0  0  0  0
    4.8728    0.6875   12.9257 C   0  0  0  0  0  0  0  0  0  0  0  0
    5.4809   -0.4564   13.7785 N   0  0  0  0  0  0  0  0  0  0  0  0
    6.8828   -0.2800   14.2781 C   0  0  0  0  0  0  0  0  0  0  0  0
    7.7946    0.0751   13.1117 C   0  0  0  0  0  0  0  0  0  0  0  0
    3.5926    0.4049   12.2140 C   0  0  0  0  0  0  0  0  0  0  0  0
    3.5469   -0.5232   11.3832 O   0  0  0  0  0  0  0  0  0  0  0  0
    2.5420    1.1791   12.5140 N   0  0  0  0  0  0  0  0  0  0  0  0
    2.7260    1.8751   13.1856 H   0  0  0  0  0  0  0  0  0  0  0  0
    1.1654    1.1668   12.0129 C   0  0  0  0  0  0  0  0  0  0  0  0
    1.1710    0.6585   10.5488 C   0  0  0  0  0  0  0  0  0  0  0  0
    0.5889    2.4443   11.9699 C   0  0  0  0  0  0  0  0  0  0  0  0
    0.2524    0.2563   12.7595 C   0  0  0  0  0  0  0  0  0  0  0  0
    8.2913    1.3809   11.1929 C   0  0  0  0  0  0  0  0  0  0  0  0
    7.8559    2.2640   10.0210 C   0  0  0  0  0  0  0  0  0  0  0  0
    7.8225    3.7002   10.1035 C   0  0  0  0  0  0  0  0  0  0  0  0
    7.4106    4.5774    9.0151 N   0  0  0  0  0  0  0  0  0  0  0  0
    7.0268    3.8721    7.8079 C   0  0  0  0  0  0  0  0  0  0  0  0
    7.0388    2.4423    7.6610 C   0  0  0  0  0  0  0  0  0  0  0  0
    7.4597    1.6326    8.7901 C   0  0  0  0  0  0  0  0  0  0  0  0
    5.1841   -2.9132   16.4839 C   0  0  0  0  0  0  0  0  0  0  0  0
    5.4772   -4.1496   15.6095 C   0  0  0  0  0  0  0  0  0  0  0  0
    4.2387   -5.1042   15.4990 C   0  0  0  0  0  0  0  0  0  0  0  0
    3.3545   -5.0324   14.5692 O   0  0  0  0  0  0  0  0  0  0  0  0
    4.2054   -5.9671   16.4914 N   0  0  0  0  0  0  0  0  0  0  0  0
    4.9391   -5.9405   17.1473 H   0  0  0  0  0  0  0  0  0  0  0  0
    3.1616   -6.9547   16.6850 C   0  0  0  0  0  0  0  0  0  0  0  0
    2.9984   -7.3221   18.1472 C   0  0  0  0  0  0  0  0  0  0  0  0
    4.2522   -7.3811   18.8062 O   0  0  0  0  0  0  0  0  0  0  0  0
    2.2381   -8.6204   18.1391 C   0  0  0  0  0  0  0  0  0  0  0  0
    2.6989   -9.4483   16.9686 C   0  0  0  0  0  0  0  0  0  0  0  0
    2.7087  -10.7886   16.5895 C   0  0  0  0  0  0  0  0  0  0  0  0
    3.2814  -11.1287   15.3174 C   0  0  0  0  0  0  0  0  0  0  0  0
    3.8392  -10.1116   14.4430 C   0  0  0  0  0  0  0  0  0  0  0  0
    3.8378   -8.7524   14.8118 C   0  0  0  0  0  0  0  0  0  0  0  0
    3.3065   -8.3306   16.0203 C   0  0  0  0  0  0  0  0  0  0  0  0
    4.8200   -8.0309   18.3632 H   0  0  0  0  0  0  0  0  0  0  0  0
    6.6792   -4.9941   16.2414 C   0  0  0  0  0  0  0  0  0  0  0  0
    6.9146   -5.1567   17.7364 C   0  0  0  0  0  0  0  0  0  0  0  0
    8.0252   -4.5942   15.6203 C   0  0  0  0  0  0  0  0  0  0  0  0
    8.6377   -3.2817   15.8824 C   0  0  0  0  0  0  0  0  0  0  0  0
    9.8930   -2.9471   15.2670 C   0  0  0  0  0  0  0  0  0  0  0  0
   10.5434   -3.9270   14.3886 C   0  0  0  0  0  0  0  0  0  0  0  0
    9.9289   -5.2208   14.1405 C   0  0  0  0  0  0  0  0  0  0  0  0
    8.6820   -5.5450   14.7533 C   0  0  0  0  0  0  0  0  0  0  0  0
  5  6  1  0  0  0
  5 10  1  0  0  0
  5 19  1  0  0  0
  6  7  1  0  0  0
  7 11  1  0  0  0
  7  8  1  0  0  0
 11 12  2  0  0  0
 11 13  1  0  0  0
 13 15  1  0  0  0
 15 16  1  0  0  0
 15 17  1  0  0  0
 15 18  1  0  0  0
  8  9  1  0  0  0
  8  4  1  0  0  0
  9 10  1  0  0  0
  4  1  1  0  0  0
  1  2  1  0  0  0
  1 26  1  0  0  0
 26 27  1  0  0  0
 27 43  1  0  0  0
 27 28  1  0  0  0
 43 45  1  0  0  0
 43 44  1  0  0  0
 45 46  2  0  0  0
 45 50  1  0  0  0
 46 47  1  0  0  0
 47 48  2  0  0  0
 48 49  1  0  0  0
 49 50  2  0  0  0
 28 29  2  0  0  0
 28 30  1  0  0  0
 30 32  1  0  0  0
 32 33  1  0  0  0
 32 41  1  0  0  0
 33 34  1  0  0  0
 33 35  1  0  0  0
 35 36  1  0  0  0
 36 37  2  0  0  0
 36 41  1  0  0  0
 37 38  1  0  0  0
 38 39  2  0  0  0
 39 40  1  0  0  0
 40 41  2  0  0  0
 19 20  1  0  0  0
 20 21  2  0  0  0
 20 25  1  0  0  0
 21 22  1  0  0  0
 22 23  2  0  0  0
 23 24  1  0  0  0
 24 25  2  0  0  0
 13 14  1  0  0  0
  2  3  1  0  0  0
 30 31  1  0  0  0
 34 42  1  0  0  0
M  END
> <minimizedAffinity>
-10.42785

$$$$
1K6T_XN1_B_509


 50 54  0  0  0  0  0  0  0  0999 V2000
    7.1534    0.6959   13.4353 C   0  0  0  0  0  0  0  0  0  0  0  0
    6.9862    1.4506   14.6078 O   0  0  0  0  0  0  0  0  0  0  0  0
    6.2009    1.1385   15.0840 H   0  0  0  0  0  0  0  0  0  0  0  0
    5.8330    1.0965   12.8768 C   0  0  0  0  0  0  0  0  0  0  0  0
    7.0702    2.8946    9.2054 N   0  0  0  0  0  0  0  0  0  0  0  0
    5.5995    2.9270    9.5797 C   0  0  0  0  0  0  0  0  0  0  0  0
    5.2630    2.7966   11.0629 C   0  0  0  0  0  0  0  0  0  0  0  0
    5.9592    1.4628   11.4398 N   0  0  0  0  0  0  0  0  0  0  0  0
    7.4123    1.3187   11.1025 C   0  0  0  0  0  0  0  0  0  0  0  0
    7.6254    1.6489    9.6316 C   0  0  0  0  0  0  0  0  0  0  0  0
    3.7748    2.8421   11.1550 C   0  0  0  0  0  0  0  0  0  0  0  0
    3.2229    3.8476   11.6429 O   0  0  0  0  0  0  0  0  0  0  0  0
    3.1007    1.7789   10.6985 N   0  0  0  0  0  0  0  0  0  0  0  0
    3.6683    1.0566   10.3444 H   0  0  0  0  0  0  0  0  0  0  0  0
    1.6624    1.5076   10.6362 C   0  0  0  0  0  0  0  0  0  0  0  0
    1.0863    1.5330   12.0747 C   0  0  0  0  0  0  0  0  0  0  0  0
    1.3690    0.2327   10.1313 C   0  0  0  0  0  0  0  0  0  0  0  0
    0.8839    2.5169    9.8647 C   0  0  0  0  0  0  0  0  0  0  0  0
    7.3110    3.0768    7.7619 C   0  0  0  0  0  0  0  0  0  0  0  0
    8.5302    3.8897    7.3194 C   0  0  0  0  0  0  0  0  0  0  0  0
    8.8580    4.1035    5.9347 C   0  0  0  0  0  0  0  0  0  0  0  0
   10.0099    4.8658    5.4703 N   0  0  0  0  0  0  0  0  0  0  0  0
   10.8232    5.4085    6.5409 C   0  0  0  0  0  0  0  0  0  0  0  0
   10.5502    5.2322    7.9410 C   0  0  0  0  0  0  0  0  0  0  0  0
    9.3845    4.4582    8.3282 C   0  0  0  0  0  0  0  0  0  0  0  0
    7.4165   -0.7320   13.9104 C   0  0  0  0  0  0  0  0  0  0  0  0
    6.3642   -1.5062   14.7305 C   0  0  0  0  0  0  0  0  0  0  0  0
    7.0058   -2.2942   15.9242 C   0  0  0  0  0  0  0  0  0  0  0  0
    6.6687   -2.1382   17.1544 O   0  0  0  0  0  0  0  0  0  0  0  0
    7.9489   -3.1124   15.5099 N   0  0  0  0  0  0  0  0  0  0  0  0
    8.1222   -3.1602   14.5420 H   0  0  0  0  0  0  0  0  0  0  0  0
    8.7507   -3.9485   16.3819 C   0  0  0  0  0  0  0  0  0  0  0  0
    9.9986   -4.4549   15.6850 C   0  0  0  0  0  0  0  0  0  0  0  0
    9.7364   -4.7770   14.3295 O   0  0  0  0  0  0  0  0  0  0  0  0
   10.4669   -5.6150   16.5207 C   0  0  0  0  0  0  0  0  0  0  0  0
    9.2647   -6.3607   17.0374 C   0  0  0  0  0  0  0  0  0  0  0  0
    8.9639   -7.6340   17.5150 C   0  0  0  0  0  0  0  0  0  0  0  0
    7.6118   -7.9057   17.9152 C   0  0  0  0  0  0  0  0  0  0  0  0
    6.5784   -6.8886   17.8268 C   0  0  0  0  0  0  0  0  0  0  0  0
    6.8659   -5.5968   17.3453 C   0  0  0  0  0  0  0  0  0  0  0  0
    8.1422   -5.2438   16.9367 C   0  0  0  0  0  0  0  0  0  0  0  0
    9.0377   -5.4485   14.2861 H   0  0  0  0  0  0  0  0  0  0  0  0
    5.6188   -2.5704   13.7983 C   0  0  0  0  0  0  0  0  0  0  0  0
    5.3044   -2.3436   12.3264 C   0  0  0  0  0  0  0  0  0  0  0  0
    4.3269   -3.0759   14.4562 C   0  0  0  0  0  0  0  0  0  0  0  0
    4.1482   -4.4903   14.8220 C   0  0  0  0  0  0  0  0  0  0  0  0
    2.9149   -4.9190   15.4236 C   0  0  0  0  0  0  0  0  0  0  0  0
    1.8555   -3.9322   15.6655 C   0  0  0  0  0  0  0  0  0  0  0  0
    2.0462   -2.5377   15.3021 C   0  0  0  0  0  0  0  0  0  0  0  0
    3.2721   -2.1202   14.7037 C   0  0  0  0  0  0  0  0  0  0  0  0
  5  6  1  0  0  0
  5 10  1  0  0  0
  5 19  1  0  0  0
  6  7  1  0  0  0
  7 11  1  0  0  0
  7  8  1  0  0  0
 11 12  2  0  0  0
 11 13  1  0  0  0
 13 15  1  0  0  0
 15 16  1  0  0  0
 15 17  1  0  0  0
 15 18  1  0  0  0
  8  9  1  0  0  0
  8  4  1  0  0  0
  9 10  1  0  0  0
  4  1  1  0  0  0
  1  2  1  0  0  0
  1 26  1  0  0  0
 26 27  1  0  0  0
 27 43  1  0  0  0
 27 28  1  0  0  0
 43 45  1  0  0  0
 43 44  1  0  0  0
 45 46  2  0  0  0
 45 50  1  0  0  0
 46 47  1  0  0  0
 47 48  2  0  0  0
 48 49  1  0  0  0
 49 50  2  0  0  0
 28 29  2  0  0  0
 28 30  1  0  0  0
 30 32  1  0  0  0
 32 33  1  0  0  0
 32 41  1  0  0  0
 33 34  1  0  0  0
 33 35  1  0  0  0
 35 36  1  0  0  0
 36 37  2  0  0  0
 36 41  1  0  0  0
 37 38  1  0  0  0
 38 39  2  0  0  0
 39 40  1  0  0  0
 40 41  2  0  0  0
 19 20  1  0  0  0
 20 21  2  0  0  0
 20 25  1  0  0  0
 21 22  1  0  0  0
 22 23  2  0  0  0
 23 24  1  0  0  0
 24 25  2  0  0  0
 13 14  1  0  0  0
  2  3  1  0  0  0
 30 31  1  0  0  0
 34 42  1  0  0  0
M  END
> <minimizedAffinity>
-10.36886

$$$$
1K6T_XN1_B_509


 50 54  0  0  0  0  0  0  0  0999 V2000
    5.0492   -0.9106   15.4838 C   0  0  0  0  0  0  0  0  0  0  0  0
    5.0496   -0.4846   16.8219 O   0  0  0  0  0  0  0  0  0  0  0  0
    4.2230   -0.0139   17.0117 H   0  0  0  0  0  0  0  0  0  0  0  0
    4.9316    0.4721   14.9452 C   0  0  0  0  0  0  0  0  0  0  0  0
    7.2459    1.9470   11.6723 N   0  0  0  0  0  0  0  0  0  0  0  0
    5.8604    1.3902   11.3997 C   0  0  0  0  0  0  0  0  0  0  0  0
    4.8759    1.3903   12.5663 C   0  0  0  0  0  0  0  0  0  0  0  0
    5.6513    0.5942   13.6482 N   0  0  0  0  0  0  0  0  0  0  0  0
    7.0378    1.0517   13.9863 C   0  0  0  0  0  0  0  0  0  0  0  0
    7.8559    1.1746   12.7081 C   0  0  0  0  0  0  0  0  0  0  0  0
    3.6155    0.7870   12.0440 C   0  0  0  0  0  0  0  0  0  0  0  0
    3.6383   -0.3687   11.5777 O   0  0  0  0  0  0  0  0  0  0  0  0
    2.5069    1.5355   12.1072 N   0  0  0  0  0  0  0  0  0  0  0  0
    2.6396    2.4300   12.4965 H   0  0  0  0  0  0  0  0  0  0  0  0
    1.1302    1.2499   11.6956 C   0  0  0  0  0  0  0  0  0  0  0  0
    0.2926    2.5481   11.8176 C   0  0  0  0  0  0  0  0  0  0  0  0
    0.4977    0.3099   12.5218 C   0  0  0  0  0  0  0  0  0  0  0  0
    0.9962    0.8069   10.2794 C   0  0  0  0  0  0  0  0  0  0  0  0
    8.1174    1.9570   10.4826 C   0  0  0  0  0  0  0  0  0  0  0  0
    7.5924    2.5974    9.1953 C   0  0  0  0  0  0  0  0  0  0  0  0
    7.3892    4.0157    9.0624 C   0  0  0  0  0  0  0  0  0  0  0  0
    6.8874    4.6656    7.8583 N   0  0  0  0  0  0  0  0  0  0  0  0
    6.6013    3.7475    6.7734 C   0  0  0  0  0  0  0  0  0  0  0  0
    6.7831    2.3233    6.8418 C   0  0  0  0  0  0  0  0  0  0  0  0
    7.2854    1.7468    8.0760 C   0  0  0  0  0  0  0  0  0  0  0  0
    3.8953   -1.9063   15.3793 C   0  0  0  0  0  0  0  0  0  0  0  0
    4.0006   -3.3164   15.9956 C   0  0  0  0  0  0  0  0  0  0  0  0
    5.3526   -4.0222   15.6327 C   0  0  0  0  0  0  0  0  0  0  0  0
    5.8368   -4.0833   14.4439 O   0  0  0  0  0  0  0  0  0  0  0  0
    5.9121   -4.5655   16.6920 N   0  0  0  0  0  0  0  0  0  0  0  0
    5.4594   -4.4522   17.5589 H   0  0  0  0  0  0  0  0  0  0  0  0
    7.1500   -5.3200   16.6698 C   0  0  0  0  0  0  0  0  0  0  0  0
    7.3178   -6.1635   17.9187 C   0  0  0  0  0  0  0  0  0  0  0  0
    6.8479   -5.4800   19.0684 O   0  0  0  0  0  0  0  0  0  0  0  0
    8.7804   -6.5139   17.9576 C   0  0  0  0  0  0  0  0  0  0  0  0
    9.5772   -5.3376   17.4580 C   0  0  0  0  0  0  0  0  0  0  0  0
   10.8778   -4.8500   17.5618 C   0  0  0  0  0  0  0  0  0  0  0  0
   11.1998   -3.6281   16.8798 C   0  0  0  0  0  0  0  0  0  0  0  0
   10.2042   -2.9114   16.1018 C   0  0  0  0  0  0  0  0  0  0  0  0
    8.8848   -3.3905   15.9876 C   0  0  0  0  0  0  0  0  0  0  0  0
    8.4829   -4.5611   16.6110 C   0  0  0  0  0  0  0  0  0  0  0  0
    7.3296   -4.6439   19.1669 H   0  0  0  0  0  0  0  0  0  0  0  0
    2.8152   -4.2414   15.4512 C   0  0  0  0  0  0  0  0  0  0  0  0
    1.3378   -3.8965   15.5748 C   0  0  0  0  0  0  0  0  0  0  0  0
    2.9754   -5.6902   15.9335 C   0  0  0  0  0  0  0  0  0  0  0  0
    3.2018   -6.7978   14.9909 C   0  0  0  0  0  0  0  0  0  0  0  0
    3.3321   -8.1400   15.4889 C   0  0  0  0  0  0  0  0  0  0  0  0
    3.2400   -8.3795   16.9341 C   0  0  0  0  0  0  0  0  0  0  0  0
    3.0191   -7.2761   17.8543 C   0  0  0  0  0  0  0  0  0  0  0  0
    2.8889   -5.9469   17.3525 C   0  0  0  0  0  0  0  0  0  0  0  0
  5  6  1  0  0  0
  5 10  1  0  0  0
  5 19  1  0  0  0
  6  7  1  0  0  0
  7 11  1  0  0  0
  7  8  1  0  0  0
 11 12  2  0  0  0
 11 13  1  0  0  0
 13 15  1  0  0  0
 15 16  1  0  0  0
 15 17  1  0  0  0
 15 18  1  0  0  0
  8  9  1  0  0  0
  8  4  1  0  0  0
  9 10  1  0  0  0
  4  1  1  0  0  0
  1  2  1  0  0  0
  1 26  1  0  0  0
 26 27  1  0  0  0
 27 43  1  0  0  0
 27 28  1  0  0  0
 43 45  1  0  0  0
 43 44  1  0  0  0
 45 46  2  0  0  0
 45 50  1  0  0  0
 46 47  1  0  0  0
 47 48  2  0  0  0
 48 49  1  0  0  0
 49 50  2  0  0  0
 28 29  2  0  0  0
 28 30  1  0  0  0
 30 32  1  0  0  0
 32 33  1  0  0  0
 32 41  1  0  0  0
 33 34  1  0  0  0
 33 35  1  0  0  0
 35 36  1  0  0  0
 36 37  2  0  0  0
 36 41  1  0  0  0
 37 38  1  0  0  0
 38 39  2  0  0  0
 39 40  1  0  0  0
 40 41  2  0  0  0
 19 20  1  0  0  0
 20 21  2  0  0  0
 20 25  1  0  0  0
 21 22  1  0  0  0
 22 23  2  0  0  0
 23 24  1  0  0  0
 24 25  2  0  0  0
 13 14  1  0  0  0
  2  3  1  0  0  0
 30 31  1  0  0  0
 34 42  1  0  0  0
M  END
> <minimizedAffinity>
-10.28863

$$$$
1K6T_XN1_B_509


 50 54  0  0  0  0  0  0  0  0999 V2000
    6.5365   -0.8727   14.4237 C   0  0  0  0  0  0  0  0  0  0  0  0
    6.4660   -1.0155   15.8190 O   0  0  0  0  0  0  0  0  0  0  0  0
    7.3283   -0.8043   16.2097 H   0  0  0  0  0  0  0  0  0  0  0  0
    7.6032   -1.9006   14.2780 C   0  0  0  0  0  0  0  0  0  0  0  0
    8.1780   -5.3777   16.6909 N   0  0  0  0  0  0  0  0  0  0  0  0
    6.7721   -5.0165   16.2469 C   0  0  0  0  0  0  0  0  0  0  0  0
    6.6456   -4.1535   14.9941 C   0  0  0  0  0  0  0  0  0  0  0  0
    7.5062   -2.9165   15.3613 N   0  0  0  0  0  0  0  0  0  0  0  0
    8.9099   -3.1605   15.8261 C   0  0  0  0  0  0  0  0  0  0  0  0
    8.8977   -4.1736   16.9626 C   0  0  0  0  0  0  0  0  0  0  0  0
    5.1844   -3.9345   14.7885 C   0  0  0  0  0  0  0  0  0  0  0  0
    4.7676   -3.6113   13.6591 O   0  0  0  0  0  0  0  0  0  0  0  0
    4.3854   -4.1014   15.8501 N   0  0  0  0  0  0  0  0  0  0  0  0
    4.8540   -4.3530   16.6785 H   0  0  0  0  0  0  0  0  0  0  0  0
    2.9326   -3.9733   15.9885 C   0  0  0  0  0  0  0  0  0  0  0  0
    2.5569   -4.1335   17.4835 C   0  0  0  0  0  0  0  0  0  0  0  0
    2.2292   -4.9786   15.3096 C   0  0  0  0  0  0  0  0  0  0  0  0
    2.3942   -2.6486   15.5700 C   0  0  0  0  0  0  0  0  0  0  0  0
    8.2105   -6.2531   17.8773 C   0  0  0  0  0  0  0  0  0  0  0  0
    7.9046   -7.7421   17.6976 C   0  0  0  0  0  0  0  0  0  0  0  0
    8.8600   -8.6690   17.1509 C   0  0  0  0  0  0  0  0  0  0  0  0
    8.6088  -10.0915   16.9585 N   0  0  0  0  0  0  0  0  0  0  0  0
    7.2851  -10.5137   17.3727 C   0  0  0  0  0  0  0  0  0  0  0  0
    6.2871   -9.6396   17.9259 C   0  0  0  0  0  0  0  0  0  0  0  0
    6.6090   -8.2330   18.0862 C   0  0  0  0  0  0  0  0  0  0  0  0
    6.8211    0.6092   14.1853 C   0  0  0  0  0  0  0  0  0  0  0  0
    6.5761    1.2564   12.8067 C   0  0  0  0  0  0  0  0  0  0  0  0
    5.2619    0.7325   12.1314 C   0  0  0  0  0  0  0  0  0  0  0  0
    5.0494   -0.4978   11.8273 O   0  0  0  0  0  0  0  0  0  0  0  0
    4.4192    1.7137   11.8917 N   0  0  0  0  0  0  0  0  0  0  0  0
    4.6789    2.6206   12.1732 H   0  0  0  0  0  0  0  0  0  0  0  0
    3.1338    1.5504   11.2411 C   0  0  0  0  0  0  0  0  0  0  0  0
    2.6170    2.8603   10.6784 C   0  0  0  0  0  0  0  0  0  0  0  0
    2.9161    3.9447   11.5413 O   0  0  0  0  0  0  0  0  0  0  0  0
    1.1472    2.6330   10.4514 C   0  0  0  0  0  0  0  0  0  0  0  0
    0.6109    1.7656   11.5595 C   0  0  0  0  0  0  0  0  0  0  0  0
   -0.6184    1.4868   12.1523 C   0  0  0  0  0  0  0  0  0  0  0  0
   -0.6506    0.5428   13.2338 C   0  0  0  0  0  0  0  0  0  0  0  0
    0.5594   -0.1080   13.7056 C   0  0  0  0  0  0  0  0  0  0  0  0
    1.8100    0.1634   13.1177 C   0  0  0  0  0  0  0  0  0  0  0  0
    1.9378    1.0600   12.0688 C   0  0  0  0  0  0  0  0  0  0  0  0
    2.5239    3.7817   12.4133 H   0  0  0  0  0  0  0  0  0  0  0  0
    7.7894    0.9198   11.8209 C   0  0  0  0  0  0  0  0  0  0  0  0
    9.2470    0.8510   12.2537 C   0  0  0  0  0  0  0  0  0  0  0  0
    7.7404    1.7961   10.5611 C   0  0  0  0  0  0  0  0  0  0  0  0
    7.4759    1.2235    9.2312 C   0  0  0  0  0  0  0  0  0  0  0  0
    7.4534    2.0824    8.0787 C   0  0  0  0  0  0  0  0  0  0  0  0
    7.6922    3.5202    8.2527 C   0  0  0  0  0  0  0  0  0  0  0  0
    7.9494    4.0732    9.5722 C   0  0  0  0  0  0  0  0  0  0  0  0
    7.9720    3.2142   10.7111 C   0  0  0  0  0  0  0  0  0  0  0  0
  5  6  1  0  0  0
  5 10  1  0  0  0
  5 19  1  0  0  0
  6  7  1  0  0  0
  7 11  1  0  0  0
  7  8  1  0  0  0
 11 12  2  0  0  0
 11 13  1  0  0  0
 13 15  1  0  0  0
 15 16  1  0  0  0
 15 17  1  0  0  0
 15 18  1  0  0  0
  8  9  1  0  0  0
  8  4  1  0  0  0
  9 10  1  0  0  0
  4  1  1  0  0  0
  1  2  1  0  0  0
  1 26  1  0  0  0
 26 27  1  0  0  0
 27 43  1  0  0  0
 27 28  1  0  0  0
 43 45  1  0  0  0
 43 44  1  0  0  0
 45 46  2  0  0  0
 45 50  1  0  0  0
 46 47  1  0  0  0
 47 48  2  0  0  0
 48 49  1  0  0  0
 49 50  2  0  0  0
 28 29  2  0  0  0
 28 30  1  0  0  0
 30 32  1  0  0  0
 32 33  1  0  0  0
 32 41  1  0  0  0
 33 34  1  0  0  0
 33 35  1  0  0  0
 35 36  1  0  0  0
 36 37  2  0  0  0
 36 41  1  0  0  0
 37 38  1  0  0  0
 38 39  2  0  0  0
 39 40  1  0  0  0
 40 41  2  0  0  0
 19 20  1  0  0  0
 20 21  2  0  0  0
 20 25  1  0  0  0
 21 22  1  0  0  0
 22 23  2  0  0  0
 23 24  1  0  0  0
 24 25  2  0  0  0
 13 14  1  0  0  0
  2  3  1  0  0  0
 30 31  1  0  0  0
 34 42  1  0  0  0
M  END
> <minimizedAffinity>
-10.19939

$$$$
1K6T_XN1_B_509


 50 54  0  0  0  0  0  0  0  0999 V2000
    6.9217    0.9330   10.7067 C   0  0  0  0  0  0  0  0  0  0  0  0
    8.2770    0.9409   11.0743 O   0  0  0  0  0  0  0  0  0  0  0  0
    8.3968    1.5026   11.8560 H   0  0  0  0  0  0  0  0  0  0  0  0
    6.8764    2.4040   10.4831 C   0  0  0  0  0  0  0  0  0  0  0  0
    4.8567    4.3757    7.2775 N   0  0  0  0  0  0  0  0  0  0  0  0
    4.0574    3.9433    8.4933 C   0  0  0  0  0  0  0  0  0  0  0  0
    4.8300    3.7631    9.7974 C   0  0  0  0  0  0  0  0  0  0  0  0
    5.9232    2.7407    9.3909 N   0  0  0  0  0  0  0  0  0  0  0  0
    6.7642    3.0631    8.1930 C   0  0  0  0  0  0  0  0  0  0  0  0
    5.8596    3.3927    7.0136 C   0  0  0  0  0  0  0  0  0  0  0  0
    3.8293    3.3275   10.8143 C   0  0  0  0  0  0  0  0  0  0  0  0
    3.6824    3.9987   11.8543 O   0  0  0  0  0  0  0  0  0  0  0  0
    3.1295    2.2174   10.5476 N   0  0  0  0  0  0  0  0  0  0  0  0
    3.3544    1.7889    9.6902 H   0  0  0  0  0  0  0  0  0  0  0  0
    2.0861    1.5321   11.3144 C   0  0  0  0  0  0  0  0  0  0  0  0
    1.4665    0.4191   10.4316 C   0  0  0  0  0  0  0  0  0  0  0  0
    1.0227    2.3764   11.6644 C   0  0  0  0  0  0  0  0  0  0  0  0
    2.5801    0.8522   12.5447 C   0  0  0  0  0  0  0  0  0  0  0  0
    4.0290    4.5752    6.0733 C   0  0  0  0  0  0  0  0  0  0  0  0
    2.6517    5.2243    6.2305 C   0  0  0  0  0  0  0  0  0  0  0  0
    2.4796    6.5715    6.7060 C   0  0  0  0  0  0  0  0  0  0  0  0
    1.1884    7.2257    6.8748 N   0  0  0  0  0  0  0  0  0  0  0  0
    0.0581    6.3916    6.5159 C   0  0  0  0  0  0  0  0  0  0  0  0
    0.1623    5.0412    6.0346 C   0  0  0  0  0  0  0  0  0  0  0  0
    1.4831    4.4551    5.8940 C   0  0  0  0  0  0  0  0  0  0  0  0
    6.1907    0.2835   11.8805 C   0  0  0  0  0  0  0  0  0  0  0  0
    6.8001   -0.9169   12.6336 C   0  0  0  0  0  0  0  0  0  0  0  0
    5.7920   -2.1108   12.7597 C   0  0  0  0  0  0  0  0  0  0  0  0
    5.6477   -3.0285   11.8718 O   0  0  0  0  0  0  0  0  0  0  0  0
    5.0960   -2.0381   13.8735 N   0  0  0  0  0  0  0  0  0  0  0  0
    5.2925   -1.2959   14.4897 H   0  0  0  0  0  0  0  0  0  0  0  0
    4.0590   -2.9768   14.2555 C   0  0  0  0  0  0  0  0  0  0  0  0
    2.8162   -2.2686   14.7590 C   0  0  0  0  0  0  0  0  0  0  0  0
    3.1511   -1.1280   15.5315 O   0  0  0  0  0  0  0  0  0  0  0  0
    2.0449   -3.3219   15.5069 C   0  0  0  0  0  0  0  0  0  0  0  0
    3.0167   -4.2205   16.2251 C   0  0  0  0  0  0  0  0  0  0  0  0
    3.0106   -5.0930   17.3109 C   0  0  0  0  0  0  0  0  0  0  0  0
    4.2337   -5.7667   17.6457 C   0  0  0  0  0  0  0  0  0  0  0  0
    5.4498   -5.5504   16.8810 C   0  0  0  0  0  0  0  0  0  0  0  0
    5.4729   -4.6712   15.7812 C   0  0  0  0  0  0  0  0  0  0  0  0
    4.3405   -3.9777   15.3846 C   0  0  0  0  0  0  0  0  0  0  0  0
    3.7054   -1.3964   16.2809 H   0  0  0  0  0  0  0  0  0  0  0  0
    7.2144   -0.4801   14.1151 C   0  0  0  0  0  0  0  0  0  0  0  0
    7.6092    0.9363   14.5085 C   0  0  0  0  0  0  0  0  0  0  0  0
    8.2864   -1.4166   14.6906 C   0  0  0  0  0  0  0  0  0  0  0  0
    9.6656   -1.4205   14.1766 C   0  0  0  0  0  0  0  0  0  0  0  0
   10.6312   -2.3254   14.7382 C   0  0  0  0  0  0  0  0  0  0  0  0
   10.2213   -3.2286   15.8202 C   0  0  0  0  0  0  0  0  0  0  0  0
    8.8565   -3.2123   16.3205 C   0  0  0  0  0  0  0  0  0  0  0  0
    7.9033   -2.3128   15.7569 C   0  0  0  0  0  0  0  0  0  0  0  0
  5  6  1  0  0  0
  5 10  1  0  0  0
  5 19  1  0  0  0
  6  7  1  0  0  0
  7 11  1  0  0  0
  7  8  1  0  0  0
 11 12  2  0  0  0
 11 13  1  0  0  0
 13 15  1  0  0  0
 15 16  1  0  0  0
 15 17  1  0  0  0
 15 18  1  0  0  0
  8  9  1  0  0  0
  8  4  1  0  0  0
  9 10  1  0  0  0
  4  1  1  0  0  0
  1  2  1  0  0  0
  1 26  1  0  0  0
 26 27  1  0  0  0
 27 43  1  0  0  0
 27 28  1  0  0  0
 43 45  1  0  0  0
 43 44  1  0  0  0
 45 46  2  0  0  0
 45 50  1  0  0  0
 46 47  1  0  0  0
 47 48  2  0  0  0
 48 49  1  0  0  0
 49 50  2  0  0  0
 28 29  2  0  0  0
 28 30  1  0  0  0
 30 32  1  0  0  0
 32 33  1  0  0  0
 32 41  1  0  0  0
 33 34  1  0  0  0
 33 35  1  0  0  0
 35 36  1  0  0  0
 36 37  2  0  0  0
 36 41  1  0  0  0
 37 38  1  0  0  0
 38 39  2  0  0  0
 39 40  1  0  0  0
 40 41  2  0  0  0
 19 20  1  0  0  0
 20 21  2  0  0  0
 20 25  1  0  0  0
 21 22  1  0  0  0
 22 23  2  0  0  0
 23 24  1  0  0  0
 24 25  2  0  0  0
 13 14  1  0  0  0
  2  3  1  0  0  0
 30 31  1  0  0  0
 34 42  1  0  0  0
M  END
> <minimizedAffinity>
-10.05977

$$$$
1K6T_XN1_B_509


 50 54  0  0  0  0  0  0  0  0999 V2000
    4.8623   -3.5086   16.6218 C   0  0  0  0  0  0  0  0  0  0  0  0
    5.9685   -4.0035   17.3315 O   0  0  0  0  0  0  0  0  0  0  0  0
    5.9578   -3.6499   18.2346 H   0  0  0  0  0  0  0  0  0  0  0  0
    5.2740   -2.0875   16.7853 C   0  0  0  0  0  0  0  0  0  0  0  0
    4.6385   -1.0352   12.6949 N   0  0  0  0  0  0  0  0  0  0  0  0
    6.0614   -1.1832   13.2023 C   0  0  0  0  0  0  0  0  0  0  0  0
    6.2655   -2.0593   14.4355 C   0  0  0  0  0  0  0  0  0  0  0  0
    5.3157   -1.3971   15.4675 N   0  0  0  0  0  0  0  0  0  0  0  0
    3.8873   -1.1906   15.0637 C   0  0  0  0  0  0  0  0  0  0  0  0
    3.8394   -0.4585   13.7296 C   0  0  0  0  0  0  0  0  0  0  0  0
    7.7275   -2.0250   14.7300 C   0  0  0  0  0  0  0  0  0  0  0  0
    8.2809   -0.9304   14.9521 O   0  0  0  0  0  0  0  0  0  0  0  0
    8.3772   -3.1959   14.7405 N   0  0  0  0  0  0  0  0  0  0  0  0
    7.8126   -3.9781   14.5439 H   0  0  0  0  0  0  0  0  0  0  0  0
    9.7851   -3.5110   14.9946 C   0  0  0  0  0  0  0  0  0  0  0  0
   10.1292   -4.8547   14.3032 C   0  0  0  0  0  0  0  0  0  0  0  0
   10.0647   -3.7009   16.3555 C   0  0  0  0  0  0  0  0  0  0  0  0
   10.7431   -2.5104   14.4460 C   0  0  0  0  0  0  0  0  0  0  0  0
    4.5348   -0.2154   11.4734 C   0  0  0  0  0  0  0  0  0  0  0  0
    3.4015    0.8085   11.3722 C   0  0  0  0  0  0  0  0  0  0  0  0
    3.5914    2.2055   11.6602 C   0  0  0  0  0  0  0  0  0  0  0  0
    2.5404    3.2119   11.5812 N   0  0  0  0  0  0  0  0  0  0  0  0
    1.2522    2.6829   11.1779 C   0  0  0  0  0  0  0  0  0  0  0  0
    0.9974    1.3009   10.8759 C   0  0  0  0  0  0  0  0  0  0  0  0
    2.0939    0.3550   10.9784 C   0  0  0  0  0  0  0  0  0  0  0  0
    3.6382   -4.0706   17.3426 C   0  0  0  0  0  0  0  0  0  0  0  0
    3.4437   -5.5909   17.5169 C   0  0  0  0  0  0  0  0  0  0  0  0
    4.5581   -6.2317   18.4141 C   0  0  0  0  0  0  0  0  0  0  0  0
    4.5507   -6.2080   19.6989 O   0  0  0  0  0  0  0  0  0  0  0  0
    5.5122   -6.7705   17.6861 N   0  0  0  0  0  0  0  0  0  0  0  0
    5.4148   -6.7399   16.7069 H   0  0  0  0  0  0  0  0  0  0  0  0
    6.6973   -7.4063   18.2276 C   0  0  0  0  0  0  0  0  0  0  0  0
    7.9672   -6.7240   17.7571 C   0  0  0  0  0  0  0  0  0  0  0  0
    7.8590   -6.3112   16.4052 O   0  0  0  0  0  0  0  0  0  0  0  0
    9.0635   -7.7211   18.0173 C   0  0  0  0  0  0  0  0  0  0  0  0
    8.5385   -9.1058   17.7435 C   0  0  0  0  0  0  0  0  0  0  0  0
    9.0504  -10.3641   17.4355 C   0  0  0  0  0  0  0  0  0  0  0  0
    8.1245  -11.4463   17.2532 C   0  0  0  0  0  0  0  0  0  0  0  0
    6.6916  -11.2452   17.3825 C   0  0  0  0  0  0  0  0  0  0  0  0
    6.1580   -9.9794   17.6926 C   0  0  0  0  0  0  0  0  0  0  0  0
    6.9749   -8.8768   17.8860 C   0  0  0  0  0  0  0  0  0  0  0  0
    7.6706   -7.0811   15.8461 H   0  0  0  0  0  0  0  0  0  0  0  0
    3.4980   -6.3162   16.0928 C   0  0  0  0  0  0  0  0  0  0  0  0
    2.7527   -5.8297   14.8581 C   0  0  0  0  0  0  0  0  0  0  0  0
    3.2086   -7.8184   16.2237 C   0  0  0  0  0  0  0  0  0  0  0  0
    2.4031   -8.3565   17.3318 C   0  0  0  0  0  0  0  0  0  0  0  0
    2.1705   -9.7724   17.4197 C   0  0  0  0  0  0  0  0  0  0  0  0
    2.7406  -10.6565   16.3960 C   0  0  0  0  0  0  0  0  0  0  0  0
    3.5320  -10.1115   15.3052 C   0  0  0  0  0  0  0  0  0  0  0  0
    3.7600   -8.7055   15.2256 C   0  0  0  0  0  0  0  0  0  0  0  0
  5  6  1  0  0  0
  5 10  1  0  0  0
  5 19  1  0  0  0
  6  7  1  0  0  0
  7 11  1  0  0  0
  7  8  1  0  0  0
 11 12  2  0  0  0
 11 13  1  0  0  0
 13 15  1  0  0  0
 15 16  1  0  0  0
 15 17  1  0  0  0
 15 18  1  0  0  0
  8  9  1  0  0  0
  8  4  1  0  0  0
  9 10  1  0  0  0
  4  1  1  0  0  0
  1  2  1  0  0  0
  1 26  1  0  0  0
 26 27  1  0  0  0
 27 43  1  0  0  0
 27 28  1  0  0  0
 43 45  1  0  0  0
 43 44  1  0  0  0
 45 46  2  0  0  0
 45 50  1  0  0  0
 46 47  1  0  0  0
 47 48  2  0  0  0
 48 49  1  0  0  0
 49 50  2  0  0  0
 28 29  2  0  0  0
 28 30  1  0  0  0
 30 32  1  0  0  0
 32 33  1  0  0  0
 32 41  1  0  0  0
 33 34  1  0  0  0
 33 35  1  0  0  0
 35 36  1  0  0  0
 36 37  2  0  0  0
 36 41  1  0  0  0
 37 38  1  0  0  0
 38 39  2  0  0  0
 39 40  1  0  0  0
 40 41  2  0  0  0
 19 20  1  0  0  0
 20 21  2  0  0  0
 20 25  1  0  0  0
 21 22  1  0  0  0
 22 23  2  0  0  0
 23 24  1  0  0  0
 24 25  2  0  0  0
 13 14  1  0  0  0
  2  3  1  0  0  0
 30 31  1  0  0  0
 34 42  1  0  0  0
M  END
> <minimizedAffinity>
-10.02647

$$$$
1K6T_XN1_B_509


 50 54  0  0  0  0  0  0  0  0999 V2000
    6.2864   -1.3702   15.3666 C   0  0  0  0  0  0  0  0  0  0  0  0
    7.6209   -1.8000   15.4469 O   0  0  0  0  0  0  0  0  0  0  0  0
    7.6558   -2.7652   15.3570 H   0  0  0  0  0  0  0  0  0  0  0  0
    5.8604   -2.1651   16.5509 C   0  0  0  0  0  0  0  0  0  0  0  0
    3.6753   -5.8202   16.2220 N   0  0  0  0  0  0  0  0  0  0  0  0
    5.1723   -5.8793   16.4659 C   0  0  0  0  0  0  0  0  0  0  0  0
    5.8144   -4.6532   17.1098 C   0  0  0  0  0  0  0  0  0  0  0  0
    5.3990   -3.5184   16.1376 N   0  0  0  0  0  0  0  0  0  0  0  0
    3.9419   -3.3781   15.8164 C   0  0  0  0  0  0  0  0  0  0  0  0
    3.3943   -4.7211   15.3533 C   0  0  0  0  0  0  0  0  0  0  0  0
    7.2700   -4.9597   17.2226 C   0  0  0  0  0  0  0  0  0  0  0  0
    7.7306   -5.3465   18.3143 O   0  0  0  0  0  0  0  0  0  0  0  0
    8.0159   -4.7997   16.1220 N   0  0  0  0  0  0  0  0  0  0  0  0
    7.5180   -4.4847   15.3333 H   0  0  0  0  0  0  0  0  0  0  0  0
    9.4468   -5.0137   15.8919 C   0  0  0  0  0  0  0  0  0  0  0  0
    9.7667   -6.5163   16.0965 C   0  0  0  0  0  0  0  0  0  0  0  0
   10.2556   -4.3246   16.8069 C   0  0  0  0  0  0  0  0  0  0  0  0
    9.8992   -4.6824   14.5115 C   0  0  0  0  0  0  0  0  0  0  0  0
    3.1268   -7.0614   15.6445 C   0  0  0  0  0  0  0  0  0  0  0  0
    3.0858   -8.3192   16.5160 C   0  0  0  0  0  0  0  0  0  0  0  0
    2.5676   -8.3152   17.8584 C   0  0  0  0  0  0  0  0  0  0  0  0
    2.5143   -9.4871   18.7231 N   0  0  0  0  0  0  0  0  0  0  0  0
    3.0376  -10.6919   18.1093 C   0  0  0  0  0  0  0  0  0  0  0  0
    3.5675  -10.7625   16.7751 C   0  0  0  0  0  0  0  0  0  0  0  0
    3.5898   -9.5526   15.9728 C   0  0  0  0  0  0  0  0  0  0  0  0
    5.8300   -1.7374   13.9556 C   0  0  0  0  0  0  0  0  0  0  0  0
    5.5164   -0.6475   12.9101 C   0  0  0  0  0  0  0  0  0  0  0  0
    6.8008    0.1329   12.4643 C   0  0  0  0  0  0  0  0  0  0  0  0
    7.9919   -0.1624   12.8459 O   0  0  0  0  0  0  0  0  0  0  0  0
    6.5019    1.1418   11.6748 N   0  0  0  0  0  0  0  0  0  0  0  0
    5.5555    1.2744   11.4382 H   0  0  0  0  0  0  0  0  0  0  0  0
    7.4714    2.0717   11.1294 C   0  0  0  0  0  0  0  0  0  0  0  0
    7.2969    3.4660   11.6996 C   0  0  0  0  0  0  0  0  0  0  0  0
    5.9259    3.7858   11.8667 O   0  0  0  0  0  0  0  0  0  0  0  0
    8.0352    4.3696   10.7499 C   0  0  0  0  0  0  0  0  0  0  0  0
    7.8502    3.8573    9.3459 C   0  0  0  0  0  0  0  0  0  0  0  0
    7.9229    4.3525    8.0460 C   0  0  0  0  0  0  0  0  0  0  0  0
    7.6535    3.4509    6.9614 C   0  0  0  0  0  0  0  0  0  0  0  0
    7.3121    2.0595    7.2018 C   0  0  0  0  0  0  0  0  0  0  0  0
    7.2336    1.5435    8.5098 C   0  0  0  0  0  0  0  0  0  0  0  0
    7.4774    2.3392    9.6180 C   0  0  0  0  0  0  0  0  0  0  0  0
    5.4717    3.7187   11.0122 H   0  0  0  0  0  0  0  0  0  0  0  0
    4.4946    0.4196   13.5219 C   0  0  0  0  0  0  0  0  0  0  0  0
    4.2041    0.5683   15.0086 C   0  0  0  0  0  0  0  0  0  0  0  0
    3.1369    0.3611   12.8072 C   0  0  0  0  0  0  0  0  0  0  0  0
    3.0165    0.5853   11.3575 C   0  0  0  0  0  0  0  0  0  0  0  0
    1.7217    0.5339   10.7351 C   0  0  0  0  0  0  0  0  0  0  0  0
    0.5410    0.2539   11.5610 C   0  0  0  0  0  0  0  0  0  0  0  0
    0.6744    0.0315   12.9913 C   0  0  0  0  0  0  0  0  0  0  0  0
    1.9625    0.0859   13.6022 C   0  0  0  0  0  0  0  0  0  0  0  0
  5  6  1  0  0  0
  5 10  1  0  0  0
  5 19  1  0  0  0
  6  7  1  0  0  0
  7 11  1  0  0  0
  7  8  1  0  0  0
 11 12  2  0  0  0
 11 13  1  0  0  0
 13 15  1  0  0  0
 15 16  1  0  0  0
 15 17  1  0  0  0
 15 18  1  0  0  0
  8  9  1  0  0  0
  8  4  1  0  0  0
  9 10  1  0  0  0
  4  1  1  0  0  0
  1  2  1  0  0  0
  1 26  1  0  0  0
 26 27  1  0  0  0
 27 43  1  0  0  0
 27 28  1  0  0  0
 43 45  1  0  0  0
 43 44  1  0  0  0
 45 46  2  0  0  0
 45 50  1  0  0  0
 46 47  1  0  0  0
 47 48  2  0  0  0
 48 49  1  0  0  0
 49 50  2  0  0  0
 28 29  2  0  0  0
 28 30  1  0  0  0
 30 32  1  0  0  0
 32 33  1  0  0  0
 32 41  1  0  0  0
 33 34  1  0  0  0
 33 35  1  0  0  0
 35 36  1  0  0  0
 36 37  2  0  0  0
 36 41  1  0  0  0
 37 38  1  0  0  0
 38 39  2  0  0  0
 39 40  1  0  0  0
 40 41  2  0  0  0
 19 20  1  0  0  0
 20 21  2  0  0  0
 20 25  1  0  0  0
 21 22  1  0  0  0
 22 23  2  0  0  0
 23 24  1  0  0  0
 24 25  2  0  0  0
 13 14  1  0  0  0
  2  3  1  0  0  0
 30 31  1  0  0  0
 34 42  1  0  0  0
M  END
> <minimizedAffinity>
-9.94651

$$$$
1K6T_XN1_B_509


 50 54  0  0  0  0  0  0  0  0999 V2000
    4.6986   -0.4441   14.8624 C   0  0  0  0  0  0  0  0  0  0  0  0
    4.8274    0.2931   16.0507 O   0  0  0  0  0  0  0  0  0  0  0  0
    3.9619    0.6489   16.3059 H   0  0  0  0  0  0  0  0  0  0  0  0
    4.2016    0.7220   14.0819 C   0  0  0  0  0  0  0  0  0  0  0  0
    6.9935    1.5304   10.9523 N   0  0  0  0  0  0  0  0  0  0  0  0
    5.5479    1.9578   10.7749 C   0  0  0  0  0  0  0  0  0  0  0  0
    4.7299    2.1659   12.0469 C   0  0  0  0  0  0  0  0  0  0  0  0
    4.8780    0.7956   12.7582 N   0  0  0  0  0  0  0  0  0  0  0  0
    6.2655    0.2714   12.9733 C   0  0  0  0  0  0  0  0  0  0  0  0
    7.0218    0.2849   11.6520 C   0  0  0  0  0  0  0  0  0  0  0  0
    3.3628    2.5609   11.5995 C   0  0  0  0  0  0  0  0  0  0  0  0
    3.0789    3.7702   11.4961 O   0  0  0  0  0  0  0  0  0  0  0  0
    2.4991    1.5743   11.3276 N   0  0  0  0  0  0  0  0  0  0  0  0
    2.8604    0.6678   11.4576 H   0  0  0  0  0  0  0  0  0  0  0  0
    1.1081    1.6144   10.8695 C   0  0  0  0  0  0  0  0  0  0  0  0
    0.2436    2.3020   11.9565 C   0  0  0  0  0  0  0  0  0  0  0  0
    0.5545    0.3381   10.6941 C   0  0  0  0  0  0  0  0  0  0  0  0
    0.8991    2.4007    9.6213 C   0  0  0  0  0  0  0  0  0  0  0  0
    7.7260    1.4004    9.6789 C   0  0  0  0  0  0  0  0  0  0  0  0
    7.6299    2.5379    8.6591 C   0  0  0  0  0  0  0  0  0  0  0  0
    7.9832    3.8960    8.9775 C   0  0  0  0  0  0  0  0  0  0  0  0
    7.9023    5.0085    8.0398 N   0  0  0  0  0  0  0  0  0  0  0  0
    7.4258    4.6313    6.7235 C   0  0  0  0  0  0  0  0  0  0  0  0
    7.0582    3.2951    6.3421 C   0  0  0  0  0  0  0  0  0  0  0  0
    7.1633    2.2378    7.3314 C   0  0  0  0  0  0  0  0  0  0  0  0
    3.7830   -1.6156   15.2133 C   0  0  0  0  0  0  0  0  0  0  0  0
    4.2439   -2.7263   16.1793 C   0  0  0  0  0  0  0  0  0  0  0  0
    5.7544   -2.5804   16.5723 C   0  0  0  0  0  0  0  0  0  0  0  0
    6.2178   -1.6397   17.3152 O   0  0  0  0  0  0  0  0  0  0  0  0
    6.4883   -3.5245   16.0241 N   0  0  0  0  0  0  0  0  0  0  0  0
    6.0297   -4.2025   15.4771 H   0  0  0  0  0  0  0  0  0  0  0  0
    7.9266   -3.6343   16.1704 C   0  0  0  0  0  0  0  0  0  0  0  0
    8.6286   -3.6650   14.8266 C   0  0  0  0  0  0  0  0  0  0  0  0
    7.8877   -4.4113   13.8758 O   0  0  0  0  0  0  0  0  0  0  0  0
    9.9993   -4.2135   15.1166 C   0  0  0  0  0  0  0  0  0  0  0  0
    9.8865   -5.2688   16.1850 C   0  0  0  0  0  0  0  0  0  0  0  0
   10.6187   -6.3629   16.6398 C   0  0  0  0  0  0  0  0  0  0  0  0
   10.0955   -7.1165   17.7445 C   0  0  0  0  0  0  0  0  0  0  0  0
    8.8377   -6.7576   18.3764 C   0  0  0  0  0  0  0  0  0  0  0  0
    8.0850   -5.6550   17.9281 C   0  0  0  0  0  0  0  0  0  0  0  0
    8.5113   -4.8698   16.8688 C   0  0  0  0  0  0  0  0  0  0  0  0
    7.7599   -5.3155   14.2030 H   0  0  0  0  0  0  0  0  0  0  0  0
    4.0630   -4.1588   15.4920 C   0  0  0  0  0  0  0  0  0  0  0  0
    2.9394   -4.5063   14.5258 C   0  0  0  0  0  0  0  0  0  0  0  0
    4.1178   -5.2852   16.5340 C   0  0  0  0  0  0  0  0  0  0  0  0
    4.6900   -6.6038   16.2171 C   0  0  0  0  0  0  0  0  0  0  0  0
    4.7067   -7.6318   17.2218 C   0  0  0  0  0  0  0  0  0  0  0  0
    4.1537   -7.3432   18.5505 C   0  0  0  0  0  0  0  0  0  0  0  0
    3.5942   -6.0357   18.8511 C   0  0  0  0  0  0  0  0  0  0  0  0
    3.5794   -5.0211   17.8483 C   0  0  0  0  0  0  0  0  0  0  0  0
  5  6  1  0  0  0
  5 10  1  0  0  0
  5 19  1  0  0  0
  6  7  1  0  0  0
  7 11  1  0  0  0
  7  8  1  0  0  0
 11 12  2  0  0  0
 11 13  1  0  0  0
 13 15  1  0  0  0
 15 16  1  0  0  0
 15 17  1  0  0  0
 15 18  1  0  0  0
  8  9  1  0  0  0
  8  4  1  0  0  0
  9 10  1  0  0  0
  4  1  1  0  0  0
  1  2  1  0  0  0
  1 26  1  0  0  0
 26 27  1  0  0  0
 27 43  1  0  0  0
 27 28  1  0  0  0
 43 45  1  0  0  0
 43 44  1  0  0  0
 45 46  2  0  0  0
 45 50  1  0  0  0
 46 47  1  0  0  0
 47 48  2  0  0  0
 48 49  1  0  0  0
 49 50  2  0  0  0
 28 29  2  0  0  0
 28 30  1  0  0  0
 30 32  1  0  0  0
 32 33  1  0  0  0
 32 41  1  0  0  0
 33 34  1  0  0  0
 33 35  1  0  0  0
 35 36  1  0  0  0
 36 37  2  0  0  0
 36 41  1  0  0  0
 37 38  1  0  0  0
 38 39  2  0  0  0
 39 40  1  0  0  0
 40 41  2  0  0  0
 19 20  1  0  0  0
 20 21  2  0  0  0
 20 25  1  0  0  0
 21 22  1  0  0  0
 22 23  2  0  0  0
 23 24  1  0  0  0
 24 25  2  0  0  0
 13 14  1  0  0  0
  2  3  1  0  0  0
 30 31  1  0  0  0
 34 42  1  0  0  0
M  END
> <minimizedAffinity>
-9.72301

$$$$
1K6T_XN1_B_509


 50 54  0  0  0  0  0  0  0  0999 V2000
    6.6088   -0.1332   14.2322 C   0  0  0  0  0  0  0  0  0  0  0  0
    5.9885   -0.7022   13.1080 O   0  0  0  0  0  0  0  0  0  0  0  0
    6.5083   -0.4994   12.3146 H   0  0  0  0  0  0  0  0  0  0  0  0
    6.5043    1.2547   13.7046 C   0  0  0  0  0  0  0  0  0  0  0  0
    7.1726    2.3137    9.6211 N   0  0  0  0  0  0  0  0  0  0  0  0
    5.7570    2.0141   10.0795 C   0  0  0  0  0  0  0  0  0  0  0  0
    5.4646    2.1825   11.5683 C   0  0  0  0  0  0  0  0  0  0  0  0
    6.5250    1.2546   12.2164 N   0  0  0  0  0  0  0  0  0  0  0  0
    7.9571    1.4558   11.8230 C   0  0  0  0  0  0  0  0  0  0  0  0
    8.0719    1.4388   10.3049 C   0  0  0  0  0  0  0  0  0  0  0  0
    4.0303    1.8164   11.7522 C   0  0  0  0  0  0  0  0  0  0  0  0
    3.6741    1.2487   12.8032 O   0  0  0  0  0  0  0  0  0  0  0  0
    3.1877    2.1250   10.7582 N   0  0  0  0  0  0  0  0  0  0  0  0
    3.6103    2.5681    9.9873 H   0  0  0  0  0  0  0  0  0  0  0  0
    1.7441    1.9154   10.6226 C   0  0  0  0  0  0  0  0  0  0  0  0
    1.2551    2.6239    9.3340 C   0  0  0  0  0  0  0  0  0  0  0  0
    1.0092    2.4849   11.6723 C   0  0  0  0  0  0  0  0  0  0  0  0
    1.3456    0.4867   10.4815 C   0  0  0  0  0  0  0  0  0  0  0  0
    7.3579    2.1756    8.1646 C   0  0  0  0  0  0  0  0  0  0  0  0
    7.8894    3.3754    7.3766 C   0  0  0  0  0  0  0  0  0  0  0  0
    8.2837    4.6056    8.0105 C   0  0  0  0  0  0  0  0  0  0  0  0
    8.7897    5.7723    7.2989 N   0  0  0  0  0  0  0  0  0  0  0  0
    8.8685    5.5933    5.8623 C   0  0  0  0  0  0  0  0  0  0  0  0
    8.4918    4.3918    5.1691 C   0  0  0  0  0  0  0  0  0  0  0  0
    7.9941    3.2704    5.9453 C   0  0  0  0  0  0  0  0  0  0  0  0
    7.9576   -0.8411   14.3484 C   0  0  0  0  0  0  0  0  0  0  0  0
    8.0416   -2.3583   14.6138 C   0  0  0  0  0  0  0  0  0  0  0  0
    6.8217   -2.8824   15.4474 C   0  0  0  0  0  0  0  0  0  0  0  0
    6.6899   -2.7144   16.7146 O   0  0  0  0  0  0  0  0  0  0  0  0
    5.9673   -3.5374   14.6915 N   0  0  0  0  0  0  0  0  0  0  0  0
    6.1615   -3.6005   13.7284 H   0  0  0  0  0  0  0  0  0  0  0  0
    4.7591   -4.1726   15.1802 C   0  0  0  0  0  0  0  0  0  0  0  0
    3.6643   -3.1610   15.4589 C   0  0  0  0  0  0  0  0  0  0  0  0
    4.1937   -1.9705   16.0177 O   0  0  0  0  0  0  0  0  0  0  0  0
    2.6851   -3.8821   16.3447 C   0  0  0  0  0  0  0  0  0  0  0  0
    3.4463   -4.7822   17.2820 C   0  0  0  0  0  0  0  0  0  0  0  0
    3.2440   -5.4029   18.5124 C   0  0  0  0  0  0  0  0  0  0  0  0
    4.3048   -6.2097   19.0469 C   0  0  0  0  0  0  0  0  0  0  0  0
    5.5588   -6.3793   18.3333 C   0  0  0  0  0  0  0  0  0  0  0  0
    5.7794   -5.7580   17.0889 C   0  0  0  0  0  0  0  0  0  0  0  0
    4.8129   -4.9613   16.4958 C   0  0  0  0  0  0  0  0  0  0  0  0
    4.6665   -2.1808   16.8382 H   0  0  0  0  0  0  0  0  0  0  0  0
    9.3683   -2.6965   15.4401 C   0  0  0  0  0  0  0  0  0  0  0  0
   10.7700   -2.2900   15.0079 C   0  0  0  0  0  0  0  0  0  0  0  0
    9.4301   -4.1866   15.8052 C   0  0  0  0  0  0  0  0  0  0  0  0
    9.5193   -4.6364   17.2038 C   0  0  0  0  0  0  0  0  0  0  0  0
    9.5887   -6.0423   17.4956 C   0  0  0  0  0  0  0  0  0  0  0  0
    9.5653   -7.0053   16.3881 C   0  0  0  0  0  0  0  0  0  0  0  0
    9.4740   -6.5476   15.0114 C   0  0  0  0  0  0  0  0  0  0  0  0
    9.4074   -5.1507   14.7295 C   0  0  0  0  0  0  0  0  0  0  0  0
  5  6  1  0  0  0
  5 10  1  0  0  0
  5 19  1  0  0  0
  6  7  1  0  0  0
  7 11  1  0  0  0
  7  8  1  0  0  0
 11 12  2  0  0  0
 11 13  1  0  0  0
 13 15  1  0  0  0
 15 16  1  0  0  0
 15 17  1  0  0  0
 15 18  1  0  0  0
  8  9  1  0  0  0
  8  4  1  0  0  0
  9 10  1  0  0  0
  4  1  1  0  0  0
  1  2  1  0  0  0
  1 26  1  0  0  0
 26 27  1  0  0  0
 27 43  1  0  0  0
 27 28  1  0  0  0
 43 45  1  0  0  0
 43 44  1  0  0  0
 45 46  2  0  0  0
 45 50  1  0  0  0
 46 47  1  0  0  0
 47 48  2  0  0  0
 48 49  1  0  0  0
 49 50  2  0  0  0
 28 29  2  0  0  0
 28 30  1  0  0  0
 30 32  1  0  0  0
 32 33  1  0  0  0
 32 41  1  0  0  0
 33 34  1  0  0  0
 33 35  1  0  0  0
 35 36  1  0  0  0
 36 37  2  0  0  0
 36 41  1  0  0  0
 37 38  1  0  0  0
 38 39  2  0  0  0
 39 40  1  0  0  0
 40 41  2  0  0  0
 19 20  1  0  0  0
 20 21  2  0  0  0
 20 25  1  0  0  0
 21 22  1  0  0  0
 22 23  2  0  0  0
 23 24  1  0  0  0
 24 25  2  0  0  0
 13 14  1  0  0  0
  2  3  1  0  0  0
 30 31  1  0  0  0
 34 42  1  0  0  0
M  END
> <minimizedAffinity>
-9.72252

$$$$
