4ATT_HNV_A_201


 27 28  0  0  0  0  0  0  0  0999 V2000
  -14.0613    1.6241  -11.5893 C   0  0  0  0  0  0  0  0  0  0  0  0
  -12.7030    1.2593  -11.5767 O   0  0  0  0  0  0  0  0  0  0  0  0
  -14.8405    0.7271  -10.6201 C   0  0  0  0  0  0  0  0  0  0  0  0
  -16.2321    1.0757  -10.6431 O   0  0  0  0  0  0  0  0  0  0  0  0
  -14.6185   -0.6464  -10.9249 C   0  0  0  0  0  0  0  0  0  0  0  0
  -15.2985   -1.5187   -9.9290 O   0  0  0  0  0  0  0  0  0  0  0  0
  -13.2464   -1.0234  -11.0176 C   0  0  0  0  0  0  0  0  0  0  0  0
  -12.5708   -0.9495   -9.7614 O   0  0  0  0  0  0  0  0  0  0  0  0
  -12.4855   -0.0794  -11.9345 C   0  0  0  0  0  0  0  0  0  0  0  0
  -16.5840    0.9430  -11.5372 H   0  0  0  0  0  0  0  0  0  0  0  0
  -14.9045   -1.3784   -9.0538 H   0  0  0  0  0  0  0  0  0  0  0  0
  -12.5710   -0.0316   -9.4477 H   0  0  0  0  0  0  0  0  0  0  0  0
  -14.0883    3.3044   -9.8630 O   0  0  0  0  0  0  0  0  0  0  0  0
  -14.1228    3.0608  -11.2239 C   0  0  0  0  0  0  0  0  0  0  0  0
  -14.1322    4.2603   -9.7044 H   0  0  0  0  0  0  0  0  0  0  0  0
  -12.8166   -0.3084  -13.2385 O   0  0  0  0  0  0  0  0  0  0  0  0
  -11.7695   -0.2347  -14.1141 C   0  0  0  0  0  0  0  0  0  0  0  0
  -11.6479    1.0420  -14.8488 C   0  0  0  0  0  0  0  0  0  0  0  0
  -11.5346    2.0703  -15.4668 C   0  0  0  0  0  0  0  0  0  0  0  0
  -11.3860    3.3154  -16.2481 C   0  0  0  0  0  0  0  0  0  0  0  0
  -10.7471    4.4198  -15.7079 C   0  0  0  0  0  0  0  0  0  0  0  0
  -10.6103    5.5726  -16.4699 C   0  0  0  0  0  0  0  0  0  0  0  0
  -11.1196    5.5922  -17.7647 C   0  0  0  0  0  0  0  0  0  0  0  0
  -11.7539    4.4837  -18.2907 C   0  0  0  0  0  0  0  0  0  0  0  0
  -11.8869    3.3314  -17.5412 C   0  0  0  0  0  0  0  0  0  0  0  0
  -11.0078    6.7189  -18.5490 O   0  0  0  0  0  0  0  0  0  0  0  0
  -11.7094    6.7823  -19.7372 C   0  0  0  0  0  0  0  0  0  0  0  0
 13 14  1  0  0  0
 14  1  1  0  0  0
  1  2  1  0  0  0
  1  3  1  0  0  0
  2  9  1  0  0  0
  3  4  1  0  0  0
  3  5  1  0  0  0
  5  6  1  0  0  0
  5  7  1  0  0  0
  7  8  1  0  0  0
  7  9  1  0  0  0
  9 16  1  0  0  0
 16 17  1  0  0  0
 17 18  1  0  0  0
 18 19  3  0  0  0
 19 20  1  0  0  0
 20 21  1  0  0  0
 20 25  2  0  0  0
 21 22  2  0  0  0
 22 23  1  0  0  0
 23 26  1  0  0  0
 23 24  2  0  0  0
 26 27  1  0  0  0
 24 25  1  0  0  0
 13 15  1  0  0  0
  4 10  1  0  0  0
  6 11  1  0  0  0
  8 12  1  0  0  0
M  END
> <minimizedAffinity>
-8.23598

$$$$
4ATT_HNV_A_201


 27 28  0  0  0  0  0  0  0  0999 V2000
  -14.0617    1.6189  -11.5788 C   0  0  0  0  0  0  0  0  0  0  0  0
  -12.7025    1.2595  -11.5384 O   0  0  0  0  0  0  0  0  0  0  0  0
  -14.8563    0.7219  -10.6223 C   0  0  0  0  0  0  0  0  0  0  0  0
  -16.2486    1.0649  -10.6737 O   0  0  0  0  0  0  0  0  0  0  0  0
  -14.6230   -0.6516  -10.9182 C   0  0  0  0  0  0  0  0  0  0  0  0
  -15.3191   -1.5235   -9.9330 O   0  0  0  0  0  0  0  0  0  0  0  0
  -13.2479   -1.0236  -10.9826 C   0  0  0  0  0  0  0  0  0  0  0  0
  -12.5975   -0.9430   -9.7137 O   0  0  0  0  0  0  0  0  0  0  0  0
  -12.4728   -0.0795  -11.8875 C   0  0  0  0  0  0  0  0  0  0  0  0
  -16.5822    0.9280  -11.5742 H   0  0  0  0  0  0  0  0  0  0  0  0
  -14.9429   -1.3789   -9.0507 H   0  0  0  0  0  0  0  0  0  0  0  0
  -12.6074   -0.0241   -9.4030 H   0  0  0  0  0  0  0  0  0  0  0  0
  -14.1089    3.3057   -9.8594 O   0  0  0  0  0  0  0  0  0  0  0  0
  -14.1359    3.0565  -11.2195 C   0  0  0  0  0  0  0  0  0  0  0  0
  -14.1608    4.2619   -9.7048 H   0  0  0  0  0  0  0  0  0  0  0  0
  -12.7773   -0.3139  -13.1970 O   0  0  0  0  0  0  0  0  0  0  0  0
  -12.0015    0.3666  -14.0935 C   0  0  0  0  0  0  0  0  0  0  0  0
  -12.6997    0.8286  -15.3115 C   0  0  0  0  0  0  0  0  0  0  0  0
  -13.2453    1.2078  -16.3169 C   0  0  0  0  0  0  0  0  0  0  0  0
  -13.8885    1.6685  -17.5646 C   0  0  0  0  0  0  0  0  0  0  0  0
  -13.1429    2.2654  -18.5684 C   0  0  0  0  0  0  0  0  0  0  0  0
  -13.7719    2.6771  -19.7360 C   0  0  0  0  0  0  0  0  0  0  0  0
  -15.1425    2.4793  -19.8722 C   0  0  0  0  0  0  0  0  0  0  0  0
  -15.8733    1.8825  -18.8634 C   0  0  0  0  0  0  0  0  0  0  0  0
  -15.2531    1.4639  -17.7027 C   0  0  0  0  0  0  0  0  0  0  0  0
  -15.8024    2.8790  -21.0132 O   0  0  0  0  0  0  0  0  0  0  0  0
  -15.2551    3.8825  -21.7887 C   0  0  0  0  0  0  0  0  0  0  0  0
 13 14  1  0  0  0
 14  1  1  0  0  0
  1  2  1  0  0  0
  1  3  1  0  0  0
  2  9  1  0  0  0
  3  4  1  0  0  0
  3  5  1  0  0  0
  5  6  1  0  0  0
  5  7  1  0  0  0
  7  8  1  0  0  0
  7  9  1  0  0  0
  9 16  1  0  0  0
 16 17  1  0  0  0
 17 18  1  0  0  0
 18 19  3  0  0  0
 19 20  1  0  0  0
 20 21  1  0  0  0
 20 25  2  0  0  0
 21 22  2  0  0  0
 22 23  1  0  0  0
 23 26  1  0  0  0
 23 24  2  0  0  0
 26 27  1  0  0  0
 24 25  1  0  0  0
 13 15  1  0  0  0
  4 10  1  0  0  0
  6 11  1  0  0  0
  8 12  1  0  0  0
M  END
> <minimizedAffinity>
-7.54132

$$$$
4ATT_HNV_A_201


 27 28  0  0  0  0  0  0  0  0999 V2000
  -13.5938   -0.9033  -10.8485 C   0  0  0  0  0  0  0  0  0  0  0  0
  -13.7475   -1.5092  -12.1084 O   0  0  0  0  0  0  0  0  0  0  0  0
  -14.8736   -0.1392  -10.4892 C   0  0  0  0  0  0  0  0  0  0  0  0
  -14.7184    0.5026   -9.2153 O   0  0  0  0  0  0  0  0  0  0  0  0
  -15.2122    0.7795  -11.5236 C   0  0  0  0  0  0  0  0  0  0  0  0
  -16.5034    1.4548  -11.2202 O   0  0  0  0  0  0  0  0  0  0  0  0
  -15.2771    0.2109  -12.8298 C   0  0  0  0  0  0  0  0  0  0  0  0
  -16.3570   -0.7127  -12.9733 O   0  0  0  0  0  0  0  0  0  0  0  0
  -14.0232   -0.5928  -13.1340 C   0  0  0  0  0  0  0  0  0  0  0  0
  -13.9836    1.1343   -9.2589 H   0  0  0  0  0  0  0  0  0  0  0  0
  -17.2172    0.7981  -11.2103 H   0  0  0  0  0  0  0  0  0  0  0  0
  -16.2269   -1.4590  -12.3674 H   0  0  0  0  0  0  0  0  0  0  0  0
  -12.9851   -1.5487   -8.6086 O   0  0  0  0  0  0  0  0  0  0  0  0
  -13.2787   -1.9882   -9.8866 C   0  0  0  0  0  0  0  0  0  0  0  0
  -12.7910   -2.3111   -8.0412 H   0  0  0  0  0  0  0  0  0  0  0  0
  -12.9646    0.2385  -13.3593 O   0  0  0  0  0  0  0  0  0  0  0  0
  -12.3962    0.1156  -14.5963 C   0  0  0  0  0  0  0  0  0  0  0  0
  -12.0820    1.3890  -15.2775 C   0  0  0  0  0  0  0  0  0  0  0  0
  -11.8223    2.4140  -15.8558 C   0  0  0  0  0  0  0  0  0  0  0  0
  -11.5070    3.6560  -16.5909 C   0  0  0  0  0  0  0  0  0  0  0  0
  -11.9318    3.8342  -17.8977 C   0  0  0  0  0  0  0  0  0  0  0  0
  -11.6320    5.0174  -18.5600 C   0  0  0  0  0  0  0  0  0  0  0  0
  -10.9093    6.0018  -17.8930 C   0  0  0  0  0  0  0  0  0  0  0  0
  -10.4926    5.8109  -16.5901 C   0  0  0  0  0  0  0  0  0  0  0  0
  -10.7935    4.6398  -15.9229 C   0  0  0  0  0  0  0  0  0  0  0  0
  -10.5884    7.1862  -18.5185 O   0  0  0  0  0  0  0  0  0  0  0  0
   -9.3230    7.3439  -19.0493 C   0  0  0  0  0  0  0  0  0  0  0  0
 13 14  1  0  0  0
 14  1  1  0  0  0
  1  2  1  0  0  0
  1  3  1  0  0  0
  2  9  1  0  0  0
  3  4  1  0  0  0
  3  5  1  0  0  0
  5  6  1  0  0  0
  5  7  1  0  0  0
  7  8  1  0  0  0
  7  9  1  0  0  0
  9 16  1  0  0  0
 16 17  1  0  0  0
 17 18  1  0  0  0
 18 19  3  0  0  0
 19 20  1  0  0  0
 20 21  1  0  0  0
 20 25  2  0  0  0
 21 22  2  0  0  0
 22 23  1  0  0  0
 23 26  1  0  0  0
 23 24  2  0  0  0
 26 27  1  0  0  0
 24 25  1  0  0  0
 13 15  1  0  0  0
  4 10  1  0  0  0
  6 11  1  0  0  0
  8 12  1  0  0  0
M  END
> <minimizedAffinity>
-7.31060

$$$$
4ATT_HNV_A_201


 27 28  0  0  0  0  0  0  0  0999 V2000
  -13.9707    1.6465  -11.5438 C   0  0  0  0  0  0  0  0  0  0  0  0
  -12.6217    1.2559  -11.4671 O   0  0  0  0  0  0  0  0  0  0  0  0
  -14.8130    0.7593  -10.6194 C   0  0  0  0  0  0  0  0  0  0  0  0
  -16.1951    1.1343  -10.7083 O   0  0  0  0  0  0  0  0  0  0  0  0
  -14.6020   -0.6165  -10.9214 C   0  0  0  0  0  0  0  0  0  0  0  0
  -15.3462   -1.4810   -9.9653 O   0  0  0  0  0  0  0  0  0  0  0  0
  -13.2343   -1.0190  -10.9491 C   0  0  0  0  0  0  0  0  0  0  0  0
  -12.6198   -0.9644   -9.6610 O   0  0  0  0  0  0  0  0  0  0  0  0
  -12.4119   -0.0848  -11.8220 C   0  0  0  0  0  0  0  0  0  0  0  0
  -16.5051    1.0130  -11.6194 H   0  0  0  0  0  0  0  0  0  0  0  0
  -14.9930   -1.3527   -9.0710 H   0  0  0  0  0  0  0  0  0  0  0  0
  -12.6183   -0.0483   -9.3420 H   0  0  0  0  0  0  0  0  0  0  0  0
  -13.9714    3.3212   -9.8119 O   0  0  0  0  0  0  0  0  0  0  0  0
  -14.0231    3.0821  -11.1731 C   0  0  0  0  0  0  0  0  0  0  0  0
  -14.0103    4.2767   -9.6497 H   0  0  0  0  0  0  0  0  0  0  0  0
  -12.6829   -0.3007  -13.1420 O   0  0  0  0  0  0  0  0  0  0  0  0
  -12.3373   -1.5416  -13.5995 C   0  0  0  0  0  0  0  0  0  0  0  0
  -13.2669   -2.1343  -14.5839 C   0  0  0  0  0  0  0  0  0  0  0  0
  -14.0444   -2.6167  -15.3682 C   0  0  0  0  0  0  0  0  0  0  0  0
  -15.0202   -3.2005  -16.3114 C   0  0  0  0  0  0  0  0  0  0  0  0
  -15.3681   -2.5338  -17.4751 C   0  0  0  0  0  0  0  0  0  0  0  0
  -16.2783   -3.1124  -18.3499 C   0  0  0  0  0  0  0  0  0  0  0  0
  -16.8220   -4.3544  -18.0368 C   0  0  0  0  0  0  0  0  0  0  0  0
  -16.4657   -5.0080  -16.8733 C   0  0  0  0  0  0  0  0  0  0  0  0
  -15.5556   -4.4419  -16.0025 C   0  0  0  0  0  0  0  0  0  0  0  0
  -17.7317   -4.9575  -18.8768 O   0  0  0  0  0  0  0  0  0  0  0  0
  -17.2716   -5.6401  -19.9860 C   0  0  0  0  0  0  0  0  0  0  0  0
 13 14  1  0  0  0
 14  1  1  0  0  0
  1  2  1  0  0  0
  1  3  1  0  0  0
  2  9  1  0  0  0
  3  4  1  0  0  0
  3  5  1  0  0  0
  5  6  1  0  0  0
  5  7  1  0  0  0
  7  8  1  0  0  0
  7  9  1  0  0  0
  9 16  1  0  0  0
 16 17  1  0  0  0
 17 18  1  0  0  0
 18 19  3  0  0  0
 19 20  1  0  0  0
 20 21  1  0  0  0
 20 25  2  0  0  0
 21 22  2  0  0  0
 22 23  1  0  0  0
 23 26  1  0  0  0
 23 24  2  0  0  0
 26 27  1  0  0  0
 24 25  1  0  0  0
 13 15  1  0  0  0
  4 10  1  0  0  0
  6 11  1  0  0  0
  8 12  1  0  0  0
M  END
> <minimizedAffinity>
-6.83270

$$$$
4ATT_HNV_A_201


 27 28  0  0  0  0  0  0  0  0999 V2000
  -13.5860   -0.9168  -10.8413 C   0  0  0  0  0  0  0  0  0  0  0  0
  -13.7437   -1.5306  -12.0969 O   0  0  0  0  0  0  0  0  0  0  0  0
  -14.8530   -0.1250  -10.4967 C   0  0  0  0  0  0  0  0  0  0  0  0
  -14.6932    0.5248   -9.2275 O   0  0  0  0  0  0  0  0  0  0  0  0
  -15.1674    0.7909  -11.5411 C   0  0  0  0  0  0  0  0  0  0  0  0
  -16.4471    1.4936  -11.2517 O   0  0  0  0  0  0  0  0  0  0  0  0
  -15.2352    0.2123  -12.8427 C   0  0  0  0  0  0  0  0  0  0  0  0
  -16.3319   -0.6916  -12.9850 O   0  0  0  0  0  0  0  0  0  0  0  0
  -13.9953   -0.6181  -13.1320 C   0  0  0  0  0  0  0  0  0  0  0  0
  -13.9460    1.1418   -9.2719 H   0  0  0  0  0  0  0  0  0  0  0  0
  -17.1736    0.8509  -11.2405 H   0  0  0  0  0  0  0  0  0  0  0  0
  -16.2199   -1.4349  -12.3719 H   0  0  0  0  0  0  0  0  0  0  0  0
  -12.8947   -1.5527   -8.6228 O   0  0  0  0  0  0  0  0  0  0  0  0
  -13.2978   -1.9991   -9.8682 C   0  0  0  0  0  0  0  0  0  0  0  0
  -12.7259   -2.3138   -8.0456 H   0  0  0  0  0  0  0  0  0  0  0  0
  -12.9195    0.1907  -13.3578 O   0  0  0  0  0  0  0  0  0  0  0  0
  -12.2562   -0.0559  -14.5274 C   0  0  0  0  0  0  0  0  0  0  0  0
  -12.8745    0.5219  -15.7391 C   0  0  0  0  0  0  0  0  0  0  0  0
  -13.3681    1.0168  -16.7208 C   0  0  0  0  0  0  0  0  0  0  0  0
  -13.9558    1.6477  -17.9205 C   0  0  0  0  0  0  0  0  0  0  0  0
  -15.3011    1.4953  -18.2151 C   0  0  0  0  0  0  0  0  0  0  0  0
  -15.8293    2.1105  -19.3426 C   0  0  0  0  0  0  0  0  0  0  0  0
  -14.9919    2.8699  -20.1539 C   0  0  0  0  0  0  0  0  0  0  0  0
  -13.6527    3.0137  -19.8478 C   0  0  0  0  0  0  0  0  0  0  0  0
  -13.1223    2.4109  -18.7243 C   0  0  0  0  0  0  0  0  0  0  0  0
  -15.4780    3.4907  -21.2832 O   0  0  0  0  0  0  0  0  0  0  0  0
  -16.7861    3.9341  -21.2954 C   0  0  0  0  0  0  0  0  0  0  0  0
 13 14  1  0  0  0
 14  1  1  0  0  0
  1  2  1  0  0  0
  1  3  1  0  0  0
  2  9  1  0  0  0
  3  4  1  0  0  0
  3  5  1  0  0  0
  5  6  1  0  0  0
  5  7  1  0  0  0
  7  8  1  0  0  0
  7  9  1  0  0  0
  9 16  1  0  0  0
 16 17  1  0  0  0
 17 18  1  0  0  0
 18 19  3  0  0  0
 19 20  1  0  0  0
 20 21  1  0  0  0
 20 25  2  0  0  0
 21 22  2  0  0  0
 22 23  1  0  0  0
 23 26  1  0  0  0
 23 24  2  0  0  0
 26 27  1  0  0  0
 24 25  1  0  0  0
 13 15  1  0  0  0
  4 10  1  0  0  0
  6 11  1  0  0  0
  8 12  1  0  0  0
M  END
> <minimizedAffinity>
-6.72348

$$$$
4ATT_HNV_A_201


 27 28  0  0  0  0  0  0  0  0999 V2000
  -14.2970    0.3342  -13.2408 C   0  0  0  0  0  0  0  0  0  0  0  0
  -13.7370    1.5165  -13.7571 O   0  0  0  0  0  0  0  0  0  0  0  0
  -15.0126    0.6418  -11.9201 C   0  0  0  0  0  0  0  0  0  0  0  0
  -15.5675   -0.5629  -11.3727 O   0  0  0  0  0  0  0  0  0  0  0  0
  -14.1278    1.2939  -11.0143 C   0  0  0  0  0  0  0  0  0  0  0  0
  -14.8455    1.6767   -9.7678 O   0  0  0  0  0  0  0  0  0  0  0  0
  -13.4681    2.4411  -11.5455 C   0  0  0  0  0  0  0  0  0  0  0  0
  -14.3680    3.5180  -11.8109 O   0  0  0  0  0  0  0  0  0  0  0  0
  -12.8220    2.1235  -12.8843 C   0  0  0  0  0  0  0  0  0  0  0  0
  -14.8545   -1.1966  -11.1972 H   0  0  0  0  0  0  0  0  0  0  0  0
  -15.5321    2.3290   -9.9774 H   0  0  0  0  0  0  0  0  0  0  0  0
  -15.0077    3.2455  -12.4872 H   0  0  0  0  0  0  0  0  0  0  0  0
  -15.2207   -1.5784  -14.3779 O   0  0  0  0  0  0  0  0  0  0  0  0
  -15.2092   -0.1987  -14.2825 C   0  0  0  0  0  0  0  0  0  0  0  0
  -15.8370   -1.8491  -15.0763 H   0  0  0  0  0  0  0  0  0  0  0  0
  -11.7110    1.3506  -12.7083 O   0  0  0  0  0  0  0  0  0  0  0  0
  -10.5716    1.8532  -13.2720 C   0  0  0  0  0  0  0  0  0  0  0  0
  -10.7810    2.7649  -14.4163 C   0  0  0  0  0  0  0  0  0  0  0  0
  -10.9253    3.5100  -15.3524 C   0  0  0  0  0  0  0  0  0  0  0  0
  -11.0731    4.4198  -16.5070 C   0  0  0  0  0  0  0  0  0  0  0  0
  -10.5788    5.7132  -16.4588 C   0  0  0  0  0  0  0  0  0  0  0  0
  -10.7205    6.5422  -17.5638 C   0  0  0  0  0  0  0  0  0  0  0  0
  -11.3579    6.0526  -18.6997 C   0  0  0  0  0  0  0  0  0  0  0  0
  -11.8455    4.7607  -18.7340 C   0  0  0  0  0  0  0  0  0  0  0  0
  -11.7015    3.9285  -17.6415 C   0  0  0  0  0  0  0  0  0  0  0  0
  -11.5220    6.8465  -19.8132 O   0  0  0  0  0  0  0  0  0  0  0  0
  -12.1811    6.3327  -20.9130 C   0  0  0  0  0  0  0  0  0  0  0  0
 13 14  1  0  0  0
 14  1  1  0  0  0
  1  2  1  0  0  0
  1  3  1  0  0  0
  2  9  1  0  0  0
  3  4  1  0  0  0
  3  5  1  0  0  0
  5  6  1  0  0  0
  5  7  1  0  0  0
  7  8  1  0  0  0
  7  9  1  0  0  0
  9 16  1  0  0  0
 16 17  1  0  0  0
 17 18  1  0  0  0
 18 19  3  0  0  0
 19 20  1  0  0  0
 20 21  1  0  0  0
 20 25  2  0  0  0
 21 22  2  0  0  0
 22 23  1  0  0  0
 23 26  1  0  0  0
 23 24  2  0  0  0
 26 27  1  0  0  0
 24 25  1  0  0  0
 13 15  1  0  0  0
  4 10  1  0  0  0
  6 11  1  0  0  0
  8 12  1  0  0  0
M  END
> <minimizedAffinity>
-6.56233

$$$$
4ATT_HNV_A_201


 27 28  0  0  0  0  0  0  0  0999 V2000
  -14.5927    1.1161  -11.8694 C   0  0  0  0  0  0  0  0  0  0  0  0
  -13.2233    0.9481  -11.5960 O   0  0  0  0  0  0  0  0  0  0  0  0
  -15.1365   -0.1454  -12.5504 C   0  0  0  0  0  0  0  0  0  0  0  0
  -16.5282    0.0249  -12.8552 O   0  0  0  0  0  0  0  0  0  0  0  0
  -14.3619   -0.4625  -13.7029 C   0  0  0  0  0  0  0  0  0  0  0  0
  -14.8297   -1.7375  -14.3118 O   0  0  0  0  0  0  0  0  0  0  0  0
  -12.9564   -0.5408  -13.4749 C   0  0  0  0  0  0  0  0  0  0  0  0
  -12.5964   -1.6421  -12.6398 O   0  0  0  0  0  0  0  0  0  0  0  0
  -12.4564    0.6939  -12.7426 C   0  0  0  0  0  0  0  0  0  0  0  0
  -16.6370    0.7743  -13.4613 H   0  0  0  0  0  0  0  0  0  0  0  0
  -14.6820   -2.4665  -13.6892 H   0  0  0  0  0  0  0  0  0  0  0  0
  -12.9992   -1.5294  -11.7646 H   0  0  0  0  0  0  0  0  0  0  0  0
  -15.9983    0.3550  -10.0669 O   0  0  0  0  0  0  0  0  0  0  0  0
  -15.2561    1.4059  -10.5743 C   0  0  0  0  0  0  0  0  0  0  0  0
  -16.3988    0.6193   -9.2239 H   0  0  0  0  0  0  0  0  0  0  0  0
  -12.4365    1.7716  -13.5796 O   0  0  0  0  0  0  0  0  0  0  0  0
  -11.2404    1.9849  -14.2061 C   0  0  0  0  0  0  0  0  0  0  0  0
  -11.2687    2.9749  -15.3031 C   0  0  0  0  0  0  0  0  0  0  0  0
  -11.2959    3.7623  -16.2151 C   0  0  0  0  0  0  0  0  0  0  0  0
  -11.3406    4.7061  -17.3508 C   0  0  0  0  0  0  0  0  0  0  0  0
  -11.9562    4.3547  -18.5413 C   0  0  0  0  0  0  0  0  0  0  0  0
  -11.9945    5.2668  -19.5878 C   0  0  0  0  0  0  0  0  0  0  0  0
  -11.4119    6.5187  -19.4159 C   0  0  0  0  0  0  0  0  0  0  0  0
  -10.8019    6.8558  -18.2233 C   0  0  0  0  0  0  0  0  0  0  0  0
  -10.7666    5.9564  -17.1760 C   0  0  0  0  0  0  0  0  0  0  0  0
  -11.4252    7.4478  -20.4325 O   0  0  0  0  0  0  0  0  0  0  0  0
  -12.4616    7.4294  -21.3455 C   0  0  0  0  0  0  0  0  0  0  0  0
 13 14  1  0  0  0
 14  1  1  0  0  0
  1  2  1  0  0  0
  1  3  1  0  0  0
  2  9  1  0  0  0
  3  4  1  0  0  0
  3  5  1  0  0  0
  5  6  1  0  0  0
  5  7  1  0  0  0
  7  8  1  0  0  0
  7  9  1  0  0  0
  9 16  1  0  0  0
 16 17  1  0  0  0
 17 18  1  0  0  0
 18 19  3  0  0  0
 19 20  1  0  0  0
 20 21  1  0  0  0
 20 25  2  0  0  0
 21 22  2  0  0  0
 22 23  1  0  0  0
 23 26  1  0  0  0
 23 24  2  0  0  0
 26 27  1  0  0  0
 24 25  1  0  0  0
 13 15  1  0  0  0
  4 10  1  0  0  0
  6 11  1  0  0  0
  8 12  1  0  0  0
M  END
> <minimizedAffinity>
-6.54723

$$$$
4ATT_HNV_A_201


 27 28  0  0  0  0  0  0  0  0999 V2000
  -14.6602    1.9864  -11.5711 C   0  0  0  0  0  0  0  0  0  0  0  0
  -13.3421    1.8442  -12.0409 O   0  0  0  0  0  0  0  0  0  0  0  0
  -14.9880    0.8359  -10.6121 C   0  0  0  0  0  0  0  0  0  0  0  0
  -16.3392    0.9586  -10.1453 O   0  0  0  0  0  0  0  0  0  0  0  0
  -14.7402   -0.4196  -11.2373 C   0  0  0  0  0  0  0  0  0  0  0  0
  -14.9685   -1.5346  -10.2782 O   0  0  0  0  0  0  0  0  0  0  0  0
  -13.4420   -0.5550  -11.8117 C   0  0  0  0  0  0  0  0  0  0  0  0
  -12.4061   -0.5737  -10.8287 O   0  0  0  0  0  0  0  0  0  0  0  0
  -13.1193    0.6303  -12.7072 C   0  0  0  0  0  0  0  0  0  0  0  0
  -16.9472    0.9143  -10.8998 H   0  0  0  0  0  0  0  0  0  0  0  0
  -14.3277   -1.4733   -9.5525 H   0  0  0  0  0  0  0  0  0  0  0  0
  -12.3966    0.2715  -10.3528 H   0  0  0  0  0  0  0  0  0  0  0  0
  -13.8946    3.4836   -9.8459 O   0  0  0  0  0  0  0  0  0  0  0  0
  -14.7437    3.3195  -10.9251 C   0  0  0  0  0  0  0  0  0  0  0  0
  -14.0063    4.3746   -9.4791 H   0  0  0  0  0  0  0  0  0  0  0  0
  -13.8313    0.5600  -13.8694 O   0  0  0  0  0  0  0  0  0  0  0  0
  -13.6100   -0.5700  -14.6062 C   0  0  0  0  0  0  0  0  0  0  0  0
  -14.4090   -0.6842  -15.8443 C   0  0  0  0  0  0  0  0  0  0  0  0
  -15.0698   -0.8010  -16.8454 C   0  0  0  0  0  0  0  0  0  0  0  0
  -15.8949   -0.9667  -18.0596 C   0  0  0  0  0  0  0  0  0  0  0  0
  -16.6989   -2.0831  -18.2239 C   0  0  0  0  0  0  0  0  0  0  0  0
  -17.4739   -2.2063  -19.3696 C   0  0  0  0  0  0  0  0  0  0  0  0
  -17.4257   -1.2010  -20.3304 C   0  0  0  0  0  0  0  0  0  0  0  0
  -16.6199   -0.0932  -20.1533 C   0  0  0  0  0  0  0  0  0  0  0  0
  -15.8523    0.0394  -19.0131 C   0  0  0  0  0  0  0  0  0  0  0  0
  -18.1758   -1.2903  -21.4821 O   0  0  0  0  0  0  0  0  0  0  0  0
  -17.5365   -1.2408  -22.7055 C   0  0  0  0  0  0  0  0  0  0  0  0
 13 14  1  0  0  0
 14  1  1  0  0  0
  1  2  1  0  0  0
  1  3  1  0  0  0
  2  9  1  0  0  0
  3  4  1  0  0  0
  3  5  1  0  0  0
  5  6  1  0  0  0
  5  7  1  0  0  0
  7  8  1  0  0  0
  7  9  1  0  0  0
  9 16  1  0  0  0
 16 17  1  0  0  0
 17 18  1  0  0  0
 18 19  3  0  0  0
 19 20  1  0  0  0
 20 21  1  0  0  0
 20 25  2  0  0  0
 21 22  2  0  0  0
 22 23  1  0  0  0
 23 26  1  0  0  0
 23 24  2  0  0  0
 26 27  1  0  0  0
 24 25  1  0  0  0
 13 15  1  0  0  0
  4 10  1  0  0  0
  6 11  1  0  0  0
  8 12  1  0  0  0
M  END
> <minimizedAffinity>
-6.47816

$$$$
4ATT_HNV_A_201


 27 28  0  0  0  0  0  0  0  0999 V2000
  -13.9351    1.6263  -11.5828 C   0  0  0  0  0  0  0  0  0  0  0  0
  -12.5902    1.2262  -11.4861 O   0  0  0  0  0  0  0  0  0  0  0  0
  -14.7942    0.7601  -10.6540 C   0  0  0  0  0  0  0  0  0  0  0  0
  -16.1722    1.1446  -10.7630 O   0  0  0  0  0  0  0  0  0  0  0  0
  -14.5912   -0.6219  -10.9328 C   0  0  0  0  0  0  0  0  0  0  0  0
  -15.3522   -1.4657   -9.9715 O   0  0  0  0  0  0  0  0  0  0  0  0
  -13.2265   -1.0355  -10.9401 C   0  0  0  0  0  0  0  0  0  0  0  0
  -12.6250   -0.9661   -9.6465 O   0  0  0  0  0  0  0  0  0  0  0  0
  -12.3877   -0.1213  -11.8184 C   0  0  0  0  0  0  0  0  0  0  0  0
  -16.4737    1.0118  -11.6753 H   0  0  0  0  0  0  0  0  0  0  0  0
  -15.0072   -1.3266   -9.0756 H   0  0  0  0  0  0  0  0  0  0  0  0
  -12.6194   -0.0454   -9.3415 H   0  0  0  0  0  0  0  0  0  0  0  0
  -14.0777    3.3235   -9.8790 O   0  0  0  0  0  0  0  0  0  0  0  0
  -13.9798    3.0678  -11.2346 C   0  0  0  0  0  0  0  0  0  0  0  0
  -14.1016    4.2819   -9.7316 H   0  0  0  0  0  0  0  0  0  0  0  0
  -12.6467   -0.3552  -13.1377 O   0  0  0  0  0  0  0  0  0  0  0  0
  -12.1494   -1.5353  -13.6160 C   0  0  0  0  0  0  0  0  0  0  0  0
  -12.5276   -1.8637  -15.0065 C   0  0  0  0  0  0  0  0  0  0  0  0
  -12.8319   -2.1060  -16.1471 C   0  0  0  0  0  0  0  0  0  0  0  0
  -13.1941   -2.3762  -17.5537 C   0  0  0  0  0  0  0  0  0  0  0  0
  -12.7731   -3.5360  -18.1843 C   0  0  0  0  0  0  0  0  0  0  0  0
  -13.1393   -3.7700  -19.5032 C   0  0  0  0  0  0  0  0  0  0  0  0
  -13.9249   -2.8307  -20.1642 C   0  0  0  0  0  0  0  0  0  0  0  0
  -14.3378   -1.6791  -19.5230 C   0  0  0  0  0  0  0  0  0  0  0  0
  -13.9835   -1.4434  -18.2093 C   0  0  0  0  0  0  0  0  0  0  0  0
  -14.3037   -3.0252  -21.4740 O   0  0  0  0  0  0  0  0  0  0  0  0
  -15.4248   -3.7861  -21.7428 C   0  0  0  0  0  0  0  0  0  0  0  0
 13 14  1  0  0  0
 14  1  1  0  0  0
  1  2  1  0  0  0
  1  3  1  0  0  0
  2  9  1  0  0  0
  3  4  1  0  0  0
  3  5  1  0  0  0
  5  6  1  0  0  0
  5  7  1  0  0  0
  7  8  1  0  0  0
  7  9  1  0  0  0
  9 16  1  0  0  0
 16 17  1  0  0  0
 17 18  1  0  0  0
 18 19  3  0  0  0
 19 20  1  0  0  0
 20 21  1  0  0  0
 20 25  2  0  0  0
 21 22  2  0  0  0
 22 23  1  0  0  0
 23 26  1  0  0  0
 23 24  2  0  0  0
 26 27  1  0  0  0
 24 25  1  0  0  0
 13 15  1  0  0  0
  4 10  1  0  0  0
  6 11  1  0  0  0
  8 12  1  0  0  0
M  END
> <minimizedAffinity>
-6.19526

$$$$
4ATT_HNV_A_201


 27 28  0  0  0  0  0  0  0  0999 V2000
  -14.4255    0.4037  -13.2496 C   0  0  0  0  0  0  0  0  0  0  0  0
  -14.0401    1.6753  -13.7108 O   0  0  0  0  0  0  0  0  0  0  0  0
  -15.0998    0.5397  -11.8793 C   0  0  0  0  0  0  0  0  0  0  0  0
  -15.4757   -0.7552  -11.3888 O   0  0  0  0  0  0  0  0  0  0  0  0
  -14.2514    1.2392  -10.9739 C   0  0  0  0  0  0  0  0  0  0  0  0
  -14.9408    1.4539   -9.6724 O   0  0  0  0  0  0  0  0  0  0  0  0
  -13.7637    2.4891  -11.4570 C   0  0  0  0  0  0  0  0  0  0  0  0
  -14.7992    3.4613  -11.6071 O   0  0  0  0  0  0  0  0  0  0  0  0
  -13.1582    2.3357  -12.8428 C   0  0  0  0  0  0  0  0  0  0  0  0
  -14.6835   -1.3059  -11.2897 H   0  0  0  0  0  0  0  0  0  0  0  0
  -15.7109    2.0284   -9.8054 H   0  0  0  0  0  0  0  0  0  0  0  0
  -15.4376    3.1540  -12.2696 H   0  0  0  0  0  0  0  0  0  0  0  0
  -15.2790   -1.5523  -14.3673 O   0  0  0  0  0  0  0  0  0  0  0  0
  -15.3228   -0.1727  -14.2810 C   0  0  0  0  0  0  0  0  0  0  0  0
  -15.8888   -1.8525  -15.0594 H   0  0  0  0  0  0  0  0  0  0  0  0
  -11.9547    1.6961  -12.7712 O   0  0  0  0  0  0  0  0  0  0  0  0
  -10.9168    2.3669  -13.3555 C   0  0  0  0  0  0  0  0  0  0  0  0
  -11.1527    2.8100  -14.7456 C   0  0  0  0  0  0  0  0  0  0  0  0
  -11.3707    3.1644  -15.8766 C   0  0  0  0  0  0  0  0  0  0  0  0
  -11.6676    3.5973  -17.2576 C   0  0  0  0  0  0  0  0  0  0  0  0
  -12.2269    2.7189  -18.1716 C   0  0  0  0  0  0  0  0  0  0  0  0
  -12.5072    3.1569  -19.4592 C   0  0  0  0  0  0  0  0  0  0  0  0
  -12.2196    4.4740  -19.8035 C   0  0  0  0  0  0  0  0  0  0  0  0
  -11.6624    5.3391  -18.8820 C   0  0  0  0  0  0  0  0  0  0  0  0
  -11.3878    4.9123  -17.5977 C   0  0  0  0  0  0  0  0  0  0  0  0
  -12.4786    4.9435  -21.0722 O   0  0  0  0  0  0  0  0  0  0  0  0
  -13.7603    4.8423  -21.5770 C   0  0  0  0  0  0  0  0  0  0  0  0
 13 14  1  0  0  0
 14  1  1  0  0  0
  1  2  1  0  0  0
  1  3  1  0  0  0
  2  9  1  0  0  0
  3  4  1  0  0  0
  3  5  1  0  0  0
  5  6  1  0  0  0
  5  7  1  0  0  0
  7  8  1  0  0  0
  7  9  1  0  0  0
  9 16  1  0  0  0
 16 17  1  0  0  0
 17 18  1  0  0  0
 18 19  3  0  0  0
 19 20  1  0  0  0
 20 21  1  0  0  0
 20 25  2  0  0  0
 21 22  2  0  0  0
 22 23  1  0  0  0
 23 26  1  0  0  0
 23 24  2  0  0  0
 26 27  1  0  0  0
 24 25  1  0  0  0
 13 15  1  0  0  0
  4 10  1  0  0  0
  6 11  1  0  0  0
  8 12  1  0  0  0
M  END
> <minimizedAffinity>
-5.93389

$$$$
