3U6H_03X_A_1


 40 44  0  0  0  0  0  0  0  0999 V2000
   21.4831    4.7458  -19.3145 C   0  0  0  0  0  0  0  0  0  0  0  0
   21.8782    5.5335  -18.2404 C   0  0  0  0  0  0  0  0  0  0  0  0
   22.4757    3.5826  -16.9525 C   0  0  0  0  0  0  0  0  0  0  0  0
   21.5772    3.3497  -19.2116 C   0  0  0  0  0  0  0  0  0  0  0  0
   22.3828    4.9670  -17.0727 C   0  0  0  0  0  0  0  0  0  0  0  0
   21.7806    6.8633  -18.3396 F   0  0  0  0  0  0  0  0  0  0  0  0
   22.0832    2.7770  -18.0310 C   0  0  0  0  0  0  0  0  0  0  0  0
   23.0062    3.1186  -15.8079 N   0  0  0  0  0  0  0  0  0  0  0  0
   23.2580    1.8496  -15.4697 C   0  0  0  0  0  0  0  0  0  0  0  0
   23.0300    0.8715  -16.1759 O   0  0  0  0  0  0  0  0  0  0  0  0
   23.2384    3.7981  -15.1344 H   0  0  0  0  0  0  0  0  0  0  0  0
   24.8232    0.8012  -12.3045 N   0  0  0  0  0  0  0  0  0  0  0  0
   24.1786    0.4915  -13.4344 C   0  0  0  0  0  0  0  0  0  0  0  0
   24.5049    2.6599  -13.2989 C   0  0  0  0  0  0  0  0  0  0  0  0
   23.7707   -0.9159  -13.8847 C   0  0  0  0  0  0  0  0  0  0  0  0
   23.9376    1.6790  -14.1048 C   0  0  0  0  0  0  0  0  0  0  0  0
   24.5151    3.8731  -13.5262 O   0  0  0  0  0  0  0  0  0  0  0  0
   25.2529   -0.2174  -11.2741 C   0  0  0  0  0  0  0  0  0  0  0  0
   24.9906    2.0344  -12.2114 N   0  0  0  0  0  0  0  0  0  0  0  0
   25.6739    2.6082  -11.2185 C   0  0  0  0  0  0  0  0  0  0  0  0
   27.9063    3.2604  -10.4785 C   0  0  0  0  0  0  0  0  0  0  0  0
   25.9783    3.6440   -9.0738 C   0  0  0  0  0  0  0  0  0  0  0  0
   27.0566    2.7013  -11.4274 C   0  0  0  0  0  0  0  0  0  0  0  0
   27.3552    3.7363   -9.2943 C   0  0  0  0  0  0  0  0  0  0  0  0
   25.1252    3.0821  -10.0285 C   0  0  0  0  0  0  0  0  0  0  0  0
   20.9945    5.3857  -20.4278 O   0  0  0  0  0  0  0  0  0  0  0  0
   23.1221    5.5109  -23.9775 N   0  0  0  0  0  0  0  0  0  0  0  0
   19.7099    6.0545  -22.7824 C   0  0  0  0  0  0  0  0  0  0  0  0
   21.0798    5.7619  -22.7771 C   0  0  0  0  0  0  0  0  0  0  0  0
   21.8039    5.8009  -23.9693 C   0  0  0  0  0  0  0  0  0  0  0  0
   23.7746    5.1754  -22.8580 C   0  0  0  0  0  0  0  0  0  0  0  0
   23.1013    5.1263  -21.6339 C   0  0  0  0  0  0  0  0  0  0  0  0
   19.7919    6.4336  -25.1647 C   0  0  0  0  0  0  0  0  0  0  0  0
   21.1570    6.1356  -25.1621 C   0  0  0  0  0  0  0  0  0  0  0  0
   19.0669    6.3894  -23.9783 C   0  0  0  0  0  0  0  0  0  0  0  0
   21.7284    5.4133  -21.5850 C   0  0  0  0  0  0  0  0  0  0  0  0
   19.8931    6.8965  -27.5147 C   0  0  0  0  0  0  0  0  0  0  0  0
   19.1125    6.7698  -26.3065 O   0  0  0  0  0  0  0  0  0  0  0  0
   17.7323    6.6995  -24.0393 O   0  0  0  0  0  0  0  0  0  0  0  0
   16.7894    5.6417  -23.7290 C   0  0  0  0  0  0  0  0  0  0  0  0
 31 27  2  0  0  0
 30 27  1  0  0  0
 18 12  1  0  0  0
 12 13  1  0  0  0
 12 19  1  0  0  0
 28 29  2  0  0  0
 28 35  1  0  0  0
 36 29  1  0  0  0
 29 30  1  0  0  0
 30 34  2  0  0  0
 32 31  1  0  0  0
 36 32  2  0  0  0
  2  1  2  0  0  0
  4  1  1  0  0  0
  1 26  1  0  0  0
  5  2  1  0  0  0
  2  6  1  0  0  0
  8  3  1  0  0  0
  3  5  2  0  0  0
  3  7  1  0  0  0
  7  4  2  0  0  0
 15 13  1  0  0  0
 13 16  2  0  0  0
 19 14  1  0  0  0
 16 14  1  0  0  0
 14 17  2  0  0  0
 25 20  2  0  0  0
 19 20  1  0  0  0
 20 23  1  0  0  0
 24 21  1  0  0  0
 23 21  2  0  0  0
 25 22  1  0  0  0
 22 24  2  0  0  0
 38 37  1  0  0  0
 33 38  1  0  0  0
 35 33  2  0  0  0
 33 34  1  0  0  0
 39 35  1  0  0  0
 40 39  1  0  0  0
 26 36  1  0  0  0
  9  8  1  0  0  0
 16  9  1  0  0  0
 10  9  2  0  0  0
  8 11  1  0  0  0
M  END
> <minimizedAffinity>
-12.23031

$$$$
3U6H_03X_A_1


 40 44  0  0  0  0  0  0  0  0999 V2000
   21.3875    4.9608  -19.5073 C   0  0  0  0  0  0  0  0  0  0  0  0
   21.5759    3.6339  -19.1411 C   0  0  0  0  0  0  0  0  0  0  0  0
   22.5423    4.2914  -17.0303 C   0  0  0  0  0  0  0  0  0  0  0  0
   21.7866    5.9779  -18.6271 C   0  0  0  0  0  0  0  0  0  0  0  0
   22.1345    3.2932  -17.9119 C   0  0  0  0  0  0  0  0  0  0  0  0
   21.2005    2.6675  -19.9856 F   0  0  0  0  0  0  0  0  0  0  0  0
   22.3544    5.6344  -17.3872 C   0  0  0  0  0  0  0  0  0  0  0  0
   23.0384    3.8781  -15.8514 N   0  0  0  0  0  0  0  0  0  0  0  0
   22.3976    3.7539  -14.6843 C   0  0  0  0  0  0  0  0  0  0  0  0
   21.2120    4.0132  -14.4979 O   0  0  0  0  0  0  0  0  0  0  0  0
   23.9928    3.6367  -15.8466 H   0  0  0  0  0  0  0  0  0  0  0  0
   24.2913    1.8025  -12.1997 N   0  0  0  0  0  0  0  0  0  0  0  0
   23.4444    1.8477  -13.2335 C   0  0  0  0  0  0  0  0  0  0  0  0
   24.0603    3.8737  -12.6484 C   0  0  0  0  0  0  0  0  0  0  0  0
   22.7961    0.6418  -13.9231 C   0  0  0  0  0  0  0  0  0  0  0  0
   23.2545    3.1831  -13.5469 C   0  0  0  0  0  0  0  0  0  0  0  0
   24.1888    5.0994  -12.5788 O   0  0  0  0  0  0  0  0  0  0  0  0
   24.7436    0.5217  -11.5372 C   0  0  0  0  0  0  0  0  0  0  0  0
   24.6263    2.9522  -11.8483 N   0  0  0  0  0  0  0  0  0  0  0  0
   25.5233    3.1932  -10.8895 C   0  0  0  0  0  0  0  0  0  0  0  0
   27.9123    3.3541  -10.4173 C   0  0  0  0  0  0  0  0  0  0  0  0
   26.2823    3.6774   -8.6635 C   0  0  0  0  0  0  0  0  0  0  0  0
   26.8612    3.1404  -11.3031 C   0  0  0  0  0  0  0  0  0  0  0  0
   27.6129    3.6271   -9.0875 C   0  0  0  0  0  0  0  0  0  0  0  0
   25.2266    3.4626   -9.5549 C   0  0  0  0  0  0  0  0  0  0  0  0
   20.8317    5.2087  -20.7391 O   0  0  0  0  0  0  0  0  0  0  0  0
   23.1687    5.7231  -24.1180 N   0  0  0  0  0  0  0  0  0  0  0  0
   19.6641    6.0046  -23.1151 C   0  0  0  0  0  0  0  0  0  0  0  0
   21.0445    5.7781  -23.0409 C   0  0  0  0  0  0  0  0  0  0  0  0
   21.8390    5.9483  -24.1754 C   0  0  0  0  0  0  0  0  0  0  0  0
   23.7663    5.3293  -22.9869 C   0  0  0  0  0  0  0  0  0  0  0  0
   23.0209    5.1488  -21.8182 C   0  0  0  0  0  0  0  0  0  0  0  0
   19.8756    6.5793  -25.4498 C   0  0  0  0  0  0  0  0  0  0  0  0
   21.2517    6.3475  -25.3790 C   0  0  0  0  0  0  0  0  0  0  0  0
   19.0808    6.4044  -24.3215 C   0  0  0  0  0  0  0  0  0  0  0  0
   21.6344    5.3651  -21.8390 C   0  0  0  0  0  0  0  0  0  0  0  0
   19.7212    8.1984  -27.2110 C   0  0  0  0  0  0  0  0  0  0  0  0
   19.2525    6.9745  -26.6047 O   0  0  0  0  0  0  0  0  0  0  0  0
   17.7381    6.6545  -24.4474 O   0  0  0  0  0  0  0  0  0  0  0  0
   16.9695    6.7879  -23.2244 C   0  0  0  0  0  0  0  0  0  0  0  0
 31 27  2  0  0  0
 30 27  1  0  0  0
 18 12  1  0  0  0
 12 13  1  0  0  0
 12 19  1  0  0  0
 28 29  2  0  0  0
 28 35  1  0  0  0
 36 29  1  0  0  0
 29 30  1  0  0  0
 30 34  2  0  0  0
 32 31  1  0  0  0
 36 32  2  0  0  0
  2  1  2  0  0  0
  4  1  1  0  0  0
  1 26  1  0  0  0
  5  2  1  0  0  0
  2  6  1  0  0  0
  8  3  1  0  0  0
  3  5  2  0  0  0
  3  7  1  0  0  0
  7  4  2  0  0  0
 15 13  1  0  0  0
 13 16  2  0  0  0
 19 14  1  0  0  0
 16 14  1  0  0  0
 14 17  2  0  0  0
 25 20  2  0  0  0
 19 20  1  0  0  0
 20 23  1  0  0  0
 24 21  1  0  0  0
 23 21  2  0  0  0
 25 22  1  0  0  0
 22 24  2  0  0  0
 38 37  1  0  0  0
 33 38  1  0  0  0
 35 33  2  0  0  0
 33 34  1  0  0  0
 39 35  1  0  0  0
 40 39  1  0  0  0
 26 36  1  0  0  0
  9  8  1  0  0  0
 16  9  1  0  0  0
 10  9  2  0  0  0
  8 11  1  0  0  0
M  END
> <minimizedAffinity>
-11.42480

$$$$
3U6H_03X_A_1


 40 44  0  0  0  0  0  0  0  0999 V2000
   21.7573    4.6288  -18.6739 C   0  0  0  0  0  0  0  0  0  0  0  0
   22.0661    5.4934  -17.6312 C   0  0  0  0  0  0  0  0  0  0  0  0
   22.6565    3.6464  -16.1954 C   0  0  0  0  0  0  0  0  0  0  0  0
   21.8921    3.2458  -18.4801 C   0  0  0  0  0  0  0  0  0  0  0  0
   22.5243    5.0168  -16.4057 C   0  0  0  0  0  0  0  0  0  0  0  0
   21.9298    6.8104  -17.8175 F   0  0  0  0  0  0  0  0  0  0  0  0
   22.3511    2.7638  -17.2413 C   0  0  0  0  0  0  0  0  0  0  0  0
   23.1384    3.2716  -14.9978 N   0  0  0  0  0  0  0  0  0  0  0  0
   22.5091    3.2724  -13.8179 C   0  0  0  0  0  0  0  0  0  0  0  0
   21.3503    3.6348  -13.6353 O   0  0  0  0  0  0  0  0  0  0  0  0
   24.0713    2.9573  -14.9882 H   0  0  0  0  0  0  0  0  0  0  0  0
   24.5157    2.5392  -10.8174 N   0  0  0  0  0  0  0  0  0  0  0  0
   23.9263    3.4257  -11.6265 C   0  0  0  0  0  0  0  0  0  0  0  0
   23.6111    1.3790  -12.3603 C   0  0  0  0  0  0  0  0  0  0  0  0
   23.9246    4.9484  -11.4492 C   0  0  0  0  0  0  0  0  0  0  0  0
   23.3379    2.7101  -12.6557 C   0  0  0  0  0  0  0  0  0  0  0  0
   23.2662    0.3994  -13.0274 O   0  0  0  0  0  0  0  0  0  0  0  0
   25.2921    2.9173   -9.5771 C   0  0  0  0  0  0  0  0  0  0  0  0
   24.3594    1.3762  -11.2423 N   0  0  0  0  0  0  0  0  0  0  0  0
   24.7806    0.2932  -10.5854 C   0  0  0  0  0  0  0  0  0  0  0  0
   26.4228   -1.5122  -10.6043 C   0  0  0  0  0  0  0  0  0  0  0  0
   24.7564   -1.3767   -8.8601 C   0  0  0  0  0  0  0  0  0  0  0  0
   25.8777   -0.3605  -11.1625 C   0  0  0  0  0  0  0  0  0  0  0  0
   25.8537   -2.0179   -9.4412 C   0  0  0  0  0  0  0  0  0  0  0  0
   24.2096   -0.2189   -9.4220 C   0  0  0  0  0  0  0  0  0  0  0  0
   21.3096    5.1825  -19.8490 O   0  0  0  0  0  0  0  0  0  0  0  0
   23.5834    5.0875  -23.3078 N   0  0  0  0  0  0  0  0  0  0  0  0
   20.1553    5.8295  -22.2761 C   0  0  0  0  0  0  0  0  0  0  0  0
   21.5083    5.4739  -22.2035 C   0  0  0  0  0  0  0  0  0  0  0  0
   22.2813    5.4385  -23.3647 C   0  0  0  0  0  0  0  0  0  0  0  0
   24.1731    4.7605  -22.1515 C   0  0  0  0  0  0  0  0  0  0  0  0
   23.4489    4.7845  -20.9560 C   0  0  0  0  0  0  0  0  0  0  0  0
   20.3522    6.1228  -24.6638 C   0  0  0  0  0  0  0  0  0  0  0  0
   21.7003    5.7620  -24.5938 C   0  0  0  0  0  0  0  0  0  0  0  0
   19.5783    6.1528  -23.5082 C   0  0  0  0  0  0  0  0  0  0  0  0
   22.0904    5.1364  -20.9744 C   0  0  0  0  0  0  0  0  0  0  0  0
   20.3851    7.4503  -26.6597 C   0  0  0  0  0  0  0  0  0  0  0  0
   19.7367    6.4510  -25.8434 O   0  0  0  0  0  0  0  0  0  0  0  0
   18.2636    6.5222  -23.6355 O   0  0  0  0  0  0  0  0  0  0  0  0
   17.6559    7.2132  -22.5142 C   0  0  0  0  0  0  0  0  0  0  0  0
 31 27  2  0  0  0
 30 27  1  0  0  0
 18 12  1  0  0  0
 12 13  1  0  0  0
 12 19  1  0  0  0
 28 29  2  0  0  0
 28 35  1  0  0  0
 36 29  1  0  0  0
 29 30  1  0  0  0
 30 34  2  0  0  0
 32 31  1  0  0  0
 36 32  2  0  0  0
  2  1  2  0  0  0
  4  1  1  0  0  0
  1 26  1  0  0  0
  5  2  1  0  0  0
  2  6  1  0  0  0
  8  3  1  0  0  0
  3  5  2  0  0  0
  3  7  1  0  0  0
  7  4  2  0  0  0
 15 13  1  0  0  0
 13 16  2  0  0  0
 19 14  1  0  0  0
 16 14  1  0  0  0
 14 17  2  0  0  0
 25 20  2  0  0  0
 19 20  1  0  0  0
 20 23  1  0  0  0
 24 21  1  0  0  0
 23 21  2  0  0  0
 25 22  1  0  0  0
 22 24  2  0  0  0
 38 37  1  0  0  0
 33 38  1  0  0  0
 35 33  2  0  0  0
 33 34  1  0  0  0
 39 35  1  0  0  0
 40 39  1  0  0  0
 26 36  1  0  0  0
  9  8  1  0  0  0
 16  9  1  0  0  0
 10  9  2  0  0  0
  8 11  1  0  0  0
M  END
> <minimizedAffinity>
-10.52412

$$$$
3U6H_03X_A_1


 40 44  0  0  0  0  0  0  0  0999 V2000
   21.5802    4.2991  -19.1502 C   0  0  0  0  0  0  0  0  0  0  0  0
   21.7274    3.0393  -18.5831 C   0  0  0  0  0  0  0  0  0  0  0  0
   22.2546    4.0026  -16.4346 C   0  0  0  0  0  0  0  0  0  0  0  0
   21.7779    5.4367  -18.3532 C   0  0  0  0  0  0  0  0  0  0  0  0
   22.0481    2.8831  -17.2371 C   0  0  0  0  0  0  0  0  0  0  0  0
   21.5449    1.9576  -19.3476 F   0  0  0  0  0  0  0  0  0  0  0  0
   22.1055    5.2794  -16.9946 C   0  0  0  0  0  0  0  0  0  0  0  0
   22.5252    3.7650  -15.1396 N   0  0  0  0  0  0  0  0  0  0  0  0
   23.4189    2.9131  -14.6260 C   0  0  0  0  0  0  0  0  0  0  0  0
   24.1563    2.1822  -15.2813 O   0  0  0  0  0  0  0  0  0  0  0  0
   21.9998    4.2830  -14.4878 H   0  0  0  0  0  0  0  0  0  0  0  0
   24.3028    2.9422  -11.0503 N   0  0  0  0  0  0  0  0  0  0  0  0
   24.6672    2.8186  -12.3309 C   0  0  0  0  0  0  0  0  0  0  0  0
   22.5042    3.1693  -12.1721 C   0  0  0  0  0  0  0  0  0  0  0  0
   26.0892    2.5661  -12.8449 C   0  0  0  0  0  0  0  0  0  0  0  0
   23.5194    2.9445  -13.0954 C   0  0  0  0  0  0  0  0  0  0  0  0
   21.3089    3.3371  -12.4304 O   0  0  0  0  0  0  0  0  0  0  0  0
   25.2639    2.8442   -9.8882 C   0  0  0  0  0  0  0  0  0  0  0  0
   23.0711    3.1184  -10.9531 N   0  0  0  0  0  0  0  0  0  0  0  0
   22.4531    3.3484   -9.7925 C   0  0  0  0  0  0  0  0  0  0  0  0
   20.7603    2.4958   -8.2550 C   0  0  0  0  0  0  0  0  0  0  0  0
   21.9305    4.5565   -7.7842 C   0  0  0  0  0  0  0  0  0  0  0  0
   21.4991    2.3884   -9.4288 C   0  0  0  0  0  0  0  0  0  0  0  0
   20.9849    3.5909   -7.4287 C   0  0  0  0  0  0  0  0  0  0  0  0
   22.6727    4.4473   -8.9643 C   0  0  0  0  0  0  0  0  0  0  0  0
   21.2650    4.3632  -20.4860 O   0  0  0  0  0  0  0  0  0  0  0  0
   24.0986    5.3811  -23.3281 N   0  0  0  0  0  0  0  0  0  0  0  0
   20.4913    5.6595  -22.8018 C   0  0  0  0  0  0  0  0  0  0  0  0
   21.8382    5.3473  -22.5767 C   0  0  0  0  0  0  0  0  0  0  0  0
   22.7993    5.6861  -23.5300 C   0  0  0  0  0  0  0  0  0  0  0  0
   24.5079    4.7471  -22.2227 C   0  0  0  0  0  0  0  0  0  0  0  0
   23.5898    4.3890  -21.2311 C   0  0  0  0  0  0  0  0  0  0  0  0
   21.0683    6.6552  -24.9235 C   0  0  0  0  0  0  0  0  0  0  0  0
   22.4113    6.3387  -24.7033 C   0  0  0  0  0  0  0  0  0  0  0  0
   20.1078    6.3130  -23.9771 C   0  0  0  0  0  0  0  0  0  0  0  0
   22.2286    4.6814  -21.4073 C   0  0  0  0  0  0  0  0  0  0  0  0
   20.7392    6.5650  -27.2964 C   0  0  0  0  0  0  0  0  0  0  0  0
   20.6376    7.2965  -26.0554 O   0  0  0  0  0  0  0  0  0  0  0  0
   18.8066    6.6561  -24.2423 O   0  0  0  0  0  0  0  0  0  0  0  0
   17.8964    6.7319  -23.1154 C   0  0  0  0  0  0  0  0  0  0  0  0
 31 27  2  0  0  0
 30 27  1  0  0  0
 18 12  1  0  0  0
 12 13  1  0  0  0
 12 19  1  0  0  0
 28 29  2  0  0  0
 28 35  1  0  0  0
 36 29  1  0  0  0
 29 30  1  0  0  0
 30 34  2  0  0  0
 32 31  1  0  0  0
 36 32  2  0  0  0
  2  1  2  0  0  0
  4  1  1  0  0  0
  1 26  1  0  0  0
  5  2  1  0  0  0
  2  6  1  0  0  0
  8  3  1  0  0  0
  3  5  2  0  0  0
  3  7  1  0  0  0
  7  4  2  0  0  0
 15 13  1  0  0  0
 13 16  2  0  0  0
 19 14  1  0  0  0
 16 14  1  0  0  0
 14 17  2  0  0  0
 25 20  2  0  0  0
 19 20  1  0  0  0
 20 23  1  0  0  0
 24 21  1  0  0  0
 23 21  2  0  0  0
 25 22  1  0  0  0
 22 24  2  0  0  0
 38 37  1  0  0  0
 33 38  1  0  0  0
 35 33  2  0  0  0
 33 34  1  0  0  0
 39 35  1  0  0  0
 40 39  1  0  0  0
 26 36  1  0  0  0
  9  8  1  0  0  0
 16  9  1  0  0  0
 10  9  2  0  0  0
  8 11  1  0  0  0
M  END
> <minimizedAffinity>
-9.56252

$$$$
3U6H_03X_A_1


 40 44  0  0  0  0  0  0  0  0999 V2000
   22.0677    5.8746  -19.0350 C   0  0  0  0  0  0  0  0  0  0  0  0
   22.2935    6.4646  -17.7976 C   0  0  0  0  0  0  0  0  0  0  0  0
   21.9167    4.3688  -16.6629 C   0  0  0  0  0  0  0  0  0  0  0  0
   21.7543    4.5084  -19.0958 C   0  0  0  0  0  0  0  0  0  0  0  0
   22.2337    5.7243  -16.6197 C   0  0  0  0  0  0  0  0  0  0  0  0
   22.5852    7.7683  -17.7432 F   0  0  0  0  0  0  0  0  0  0  0  0
   21.6900    3.7612  -17.9061 C   0  0  0  0  0  0  0  0  0  0  0  0
   21.9148    3.7200  -15.4857 N   0  0  0  0  0  0  0  0  0  0  0  0
   22.9188    3.5930  -14.6116 C   0  0  0  0  0  0  0  0  0  0  0  0
   24.0445    4.0617  -14.7554 O   0  0  0  0  0  0  0  0  0  0  0  0
   21.0683    3.2838  -15.2357 H   0  0  0  0  0  0  0  0  0  0  0  0
   22.6739    1.6755  -11.4763 N   0  0  0  0  0  0  0  0  0  0  0  0
   23.4055    2.1353  -12.4968 C   0  0  0  0  0  0  0  0  0  0  0  0
   21.3118    2.7701  -12.6975 C   0  0  0  0  0  0  0  0  0  0  0  0
   24.9056    1.9023  -12.7097 C   0  0  0  0  0  0  0  0  0  0  0  0
   22.5502    2.8417  -13.3257 C   0  0  0  0  0  0  0  0  0  0  0  0
   20.2591    3.2704  -13.1037 O   0  0  0  0  0  0  0  0  0  0  0  0
   23.2317    0.8315  -10.3535 C   0  0  0  0  0  0  0  0  0  0  0  0
   21.4788    2.0137  -11.5975 N   0  0  0  0  0  0  0  0  0  0  0  0
   20.5464    1.7524  -10.6786 C   0  0  0  0  0  0  0  0  0  0  0  0
   18.6656    0.2954  -10.1343 C   0  0  0  0  0  0  0  0  0  0  0  0
   19.3232    2.0744   -8.6376 C   0  0  0  0  0  0  0  0  0  0  0  0
   19.6966    0.6809  -10.9849 C   0  0  0  0  0  0  0  0  0  0  0  0
   18.4846    1.0013   -8.9505 C   0  0  0  0  0  0  0  0  0  0  0  0
   20.3594    2.4608   -9.4933 C   0  0  0  0  0  0  0  0  0  0  0  0
   22.1441    6.6780  -20.1470 O   0  0  0  0  0  0  0  0  0  0  0  0
   21.6479    5.0893  -23.9381 N   0  0  0  0  0  0  0  0  0  0  0  0
   19.7162    6.9363  -21.4433 C   0  0  0  0  0  0  0  0  0  0  0  0
   20.7861    6.2758  -22.0607 C   0  0  0  0  0  0  0  0  0  0  0  0
   20.6268    5.7367  -23.3379 C   0  0  0  0  0  0  0  0  0  0  0  0
   22.8344    4.9385  -23.3372 C   0  0  0  0  0  0  0  0  0  0  0  0
   23.0527    5.4635  -22.0601 C   0  0  0  0  0  0  0  0  0  0  0  0
   18.3355    6.5276  -23.3804 C   0  0  0  0  0  0  0  0  0  0  0  0
   19.3999    5.8627  -23.9949 C   0  0  0  0  0  0  0  0  0  0  0  0
   18.4904    7.0604  -22.1048 C   0  0  0  0  0  0  0  0  0  0  0  0
   22.0135    6.1364  -21.3992 C   0  0  0  0  0  0  0  0  0  0  0  0
   16.9138    5.9840  -25.2326 C   0  0  0  0  0  0  0  0  0  0  0  0
   17.1143    6.6801  -23.9834 O   0  0  0  0  0  0  0  0  0  0  0  0
   17.4148    7.7096  -21.5544 O   0  0  0  0  0  0  0  0  0  0  0  0
   17.6416    8.4489  -20.3272 C   0  0  0  0  0  0  0  0  0  0  0  0
 31 27  2  0  0  0
 30 27  1  0  0  0
 18 12  1  0  0  0
 12 13  1  0  0  0
 12 19  1  0  0  0
 28 29  2  0  0  0
 28 35  1  0  0  0
 36 29  1  0  0  0
 29 30  1  0  0  0
 30 34  2  0  0  0
 32 31  1  0  0  0
 36 32  2  0  0  0
  2  1  2  0  0  0
  4  1  1  0  0  0
  1 26  1  0  0  0
  5  2  1  0  0  0
  2  6  1  0  0  0
  8  3  1  0  0  0
  3  5  2  0  0  0
  3  7  1  0  0  0
  7  4  2  0  0  0
 15 13  1  0  0  0
 13 16  2  0  0  0
 19 14  1  0  0  0
 16 14  1  0  0  0
 14 17  2  0  0  0
 25 20  2  0  0  0
 19 20  1  0  0  0
 20 23  1  0  0  0
 24 21  1  0  0  0
 23 21  2  0  0  0
 25 22  1  0  0  0
 22 24  2  0  0  0
 38 37  1  0  0  0
 33 38  1  0  0  0
 35 33  2  0  0  0
 33 34  1  0  0  0
 39 35  1  0  0  0
 40 39  1  0  0  0
 26 36  1  0  0  0
  9  8  1  0  0  0
 16  9  1  0  0  0
 10  9  2  0  0  0
  8 11  1  0  0  0
M  END
> <minimizedAffinity>
-9.48205

$$$$
3U6H_03X_A_1


 40 44  0  0  0  0  0  0  0  0999 V2000
   22.2037    4.2479  -17.3946 C   0  0  0  0  0  0  0  0  0  0  0  0
   22.0033    5.5734  -17.7596 C   0  0  0  0  0  0  0  0  0  0  0  0
   21.2774    4.9184  -19.9655 C   0  0  0  0  0  0  0  0  0  0  0  0
   21.9442    3.2333  -18.3282 C   0  0  0  0  0  0  0  0  0  0  0  0
   21.5327    5.9137  -19.0252 C   0  0  0  0  0  0  0  0  0  0  0  0
   22.2582    6.5379  -16.8694 F   0  0  0  0  0  0  0  0  0  0  0  0
   21.4726    3.5767  -19.6078 C   0  0  0  0  0  0  0  0  0  0  0  0
   20.7921    5.3287  -21.1499 N   0  0  0  0  0  0  0  0  0  0  0  0
   21.4706    5.8002  -22.2013 C   0  0  0  0  0  0  0  0  0  0  0  0
   22.6891    5.9432  -22.2496 O   0  0  0  0  0  0  0  0  0  0  0  0
   19.8148    5.2755  -21.2566 H   0  0  0  0  0  0  0  0  0  0  0  0
   19.9462    6.4899  -25.4827 N   0  0  0  0  0  0  0  0  0  0  0  0
   21.0327    6.2664  -24.7361 C   0  0  0  0  0  0  0  0  0  0  0  0
   19.2208    6.2369  -23.4941 C   0  0  0  0  0  0  0  0  0  0  0  0
   22.4793    6.2120  -25.2404 C   0  0  0  0  0  0  0  0  0  0  0  0
   20.6041    6.1121  -23.4284 C   0  0  0  0  0  0  0  0  0  0  0  0
   18.4371    6.1654  -22.5431 O   0  0  0  0  0  0  0  0  0  0  0  0
   19.9846    6.7329  -26.9738 C   0  0  0  0  0  0  0  0  0  0  0  0
   18.9160    6.4973  -24.7783 N   0  0  0  0  0  0  0  0  0  0  0  0
   17.6856    6.6222  -25.2807 C   0  0  0  0  0  0  0  0  0  0  0  0
   15.6725    5.3894  -25.9006 C   0  0  0  0  0  0  0  0  0  0  0  0
   15.8088    7.7787  -26.2323 C   0  0  0  0  0  0  0  0  0  0  0  0
   16.9630    5.4257  -25.3827 C   0  0  0  0  0  0  0  0  0  0  0  0
   15.0953    6.5807  -26.3250 C   0  0  0  0  0  0  0  0  0  0  0  0
   17.1058    7.8140  -25.7112 C   0  0  0  0  0  0  0  0  0  0  0  0
   22.6723    4.0004  -16.1269 O   0  0  0  0  0  0  0  0  0  0  0  0
   23.8247    0.2040  -14.9429 N   0  0  0  0  0  0  0  0  0  0  0  0
   22.8087    3.3770  -13.4372 C   0  0  0  0  0  0  0  0  0  0  0  0
   23.1213    2.4162  -14.4075 C   0  0  0  0  0  0  0  0  0  0  0  0
   23.5115    1.1346  -14.0167 C   0  0  0  0  0  0  0  0  0  0  0  0
   23.7776    0.4731  -16.2532 C   0  0  0  0  0  0  0  0  0  0  0  0
   23.3875    1.7382  -16.7024 C   0  0  0  0  0  0  0  0  0  0  0  0
   23.2660    1.7744  -11.6913 C   0  0  0  0  0  0  0  0  0  0  0  0
   23.5845    0.8169  -12.6578 C   0  0  0  0  0  0  0  0  0  0  0  0
   22.8827    3.0544  -12.0785 C   0  0  0  0  0  0  0  0  0  0  0  0
   23.0616    2.7356  -15.7705 C   0  0  0  0  0  0  0  0  0  0  0  0
   24.3238    0.5726   -9.9069 C   0  0  0  0  0  0  0  0  0  0  0  0
   23.3193    1.5119  -10.3472 O   0  0  0  0  0  0  0  0  0  0  0  0
   22.5736    3.9504  -11.0872 O   0  0  0  0  0  0  0  0  0  0  0  0
   23.6057    4.8921  -10.6972 C   0  0  0  0  0  0  0  0  0  0  0  0
 31 27  2  0  0  0
 30 27  1  0  0  0
 18 12  1  0  0  0
 12 13  1  0  0  0
 12 19  1  0  0  0
 28 29  2  0  0  0
 28 35  1  0  0  0
 36 29  1  0  0  0
 29 30  1  0  0  0
 30 34  2  0  0  0
 32 31  1  0  0  0
 36 32  2  0  0  0
  2  1  2  0  0  0
  4  1  1  0  0  0
  1 26  1  0  0  0
  5  2  1  0  0  0
  2  6  1  0  0  0
  8  3  1  0  0  0
  3  5  2  0  0  0
  3  7  1  0  0  0
  7  4  2  0  0  0
 15 13  1  0  0  0
 13 16  2  0  0  0
 19 14  1  0  0  0
 16 14  1  0  0  0
 14 17  2  0  0  0
 25 20  2  0  0  0
 19 20  1  0  0  0
 20 23  1  0  0  0
 24 21  1  0  0  0
 23 21  2  0  0  0
 25 22  1  0  0  0
 22 24  2  0  0  0
 38 37  1  0  0  0
 33 38  1  0  0  0
 35 33  2  0  0  0
 33 34  1  0  0  0
 39 35  1  0  0  0
 40 39  1  0  0  0
 26 36  1  0  0  0
  9  8  1  0  0  0
 16  9  1  0  0  0
 10  9  2  0  0  0
  8 11  1  0  0  0
M  END
> <minimizedAffinity>
-9.39675

$$$$
