3PO1_MKY_C_1
  RCSB PDB12061710173D
Coordinates from PDB:3PO1:C:1 Model:1 without hydrogens
 20 21  0  0  0  0            999 V2000
   19.8380  -12.0960   20.0850   C 0  0  0  0  0  0  0  0  0  0  0  0
   18.5770  -12.2900   20.9350   C 0  0  0  0  0  0  0  0  0  0  0  0
   17.5090  -11.4390   20.4140   O 0  0  0  0  0  0  0  0  0  0  0  0
   16.2900  -11.6030   20.9340   C 0  0  0  0  0  0  0  0  0  0  0  0
   16.1190  -12.2710   21.9490   O 0  0  0  0  0  0  0  0  0  0  0  0
   15.1420  -10.9060   20.2340   C 0  0  0  0  0  0  0  0  0  0  0  0
   10.7270   -8.9010   24.5660   O 0  0  0  0  0  0  0  0  0  0  0  0
   11.5110   -9.4980   23.6190   C 0  0  0  0  0  0  0  0  0  0  0  0
   12.5050   -8.7710   22.9760   C 0  0  0  0  0  0  0  0  0  0  0  0
   13.3250   -9.3340   22.0150   C 0  0  0  0  0  0  0  0  0  0  0  0
   13.1300  -10.6840   21.6570   C 0  0  0  0  0  0  0  0  0  0  0  0
   13.8930  -11.4370   20.7890   N 0  0  0  0  0  0  0  0  0  0  0  0
   13.6690  -12.7590   20.6360   C 0  0  0  0  0  0  0  0  0  0  0  0
   14.4340  -13.5860   19.9390   N 0  0  0  0  0  0  0  0  0  0  0  0
   14.2020  -14.9010   19.9260   C 0  0  0  0  0  0  0  0  0  0  0  0
   13.7690  -15.4820   21.1080   N 0  0  0  0  0  0  0  0  0  0  0  0
   14.4830  -15.6550   18.8070   N 0  0  0  0  0  0  0  0  0  0  0  0
   12.2280  -13.0550   21.6500   S 0  0  0  0  0  0  0  0  0  0  0  0
   12.1350  -11.4050   22.3370   C 0  0  0  0  0  0  0  0  0  0  0  0
   11.3210  -10.8380   23.2880   C 0  0  0  0  0  0  0  0  0  0  0  0
  1  2  1  0  0  0  0
  3  2  1  0  0  0  0
  3  4  1  0  0  0  0
  6  4  1  0  0  0  0
  4  5  2  0  0  0  0
  6 12  1  0  0  0  0
  8  7  1  0  0  0  0
  9  8  2  0  0  0  0
 20  8  1  0  0  0  0
 10  9  1  0  0  0  0
 11 10  2  0  0  0  0
 12 11  1  0  0  0  0
 11 19  1  0  0  0  0
 13 12  1  0  0  0  0
 14 13  2  0  0  0  0
 13 18  1  0  0  0  0
 15 14  1  0  0  0  0
 17 15  2  0  0  0  0
 15 16  1  0  0  0  0
 18 19  1  0  0  0  0
 19 20  2  0  0  0  0
A    1
C1
A    2
C2
A    3
O3
A    4
C4
A    5
O5
A    6
C6
A    7
O7
A    8
C8
A    9
C9
A   10
C10
A   11
C11
A   12
N12
A   13
C13
A   14
N14
A   15
C15
A   16
N16
A   17
N17
A   18
S18
A   19
C19
A   20
C20
M  END
>  <InstanceId>
3PO1_MKY_C_1

>  <ChemCompId>
MKY

>  <PdbId>
3PO1

>  <ChainId>
C

>  <ResidueNumber>
1

>  <InsertionCode>


>  <Model>
1

>  <AltIds>


>  <MissingHeavyAtoms>
0

>  <ObservedFormula>
C12 N4 O3 S

>  <Name>
ethyl [(2Z)-2-(carbamimidoylimino)-6-hydroxy-1,3-benzothiazol-3(2H)-yl]acetate

>  <SystematicName>
ethyl 2-[(2Z)-2-carbamimidoylimino-6-hydroxy-1,3-benzothiazol-3-yl]ethanoate

>  <Synonyms>


>  <Type>
NON-POLYMER

>  <Formula>
C12 H14 N4 O3 S

>  <MolecularWeight>
294.33

>  <ModifiedDate>
2011-11-18

>  <Parent>


>  <OneLetterCode>


>  <SubcomponentList>


>  <AmbiguousFlag>
N

>  <InChI>
InChI=1S/C12H14N4O3S/c1-2-19-10(18)6-16-8-4-3-7(17)5-9(8)20-12(16)15-11(13)14/h3-5,17H,2,6H2,1H3,(H3,13,14)/b15-12-

>  <InChIKey>
QHEKEKSMRXTAKP-QINSGFPZSA-N

>  <SMILES>
[H]/N=C(\N)/N=C\1/N(c2ccc(cc2S1)O)CC(=O)OCC

$$$$
