3PO1_MKY_C_1


 24 25  0  0  0  0  0  0  0  0999 V2000
   10.7625   -9.4700   23.9266 O   0  0  0  0  0  0  0  0  0  0  0  0
   11.5448  -10.1120   23.0081 C   0  0  0  0  0  0  0  0  0  0  0  0
   12.5390   -9.4174   22.3305 C   0  0  0  0  0  0  0  0  0  0  0  0
   13.3573  -10.0262   21.3964 C   0  0  0  0  0  0  0  0  0  0  0  0
   13.1604  -11.3913   21.1027 C   0  0  0  0  0  0  0  0  0  0  0  0
   13.9216  -12.1854   20.2705 N   0  0  0  0  0  0  0  0  0  0  0  0
   13.6959  -13.5129   20.1803 C   0  0  0  0  0  0  0  0  0  0  0  0
   14.4592  -14.3728   19.5224 N   0  0  0  0  0  0  0  0  0  0  0  0
   12.2555  -13.7589   21.2086 S   0  0  0  0  0  0  0  0  0  0  0  0
   12.1652  -12.0782   21.8170 C   0  0  0  0  0  0  0  0  0  0  0  0
   11.3529  -11.4659   22.7409 C   0  0  0  0  0  0  0  0  0  0  0  0
   10.8968   -8.5593   24.1016 H   0  0  0  0  0  0  0  0  0  0  0  0
   14.2256  -15.6867   19.5717 C   0  0  0  0  0  0  0  0  0  0  0  0
   15.0784  -16.4554   20.3489 N   0  0  0  0  0  0  0  0  0  0  0  0
   13.2381  -16.2563   18.7971 N   0  0  0  0  0  0  0  0  0  0  0  0
   15.7749  -16.0210   20.8924 H   0  0  0  0  0  0  0  0  0  0  0  0
   14.9875  -17.4356   20.3572 H   0  0  0  0  0  0  0  0  0  0  0  0
   12.6469  -15.6854   18.2551 H   0  0  0  0  0  0  0  0  0  0  0  0
   15.1706  -11.6828   19.6898 C   0  0  0  0  0  0  0  0  0  0  0  0
   16.2552  -11.8244   20.7374 C   0  0  0  0  0  0  0  0  0  0  0  0
   16.0240  -12.2892   21.8492 O   0  0  0  0  0  0  0  0  0  0  0  0
   17.4768  -11.3959   20.4098 O   0  0  0  0  0  0  0  0  0  0  0  0
   19.8241  -11.9499   20.0252 C   0  0  0  0  0  0  0  0  0  0  0  0
   18.6125  -12.1449   20.9442 C   0  0  0  0  0  0  0  0  0  0  0  0
 23 24  1  0  0  0
 22 24  1  0  0  0
 22 20  1  0  0  0
 19 20  1  0  0  0
 20 21  2  0  0  0
 19  6  1  0  0  0
  2  1  1  0  0  0
  3  2  2  0  0  0
 11  2  1  0  0  0
  4  3  1  0  0  0
  5  4  2  0  0  0
  6  5  1  0  0  0
  5 10  1  0  0  0
  7  6  1  0  0  0
  8  7  2  0  0  0
  7  9  1  0  0  0
 13  8  1  0  0  0
 15 13  2  0  0  0
 13 14  1  0  0  0
  9 10  1  0  0  0
 10 11  2  0  0  0
  1 12  1  0  0  0
 14 16  1  0  0  0
 14 17  1  0  0  0
 15 18  1  0  0  0
M  END
> <minimizedAffinity>
-7.81777

$$$$
3PO1_MKY_C_1


 24 25  0  0  0  0  0  0  0  0999 V2000
   20.1779  -13.3074   21.9061 O   0  0  0  0  0  0  0  0  0  0  0  0
   18.8498  -13.1836   21.6084 C   0  0  0  0  0  0  0  0  0  0  0  0
   18.3131  -11.9359   21.3166 C   0  0  0  0  0  0  0  0  0  0  0  0
   16.9766  -11.7631   21.0054 C   0  0  0  0  0  0  0  0  0  0  0  0
   16.1241  -12.8864   21.0090 C   0  0  0  0  0  0  0  0  0  0  0  0
   14.7935  -12.9268   20.6478 N   0  0  0  0  0  0  0  0  0  0  0  0
   14.1292  -14.0994   20.5754 C   0  0  0  0  0  0  0  0  0  0  0  0
   12.9002  -14.2513   20.1049 N   0  0  0  0  0  0  0  0  0  0  0  0
   15.3303  -15.2918   21.1479 S   0  0  0  0  0  0  0  0  0  0  0  0
   16.6937  -14.1403   21.2839 C   0  0  0  0  0  0  0  0  0  0  0  0
   18.0218  -14.3041   21.5964 C   0  0  0  0  0  0  0  0  0  0  0  0
   20.7293  -12.5498   21.9125 H   0  0  0  0  0  0  0  0  0  0  0  0
   12.3546  -15.4624   19.9679 C   0  0  0  0  0  0  0  0  0  0  0  0
   12.2518  -15.9718   18.6826 N   0  0  0  0  0  0  0  0  0  0  0  0
   11.8264  -16.1243   21.0554 N   0  0  0  0  0  0  0  0  0  0  0  0
   12.6387  -15.4770   17.9246 H   0  0  0  0  0  0  0  0  0  0  0  0
   11.7917  -16.8284   18.5279 H   0  0  0  0  0  0  0  0  0  0  0  0
   11.9145  -15.7386   21.9569 H   0  0  0  0  0  0  0  0  0  0  0  0
   14.1417  -11.7560   20.0526 C   0  0  0  0  0  0  0  0  0  0  0  0
   13.7311  -10.8338   21.1816 C   0  0  0  0  0  0  0  0  0  0  0  0
   14.0243   -9.6423   21.1829 O   0  0  0  0  0  0  0  0  0  0  0  0
   13.0549  -11.3783   22.1963 O   0  0  0  0  0  0  0  0  0  0  0  0
   11.4538  -10.0247   23.4486 C   0  0  0  0  0  0  0  0  0  0  0  0
   11.6382  -11.0382   22.3132 C   0  0  0  0  0  0  0  0  0  0  0  0
 23 24  1  0  0  0
 22 24  1  0  0  0
 22 20  1  0  0  0
 19 20  1  0  0  0
 20 21  2  0  0  0
 19  6  1  0  0  0
  2  1  1  0  0  0
  3  2  2  0  0  0
 11  2  1  0  0  0
  4  3  1  0  0  0
  5  4  2  0  0  0
  6  5  1  0  0  0
  5 10  1  0  0  0
  7  6  1  0  0  0
  8  7  2  0  0  0
  7  9  1  0  0  0
 13  8  1  0  0  0
 15 13  2  0  0  0
 13 14  1  0  0  0
  9 10  1  0  0  0
 10 11  2  0  0  0
  1 12  1  0  0  0
 14 16  1  0  0  0
 14 17  1  0  0  0
 15 18  1  0  0  0
M  END
> <minimizedAffinity>
-7.50405

$$$$
3PO1_MKY_C_1


 24 25  0  0  0  0  0  0  0  0999 V2000
   12.3551  -17.5515   20.2321 O   0  0  0  0  0  0  0  0  0  0  0  0
   12.9356  -16.3239   20.3869 C   0  0  0  0  0  0  0  0  0  0  0  0
   14.2804  -16.1449   20.0881 C   0  0  0  0  0  0  0  0  0  0  0  0
   14.9090  -14.9205   20.2250 C   0  0  0  0  0  0  0  0  0  0  0  0
   14.1674  -13.8226   20.7079 C   0  0  0  0  0  0  0  0  0  0  0  0
   14.5932  -12.5165   20.8326 N   0  0  0  0  0  0  0  0  0  0  0  0
   13.7352  -11.5379   21.1896 C   0  0  0  0  0  0  0  0  0  0  0  0
   14.0162  -10.2433   21.1975 N   0  0  0  0  0  0  0  0  0  0  0  0
   12.2143  -12.4181   21.5130 S   0  0  0  0  0  0  0  0  0  0  0  0
   12.8044  -14.0219   20.9810 C   0  0  0  0  0  0  0  0  0  0  0  0
   12.1872  -15.2423   20.8466 C   0  0  0  0  0  0  0  0  0  0  0  0
   12.8641  -18.2747   19.9225 H   0  0  0  0  0  0  0  0  0  0  0  0
   13.0772   -9.3312   21.4610 C   0  0  0  0  0  0  0  0  0  0  0  0
   12.3771   -8.8098   20.3838 N   0  0  0  0  0  0  0  0  0  0  0  0
   12.8918   -8.8609   22.7432 N   0  0  0  0  0  0  0  0  0  0  0  0
   12.5301   -9.1655   19.4787 H   0  0  0  0  0  0  0  0  0  0  0  0
   11.7269   -8.0840   20.5241 H   0  0  0  0  0  0  0  0  0  0  0  0
   13.4031   -9.2503   23.4891 H   0  0  0  0  0  0  0  0  0  0  0  0
   15.8959  -12.0984   20.3052 C   0  0  0  0  0  0  0  0  0  0  0  0
   16.9042  -12.2061   21.4301 C   0  0  0  0  0  0  0  0  0  0  0  0
   16.6310  -12.7538   22.4936 O   0  0  0  0  0  0  0  0  0  0  0  0
   18.1030  -11.6539   21.2271 O   0  0  0  0  0  0  0  0  0  0  0  0
   20.1204  -11.8086   19.8595 C   0  0  0  0  0  0  0  0  0  0  0  0
   19.1902  -12.5462   20.8295 C   0  0  0  0  0  0  0  0  0  0  0  0
 23 24  1  0  0  0
 22 24  1  0  0  0
 22 20  1  0  0  0
 19 20  1  0  0  0
 20 21  2  0  0  0
 19  6  1  0  0  0
  2  1  1  0  0  0
  3  2  2  0  0  0
 11  2  1  0  0  0
  4  3  1  0  0  0
  5  4  2  0  0  0
  6  5  1  0  0  0
  5 10  1  0  0  0
  7  6  1  0  0  0
  8  7  2  0  0  0
  7  9  1  0  0  0
 13  8  1  0  0  0
 15 13  2  0  0  0
 13 14  1  0  0  0
  9 10  1  0  0  0
 10 11  2  0  0  0
  1 12  1  0  0  0
 14 16  1  0  0  0
 14 17  1  0  0  0
 15 18  1  0  0  0
M  END
> <minimizedAffinity>
-7.24230

$$$$
3PO1_MKY_C_1


 24 25  0  0  0  0  0  0  0  0999 V2000
   10.7588   -9.3177   24.0061 O   0  0  0  0  0  0  0  0  0  0  0  0
   11.5551   -9.9500   23.0929 C   0  0  0  0  0  0  0  0  0  0  0  0
   12.5298   -9.2381   22.4050 C   0  0  0  0  0  0  0  0  0  0  0  0
   13.3613   -9.8365   21.4757 C   0  0  0  0  0  0  0  0  0  0  0  0
   13.1984  -11.2094   21.1980 C   0  0  0  0  0  0  0  0  0  0  0  0
   13.9776  -11.9933   20.3729 N   0  0  0  0  0  0  0  0  0  0  0  0
   13.7855  -13.3271   20.2982 C   0  0  0  0  0  0  0  0  0  0  0  0
   14.5689  -14.1748   19.6481 N   0  0  0  0  0  0  0  0  0  0  0  0
   12.3542  -13.5978   21.3328 S   0  0  0  0  0  0  0  0  0  0  0  0
   12.2226  -11.9132   21.9224 C   0  0  0  0  0  0  0  0  0  0  0  0
   11.3970  -11.3113   22.8415 C   0  0  0  0  0  0  0  0  0  0  0  0
   10.8703   -8.4020   24.1704 H   0  0  0  0  0  0  0  0  0  0  0  0
   14.3689  -15.4935   19.7128 C   0  0  0  0  0  0  0  0  0  0  0  0
   15.2215  -16.2269   20.5235 N   0  0  0  0  0  0  0  0  0  0  0  0
   13.4169  -16.1013   18.9229 N   0  0  0  0  0  0  0  0  0  0  0  0
   15.8921  -15.7656   21.0773 H   0  0  0  0  0  0  0  0  0  0  0  0
   15.1563  -17.2090   20.5454 H   0  0  0  0  0  0  0  0  0  0  0  0
   12.8249  -15.5549   18.3570 H   0  0  0  0  0  0  0  0  0  0  0  0
   15.2122  -11.4658   19.7834 C   0  0  0  0  0  0  0  0  0  0  0  0
   14.8673  -10.9001   18.4216 C   0  0  0  0  0  0  0  0  0  0  0  0
   13.7521  -10.4542   18.1698 O   0  0  0  0  0  0  0  0  0  0  0  0
   15.8240  -10.9300   17.4904 O   0  0  0  0  0  0  0  0  0  0  0  0
   16.7986   -9.7578   15.5825 C   0  0  0  0  0  0  0  0  0  0  0  0
   15.5141  -10.3275   16.1953 C   0  0  0  0  0  0  0  0  0  0  0  0
 23 24  1  0  0  0
 22 24  1  0  0  0
 22 20  1  0  0  0
 19 20  1  0  0  0
 20 21  2  0  0  0
 19  6  1  0  0  0
  2  1  1  0  0  0
  3  2  2  0  0  0
 11  2  1  0  0  0
  4  3  1  0  0  0
  5  4  2  0  0  0
  6  5  1  0  0  0
  5 10  1  0  0  0
  7  6  1  0  0  0
  8  7  2  0  0  0
  7  9  1  0  0  0
 13  8  1  0  0  0
 15 13  2  0  0  0
 13 14  1  0  0  0
  9 10  1  0  0  0
 10 11  2  0  0  0
  1 12  1  0  0  0
 14 16  1  0  0  0
 14 17  1  0  0  0
 15 18  1  0  0  0
M  END
> <minimizedAffinity>
-6.73648

$$$$
3PO1_MKY_C_1


 24 25  0  0  0  0  0  0  0  0999 V2000
   19.8429  -14.3674   21.6641 O   0  0  0  0  0  0  0  0  0  0  0  0
   18.5092  -14.1162   21.5029 C   0  0  0  0  0  0  0  0  0  0  0  0
   17.5976  -15.1644   21.4920 C   0  0  0  0  0  0  0  0  0  0  0  0
   16.2389  -14.9578   21.3363 C   0  0  0  0  0  0  0  0  0  0  0  0
   15.7646  -13.6419   21.1574 C   0  0  0  0  0  0  0  0  0  0  0  0
   14.4505  -13.2319   21.0699 N   0  0  0  0  0  0  0  0  0  0  0  0
   14.1339  -11.9207   21.0280 C   0  0  0  0  0  0  0  0  0  0  0  0
   12.9042  -11.4313   21.0864 N   0  0  0  0  0  0  0  0  0  0  0  0
   15.7261  -11.1112   20.9851 S   0  0  0  0  0  0  0  0  0  0  0  0
   16.7019  -12.5967   21.1955 C   0  0  0  0  0  0  0  0  0  0  0  0
   18.0511  -12.8097   21.3464 C   0  0  0  0  0  0  0  0  0  0  0  0
   20.1444  -15.2484   21.7689 H   0  0  0  0  0  0  0  0  0  0  0  0
   12.6832  -10.1158   21.1472 C   0  0  0  0  0  0  0  0  0  0  0  0
   12.2697   -9.5960   22.3642 N   0  0  0  0  0  0  0  0  0  0  0  0
   12.7671   -9.3342   20.0151 N   0  0  0  0  0  0  0  0  0  0  0  0
   12.2193  -10.1782   23.1565 H   0  0  0  0  0  0  0  0  0  0  0  0
   12.0264   -8.6448   22.4361 H   0  0  0  0  0  0  0  0  0  0  0  0
   13.0641   -9.7305   19.1642 H   0  0  0  0  0  0  0  0  0  0  0  0
   13.3531  -14.1731   21.3143 C   0  0  0  0  0  0  0  0  0  0  0  0
   12.7976  -14.5921   19.9691 C   0  0  0  0  0  0  0  0  0  0  0  0
   11.6912  -14.2273   19.5839 O   0  0  0  0  0  0  0  0  0  0  0  0
   13.5543  -15.4020   19.2242 O   0  0  0  0  0  0  0  0  0  0  0  0
   12.5319  -17.5748   18.7796 C   0  0  0  0  0  0  0  0  0  0  0  0
   13.5848  -16.8154   19.5951 C   0  0  0  0  0  0  0  0  0  0  0  0
 23 24  1  0  0  0
 22 24  1  0  0  0
 22 20  1  0  0  0
 19 20  1  0  0  0
 20 21  2  0  0  0
 19  6  1  0  0  0
  2  1  1  0  0  0
  3  2  2  0  0  0
 11  2  1  0  0  0
  4  3  1  0  0  0
  5  4  2  0  0  0
  6  5  1  0  0  0
  5 10  1  0  0  0
  7  6  1  0  0  0
  8  7  2  0  0  0
  7  9  1  0  0  0
 13  8  1  0  0  0
 15 13  2  0  0  0
 13 14  1  0  0  0
  9 10  1  0  0  0
 10 11  2  0  0  0
  1 12  1  0  0  0
 14 16  1  0  0  0
 14 17  1  0  0  0
 15 18  1  0  0  0
M  END
> <minimizedAffinity>
-6.56954

$$$$
3PO1_MKY_C_1


 24 25  0  0  0  0  0  0  0  0999 V2000
   14.0427  -10.9368   19.0041 O   0  0  0  0  0  0  0  0  0  0  0  0
   14.8863  -11.7038   19.7577 C   0  0  0  0  0  0  0  0  0  0  0  0
   15.9786  -11.1241   20.3909 C   0  0  0  0  0  0  0  0  0  0  0  0
   16.8562  -11.8595   21.1668 C   0  0  0  0  0  0  0  0  0  0  0  0
   16.6509  -13.2483   21.2997 C   0  0  0  0  0  0  0  0  0  0  0  0
   17.3630  -14.1265   22.0898 N   0  0  0  0  0  0  0  0  0  0  0  0
   16.9758  -15.4126   22.2209 C   0  0  0  0  0  0  0  0  0  0  0  0
   17.5086  -16.2871   23.0614 N   0  0  0  0  0  0  0  0  0  0  0  0
   15.5863  -15.5427   21.1052 S   0  0  0  0  0  0  0  0  0  0  0  0
   15.5272  -13.8077   20.6699 C   0  0  0  0  0  0  0  0  0  0  0  0
   14.6616  -13.0717   19.8969 C   0  0  0  0  0  0  0  0  0  0  0  0
   14.1995  -10.0174   18.9145 H   0  0  0  0  0  0  0  0  0  0  0  0
   16.9959  -17.5116   23.2059 C   0  0  0  0  0  0  0  0  0  0  0  0
   17.4823  -18.5071   22.3725 N   0  0  0  0  0  0  0  0  0  0  0  0
   15.9550  -17.7410   24.0798 N   0  0  0  0  0  0  0  0  0  0  0  0
   18.2271  -18.3144   21.7582 H   0  0  0  0  0  0  0  0  0  0  0  0
   17.0829  -19.4066   22.3950 H   0  0  0  0  0  0  0  0  0  0  0  0
   15.6302  -17.0150   24.6600 H   0  0  0  0  0  0  0  0  0  0  0  0
   18.3730  -13.6371   23.0333 C   0  0  0  0  0  0  0  0  0  0  0  0
   19.7239  -13.7404   22.3565 C   0  0  0  0  0  0  0  0  0  0  0  0
   19.8381  -14.1172   21.1943 O   0  0  0  0  0  0  0  0  0  0  0  0
   20.7964  -13.4281   23.0884 O   0  0  0  0  0  0  0  0  0  0  0  0
   21.0275  -12.8453   25.4487 C   0  0  0  0  0  0  0  0  0  0  0  0
   20.8697  -13.9864   24.4371 C   0  0  0  0  0  0  0  0  0  0  0  0
 23 24  1  0  0  0
 22 24  1  0  0  0
 22 20  1  0  0  0
 19 20  1  0  0  0
 20 21  2  0  0  0
 19  6  1  0  0  0
  2  1  1  0  0  0
  3  2  2  0  0  0
 11  2  1  0  0  0
  4  3  1  0  0  0
  5  4  2  0  0  0
  6  5  1  0  0  0
  5 10  1  0  0  0
  7  6  1  0  0  0
  8  7  2  0  0  0
  7  9  1  0  0  0
 13  8  1  0  0  0
 15 13  2  0  0  0
 13 14  1  0  0  0
  9 10  1  0  0  0
 10 11  2  0  0  0
  1 12  1  0  0  0
 14 16  1  0  0  0
 14 17  1  0  0  0
 15 18  1  0  0  0
M  END
> <minimizedAffinity>
-6.39996

$$$$
3PO1_MKY_C_1


 24 25  0  0  0  0  0  0  0  0999 V2000
   13.2707  -10.1762   20.0805 O   0  0  0  0  0  0  0  0  0  0  0  0
   13.8753  -11.3618   20.3915 C   0  0  0  0  0  0  0  0  0  0  0  0
   13.1945  -12.5599   20.2153 C   0  0  0  0  0  0  0  0  0  0  0  0
   13.7673  -13.7834   20.5120 C   0  0  0  0  0  0  0  0  0  0  0  0
   15.0767  -13.8154   21.0345 C   0  0  0  0  0  0  0  0  0  0  0  0
   15.8392  -14.9311   21.3108 N   0  0  0  0  0  0  0  0  0  0  0  0
   17.1296  -14.8139   21.6883 C   0  0  0  0  0  0  0  0  0  0  0  0
   17.9750  -15.8230   21.8364 N   0  0  0  0  0  0  0  0  0  0  0  0
   17.3663  -13.0472   21.8111 S   0  0  0  0  0  0  0  0  0  0  0  0
   15.7534  -12.5936   21.1818 C   0  0  0  0  0  0  0  0  0  0  0  0
   15.1766  -11.3812   20.8889 C   0  0  0  0  0  0  0  0  0  0  0  0
   12.3953  -10.1701   19.7464 H   0  0  0  0  0  0  0  0  0  0  0  0
   19.2653  -15.6127   22.1088 C   0  0  0  0  0  0  0  0  0  0  0  0
   20.1497  -15.6184   21.0411 N   0  0  0  0  0  0  0  0  0  0  0  0
   19.7009  -15.4982   23.4114 N   0  0  0  0  0  0  0  0  0  0  0  0
   19.8099  -15.7015   20.1208 H   0  0  0  0  0  0  0  0  0  0  0  0
   21.1176  -15.5393   21.2032 H   0  0  0  0  0  0  0  0  0  0  0  0
   19.0497  -15.4971   24.1499 H   0  0  0  0  0  0  0  0  0  0  0  0
   15.3782  -16.2689   20.9262 C   0  0  0  0  0  0  0  0  0  0  0  0
   14.6024  -16.8420   22.0939 C   0  0  0  0  0  0  0  0  0  0  0  0
   15.1573  -17.1857   23.1330 O   0  0  0  0  0  0  0  0  0  0  0  0
   13.2839  -16.9840   21.9371 O   0  0  0  0  0  0  0  0  0  0  0  0
   11.3827  -16.7376   20.4242 C   0  0  0  0  0  0  0  0  0  0  0  0
   12.8012  -17.2941   20.5928 C   0  0  0  0  0  0  0  0  0  0  0  0
 23 24  1  0  0  0
 22 24  1  0  0  0
 22 20  1  0  0  0
 19 20  1  0  0  0
 20 21  2  0  0  0
 19  6  1  0  0  0
  2  1  1  0  0  0
  3  2  2  0  0  0
 11  2  1  0  0  0
  4  3  1  0  0  0
  5  4  2  0  0  0
  6  5  1  0  0  0
  5 10  1  0  0  0
  7  6  1  0  0  0
  8  7  2  0  0  0
  7  9  1  0  0  0
 13  8  1  0  0  0
 15 13  2  0  0  0
 13 14  1  0  0  0
  9 10  1  0  0  0
 10 11  2  0  0  0
  1 12  1  0  0  0
 14 16  1  0  0  0
 14 17  1  0  0  0
 15 18  1  0  0  0
M  END
> <minimizedAffinity>
-6.22349

$$$$
3PO1_MKY_C_1


 24 25  0  0  0  0  0  0  0  0999 V2000
   20.1613  -15.7999   23.2749 O   0  0  0  0  0  0  0  0  0  0  0  0
   18.9411  -15.5333   22.7199 C   0  0  0  0  0  0  0  0  0  0  0  0
   18.0688  -16.5719   22.4194 C   0  0  0  0  0  0  0  0  0  0  0  0
   16.8228  -16.3497   21.8616 C   0  0  0  0  0  0  0  0  0  0  0  0
   16.4341  -15.0271   21.5641 C   0  0  0  0  0  0  0  0  0  0  0  0
   15.2113  -14.6027   21.0874 N   0  0  0  0  0  0  0  0  0  0  0  0
   14.9312  -13.2879   20.9682 C   0  0  0  0  0  0  0  0  0  0  0  0
   13.7452  -12.7865   20.6571 N   0  0  0  0  0  0  0  0  0  0  0  0
   16.4668  -12.4946   21.4207 S   0  0  0  0  0  0  0  0  0  0  0  0
   17.3227  -13.9922   21.8982 C   0  0  0  0  0  0  0  0  0  0  0  0
   18.5610  -14.2206   22.4485 C   0  0  0  0  0  0  0  0  0  0  0  0
   20.4108  -16.6850   23.4548 H   0  0  0  0  0  0  0  0  0  0  0  0
   13.5251  -11.4694   20.6648 C   0  0  0  0  0  0  0  0  0  0  0  0
   13.7911  -10.7734   19.4957 N   0  0  0  0  0  0  0  0  0  0  0  0
   13.1470  -10.8250   21.8230 N   0  0  0  0  0  0  0  0  0  0  0  0
   14.0594  -11.2603   18.6831 H   0  0  0  0  0  0  0  0  0  0  0  0
   13.7118   -9.7922   19.4780 H   0  0  0  0  0  0  0  0  0  0  0  0
   12.9643  -11.3453   22.6386 H   0  0  0  0  0  0  0  0  0  0  0  0
   14.0851  -15.5349   20.9752 C   0  0  0  0  0  0  0  0  0  0  0  0
   13.9264  -15.8914   19.5119 C   0  0  0  0  0  0  0  0  0  0  0  0
   14.8707  -16.2891   18.8368 O   0  0  0  0  0  0  0  0  0  0  0  0
   12.7147  -15.7296   18.9744 O   0  0  0  0  0  0  0  0  0  0  0  0
   10.4301  -16.5586   18.7344 C   0  0  0  0  0  0  0  0  0  0  0  0
   11.9164  -16.9337   18.7528 C   0  0  0  0  0  0  0  0  0  0  0  0
 23 24  1  0  0  0
 22 24  1  0  0  0
 22 20  1  0  0  0
 19 20  1  0  0  0
 20 21  2  0  0  0
 19  6  1  0  0  0
  2  1  1  0  0  0
  3  2  2  0  0  0
 11  2  1  0  0  0
  4  3  1  0  0  0
  5  4  2  0  0  0
  6  5  1  0  0  0
  5 10  1  0  0  0
  7  6  1  0  0  0
  8  7  2  0  0  0
  7  9  1  0  0  0
 13  8  1  0  0  0
 15 13  2  0  0  0
 13 14  1  0  0  0
  9 10  1  0  0  0
 10 11  2  0  0  0
  1 12  1  0  0  0
 14 16  1  0  0  0
 14 17  1  0  0  0
 15 18  1  0  0  0
M  END
> <minimizedAffinity>
-5.96776

$$$$
3PO1_MKY_C_1


 24 25  0  0  0  0  0  0  0  0999 V2000
   15.3017  -10.0764   20.7940 O   0  0  0  0  0  0  0  0  0  0  0  0
   15.2085  -11.4396   20.7620 C   0  0  0  0  0  0  0  0  0  0  0  0
   14.0950  -12.0502   20.1986 C   0  0  0  0  0  0  0  0  0  0  0  0
   13.9594  -13.4254   20.1400 C   0  0  0  0  0  0  0  0  0  0  0  0
   14.9728  -14.2355   20.6928 C   0  0  0  0  0  0  0  0  0  0  0  0
   15.0551  -15.6119   20.6567 N   0  0  0  0  0  0  0  0  0  0  0  0
   16.1498  -16.2540   21.1156 C   0  0  0  0  0  0  0  0  0  0  0  0
   16.3784  -17.5531   20.9938 N   0  0  0  0  0  0  0  0  0  0  0  0
   17.1566  -14.9348   21.7778 S   0  0  0  0  0  0  0  0  0  0  0  0
   16.0993  -13.5963   21.2356 C   0  0  0  0  0  0  0  0  0  0  0  0
   16.2256  -12.2292   21.2943 C   0  0  0  0  0  0  0  0  0  0  0  0
   14.6142   -9.5513   20.4343 H   0  0  0  0  0  0  0  0  0  0  0  0
   17.5369  -18.0930   21.3807 C   0  0  0  0  0  0  0  0  0  0  0  0
   18.5300  -18.2218   20.4219 N   0  0  0  0  0  0  0  0  0  0  0  0
   17.6909  -18.5910   22.6566 N   0  0  0  0  0  0  0  0  0  0  0  0
   18.3923  -17.8561   19.5183 H   0  0  0  0  0  0  0  0  0  0  0  0
   19.3730  -18.6790   20.6447 H   0  0  0  0  0  0  0  0  0  0  0  0
   16.9685  -18.4848   23.3170 H   0  0  0  0  0  0  0  0  0  0  0  0
   14.1062  -16.3997   19.8637 C   0  0  0  0  0  0  0  0  0  0  0  0
   12.9109  -16.7022   20.7432 C   0  0  0  0  0  0  0  0  0  0  0  0
   12.9832  -17.4831   21.6870 O   0  0  0  0  0  0  0  0  0  0  0  0
   11.7596  -16.1012   20.4325 O   0  0  0  0  0  0  0  0  0  0  0  0
   10.1512  -16.7096   18.6984 C   0  0  0  0  0  0  0  0  0  0  0  0
   11.4464  -15.9519   19.0126 C   0  0  0  0  0  0  0  0  0  0  0  0
 23 24  1  0  0  0
 22 24  1  0  0  0
 22 20  1  0  0  0
 19 20  1  0  0  0
 20 21  2  0  0  0
 19  6  1  0  0  0
  2  1  1  0  0  0
  3  2  2  0  0  0
 11  2  1  0  0  0
  4  3  1  0  0  0
  5  4  2  0  0  0
  6  5  1  0  0  0
  5 10  1  0  0  0
  7  6  1  0  0  0
  8  7  2  0  0  0
  7  9  1  0  0  0
 13  8  1  0  0  0
 15 13  2  0  0  0
 13 14  1  0  0  0
  9 10  1  0  0  0
 10 11  2  0  0  0
  1 12  1  0  0  0
 14 16  1  0  0  0
 14 17  1  0  0  0
 15 18  1  0  0  0
M  END
> <minimizedAffinity>
-5.87483

$$$$
3PO1_MKY_C_1


 24 25  0  0  0  0  0  0  0  0999 V2000
   16.0046  -10.3391   20.3489 O   0  0  0  0  0  0  0  0  0  0  0  0
   16.6330  -11.4766   20.7723 C   0  0  0  0  0  0  0  0  0  0  0  0
   17.9944  -11.4606   21.0484 C   0  0  0  0  0  0  0  0  0  0  0  0
   18.6713  -12.5855   21.4834 C   0  0  0  0  0  0  0  0  0  0  0  0
   17.9621  -13.7959   21.6276 C   0  0  0  0  0  0  0  0  0  0  0  0
   18.4405  -14.9908   22.1233 N   0  0  0  0  0  0  0  0  0  0  0  0
   17.6144  -16.0384   22.3266 C   0  0  0  0  0  0  0  0  0  0  0  0
   17.9521  -17.1701   22.9267 N   0  0  0  0  0  0  0  0  0  0  0  0
   16.0453  -15.4558   21.7015 S   0  0  0  0  0  0  0  0  0  0  0  0
   16.5825  -13.7821   21.3653 C   0  0  0  0  0  0  0  0  0  0  0  0
   15.9171  -12.6615   20.9294 C   0  0  0  0  0  0  0  0  0  0  0  0
   16.4919   -9.5455   20.2454 H   0  0  0  0  0  0  0  0  0  0  0  0
   17.0455  -18.1162   23.1843 C   0  0  0  0  0  0  0  0  0  0  0  0
   16.8181  -19.0642   22.1985 N   0  0  0  0  0  0  0  0  0  0  0  0
   16.3003  -18.0811   24.3432 N   0  0  0  0  0  0  0  0  0  0  0  0
   17.3663  -19.0652   21.3807 H   0  0  0  0  0  0  0  0  0  0  0  0
   16.1085  -19.7364   22.3162 H   0  0  0  0  0  0  0  0  0  0  0  0
   16.4842  -17.3963   25.0261 H   0  0  0  0  0  0  0  0  0  0  0  0
   19.7788  -15.0750   22.7166 C   0  0  0  0  0  0  0  0  0  0  0  0
   19.7821  -14.2220   23.9681 C   0  0  0  0  0  0  0  0  0  0  0  0
   20.6835  -13.4237   24.2044 O   0  0  0  0  0  0  0  0  0  0  0  0
   18.7712  -14.3934   24.8236 O   0  0  0  0  0  0  0  0  0  0  0  0
   19.0591  -16.3670   26.2328 C   0  0  0  0  0  0  0  0  0  0  0  0
   19.1083  -14.8358   26.1752 C   0  0  0  0  0  0  0  0  0  0  0  0
 23 24  1  0  0  0
 22 24  1  0  0  0
 22 20  1  0  0  0
 19 20  1  0  0  0
 20 21  2  0  0  0
 19  6  1  0  0  0
  2  1  1  0  0  0
  3  2  2  0  0  0
 11  2  1  0  0  0
  4  3  1  0  0  0
  5  4  2  0  0  0
  6  5  1  0  0  0
  5 10  1  0  0  0
  7  6  1  0  0  0
  8  7  2  0  0  0
  7  9  1  0  0  0
 13  8  1  0  0  0
 15 13  2  0  0  0
 13 14  1  0  0  0
  9 10  1  0  0  0
 10 11  2  0  0  0
  1 12  1  0  0  0
 14 16  1  0  0  0
 14 17  1  0  0  0
 15 18  1  0  0  0
M  END
> <minimizedAffinity>
-5.84136

$$$$
