3U10_CMP_A_701
  RCSB PDB12061710583D
Coordinates from PDB:3U10:A:701 Model:1 without hydrogens
 22 25  0  0  0  0            999 V2000
   -7.2770  -23.1400   -7.4720   P 0  0  0  0  0  0  0  0  0  0  0  0
   -7.9230  -23.0200   -6.0810   O 0  0  0  0  0  0  0  0  0  0  0  0
   -6.6670  -24.4770   -7.6230   O 0  0  0  0  0  0  0  0  0  0  0  0
   -8.3270  -22.8030   -8.6170   O 0  0  0  0  0  0  0  0  0  0  0  0
   -8.9090  -21.5190   -8.7910   C 0  0  0  0  0  0  0  0  0  0  0  0
   -7.7440  -20.5820   -8.8650   C 0  0  0  0  0  0  0  0  0  0  0  0
   -8.1070  -19.2240   -8.8560   O 0  0  0  0  0  0  0  0  0  0  0  0
   -6.8420  -20.6900   -7.6540   C 0  0  0  0  0  0  0  0  0  0  0  0
   -6.2370  -21.9340   -7.5680   O 0  0  0  0  0  0  0  0  0  0  0  0
   -5.8980  -19.5640   -7.9220   C 0  0  0  0  0  0  0  0  0  0  0  0
   -4.7130  -19.9300   -8.6620   O 0  0  0  0  0  0  0  0  0  0  0  0
   -6.8280  -18.5710   -8.6370   C 0  0  0  0  0  0  0  0  0  0  0  0
   -6.9720  -17.4850   -7.6490   N 0  0  0  0  0  0  0  0  0  0  0  0
   -7.5970  -17.6290   -6.4530   C 0  0  0  0  0  0  0  0  0  0  0  0
   -7.5580  -16.4690   -5.7530   N 0  0  0  0  0  0  0  0  0  0  0  0
   -6.9000  -15.5550   -6.5060   C 0  0  0  0  0  0  0  0  0  0  0  0
   -6.5300  -14.1350   -6.3500   C 0  0  0  0  0  0  0  0  0  0  0  0
   -6.8380  -13.4320   -5.2140   N 0  0  0  0  0  0  0  0  0  0  0  0
   -5.8860  -13.5600   -7.4070   N 0  0  0  0  0  0  0  0  0  0  0  0
   -5.5600  -14.2340   -8.5480   C 0  0  0  0  0  0  0  0  0  0  0  0
   -5.8590  -15.5400   -8.7220   N 0  0  0  0  0  0  0  0  0  0  0  0
   -6.5190  -16.2320   -7.7600   C 0  0  0  0  0  0  0  0  0  0  0  0
  1  2  2  0  0  0  0
  1  3  1  0  0  0  0
  1  4  1  0  0  0  0
  1  9  1  0  0  0  0
  4  5  1  0  0  0  0
  5  6  1  0  0  0  0
  6  7  1  0  0  0  0
  6  8  1  0  0  0  0
  7 12  1  0  0  0  0
  8  9  1  0  0  0  0
  8 10  1  0  0  0  0
 10 11  1  0  0  0  0
 10 12  1  0  0  0  0
 12 13  1  0  0  0  0
 13 14  1  0  0  0  0
 13 22  1  0  0  0  0
 14 15  2  0  0  0  0
 15 16  1  0  0  0  0
 16 17  1  0  0  0  0
 16 22  2  0  0  0  0
 17 18  1  0  0  0  0
 17 19  2  0  0  0  0
 19 20  1  0  0  0  0
 20 21  2  0  0  0  0
 21 22  1  0  0  0  0
A    1
P
A    2
O1P
A    3
O2P
A    4
O5'
A    5
C5'
A    6
C4'
A    7
O4'
A    8
C3'
A    9
O3'
A   10
C2'
A   11
O2'
A   12
C1'
A   13
N9
A   14
C8
A   15
N7
A   16
C5
A   17
C6
A   18
N6
A   19
N1
A   20
C2
A   21
N3
A   22
C4
M  END
>  <InstanceId>
3U10_CMP_A_701

>  <ChemCompId>
CMP

>  <PdbId>
3U10

>  <ChainId>
A

>  <ResidueNumber>
701

>  <InsertionCode>


>  <Model>
1

>  <AltIds>


>  <MissingHeavyAtoms>
0

>  <ObservedFormula>
C10 N5 O6 P

>  <Name>
ADENOSINE-3',5'-CYCLIC-MONOPHOSPHATE

>  <SystematicName>
(1R,4R,6S,7R,8R)-8-(6-aminopurin-9-yl)-4-hydroxy-4-oxo-3,5,9-trioxa-4$l^{5}-phosphabicyclo[4.3.0]nonan-7-ol

>  <Synonyms>
CYCLIC AMP; CAMP

>  <Type>
NON-POLYMER

>  <Formula>
C10 H12 N5 O6 P

>  <MolecularWeight>
329.206

>  <ModifiedDate>
2011-06-04

>  <Parent>


>  <OneLetterCode>


>  <SubcomponentList>


>  <AmbiguousFlag>
N

>  <InChI>
InChI=1S/C10H12N5O6P/c11-8-5-9(13-2-12-8)15(3-14-5)10-6(16)7-4(20-10)1-19-22(17,18)21-7/h2-4,6-7,10,16H,1H2,(H,17,18)(H2,11,12,13)/t4-,6-,7-,10-/m1/s1

>  <InChIKey>
IVOMOUWHDPKRLL-KQYNXXCUSA-N

>  <SMILES>
c1nc(c2c(n1)n(cn2)[C@H]3[C@@H]([C@H]4[C@H](O3)CO[P@](=O)(O4)O)O)N

$$$$
