3U10_CMP_A_701


 26 29  0  0  0  0  0  0  0  0999 V2000
   -7.1386  -22.8355   -7.5683 P   0  0  0  0  0  0  0  0  0  0  0  0
   -7.7564  -22.7352   -6.1629 O   0  0  0  0  0  0  0  0  0  0  0  0
   -6.5088  -24.1606   -7.7409 O   0  0  0  0  0  0  0  0  0  0  0  0
   -8.2189  -22.5101   -8.6882 O   0  0  0  0  0  0  0  0  0  0  0  0
   -8.8269  -21.2355   -8.8415 C   0  0  0  0  0  0  0  0  0  0  0  0
   -7.6803  -20.2777   -8.9345 C   0  0  0  0  0  0  0  0  0  0  0  0
   -8.0667  -18.9264   -8.9091 O   0  0  0  0  0  0  0  0  0  0  0  0
   -6.7505  -20.3771   -7.7439 C   0  0  0  0  0  0  0  0  0  0  0  0
   -6.1222  -21.6108   -7.6789 O   0  0  0  0  0  0  0  0  0  0  0  0
   -5.8324  -19.2331   -8.0250 C   0  0  0  0  0  0  0  0  0  0  0  0
   -4.6574  -19.5737   -8.7927 O   0  0  0  0  0  0  0  0  0  0  0  0
   -6.7948  -18.2523   -8.7135 C   0  0  0  0  0  0  0  0  0  0  0  0
   -7.1841  -24.8524   -7.6613 H   0  0  0  0  0  0  0  0  0  0  0  0
   -4.9262  -19.9618   -9.6401 H   0  0  0  0  0  0  0  0  0  0  0  0
   -6.9364  -17.1750   -7.7157 N   0  0  0  0  0  0  0  0  0  0  0  0
   -7.7138  -17.2685   -6.6072 C   0  0  0  0  0  0  0  0  0  0  0  0
   -7.6317  -16.1333   -5.8713 N   0  0  0  0  0  0  0  0  0  0  0  0
   -6.7902  -15.2866   -6.5119 C   0  0  0  0  0  0  0  0  0  0  0  0
   -6.2869  -13.9209   -6.2684 C   0  0  0  0  0  0  0  0  0  0  0  0
   -6.6506  -13.2081   -5.1553 N   0  0  0  0  0  0  0  0  0  0  0  0
   -5.4599  -13.4039   -7.2231 N   0  0  0  0  0  0  0  0  0  0  0  0
   -5.0747  -14.0899   -8.3382 C   0  0  0  0  0  0  0  0  0  0  0  0
   -5.4931  -15.3501   -8.5875 N   0  0  0  0  0  0  0  0  0  0  0  0
   -6.3373  -15.9798   -7.7327 C   0  0  0  0  0  0  0  0  0  0  0  0
   -7.2492  -13.6118   -4.4860 H   0  0  0  0  0  0  0  0  0  0  0  0
   -6.3131  -12.2924   -5.0251 H   0  0  0  0  0  0  0  0  0  0  0  0
  1  2  2  0  0  0
  1  3  1  0  0  0
  1  4  1  0  0  0
  1  9  1  0  0  0
  4  5  1  0  0  0
  5  6  1  0  0  0
  6  7  1  0  0  0
  6  8  1  0  0  0
  7 12  1  0  0  0
  8  9  1  0  0  0
  8 10  1  0  0  0
 10 11  1  0  0  0
 10 12  1  0  0  0
 12 15  1  0  0  0
 15 16  1  0  0  0
 15 24  1  0  0  0
 16 17  2  0  0  0
 17 18  1  0  0  0
 18 19  1  0  0  0
 18 24  2  0  0  0
 19 20  1  0  0  0
 19 21  2  0  0  0
 21 22  1  0  0  0
 22 23  2  0  0  0
 23 24  1  0  0  0
  3 13  1  0  0  0
 11 14  1  0  0  0
 20 25  1  0  0  0
 20 26  1  0  0  0
M  END
> <minimizedAffinity>
-11.84584

$$$$
3U10_CMP_A_701


 26 29  0  0  0  0  0  0  0  0999 V2000
   -8.6885  -21.6120   -8.5063 P   0  0  0  0  0  0  0  0  0  0  0  0
   -8.6464  -21.3279  -10.0176 O   0  0  0  0  0  0  0  0  0  0  0  0
   -9.7748  -22.5686   -8.2105 O   0  0  0  0  0  0  0  0  0  0  0  0
   -7.2701  -22.1004   -7.9804 O   0  0  0  0  0  0  0  0  0  0  0  0
   -6.1100  -21.2807   -7.9845 C   0  0  0  0  0  0  0  0  0  0  0  0
   -6.5254  -20.0328   -7.2698 C   0  0  0  0  0  0  0  0  0  0  0  0
   -5.5683  -19.0045   -7.3210 O   0  0  0  0  0  0  0  0  0  0  0  0
   -7.7389  -19.3853   -7.9023 C   0  0  0  0  0  0  0  0  0  0  0  0
   -8.8639  -20.1891   -7.8065 O   0  0  0  0  0  0  0  0  0  0  0  0
   -7.8146  -18.1237   -7.1064 C   0  0  0  0  0  0  0  0  0  0  0  0
   -8.6450  -18.2002   -5.9272 O   0  0  0  0  0  0  0  0  0  0  0  0
   -6.3245  -17.8637   -6.8343 C   0  0  0  0  0  0  0  0  0  0  0  0
   -9.6011  -23.4064   -8.6674 H   0  0  0  0  0  0  0  0  0  0  0  0
   -8.3182  -18.9054   -5.3468 H   0  0  0  0  0  0  0  0  0  0  0  0
   -6.0418  -16.6742   -7.6599 N   0  0  0  0  0  0  0  0  0  0  0  0
   -5.6909  -16.7292   -8.9697 C   0  0  0  0  0  0  0  0  0  0  0  0
   -5.5121  -15.4811   -9.4672 N   0  0  0  0  0  0  0  0  0  0  0  0
   -5.7475  -14.6002   -8.4651 C   0  0  0  0  0  0  0  0  0  0  0  0
   -5.7168  -13.1312   -8.3283 C   0  0  0  0  0  0  0  0  0  0  0  0
   -5.4132  -12.3163   -9.3881 N   0  0  0  0  0  0  0  0  0  0  0  0
   -5.9855  -12.6356   -7.0854 N   0  0  0  0  0  0  0  0  0  0  0  0
   -6.2969  -13.4196   -6.0127 C   0  0  0  0  0  0  0  0  0  0  0  0
   -6.3591  -14.7664   -6.1002 N   0  0  0  0  0  0  0  0  0  0  0  0
   -6.0930  -15.3958   -7.2720 C   0  0  0  0  0  0  0  0  0  0  0  0
   -5.2246  -12.7074  -10.2717 H   0  0  0  0  0  0  0  0  0  0  0  0
   -5.3839  -11.3398   -9.2656 H   0  0  0  0  0  0  0  0  0  0  0  0
  1  2  2  0  0  0
  1  3  1  0  0  0
  1  4  1  0  0  0
  1  9  1  0  0  0
  4  5  1  0  0  0
  5  6  1  0  0  0
  6  7  1  0  0  0
  6  8  1  0  0  0
  7 12  1  0  0  0
  8  9  1  0  0  0
  8 10  1  0  0  0
 10 11  1  0  0  0
 10 12  1  0  0  0
 12 15  1  0  0  0
 15 16  1  0  0  0
 15 24  1  0  0  0
 16 17  2  0  0  0
 17 18  1  0  0  0
 18 19  1  0  0  0
 18 24  2  0  0  0
 19 20  1  0  0  0
 19 21  2  0  0  0
 21 22  1  0  0  0
 22 23  2  0  0  0
 23 24  1  0  0  0
  3 13  1  0  0  0
 11 14  1  0  0  0
 20 25  1  0  0  0
 20 26  1  0  0  0
M  END
> <minimizedAffinity>
-9.17375

$$$$
