2VKM_BSD_A_1386
  RCSB PDB12061707073D
Coordinates from PDB:2VKM:A:1386 Model:1 without hydrogens
 47 50  0  0  0  0            999 V2000
    4.4130   -5.1950   33.1000   C 0  0  0  0  0  0  0  0  0  0  0  0
    5.2420   -4.3600   33.8900   C 0  0  0  0  0  0  0  0  0  0  0  0
    4.6980   -3.6390   34.9800   C 0  0  0  0  0  0  0  0  0  0  0  0
    3.3210   -3.7450   35.2880   C 0  0  0  0  0  0  0  0  0  0  0  0
    2.4880   -4.5800   34.4980   C 0  0  0  0  0  0  0  0  0  0  0  0
    3.0360   -5.3160   33.3940   C 0  0  0  0  0  0  0  0  0  0  0  0
    2.1700   -6.2270   32.5070   C 0  0  0  0  0  0  0  0  0  0  0  0
    1.4620   -7.3670   33.2600   C 0  0  0  0  0  0  0  0  0  0  0  0
    1.1280   -5.4320   31.8290   N 0  0  0  0  0  0  0  0  0  0  0  0
    1.1560   -5.1180   30.5150   C 0  0  0  0  0  0  0  0  0  0  0  0
    2.0810   -5.4990   29.7990   O 0  0  0  0  0  0  0  0  0  0  0  0
    0.0270   -4.2640   29.9990   C 0  0  0  0  0  0  0  0  0  0  0  0
    0.2420   -3.3430   28.9160   C 0  0  0  0  0  0  0  0  0  0  0  0
   -0.8230   -2.4980   28.4210   C 0  0  0  0  0  0  0  0  0  0  0  0
   -2.0970   -2.6130   29.0440   C 0  0  0  0  0  0  0  0  0  0  0  0
   -2.3290   -3.5250   30.1210   C 0  0  0  0  0  0  0  0  0  0  0  0
   -1.2590   -4.3250   30.5690   C 0  0  0  0  0  0  0  0  0  0  0  0
   -0.5840   -1.5810   27.2910   N 0  0  0  0  0  0  0  0  0  0  0  0
   -1.6780   -0.6210   26.9260   C 0  0  0  0  0  0  0  0  0  0  0  0
    0.9570   -0.7190   27.2970   S 0  0  0  0  0  0  0  0  0  0  0  0
    0.7760    0.7120   26.7080   O 0  0  0  0  0  0  0  0  0  0  0  0
    1.5840   -0.5900   28.7420   O 0  0  0  0  0  0  0  0  0  0  0  0
    2.0880   -1.5630   26.1760   C 0  0  0  0  0  0  0  0  0  0  0  0
   -3.6830   -3.6040   30.7330   C 0  0  0  0  0  0  0  0  0  0  0  0
   -4.7010   -3.6160   30.0040   O 0  0  0  0  0  0  0  0  0  0  0  0
   -3.7510   -3.6810   32.1040   N 0  0  0  0  0  0  0  0  0  0  0  0
   -4.9460   -4.1490   32.8940   C 0  0  0  0  0  0  0  0  0  0  0  0
   -4.5810   -5.5030   33.6110   C 0  0  0  0  0  0  0  0  0  0  0  0
   -3.7670   -6.5940   32.8930   C 0  0  0  0  0  0  0  0  0  0  0  0
   -4.0520   -6.9600   31.5490   C 0  0  0  0  0  0  0  0  0  0  0  0
   -3.2910   -7.9850   30.9120   C 0  0  0  0  0  0  0  0  0  0  0  0
   -2.2570   -8.6380   31.6160   C 0  0  0  0  0  0  0  0  0  0  0  0
   -1.9610   -8.2760   32.9660   C 0  0  0  0  0  0  0  0  0  0  0  0
   -2.7170   -7.2550   33.5990   C 0  0  0  0  0  0  0  0  0  0  0  0
   -5.3790   -3.1870   34.0450   C 0  0  0  0  0  0  0  0  0  0  0  0
   -6.6810   -3.4440   34.5290   O 0  0  0  0  0  0  0  0  0  0  0  0
   -5.3090   -1.6890   33.7640   C 0  0  0  0  0  0  0  0  0  0  0  0
   -6.0570   -1.1290   32.6360   N 0  0  0  0  0  0  0  0  0  0  0  0
   -7.2500   -0.2620   32.9220   C 0  0  0  0  0  0  0  0  0  0  0  0
   -8.5120   -0.9240   32.3680   C 0  0  0  0  0  0  0  0  0  0  0  0
   -9.2790   -1.7510   33.2130   C 0  0  0  0  0  0  0  0  0  0  0  0
  -10.4180   -2.4190   32.7410   C 0  0  0  0  0  0  0  0  0  0  0  0
  -10.7990   -2.2530   31.3800   C 0  0  0  0  0  0  0  0  0  0  0  0
  -10.0480   -1.4260   30.5150   C 0  0  0  0  0  0  0  0  0  0  0  0
   -8.8930   -0.7570   31.0100   C 0  0  0  0  0  0  0  0  0  0  0  0
  -11.2120   -3.2590   33.5010   O 0  0  0  0  0  0  0  0  0  0  0  0
  -11.9020   -2.8360   34.6880   C 0  0  0  0  0  0  0  0  0  0  0  0
  1  2  1  0  0  0  0
  1  6  2  0  0  0  0
  2  3  2  0  0  0  0
  3  4  1  0  0  0  0
  4  5  2  0  0  0  0
  5  6  1  0  0  0  0
  6  7  1  0  0  0  0
  7  8  1  0  0  0  0
  7  9  1  0  0  0  0
  9 10  1  0  0  0  0
 10 11  2  0  0  0  0
 10 12  1  0  0  0  0
 12 13  1  0  0  0  0
 12 17  2  0  0  0  0
 13 14  2  0  0  0  0
 14 15  1  0  0  0  0
 14 18  1  0  0  0  0
 15 16  2  0  0  0  0
 16 17  1  0  0  0  0
 16 24  1  0  0  0  0
 18 19  1  0  0  0  0
 18 20  1  0  0  0  0
 20 21  2  0  0  0  0
 20 22  2  0  0  0  0
 20 23  1  0  0  0  0
 24 25  2  0  0  0  0
 24 26  1  0  0  0  0
 26 27  1  0  0  0  0
 27 28  1  0  0  0  0
 27 35  1  0  0  0  0
 28 29  1  0  0  0  0
 29 30  1  0  0  0  0
 29 34  2  0  0  0  0
 30 31  2  0  0  0  0
 31 32  1  0  0  0  0
 32 33  2  0  0  0  0
 33 34  1  0  0  0  0
 35 36  1  0  0  0  0
 35 37  1  0  0  0  0
 37 38  1  0  0  0  0
 38 39  1  0  0  0  0
 39 40  1  0  0  0  0
 40 41  1  0  0  0  0
 40 45  2  0  0  0  0
 41 42  2  0  0  0  0
 42 43  1  0  0  0  0
 42 46  1  0  0  0  0
 43 44  2  0  0  0  0
 44 45  1  0  0  0  0
 46 47  1  0  0  0  0
A    1
C11
A    2
C12
A    3
C13
A    4
C14
A    5
C15
A    6
C16
A    7
C17
A    8
C18
A    9
N21
A   10
C21
A   11
O21
A   12
C23
A   13
C24
A   14
C25
A   15
C26
A   16
C27
A   17
C28
A   18
N22
A   19
C29
A   20
S2
A   21
O23
A   22
O24
A   23
C20
A   24
C22
A   25
O22
A   26
N3
A   27
C31
A   28
C32
A   29
C33
A   30
C34
A   31
C35
A   32
C36
A   33
C37
A   34
C38
A   35
C39
A   36
O3
A   37
C30
A   38
N4
A   39
C41
A   40
C42
A   41
C43
A   42
C44
A   43
C45
A   44
C46
A   45
C47
A   46
O4
A   47
C48
M  END
>  <InstanceId>
2VKM_BSD_A_1386

>  <ChemCompId>
BSD

>  <PdbId>
2VKM

>  <ChainId>
A

>  <ResidueNumber>
1386

>  <InsertionCode>


>  <Model>
1

>  <AltIds>


>  <MissingHeavyAtoms>
0

>  <ObservedFormula>
C36 N4 O6 S

>  <Name>
N-{(1S,2R)-1-benzyl-2-hydroxy-3-[(3-methoxybenzyl)amino]propyl}-5-[methyl(methylsulfonyl)amino]-N'-[(1R)-1-phenylethyl]benzene-1,3-dicarboxamide

>  <SystematicName>
N'-[(2S,3R)-3-hydroxy-4-[(3-methoxyphenyl)methylamino]-1-phenyl-butan-2-yl]-5-(methyl-methylsulfonyl-amino)-N-[(1R)-1-phenylethyl]benzene-1,3-dicarboxamide

>  <Synonyms>


>  <Type>
non-polymer

>  <Formula>
C36 H42 N4 O6 S

>  <MolecularWeight>
658.807

>  <ModifiedDate>
2011-06-04

>  <Parent>


>  <OneLetterCode>


>  <SubcomponentList>


>  <AmbiguousFlag>


>  <InChI>
InChI=1S/C36H42N4O6S/c1-25(28-15-9-6-10-16-28)38-35(42)29-20-30(22-31(21-29)40(2)47(4,44)45)36(43)39-33(19-26-12-7-5-8-13-26)34(41)24-37-23-27-14-11-17-32(18-27)46-3/h5-18,20-22,25,33-34,37,41H,19,23-24H2,1-4H3,(H,38,42)(H,39,43)/t25-,33+,34-/m1/s1

>  <InChIKey>
HIQWWDCRULXYDF-SWROZOJRSA-N

>  <SMILES>
C[C@H](c1ccccc1)NC(=O)c2cc(cc(c2)[N@@](C)S(=O)(=O)C)C(=O)N[C@@H](Cc3ccccc3)[C@@H](CNCc4cccc(c4)OC)O

$$$$
