2VKM_BSD_A_1386


 51 54  0  0  0  0  0  0  0  0999 V2000
   -6.2268   -2.7403   32.6114 C   0  0  0  0  0  0  0  0  0  0  0  0
   -5.9521   -3.2185   33.7356 O   0  0  0  0  0  0  0  0  0  0  0  0
   -5.3105   -2.6753   31.5885 N   0  0  0  0  0  0  0  0  0  0  0  0
   -5.5099   -2.0652   30.8419 H   0  0  0  0  0  0  0  0  0  0  0  0
   -9.1663   -0.9123   30.9513 C   0  0  0  0  0  0  0  0  0  0  0  0
  -10.2353   -1.2894   31.8357 C   0  0  0  0  0  0  0  0  0  0  0  0
  -10.0019   -2.1406   32.9821 C   0  0  0  0  0  0  0  0  0  0  0  0
   -8.6721   -2.5960   33.2029 C   0  0  0  0  0  0  0  0  0  0  0  0
   -7.5972   -2.2322   32.3324 C   0  0  0  0  0  0  0  0  0  0  0  0
   -7.8750   -1.3991   31.2304 C   0  0  0  0  0  0  0  0  0  0  0  0
  -10.3129   -0.4446   28.8556 N   0  0  0  0  0  0  0  0  0  0  0  0
   -9.4268   -0.0056   29.7764 C   0  0  0  0  0  0  0  0  0  0  0  0
   -8.8525    1.0725   29.6297 O   0  0  0  0  0  0  0  0  0  0  0  0
  -10.7541   -1.3104   29.0133 H   0  0  0  0  0  0  0  0  0  0  0  0
  -10.6584    0.2971   27.6276 C   0  0  0  0  0  0  0  0  0  0  0  0
  -12.1897    0.4457   27.5951 C   0  0  0  0  0  0  0  0  0  0  0  0
   -9.1411    0.3032   25.5915 C   0  0  0  0  0  0  0  0  0  0  0  0
   -8.5617   -0.3139   24.4549 C   0  0  0  0  0  0  0  0  0  0  0  0
   -8.8956   -1.6478   24.1184 C   0  0  0  0  0  0  0  0  0  0  0  0
   -9.8096   -2.3762   24.9161 C   0  0  0  0  0  0  0  0  0  0  0  0
  -10.3910   -1.7609   26.0556 C   0  0  0  0  0  0  0  0  0  0  0  0
  -10.0583   -0.4072   26.3986 C   0  0  0  0  0  0  0  0  0  0  0  0
  -11.1203   -2.5352   33.8587 N   0  0  0  0  0  0  0  0  0  0  0  0
  -12.1674   -1.5045   34.1632 C   0  0  0  0  0  0  0  0  0  0  0  0
  -11.9154   -4.0632   33.4705 S   0  0  0  0  0  0  0  0  0  0  0  0
  -13.4081   -3.8147   33.0995 O   0  0  0  0  0  0  0  0  0  0  0  0
  -11.2234   -4.8303   32.2744 O   0  0  0  0  0  0  0  0  0  0  0  0
  -11.9505   -5.0826   34.9564 C   0  0  0  0  0  0  0  0  0  0  0  0
   -4.0263   -3.4605   31.5154 C   0  0  0  0  0  0  0  0  0  0  0  0
   -3.0320   -2.9753   30.4137 C   0  0  0  0  0  0  0  0  0  0  0  0
   -3.6669   -2.6279   29.2007 O   0  0  0  0  0  0  0  0  0  0  0  0
   -4.0329   -3.4254   28.7872 H   0  0  0  0  0  0  0  0  0  0  0  0
   -1.8848   -3.9129   30.0493 C   0  0  0  0  0  0  0  0  0  0  0  0
   -0.5189   -3.5777   30.4586 N   0  0  0  0  0  0  0  0  0  0  0  0
   -0.5331   -3.4410   31.4693 H   0  0  0  0  0  0  0  0  0  0  0  0
    0.5829   -4.5540   30.1597 C   0  0  0  0  0  0  0  0  0  0  0  0
    0.9255   -5.3459   31.4220 C   0  0  0  0  0  0  0  0  0  0  0  0
    1.6756   -4.7224   32.4392 C   0  0  0  0  0  0  0  0  0  0  0  0
    2.0565   -5.4190   33.5951 C   0  0  0  0  0  0  0  0  0  0  0  0
    1.6740   -6.7825   33.7347 C   0  0  0  0  0  0  0  0  0  0  0  0
    0.9186   -7.4277   32.7300 C   0  0  0  0  0  0  0  0  0  0  0  0
    0.5423   -6.7064   31.5618 C   0  0  0  0  0  0  0  0  0  0  0  0
    2.8049   -4.8842   34.6283 O   0  0  0  0  0  0  0  0  0  0  0  0
    3.0468   -3.4766   34.7840 C   0  0  0  0  0  0  0  0  0  0  0  0
   -4.3641   -4.9501   31.1312 C   0  0  0  0  0  0  0  0  0  0  0  0
   -3.6753   -6.1332   31.8341 C   0  0  0  0  0  0  0  0  0  0  0  0
   -3.1760   -7.2395   31.0937 C   0  0  0  0  0  0  0  0  0  0  0  0
   -2.5545   -8.3300   31.7720 C   0  0  0  0  0  0  0  0  0  0  0  0
   -2.4373   -8.3126   33.1781 C   0  0  0  0  0  0  0  0  0  0  0  0
   -2.9335   -7.2046   33.9313 C   0  0  0  0  0  0  0  0  0  0  0  0
   -3.5502   -6.1190   33.2561 C   0  0  0  0  0  0  0  0  0  0  0  0
 17 18  1  0  0  0
 17 22  2  0  0  0
 18 19  2  0  0  0
 19 20  1  0  0  0
 20 21  2  0  0  0
 21 22  1  0  0  0
 22 15  1  0  0  0
 15 16  1  0  0  0
 15 11  1  0  0  0
 11 12  1  0  0  0
 12 13  2  0  0  0
 12  5  1  0  0  0
  5  6  1  0  0  0
  5 10  2  0  0  0
  6  7  2  0  0  0
  7  8  1  0  0  0
  7 23  1  0  0  0
  8  9  2  0  0  0
  9 10  1  0  0  0
  9  1  1  0  0  0
 23 24  1  0  0  0
 23 25  1  0  0  0
 25 26  2  0  0  0
 25 27  2  0  0  0
 25 28  1  0  0  0
  1  2  2  0  0  0
  1  3  1  0  0  0
  3 29  1  0  0  0
 29 45  1  0  0  0
 29 30  1  0  0  0
 45 46  1  0  0  0
 46 47  1  0  0  0
 46 51  2  0  0  0
 47 48  2  0  0  0
 48 49  1  0  0  0
 49 50  2  0  0  0
 50 51  1  0  0  0
 30 31  1  0  0  0
 30 33  1  0  0  0
 33 34  1  0  0  0
 34 36  1  0  0  0
 36 37  1  0  0  0
 37 38  1  0  0  0
 37 42  2  0  0  0
 38 39  2  0  0  0
 39 40  1  0  0  0
 39 43  1  0  0  0
 40 41  2  0  0  0
 41 42  1  0  0  0
 43 44  1  0  0  0
 11 14  1  0  0  0
  3  4  1  0  0  0
 31 32  1  0  0  0
 34 35  1  0  0  0
M  END
> <minimizedAffinity>
-9.55895

$$$$
2VKM_BSD_A_1386


 51 54  0  0  0  0  0  0  0  0999 V2000
   -5.5234   -3.4105   32.5379 C   0  0  0  0  0  0  0  0  0  0  0  0
   -5.3124   -4.0752   33.5779 O   0  0  0  0  0  0  0  0  0  0  0  0
   -4.8067   -3.5971   31.3796 N   0  0  0  0  0  0  0  0  0  0  0  0
   -4.8452   -2.8815   30.7046 H   0  0  0  0  0  0  0  0  0  0  0  0
   -8.9343   -1.6991   32.9569 C   0  0  0  0  0  0  0  0  0  0  0  0
   -8.6257   -0.3864   32.4579 C   0  0  0  0  0  0  0  0  0  0  0  0
   -7.3020   -0.0532   31.9781 C   0  0  0  0  0  0  0  0  0  0  0  0
   -6.3112   -1.0734   32.0205 C   0  0  0  0  0  0  0  0  0  0  0  0
   -6.6002   -2.3838   32.5153 C   0  0  0  0  0  0  0  0  0  0  0  0
   -7.9053   -2.6600   32.9693 C   0  0  0  0  0  0  0  0  0  0  0  0
  -11.1837   -2.5106   32.5022 N   0  0  0  0  0  0  0  0  0  0  0  0
  -10.3255   -2.0322   33.4299 C   0  0  0  0  0  0  0  0  0  0  0  0
  -10.6907   -1.8599   34.5919 O   0  0  0  0  0  0  0  0  0  0  0  0
  -10.8501   -2.6383   31.5848 H   0  0  0  0  0  0  0  0  0  0  0  0
  -12.5914   -2.8529   32.7829 C   0  0  0  0  0  0  0  0  0  0  0  0
  -12.8467   -4.2576   32.2090 C   0  0  0  0  0  0  0  0  0  0  0  0
  -14.5472   -1.2582   33.0650 C   0  0  0  0  0  0  0  0  0  0  0  0
  -15.4195   -0.2448   32.5954 C   0  0  0  0  0  0  0  0  0  0  0  0
  -15.2704    0.2762   31.2876 C   0  0  0  0  0  0  0  0  0  0  0  0
  -14.2473   -0.2098   30.4396 C   0  0  0  0  0  0  0  0  0  0  0  0
  -13.3715   -1.2243   30.9075 C   0  0  0  0  0  0  0  0  0  0  0  0
  -13.5213   -1.7583   32.2316 C   0  0  0  0  0  0  0  0  0  0  0  0
   -7.0037    1.3084   31.4964 N   0  0  0  0  0  0  0  0  0  0  0  0
   -5.6732    1.5434   30.8436 C   0  0  0  0  0  0  0  0  0  0  0  0
   -8.2609    2.0892   30.5334 S   0  0  0  0  0  0  0  0  0  0  0  0
   -8.0473    1.7850   29.0203 O   0  0  0  0  0  0  0  0  0  0  0  0
   -9.7185    1.6293   30.9355 O   0  0  0  0  0  0  0  0  0  0  0  0
   -8.0797    3.8748   30.6971 C   0  0  0  0  0  0  0  0  0  0  0  0
   -3.9671   -4.8064   31.0576 C   0  0  0  0  0  0  0  0  0  0  0  0
   -4.0664   -5.9614   32.1036 C   0  0  0  0  0  0  0  0  0  0  0  0
   -3.1322   -5.8444   33.1567 O   0  0  0  0  0  0  0  0  0  0  0  0
   -2.2362   -5.9793   32.8105 H   0  0  0  0  0  0  0  0  0  0  0  0
   -3.9503   -7.3890   31.5779 C   0  0  0  0  0  0  0  0  0  0  0  0
   -2.8001   -7.7644   30.7524 N   0  0  0  0  0  0  0  0  0  0  0  0
   -2.3516   -6.8993   30.4509 H   0  0  0  0  0  0  0  0  0  0  0  0
   -1.7311   -8.6295   31.3571 C   0  0  0  0  0  0  0  0  0  0  0  0
   -0.5846   -7.7533   31.8625 C   0  0  0  0  0  0  0  0  0  0  0  0
    0.2282   -7.0819   30.9271 C   0  0  0  0  0  0  0  0  0  0  0  0
    1.3211   -6.3046   31.3364 C   0  0  0  0  0  0  0  0  0  0  0  0
    1.6080   -6.1978   32.7261 C   0  0  0  0  0  0  0  0  0  0  0  0
    0.8052   -6.8585   33.6827 C   0  0  0  0  0  0  0  0  0  0  0  0
   -0.2992   -7.6455   33.2497 C   0  0  0  0  0  0  0  0  0  0  0  0
    2.1742   -5.6301   30.4815 O   0  0  0  0  0  0  0  0  0  0  0  0
    2.8690   -6.2631   29.3949 C   0  0  0  0  0  0  0  0  0  0  0  0
   -2.4495   -4.3850   31.0597 C   0  0  0  0  0  0  0  0  0  0  0  0
   -1.8846   -3.4253   29.9976 C   0  0  0  0  0  0  0  0  0  0  0  0
   -2.7392   -2.5688   29.2509 C   0  0  0  0  0  0  0  0  0  0  0  0
   -2.1906   -1.6990   28.2620 C   0  0  0  0  0  0  0  0  0  0  0  0
   -0.8000   -1.6902   28.0222 C   0  0  0  0  0  0  0  0  0  0  0  0
    0.0677   -2.5452   28.7687 C   0  0  0  0  0  0  0  0  0  0  0  0
   -0.4781   -3.4091   29.7538 C   0  0  0  0  0  0  0  0  0  0  0  0
 17 18  1  0  0  0
 17 22  2  0  0  0
 18 19  2  0  0  0
 19 20  1  0  0  0
 20 21  2  0  0  0
 21 22  1  0  0  0
 22 15  1  0  0  0
 15 16  1  0  0  0
 15 11  1  0  0  0
 11 12  1  0  0  0
 12 13  2  0  0  0
 12  5  1  0  0  0
  5  6  1  0  0  0
  5 10  2  0  0  0
  6  7  2  0  0  0
  7  8  1  0  0  0
  7 23  1  0  0  0
  8  9  2  0  0  0
  9 10  1  0  0  0
  9  1  1  0  0  0
 23 24  1  0  0  0
 23 25  1  0  0  0
 25 26  2  0  0  0
 25 27  2  0  0  0
 25 28  1  0  0  0
  1  2  2  0  0  0
  1  3  1  0  0  0
  3 29  1  0  0  0
 29 45  1  0  0  0
 29 30  1  0  0  0
 45 46  1  0  0  0
 46 47  1  0  0  0
 46 51  2  0  0  0
 47 48  2  0  0  0
 48 49  1  0  0  0
 49 50  2  0  0  0
 50 51  1  0  0  0
 30 31  1  0  0  0
 30 33  1  0  0  0
 33 34  1  0  0  0
 34 36  1  0  0  0
 36 37  1  0  0  0
 37 38  1  0  0  0
 37 42  2  0  0  0
 38 39  2  0  0  0
 39 40  1  0  0  0
 39 43  1  0  0  0
 40 41  2  0  0  0
 41 42  1  0  0  0
 43 44  1  0  0  0
 11 14  1  0  0  0
  3  4  1  0  0  0
 31 32  1  0  0  0
 34 35  1  0  0  0
M  END
> <minimizedAffinity>
-9.46846

$$$$
2VKM_BSD_A_1386


 51 54  0  0  0  0  0  0  0  0999 V2000
   -6.2498   -2.5677   32.6138 C   0  0  0  0  0  0  0  0  0  0  0  0
   -5.7883   -2.3454   33.7564 O   0  0  0  0  0  0  0  0  0  0  0  0
   -5.4965   -3.1160   31.6029 N   0  0  0  0  0  0  0  0  0  0  0  0
   -5.8365   -3.0208   30.6838 H   0  0  0  0  0  0  0  0  0  0  0  0
   -9.4056   -1.3426   30.8030 C   0  0  0  0  0  0  0  0  0  0  0  0
  -10.4083   -1.6853   31.7748 C   0  0  0  0  0  0  0  0  0  0  0  0
  -10.0593   -2.3158   33.0294 C   0  0  0  0  0  0  0  0  0  0  0  0
   -8.6834   -2.5888   33.2677 C   0  0  0  0  0  0  0  0  0  0  0  0
   -7.6731   -2.2564   32.3114 C   0  0  0  0  0  0  0  0  0  0  0  0
   -8.0632   -1.6413   31.1052 C   0  0  0  0  0  0  0  0  0  0  0  0
  -10.7819   -1.2371   28.7981 N   0  0  0  0  0  0  0  0  0  0  0  0
   -9.7880   -0.6650   29.5127 C   0  0  0  0  0  0  0  0  0  0  0  0
   -9.2191    0.3442   29.0989 O   0  0  0  0  0  0  0  0  0  0  0  0
  -11.2144   -2.0409   29.1672 H   0  0  0  0  0  0  0  0  0  0  0  0
  -11.2575   -0.7284   27.4971 C   0  0  0  0  0  0  0  0  0  0  0  0
  -12.3158    0.3512   27.7841 C   0  0  0  0  0  0  0  0  0  0  0  0
  -13.1253   -2.2311   26.6598 C   0  0  0  0  0  0  0  0  0  0  0  0
  -13.6213   -3.2938   25.8642 C   0  0  0  0  0  0  0  0  0  0  0  0
  -12.7473   -4.0261   25.0253 C   0  0  0  0  0  0  0  0  0  0  0  0
  -11.3711   -3.7009   24.9732 C   0  0  0  0  0  0  0  0  0  0  0  0
  -10.8715   -2.6364   25.7685 C   0  0  0  0  0  0  0  0  0  0  0  0
  -11.7534   -1.8935   26.6236 C   0  0  0  0  0  0  0  0  0  0  0  0
  -11.1093   -2.6821   33.9980 N   0  0  0  0  0  0  0  0  0  0  0  0
  -12.0570   -1.6067   34.4421 C   0  0  0  0  0  0  0  0  0  0  0  0
  -12.0303   -4.1444   33.6359 S   0  0  0  0  0  0  0  0  0  0  0  0
  -13.4972   -3.7778   33.2602 O   0  0  0  0  0  0  0  0  0  0  0  0
  -11.4064   -4.9873   32.4536 O   0  0  0  0  0  0  0  0  0  0  0  0
  -12.1492   -5.1314   35.1392 C   0  0  0  0  0  0  0  0  0  0  0  0
   -4.1934   -3.8508   31.7851 C   0  0  0  0  0  0  0  0  0  0  0  0
   -3.1883   -3.6908   30.6011 C   0  0  0  0  0  0  0  0  0  0  0  0
   -1.8710   -3.4005   31.0207 O   0  0  0  0  0  0  0  0  0  0  0  0
   -1.8446   -2.5135   31.4125 H   0  0  0  0  0  0  0  0  0  0  0  0
   -3.5363   -2.6659   29.5257 C   0  0  0  0  0  0  0  0  0  0  0  0
   -2.6177   -1.5566   29.2595 N   0  0  0  0  0  0  0  0  0  0  0  0
   -1.7319   -1.7851   29.7108 H   0  0  0  0  0  0  0  0  0  0  0  0
   -2.3089   -1.2034   27.8324 C   0  0  0  0  0  0  0  0  0  0  0  0
   -0.7977   -1.2536   27.6052 C   0  0  0  0  0  0  0  0  0  0  0  0
   -0.2326   -0.4671   26.5813 C   0  0  0  0  0  0  0  0  0  0  0  0
    1.1406   -0.5128   26.3009 C   0  0  0  0  0  0  0  0  0  0  0  0
    1.9722   -1.3739   27.0704 C   0  0  0  0  0  0  0  0  0  0  0  0
    1.4289   -2.1688   28.1044 C   0  0  0  0  0  0  0  0  0  0  0  0
    0.0323   -2.1119   28.3743 C   0  0  0  0  0  0  0  0  0  0  0  0
    1.7673    0.2138   25.3045 O   0  0  0  0  0  0  0  0  0  0  0  0
    1.8701   -0.2347   23.9435 C   0  0  0  0  0  0  0  0  0  0  0  0
   -4.4892   -5.3959   31.8618 C   0  0  0  0  0  0  0  0  0  0  0  0
   -3.3483   -6.4252   31.9470 C   0  0  0  0  0  0  0  0  0  0  0  0
   -2.7921   -6.8051   33.1992 C   0  0  0  0  0  0  0  0  0  0  0  0
   -1.7251   -7.7510   33.2484 C   0  0  0  0  0  0  0  0  0  0  0  0
   -1.2193   -8.3080   32.0546 C   0  0  0  0  0  0  0  0  0  0  0  0
   -1.7728   -7.9348   30.7915 C   0  0  0  0  0  0  0  0  0  0  0  0
   -2.8355   -6.9951   30.7428 C   0  0  0  0  0  0  0  0  0  0  0  0
 17 18  1  0  0  0
 17 22  2  0  0  0
 18 19  2  0  0  0
 19 20  1  0  0  0
 20 21  2  0  0  0
 21 22  1  0  0  0
 22 15  1  0  0  0
 15 16  1  0  0  0
 15 11  1  0  0  0
 11 12  1  0  0  0
 12 13  2  0  0  0
 12  5  1  0  0  0
  5  6  1  0  0  0
  5 10  2  0  0  0
  6  7  2  0  0  0
  7  8  1  0  0  0
  7 23  1  0  0  0
  8  9  2  0  0  0
  9 10  1  0  0  0
  9  1  1  0  0  0
 23 24  1  0  0  0
 23 25  1  0  0  0
 25 26  2  0  0  0
 25 27  2  0  0  0
 25 28  1  0  0  0
  1  2  2  0  0  0
  1  3  1  0  0  0
  3 29  1  0  0  0
 29 45  1  0  0  0
 29 30  1  0  0  0
 45 46  1  0  0  0
 46 47  1  0  0  0
 46 51  2  0  0  0
 47 48  2  0  0  0
 48 49  1  0  0  0
 49 50  2  0  0  0
 50 51  1  0  0  0
 30 31  1  0  0  0
 30 33  1  0  0  0
 33 34  1  0  0  0
 34 36  1  0  0  0
 36 37  1  0  0  0
 37 38  1  0  0  0
 37 42  2  0  0  0
 38 39  2  0  0  0
 39 40  1  0  0  0
 39 43  1  0  0  0
 40 41  2  0  0  0
 41 42  1  0  0  0
 43 44  1  0  0  0
 11 14  1  0  0  0
  3  4  1  0  0  0
 31 32  1  0  0  0
 34 35  1  0  0  0
M  END
> <minimizedAffinity>
-9.39439

$$$$
2VKM_BSD_A_1386


 51 54  0  0  0  0  0  0  0  0999 V2000
   -6.1959   -2.5995   32.6213 C   0  0  0  0  0  0  0  0  0  0  0  0
   -5.7910   -2.6815   33.8033 O   0  0  0  0  0  0  0  0  0  0  0  0
   -5.4046   -2.9149   31.5422 N   0  0  0  0  0  0  0  0  0  0  0  0
   -5.6913   -2.5847   30.6602 H   0  0  0  0  0  0  0  0  0  0  0  0
   -9.2330   -0.9662   30.9340 C   0  0  0  0  0  0  0  0  0  0  0  0
  -10.2756   -1.3663   31.8397 C   0  0  0  0  0  0  0  0  0  0  0  0
   -9.9923   -2.1695   33.0093 C   0  0  0  0  0  0  0  0  0  0  0  0
   -8.6405   -2.5538   33.2313 C   0  0  0  0  0  0  0  0  0  0  0  0
   -7.5914   -2.1664   32.3399 C   0  0  0  0  0  0  0  0  0  0  0  0
   -7.9176   -1.3820   31.2156 C   0  0  0  0  0  0  0  0  0  0  0  0
  -10.5406   -0.5379   28.9260 N   0  0  0  0  0  0  0  0  0  0  0  0
   -9.5461   -0.1098   29.7345 C   0  0  0  0  0  0  0  0  0  0  0  0
   -8.9224    0.9173   29.4712 O   0  0  0  0  0  0  0  0  0  0  0  0
  -11.0179   -1.3621   29.1754 H   0  0  0  0  0  0  0  0  0  0  0  0
  -10.9535    0.1569   27.6914 C   0  0  0  0  0  0  0  0  0  0  0  0
  -12.4910    0.1266   27.6385 C   0  0  0  0  0  0  0  0  0  0  0  0
   -9.3016    0.2888   25.7674 C   0  0  0  0  0  0  0  0  0  0  0  0
   -8.6358   -0.2609   24.6435 C   0  0  0  0  0  0  0  0  0  0  0  0
   -8.9234   -1.5799   24.2176 C   0  0  0  0  0  0  0  0  0  0  0  0
   -9.8770   -2.3608   24.9126 C   0  0  0  0  0  0  0  0  0  0  0  0
  -10.5449   -1.8132   26.0392 C   0  0  0  0  0  0  0  0  0  0  0  0
  -10.2593   -0.4747   26.4724 C   0  0  0  0  0  0  0  0  0  0  0  0
  -11.0834   -2.5896   33.9082 N   0  0  0  0  0  0  0  0  0  0  0  0
  -12.0846   -1.5525   34.3251 C   0  0  0  0  0  0  0  0  0  0  0  0
  -11.9408   -4.0664   33.4588 S   0  0  0  0  0  0  0  0  0  0  0  0
  -13.3827   -3.7264   32.9764 O   0  0  0  0  0  0  0  0  0  0  0  0
  -11.2096   -4.8790   32.3173 O   0  0  0  0  0  0  0  0  0  0  0  0
  -12.1515   -5.0767   34.9363 C   0  0  0  0  0  0  0  0  0  0  0  0
   -4.1345   -3.7243   31.5977 C   0  0  0  0  0  0  0  0  0  0  0  0
   -3.1308   -3.4353   30.4372 C   0  0  0  0  0  0  0  0  0  0  0  0
   -1.8108   -3.2035   30.8838 O   0  0  0  0  0  0  0  0  0  0  0  0
   -1.7778   -2.3677   31.3750 H   0  0  0  0  0  0  0  0  0  0  0  0
   -3.4743   -2.2913   29.4879 C   0  0  0  0  0  0  0  0  0  0  0  0
   -2.6582   -2.0748   28.2910 N   0  0  0  0  0  0  0  0  0  0  0  0
   -3.2928   -2.0651   27.4925 H   0  0  0  0  0  0  0  0  0  0  0  0
   -1.8204   -0.8308   28.2056 C   0  0  0  0  0  0  0  0  0  0  0  0
   -1.0576   -0.8140   26.8806 C   0  0  0  0  0  0  0  0  0  0  0  0
    0.3503   -0.8738   26.9000 C   0  0  0  0  0  0  0  0  0  0  0  0
    1.0987   -0.8136   25.7157 C   0  0  0  0  0  0  0  0  0  0  0  0
    0.4143   -0.6890   24.4743 C   0  0  0  0  0  0  0  0  0  0  0  0
   -0.9966   -0.6311   24.4296 C   0  0  0  0  0  0  0  0  0  0  0  0
   -1.7409   -0.6912   25.6416 C   0  0  0  0  0  0  0  0  0  0  0  0
    2.4802   -0.8493   25.6524 O   0  0  0  0  0  0  0  0  0  0  0  0
    3.2590   -2.0031   26.0076 C   0  0  0  0  0  0  0  0  0  0  0  0
   -4.4986   -5.2495   31.4505 C   0  0  0  0  0  0  0  0  0  0  0  0
   -3.4744   -6.3511   31.7758 C   0  0  0  0  0  0  0  0  0  0  0  0
   -3.4263   -6.9544   33.0624 C   0  0  0  0  0  0  0  0  0  0  0  0
   -2.4571   -7.9634   33.3415 C   0  0  0  0  0  0  0  0  0  0  0  0
   -1.5439   -8.3614   32.3421 C   0  0  0  0  0  0  0  0  0  0  0  0
   -1.5854   -7.7633   31.0453 C   0  0  0  0  0  0  0  0  0  0  0  0
   -2.5509   -6.7607   30.7672 C   0  0  0  0  0  0  0  0  0  0  0  0
 17 18  1  0  0  0
 17 22  2  0  0  0
 18 19  2  0  0  0
 19 20  1  0  0  0
 20 21  2  0  0  0
 21 22  1  0  0  0
 22 15  1  0  0  0
 15 16  1  0  0  0
 15 11  1  0  0  0
 11 12  1  0  0  0
 12 13  2  0  0  0
 12  5  1  0  0  0
  5  6  1  0  0  0
  5 10  2  0  0  0
  6  7  2  0  0  0
  7  8  1  0  0  0
  7 23  1  0  0  0
  8  9  2  0  0  0
  9 10  1  0  0  0
  9  1  1  0  0  0
 23 24  1  0  0  0
 23 25  1  0  0  0
 25 26  2  0  0  0
 25 27  2  0  0  0
 25 28  1  0  0  0
  1  2  2  0  0  0
  1  3  1  0  0  0
  3 29  1  0  0  0
 29 45  1  0  0  0
 29 30  1  0  0  0
 45 46  1  0  0  0
 46 47  1  0  0  0
 46 51  2  0  0  0
 47 48  2  0  0  0
 48 49  1  0  0  0
 49 50  2  0  0  0
 50 51  1  0  0  0
 30 31  1  0  0  0
 30 33  1  0  0  0
 33 34  1  0  0  0
 34 36  1  0  0  0
 36 37  1  0  0  0
 37 38  1  0  0  0
 37 42  2  0  0  0
 38 39  2  0  0  0
 39 40  1  0  0  0
 39 43  1  0  0  0
 40 41  2  0  0  0
 41 42  1  0  0  0
 43 44  1  0  0  0
 11 14  1  0  0  0
  3  4  1  0  0  0
 31 32  1  0  0  0
 34 35  1  0  0  0
M  END
> <minimizedAffinity>
-9.26335

$$$$
2VKM_BSD_A_1386


 51 54  0  0  0  0  0  0  0  0999 V2000
   -3.7931   -2.9959   30.4213 C   0  0  0  0  0  0  0  0  0  0  0  0
   -4.4602   -4.0487   30.3014 O   0  0  0  0  0  0  0  0  0  0  0  0
   -4.2698   -1.8859   31.0776 N   0  0  0  0  0  0  0  0  0  0  0  0
   -3.8118   -1.0307   30.9099 H   0  0  0  0  0  0  0  0  0  0  0  0
   -0.0669   -3.6821   29.8022 C   0  0  0  0  0  0  0  0  0  0  0  0
    0.1973   -2.7354   28.7528 C   0  0  0  0  0  0  0  0  0  0  0  0
   -0.8394   -1.8644   28.2432 C   0  0  0  0  0  0  0  0  0  0  0  0
   -2.1362   -1.9801   28.8172 C   0  0  0  0  0  0  0  0  0  0  0  0
   -2.4172   -2.9175   29.8602 C   0  0  0  0  0  0  0  0  0  0  0  0
   -1.3732   -3.7423   30.3243 C   0  0  0  0  0  0  0  0  0  0  0  0
    1.6101   -5.4122   29.4558 N   0  0  0  0  0  0  0  0  0  0  0  0
    1.0330   -4.5635   30.3348 C   0  0  0  0  0  0  0  0  0  0  0  0
    1.3854   -4.5464   31.5134 O   0  0  0  0  0  0  0  0  0  0  0  0
    1.3023   -5.3906   28.5209 H   0  0  0  0  0  0  0  0  0  0  0  0
    2.6745   -6.3692   29.8144 C   0  0  0  0  0  0  0  0  0  0  0  0
    2.7976   -6.3672   31.3482 C   0  0  0  0  0  0  0  0  0  0  0  0
    3.8808   -5.3880   27.8070 C   0  0  0  0  0  0  0  0  0  0  0  0
    5.0550   -5.0433   27.0921 C   0  0  0  0  0  0  0  0  0  0  0  0
    6.3310   -5.3269   27.6355 C   0  0  0  0  0  0  0  0  0  0  0  0
    6.4439   -5.9553   28.8983 C   0  0  0  0  0  0  0  0  0  0  0  0
    5.2695   -6.3010   29.6170 C   0  0  0  0  0  0  0  0  0  0  0  0
    3.9733   -6.0188   29.0682 C   0  0  0  0  0  0  0  0  0  0  0  0
   -0.5495   -0.9208   27.1476 N   0  0  0  0  0  0  0  0  0  0  0  0
    0.7102   -0.1105   27.2376 C   0  0  0  0  0  0  0  0  0  0  0  0
   -0.7071   -1.5558   25.5076 S   0  0  0  0  0  0  0  0  0  0  0  0
    0.7004   -1.8375   24.9015 O   0  0  0  0  0  0  0  0  0  0  0  0
   -1.5558   -2.8874   25.4424 O   0  0  0  0  0  0  0  0  0  0  0  0
   -1.4335   -0.2762   24.4669 C   0  0  0  0  0  0  0  0  0  0  0  0
   -5.4355   -1.8698   32.0326 C   0  0  0  0  0  0  0  0  0  0  0  0
   -5.1937   -2.6497   33.3635 C   0  0  0  0  0  0  0  0  0  0  0  0
   -3.8869   -2.4905   33.8757 O   0  0  0  0  0  0  0  0  0  0  0  0
   -3.2526   -2.9247   33.2840 H   0  0  0  0  0  0  0  0  0  0  0  0
   -5.4754   -4.1491   33.3530 C   0  0  0  0  0  0  0  0  0  0  0  0
   -4.4043   -5.0887   33.6928 N   0  0  0  0  0  0  0  0  0  0  0  0
   -4.3305   -5.1050   34.7100 H   0  0  0  0  0  0  0  0  0  0  0  0
   -4.5244   -6.5144   33.2349 C   0  0  0  0  0  0  0  0  0  0  0  0
   -3.2193   -6.9532   32.5703 C   0  0  0  0  0  0  0  0  0  0  0  0
   -2.0491   -7.0414   33.3507 C   0  0  0  0  0  0  0  0  0  0  0  0
   -0.8172   -7.3928   32.7802 C   0  0  0  0  0  0  0  0  0  0  0  0
   -0.7571   -7.6634   31.3844 C   0  0  0  0  0  0  0  0  0  0  0  0
   -1.9177   -7.5853   30.5825 C   0  0  0  0  0  0  0  0  0  0  0  0
   -3.1597   -7.2248   31.1775 C   0  0  0  0  0  0  0  0  0  0  0  0
    0.3762   -7.4845   33.4736 O   0  0  0  0  0  0  0  0  0  0  0  0
    0.8841   -6.4379   34.3167 C   0  0  0  0  0  0  0  0  0  0  0  0
   -6.6578   -2.5942   31.3529 C   0  0  0  0  0  0  0  0  0  0  0  0
   -8.1058   -2.1597   31.6406 C   0  0  0  0  0  0  0  0  0  0  0  0
   -8.8686   -1.4532   30.6708 C   0  0  0  0  0  0  0  0  0  0  0  0
  -10.2041   -1.0497   30.9691 C   0  0  0  0  0  0  0  0  0  0  0  0
  -10.7679   -1.3489   32.2276 C   0  0  0  0  0  0  0  0  0  0  0  0
  -10.0108   -2.0605   33.2082 C   0  0  0  0  0  0  0  0  0  0  0  0
   -8.6828   -2.4635   32.9106 C   0  0  0  0  0  0  0  0  0  0  0  0
 17 18  1  0  0  0
 17 22  2  0  0  0
 18 19  2  0  0  0
 19 20  1  0  0  0
 20 21  2  0  0  0
 21 22  1  0  0  0
 22 15  1  0  0  0
 15 16  1  0  0  0
 15 11  1  0  0  0
 11 12  1  0  0  0
 12 13  2  0  0  0
 12  5  1  0  0  0
  5  6  1  0  0  0
  5 10  2  0  0  0
  6  7  2  0  0  0
  7  8  1  0  0  0
  7 23  1  0  0  0
  8  9  2  0  0  0
  9 10  1  0  0  0
  9  1  1  0  0  0
 23 24  1  0  0  0
 23 25  1  0  0  0
 25 26  2  0  0  0
 25 27  2  0  0  0
 25 28  1  0  0  0
  1  2  2  0  0  0
  1  3  1  0  0  0
  3 29  1  0  0  0
 29 45  1  0  0  0
 29 30  1  0  0  0
 45 46  1  0  0  0
 46 47  1  0  0  0
 46 51  2  0  0  0
 47 48  2  0  0  0
 48 49  1  0  0  0
 49 50  2  0  0  0
 50 51  1  0  0  0
 30 31  1  0  0  0
 30 33  1  0  0  0
 33 34  1  0  0  0
 34 36  1  0  0  0
 36 37  1  0  0  0
 37 38  1  0  0  0
 37 42  2  0  0  0
 38 39  2  0  0  0
 39 40  1  0  0  0
 39 43  1  0  0  0
 40 41  2  0  0  0
 41 42  1  0  0  0
 43 44  1  0  0  0
 11 14  1  0  0  0
  3  4  1  0  0  0
 31 32  1  0  0  0
 34 35  1  0  0  0
M  END
> <minimizedAffinity>
-9.18660

$$$$
2VKM_BSD_A_1386


 51 54  0  0  0  0  0  0  0  0999 V2000
  -10.0482   -0.6018   29.6592 C   0  0  0  0  0  0  0  0  0  0  0  0
   -9.6297   -0.9198   28.5227 O   0  0  0  0  0  0  0  0  0  0  0  0
  -10.9975    0.3733   29.8545 N   0  0  0  0  0  0  0  0  0  0  0  0
  -11.0836    0.7444   30.7624 H   0  0  0  0  0  0  0  0  0  0  0  0
   -7.6520   -2.1802   32.2098 C   0  0  0  0  0  0  0  0  0  0  0  0
   -8.5931   -2.6435   33.1932 C   0  0  0  0  0  0  0  0  0  0  0  0
  -10.0168   -2.4462   33.0275 C   0  0  0  0  0  0  0  0  0  0  0  0
  -10.4548   -1.7719   31.8537 C   0  0  0  0  0  0  0  0  0  0  0  0
   -9.5326   -1.3027   30.8663 C   0  0  0  0  0  0  0  0  0  0  0  0
   -8.1559   -1.5211   31.0722 C   0  0  0  0  0  0  0  0  0  0  0  0
   -5.5140   -2.9558   31.3423 N   0  0  0  0  0  0  0  0  0  0  0  0
   -6.1750   -2.4169   32.3904 C   0  0  0  0  0  0  0  0  0  0  0  0
   -5.5857   -2.1642   33.4403 O   0  0  0  0  0  0  0  0  0  0  0  0
   -6.0218   -3.1383   30.5188 H   0  0  0  0  0  0  0  0  0  0  0  0
   -4.0761   -3.2870   31.3590 C   0  0  0  0  0  0  0  0  0  0  0  0
   -3.4807   -2.8199   30.0192 C   0  0  0  0  0  0  0  0  0  0  0  0
   -3.0099   -5.5310   30.8346 C   0  0  0  0  0  0  0  0  0  0  0  0
   -2.7999   -6.9106   31.0824 C   0  0  0  0  0  0  0  0  0  0  0  0
   -3.4613   -7.5518   32.1572 C   0  0  0  0  0  0  0  0  0  0  0  0
   -4.3361   -6.8194   32.9942 C   0  0  0  0  0  0  0  0  0  0  0  0
   -4.5477   -5.4372   32.7489 C   0  0  0  0  0  0  0  0  0  0  0  0
   -3.8821   -4.7835   31.6578 C   0  0  0  0  0  0  0  0  0  0  0  0
  -10.9596   -2.9069   34.0637 N   0  0  0  0  0  0  0  0  0  0  0  0
  -11.7244   -1.8651   34.8262 C   0  0  0  0  0  0  0  0  0  0  0  0
  -12.0654   -4.2009   33.5941 S   0  0  0  0  0  0  0  0  0  0  0  0
  -13.4439   -3.6066   33.1773 O   0  0  0  0  0  0  0  0  0  0  0  0
  -11.5155   -5.0762   32.3986 O   0  0  0  0  0  0  0  0  0  0  0  0
  -12.3975   -5.2219   35.0417 C   0  0  0  0  0  0  0  0  0  0  0  0
  -11.9173    0.9213   28.7939 C   0  0  0  0  0  0  0  0  0  0  0  0
  -12.1895    2.4549   28.9016 C   0  0  0  0  0  0  0  0  0  0  0  0
  -12.3676    2.8997   30.2305 O   0  0  0  0  0  0  0  0  0  0  0  0
  -13.1937    2.5356   30.5853 H   0  0  0  0  0  0  0  0  0  0  0  0
  -13.3600    3.0127   28.0974 C   0  0  0  0  0  0  0  0  0  0  0  0
  -13.3051    2.9960   26.6338 N   0  0  0  0  0  0  0  0  0  0  0  0
  -12.4276    2.5473   26.3711 H   0  0  0  0  0  0  0  0  0  0  0  0
  -14.4015    2.2989   25.8796 C   0  0  0  0  0  0  0  0  0  0  0  0
  -13.8169    1.1317   25.0835 C   0  0  0  0  0  0  0  0  0  0  0  0
  -12.4233    0.9222   25.0984 C   0  0  0  0  0  0  0  0  0  0  0  0
  -11.8325   -0.1043   24.3478 C   0  0  0  0  0  0  0  0  0  0  0  0
  -12.6646   -0.9459   23.5576 C   0  0  0  0  0  0  0  0  0  0  0  0
  -14.0646   -0.7576   23.5298 C   0  0  0  0  0  0  0  0  0  0  0  0
  -14.6477    0.2909   24.2961 C   0  0  0  0  0  0  0  0  0  0  0  0
  -10.4746   -0.3635   24.2965 O   0  0  0  0  0  0  0  0  0  0  0  0
   -9.8419   -1.4189   25.0380 C   0  0  0  0  0  0  0  0  0  0  0  0
  -13.3312    0.2451   28.9505 C   0  0  0  0  0  0  0  0  0  0  0  0
  -13.7574   -0.9332   28.0570 C   0  0  0  0  0  0  0  0  0  0  0  0
  -12.7982   -1.8382   27.5256 C   0  0  0  0  0  0  0  0  0  0  0  0
  -13.2194   -2.9137   26.6881 C   0  0  0  0  0  0  0  0  0  0  0  0
  -14.5875   -3.0785   26.3846 C   0  0  0  0  0  0  0  0  0  0  0  0
  -15.5596   -2.1762   26.9155 C   0  0  0  0  0  0  0  0  0  0  0  0
  -15.1406   -1.1072   27.7501 C   0  0  0  0  0  0  0  0  0  0  0  0
 17 18  1  0  0  0
 17 22  2  0  0  0
 18 19  2  0  0  0
 19 20  1  0  0  0
 20 21  2  0  0  0
 21 22  1  0  0  0
 22 15  1  0  0  0
 15 16  1  0  0  0
 15 11  1  0  0  0
 11 12  1  0  0  0
 12 13  2  0  0  0
 12  5  1  0  0  0
  5  6  1  0  0  0
  5 10  2  0  0  0
  6  7  2  0  0  0
  7  8  1  0  0  0
  7 23  1  0  0  0
  8  9  2  0  0  0
  9 10  1  0  0  0
  9  1  1  0  0  0
 23 24  1  0  0  0
 23 25  1  0  0  0
 25 26  2  0  0  0
 25 27  2  0  0  0
 25 28  1  0  0  0
  1  2  2  0  0  0
  1  3  1  0  0  0
  3 29  1  0  0  0
 29 45  1  0  0  0
 29 30  1  0  0  0
 45 46  1  0  0  0
 46 47  1  0  0  0
 46 51  2  0  0  0
 47 48  2  0  0  0
 48 49  1  0  0  0
 49 50  2  0  0  0
 50 51  1  0  0  0
 30 31  1  0  0  0
 30 33  1  0  0  0
 33 34  1  0  0  0
 34 36  1  0  0  0
 36 37  1  0  0  0
 37 38  1  0  0  0
 37 42  2  0  0  0
 38 39  2  0  0  0
 39 40  1  0  0  0
 39 43  1  0  0  0
 40 41  2  0  0  0
 41 42  1  0  0  0
 43 44  1  0  0  0
 11 14  1  0  0  0
  3  4  1  0  0  0
 31 32  1  0  0  0
 34 35  1  0  0  0
M  END
> <minimizedAffinity>
-9.07479

$$$$
2VKM_BSD_A_1386


 51 54  0  0  0  0  0  0  0  0999 V2000
    3.2731   -4.7382   25.8420 C   0  0  0  0  0  0  0  0  0  0  0  0
    2.9878   -5.0865   24.6736 O   0  0  0  0  0  0  0  0  0  0  0  0
    3.3439   -3.4203   26.2272 N   0  0  0  0  0  0  0  0  0  0  0  0
    3.8176   -3.2201   27.0667 H   0  0  0  0  0  0  0  0  0  0  0  0
    3.2899   -6.5964   29.2013 C   0  0  0  0  0  0  0  0  0  0  0  0
    4.0453   -7.7664   28.8435 C   0  0  0  0  0  0  0  0  0  0  0  0
    4.5568   -7.9538   27.5032 C   0  0  0  0  0  0  0  0  0  0  0  0
    4.2825   -6.9370   26.5465 C   0  0  0  0  0  0  0  0  0  0  0  0
    3.5313   -5.7679   26.8846 C   0  0  0  0  0  0  0  0  0  0  0  0
    3.0564   -5.6302   28.2042 C   0  0  0  0  0  0  0  0  0  0  0  0
    1.4822   -6.6864   30.8291 N   0  0  0  0  0  0  0  0  0  0  0  0
    2.7864   -6.4096   30.6091 C   0  0  0  0  0  0  0  0  0  0  0  0
    3.5031   -6.0011   31.5217 O   0  0  0  0  0  0  0  0  0  0  0  0
    0.9447   -7.0158   30.0728 H   0  0  0  0  0  0  0  0  0  0  0  0
    0.8161   -6.5243   32.1357 C   0  0  0  0  0  0  0  0  0  0  0  0
    1.4581   -7.5299   33.1075 C   0  0  0  0  0  0  0  0  0  0  0  0
   -1.4146   -7.4501   32.9199 C   0  0  0  0  0  0  0  0  0  0  0  0
   -2.8189   -7.6057   32.8090 C   0  0  0  0  0  0  0  0  0  0  0  0
   -3.5250   -6.9844   31.7510 C   0  0  0  0  0  0  0  0  0  0  0  0
   -2.8338   -6.2010   30.7967 C   0  0  0  0  0  0  0  0  0  0  0  0
   -1.4273   -6.0427   30.9056 C   0  0  0  0  0  0  0  0  0  0  0  0
   -0.7065   -6.6740   31.9746 C   0  0  0  0  0  0  0  0  0  0  0  0
    5.3056   -9.1755   27.1543 N   0  0  0  0  0  0  0  0  0  0  0  0
    4.7790  -10.0223   26.0331 C   0  0  0  0  0  0  0  0  0  0  0  0
    7.0517   -8.9941   26.9646 S   0  0  0  0  0  0  0  0  0  0  0  0
    7.5587   -7.7715   27.7867 O   0  0  0  0  0  0  0  0  0  0  0  0
    7.8567  -10.2744   27.4235 O   0  0  0  0  0  0  0  0  0  0  0  0
    7.4008   -8.5957   25.2419 C   0  0  0  0  0  0  0  0  0  0  0  0
    2.7563   -2.2568   25.4708 C   0  0  0  0  0  0  0  0  0  0  0  0
    3.8096   -1.3377   24.7754 C   0  0  0  0  0  0  0  0  0  0  0  0
    3.2303   -0.3390   23.9615 O   0  0  0  0  0  0  0  0  0  0  0  0
    2.8050   -0.7533   23.1945 H   0  0  0  0  0  0  0  0  0  0  0  0
    4.8787   -2.0210   23.9279 C   0  0  0  0  0  0  0  0  0  0  0  0
    6.2860   -1.9226   24.3219 N   0  0  0  0  0  0  0  0  0  0  0  0
    6.7774   -1.4475   23.5648 H   0  0  0  0  0  0  0  0  0  0  0  0
    6.6294   -1.2008   25.5938 C   0  0  0  0  0  0  0  0  0  0  0  0
    7.3005   -2.1680   26.5695 C   0  0  0  0  0  0  0  0  0  0  0  0
    6.5066   -3.1072   27.2578 C   0  0  0  0  0  0  0  0  0  0  0  0
    7.0658   -3.9843   28.1982 C   0  0  0  0  0  0  0  0  0  0  0  0
    8.4635   -3.9170   28.4565 C   0  0  0  0  0  0  0  0  0  0  0  0
    9.2802   -2.9863   27.7760 C   0  0  0  0  0  0  0  0  0  0  0  0
    8.6958   -2.1016   26.8261 C   0  0  0  0  0  0  0  0  0  0  0  0
    6.3532   -4.9208   28.9254 O   0  0  0  0  0  0  0  0  0  0  0  0
    6.7555   -5.3884   30.2229 C   0  0  0  0  0  0  0  0  0  0  0  0
    2.0056   -1.3178   26.4883 C   0  0  0  0  0  0  0  0  0  0  0  0
    0.8345   -1.8370   27.3412 C   0  0  0  0  0  0  0  0  0  0  0  0
   -0.5142   -1.6430   26.9351 C   0  0  0  0  0  0  0  0  0  0  0  0
   -1.5812   -2.1220   27.7521 C   0  0  0  0  0  0  0  0  0  0  0  0
   -1.2990   -2.7860   28.9648 C   0  0  0  0  0  0  0  0  0  0  0  0
    0.0528   -2.9881   29.3808 C   0  0  0  0  0  0  0  0  0  0  0  0
    1.1142   -2.5131   28.5669 C   0  0  0  0  0  0  0  0  0  0  0  0
 17 18  1  0  0  0
 17 22  2  0  0  0
 18 19  2  0  0  0
 19 20  1  0  0  0
 20 21  2  0  0  0
 21 22  1  0  0  0
 22 15  1  0  0  0
 15 16  1  0  0  0
 15 11  1  0  0  0
 11 12  1  0  0  0
 12 13  2  0  0  0
 12  5  1  0  0  0
  5  6  1  0  0  0
  5 10  2  0  0  0
  6  7  2  0  0  0
  7  8  1  0  0  0
  7 23  1  0  0  0
  8  9  2  0  0  0
  9 10  1  0  0  0
  9  1  1  0  0  0
 23 24  1  0  0  0
 23 25  1  0  0  0
 25 26  2  0  0  0
 25 27  2  0  0  0
 25 28  1  0  0  0
  1  2  2  0  0  0
  1  3  1  0  0  0
  3 29  1  0  0  0
 29 45  1  0  0  0
 29 30  1  0  0  0
 45 46  1  0  0  0
 46 47  1  0  0  0
 46 51  2  0  0  0
 47 48  2  0  0  0
 48 49  1  0  0  0
 49 50  2  0  0  0
 50 51  1  0  0  0
 30 31  1  0  0  0
 30 33  1  0  0  0
 33 34  1  0  0  0
 34 36  1  0  0  0
 36 37  1  0  0  0
 37 38  1  0  0  0
 37 42  2  0  0  0
 38 39  2  0  0  0
 39 40  1  0  0  0
 39 43  1  0  0  0
 40 41  2  0  0  0
 41 42  1  0  0  0
 43 44  1  0  0  0
 11 14  1  0  0  0
  3  4  1  0  0  0
 31 32  1  0  0  0
 34 35  1  0  0  0
M  END
> <minimizedAffinity>
-8.76334

$$$$
2VKM_BSD_A_1386


 51 54  0  0  0  0  0  0  0  0999 V2000
    1.3540   -1.7009   27.9432 C   0  0  0  0  0  0  0  0  0  0  0  0
    1.6545   -0.7465   28.6960 O   0  0  0  0  0  0  0  0  0  0  0  0
    0.0787   -1.8995   27.4696 N   0  0  0  0  0  0  0  0  0  0  0  0
   -0.1355   -2.7903   27.1093 H   0  0  0  0  0  0  0  0  0  0  0  0
    3.3533   -4.9462   27.4857 C   0  0  0  0  0  0  0  0  0  0  0  0
    4.4214   -4.4734   26.6472 C   0  0  0  0  0  0  0  0  0  0  0  0
    4.4970   -3.0905   26.2288 C   0  0  0  0  0  0  0  0  0  0  0  0
    3.4712   -2.2114   26.6755 C   0  0  0  0  0  0  0  0  0  0  0  0
    2.4006   -2.6651   27.5082 C   0  0  0  0  0  0  0  0  0  0  0  0
    2.3724   -4.0210   27.8908 C   0  0  0  0  0  0  0  0  0  0  0  0
    3.0979   -7.3107   26.9670 N   0  0  0  0  0  0  0  0  0  0  0  0
    3.3063   -6.3853   27.9294 C   0  0  0  0  0  0  0  0  0  0  0  0
    3.4229   -6.7210   29.1072 O   0  0  0  0  0  0  0  0  0  0  0  0
    3.0149   -7.0005   26.0364 H   0  0  0  0  0  0  0  0  0  0  0  0
    2.9874   -8.7588   27.2286 C   0  0  0  0  0  0  0  0  0  0  0  0
    4.4010   -9.3561   27.1156 C   0  0  0  0  0  0  0  0  0  0  0  0
    1.5672   -8.6748   25.1253 C   0  0  0  0  0  0  0  0  0  0  0  0
    0.6193   -9.2251   24.2268 C   0  0  0  0  0  0  0  0  0  0  0  0
    0.0480  -10.4951   24.4809 C   0  0  0  0  0  0  0  0  0  0  0  0
    0.4208  -11.2261   25.6336 C   0  0  0  0  0  0  0  0  0  0  0  0
    1.3706  -10.6778   26.5350 C   0  0  0  0  0  0  0  0  0  0  0  0
    1.9498   -9.3886   26.2834 C   0  0  0  0  0  0  0  0  0  0  0  0
    5.5878   -2.6364   25.3463 N   0  0  0  0  0  0  0  0  0  0  0  0
    5.2702   -1.5808   24.3282 C   0  0  0  0  0  0  0  0  0  0  0  0
    7.1139   -2.2304   26.1362 S   0  0  0  0  0  0  0  0  0  0  0  0
    6.8685   -1.8805   27.6345 O   0  0  0  0  0  0  0  0  0  0  0  0
    8.1748   -3.3996   26.0625 O   0  0  0  0  0  0  0  0  0  0  0  0
    7.7612   -0.7239   25.3883 C   0  0  0  0  0  0  0  0  0  0  0  0
   -1.0185   -0.8664   27.4562 C   0  0  0  0  0  0  0  0  0  0  0  0
   -2.3177   -1.2912   28.2107 C   0  0  0  0  0  0  0  0  0  0  0  0
   -2.9550   -0.2195   28.8746 O   0  0  0  0  0  0  0  0  0  0  0  0
   -2.3990    0.0817   29.6101 H   0  0  0  0  0  0  0  0  0  0  0  0
   -2.1937   -2.4199   29.2298 C   0  0  0  0  0  0  0  0  0  0  0  0
   -3.3707   -3.2252   29.5640 N   0  0  0  0  0  0  0  0  0  0  0  0
   -3.0812   -4.2030   29.5441 H   0  0  0  0  0  0  0  0  0  0  0  0
   -4.0523   -2.9923   30.8823 C   0  0  0  0  0  0  0  0  0  0  0  0
   -4.0822   -4.2944   31.6833 C   0  0  0  0  0  0  0  0  0  0  0  0
   -3.4832   -5.4478   31.1382 C   0  0  0  0  0  0  0  0  0  0  0  0
   -3.5246   -6.6776   31.8107 C   0  0  0  0  0  0  0  0  0  0  0  0
   -4.1874   -6.7531   33.0677 C   0  0  0  0  0  0  0  0  0  0  0  0
   -4.7917   -5.6093   33.6358 C   0  0  0  0  0  0  0  0  0  0  0  0
   -4.7424   -4.3692   32.9386 C   0  0  0  0  0  0  0  0  0  0  0  0
   -2.9765   -7.8556   31.3358 O   0  0  0  0  0  0  0  0  0  0  0  0
   -2.3012   -7.9613   30.0721 C   0  0  0  0  0  0  0  0  0  0  0  0
   -1.4722   -0.6281   25.9670 C   0  0  0  0  0  0  0  0  0  0  0  0
   -0.4564   -0.6331   24.8109 C   0  0  0  0  0  0  0  0  0  0  0  0
   -0.6597   -1.4376   23.6564 C   0  0  0  0  0  0  0  0  0  0  0  0
    0.3054   -1.4343   22.6055 C   0  0  0  0  0  0  0  0  0  0  0  0
    1.4633   -0.6349   22.7124 C   0  0  0  0  0  0  0  0  0  0  0  0
    1.6758    0.1790   23.8673 C   0  0  0  0  0  0  0  0  0  0  0  0
    0.7147    0.1769   24.9118 C   0  0  0  0  0  0  0  0  0  0  0  0
 17 18  1  0  0  0
 17 22  2  0  0  0
 18 19  2  0  0  0
 19 20  1  0  0  0
 20 21  2  0  0  0
 21 22  1  0  0  0
 22 15  1  0  0  0
 15 16  1  0  0  0
 15 11  1  0  0  0
 11 12  1  0  0  0
 12 13  2  0  0  0
 12  5  1  0  0  0
  5  6  1  0  0  0
  5 10  2  0  0  0
  6  7  2  0  0  0
  7  8  1  0  0  0
  7 23  1  0  0  0
  8  9  2  0  0  0
  9 10  1  0  0  0
  9  1  1  0  0  0
 23 24  1  0  0  0
 23 25  1  0  0  0
 25 26  2  0  0  0
 25 27  2  0  0  0
 25 28  1  0  0  0
  1  2  2  0  0  0
  1  3  1  0  0  0
  3 29  1  0  0  0
 29 45  1  0  0  0
 29 30  1  0  0  0
 45 46  1  0  0  0
 46 47  1  0  0  0
 46 51  2  0  0  0
 47 48  2  0  0  0
 48 49  1  0  0  0
 49 50  2  0  0  0
 50 51  1  0  0  0
 30 31  1  0  0  0
 30 33  1  0  0  0
 33 34  1  0  0  0
 34 36  1  0  0  0
 36 37  1  0  0  0
 37 38  1  0  0  0
 37 42  2  0  0  0
 38 39  2  0  0  0
 39 40  1  0  0  0
 39 43  1  0  0  0
 40 41  2  0  0  0
 41 42  1  0  0  0
 43 44  1  0  0  0
 11 14  1  0  0  0
  3  4  1  0  0  0
 31 32  1  0  0  0
 34 35  1  0  0  0
M  END
> <minimizedAffinity>
-8.72306

$$$$
2VKM_BSD_A_1386


 51 54  0  0  0  0  0  0  0  0999 V2000
  -10.3552   -0.3255   29.5527 C   0  0  0  0  0  0  0  0  0  0  0  0
   -9.6719   -0.3557   28.5038 O   0  0  0  0  0  0  0  0  0  0  0  0
  -11.5665    0.3202   29.6310 N   0  0  0  0  0  0  0  0  0  0  0  0
  -11.9129    0.5226   30.5300 H   0  0  0  0  0  0  0  0  0  0  0  0
   -8.0339   -1.8978   32.1753 C   0  0  0  0  0  0  0  0  0  0  0  0
   -9.0032   -2.3610   33.1310 C   0  0  0  0  0  0  0  0  0  0  0  0
  -10.4216   -2.1656   32.9228 C   0  0  0  0  0  0  0  0  0  0  0  0
  -10.8254   -1.4933   31.7357 C   0  0  0  0  0  0  0  0  0  0  0  0
   -9.8749   -1.0243   30.7754 C   0  0  0  0  0  0  0  0  0  0  0  0
   -8.5046   -1.2408   31.0224 C   0  0  0  0  0  0  0  0  0  0  0  0
   -5.8855   -2.7403   31.4010 N   0  0  0  0  0  0  0  0  0  0  0  0
   -6.5627   -2.1326   32.4000 C   0  0  0  0  0  0  0  0  0  0  0  0
   -5.9921   -1.8186   33.4437 O   0  0  0  0  0  0  0  0  0  0  0  0
   -6.3784   -2.9706   30.5805 H   0  0  0  0  0  0  0  0  0  0  0  0
   -4.4508   -3.0793   31.4673 C   0  0  0  0  0  0  0  0  0  0  0  0
   -3.8524   -2.8226   30.0730 C   0  0  0  0  0  0  0  0  0  0  0  0
   -3.8464   -5.5149   31.0797 C   0  0  0  0  0  0  0  0  0  0  0  0
   -3.6628   -6.8491   31.5209 C   0  0  0  0  0  0  0  0  0  0  0  0
   -3.9021   -7.1936   32.8729 C   0  0  0  0  0  0  0  0  0  0  0  0
   -4.3248   -6.2072   33.7952 C   0  0  0  0  0  0  0  0  0  0  0  0
   -4.5089   -4.8698   33.3563 C   0  0  0  0  0  0  0  0  0  0  0  0
   -4.2710   -4.5166   31.9854 C   0  0  0  0  0  0  0  0  0  0  0  0
  -11.3942   -2.6260   33.9312 N   0  0  0  0  0  0  0  0  0  0  0  0
  -12.4247   -1.6449   34.4080 C   0  0  0  0  0  0  0  0  0  0  0  0
  -12.1816   -4.1730   33.6078 S   0  0  0  0  0  0  0  0  0  0  0  0
  -13.6665   -3.9456   33.1945 O   0  0  0  0  0  0  0  0  0  0  0  0
  -11.4658   -5.0011   32.4678 O   0  0  0  0  0  0  0  0  0  0  0  0
  -12.2467   -5.1130   35.1442 C   0  0  0  0  0  0  0  0  0  0  0  0
  -12.4078    0.7436   28.4546 C   0  0  0  0  0  0  0  0  0  0  0  0
  -12.2588    2.2466   28.0590 C   0  0  0  0  0  0  0  0  0  0  0  0
  -11.9531    3.0857   29.1535 O   0  0  0  0  0  0  0  0  0  0  0  0
  -12.7134    3.1228   29.7547 H   0  0  0  0  0  0  0  0  0  0  0  0
  -13.4324    2.8947   27.3307 C   0  0  0  0  0  0  0  0  0  0  0  0
  -13.4619    2.8984   25.8663 N   0  0  0  0  0  0  0  0  0  0  0  0
  -12.5933    3.3291   25.5494 H   0  0  0  0  0  0  0  0  0  0  0  0
  -13.5946    1.5873   25.1450 C   0  0  0  0  0  0  0  0  0  0  0  0
  -12.2602    1.2202   24.4951 C   0  0  0  0  0  0  0  0  0  0  0  0
  -11.5257    0.1315   25.0066 C   0  0  0  0  0  0  0  0  0  0  0  0
  -10.2748   -0.2167   24.4774 C   0  0  0  0  0  0  0  0  0  0  0  0
   -9.7440    0.5505   23.4029 C   0  0  0  0  0  0  0  0  0  0  0  0
  -10.4637    1.6438   22.8709 C   0  0  0  0  0  0  0  0  0  0  0  0
  -11.7313    1.9851   23.4216 C   0  0  0  0  0  0  0  0  0  0  0  0
   -9.4868   -1.2581   24.9339 O   0  0  0  0  0  0  0  0  0  0  0  0
   -9.0677   -2.3550   24.1061 C   0  0  0  0  0  0  0  0  0  0  0  0
  -13.9276    0.5703   28.8297 C   0  0  0  0  0  0  0  0  0  0  0  0
  -14.4228    0.7703   30.2731 C   0  0  0  0  0  0  0  0  0  0  0  0
  -14.7235    2.0662   30.7748 C   0  0  0  0  0  0  0  0  0  0  0  0
  -15.1672    2.2246   32.1216 C   0  0  0  0  0  0  0  0  0  0  0  0
  -15.3053    1.0959   32.9571 C   0  0  0  0  0  0  0  0  0  0  0  0
  -15.0081   -0.2109   32.4618 C   0  0  0  0  0  0  0  0  0  0  0  0
  -14.5685   -0.3684   31.1215 C   0  0  0  0  0  0  0  0  0  0  0  0
 17 18  1  0  0  0
 17 22  2  0  0  0
 18 19  2  0  0  0
 19 20  1  0  0  0
 20 21  2  0  0  0
 21 22  1  0  0  0
 22 15  1  0  0  0
 15 16  1  0  0  0
 15 11  1  0  0  0
 11 12  1  0  0  0
 12 13  2  0  0  0
 12  5  1  0  0  0
  5  6  1  0  0  0
  5 10  2  0  0  0
  6  7  2  0  0  0
  7  8  1  0  0  0
  7 23  1  0  0  0
  8  9  2  0  0  0
  9 10  1  0  0  0
  9  1  1  0  0  0
 23 24  1  0  0  0
 23 25  1  0  0  0
 25 26  2  0  0  0
 25 27  2  0  0  0
 25 28  1  0  0  0
  1  2  2  0  0  0
  1  3  1  0  0  0
  3 29  1  0  0  0
 29 45  1  0  0  0
 29 30  1  0  0  0
 45 46  1  0  0  0
 46 47  1  0  0  0
 46 51  2  0  0  0
 47 48  2  0  0  0
 48 49  1  0  0  0
 49 50  2  0  0  0
 50 51  1  0  0  0
 30 31  1  0  0  0
 30 33  1  0  0  0
 33 34  1  0  0  0
 34 36  1  0  0  0
 36 37  1  0  0  0
 37 38  1  0  0  0
 37 42  2  0  0  0
 38 39  2  0  0  0
 39 40  1  0  0  0
 39 43  1  0  0  0
 40 41  2  0  0  0
 41 42  1  0  0  0
 43 44  1  0  0  0
 11 14  1  0  0  0
  3  4  1  0  0  0
 31 32  1  0  0  0
 34 35  1  0  0  0
M  END
> <minimizedAffinity>
-8.64263

$$$$
2VKM_BSD_A_1386


 51 54  0  0  0  0  0  0  0  0999 V2000
   -6.4179   -2.2439   32.1306 C   0  0  0  0  0  0  0  0  0  0  0  0
   -5.9157   -1.6609   33.1185 O   0  0  0  0  0  0  0  0  0  0  0  0
   -5.6658   -2.9622   31.2314 N   0  0  0  0  0  0  0  0  0  0  0  0
   -6.0767   -3.1662   30.3604 H   0  0  0  0  0  0  0  0  0  0  0  0
   -9.8269   -1.8365   30.4127 C   0  0  0  0  0  0  0  0  0  0  0  0
  -10.7053   -2.1158   31.5163 C   0  0  0  0  0  0  0  0  0  0  0  0
  -10.1892   -2.4356   32.8296 C   0  0  0  0  0  0  0  0  0  0  0  0
   -8.7759   -2.4673   32.9908 C   0  0  0  0  0  0  0  0  0  0  0  0
   -7.8876   -2.1940   31.9038 C   0  0  0  0  0  0  0  0  0  0  0  0
   -8.4389   -1.8852   30.6443 C   0  0  0  0  0  0  0  0  0  0  0  0
   -9.9718   -0.3149   28.5182 N   0  0  0  0  0  0  0  0  0  0  0  0
  -10.3852   -1.4823   29.0588 C   0  0  0  0  0  0  0  0  0  0  0  0
  -11.1982   -2.1930   28.4693 O   0  0  0  0  0  0  0  0  0  0  0  0
   -9.3167    0.2217   29.0203 H   0  0  0  0  0  0  0  0  0  0  0  0
  -10.4443    0.2031   27.2197 C   0  0  0  0  0  0  0  0  0  0  0  0
   -9.2203    0.7657   26.4758 C   0  0  0  0  0  0  0  0  0  0  0  0
  -11.6084    1.9559   28.6411 C   0  0  0  0  0  0  0  0  0  0  0  0
  -12.6360    2.9034   28.8750 C   0  0  0  0  0  0  0  0  0  0  0  0
  -13.6442    3.1178   27.9047 C   0  0  0  0  0  0  0  0  0  0  0  0
  -13.6323    2.3887   26.6920 C   0  0  0  0  0  0  0  0  0  0  0  0
  -12.6037    1.4396   26.4545 C   0  0  0  0  0  0  0  0  0  0  0  0
  -11.5814    1.2161   27.4373 C   0  0  0  0  0  0  0  0  0  0  0  0
  -11.1109   -2.7448   33.9385 N   0  0  0  0  0  0  0  0  0  0  0  0
  -11.9915   -1.6402   34.4446 C   0  0  0  0  0  0  0  0  0  0  0  0
  -12.0754   -4.2138   33.7661 S   0  0  0  0  0  0  0  0  0  0  0  0
  -13.5465   -3.8526   33.4018 O   0  0  0  0  0  0  0  0  0  0  0  0
  -11.5120   -5.1933   32.6611 O   0  0  0  0  0  0  0  0  0  0  0  0
  -12.1620   -5.0317   35.3698 C   0  0  0  0  0  0  0  0  0  0  0  0
   -4.2644   -3.4632   31.4688 C   0  0  0  0  0  0  0  0  0  0  0  0
   -3.1485   -2.6186   30.7767 C   0  0  0  0  0  0  0  0  0  0  0  0
   -3.6520   -1.6757   29.8532 O   0  0  0  0  0  0  0  0  0  0  0  0
   -4.0360   -2.1406   29.0934 H   0  0  0  0  0  0  0  0  0  0  0  0
   -2.0425   -3.3834   30.0558 C   0  0  0  0  0  0  0  0  0  0  0  0
   -0.7053   -3.4523   30.6496 N   0  0  0  0  0  0  0  0  0  0  0  0
   -0.8280   -3.6336   31.6458 H   0  0  0  0  0  0  0  0  0  0  0  0
    0.2622   -4.4770   30.1293 C   0  0  0  0  0  0  0  0  0  0  0  0
    0.7430   -5.3618   31.2798 C   0  0  0  0  0  0  0  0  0  0  0  0
    1.6864   -4.8471   32.1916 C   0  0  0  0  0  0  0  0  0  0  0  0
    2.1950   -5.6330   33.2356 C   0  0  0  0  0  0  0  0  0  0  0  0
    1.7442   -6.9762   33.3688 C   0  0  0  0  0  0  0  0  0  0  0  0
    0.7961   -7.5129   32.4693 C   0  0  0  0  0  0  0  0  0  0  0  0
    0.2919   -6.7018   31.4136 C   0  0  0  0  0  0  0  0  0  0  0  0
    3.1330   -5.2075   34.1591 O   0  0  0  0  0  0  0  0  0  0  0  0
    3.6608   -3.8717   34.1929 C   0  0  0  0  0  0  0  0  0  0  0  0
   -4.1290   -4.9039   30.8470 C   0  0  0  0  0  0  0  0  0  0  0  0
   -3.5719   -6.0802   31.6682 C   0  0  0  0  0  0  0  0  0  0  0  0
   -3.2190   -7.3094   31.0469 C   0  0  0  0  0  0  0  0  0  0  0  0
   -2.7183   -8.3888   31.8341 C   0  0  0  0  0  0  0  0  0  0  0  0
   -2.5755   -8.2382   33.2298 C   0  0  0  0  0  0  0  0  0  0  0  0
   -2.9249   -7.0064   33.8636 C   0  0  0  0  0  0  0  0  0  0  0  0
   -3.4213   -5.9320   33.0800 C   0  0  0  0  0  0  0  0  0  0  0  0
 17 18  1  0  0  0
 17 22  2  0  0  0
 18 19  2  0  0  0
 19 20  1  0  0  0
 20 21  2  0  0  0
 21 22  1  0  0  0
 22 15  1  0  0  0
 15 16  1  0  0  0
 15 11  1  0  0  0
 11 12  1  0  0  0
 12 13  2  0  0  0
 12  5  1  0  0  0
  5  6  1  0  0  0
  5 10  2  0  0  0
  6  7  2  0  0  0
  7  8  1  0  0  0
  7 23  1  0  0  0
  8  9  2  0  0  0
  9 10  1  0  0  0
  9  1  1  0  0  0
 23 24  1  0  0  0
 23 25  1  0  0  0
 25 26  2  0  0  0
 25 27  2  0  0  0
 25 28  1  0  0  0
  1  2  2  0  0  0
  1  3  1  0  0  0
  3 29  1  0  0  0
 29 45  1  0  0  0
 29 30  1  0  0  0
 45 46  1  0  0  0
 46 47  1  0  0  0
 46 51  2  0  0  0
 47 48  2  0  0  0
 48 49  1  0  0  0
 49 50  2  0  0  0
 50 51  1  0  0  0
 30 31  1  0  0  0
 30 33  1  0  0  0
 33 34  1  0  0  0
 34 36  1  0  0  0
 36 37  1  0  0  0
 37 38  1  0  0  0
 37 42  2  0  0  0
 38 39  2  0  0  0
 39 40  1  0  0  0
 39 43  1  0  0  0
 40 41  2  0  0  0
 41 42  1  0  0  0
 43 44  1  0  0  0
 11 14  1  0  0  0
  3  4  1  0  0  0
 31 32  1  0  0  0
 34 35  1  0  0  0
M  END
> <minimizedAffinity>
-8.62984

$$$$
