5ZA8_27I_U_301


 32 34  0  0  0  0  0  0  0  0999 V2000
  -29.4295  -17.5685   -3.6711 C   0  0  0  0  0  0  0  0  0  0  0  0
  -29.4847  -16.8169   -2.5389 N   0  0  0  0  0  0  0  0  0  0  0  0
  -28.3939  -17.3580   -4.5669 C   0  0  0  0  0  0  0  0  0  0  0  0
  -28.2709  -18.0625   -5.7227 N   0  0  0  0  0  0  0  0  0  0  0  0
  -27.4871  -16.3953   -4.2792 N   0  0  0  0  0  0  0  0  0  0  0  0
  -27.5378  -15.6421   -3.1448 C   0  0  0  0  0  0  0  0  0  0  0  0
  -28.5795  -15.8466   -2.2217 C   0  0  0  0  0  0  0  0  0  0  0  0
  -27.5191  -17.8813   -6.3320 H   0  0  0  0  0  0  0  0  0  0  0  0
  -28.9335  -18.7540   -5.9507 H   0  0  0  0  0  0  0  0  0  0  0  0
  -26.5472  -14.6550   -3.0434 N   0  0  0  0  0  0  0  0  0  0  0  0
  -25.1963  -15.0832   -2.6176 C   0  0  0  0  0  0  0  0  0  0  0  0
  -24.8630  -14.6590   -1.1938 C   0  0  0  0  0  0  0  0  0  0  0  0
  -24.2354  -13.2649   -1.1815 C   0  0  0  0  0  0  0  0  0  0  0  0
  -25.1069  -12.1425   -1.7605 C   0  0  0  0  0  0  0  0  0  0  0  0
  -26.5915  -12.4729   -1.9918 C   0  0  0  0  0  0  0  0  0  0  0  0
  -26.8222  -13.2500   -3.2828 C   0  0  0  0  0  0  0  0  0  0  0  0
  -29.3942  -13.8235    0.6622 N   0  0  0  0  0  0  0  0  0  0  0  0
  -28.7957  -15.1689   -0.9862 C   0  0  0  0  0  0  0  0  0  0  0  0
  -28.2408  -15.5870    0.2199 C   0  0  0  0  0  0  0  0  0  0  0  0
  -28.5833  -14.7788    1.2449 N   0  0  0  0  0  0  0  0  0  0  0  0
  -29.9390  -12.7993    1.5914 C   0  0  0  0  0  0  0  0  0  0  0  0
  -29.5244  -14.0314   -0.6439 C   0  0  0  0  0  0  0  0  0  0  0  0
  -30.8916  -18.8072   -5.0205 O   0  0  0  0  0  0  0  0  0  0  0  0
  -30.4934  -18.5990   -3.8887 C   0  0  0  0  0  0  0  0  0  0  0  0
  -30.9659  -19.2072   -2.7889 N   0  0  0  0  0  0  0  0  0  0  0  0
  -30.5843  -18.9176   -1.9288 H   0  0  0  0  0  0  0  0  0  0  0  0
  -31.8933  -20.1583   -2.7359 C   0  0  0  0  0  0  0  0  0  0  0  0
  -32.0728  -20.9308   -3.8015 N   0  0  0  0  0  0  0  0  0  0  0  0
  -32.6185  -20.3691   -1.6486 N   0  0  0  0  0  0  0  0  0  0  0  0
  -32.7538  -21.6416   -3.7851 H   0  0  0  0  0  0  0  0  0  0  0  0
  -31.5248  -20.7926   -4.6076 H   0  0  0  0  0  0  0  0  0  0  0  0
  -32.4916  -19.8010   -0.8545 H   0  0  0  0  0  0  0  0  0  0  0  0
  4  3  1  0  0  0
 23 24  2  0  0  0
 29 27  2  0  0  0
  3  5  2  0  0  0
  3  1  1  0  0  0
 24  1  1  0  0  0
 24 25  1  0  0  0
  5  6  1  0  0  0
 15 16  1  0  0  0
 15 14  1  0  0  0
  1  2  2  0  0  0
 27 25  1  0  0  0
 27 28  1  0  0  0
 16 10  1  0  0  0
  6 10  1  0  0  0
  6  7  2  0  0  0
 14 13  1  0  0  0
  2  7  1  0  0  0
 10 11  1  0  0  0
  7 18  1  0  0  0
 13 12  1  0  0  0
 12 11  1  0  0  0
 18 19  1  0  0  0
 18 22  2  0  0  0
 19 20  2  0  0  0
 22 17  1  0  0  0
 20 17  1  0  0  0
 17 21  1  0  0  0
 25 26  1  0  0  0
 28 30  1  0  0  0
 28 31  1  0  0  0
 29 32  1  0  0  0
  4  8  1  0  0  0
  4  9  1  0  0  0
M  END
> <minimizedAffinity>
-9.07050

$$$$
5ZA8_27I_U_301


 32 34  0  0  0  0  0  0  0  0999 V2000
  -29.1199  -17.8270   -3.3424 C   0  0  0  0  0  0  0  0  0  0  0  0
  -28.6030  -17.7761   -2.0855 N   0  0  0  0  0  0  0  0  0  0  0  0
  -28.7157  -16.8840   -4.2733 C   0  0  0  0  0  0  0  0  0  0  0  0
  -29.1891  -16.8627   -5.5472 N   0  0  0  0  0  0  0  0  0  0  0  0
  -27.8304  -15.9384   -3.8807 N   0  0  0  0  0  0  0  0  0  0  0  0
  -27.3086  -15.8859   -2.6230 C   0  0  0  0  0  0  0  0  0  0  0  0
  -27.7038  -16.8391   -1.6669 C   0  0  0  0  0  0  0  0  0  0  0  0
  -28.8753  -16.1746   -6.1775 H   0  0  0  0  0  0  0  0  0  0  0  0
  -29.8457  -17.5354   -5.8396 H   0  0  0  0  0  0  0  0  0  0  0  0
  -26.4504  -14.8036   -2.3817 N   0  0  0  0  0  0  0  0  0  0  0  0
  -27.0502  -13.5618   -1.8450 C   0  0  0  0  0  0  0  0  0  0  0  0
  -27.1248  -12.4466   -2.8789 C   0  0  0  0  0  0  0  0  0  0  0  0
  -25.8378  -11.6213   -2.8730 C   0  0  0  0  0  0  0  0  0  0  0  0
  -24.5526  -12.3988   -3.1867 C   0  0  0  0  0  0  0  0  0  0  0  0
  -24.7272  -13.8128   -3.7667 C   0  0  0  0  0  0  0  0  0  0  0  0
  -25.0334  -14.8505   -2.6928 C   0  0  0  0  0  0  0  0  0  0  0  0
  -26.1592  -17.0394    1.5961 N   0  0  0  0  0  0  0  0  0  0  0  0
  -27.2671  -16.9512   -0.3146 C   0  0  0  0  0  0  0  0  0  0  0  0
  -28.1292  -17.2165    0.7455 C   0  0  0  0  0  0  0  0  0  0  0  0
  -27.4786  -17.2839    1.9260 N   0  0  0  0  0  0  0  0  0  0  0  0
  -25.2085  -17.0343    2.7386 C   0  0  0  0  0  0  0  0  0  0  0  0
  -26.0149  -16.8494    0.2887 C   0  0  0  0  0  0  0  0  0  0  0  0
  -30.0862  -19.4139   -4.7710 O   0  0  0  0  0  0  0  0  0  0  0  0
  -30.0996  -18.9132   -3.6610 C   0  0  0  0  0  0  0  0  0  0  0  0
  -30.9643  -19.2384   -2.6869 N   0  0  0  0  0  0  0  0  0  0  0  0
  -30.8927  -18.7283   -1.8479 H   0  0  0  0  0  0  0  0  0  0  0  0
  -31.9069  -20.1749   -2.7327 C   0  0  0  0  0  0  0  0  0  0  0  0
  -32.6255  -20.4072   -1.6399 N   0  0  0  0  0  0  0  0  0  0  0  0
  -32.1618  -20.8581   -3.8376 N   0  0  0  0  0  0  0  0  0  0  0  0
  -33.3289  -21.0959   -1.6504 H   0  0  0  0  0  0  0  0  0  0  0  0
  -32.4546  -19.8906   -0.8194 H   0  0  0  0  0  0  0  0  0  0  0  0
  -31.6339  -20.6921   -4.6519 H   0  0  0  0  0  0  0  0  0  0  0  0
  4  3  1  0  0  0
 23 24  2  0  0  0
 29 27  2  0  0  0
  3  5  2  0  0  0
  3  1  1  0  0  0
 24  1  1  0  0  0
 24 25  1  0  0  0
  5  6  1  0  0  0
 15 16  1  0  0  0
 15 14  1  0  0  0
  1  2  2  0  0  0
 27 25  1  0  0  0
 27 28  1  0  0  0
 16 10  1  0  0  0
  6 10  1  0  0  0
  6  7  2  0  0  0
 14 13  1  0  0  0
  2  7  1  0  0  0
 10 11  1  0  0  0
  7 18  1  0  0  0
 13 12  1  0  0  0
 12 11  1  0  0  0
 18 19  1  0  0  0
 18 22  2  0  0  0
 19 20  2  0  0  0
 22 17  1  0  0  0
 20 17  1  0  0  0
 17 21  1  0  0  0
 25 26  1  0  0  0
 28 30  1  0  0  0
 28 31  1  0  0  0
 29 32  1  0  0  0
  4  8  1  0  0  0
  4  9  1  0  0  0
M  END
> <minimizedAffinity>
-8.99955

$$$$
5ZA8_27I_U_301


 32 34  0  0  0  0  0  0  0  0999 V2000
  -28.8011  -16.6880   -3.2804 C   0  0  0  0  0  0  0  0  0  0  0  0
  -29.2224  -15.9479   -2.2199 N   0  0  0  0  0  0  0  0  0  0  0  0
  -27.5334  -16.4658   -3.7929 C   0  0  0  0  0  0  0  0  0  0  0  0
  -27.0405  -17.1583   -4.8535 N   0  0  0  0  0  0  0  0  0  0  0  0
  -26.7731  -15.5036   -3.2201 N   0  0  0  0  0  0  0  0  0  0  0  0
  -27.1909  -14.7620   -2.1560 C   0  0  0  0  0  0  0  0  0  0  0  0
  -28.4732  -14.9785   -1.6195 C   0  0  0  0  0  0  0  0  0  0  0  0
  -26.1336  -16.9690   -5.1865 H   0  0  0  0  0  0  0  0  0  0  0  0
  -27.5904  -17.8493   -5.2887 H   0  0  0  0  0  0  0  0  0  0  0  0
  -26.2915  -13.7733   -1.7324 N   0  0  0  0  0  0  0  0  0  0  0  0
  -26.3350  -12.4668   -2.4257 C   0  0  0  0  0  0  0  0  0  0  0  0
  -25.1457  -12.2486   -3.3511 C   0  0  0  0  0  0  0  0  0  0  0  0
  -23.9831  -11.6103   -2.5905 C   0  0  0  0  0  0  0  0  0  0  0  0
  -23.4470  -12.4194   -1.4020 C   0  0  0  0  0  0  0  0  0  0  0  0
  -23.9101  -13.8829   -1.3002 C   0  0  0  0  0  0  0  0  0  0  0  0
  -25.3036  -14.0134   -0.6962 C   0  0  0  0  0  0  0  0  0  0  0  0
  -29.6924  -13.5180    1.4552 N   0  0  0  0  0  0  0  0  0  0  0  0
  -29.0798  -14.3138   -0.5138 C   0  0  0  0  0  0  0  0  0  0  0  0
  -30.1594  -13.4451   -0.6454 C   0  0  0  0  0  0  0  0  0  0  0  0
  -30.5609  -12.9486    0.5435 N   0  0  0  0  0  0  0  0  0  0  0  0
  -29.9023  -13.1154    2.8705 C   0  0  0  0  0  0  0  0  0  0  0  0
  -28.8232  -14.3251    0.8559 C   0  0  0  0  0  0  0  0  0  0  0  0
  -29.9049  -17.7696   -5.0424 O   0  0  0  0  0  0  0  0  0  0  0  0
  -29.7323  -17.7191   -3.8380 C   0  0  0  0  0  0  0  0  0  0  0  0
  -30.3498  -18.5080   -2.9443 N   0  0  0  0  0  0  0  0  0  0  0  0
  -30.1505  -18.3364   -1.9956 H   0  0  0  0  0  0  0  0  0  0  0  0
  -31.2013  -19.4960   -3.2020 C   0  0  0  0  0  0  0  0  0  0  0  0
  -31.9608  -19.4130   -4.2887 N   0  0  0  0  0  0  0  0  0  0  0  0
  -31.2926  -20.5626   -2.4231 N   0  0  0  0  0  0  0  0  0  0  0  0
  -32.5985  -20.1327   -4.4997 H   0  0  0  0  0  0  0  0  0  0  0  0
  -31.8858  -18.6317   -4.8830 H   0  0  0  0  0  0  0  0  0  0  0  0
  -30.7333  -20.6319   -1.6159 H   0  0  0  0  0  0  0  0  0  0  0  0
  4  3  1  0  0  0
 23 24  2  0  0  0
 29 27  2  0  0  0
  3  5  2  0  0  0
  3  1  1  0  0  0
 24  1  1  0  0  0
 24 25  1  0  0  0
  5  6  1  0  0  0
 15 16  1  0  0  0
 15 14  1  0  0  0
  1  2  2  0  0  0
 27 25  1  0  0  0
 27 28  1  0  0  0
 16 10  1  0  0  0
  6 10  1  0  0  0
  6  7  2  0  0  0
 14 13  1  0  0  0
  2  7  1  0  0  0
 10 11  1  0  0  0
  7 18  1  0  0  0
 13 12  1  0  0  0
 12 11  1  0  0  0
 18 19  1  0  0  0
 18 22  2  0  0  0
 19 20  2  0  0  0
 22 17  1  0  0  0
 20 17  1  0  0  0
 17 21  1  0  0  0
 25 26  1  0  0  0
 28 30  1  0  0  0
 28 31  1  0  0  0
 29 32  1  0  0  0
  4  8  1  0  0  0
  4  9  1  0  0  0
M  END
> <minimizedAffinity>
-7.91335

$$$$
5ZA8_27I_U_301


 32 34  0  0  0  0  0  0  0  0999 V2000
  -28.4676  -17.2381   -2.9064 C   0  0  0  0  0  0  0  0  0  0  0  0
  -28.0957  -17.7789   -1.7152 N   0  0  0  0  0  0  0  0  0  0  0  0
  -28.0435  -15.9581   -3.2241 C   0  0  0  0  0  0  0  0  0  0  0  0
  -28.3764  -15.3447   -4.3905 N   0  0  0  0  0  0  0  0  0  0  0  0
  -27.2862  -15.2939   -2.3202 N   0  0  0  0  0  0  0  0  0  0  0  0
  -26.9096  -15.8336   -1.1269 C   0  0  0  0  0  0  0  0  0  0  0  0
  -27.3268  -17.1344   -0.7907 C   0  0  0  0  0  0  0  0  0  0  0  0
  -28.0536  -14.4335   -4.5771 H   0  0  0  0  0  0  0  0  0  0  0  0
  -28.9404  -15.8116   -5.0487 H   0  0  0  0  0  0  0  0  0  0  0  0
  -26.1741  -14.9779   -0.2947 N   0  0  0  0  0  0  0  0  0  0  0  0
  -26.9129  -14.2465    0.7584 C   0  0  0  0  0  0  0  0  0  0  0  0
  -27.0717  -12.7643    0.4482 C   0  0  0  0  0  0  0  0  0  0  0  0
  -25.8766  -11.9729    0.9802 C   0  0  0  0  0  0  0  0  0  0  0  0
  -24.5101  -12.3765    0.4106 C   0  0  0  0  0  0  0  0  0  0  0  0
  -24.5224  -13.2877   -0.8287 C   0  0  0  0  0  0  0  0  0  0  0  0
  -24.7513  -14.7525   -0.4740 C   0  0  0  0  0  0  0  0  0  0  0  0
  -27.0020  -18.8453    2.3780 N   0  0  0  0  0  0  0  0  0  0  0  0
  -27.0312  -17.8656    0.3968 C   0  0  0  0  0  0  0  0  0  0  0  0
  -25.8428  -18.5655    0.5852 C   0  0  0  0  0  0  0  0  0  0  0  0
  -25.7934  -19.1687    1.7914 N   0  0  0  0  0  0  0  0  0  0  0  0
  -27.2224  -19.4118    3.7343 C   0  0  0  0  0  0  0  0  0  0  0  0
  -27.7367  -18.0776    1.5798 C   0  0  0  0  0  0  0  0  0  0  0  0
  -28.9718  -18.1962   -4.9851 O   0  0  0  0  0  0  0  0  0  0  0  0
  -29.3150  -18.0631   -3.8242 C   0  0  0  0  0  0  0  0  0  0  0  0
  -30.4360  -18.5790   -3.2954 N   0  0  0  0  0  0  0  0  0  0  0  0
  -30.6164  -18.3626   -2.3520 H   0  0  0  0  0  0  0  0  0  0  0  0
  -31.3290  -19.3504   -3.9079 C   0  0  0  0  0  0  0  0  0  0  0  0
  -31.7043  -20.4796   -3.3176 N   0  0  0  0  0  0  0  0  0  0  0  0
  -31.8671  -19.0119   -5.0691 N   0  0  0  0  0  0  0  0  0  0  0  0
  -32.3642  -21.0667   -3.7524 H   0  0  0  0  0  0  0  0  0  0  0  0
  -31.3225  -20.7295   -2.4452 H   0  0  0  0  0  0  0  0  0  0  0  0
  -31.5945  -18.1767   -5.5132 H   0  0  0  0  0  0  0  0  0  0  0  0
  4  3  1  0  0  0
 23 24  2  0  0  0
 29 27  2  0  0  0
  3  5  2  0  0  0
  3  1  1  0  0  0
 24  1  1  0  0  0
 24 25  1  0  0  0
  5  6  1  0  0  0
 15 16  1  0  0  0
 15 14  1  0  0  0
  1  2  2  0  0  0
 27 25  1  0  0  0
 27 28  1  0  0  0
 16 10  1  0  0  0
  6 10  1  0  0  0
  6  7  2  0  0  0
 14 13  1  0  0  0
  2  7  1  0  0  0
 10 11  1  0  0  0
  7 18  1  0  0  0
 13 12  1  0  0  0
 12 11  1  0  0  0
 18 19  1  0  0  0
 18 22  2  0  0  0
 19 20  2  0  0  0
 22 17  1  0  0  0
 20 17  1  0  0  0
 17 21  1  0  0  0
 25 26  1  0  0  0
 28 30  1  0  0  0
 28 31  1  0  0  0
 29 32  1  0  0  0
  4  8  1  0  0  0
  4  9  1  0  0  0
M  END
> <minimizedAffinity>
-7.87087

$$$$
5ZA8_27I_U_301


 32 34  0  0  0  0  0  0  0  0999 V2000
  -25.2764  -14.6407   -3.6853 C   0  0  0  0  0  0  0  0  0  0  0  0
  -26.2945  -15.5162   -3.9012 N   0  0  0  0  0  0  0  0  0  0  0  0
  -25.3444  -13.7873   -2.5961 C   0  0  0  0  0  0  0  0  0  0  0  0
  -24.3720  -12.8802   -2.3147 N   0  0  0  0  0  0  0  0  0  0  0  0
  -26.4373  -13.8539   -1.8005 N   0  0  0  0  0  0  0  0  0  0  0  0
  -27.4580  -14.7314   -2.0124 C   0  0  0  0  0  0  0  0  0  0  0  0
  -27.4024  -15.6090   -3.1104 C   0  0  0  0  0  0  0  0  0  0  0  0
  -24.4596  -12.2921   -1.5300 H   0  0  0  0  0  0  0  0  0  0  0  0
  -23.5801  -12.8112   -2.8955 H   0  0  0  0  0  0  0  0  0  0  0  0
  -28.5329  -14.6177   -1.1193 N   0  0  0  0  0  0  0  0  0  0  0  0
  -29.7170  -13.8522   -1.5682 C   0  0  0  0  0  0  0  0  0  0  0  0
  -29.8379  -12.4964   -0.8860 C   0  0  0  0  0  0  0  0  0  0  0  0
  -30.6278  -12.6192    0.4173 C   0  0  0  0  0  0  0  0  0  0  0  0
  -30.0286  -13.5649    1.4667 C   0  0  0  0  0  0  0  0  0  0  0  0
  -28.5808  -14.0278    1.2301 C   0  0  0  0  0  0  0  0  0  0  0  0
  -28.4901  -15.1686    0.2230 C   0  0  0  0  0  0  0  0  0  0  0  0
  -29.8126  -18.2557   -3.6200 N   0  0  0  0  0  0  0  0  0  0  0  0
  -28.3608  -16.5940   -3.4891 C   0  0  0  0  0  0  0  0  0  0  0  0
  -28.8685  -16.7070   -4.7803 C   0  0  0  0  0  0  0  0  0  0  0  0
  -29.7532  -17.7198   -4.8924 N   0  0  0  0  0  0  0  0  0  0  0  0
  -30.7494  -19.3976   -3.4540 C   0  0  0  0  0  0  0  0  0  0  0  0
  -28.9995  -17.6145   -2.7870 C   0  0  0  0  0  0  0  0  0  0  0  0
  -24.3118  -14.3450   -5.8008 O   0  0  0  0  0  0  0  0  0  0  0  0
  -24.1212  -14.6503   -4.6374 C   0  0  0  0  0  0  0  0  0  0  0  0
  -22.9386  -15.0378   -4.1335 N   0  0  0  0  0  0  0  0  0  0  0  0
  -22.9296  -15.2962   -3.1836 H   0  0  0  0  0  0  0  0  0  0  0  0
  -21.7784  -15.1103   -4.7787 C   0  0  0  0  0  0  0  0  0  0  0  0
  -20.6752  -14.7242   -4.1475 N   0  0  0  0  0  0  0  0  0  0  0  0
  -21.6926  -15.5771   -6.0145 N   0  0  0  0  0  0  0  0  0  0  0  0
  -19.8048  -14.7691   -4.6053 H   0  0  0  0  0  0  0  0  0  0  0  0
  -20.7280  -14.3932   -3.2218 H   0  0  0  0  0  0  0  0  0  0  0  0
  -22.5054  -15.8653   -6.4894 H   0  0  0  0  0  0  0  0  0  0  0  0
  4  3  1  0  0  0
 23 24  2  0  0  0
 29 27  2  0  0  0
  3  5  2  0  0  0
  3  1  1  0  0  0
 24  1  1  0  0  0
 24 25  1  0  0  0
  5  6  1  0  0  0
 15 16  1  0  0  0
 15 14  1  0  0  0
  1  2  2  0  0  0
 27 25  1  0  0  0
 27 28  1  0  0  0
 16 10  1  0  0  0
  6 10  1  0  0  0
  6  7  2  0  0  0
 14 13  1  0  0  0
  2  7  1  0  0  0
 10 11  1  0  0  0
  7 18  1  0  0  0
 13 12  1  0  0  0
 12 11  1  0  0  0
 18 19  1  0  0  0
 18 22  2  0  0  0
 19 20  2  0  0  0
 22 17  1  0  0  0
 20 17  1  0  0  0
 17 21  1  0  0  0
 25 26  1  0  0  0
 28 30  1  0  0  0
 28 31  1  0  0  0
 29 32  1  0  0  0
  4  8  1  0  0  0
  4  9  1  0  0  0
M  END
> <minimizedAffinity>
-7.86096

$$$$
5ZA8_27I_U_301


 32 34  0  0  0  0  0  0  0  0999 V2000
  -28.2278  -15.9451   -2.7713 C   0  0  0  0  0  0  0  0  0  0  0  0
  -28.1250  -16.2944   -1.4609 N   0  0  0  0  0  0  0  0  0  0  0  0
  -28.0680  -14.6155   -3.1262 C   0  0  0  0  0  0  0  0  0  0  0  0
  -28.1615  -14.1844   -4.4119 N   0  0  0  0  0  0  0  0  0  0  0  0
  -27.8313  -13.7165   -2.1426 N   0  0  0  0  0  0  0  0  0  0  0  0
  -27.7253  -14.0632   -0.8291 C   0  0  0  0  0  0  0  0  0  0  0  0
  -27.8792  -15.4097   -0.4518 C   0  0  0  0  0  0  0  0  0  0  0  0
  -28.0411  -13.2300   -4.6210 H   0  0  0  0  0  0  0  0  0  0  0  0
  -28.3496  -14.8267   -5.1340 H   0  0  0  0  0  0  0  0  0  0  0  0
  -27.5349  -12.9908    0.0539 N   0  0  0  0  0  0  0  0  0  0  0  0
  -28.7417  -12.3053    0.5675 C   0  0  0  0  0  0  0  0  0  0  0  0
  -28.9467  -10.9283   -0.0490 C   0  0  0  0  0  0  0  0  0  0  0  0
  -28.2087   -9.8618    0.7606 C   0  0  0  0  0  0  0  0  0  0  0  0
  -26.6898  -10.0497    0.8716 C   0  0  0  0  0  0  0  0  0  0  0  0
  -26.0519  -11.0794   -0.0767 C   0  0  0  0  0  0  0  0  0  0  0  0
  -26.2151  -12.5109    0.4212 C   0  0  0  0  0  0  0  0  0  0  0  0
  -27.2003  -16.7430    2.8398 N   0  0  0  0  0  0  0  0  0  0  0  0
  -27.7963  -15.9631    0.8593 C   0  0  0  0  0  0  0  0  0  0  0  0
  -28.9071  -16.4073    1.5709 C   0  0  0  0  0  0  0  0  0  0  0  0
  -28.5724  -16.8969    2.7832 N   0  0  0  0  0  0  0  0  0  0  0  0
  -26.5617  -17.1922    4.1045 C   0  0  0  0  0  0  0  0  0  0  0  0
  -26.7275  -16.2047    1.7205 C   0  0  0  0  0  0  0  0  0  0  0  0
  -27.8064  -17.0952   -4.7695 O   0  0  0  0  0  0  0  0  0  0  0  0
  -28.5011  -17.0246   -3.7719 C   0  0  0  0  0  0  0  0  0  0  0  0
  -29.5394  -17.8331   -3.5056 N   0  0  0  0  0  0  0  0  0  0  0  0
  -30.0440  -17.6429   -2.6819 H   0  0  0  0  0  0  0  0  0  0  0  0
  -29.9598  -18.8628   -4.2340 C   0  0  0  0  0  0  0  0  0  0  0  0
  -31.0159  -19.5497   -3.8130 N   0  0  0  0  0  0  0  0  0  0  0  0
  -29.3728  -19.2019   -5.3710 N   0  0  0  0  0  0  0  0  0  0  0  0
  -31.3451  -20.3160   -4.3360 H   0  0  0  0  0  0  0  0  0  0  0  0
  -31.4694  -19.2925   -2.9779 H   0  0  0  0  0  0  0  0  0  0  0  0
  -28.5896  -18.6979   -5.6901 H   0  0  0  0  0  0  0  0  0  0  0  0
  4  3  1  0  0  0
 23 24  2  0  0  0
 29 27  2  0  0  0
  3  5  2  0  0  0
  3  1  1  0  0  0
 24  1  1  0  0  0
 24 25  1  0  0  0
  5  6  1  0  0  0
 15 16  1  0  0  0
 15 14  1  0  0  0
  1  2  2  0  0  0
 27 25  1  0  0  0
 27 28  1  0  0  0
 16 10  1  0  0  0
  6 10  1  0  0  0
  6  7  2  0  0  0
 14 13  1  0  0  0
  2  7  1  0  0  0
 10 11  1  0  0  0
  7 18  1  0  0  0
 13 12  1  0  0  0
 12 11  1  0  0  0
 18 19  1  0  0  0
 18 22  2  0  0  0
 19 20  2  0  0  0
 22 17  1  0  0  0
 20 17  1  0  0  0
 17 21  1  0  0  0
 25 26  1  0  0  0
 28 30  1  0  0  0
 28 31  1  0  0  0
 29 32  1  0  0  0
  4  8  1  0  0  0
  4  9  1  0  0  0
M  END
> <minimizedAffinity>
-7.25611

$$$$
5ZA8_27I_U_301


 32 34  0  0  0  0  0  0  0  0999 V2000
  -23.8667  -13.1755   -4.4699 C   0  0  0  0  0  0  0  0  0  0  0  0
  -24.5953  -12.4895   -3.5489 N   0  0  0  0  0  0  0  0  0  0  0  0
  -24.3137  -14.4178   -4.8896 C   0  0  0  0  0  0  0  0  0  0  0  0
  -23.6410  -15.1685   -5.8014 N   0  0  0  0  0  0  0  0  0  0  0  0
  -25.4552  -14.9020   -4.3470 N   0  0  0  0  0  0  0  0  0  0  0  0
  -26.1889  -14.2164   -3.4259 C   0  0  0  0  0  0  0  0  0  0  0  0
  -25.7525  -12.9511   -2.9929 C   0  0  0  0  0  0  0  0  0  0  0  0
  -23.9938  -16.0467   -6.0723 H   0  0  0  0  0  0  0  0  0  0  0  0
  -22.8009  -14.8340   -6.1908 H   0  0  0  0  0  0  0  0  0  0  0  0
  -27.3105  -14.8990   -2.9338 N   0  0  0  0  0  0  0  0  0  0  0  0
  -27.2652  -15.3664   -1.5305 C   0  0  0  0  0  0  0  0  0  0  0  0
  -27.0931  -16.8748   -1.4151 C   0  0  0  0  0  0  0  0  0  0  0  0
  -28.4533  -17.5729   -1.4212 C   0  0  0  0  0  0  0  0  0  0  0  0
  -29.3086  -17.3430   -2.6743 C   0  0  0  0  0  0  0  0  0  0  0  0
  -28.5994  -16.7156   -3.8867 C   0  0  0  0  0  0  0  0  0  0  0  0
  -28.4620  -15.2024   -3.7639 C   0  0  0  0  0  0  0  0  0  0  0  0
  -27.7595  -10.8821   -0.8100 N   0  0  0  0  0  0  0  0  0  0  0  0
  -26.3824  -12.0865   -2.0506 C   0  0  0  0  0  0  0  0  0  0  0  0
  -25.6795  -11.3620   -1.0921 C   0  0  0  0  0  0  0  0  0  0  0  0
  -26.4950  -10.6100   -0.3235 N   0  0  0  0  0  0  0  0  0  0  0  0
  -28.8724  -10.1860   -0.1129 C   0  0  0  0  0  0  0  0  0  0  0  0
  -27.7129  -11.7385   -1.8252 C   0  0  0  0  0  0  0  0  0  0  0  0
  -21.5372  -13.0070   -4.6651 O   0  0  0  0  0  0  0  0  0  0  0  0
  -22.6145  -12.5444   -4.9942 C   0  0  0  0  0  0  0  0  0  0  0  0
  -22.7753  -11.4673   -5.7795 N   0  0  0  0  0  0  0  0  0  0  0  0
  -23.7014  -11.1726   -5.9363 H   0  0  0  0  0  0  0  0  0  0  0  0
  -21.8189  -10.7558   -6.3684 C   0  0  0  0  0  0  0  0  0  0  0  0
  -20.9500  -11.3850   -7.1517 N   0  0  0  0  0  0  0  0  0  0  0  0
  -21.7270   -9.4441   -6.2148 N   0  0  0  0  0  0  0  0  0  0  0  0
  -20.2333  -10.8786   -7.5982 H   0  0  0  0  0  0  0  0  0  0  0  0
  -21.0226  -12.3576   -7.2858 H   0  0  0  0  0  0  0  0  0  0  0  0
  -22.3671   -8.9703   -5.6361 H   0  0  0  0  0  0  0  0  0  0  0  0
  4  3  1  0  0  0
 23 24  2  0  0  0
 29 27  2  0  0  0
  3  5  2  0  0  0
  3  1  1  0  0  0
 24  1  1  0  0  0
 24 25  1  0  0  0
  5  6  1  0  0  0
 15 16  1  0  0  0
 15 14  1  0  0  0
  1  2  2  0  0  0
 27 25  1  0  0  0
 27 28  1  0  0  0
 16 10  1  0  0  0
  6 10  1  0  0  0
  6  7  2  0  0  0
 14 13  1  0  0  0
  2  7  1  0  0  0
 10 11  1  0  0  0
  7 18  1  0  0  0
 13 12  1  0  0  0
 12 11  1  0  0  0
 18 19  1  0  0  0
 18 22  2  0  0  0
 19 20  2  0  0  0
 22 17  1  0  0  0
 20 17  1  0  0  0
 17 21  1  0  0  0
 25 26  1  0  0  0
 28 30  1  0  0  0
 28 31  1  0  0  0
 29 32  1  0  0  0
  4  8  1  0  0  0
  4  9  1  0  0  0
M  END
> <minimizedAffinity>
-7.03214

$$$$
5ZA8_27I_U_301


 32 34  0  0  0  0  0  0  0  0999 V2000
  -24.9741  -14.8002   -2.7214 C   0  0  0  0  0  0  0  0  0  0  0  0
  -26.0556  -15.5271   -3.1108 N   0  0  0  0  0  0  0  0  0  0  0  0
  -24.7159  -14.6531   -1.3683 C   0  0  0  0  0  0  0  0  0  0  0  0
  -23.6600  -13.9382   -0.8977 N   0  0  0  0  0  0  0  0  0  0  0  0
  -25.5681  -15.2307   -0.4896 N   0  0  0  0  0  0  0  0  0  0  0  0
  -26.6512  -15.9616   -0.8762 C   0  0  0  0  0  0  0  0  0  0  0  0
  -26.9248  -16.1258   -2.2463 C   0  0  0  0  0  0  0  0  0  0  0  0
  -23.5126  -13.8587    0.0724 H   0  0  0  0  0  0  0  0  0  0  0  0
  -23.0426  -13.4999   -1.5270 H   0  0  0  0  0  0  0  0  0  0  0  0
  -27.4518  -16.4357    0.1727 N   0  0  0  0  0  0  0  0  0  0  0  0
  -28.5578  -15.5679    0.6349 C   0  0  0  0  0  0  0  0  0  0  0  0
  -28.2805  -14.9270    1.9878 C   0  0  0  0  0  0  0  0  0  0  0  0
  -28.7534  -15.8380    3.1210 C   0  0  0  0  0  0  0  0  0  0  0  0
  -28.0982  -17.2246    3.1715 C   0  0  0  0  0  0  0  0  0  0  0  0
  -26.8477  -17.4277    2.2989 C   0  0  0  0  0  0  0  0  0  0  0  0
  -27.1926  -17.6990    0.8390 C   0  0  0  0  0  0  0  0  0  0  0  0
  -29.6371  -18.2413   -3.3606 N   0  0  0  0  0  0  0  0  0  0  0  0
  -27.9963  -16.8545   -2.8405 C   0  0  0  0  0  0  0  0  0  0  0  0
  -28.5207  -16.5526   -4.0941 C   0  0  0  0  0  0  0  0  0  0  0  0
  -29.5209  -17.3890   -4.4422 N   0  0  0  0  0  0  0  0  0  0  0  0
  -30.7028  -19.2710   -3.4740 C   0  0  0  0  0  0  0  0  0  0  0  0
  -28.7486  -17.9484   -2.4167 C   0  0  0  0  0  0  0  0  0  0  0  0
  -24.0258  -12.9871   -3.8644 O   0  0  0  0  0  0  0  0  0  0  0  0
  -24.1060  -14.1995   -3.7829 C   0  0  0  0  0  0  0  0  0  0  0  0
  -23.4926  -15.0626   -4.6083 N   0  0  0  0  0  0  0  0  0  0  0  0
  -23.6733  -16.0185   -4.4572 H   0  0  0  0  0  0  0  0  0  0  0  0
  -22.6677  -14.7659   -5.6079 C   0  0  0  0  0  0  0  0  0  0  0  0
  -22.9168  -13.6842   -6.3375 N   0  0  0  0  0  0  0  0  0  0  0  0
  -21.5998  -15.5011   -5.8758 N   0  0  0  0  0  0  0  0  0  0  0  0
  -22.3196  -13.4449   -7.0827 H   0  0  0  0  0  0  0  0  0  0  0  0
  -23.6986  -13.1219   -6.1331 H   0  0  0  0  0  0  0  0  0  0  0  0
  -21.4080  -16.3043   -5.3398 H   0  0  0  0  0  0  0  0  0  0  0  0
  4  3  1  0  0  0
 23 24  2  0  0  0
 29 27  2  0  0  0
  3  5  2  0  0  0
  3  1  1  0  0  0
 24  1  1  0  0  0
 24 25  1  0  0  0
  5  6  1  0  0  0
 15 16  1  0  0  0
 15 14  1  0  0  0
  1  2  2  0  0  0
 27 25  1  0  0  0
 27 28  1  0  0  0
 16 10  1  0  0  0
  6 10  1  0  0  0
  6  7  2  0  0  0
 14 13  1  0  0  0
  2  7  1  0  0  0
 10 11  1  0  0  0
  7 18  1  0  0  0
 13 12  1  0  0  0
 12 11  1  0  0  0
 18 19  1  0  0  0
 18 22  2  0  0  0
 19 20  2  0  0  0
 22 17  1  0  0  0
 20 17  1  0  0  0
 17 21  1  0  0  0
 25 26  1  0  0  0
 28 30  1  0  0  0
 28 31  1  0  0  0
 29 32  1  0  0  0
  4  8  1  0  0  0
  4  9  1  0  0  0
M  END
> <minimizedAffinity>
-6.96900

$$$$
5ZA8_27I_U_301


 32 34  0  0  0  0  0  0  0  0999 V2000
  -28.8110  -17.1692   -1.4495 C   0  0  0  0  0  0  0  0  0  0  0  0
  -28.3897  -17.7489   -0.2935 N   0  0  0  0  0  0  0  0  0  0  0  0
  -28.6785  -15.7985   -1.6003 C   0  0  0  0  0  0  0  0  0  0  0  0
  -29.0800  -15.1428   -2.7212 N   0  0  0  0  0  0  0  0  0  0  0  0
  -28.1466  -15.0922   -0.5755 N   0  0  0  0  0  0  0  0  0  0  0  0
  -27.7213  -15.6699    0.5830 C   0  0  0  0  0  0  0  0  0  0  0  0
  -27.8432  -17.0614    0.7505 C   0  0  0  0  0  0  0  0  0  0  0  0
  -28.9675  -14.1670   -2.7876 H   0  0  0  0  0  0  0  0  0  0  0  0
  -29.4833  -15.6437   -3.4666 H   0  0  0  0  0  0  0  0  0  0  0  0
  -27.2510  -14.7748    1.5544 N   0  0  0  0  0  0  0  0  0  0  0  0
  -28.2526  -14.1314    2.4334 C   0  0  0  0  0  0  0  0  0  0  0  0
  -28.4707  -12.6611    2.1038 C   0  0  0  0  0  0  0  0  0  0  0  0
  -27.4849  -11.7849    2.8771 C   0  0  0  0  0  0  0  0  0  0  0  0
  -26.0003  -12.0604    2.6035 C   0  0  0  0  0  0  0  0  0  0  0  0
  -25.6765  -12.9414    1.3847 C   0  0  0  0  0  0  0  0  0  0  0  0
  -25.8469  -14.4277    1.6771 C   0  0  0  0  0  0  0  0  0  0  0  0
  -27.1480  -18.7694    3.8606 N   0  0  0  0  0  0  0  0  0  0  0  0
  -27.4519  -17.8419    1.8774 C   0  0  0  0  0  0  0  0  0  0  0  0
  -26.5287  -18.8810    1.8015 C   0  0  0  0  0  0  0  0  0  0  0  0
  -26.3170  -19.4622    3.0009 N   0  0  0  0  0  0  0  0  0  0  0  0
  -27.1269  -19.2294    5.2738 C   0  0  0  0  0  0  0  0  0  0  0  0
  -27.8147  -17.8131    3.2226 C   0  0  0  0  0  0  0  0  0  0  0  0
  -28.9045  -18.0304   -3.6273 O   0  0  0  0  0  0  0  0  0  0  0  0
  -29.3922  -18.0497   -2.5116 C   0  0  0  0  0  0  0  0  0  0  0  0
  -30.4561  -18.7874   -2.1560 N   0  0  0  0  0  0  0  0  0  0  0  0
  -30.7752  -18.6802   -1.2308 H   0  0  0  0  0  0  0  0  0  0  0  0
  -31.1252  -19.6471   -2.9181 C   0  0  0  0  0  0  0  0  0  0  0  0
  -31.6217  -20.7427   -2.3545 N   0  0  0  0  0  0  0  0  0  0  0  0
  -31.3285  -19.4282   -4.2077 N   0  0  0  0  0  0  0  0  0  0  0  0
  -32.1207  -21.3936   -2.8991 H   0  0  0  0  0  0  0  0  0  0  0  0
  -31.4907  -20.9039   -1.3922 H   0  0  0  0  0  0  0  0  0  0  0  0
  -30.9639  -18.6187   -4.6331 H   0  0  0  0  0  0  0  0  0  0  0  0
  4  3  1  0  0  0
 23 24  2  0  0  0
 29 27  2  0  0  0
  3  5  2  0  0  0
  3  1  1  0  0  0
 24  1  1  0  0  0
 24 25  1  0  0  0
  5  6  1  0  0  0
 15 16  1  0  0  0
 15 14  1  0  0  0
  1  2  2  0  0  0
 27 25  1  0  0  0
 27 28  1  0  0  0
 16 10  1  0  0  0
  6 10  1  0  0  0
  6  7  2  0  0  0
 14 13  1  0  0  0
  2  7  1  0  0  0
 10 11  1  0  0  0
  7 18  1  0  0  0
 13 12  1  0  0  0
 12 11  1  0  0  0
 18 19  1  0  0  0
 18 22  2  0  0  0
 19 20  2  0  0  0
 22 17  1  0  0  0
 20 17  1  0  0  0
 17 21  1  0  0  0
 25 26  1  0  0  0
 28 30  1  0  0  0
 28 31  1  0  0  0
 29 32  1  0  0  0
  4  8  1  0  0  0
  4  9  1  0  0  0
M  END
> <minimizedAffinity>
-6.91194

$$$$
5ZA8_27I_U_301


 32 34  0  0  0  0  0  0  0  0999 V2000
  -27.9160  -15.6284   -3.5117 C   0  0  0  0  0  0  0  0  0  0  0  0
  -26.6961  -15.4017   -4.0685 N   0  0  0  0  0  0  0  0  0  0  0  0
  -28.3149  -14.8576   -2.4319 C   0  0  0  0  0  0  0  0  0  0  0  0
  -29.5149  -15.0252   -1.8159 N   0  0  0  0  0  0  0  0  0  0  0  0
  -27.4584  -13.9183   -1.9673 N   0  0  0  0  0  0  0  0  0  0  0  0
  -26.2364  -13.6868   -2.5241 C   0  0  0  0  0  0  0  0  0  0  0  0
  -25.8179  -14.4565   -3.6248 C   0  0  0  0  0  0  0  0  0  0  0  0
  -29.7594  -14.4556   -1.0511 H   0  0  0  0  0  0  0  0  0  0  0  0
  -30.1395  -15.7163   -2.1346 H   0  0  0  0  0  0  0  0  0  0  0  0
  -25.4632  -12.7142   -1.8745 N   0  0  0  0  0  0  0  0  0  0  0  0
  -24.5203  -13.1749   -0.8311 C   0  0  0  0  0  0  0  0  0  0  0  0
  -24.9829  -12.8297    0.5778 C   0  0  0  0  0  0  0  0  0  0  0  0
  -24.4824  -11.4431    0.9832 C   0  0  0  0  0  0  0  0  0  0  0  0
  -24.9507  -10.2848    0.0923 C   0  0  0  0  0  0  0  0  0  0  0  0
  -26.0926  -10.5910   -0.8920 C   0  0  0  0  0  0  0  0  0  0  0  0
  -25.6037  -11.2963   -2.1518 C   0  0  0  0  0  0  0  0  0  0  0  0
  -22.7237  -13.7414   -5.3533 N   0  0  0  0  0  0  0  0  0  0  0  0
  -24.5893  -14.3585   -4.3412 C   0  0  0  0  0  0  0  0  0  0  0  0
  -23.9475  -15.4560   -4.9078 C   0  0  0  0  0  0  0  0  0  0  0  0
  -22.8073  -15.1080   -5.5403 N   0  0  0  0  0  0  0  0  0  0  0  0
  -21.5246  -13.0910   -5.9434 C   0  0  0  0  0  0  0  0  0  0  0  0
  -23.7611  -13.2839   -4.6600 C   0  0  0  0  0  0  0  0  0  0  0  0
  -29.1185  -16.6074   -5.2692 O   0  0  0  0  0  0  0  0  0  0  0  0
  -28.7760  -16.7010   -4.1044 C   0  0  0  0  0  0  0  0  0  0  0  0
  -29.1434  -17.6931   -3.2777 N   0  0  0  0  0  0  0  0  0  0  0  0
  -28.8288  -17.6282   -2.3470 H   0  0  0  0  0  0  0  0  0  0  0  0
  -29.8861  -18.7536   -3.5800 C   0  0  0  0  0  0  0  0  0  0  0  0
  -30.6052  -19.3207   -2.6178 N   0  0  0  0  0  0  0  0  0  0  0  0
  -29.9458  -19.2387   -4.8103 N   0  0  0  0  0  0  0  0  0  0  0  0
  -31.1626  -20.1070   -2.8183 H   0  0  0  0  0  0  0  0  0  0  0  0
  -30.5806  -18.9548   -1.7042 H   0  0  0  0  0  0  0  0  0  0  0  0
  -29.4160  -18.8241   -5.5291 H   0  0  0  0  0  0  0  0  0  0  0  0
  4  3  1  0  0  0
 23 24  2  0  0  0
 29 27  2  0  0  0
  3  5  2  0  0  0
  3  1  1  0  0  0
 24  1  1  0  0  0
 24 25  1  0  0  0
  5  6  1  0  0  0
 15 16  1  0  0  0
 15 14  1  0  0  0
  1  2  2  0  0  0
 27 25  1  0  0  0
 27 28  1  0  0  0
 16 10  1  0  0  0
  6 10  1  0  0  0
  6  7  2  0  0  0
 14 13  1  0  0  0
  2  7  1  0  0  0
 10 11  1  0  0  0
  7 18  1  0  0  0
 13 12  1  0  0  0
 12 11  1  0  0  0
 18 19  1  0  0  0
 18 22  2  0  0  0
 19 20  2  0  0  0
 22 17  1  0  0  0
 20 17  1  0  0  0
 17 21  1  0  0  0
 25 26  1  0  0  0
 28 30  1  0  0  0
 28 31  1  0  0  0
 29 32  1  0  0  0
  4  8  1  0  0  0
  4  9  1  0  0  0
M  END
> <minimizedAffinity>
-6.86580

$$$$
