5ZA8_27I_U_301
  RCSB PDB12151803133D
Coordinates from PDB:5ZA8:U:301 Model:1 without hydrogens
 26 28  0  0  0  0            999 V2000
  -26.3220  -17.6460    2.0930   N 0  0  0  0  0  0  0  0  0  0  0  0
  -30.3850  -18.8650   -4.7030   O 0  0  0  0  0  0  0  0  0  0  0  0
  -30.1710  -18.7470   -3.5100   C 0  0  0  0  0  0  0  0  0  0  0  0
  -30.8710  -19.3630   -2.5440   N 0  0  0  0  0  0  0  0  0  0  0  0
  -31.8660  -20.2300   -2.7050   C 0  0  0  0  0  0  0  0  0  0  0  0
  -32.4550  -20.7290   -1.6240   N 0  0  0  0  0  0  0  0  0  0  0  0
  -32.2970  -20.5860   -3.9050   N 0  0  0  0  0  0  0  0  0  0  0  0
  -29.0820  -17.8260   -3.0550   C 0  0  0  0  0  0  0  0  0  0  0  0
  -28.5980  -17.9770   -1.7930   N 0  0  0  0  0  0  0  0  0  0  0  0
  -28.5460  -16.8390   -3.8660   C 0  0  0  0  0  0  0  0  0  0  0  0
  -28.9780  -16.6200   -5.1360   N 0  0  0  0  0  0  0  0  0  0  0  0
  -27.5690  -16.0540   -3.3550   N 0  0  0  0  0  0  0  0  0  0  0  0
  -27.0800  -16.2040   -2.0920   C 0  0  0  0  0  0  0  0  0  0  0  0
  -27.6090  -17.2050   -1.2570   C 0  0  0  0  0  0  0  0  0  0  0  0
  -27.2260  -17.5180    0.0800   C 0  0  0  0  0  0  0  0  0  0  0  0
  -27.8130  -18.5390    0.8220   C 0  0  0  0  0  0  0  0  0  0  0  0
  -27.2750  -18.6460    2.0550   N 0  0  0  0  0  0  0  0  0  0  0  0
  -25.5780  -17.5250    3.3740   C 0  0  0  0  0  0  0  0  0  0  0  0
  -26.2740  -16.9800    0.9440   C 0  0  0  0  0  0  0  0  0  0  0  0
  -26.1100  -15.2640   -1.7160   N 0  0  0  0  0  0  0  0  0  0  0  0
  -26.4480  -14.3360   -0.6140   C 0  0  0  0  0  0  0  0  0  0  0  0
  -26.7150  -12.9170   -1.0970   C 0  0  0  0  0  0  0  0  0  0  0  0
  -25.4160  -12.1120   -1.1440   C 0  0  0  0  0  0  0  0  0  0  0  0
  -24.3250  -12.6710   -2.0670   C 0  0  0  0  0  0  0  0  0  0  0  0
  -24.7550  -13.7680   -3.0560   C 0  0  0  0  0  0  0  0  0  0  0  0
  -24.8370  -15.1430   -2.4030   C 0  0  0  0  0  0  0  0  0  0  0  0
 11 10  1  0  0  0  0
  2  3  2  0  0  0  0
  7  5  2  0  0  0  0
 10 12  2  0  0  0  0
 10  8  1  0  0  0  0
  3  8  1  0  0  0  0
  3  4  1  0  0  0  0
 12 13  1  0  0  0  0
 25 26  1  0  0  0  0
 25 24  1  0  0  0  0
  8  9  2  0  0  0  0
  5  4  1  0  0  0  0
  5  6  1  0  0  0  0
 26 20  1  0  0  0  0
 13 20  1  0  0  0  0
 13 14  2  0  0  0  0
 24 23  1  0  0  0  0
  9 14  1  0  0  0  0
 20 21  1  0  0  0  0
 14 15  1  0  0  0  0
 23 22  1  0  0  0  0
 22 21  1  0  0  0  0
 15 16  1  0  0  0  0
 15 19  2  0  0  0  0
 16 17  2  0  0  0  0
 19  1  1  0  0  0  0
 17  1  1  0  0  0  0
  1 18  1  0  0  0  0
A    1
N1
A    2
O1
A    3
C9
A    4
N7
A    5
C10
A    6
N9
A    7
N8
A    8
C6
A    9
N3
A   10
C7
A   11
N6
A   12
N4
A   13
C8
A   14
C5
A   15
C3
A   16
C2
A   17
N2
A   18
C4
A   19
C1
A   20
N5
A   21
C16
A   22
C15
A   23
C14
A   24
C13
A   25
C12
A   26
C11
M  END
>  <InstanceId>
5ZA8_27I_U_301

>  <ChemCompId>
27I

>  <PdbId>
5ZA8

>  <ChainId>
U

>  <ResidueNumber>
301

>  <InsertionCode>


>  <Model>
1

>  <AltIds>


>  <MissingHeavyAtoms>
0

>  <ObservedFormula>
C16 N9 O

>  <Name>
3-azanyl-5-(azepan-1-yl)-N-carbamimidoyl-6-(1-methylpyrazol-4-yl)pyrazine-2-carboxamide

>  <SystematicName>
3-azanyl-5-(azepan-1-yl)-~{N}-carbamimidoyl-6-(1-methylpyrazol-4-yl)pyrazine-2-carboxamide

>  <Synonyms>


>  <Type>
NON-POLYMER

>  <Formula>
C16 H23 N9 O

>  <MolecularWeight>
357.414

>  <ModifiedDate>
2018-12-14

>  <Parent>


>  <OneLetterCode>


>  <SubcomponentList>


>  <AmbiguousFlag>
N

>  <InChI>
InChI=1S/C16H23N9O/c1-24-9-10(8-20-24)11-14(25-6-4-2-3-5-7-25)22-13(17)12(21-11)15(26)23-16(18)19/h8-9H,2-7H2,1H3,(H2,17,22)(H4,18,19,23,26)

>  <InChIKey>
RFNSXHZAURHCJF-UHFFFAOYSA-N

>  <SMILES>
[H]/N=C(/N)\NC(=O)c1c(nc(c(n1)c2cnn(c2)C)N3CCCCCC3)N

$$$$
