2AOD_2NC_B_400
  RCSB PDB12061705013D
Coordinates from PDB:2AOD:B:400 Model:1 without hydrogens
 54 53  0  0  0  0            999 V2000
   23.6900   24.4910   19.8030   C 0  0  0  0  0  0  0  0  0  0  0  0
   23.3550   24.9480   20.9000   O 0  0  0  0  0  0  0  0  0  0  0  0
   24.3740   23.1370   19.6660   C 0  0  0  0  0  0  0  0  0  0  0  0
   23.4670   25.1940   18.7010   N 0  0  0  0  0  0  0  0  0  0  0  0
   22.9260   26.5240   18.6150   C 0  0  0  0  0  0  0  0  0  0  0  0
   21.5390   26.6160   17.9360   C 0  0  0  0  0  0  0  0  0  0  0  0
   20.8480   27.6270   17.9900   O 0  0  0  0  0  0  0  0  0  0  0  0
   23.8890   27.4460   17.8340   C 0  0  0  0  0  0  0  0  0  0  0  0
   24.1220   26.9880   16.4930   O 0  0  0  0  0  0  0  0  0  0  0  0
   25.2650   27.4890   18.5050   C 0  0  0  0  0  0  0  0  0  0  0  0
   21.0470   25.5770   17.2940   N 0  0  0  0  0  0  0  0  0  0  0  0
   19.7260   25.5600   16.6670   C 0  0  0  0  0  0  0  0  0  0  0  0
   18.8840   24.4780   17.2950   C 0  0  0  0  0  0  0  0  0  0  0  0
   18.8860   23.3300   16.8310   O 0  0  0  0  0  0  0  0  0  0  0  0
   19.8430   25.3580   15.1460   C 0  0  0  0  0  0  0  0  0  0  0  0
   20.8810   26.2700   14.5090   C 0  0  0  0  0  0  0  0  0  0  0  0
   18.5020   25.4860   14.4760   C 0  0  0  0  0  0  0  0  0  0  0  0
   20.6860   27.7510   14.6040   C 0  0  0  0  0  0  0  0  0  0  0  0
   18.1720   24.8230   18.3390   N 0  0  0  0  0  0  0  0  0  0  0  0
   17.4150   23.8220   19.0930   C 0  0  0  0  0  0  0  0  0  0  0  0
   15.9130   23.8710   18.8590   C 0  0  0  0  0  0  0  0  0  0  0  0
   17.7040   23.9740   20.5970   C 0  0  0  0  0  0  0  0  0  0  0  0
   19.1900   24.0820   20.9290   C 0  0  0  0  0  0  0  0  0  0  0  0
   19.9510   22.8410   20.5530   C 0  0  0  0  0  0  0  0  0  0  0  0
   19.3540   21.5400   21.0950   C 0  0  0  0  0  0  0  0  0  0  0  0
   15.5820   23.6670   17.4830   N 0  0  0  0  0  0  0  0  0  0  0  0
   14.3430   23.0170   17.0760   C 0  0  0  0  0  0  0  0  0  0  0  0
   14.3180   21.5580   17.5440   C 0  0  0  0  0  0  0  0  0  0  0  0
   15.2830   20.7940   17.5200   O 0  0  0  0  0  0  0  0  0  0  0  0
   14.1100   23.0340   15.5790   C 0  0  0  0  0  0  0  0  0  0  0  0
   13.0460   22.2360   14.8760   C 0  0  0  0  0  0  0  0  0  0  0  0
   13.5680   21.0860   14.0360   C 0  0  0  0  0  0  0  0  0  0  0  0
   14.5360   21.4330   12.9140   C 0  0  0  0  0  0  0  0  0  0  0  0
   13.1460   21.1070   17.9520   N 0  0  0  0  0  0  0  0  0  0  0  0
   13.0210   19.7060   18.3690   C 0  0  0  0  0  0  0  0  0  0  0  0
   11.5960   19.2560   18.0150   C 0  0  0  0  0  0  0  0  0  0  0  0
   10.5890   19.9200   18.2910   O 0  0  0  0  0  0  0  0  0  0  0  0
   13.3990   19.4790   19.8310   C 0  0  0  0  0  0  0  0  0  0  0  0
   13.2350   18.0900   20.3770   C 0  0  0  0  0  0  0  0  0  0  0  0
   11.8560   17.7810   20.8890   C 0  0  0  0  0  0  0  0  0  0  0  0
   11.1500   18.7020   21.2310   O 0  0  0  0  0  0  0  0  0  0  0  0
   11.3750   16.5690   20.8720   N 0  0  0  0  0  0  0  0  0  0  0  0
   11.5170   18.0500   17.4710   N 0  0  0  0  0  0  0  0  0  0  0  0
   10.2320   17.4600   17.0810   C 0  0  0  0  0  0  0  0  0  0  0  0
   10.1360   16.0780   17.7140   C 0  0  0  0  0  0  0  0  0  0  0  0
   11.1010   15.3060   17.6730   O 0  0  0  0  0  0  0  0  0  0  0  0
   10.1140   17.3700   15.5750   C 0  0  0  0  0  0  0  0  0  0  0  0
   10.1780   18.6100   14.7340   C 0  0  0  0  0  0  0  0  0  0  0  0
    9.9060   18.3160   13.2640   C 0  0  0  0  0  0  0  0  0  0  0  0
    8.7370   18.9770   12.6640   N 0  0  0  0  0  0  0  0  0  0  0  0
    8.1570   18.5960   11.5270   C 0  0  0  0  0  0  0  0  0  0  0  0
    8.6190   17.5450   10.8390   N 0  0  0  0  0  0  0  0  0  0  0  0
    7.1000   19.1970   10.9830   N 0  3  0  0  0  0  0  0  0  0  0  0
    8.9390   15.6170   18.3610   N 0  0  0  0  0  0  0  0  0  0  0  0
  1  2  2  0  0  0  0
  1  3  1  0  0  0  0
  4  5  1  0  0  0  0
  5  6  1  0  0  0  0
  5  8  1  0  0  0  0
  6  7  2  0  0  0  0
  8  9  1  0  0  0  0
  8 10  1  0  0  0  0
 11 12  1  0  0  0  0
 12 13  1  0  0  0  0
 12 15  1  0  0  0  0
 13 14  2  0  0  0  0
 15 16  1  0  0  0  0
 15 17  1  0  0  0  0
 16 18  1  0  0  0  0
 19 20  1  0  0  0  0
 20 21  1  0  0  0  0
 20 22  1  0  0  0  0
 22 23  1  0  0  0  0
 23 24  1  0  0  0  0
 24 25  1  0  0  0  0
 26 27  1  0  0  0  0
 27 28  1  0  0  0  0
 27 30  1  0  0  0  0
 28 29  2  0  0  0  0
 30 31  1  0  0  0  0
 31 32  1  0  0  0  0
 32 33  1  0  0  0  0
 34 35  1  0  0  0  0
 35 36  1  0  0  0  0
 35 38  1  0  0  0  0
 36 37  2  0  0  0  0
 38 39  1  0  0  0  0
 39 40  1  0  0  0  0
 40 41  2  0  0  0  0
 40 42  1  0  0  0  0
 43 44  1  0  0  0  0
 44 45  1  0  0  0  0
 44 47  1  0  0  0  0
 45 46  2  0  0  0  0
 47 48  1  0  0  0  0
 48 49  1  0  0  0  0
 49 50  1  0  0  0  0
 50 51  1  0  0  0  0
 51 52  1  0  0  0  0
 51 53  2  0  0  0  0
  1  4  1  0  0  0  0
  6 11  1  0  0  0  0
 13 19  1  0  0  0  0
 21 26  1  0  0  0  0
 28 34  1  0  0  0  0
 36 43  1  0  0  0  0
 45 54  1  0  0  0  0
M  CHG  1  53   1
A    1
C
A    2
O
A    3
CH3
A    4
N
A    5
CA
A    6
C1
A    7
O1
A    8
CB
A    9
OG1
A   10
CG2
A   11
N1
A   12
CA1
A   13
C2
A   14
O2
A   15
CB1
A   16
CG1
A   17
CG21
A   18
CD1
A   19
N2
A   20
CA2
A   21
C3
A   22
CB2
A   23
CG
A   24
CD
A   25
CE
A   26
N3
A   27
CA3
A   28
C4
A   29
O3
A   30
CB3
A   31
CG3
A   32
CD2
A   33
CE1
A   34
N4
A   35
CA4
A   36
C5
A   37
O4
A   38
CB4
A   39
CG4
A   40
CD3
A   41
OE1
A   42
NE2
A   43
N5
A   44
CA5
A   45
C6
A   46
O5
A   47
CB5
A   48
CG5
A   49
CD4
A   50
NE
A   51
CZ
A   52
NH1
A   53
NH2
A   54
N6
M  END
>  <InstanceId>
2AOD_2NC_B_400

>  <ChemCompId>
2NC

>  <PdbId>
2AOD

>  <ChainId>
B

>  <ResidueNumber>
400

>  <InsertionCode>


>  <Model>
1

>  <AltIds>


>  <MissingHeavyAtoms>
0

>  <ObservedFormula>
C35 N11 O8

>  <Name>
N-{(2S)-2-[(N-acetyl-L-threonyl-L-isoleucyl)amino]hexyl}-L-norleucyl-L-glutaminyl-N~5~-[amino(iminio)methyl]-L-ornithinamide

>  <SystematicName>
[[[(4S)-4-[[(2S)-2-[[(2S)-2-[[(2S)-2-[[(2S,3S)-2-[[(2S,3R)-2-acetamido-3-hydroxy-butanoyl]amino]-3-methyl-pentanoyl]amino]hexyl]amino]hexanoyl]amino]-5-azanyl-5-oxo-pentanoyl]amino]-5-azanyl-5-oxo-pentyl]amino]-azanyl-methylidene]azanium

>  <Synonyms>
p2/NC

>  <Type>
peptide-like

>  <Formula>
C35 H68 N11 O8

>  <MolecularWeight>
770.983

>  <ModifiedDate>
2012-01-05

>  <Parent>


>  <OneLetterCode>


>  <SubcomponentList>
ACE THR ILE 2A0 GLN ARG NH2

>  <AmbiguousFlag>
N

>  <InChI>
InChI=1S/C35H67N11O8/c1-7-10-13-23(43-33(53)28(20(4)9-3)46-34(54)29(21(5)47)42-22(6)48)19-41-25(14-11-8-2)31(51)45-26(16-17-27(36)49)32(52)44-24(30(37)50)15-12-18-40-35(38)39/h20-21,23-26,28-29,41,47H,7-19H2,1-6H3,(H2,36,49)(H2,37,50)(H,42,48)(H,43,53)(H,44,52)(H,45,51)(H,46,54)(H4,38,39,40)/p+1/t20-,21+,23-,24-,25-,26-,28-,29-/m0/s1

>  <InChIKey>
MQPXOVRKKPPKFZ-QYKDHROSSA-O

>  <SMILES>
CCCC[C@@H](CN[C@@H](CCCC)C(=O)N[C@@H](CCC(=O)N)C(=O)N[C@@H](CCCNC(=[NH2+])N)C(=O)N)NC(=O)[C@H]([C@@H](C)CC)NC(=O)[C@H]([C@@H](C)O)NC(=O)C

$$$$
