2AOD_2NC_B_400


 70 69  0  0  0  0  0  0  0  0999 V2000
   14.4271   22.8324   16.8628 C   0  0  0  0  0  0  0  0  0  0  0  0
   14.3425   21.4268   17.4673 C   0  0  0  0  0  0  0  0  0  0  0  0
   15.2739   20.6232   17.5145 O   0  0  0  0  0  0  0  0  0  0  0  0
   13.1546   21.0673   17.9179 N   0  0  0  0  0  0  0  0  0  0  0  0
   12.3990   21.6976   17.8863 H   0  0  0  0  0  0  0  0  0  0  0  0
   12.9722   19.7188   18.4662 C   0  0  0  0  0  0  0  0  0  0  0  0
   11.5634   19.2566   18.0664 C   0  0  0  0  0  0  0  0  0  0  0  0
   10.5359   19.8715   18.3785 O   0  0  0  0  0  0  0  0  0  0  0  0
   11.5226   18.0908   17.4372 N   0  0  0  0  0  0  0  0  0  0  0  0
   12.3646   17.6112   17.2631 H   0  0  0  0  0  0  0  0  0  0  0  0
   10.2579   17.4953   16.9929 C   0  0  0  0  0  0  0  0  0  0  0  0
   10.0883   16.1608   17.7071 C   0  0  0  0  0  0  0  0  0  0  0  0
   10.5440   15.1253   17.2081 O   0  0  0  0  0  0  0  0  0  0  0  0
    9.3934   16.0490   18.9595 N   0  0  0  0  0  0  0  0  0  0  0  0
    9.0169   16.8519   19.3870 H   0  0  0  0  0  0  0  0  0  0  0  0
    9.2938   15.1693   19.3903 H   0  0  0  0  0  0  0  0  0  0  0  0
   10.2483   17.3058   15.4915 C   0  0  0  0  0  0  0  0  0  0  0  0
   11.1623   18.1138   14.6194 C   0  0  0  0  0  0  0  0  0  0  0  0
   10.4018   19.1539   13.8064 C   0  0  0  0  0  0  0  0  0  0  0  0
    9.4359   19.9870   14.5388 N   0  0  0  0  0  0  0  0  0  0  0  0
    8.4777   19.8200   14.3864 H   0  0  0  0  0  0  0  0  0  0  0  0
    9.7694   20.9520   15.3944 C   0  0  0  0  0  0  0  0  0  0  0  0
   10.9390   21.5933   15.2842 N   0  0  0  0  0  0  0  0  0  0  0  0
    9.0026   21.3610   16.4038 N   0  0  0  0  0  0  0  0  0  0  0  0
   11.5664   21.3528   14.5647 H   0  0  0  0  0  0  0  0  0  0  0  0
   11.1719   22.3055   15.9227 H   0  0  0  0  0  0  0  0  0  0  0  0
    8.1250   20.9418   16.5566 H   0  0  0  0  0  0  0  0  0  0  0  0
    9.3135   22.0825   16.9972 H   0  0  0  0  0  0  0  0  0  0  0  0
   13.2504   19.6379   19.9655 C   0  0  0  0  0  0  0  0  0  0  0  0
   13.3132   18.2700   20.5815 C   0  0  0  0  0  0  0  0  0  0  0  0
   12.0443   17.8331   21.2584 C   0  0  0  0  0  0  0  0  0  0  0  0
   11.1392   18.6303   21.3529 O   0  0  0  0  0  0  0  0  0  0  0  0
   11.8635   16.6006   21.6442 N   0  0  0  0  0  0  0  0  0  0  0  0
   12.5974   15.9486   21.5690 H   0  0  0  0  0  0  0  0  0  0  0  0
   10.9932   16.3221   22.0106 H   0  0  0  0  0  0  0  0  0  0  0  0
   15.6728   23.4837   17.2466 N   0  0  0  0  0  0  0  0  0  0  0  0
   15.7037   24.3655   16.7349 H   0  0  0  0  0  0  0  0  0  0  0  0
   15.9731   23.8001   18.6083 C   0  0  0  0  0  0  0  0  0  0  0  0
   17.4719   23.8347   18.8640 C   0  0  0  0  0  0  0  0  0  0  0  0
   18.8501   24.4963   16.9975 C   0  0  0  0  0  0  0  0  0  0  0  0
   18.8281   23.3500   16.5298 O   0  0  0  0  0  0  0  0  0  0  0  0
   18.1912   24.8379   18.0769 N   0  0  0  0  0  0  0  0  0  0  0  0
   18.1796   25.7801   18.3620 H   0  0  0  0  0  0  0  0  0  0  0  0
   19.6606   25.5800   16.3322 C   0  0  0  0  0  0  0  0  0  0  0  0
   21.5229   26.5863   17.5699 C   0  0  0  0  0  0  0  0  0  0  0  0
   20.8156   27.5733   17.7373 O   0  0  0  0  0  0  0  0  0  0  0  0
   21.0155   25.5844   16.8824 N   0  0  0  0  0  0  0  0  0  0  0  0
   21.5807   24.7929   16.7300 H   0  0  0  0  0  0  0  0  0  0  0  0
   22.9489   26.4799   18.1601 C   0  0  0  0  0  0  0  0  0  0  0  0
   23.2523   24.9180   20.0565 C   0  0  0  0  0  0  0  0  0  0  0  0
   22.8862   25.7660   20.8759 O   0  0  0  0  0  0  0  0  0  0  0  0
   23.7200   23.5321   20.4815 C   0  0  0  0  0  0  0  0  0  0  0  0
   23.2575   25.2111   18.7633 N   0  0  0  0  0  0  0  0  0  0  0  0
   23.4990   24.4807   18.1490 H   0  0  0  0  0  0  0  0  0  0  0  0
   23.9479   26.7912   17.0233 C   0  0  0  0  0  0  0  0  0  0  0  0
   23.9835   25.7597   16.0248 O   0  0  0  0  0  0  0  0  0  0  0  0
   25.3759   26.8947   17.5670 C   0  0  0  0  0  0  0  0  0  0  0  0
   24.2893   24.9314   16.4264 H   0  0  0  0  0  0  0  0  0  0  0  0
   19.6890   25.3920   14.8052 C   0  0  0  0  0  0  0  0  0  0  0  0
   18.4571   25.9700   14.1634 C   0  0  0  0  0  0  0  0  0  0  0  0
   20.9618   25.9308   14.1691 C   0  0  0  0  0  0  0  0  0  0  0  0
   21.0357   27.3896   13.8425 C   0  0  0  0  0  0  0  0  0  0  0  0
   17.7302   24.0655   20.3636 C   0  0  0  0  0  0  0  0  0  0  0  0
   19.1072   23.5986   20.8286 C   0  0  0  0  0  0  0  0  0  0  0  0
   19.3844   22.1704   20.4490 C   0  0  0  0  0  0  0  0  0  0  0  0
   19.0358   21.1455   21.5310 C   0  0  0  0  0  0  0  0  0  0  0  0
   14.2403   22.7111   15.3642 C   0  0  0  0  0  0  0  0  0  0  0  0
   15.2059   22.0191   14.4412 C   0  0  0  0  0  0  0  0  0  0  0  0
   14.5955   21.5176   13.1464 C   0  0  0  0  0  0  0  0  0  0  0  0
   13.7891   20.2287   13.2158 C   0  0  0  0  0  0  0  0  0  0  0  0
 50 51  2  0  0  0
 50 52  1  0  0  0
 53 49  1  0  0  0
 49 45  1  0  0  0
 49 55  1  0  0  0
 45 46  2  0  0  0
 55 56  1  0  0  0
 55 57  1  0  0  0
 47 44  1  0  0  0
 44 40  1  0  0  0
 44 59  1  0  0  0
 40 41  2  0  0  0
 59 61  1  0  0  0
 59 60  1  0  0  0
 61 62  1  0  0  0
 42 39  1  0  0  0
 39 38  1  0  0  0
 39 63  1  0  0  0
 63 64  1  0  0  0
 64 65  1  0  0  0
 65 66  1  0  0  0
 36  1  1  0  0  0
  1  2  1  0  0  0
  1 67  1  0  0  0
  2  3  2  0  0  0
 67 68  1  0  0  0
 68 69  1  0  0  0
 69 70  1  0  0  0
  4  6  1  0  0  0
  6  7  1  0  0  0
  6 29  1  0  0  0
  7  8  2  0  0  0
 29 30  1  0  0  0
 30 31  1  0  0  0
 31 32  2  0  0  0
 31 33  1  0  0  0
  9 11  1  0  0  0
 11 12  1  0  0  0
 11 17  1  0  0  0
 12 13  2  0  0  0
 17 18  1  0  0  0
 18 19  1  0  0  0
 19 20  1  0  0  0
 20 22  1  0  0  0
 22 23  1  0  0  0
 22 24  2  0  0  0
 50 53  1  0  0  0
 45 47  1  0  0  0
 40 42  1  0  0  0
 38 36  1  0  0  0
  2  4  1  0  0  0
  7  9  1  0  0  0
 12 14  1  0  0  0
 53 54  1  0  0  0
 56 58  1  0  0  0
 47 48  1  0  0  0
 42 43  1  0  0  0
 36 37  1  0  0  0
  4  5  1  0  0  0
 33 34  1  0  0  0
 33 35  1  0  0  0
  9 10  1  0  0  0
 20 21  1  0  0  0
 23 25  1  0  0  0
 23 26  1  0  0  0
 24 27  1  0  0  0
 24 28  1  0  0  0
 14 15  1  0  0  0
 14 16  1  0  0  0
M  CHG 1  24   1
M  END
> <minimizedAffinity>
-9.39112

$$$$
2AOD_2NC_B_400


 70 69  0  0  0  0  0  0  0  0999 V2000
   14.3354   23.0155   16.8328 C   0  0  0  0  0  0  0  0  0  0  0  0
   14.2600   21.5584   17.3012 C   0  0  0  0  0  0  0  0  0  0  0  0
   15.1032   20.6955   17.0569 O   0  0  0  0  0  0  0  0  0  0  0  0
   13.1726   21.2281   17.9736 N   0  0  0  0  0  0  0  0  0  0  0  0
   12.4881   21.9060   18.1762 H   0  0  0  0  0  0  0  0  0  0  0  0
   12.9951   19.8405   18.4154 C   0  0  0  0  0  0  0  0  0  0  0  0
   11.6169   19.3817   17.9168 C   0  0  0  0  0  0  0  0  0  0  0  0
   10.5708   19.9962   18.1600 O   0  0  0  0  0  0  0  0  0  0  0  0
   11.6190   18.2190   17.2806 N   0  0  0  0  0  0  0  0  0  0  0  0
   12.4706   17.7393   17.1629 H   0  0  0  0  0  0  0  0  0  0  0  0
   10.3876   17.6271   16.7469 C   0  0  0  0  0  0  0  0  0  0  0  0
   10.1761   16.2823   17.4302 C   0  0  0  0  0  0  0  0  0  0  0  0
   11.1391   15.5404   17.6561 O   0  0  0  0  0  0  0  0  0  0  0  0
    8.8724   15.8223   17.8212 N   0  0  0  0  0  0  0  0  0  0  0  0
    8.0820   16.3859   17.6574 H   0  0  0  0  0  0  0  0  0  0  0  0
    8.7696   14.9436   18.2530 H   0  0  0  0  0  0  0  0  0  0  0  0
   10.4761   17.4583   15.2457 C   0  0  0  0  0  0  0  0  0  0  0  0
   10.6629   18.6527   14.3582 C   0  0  0  0  0  0  0  0  0  0  0  0
   11.5797   18.3489   13.1798 C   0  0  0  0  0  0  0  0  0  0  0  0
   12.7068   17.4397   13.4376 N   0  0  0  0  0  0  0  0  0  0  0  0
   13.2586   17.6079   14.2354 H   0  0  0  0  0  0  0  0  0  0  0  0
   13.0317   16.4043   12.6651 C   0  0  0  0  0  0  0  0  0  0  0  0
   14.3072   16.1663   12.3365 N   0  0  0  0  0  0  0  0  0  0  0  0
   12.1556   15.5352   12.1637 N   0  0  0  0  0  0  0  0  0  0  0  0
   15.0194   16.7610   12.6654 H   0  0  0  0  0  0  0  0  0  0  0  0
   14.5330   15.3965   11.7659 H   0  0  0  0  0  0  0  0  0  0  0  0
   11.1956   15.6371   12.3567 H   0  0  0  0  0  0  0  0  0  0  0  0
   12.4681   14.7909   11.6002 H   0  0  0  0  0  0  0  0  0  0  0  0
   13.2051   19.6572   19.9168 C   0  0  0  0  0  0  0  0  0  0  0  0
   13.2258   18.2510   20.4427 C   0  0  0  0  0  0  0  0  0  0  0  0
   11.9463   17.8126   21.0984 C   0  0  0  0  0  0  0  0  0  0  0  0
   11.0640   18.6281   21.2398 O   0  0  0  0  0  0  0  0  0  0  0  0
   11.7320   16.5661   21.4161 N   0  0  0  0  0  0  0  0  0  0  0  0
   12.4472   15.8992   21.3026 H   0  0  0  0  0  0  0  0  0  0  0  0
   10.8549   16.2919   21.7693 H   0  0  0  0  0  0  0  0  0  0  0  0
   15.6181   23.6061   17.1922 N   0  0  0  0  0  0  0  0  0  0  0  0
   15.6802   24.4869   16.6816 H   0  0  0  0  0  0  0  0  0  0  0  0
   15.9607   23.9040   18.5480 C   0  0  0  0  0  0  0  0  0  0  0  0
   17.4621   23.8337   18.7808 C   0  0  0  0  0  0  0  0  0  0  0  0
   18.9083   24.4915   16.9651 C   0  0  0  0  0  0  0  0  0  0  0  0
   18.8643   23.3563   16.4725 O   0  0  0  0  0  0  0  0  0  0  0  0
   18.2317   24.8307   18.0342 N   0  0  0  0  0  0  0  0  0  0  0  0
   18.2407   25.7667   18.3392 H   0  0  0  0  0  0  0  0  0  0  0  0
   19.7682   25.5635   16.3444 C   0  0  0  0  0  0  0  0  0  0  0  0
   21.6245   26.6142   17.5538 C   0  0  0  0  0  0  0  0  0  0  0  0
   20.9813   27.6575   17.5384 O   0  0  0  0  0  0  0  0  0  0  0  0
   21.0866   25.5598   16.9771 N   0  0  0  0  0  0  0  0  0  0  0  0
   21.6015   24.7207   16.9715 H   0  0  0  0  0  0  0  0  0  0  0  0
   23.0036   26.5020   18.2459 C   0  0  0  0  0  0  0  0  0  0  0  0
   24.0836   24.7450   19.6150 C   0  0  0  0  0  0  0  0  0  0  0  0
   24.3413   25.5425   20.5216 O   0  0  0  0  0  0  0  0  0  0  0  0
   24.5185   23.2864   19.6734 C   0  0  0  0  0  0  0  0  0  0  0  0
   23.4200   25.1578   18.5438 N   0  0  0  0  0  0  0  0  0  0  0  0
   23.1869   24.4692   17.8799 H   0  0  0  0  0  0  0  0  0  0  0  0
   24.0401   27.1957   17.3339 C   0  0  0  0  0  0  0  0  0  0  0  0
   23.5619   28.4436   16.8081 O   0  0  0  0  0  0  0  0  0  0  0  0
   24.3614   26.3255   16.1153 C   0  0  0  0  0  0  0  0  0  0  0  0
   22.7845   28.2829   16.2507 H   0  0  0  0  0  0  0  0  0  0  0  0
   19.8890   25.3650   14.8232 C   0  0  0  0  0  0  0  0  0  0  0  0
   18.6399   25.8151   14.1155 C   0  0  0  0  0  0  0  0  0  0  0  0
   21.1336   26.0184   14.2410 C   0  0  0  0  0  0  0  0  0  0  0  0
   21.0888   27.4788   13.9160 C   0  0  0  0  0  0  0  0  0  0  0  0
   17.7537   23.9703   20.2858 C   0  0  0  0  0  0  0  0  0  0  0  0
   19.2149   23.7248   20.6530 C   0  0  0  0  0  0  0  0  0  0  0  0
   19.6257   22.2948   20.4368 C   0  0  0  0  0  0  0  0  0  0  0  0
   18.8594   21.2775   21.2858 C   0  0  0  0  0  0  0  0  0  0  0  0
   14.0464   23.0463   15.3458 C   0  0  0  0  0  0  0  0  0  0  0  0
   12.9191   22.3015   14.6841 C   0  0  0  0  0  0  0  0  0  0  0  0
   13.3546   21.2878   13.6433 C   0  0  0  0  0  0  0  0  0  0  0  0
   14.7468   21.4579   13.0524 C   0  0  0  0  0  0  0  0  0  0  0  0
 50 51  2  0  0  0
 50 52  1  0  0  0
 53 49  1  0  0  0
 49 45  1  0  0  0
 49 55  1  0  0  0
 45 46  2  0  0  0
 55 56  1  0  0  0
 55 57  1  0  0  0
 47 44  1  0  0  0
 44 40  1  0  0  0
 44 59  1  0  0  0
 40 41  2  0  0  0
 59 61  1  0  0  0
 59 60  1  0  0  0
 61 62  1  0  0  0
 42 39  1  0  0  0
 39 38  1  0  0  0
 39 63  1  0  0  0
 63 64  1  0  0  0
 64 65  1  0  0  0
 65 66  1  0  0  0
 36  1  1  0  0  0
  1  2  1  0  0  0
  1 67  1  0  0  0
  2  3  2  0  0  0
 67 68  1  0  0  0
 68 69  1  0  0  0
 69 70  1  0  0  0
  4  6  1  0  0  0
  6  7  1  0  0  0
  6 29  1  0  0  0
  7  8  2  0  0  0
 29 30  1  0  0  0
 30 31  1  0  0  0
 31 32  2  0  0  0
 31 33  1  0  0  0
  9 11  1  0  0  0
 11 12  1  0  0  0
 11 17  1  0  0  0
 12 13  2  0  0  0
 17 18  1  0  0  0
 18 19  1  0  0  0
 19 20  1  0  0  0
 20 22  1  0  0  0
 22 23  1  0  0  0
 22 24  2  0  0  0
 50 53  1  0  0  0
 45 47  1  0  0  0
 40 42  1  0  0  0
 38 36  1  0  0  0
  2  4  1  0  0  0
  7  9  1  0  0  0
 12 14  1  0  0  0
 53 54  1  0  0  0
 56 58  1  0  0  0
 47 48  1  0  0  0
 42 43  1  0  0  0
 36 37  1  0  0  0
  4  5  1  0  0  0
 33 34  1  0  0  0
 33 35  1  0  0  0
  9 10  1  0  0  0
 20 21  1  0  0  0
 23 25  1  0  0  0
 23 26  1  0  0  0
 24 27  1  0  0  0
 24 28  1  0  0  0
 14 15  1  0  0  0
 14 16  1  0  0  0
M  CHG 1  24   1
M  END
> <minimizedAffinity>
-9.04556

$$$$
2AOD_2NC_B_400


 70 69  0  0  0  0  0  0  0  0999 V2000
   15.2354   21.6383   16.2254 C   0  0  0  0  0  0  0  0  0  0  0  0
   16.6845   22.1257   16.1221 C   0  0  0  0  0  0  0  0  0  0  0  0
   17.6735   21.4690   16.4480 O   0  0  0  0  0  0  0  0  0  0  0  0
   16.8434   23.3641   15.6925 N   0  0  0  0  0  0  0  0  0  0  0  0
   16.0628   23.9031   15.4291 H   0  0  0  0  0  0  0  0  0  0  0  0
   18.1950   23.9287   15.6120 C   0  0  0  0  0  0  0  0  0  0  0  0
   18.4841   24.6001   16.9626 C   0  0  0  0  0  0  0  0  0  0  0  0
   17.6511   25.2852   17.5692 O   0  0  0  0  0  0  0  0  0  0  0  0
   19.7320   24.4680   17.3890 N   0  0  0  0  0  0  0  0  0  0  0  0
   20.3740   23.9614   16.8408 H   0  0  0  0  0  0  0  0  0  0  0  0
   20.1833   25.0555   18.6549 C   0  0  0  0  0  0  0  0  0  0  0  0
   21.0017   26.2990   18.3326 C   0  0  0  0  0  0  0  0  0  0  0  0
   21.7803   26.3002   17.3720 O   0  0  0  0  0  0  0  0  0  0  0  0
   20.9152   27.4951   19.1237 N   0  0  0  0  0  0  0  0  0  0  0  0
   20.3062   27.5313   19.8963 H   0  0  0  0  0  0  0  0  0  0  0  0
   21.4650   28.2785   18.8932 H   0  0  0  0  0  0  0  0  0  0  0  0
   21.0049   24.0629   19.4484 C   0  0  0  0  0  0  0  0  0  0  0  0
   20.3479   23.1723   20.4605 C   0  0  0  0  0  0  0  0  0  0  0  0
   19.0853   23.8001   21.0375 C   0  0  0  0  0  0  0  0  0  0  0  0
   17.8867   22.9488   21.0835 N   0  0  0  0  0  0  0  0  0  0  0  0
   17.5768   22.6402   21.9655 H   0  0  0  0  0  0  0  0  0  0  0  0
   17.1919   22.5672   20.0130 C   0  0  0  0  0  0  0  0  0  0  0  0
   17.3479   21.3436   19.4935 N   0  0  0  0  0  0  0  0  0  0  0  0
   16.3060   23.3332   19.3783 N   0  0  0  0  0  0  0  0  0  0  0  0
   17.9837   20.7127   19.9021 H   0  0  0  0  0  0  0  0  0  0  0  0
   16.8267   21.0744   18.7028 H   0  0  0  0  0  0  0  0  0  0  0  0
   16.1303   24.2486   19.6951 H   0  0  0  0  0  0  0  0  0  0  0  0
   15.8269   22.9839   18.5924 H   0  0  0  0  0  0  0  0  0  0  0  0
   18.3913   24.8464   14.4074 C   0  0  0  0  0  0  0  0  0  0  0  0
   19.1530   26.1211   14.6296 C   0  0  0  0  0  0  0  0  0  0  0  0
   20.5916   26.0703   14.1971 C   0  0  0  0  0  0  0  0  0  0  0  0
   21.0860   27.0692   13.7265 O   0  0  0  0  0  0  0  0  0  0  0  0
   21.3350   25.0210   14.4136 N   0  0  0  0  0  0  0  0  0  0  0  0
   20.9367   24.2061   14.7964 H   0  0  0  0  0  0  0  0  0  0  0  0
   22.2945   25.0438   14.1942 H   0  0  0  0  0  0  0  0  0  0  0  0
   14.9833   21.0465   17.5329 N   0  0  0  0  0  0  0  0  0  0  0  0
   15.8189   21.2208   18.0913 H   0  0  0  0  0  0  0  0  0  0  0  0
   13.8719   21.4418   18.3410 C   0  0  0  0  0  0  0  0  0  0  0  0
   12.9238   20.2824   18.6055 C   0  0  0  0  0  0  0  0  0  0  0  0
   11.0635   19.4252   17.3304 C   0  0  0  0  0  0  0  0  0  0  0  0
   10.2641   19.7312   18.2250 O   0  0  0  0  0  0  0  0  0  0  0  0
   12.3437   19.6948   17.3964 N   0  0  0  0  0  0  0  0  0  0  0  0
   12.9225   19.5000   16.6241 H   0  0  0  0  0  0  0  0  0  0  0  0
   10.5901   18.7054   16.0927 C   0  0  0  0  0  0  0  0  0  0  0  0
   10.0603   16.3240   16.3393 C   0  0  0  0  0  0  0  0  0  0  0  0
   11.1545   16.0783   15.8445 O   0  0  0  0  0  0  0  0  0  0  0  0
    9.7257   17.5901   16.4765 N   0  0  0  0  0  0  0  0  0  0  0  0
    8.8429   17.7978   16.8596 H   0  0  0  0  0  0  0  0  0  0  0  0
    9.1019   15.2104   16.8237 C   0  0  0  0  0  0  0  0  0  0  0  0
    7.0334   14.4781   15.6778 C   0  0  0  0  0  0  0  0  0  0  0  0
    6.3160   15.0516   16.5030 O   0  0  0  0  0  0  0  0  0  0  0  0
    6.4527   13.6495   14.5393 C   0  0  0  0  0  0  0  0  0  0  0  0
    8.3527   14.5648   15.7793 N   0  0  0  0  0  0  0  0  0  0  0  0
    8.8765   14.1411   15.0614 H   0  0  0  0  0  0  0  0  0  0  0  0
    9.9461   14.1739   17.5985 C   0  0  0  0  0  0  0  0  0  0  0  0
   10.5530   13.2018   16.7330 O   0  0  0  0  0  0  0  0  0  0  0  0
    9.0714   13.3777   18.5713 C   0  0  0  0  0  0  0  0  0  0  0  0
    9.8608   12.6946   16.2808 H   0  0  0  0  0  0  0  0  0  0  0  0
    9.8564   19.6657   15.1401 C   0  0  0  0  0  0  0  0  0  0  0  0
   10.0445   21.0979   15.5610 C   0  0  0  0  0  0  0  0  0  0  0  0
   10.2351   19.4522   13.6820 C   0  0  0  0  0  0  0  0  0  0  0  0
   11.3428   18.4972   13.3635 C   0  0  0  0  0  0  0  0  0  0  0  0
   13.6561   19.1962   19.4131 C   0  0  0  0  0  0  0  0  0  0  0  0
   13.0864   18.9828   20.8131 C   0  0  0  0  0  0  0  0  0  0  0  0
   12.0228   17.9205   20.8413 C   0  0  0  0  0  0  0  0  0  0  0  0
   12.1150   16.8979   19.7061 C   0  0  0  0  0  0  0  0  0  0  0  0
   14.3236   22.8034   15.8987 C   0  0  0  0  0  0  0  0  0  0  0  0
   13.3597   22.8296   14.7440 C   0  0  0  0  0  0  0  0  0  0  0  0
   13.3535   21.5725   13.8954 C   0  0  0  0  0  0  0  0  0  0  0  0
   14.3227   21.5250   12.7229 C   0  0  0  0  0  0  0  0  0  0  0  0
 50 51  2  0  0  0
 50 52  1  0  0  0
 53 49  1  0  0  0
 49 45  1  0  0  0
 49 55  1  0  0  0
 45 46  2  0  0  0
 55 56  1  0  0  0
 55 57  1  0  0  0
 47 44  1  0  0  0
 44 40  1  0  0  0
 44 59  1  0  0  0
 40 41  2  0  0  0
 59 61  1  0  0  0
 59 60  1  0  0  0
 61 62  1  0  0  0
 42 39  1  0  0  0
 39 38  1  0  0  0
 39 63  1  0  0  0
 63 64  1  0  0  0
 64 65  1  0  0  0
 65 66  1  0  0  0
 36  1  1  0  0  0
  1  2  1  0  0  0
  1 67  1  0  0  0
  2  3  2  0  0  0
 67 68  1  0  0  0
 68 69  1  0  0  0
 69 70  1  0  0  0
  4  6  1  0  0  0
  6  7  1  0  0  0
  6 29  1  0  0  0
  7  8  2  0  0  0
 29 30  1  0  0  0
 30 31  1  0  0  0
 31 32  2  0  0  0
 31 33  1  0  0  0
  9 11  1  0  0  0
 11 12  1  0  0  0
 11 17  1  0  0  0
 12 13  2  0  0  0
 17 18  1  0  0  0
 18 19  1  0  0  0
 19 20  1  0  0  0
 20 22  1  0  0  0
 22 23  1  0  0  0
 22 24  2  0  0  0
 50 53  1  0  0  0
 45 47  1  0  0  0
 40 42  1  0  0  0
 38 36  1  0  0  0
  2  4  1  0  0  0
  7  9  1  0  0  0
 12 14  1  0  0  0
 53 54  1  0  0  0
 56 58  1  0  0  0
 47 48  1  0  0  0
 42 43  1  0  0  0
 36 37  1  0  0  0
  4  5  1  0  0  0
 33 34  1  0  0  0
 33 35  1  0  0  0
  9 10  1  0  0  0
 20 21  1  0  0  0
 23 25  1  0  0  0
 23 26  1  0  0  0
 24 27  1  0  0  0
 24 28  1  0  0  0
 14 15  1  0  0  0
 14 16  1  0  0  0
M  CHG 1  24   1
M  END
> <minimizedAffinity>
-8.56889

$$$$
2AOD_2NC_B_400


 70 69  0  0  0  0  0  0  0  0999 V2000
   14.4480   22.8537   16.7422 C   0  0  0  0  0  0  0  0  0  0  0  0
   14.3392   21.4498   17.3470 C   0  0  0  0  0  0  0  0  0  0  0  0
   15.2314   20.6019   17.3240 O   0  0  0  0  0  0  0  0  0  0  0  0
   13.1710   21.1451   17.8817 N   0  0  0  0  0  0  0  0  0  0  0  0
   12.4466   21.8114   17.9069 H   0  0  0  0  0  0  0  0  0  0  0  0
   12.9635   19.8034   18.4377 C   0  0  0  0  0  0  0  0  0  0  0  0
   11.6098   19.3026   17.9130 C   0  0  0  0  0  0  0  0  0  0  0  0
   10.5397   19.8790   18.1448 O   0  0  0  0  0  0  0  0  0  0  0  0
   11.6616   18.1466   17.2669 N   0  0  0  0  0  0  0  0  0  0  0  0
   12.5309   17.6973   17.1587 H   0  0  0  0  0  0  0  0  0  0  0  0
   10.4597   17.5181   16.7084 C   0  0  0  0  0  0  0  0  0  0  0  0
   10.1199   16.3057   17.5654 C   0  0  0  0  0  0  0  0  0  0  0  0
    9.8393   16.4475   18.7613 O   0  0  0  0  0  0  0  0  0  0  0  0
   10.1240   14.9709   17.0342 N   0  0  0  0  0  0  0  0  0  0  0  0
   10.3427   14.8190   16.0863 H   0  0  0  0  0  0  0  0  0  0  0  0
    9.9082   14.2081   17.6179 H   0  0  0  0  0  0  0  0  0  0  0  0
   10.6825   17.1117   15.2679 C   0  0  0  0  0  0  0  0  0  0  0  0
   10.4685   18.0992   14.1597 C   0  0  0  0  0  0  0  0  0  0  0  0
   10.6342   17.4596   12.7868 C   0  0  0  0  0  0  0  0  0  0  0  0
   11.4862   16.2627   12.7148 N   0  0  0  0  0  0  0  0  0  0  0  0
   11.1667   15.4447   13.1599 H   0  0  0  0  0  0  0  0  0  0  0  0
   12.6605   16.2102   12.0883 C   0  0  0  0  0  0  0  0  0  0  0  0
   13.7473   16.7851   12.6172 N   0  0  0  0  0  0  0  0  0  0  0  0
   12.8640   15.6030   10.9203 N   0  0  0  0  0  0  0  0  0  0  0  0
   13.6848   17.2558   13.4797 H   0  0  0  0  0  0  0  0  0  0  0  0
   14.6092   16.7373   12.1439 H   0  0  0  0  0  0  0  0  0  0  0  0
   12.1171   15.1544   10.4619 H   0  0  0  0  0  0  0  0  0  0  0  0
   13.7614   15.6029   10.5153 H   0  0  0  0  0  0  0  0  0  0  0  0
   13.0962   19.7568   19.9582 C   0  0  0  0  0  0  0  0  0  0  0  0
   13.2203   18.4040   20.5975 C   0  0  0  0  0  0  0  0  0  0  0  0
   11.9270   17.8384   21.1142 C   0  0  0  0  0  0  0  0  0  0  0  0
   10.9745   18.5779   21.2117 O   0  0  0  0  0  0  0  0  0  0  0  0
   11.7843   16.5647   21.3545 N   0  0  0  0  0  0  0  0  0  0  0  0
   12.5568   15.9594   21.2763 H   0  0  0  0  0  0  0  0  0  0  0  0
   10.9040   16.2083   21.6141 H   0  0  0  0  0  0  0  0  0  0  0  0
   15.7128   23.4763   17.1108 N   0  0  0  0  0  0  0  0  0  0  0  0
   15.7483   24.3666   16.6144 H   0  0  0  0  0  0  0  0  0  0  0  0
   16.0472   23.7627   18.4712 C   0  0  0  0  0  0  0  0  0  0  0  0
   17.5517   23.8439   18.6791 C   0  0  0  0  0  0  0  0  0  0  0  0
   19.0805   24.7385   17.0410 C   0  0  0  0  0  0  0  0  0  0  0  0
   19.3548   23.6045   16.6262 O   0  0  0  0  0  0  0  0  0  0  0  0
   18.1940   24.9584   17.9799 N   0  0  0  0  0  0  0  0  0  0  0  0
   17.9568   25.8838   18.2181 H   0  0  0  0  0  0  0  0  0  0  0  0
   19.7750   25.9509   16.4736 C   0  0  0  0  0  0  0  0  0  0  0  0
   21.8305   26.7600   17.5380 C   0  0  0  0  0  0  0  0  0  0  0  0
   21.1728   27.6893   17.9921 O   0  0  0  0  0  0  0  0  0  0  0  0
   21.2032   25.8843   16.7807 N   0  0  0  0  0  0  0  0  0  0  0  0
   21.7257   25.1422   16.3993 H   0  0  0  0  0  0  0  0  0  0  0  0
   23.3343   26.5787   17.8525 C   0  0  0  0  0  0  0  0  0  0  0  0
   24.6765   28.1175   16.4529 C   0  0  0  0  0  0  0  0  0  0  0  0
   24.4289   27.4770   15.4268 O   0  0  0  0  0  0  0  0  0  0  0  0
   25.5955   29.3321   16.4458 C   0  0  0  0  0  0  0  0  0  0  0  0
   24.1448   27.7416   17.6081 N   0  0  0  0  0  0  0  0  0  0  0  0
   24.3244   28.3217   18.3830 H   0  0  0  0  0  0  0  0  0  0  0  0
   23.4519   26.1431   19.3303 C   0  0  0  0  0  0  0  0  0  0  0  0
   22.2008   25.6908   19.8713 O   0  0  0  0  0  0  0  0  0  0  0  0
   23.8866   27.3182   20.2110 C   0  0  0  0  0  0  0  0  0  0  0  0
   21.5613   26.4201   19.8604 H   0  0  0  0  0  0  0  0  0  0  0  0
   19.5445   26.0617   14.9562 C   0  0  0  0  0  0  0  0  0  0  0  0
   18.1271   25.7100   14.5947 C   0  0  0  0  0  0  0  0  0  0  0  0
   19.9495   27.4173   14.3965 C   0  0  0  0  0  0  0  0  0  0  0  0
   21.2665   27.5368   13.6954 C   0  0  0  0  0  0  0  0  0  0  0  0
   17.8566   23.9284   20.1852 C   0  0  0  0  0  0  0  0  0  0  0  0
   19.2967   23.5690   20.5414 C   0  0  0  0  0  0  0  0  0  0  0  0
   19.5437   22.0866   20.4953 C   0  0  0  0  0  0  0  0  0  0  0  0
   18.6992   21.2702   21.4767 C   0  0  0  0  0  0  0  0  0  0  0  0
   14.2398   22.7378   15.2460 C   0  0  0  0  0  0  0  0  0  0  0  0
   15.2194   22.0997   14.2991 C   0  0  0  0  0  0  0  0  0  0  0  0
   14.5864   21.3683   13.1309 C   0  0  0  0  0  0  0  0  0  0  0  0
   13.5683   20.2866   13.4621 C   0  0  0  0  0  0  0  0  0  0  0  0
 50 51  2  0  0  0
 50 52  1  0  0  0
 53 49  1  0  0  0
 49 45  1  0  0  0
 49 55  1  0  0  0
 45 46  2  0  0  0
 55 56  1  0  0  0
 55 57  1  0  0  0
 47 44  1  0  0  0
 44 40  1  0  0  0
 44 59  1  0  0  0
 40 41  2  0  0  0
 59 61  1  0  0  0
 59 60  1  0  0  0
 61 62  1  0  0  0
 42 39  1  0  0  0
 39 38  1  0  0  0
 39 63  1  0  0  0
 63 64  1  0  0  0
 64 65  1  0  0  0
 65 66  1  0  0  0
 36  1  1  0  0  0
  1  2  1  0  0  0
  1 67  1  0  0  0
  2  3  2  0  0  0
 67 68  1  0  0  0
 68 69  1  0  0  0
 69 70  1  0  0  0
  4  6  1  0  0  0
  6  7  1  0  0  0
  6 29  1  0  0  0
  7  8  2  0  0  0
 29 30  1  0  0  0
 30 31  1  0  0  0
 31 32  2  0  0  0
 31 33  1  0  0  0
  9 11  1  0  0  0
 11 12  1  0  0  0
 11 17  1  0  0  0
 12 13  2  0  0  0
 17 18  1  0  0  0
 18 19  1  0  0  0
 19 20  1  0  0  0
 20 22  1  0  0  0
 22 23  1  0  0  0
 22 24  2  0  0  0
 50 53  1  0  0  0
 45 47  1  0  0  0
 40 42  1  0  0  0
 38 36  1  0  0  0
  2  4  1  0  0  0
  7  9  1  0  0  0
 12 14  1  0  0  0
 53 54  1  0  0  0
 56 58  1  0  0  0
 47 48  1  0  0  0
 42 43  1  0  0  0
 36 37  1  0  0  0
  4  5  1  0  0  0
 33 34  1  0  0  0
 33 35  1  0  0  0
  9 10  1  0  0  0
 20 21  1  0  0  0
 23 25  1  0  0  0
 23 26  1  0  0  0
 24 27  1  0  0  0
 24 28  1  0  0  0
 14 15  1  0  0  0
 14 16  1  0  0  0
M  CHG 1  24   1
M  END
> <minimizedAffinity>
-8.46595

$$$$
2AOD_2NC_B_400


 70 69  0  0  0  0  0  0  0  0999 V2000
   16.6218   21.7296   19.6826 C   0  0  0  0  0  0  0  0  0  0  0  0
   17.2944   21.7812   18.3066 C   0  0  0  0  0  0  0  0  0  0  0  0
   17.7594   20.8082   17.7130 O   0  0  0  0  0  0  0  0  0  0  0  0
   17.4088   22.9820   17.7694 N   0  0  0  0  0  0  0  0  0  0  0  0
   17.0434   23.7706   18.2317 H   0  0  0  0  0  0  0  0  0  0  0  0
   18.0863   23.1288   16.4764 C   0  0  0  0  0  0  0  0  0  0  0  0
   18.8139   24.4810   16.4999 C   0  0  0  0  0  0  0  0  0  0  0  0
   18.7126   25.2872   17.4332 O   0  0  0  0  0  0  0  0  0  0  0  0
   19.4897   24.7636   15.3954 N   0  0  0  0  0  0  0  0  0  0  0  0
   19.4919   24.1134   14.6562 H   0  0  0  0  0  0  0  0  0  0  0  0
   20.2343   26.0182   15.2438 C   0  0  0  0  0  0  0  0  0  0  0  0
   19.4245   26.9414   14.3428 C   0  0  0  0  0  0  0  0  0  0  0  0
   18.3151   26.5888   13.9261 O   0  0  0  0  0  0  0  0  0  0  0  0
   19.9120   28.2301   13.9361 N   0  0  0  0  0  0  0  0  0  0  0  0
   20.7912   28.5448   14.2480 H   0  0  0  0  0  0  0  0  0  0  0  0
   19.3668   28.7987   13.3454 H   0  0  0  0  0  0  0  0  0  0  0  0
   21.6064   25.7644   14.6581 C   0  0  0  0  0  0  0  0  0  0  0  0
   22.8354   26.2479   15.3686 C   0  0  0  0  0  0  0  0  0  0  0  0
   22.6471   27.6453   15.9457 C   0  0  0  0  0  0  0  0  0  0  0  0
   22.6555   27.7606   17.4120 N   0  0  0  0  0  0  0  0  0  0  0  0
   23.1774   28.4935   17.8116 H   0  0  0  0  0  0  0  0  0  0  0  0
   22.0050   26.9408   18.2360 C   0  0  0  0  0  0  0  0  0  0  0  0
   20.8114   27.2778   18.7392 N   0  0  0  0  0  0  0  0  0  0  0  0
   22.4575   25.7499   18.6251 N   0  0  0  0  0  0  0  0  0  0  0  0
   20.4037   28.1421   18.5025 H   0  0  0  0  0  0  0  0  0  0  0  0
   20.3412   26.6614   19.3460 H   0  0  0  0  0  0  0  0  0  0  0  0
   23.3284   25.4244   18.3014 H   0  0  0  0  0  0  0  0  0  0  0  0
   21.9211   25.1951   19.2365 H   0  0  0  0  0  0  0  0  0  0  0  0
   17.1494   22.9481   15.2841 C   0  0  0  0  0  0  0  0  0  0  0  0
   15.8152   23.6340   15.3466 C   0  0  0  0  0  0  0  0  0  0  0  0
   14.7121   22.7978   15.9326 C   0  0  0  0  0  0  0  0  0  0  0  0
   14.8872   21.6052   16.0351 O   0  0  0  0  0  0  0  0  0  0  0  0
   13.6306   23.3372   16.4226 N   0  0  0  0  0  0  0  0  0  0  0  0
   13.4842   24.3074   16.3415 H   0  0  0  0  0  0  0  0  0  0  0  0
   12.9607   22.7743   16.8737 H   0  0  0  0  0  0  0  0  0  0  0  0
   15.4733   20.8331   19.6609 N   0  0  0  0  0  0  0  0  0  0  0  0
   15.4498   20.3767   20.5728 H   0  0  0  0  0  0  0  0  0  0  0  0
   14.1469   21.3082   19.4166 C   0  0  0  0  0  0  0  0  0  0  0  0
   13.1868   20.1706   19.1051 C   0  0  0  0  0  0  0  0  0  0  0  0
   11.6952   19.8170   17.2419 C   0  0  0  0  0  0  0  0  0  0  0  0
   10.7019   19.8969   17.9768 O   0  0  0  0  0  0  0  0  0  0  0  0
   12.9189   19.9863   17.6775 N   0  0  0  0  0  0  0  0  0  0  0  0
   13.6671   19.9898   17.0376 H   0  0  0  0  0  0  0  0  0  0  0  0
   11.5398   19.5087   15.7740 C   0  0  0  0  0  0  0  0  0  0  0  0
   10.9412   17.3307   14.8198 C   0  0  0  0  0  0  0  0  0  0  0  0
   11.9858   17.3774   14.1801 O   0  0  0  0  0  0  0  0  0  0  0  0
   10.6652   18.3485   15.6083 N   0  0  0  0  0  0  0  0  0  0  0  0
    9.8216   18.3272   16.1153 H   0  0  0  0  0  0  0  0  0  0  0  0
    9.9805   16.1202   14.7489 C   0  0  0  0  0  0  0  0  0  0  0  0
    9.6270   15.3288   12.4301 C   0  0  0  0  0  0  0  0  0  0  0  0
    8.8764   16.2743   12.1709 O   0  0  0  0  0  0  0  0  0  0  0  0
    9.9188   14.2276   11.4192 C   0  0  0  0  0  0  0  0  0  0  0  0
   10.1942   15.2472   13.6259 N   0  0  0  0  0  0  0  0  0  0  0  0
   10.8310   14.5084   13.7597 H   0  0  0  0  0  0  0  0  0  0  0  0
   10.1206   15.3362   16.0729 C   0  0  0  0  0  0  0  0  0  0  0  0
   11.2554   15.7590   16.8448 O   0  0  0  0  0  0  0  0  0  0  0  0
   10.3333   13.8440   15.8018 C   0  0  0  0  0  0  0  0  0  0  0  0
   12.0689   15.5840   16.3462 H   0  0  0  0  0  0  0  0  0  0  0  0
   10.9895   20.7246   15.0080 C   0  0  0  0  0  0  0  0  0  0  0  0
   12.0026   21.2549   14.0302 C   0  0  0  0  0  0  0  0  0  0  0  0
    9.6529   20.4428   14.3379 C   0  0  0  0  0  0  0  0  0  0  0  0
    8.8081   21.6027   13.9121 C   0  0  0  0  0  0  0  0  0  0  0  0
   13.7307   18.8625   19.7064 C   0  0  0  0  0  0  0  0  0  0  0  0
   13.1159   18.5052   21.0571 C   0  0  0  0  0  0  0  0  0  0  0  0
   11.6397   18.2368   20.9598 C   0  0  0  0  0  0  0  0  0  0  0  0
   11.2635   17.0789   20.0323 C   0  0  0  0  0  0  0  0  0  0  0  0
   17.6728   21.3477   20.7049 C   0  0  0  0  0  0  0  0  0  0  0  0
   18.9854   22.0614   20.8808 C   0  0  0  0  0  0  0  0  0  0  0  0
   18.8649   23.5182   21.2855 C   0  0  0  0  0  0  0  0  0  0  0  0
   19.8328   24.4980   20.6379 C   0  0  0  0  0  0  0  0  0  0  0  0
 50 51  2  0  0  0
 50 52  1  0  0  0
 53 49  1  0  0  0
 49 45  1  0  0  0
 49 55  1  0  0  0
 45 46  2  0  0  0
 55 56  1  0  0  0
 55 57  1  0  0  0
 47 44  1  0  0  0
 44 40  1  0  0  0
 44 59  1  0  0  0
 40 41  2  0  0  0
 59 61  1  0  0  0
 59 60  1  0  0  0
 61 62  1  0  0  0
 42 39  1  0  0  0
 39 38  1  0  0  0
 39 63  1  0  0  0
 63 64  1  0  0  0
 64 65  1  0  0  0
 65 66  1  0  0  0
 36  1  1  0  0  0
  1  2  1  0  0  0
  1 67  1  0  0  0
  2  3  2  0  0  0
 67 68  1  0  0  0
 68 69  1  0  0  0
 69 70  1  0  0  0
  4  6  1  0  0  0
  6  7  1  0  0  0
  6 29  1  0  0  0
  7  8  2  0  0  0
 29 30  1  0  0  0
 30 31  1  0  0  0
 31 32  2  0  0  0
 31 33  1  0  0  0
  9 11  1  0  0  0
 11 12  1  0  0  0
 11 17  1  0  0  0
 12 13  2  0  0  0
 17 18  1  0  0  0
 18 19  1  0  0  0
 19 20  1  0  0  0
 20 22  1  0  0  0
 22 23  1  0  0  0
 22 24  2  0  0  0
 50 53  1  0  0  0
 45 47  1  0  0  0
 40 42  1  0  0  0
 38 36  1  0  0  0
  2  4  1  0  0  0
  7  9  1  0  0  0
 12 14  1  0  0  0
 53 54  1  0  0  0
 56 58  1  0  0  0
 47 48  1  0  0  0
 42 43  1  0  0  0
 36 37  1  0  0  0
  4  5  1  0  0  0
 33 34  1  0  0  0
 33 35  1  0  0  0
  9 10  1  0  0  0
 20 21  1  0  0  0
 23 25  1  0  0  0
 23 26  1  0  0  0
 24 27  1  0  0  0
 24 28  1  0  0  0
 14 15  1  0  0  0
 14 16  1  0  0  0
M  CHG 1  24   1
M  END
> <minimizedAffinity>
-8.16947

$$$$
2AOD_2NC_B_400


 70 69  0  0  0  0  0  0  0  0999 V2000
   14.1607   22.7706   16.5821 C   0  0  0  0  0  0  0  0  0  0  0  0
   14.1307   21.3792   17.2235 C   0  0  0  0  0  0  0  0  0  0  0  0
   15.0572   20.5692   17.1923 O   0  0  0  0  0  0  0  0  0  0  0  0
   12.9937   21.0393   17.8025 N   0  0  0  0  0  0  0  0  0  0  0  0
   12.2427   21.6750   17.8350 H   0  0  0  0  0  0  0  0  0  0  0  0
   12.8612   19.7046   18.3968 C   0  0  0  0  0  0  0  0  0  0  0  0
   11.5051   19.1429   17.9451 C   0  0  0  0  0  0  0  0  0  0  0  0
   10.4292   19.7119   18.1685 O   0  0  0  0  0  0  0  0  0  0  0  0
   11.5647   17.9476   17.3756 N   0  0  0  0  0  0  0  0  0  0  0  0
   12.4403   17.5096   17.2728 H   0  0  0  0  0  0  0  0  0  0  0  0
   10.3622   17.2593   16.8943 C   0  0  0  0  0  0  0  0  0  0  0  0
   10.0880   16.0837   17.8231 C   0  0  0  0  0  0  0  0  0  0  0  0
   10.7877   15.0661   17.7627 O   0  0  0  0  0  0  0  0  0  0  0  0
    9.0172   16.1020   18.7807 N   0  0  0  0  0  0  0  0  0  0  0  0
    8.4390   16.8951   18.8575 H   0  0  0  0  0  0  0  0  0  0  0  0
    8.8616   15.3214   19.3601 H   0  0  0  0  0  0  0  0  0  0  0  0
   10.5451   16.7858   15.4687 C   0  0  0  0  0  0  0  0  0  0  0  0
    9.3588   16.3774   14.6472 C   0  0  0  0  0  0  0  0  0  0  0  0
    9.4036   14.9002   14.2769 C   0  0  0  0  0  0  0  0  0  0  0  0
    8.9673   13.9475   15.3091 N   0  0  0  0  0  0  0  0  0  0  0  0
    8.0270   13.9833   15.5985 H   0  0  0  0  0  0  0  0  0  0  0  0
    9.7580   13.0395   15.8789 C   0  0  0  0  0  0  0  0  0  0  0  0
    9.3642   12.3751   16.9720 N   0  0  0  0  0  0  0  0  0  0  0  0
   10.9707   12.7127   15.4350 N   0  0  0  0  0  0  0  0  0  0  0  0
    8.4803   12.5559   17.3662 H   0  0  0  0  0  0  0  0  0  0  0  0
    9.9583   11.7056   17.3819 H   0  0  0  0  0  0  0  0  0  0  0  0
   11.3376   13.1541   14.6352 H   0  0  0  0  0  0  0  0  0  0  0  0
   11.5000   12.0296   15.9068 H   0  0  0  0  0  0  0  0  0  0  0  0
   13.0628   19.6990   19.9105 C   0  0  0  0  0  0  0  0  0  0  0  0
   13.3212   18.3731   20.5659 C   0  0  0  0  0  0  0  0  0  0  0  0
   12.0838   17.6529   21.0233 C   0  0  0  0  0  0  0  0  0  0  0  0
   12.2127   16.5938   21.5937 O   0  0  0  0  0  0  0  0  0  0  0  0
   10.8999   18.1888   20.9142 N   0  0  0  0  0  0  0  0  0  0  0  0
   10.7905   19.0506   20.4509 H   0  0  0  0  0  0  0  0  0  0  0  0
   10.1156   17.7317   21.2952 H   0  0  0  0  0  0  0  0  0  0  0  0
   15.3604   23.4954   16.9804 N   0  0  0  0  0  0  0  0  0  0  0  0
   15.2406   24.4517   16.6464 H   0  0  0  0  0  0  0  0  0  0  0  0
   15.7643   23.5965   18.3483 C   0  0  0  0  0  0  0  0  0  0  0  0
   17.2780   23.5727   18.4947 C   0  0  0  0  0  0  0  0  0  0  0  0
   18.9020   24.5985   17.0348 C   0  0  0  0  0  0  0  0  0  0  0  0
   19.2144   23.5012   16.5536 O   0  0  0  0  0  0  0  0  0  0  0  0
   17.9535   24.7410   17.9269 N   0  0  0  0  0  0  0  0  0  0  0  0
   17.6918   25.6440   18.2190 H   0  0  0  0  0  0  0  0  0  0  0  0
   19.6199   25.8545   16.6091 C   0  0  0  0  0  0  0  0  0  0  0  0
   21.6168   26.6920   17.7596 C   0  0  0  0  0  0  0  0  0  0  0  0
   20.9531   27.6639   18.1025 O   0  0  0  0  0  0  0  0  0  0  0  0
   21.0213   25.7796   17.0203 N   0  0  0  0  0  0  0  0  0  0  0  0
   21.5498   25.0022   16.7276 H   0  0  0  0  0  0  0  0  0  0  0  0
   23.0901   26.5016   18.1913 C   0  0  0  0  0  0  0  0  0  0  0  0
   23.6421   24.8737   19.9727 C   0  0  0  0  0  0  0  0  0  0  0  0
   23.5357   25.7307   20.8551 O   0  0  0  0  0  0  0  0  0  0  0  0
   24.0602   23.4422   20.2822 C   0  0  0  0  0  0  0  0  0  0  0  0
   23.4016   25.1964   18.7092 N   0  0  0  0  0  0  0  0  0  0  0  0
   23.4406   24.4625   18.0541 H   0  0  0  0  0  0  0  0  0  0  0  0
   23.9787   26.8202   16.9681 C   0  0  0  0  0  0  0  0  0  0  0  0
   23.8563   25.8369   15.9286 O   0  0  0  0  0  0  0  0  0  0  0  0
   25.4594   26.8312   17.3593 C   0  0  0  0  0  0  0  0  0  0  0  0
   24.1597   24.9771   16.2595 H   0  0  0  0  0  0  0  0  0  0  0  0
   19.5046   26.0704   15.0899 C   0  0  0  0  0  0  0  0  0  0  0  0
   18.1124   25.7736   14.6029 C   0  0  0  0  0  0  0  0  0  0  0  0
   19.9720   27.4512   14.6542 C   0  0  0  0  0  0  0  0  0  0  0  0
   21.1027   27.5483   13.6783 C   0  0  0  0  0  0  0  0  0  0  0  0
   17.6463   23.4294   19.9821 C   0  0  0  0  0  0  0  0  0  0  0  0
   18.8027   22.4665   20.2385 C   0  0  0  0  0  0  0  0  0  0  0  0
   20.1327   23.1669   20.2708 C   0  0  0  0  0  0  0  0  0  0  0  0
   20.0632   24.6468   20.6552 C   0  0  0  0  0  0  0  0  0  0  0  0
   14.0223   22.5998   15.0831 C   0  0  0  0  0  0  0  0  0  0  0  0
   14.0367   21.2727   14.3746 C   0  0  0  0  0  0  0  0  0  0  0  0
   12.6940   20.8359   13.8206 C   0  0  0  0  0  0  0  0  0  0  0  0
   11.4544   21.2700   14.5896 C   0  0  0  0  0  0  0  0  0  0  0  0
 50 51  2  0  0  0
 50 52  1  0  0  0
 53 49  1  0  0  0
 49 45  1  0  0  0
 49 55  1  0  0  0
 45 46  2  0  0  0
 55 56  1  0  0  0
 55 57  1  0  0  0
 47 44  1  0  0  0
 44 40  1  0  0  0
 44 59  1  0  0  0
 40 41  2  0  0  0
 59 61  1  0  0  0
 59 60  1  0  0  0
 61 62  1  0  0  0
 42 39  1  0  0  0
 39 38  1  0  0  0
 39 63  1  0  0  0
 63 64  1  0  0  0
 64 65  1  0  0  0
 65 66  1  0  0  0
 36  1  1  0  0  0
  1  2  1  0  0  0
  1 67  1  0  0  0
  2  3  2  0  0  0
 67 68  1  0  0  0
 68 69  1  0  0  0
 69 70  1  0  0  0
  4  6  1  0  0  0
  6  7  1  0  0  0
  6 29  1  0  0  0
  7  8  2  0  0  0
 29 30  1  0  0  0
 30 31  1  0  0  0
 31 32  2  0  0  0
 31 33  1  0  0  0
  9 11  1  0  0  0
 11 12  1  0  0  0
 11 17  1  0  0  0
 12 13  2  0  0  0
 17 18  1  0  0  0
 18 19  1  0  0  0
 19 20  1  0  0  0
 20 22  1  0  0  0
 22 23  1  0  0  0
 22 24  2  0  0  0
 50 53  1  0  0  0
 45 47  1  0  0  0
 40 42  1  0  0  0
 38 36  1  0  0  0
  2  4  1  0  0  0
  7  9  1  0  0  0
 12 14  1  0  0  0
 53 54  1  0  0  0
 56 58  1  0  0  0
 47 48  1  0  0  0
 42 43  1  0  0  0
 36 37  1  0  0  0
  4  5  1  0  0  0
 33 34  1  0  0  0
 33 35  1  0  0  0
  9 10  1  0  0  0
 20 21  1  0  0  0
 23 25  1  0  0  0
 23 26  1  0  0  0
 24 27  1  0  0  0
 24 28  1  0  0  0
 14 15  1  0  0  0
 14 16  1  0  0  0
M  CHG 1  24   1
M  END
> <minimizedAffinity>
-8.09781

$$$$
2AOD_2NC_B_400


 70 69  0  0  0  0  0  0  0  0999 V2000
   14.3080   22.5705   16.7677 C   0  0  0  0  0  0  0  0  0  0  0  0
   13.7316   21.1909   17.1033 C   0  0  0  0  0  0  0  0  0  0  0  0
   14.3334   20.3046   17.7098 O   0  0  0  0  0  0  0  0  0  0  0  0
   12.5141   20.9529   16.6509 N   0  0  0  0  0  0  0  0  0  0  0  0
   12.0197   21.6506   16.1630 H   0  0  0  0  0  0  0  0  0  0  0  0
   11.9058   19.6383   16.8830 C   0  0  0  0  0  0  0  0  0  0  0  0
   11.2884   19.1862   15.5514 C   0  0  0  0  0  0  0  0  0  0  0  0
   10.6000   19.9276   14.8390 O   0  0  0  0  0  0  0  0  0  0  0  0
   11.4709   17.9051   15.2651 N   0  0  0  0  0  0  0  0  0  0  0  0
   11.9774   17.3416   15.8937 H   0  0  0  0  0  0  0  0  0  0  0  0
   10.9392   17.3035   14.0375 C   0  0  0  0  0  0  0  0  0  0  0  0
    9.6321   16.6025   14.3836 C   0  0  0  0  0  0  0  0  0  0  0  0
    8.6152   16.8149   13.7130 O   0  0  0  0  0  0  0  0  0  0  0  0
    9.5243   15.6929   15.4904 N   0  0  0  0  0  0  0  0  0  0  0  0
   10.3129   15.4993   16.0470 H   0  0  0  0  0  0  0  0  0  0  0  0
    8.6618   15.2633   15.6923 H   0  0  0  0  0  0  0  0  0  0  0  0
   11.9303   16.3276   13.4413 C   0  0  0  0  0  0  0  0  0  0  0  0
   12.0776   16.2104   11.9535 C   0  0  0  0  0  0  0  0  0  0  0  0
   11.2148   17.2253   11.2139 C   0  0  0  0  0  0  0  0  0  0  0  0
    9.9105   16.7518   10.7261 N   0  0  0  0  0  0  0  0  0  0  0  0
    9.2258   17.4278   10.5175 H   0  0  0  0  0  0  0  0  0  0  0  0
    9.5927   15.4707   10.5472 C   0  0  0  0  0  0  0  0  0  0  0  0
    9.9484   14.8243    9.4306 N   0  0  0  0  0  0  0  0  0  0  0  0
    8.9177   14.7327   11.4272 N   0  0  0  0  0  0  0  0  0  0  0  0
   10.4505   15.2962    8.7274 H   0  0  0  0  0  0  0  0  0  0  0  0
    9.7080   13.8769    9.3124 H   0  0  0  0  0  0  0  0  0  0  0  0
    8.6177   15.1309   12.2761 H   0  0  0  0  0  0  0  0  0  0  0  0
    8.7189   13.7892   11.2286 H   0  0  0  0  0  0  0  0  0  0  0  0
   10.9284   19.6279   18.0562 C   0  0  0  0  0  0  0  0  0  0  0  0
   11.0180   18.4777   19.0171 C   0  0  0  0  0  0  0  0  0  0  0  0
   11.8495   18.7506   20.2391 C   0  0  0  0  0  0  0  0  0  0  0  0
   11.3026   18.7508   21.3183 O   0  0  0  0  0  0  0  0  0  0  0  0
   13.1454   18.8795   20.1707 N   0  0  0  0  0  0  0  0  0  0  0  0
   13.5945   18.8799   19.2946 H   0  0  0  0  0  0  0  0  0  0  0  0
   13.6746   18.9764   20.9952 H   0  0  0  0  0  0  0  0  0  0  0  0
   15.6052   22.7554   17.4052 N   0  0  0  0  0  0  0  0  0  0  0  0
   16.2599   22.9883   16.6585 H   0  0  0  0  0  0  0  0  0  0  0  0
   15.8108   23.7256   18.4353 C   0  0  0  0  0  0  0  0  0  0  0  0
   17.2851   23.8920   18.7698 C   0  0  0  0  0  0  0  0  0  0  0  0
   18.8944   24.4162   17.0503 C   0  0  0  0  0  0  0  0  0  0  0  0
   19.1303   23.2162   16.8564 O   0  0  0  0  0  0  0  0  0  0  0  0
   17.9934   24.8361   17.9035 N   0  0  0  0  0  0  0  0  0  0  0  0
   17.7902   25.7976   17.9628 H   0  0  0  0  0  0  0  0  0  0  0  0
   19.6555   25.4784   16.2977 C   0  0  0  0  0  0  0  0  0  0  0  0
   21.4721   26.4996   17.5899 C   0  0  0  0  0  0  0  0  0  0  0  0
   20.6867   27.3873   17.9022 O   0  0  0  0  0  0  0  0  0  0  0  0
   21.0274   25.5448   16.7997 N   0  0  0  0  0  0  0  0  0  0  0  0
   21.6545   24.8349   16.5314 H   0  0  0  0  0  0  0  0  0  0  0  0
   22.9265   26.4584   18.1154 C   0  0  0  0  0  0  0  0  0  0  0  0
   23.4145   24.9720   20.0339 C   0  0  0  0  0  0  0  0  0  0  0  0
   23.1013   25.8436   20.8505 O   0  0  0  0  0  0  0  0  0  0  0  0
   23.9416   23.6103   20.4672 C   0  0  0  0  0  0  0  0  0  0  0  0
   23.3077   25.2176   18.7352 N   0  0  0  0  0  0  0  0  0  0  0  0
   23.5114   24.4690   18.1291 H   0  0  0  0  0  0  0  0  0  0  0  0
   23.8607   26.7736   16.9257 C   0  0  0  0  0  0  0  0  0  0  0  0
   23.7588   25.8009   15.8741 O   0  0  0  0  0  0  0  0  0  0  0  0
   25.3273   26.7588   17.3667 C   0  0  0  0  0  0  0  0  0  0  0  0
   24.0381   24.9339   16.2074 H   0  0  0  0  0  0  0  0  0  0  0  0
   19.6378   25.2045   14.7836 C   0  0  0  0  0  0  0  0  0  0  0  0
   18.2953   25.5306   14.1879 C   0  0  0  0  0  0  0  0  0  0  0  0
   20.7679   25.9062   14.0450 C   0  0  0  0  0  0  0  0  0  0  0  0
   20.7185   27.3962   13.9122 C   0  0  0  0  0  0  0  0  0  0  0  0
   17.4310   24.3233   20.2399 C   0  0  0  0  0  0  0  0  0  0  0  0
   18.3110   23.3915   21.0690 C   0  0  0  0  0  0  0  0  0  0  0  0
   17.9911   21.9418   20.8309 C   0  0  0  0  0  0  0  0  0  0  0  0
   19.1595   20.9839   21.0761 C   0  0  0  0  0  0  0  0  0  0  0  0
   14.3458   22.7094   15.2594 C   0  0  0  0  0  0  0  0  0  0  0  0
   15.4394   22.1622   14.3833 C   0  0  0  0  0  0  0  0  0  0  0  0
   14.9560   21.4880   13.1135 C   0  0  0  0  0  0  0  0  0  0  0  0
   13.7561   20.5599   13.2372 C   0  0  0  0  0  0  0  0  0  0  0  0
 50 51  2  0  0  0
 50 52  1  0  0  0
 53 49  1  0  0  0
 49 45  1  0  0  0
 49 55  1  0  0  0
 45 46  2  0  0  0
 55 56  1  0  0  0
 55 57  1  0  0  0
 47 44  1  0  0  0
 44 40  1  0  0  0
 44 59  1  0  0  0
 40 41  2  0  0  0
 59 61  1  0  0  0
 59 60  1  0  0  0
 61 62  1  0  0  0
 42 39  1  0  0  0
 39 38  1  0  0  0
 39 63  1  0  0  0
 63 64  1  0  0  0
 64 65  1  0  0  0
 65 66  1  0  0  0
 36  1  1  0  0  0
  1  2  1  0  0  0
  1 67  1  0  0  0
  2  3  2  0  0  0
 67 68  1  0  0  0
 68 69  1  0  0  0
 69 70  1  0  0  0
  4  6  1  0  0  0
  6  7  1  0  0  0
  6 29  1  0  0  0
  7  8  2  0  0  0
 29 30  1  0  0  0
 30 31  1  0  0  0
 31 32  2  0  0  0
 31 33  1  0  0  0
  9 11  1  0  0  0
 11 12  1  0  0  0
 11 17  1  0  0  0
 12 13  2  0  0  0
 17 18  1  0  0  0
 18 19  1  0  0  0
 19 20  1  0  0  0
 20 22  1  0  0  0
 22 23  1  0  0  0
 22 24  2  0  0  0
 50 53  1  0  0  0
 45 47  1  0  0  0
 40 42  1  0  0  0
 38 36  1  0  0  0
  2  4  1  0  0  0
  7  9  1  0  0  0
 12 14  1  0  0  0
 53 54  1  0  0  0
 56 58  1  0  0  0
 47 48  1  0  0  0
 42 43  1  0  0  0
 36 37  1  0  0  0
  4  5  1  0  0  0
 33 34  1  0  0  0
 33 35  1  0  0  0
  9 10  1  0  0  0
 20 21  1  0  0  0
 23 25  1  0  0  0
 23 26  1  0  0  0
 24 27  1  0  0  0
 24 28  1  0  0  0
 14 15  1  0  0  0
 14 16  1  0  0  0
M  CHG 1  24   1
M  END
> <minimizedAffinity>
-8.06723

$$$$
2AOD_2NC_B_400


 70 69  0  0  0  0  0  0  0  0999 V2000
   17.6251   22.9236   18.0270 C   0  0  0  0  0  0  0  0  0  0  0  0
   16.9093   21.6157   17.6730 C   0  0  0  0  0  0  0  0  0  0  0  0
   17.4454   20.6387   17.1498 O   0  0  0  0  0  0  0  0  0  0  0  0
   15.6120   21.5881   17.9171 N   0  0  0  0  0  0  0  0  0  0  0  0
   15.1678   22.3615   18.3340 H   0  0  0  0  0  0  0  0  0  0  0  0
   14.8393   20.3930   17.5609 C   0  0  0  0  0  0  0  0  0  0  0  0
   13.5937   20.8718   16.8008 C   0  0  0  0  0  0  0  0  0  0  0  0
   13.3890   22.0589   16.5180 O   0  0  0  0  0  0  0  0  0  0  0  0
   12.7017   19.9242   16.5501 N   0  0  0  0  0  0  0  0  0  0  0  0
   12.8849   19.0037   16.8475 H   0  0  0  0  0  0  0  0  0  0  0  0
   11.4491   20.2088   15.8420 C   0  0  0  0  0  0  0  0  0  0  0  0
   10.2927   19.8409   16.7626 C   0  0  0  0  0  0  0  0  0  0  0  0
    9.3240   20.6003   16.8795 O   0  0  0  0  0  0  0  0  0  0  0  0
   10.2851   18.6259   17.5292 N   0  0  0  0  0  0  0  0  0  0  0  0
   11.0393   17.9967   17.4620 H   0  0  0  0  0  0  0  0  0  0  0  0
    9.5257   18.4225   18.1218 H   0  0  0  0  0  0  0  0  0  0  0  0
   11.3723   19.4306   14.5464 C   0  0  0  0  0  0  0  0  0  0  0  0
   12.5000   18.5323   14.1336 C   0  0  0  0  0  0  0  0  0  0  0  0
   13.3244   19.1357   13.0033 C   0  0  0  0  0  0  0  0  0  0  0  0
   14.2258   20.2415   13.3614 N   0  0  0  0  0  0  0  0  0  0  0  0
   14.9975   20.0362   13.9373 H   0  0  0  0  0  0  0  0  0  0  0  0
   14.0691   21.5017   12.9595 C   0  0  0  0  0  0  0  0  0  0  0  0
   14.6876   21.9546   11.8623 N   0  0  0  0  0  0  0  0  0  0  0  0
   13.3099   22.4016   13.5826 N   0  0  0  0  0  0  0  0  0  0  0  0
   15.2686   21.3542   11.3415 H   0  0  0  0  0  0  0  0  0  0  0  0
   14.5615   22.8881   11.5760 H   0  0  0  0  0  0  0  0  0  0  0  0
   12.8193   22.1513   14.3986 H   0  0  0  0  0  0  0  0  0  0  0  0
   13.2394   23.3170   13.2271 H   0  0  0  0  0  0  0  0  0  0  0  0
   14.5300   19.4990   18.7597 C   0  0  0  0  0  0  0  0  0  0  0  0
   13.5106   19.9953   19.7440 C   0  0  0  0  0  0  0  0  0  0  0  0
   12.6577   18.9182   20.3536 C   0  0  0  0  0  0  0  0  0  0  0  0
   11.4563   19.0020   20.2382 O   0  0  0  0  0  0  0  0  0  0  0  0
   13.1823   17.8580   20.9026 N   0  0  0  0  0  0  0  0  0  0  0  0
   14.1595   17.7857   20.9984 H   0  0  0  0  0  0  0  0  0  0  0  0
   12.6012   17.1300   21.2212 H   0  0  0  0  0  0  0  0  0  0  0  0
   17.4290   23.9176   16.9798 N   0  0  0  0  0  0  0  0  0  0  0  0
   16.4236   23.9629   16.8136 H   0  0  0  0  0  0  0  0  0  0  0  0
   17.8718   25.2692   17.1268 C   0  0  0  0  0  0  0  0  0  0  0  0
   19.1960   25.5110   16.4187 C   0  0  0  0  0  0  0  0  0  0  0  0
   21.1620   26.1494   17.6630 C   0  0  0  0  0  0  0  0  0  0  0  0
   20.9145   27.3522   17.5046 O   0  0  0  0  0  0  0  0  0  0  0  0
   20.3747   25.1970   17.2284 N   0  0  0  0  0  0  0  0  0  0  0  0
   20.5779   24.2592   17.4488 H   0  0  0  0  0  0  0  0  0  0  0  0
   22.4158   25.7126   18.3780 C   0  0  0  0  0  0  0  0  0  0  0  0
   24.4917   26.7025   17.5278 C   0  0  0  0  0  0  0  0  0  0  0  0
   24.6525   25.6816   16.8688 O   0  0  0  0  0  0  0  0  0  0  0  0
   23.4214   26.7707   18.2917 N   0  0  0  0  0  0  0  0  0  0  0  0
   23.2907   27.5806   18.8360 H   0  0  0  0  0  0  0  0  0  0  0  0
   25.4747   27.8951   17.4597 C   0  0  0  0  0  0  0  0  0  0  0  0
   27.7014   27.3624   18.4011 C   0  0  0  0  0  0  0  0  0  0  0  0
   27.2867   27.4555   19.5604 O   0  0  0  0  0  0  0  0  0  0  0  0
   29.1640   27.0766   18.0862 C   0  0  0  0  0  0  0  0  0  0  0  0
   26.8633   27.5272   17.3868 N   0  0  0  0  0  0  0  0  0  0  0  0
   27.2318   27.3818   16.4855 H   0  0  0  0  0  0  0  0  0  0  0  0
   25.0816   28.7535   16.2366 C   0  0  0  0  0  0  0  0  0  0  0  0
   23.7256   28.5290   15.8204 O   0  0  0  0  0  0  0  0  0  0  0  0
   25.9525   28.4060   15.0256 C   0  0  0  0  0  0  0  0  0  0  0  0
   23.6219   27.6061   15.5404 H   0  0  0  0  0  0  0  0  0  0  0  0
   22.1204   25.3546   19.8452 C   0  0  0  0  0  0  0  0  0  0  0  0
   23.0564   24.2872   20.3432 C   0  0  0  0  0  0  0  0  0  0  0  0
   22.1154   26.5713   20.7587 C   0  0  0  0  0  0  0  0  0  0  0  0
   21.5176   26.4375   22.1244 C   0  0  0  0  0  0  0  0  0  0  0  0
   19.2319   24.7018   15.1101 C   0  0  0  0  0  0  0  0  0  0  0  0
   19.7109   25.5056   13.9040 C   0  0  0  0  0  0  0  0  0  0  0  0
   19.7053   26.9862   14.1655 C   0  0  0  0  0  0  0  0  0  0  0  0
   21.0229   27.6944   13.8412 C   0  0  0  0  0  0  0  0  0  0  0  0
   17.1381   23.3713   19.3901 C   0  0  0  0  0  0  0  0  0  0  0  0
   18.0325   23.6047   20.5770 C   0  0  0  0  0  0  0  0  0  0  0  0
   19.2566   22.7108   20.6332 C   0  0  0  0  0  0  0  0  0  0  0  0
   19.0499   21.2854   21.1250 C   0  0  0  0  0  0  0  0  0  0  0  0
 50 51  2  0  0  0
 50 52  1  0  0  0
 53 49  1  0  0  0
 49 45  1  0  0  0
 49 55  1  0  0  0
 45 46  2  0  0  0
 55 56  1  0  0  0
 55 57  1  0  0  0
 47 44  1  0  0  0
 44 40  1  0  0  0
 44 59  1  0  0  0
 40 41  2  0  0  0
 59 61  1  0  0  0
 59 60  1  0  0  0
 61 62  1  0  0  0
 42 39  1  0  0  0
 39 38  1  0  0  0
 39 63  1  0  0  0
 63 64  1  0  0  0
 64 65  1  0  0  0
 65 66  1  0  0  0
 36  1  1  0  0  0
  1  2  1  0  0  0
  1 67  1  0  0  0
  2  3  2  0  0  0
 67 68  1  0  0  0
 68 69  1  0  0  0
 69 70  1  0  0  0
  4  6  1  0  0  0
  6  7  1  0  0  0
  6 29  1  0  0  0
  7  8  2  0  0  0
 29 30  1  0  0  0
 30 31  1  0  0  0
 31 32  2  0  0  0
 31 33  1  0  0  0
  9 11  1  0  0  0
 11 12  1  0  0  0
 11 17  1  0  0  0
 12 13  2  0  0  0
 17 18  1  0  0  0
 18 19  1  0  0  0
 19 20  1  0  0  0
 20 22  1  0  0  0
 22 23  1  0  0  0
 22 24  2  0  0  0
 50 53  1  0  0  0
 45 47  1  0  0  0
 40 42  1  0  0  0
 38 36  1  0  0  0
  2  4  1  0  0  0
  7  9  1  0  0  0
 12 14  1  0  0  0
 53 54  1  0  0  0
 56 58  1  0  0  0
 47 48  1  0  0  0
 42 43  1  0  0  0
 36 37  1  0  0  0
  4  5  1  0  0  0
 33 34  1  0  0  0
 33 35  1  0  0  0
  9 10  1  0  0  0
 20 21  1  0  0  0
 23 25  1  0  0  0
 23 26  1  0  0  0
 24 27  1  0  0  0
 24 28  1  0  0  0
 14 15  1  0  0  0
 14 16  1  0  0  0
M  CHG 1  24   1
M  END
> <minimizedAffinity>
-7.93530

$$$$
2AOD_2NC_B_400


 70 69  0  0  0  0  0  0  0  0999 V2000
   16.4448   22.1890   19.5939 C   0  0  0  0  0  0  0  0  0  0  0  0
   16.9376   22.0842   18.1467 C   0  0  0  0  0  0  0  0  0  0  0  0
   17.4532   21.0833   17.6490 O   0  0  0  0  0  0  0  0  0  0  0  0
   16.8290   23.1834   17.4233 N   0  0  0  0  0  0  0  0  0  0  0  0
   16.4202   23.9928   17.8067 H   0  0  0  0  0  0  0  0  0  0  0  0
   17.3239   23.1863   16.0422 C   0  0  0  0  0  0  0  0  0  0  0  0
   17.8617   24.5967   15.7592 C   0  0  0  0  0  0  0  0  0  0  0  0
   17.1928   25.4763   15.2024 O   0  0  0  0  0  0  0  0  0  0  0  0
   19.1369   24.7746   16.0735 N   0  0  0  0  0  0  0  0  0  0  0  0
   19.6434   24.0247   16.4612 H   0  0  0  0  0  0  0  0  0  0  0  0
   19.8144   26.0579   15.8597 C   0  0  0  0  0  0  0  0  0  0  0  0
   20.7381   25.9091   14.6578 C   0  0  0  0  0  0  0  0  0  0  0  0
   20.9873   26.8843   13.9396 O   0  0  0  0  0  0  0  0  0  0  0  0
   21.3364   24.6510   14.3069 N   0  0  0  0  0  0  0  0  0  0  0  0
   21.1609   23.8525   14.8554 H   0  0  0  0  0  0  0  0  0  0  0  0
   21.9219   24.5874   13.5180 H   0  0  0  0  0  0  0  0  0  0  0  0
   20.5954   26.4676   17.0895 C   0  0  0  0  0  0  0  0  0  0  0  0
   22.0880   26.6000   17.0305 C   0  0  0  0  0  0  0  0  0  0  0  0
   22.7383   26.3224   18.3801 C   0  0  0  0  0  0  0  0  0  0  0  0
   22.5869   27.3600   19.4116 N   0  0  0  0  0  0  0  0  0  0  0  0
   21.9863   28.1156   19.2175 H   0  0  0  0  0  0  0  0  0  0  0  0
   23.2072   27.3470   20.5903 C   0  0  0  0  0  0  0  0  0  0  0  0
   23.4165   26.1976   21.2434 N   0  0  0  0  0  0  0  0  0  0  0  0
   23.6651   28.4324   21.2119 N   0  0  0  0  0  0  0  0  0  0  0  0
   23.1094   25.3472   20.8540 H   0  0  0  0  0  0  0  0  0  0  0  0
   23.8776   26.2027   22.1133 H   0  0  0  0  0  0  0  0  0  0  0  0
   23.5525   29.3197   20.8004 H   0  0  0  0  0  0  0  0  0  0  0  0
   24.1161   28.3475   22.0829 H   0  0  0  0  0  0  0  0  0  0  0  0
   16.2860   22.7029   15.0318 C   0  0  0  0  0  0  0  0  0  0  0  0
   14.8413   22.9532   15.3552 C   0  0  0  0  0  0  0  0  0  0  0  0
   13.8891   21.9475   14.7712 C   0  0  0  0  0  0  0  0  0  0  0  0
   14.0592   20.7777   15.0288 O   0  0  0  0  0  0  0  0  0  0  0  0
   12.8385   22.3138   14.0911 N   0  0  0  0  0  0  0  0  0  0  0  0
   12.6963   23.2647   13.8793 H   0  0  0  0  0  0  0  0  0  0  0  0
   12.1877   21.6396   13.7894 H   0  0  0  0  0  0  0  0  0  0  0  0
   15.1156   21.6074   19.7285 N   0  0  0  0  0  0  0  0  0  0  0  0
   14.6324   22.1596   20.4370 H   0  0  0  0  0  0  0  0  0  0  0  0
   14.2184   21.5052   18.6198 C   0  0  0  0  0  0  0  0  0  0  0  0
   13.1816   20.4124   18.8296 C   0  0  0  0  0  0  0  0  0  0  0  0
   11.4590   19.3946   17.4814 C   0  0  0  0  0  0  0  0  0  0  0  0
   10.6073   19.5917   18.3584 O   0  0  0  0  0  0  0  0  0  0  0  0
   12.7008   19.7967   17.5913 N   0  0  0  0  0  0  0  0  0  0  0  0
   13.3178   19.6837   16.8326 H   0  0  0  0  0  0  0  0  0  0  0  0
   11.0990   18.6595   16.2148 C   0  0  0  0  0  0  0  0  0  0  0  0
    9.9829   16.5009   16.5419 C   0  0  0  0  0  0  0  0  0  0  0  0
   11.0762   15.9670   16.3927 O   0  0  0  0  0  0  0  0  0  0  0  0
    9.9307   17.8137   16.4559 N   0  0  0  0  0  0  0  0  0  0  0  0
    9.0548   18.2510   16.5599 H   0  0  0  0  0  0  0  0  0  0  0  0
    8.7019   15.6913   16.8532 C   0  0  0  0  0  0  0  0  0  0  0  0
    7.5543   14.1683   15.2748 C   0  0  0  0  0  0  0  0  0  0  0  0
    6.6590   14.9904   15.0576 O   0  0  0  0  0  0  0  0  0  0  0  0
    7.5474   12.7807   14.6468 C   0  0  0  0  0  0  0  0  0  0  0  0
    8.5532   14.4823   16.0883 N   0  0  0  0  0  0  0  0  0  0  0  0
    9.2715   13.8150   16.1786 H   0  0  0  0  0  0  0  0  0  0  0  0
    8.7081   15.3728   18.3652 C   0  0  0  0  0  0  0  0  0  0  0  0
    9.4830   16.3155   19.1223 O   0  0  0  0  0  0  0  0  0  0  0  0
    9.3416   14.0039   18.6303 C   0  0  0  0  0  0  0  0  0  0  0  0
   10.4098   16.2736   18.8392 H   0  0  0  0  0  0  0  0  0  0  0  0
   10.8364   19.6420   15.0599 C   0  0  0  0  0  0  0  0  0  0  0  0
   11.0275   18.9750   13.7250 C   0  0  0  0  0  0  0  0  0  0  0  0
    9.4786   20.3211   15.1618 C   0  0  0  0  0  0  0  0  0  0  0  0
    9.0604   21.2511   14.0661 C   0  0  0  0  0  0  0  0  0  0  0  0
   13.7592   19.3305   19.7594 C   0  0  0  0  0  0  0  0  0  0  0  0
   12.8470   18.9769   20.9311 C   0  0  0  0  0  0  0  0  0  0  0  0
   12.5142   17.5113   20.9739 C   0  0  0  0  0  0  0  0  0  0  0  0
   12.6605   16.7864   19.6337 C   0  0  0  0  0  0  0  0  0  0  0  0
   17.4835   21.5476   20.4913 C   0  0  0  0  0  0  0  0  0  0  0  0
   18.8514   22.1181   20.7496 C   0  0  0  0  0  0  0  0  0  0  0  0
   18.8878   23.6251   20.9174 C   0  0  0  0  0  0  0  0  0  0  0  0
   19.8608   24.3956   20.0366 C   0  0  0  0  0  0  0  0  0  0  0  0
 50 51  2  0  0  0
 50 52  1  0  0  0
 53 49  1  0  0  0
 49 45  1  0  0  0
 49 55  1  0  0  0
 45 46  2  0  0  0
 55 56  1  0  0  0
 55 57  1  0  0  0
 47 44  1  0  0  0
 44 40  1  0  0  0
 44 59  1  0  0  0
 40 41  2  0  0  0
 59 61  1  0  0  0
 59 60  1  0  0  0
 61 62  1  0  0  0
 42 39  1  0  0  0
 39 38  1  0  0  0
 39 63  1  0  0  0
 63 64  1  0  0  0
 64 65  1  0  0  0
 65 66  1  0  0  0
 36  1  1  0  0  0
  1  2  1  0  0  0
  1 67  1  0  0  0
  2  3  2  0  0  0
 67 68  1  0  0  0
 68 69  1  0  0  0
 69 70  1  0  0  0
  4  6  1  0  0  0
  6  7  1  0  0  0
  6 29  1  0  0  0
  7  8  2  0  0  0
 29 30  1  0  0  0
 30 31  1  0  0  0
 31 32  2  0  0  0
 31 33  1  0  0  0
  9 11  1  0  0  0
 11 12  1  0  0  0
 11 17  1  0  0  0
 12 13  2  0  0  0
 17 18  1  0  0  0
 18 19  1  0  0  0
 19 20  1  0  0  0
 20 22  1  0  0  0
 22 23  1  0  0  0
 22 24  2  0  0  0
 50 53  1  0  0  0
 45 47  1  0  0  0
 40 42  1  0  0  0
 38 36  1  0  0  0
  2  4  1  0  0  0
  7  9  1  0  0  0
 12 14  1  0  0  0
 53 54  1  0  0  0
 56 58  1  0  0  0
 47 48  1  0  0  0
 42 43  1  0  0  0
 36 37  1  0  0  0
  4  5  1  0  0  0
 33 34  1  0  0  0
 33 35  1  0  0  0
  9 10  1  0  0  0
 20 21  1  0  0  0
 23 25  1  0  0  0
 23 26  1  0  0  0
 24 27  1  0  0  0
 24 28  1  0  0  0
 14 15  1  0  0  0
 14 16  1  0  0  0
M  CHG 1  24   1
M  END
> <minimizedAffinity>
-7.89925

$$$$
2AOD_2NC_B_400


 70 69  0  0  0  0  0  0  0  0999 V2000
   17.1933   24.1291   16.6888 C   0  0  0  0  0  0  0  0  0  0  0  0
   16.4226   22.8046   16.6991 C   0  0  0  0  0  0  0  0  0  0  0  0
   16.8347   21.7463   16.2241 O   0  0  0  0  0  0  0  0  0  0  0  0
   15.2108   22.8508   17.2213 N   0  0  0  0  0  0  0  0  0  0  0  0
   14.8659   23.6896   17.6043 H   0  0  0  0  0  0  0  0  0  0  0  0
   14.3836   21.6391   17.2250 C   0  0  0  0  0  0  0  0  0  0  0  0
   13.2684   21.8518   16.1908 C   0  0  0  0  0  0  0  0  0  0  0  0
   13.2071   22.8465   15.4574 O   0  0  0  0  0  0  0  0  0  0  0  0
   12.3172   20.9290   16.2070 N   0  0  0  0  0  0  0  0  0  0  0  0
   12.3815   20.1866   16.8503 H   0  0  0  0  0  0  0  0  0  0  0  0
   11.1713   20.9832   15.2930 C   0  0  0  0  0  0  0  0  0  0  0  0
    9.9295   20.5621   16.0679 C   0  0  0  0  0  0  0  0  0  0  0  0
    9.6357   19.3654   16.1704 O   0  0  0  0  0  0  0  0  0  0  0  0
    9.0568   21.5196   16.6888 N   0  0  0  0  0  0  0  0  0  0  0  0
    9.2585   22.4813   16.6283 H   0  0  0  0  0  0  0  0  0  0  0  0
    8.2571   21.2140   17.1749 H   0  0  0  0  0  0  0  0  0  0  0  0
   11.3903   20.0806   14.0983 C   0  0  0  0  0  0  0  0  0  0  0  0
   12.6049   19.2044   14.0226 C   0  0  0  0  0  0  0  0  0  0  0  0
   12.2472   17.7630   13.6820 C   0  0  0  0  0  0  0  0  0  0  0  0
   10.9969   17.2405   14.2539 N   0  0  0  0  0  0  0  0  0  0  0  0
   10.1488   17.5418   13.8550 H   0  0  0  0  0  0  0  0  0  0  0  0
   10.9341   16.3872   15.2748 C   0  0  0  0  0  0  0  0  0  0  0  0
   10.7098   15.0840   15.0679 N   0  0  0  0  0  0  0  0  0  0  0  0
   11.0840   16.7306   16.5531 N   0  0  0  0  0  0  0  0  0  0  0  0
   10.5875   14.7450   14.1517 H   0  0  0  0  0  0  0  0  0  0  0  0
   10.6673   14.4644   15.8318 H   0  0  0  0  0  0  0  0  0  0  0  0
   11.2525   17.6702   16.7939 H   0  0  0  0  0  0  0  0  0  0  0  0
   11.0264   16.0448   17.2571 H   0  0  0  0  0  0  0  0  0  0  0  0
   13.8776   21.2622   18.6156 C   0  0  0  0  0  0  0  0  0  0  0  0
   14.1517   19.8653   19.0929 C   0  0  0  0  0  0  0  0  0  0  0  0
   12.9342   18.9888   19.1859 C   0  0  0  0  0  0  0  0  0  0  0  0
   11.8574   19.4702   18.9165 O   0  0  0  0  0  0  0  0  0  0  0  0
   13.0265   17.7138   19.4434 N   0  0  0  0  0  0  0  0  0  0  0  0
   13.9008   17.3180   19.6631 H   0  0  0  0  0  0  0  0  0  0  0  0
   12.2219   17.1470   19.4182 H   0  0  0  0  0  0  0  0  0  0  0  0
   18.1290   24.1889   17.8043 N   0  0  0  0  0  0  0  0  0  0  0  0
   17.8250   23.4789   18.4705 H   0  0  0  0  0  0  0  0  0  0  0  0
   19.5341   23.9941   17.6246 C   0  0  0  0  0  0  0  0  0  0  0  0
   20.2276   23.6384   18.9307 C   0  0  0  0  0  0  0  0  0  0  0  0
   22.4537   24.0664   19.7570 C   0  0  0  0  0  0  0  0  0  0  0  0
   22.6978   22.8546   19.8285 O   0  0  0  0  0  0  0  0  0  0  0  0
   21.3241   24.5390   19.2917 N   0  0  0  0  0  0  0  0  0  0  0  0
   21.2111   25.5110   19.1834 H   0  0  0  0  0  0  0  0  0  0  0  0
   23.4691   25.0814   20.2180 C   0  0  0  0  0  0  0  0  0  0  0  0
   24.2795   26.1928   18.1881 C   0  0  0  0  0  0  0  0  0  0  0  0
   24.9915   25.2141   17.9940 O   0  0  0  0  0  0  0  0  0  0  0  0
   23.5209   26.1888   19.2644 N   0  0  0  0  0  0  0  0  0  0  0  0
   22.9562   26.9765   19.4369 H   0  0  0  0  0  0  0  0  0  0  0  0
   24.2285   27.3873   17.2064 C   0  0  0  0  0  0  0  0  0  0  0  0
   26.4193   27.8829   16.1657 C   0  0  0  0  0  0  0  0  0  0  0  0
   26.8334   28.4376   17.1881 O   0  0  0  0  0  0  0  0  0  0  0  0
   27.2528   27.8064   14.8932 C   0  0  0  0  0  0  0  0  0  0  0  0
   25.2079   27.3436   16.1539 N   0  0  0  0  0  0  0  0  0  0  0  0
   24.9509   26.8606   15.3354 H   0  0  0  0  0  0  0  0  0  0  0  0
   22.8034   27.4411   16.6119 C   0  0  0  0  0  0  0  0  0  0  0  0
   22.0479   26.2511   16.8865 O   0  0  0  0  0  0  0  0  0  0  0  0
   22.8545   27.5597   15.0859 C   0  0  0  0  0  0  0  0  0  0  0  0
   22.4804   25.4899   16.4687 H   0  0  0  0  0  0  0  0  0  0  0  0
   23.1406   25.5903   21.6326 C   0  0  0  0  0  0  0  0  0  0  0  0
   24.3025   25.3872   22.5667 C   0  0  0  0  0  0  0  0  0  0  0  0
   22.6551   27.0322   21.6417 C   0  0  0  0  0  0  0  0  0  0  0  0
   21.1807   27.2901   21.6372 C   0  0  0  0  0  0  0  0  0  0  0  0
   19.1902   23.5987   20.0668 C   0  0  0  0  0  0  0  0  0  0  0  0
   19.4140   22.4643   21.0634 C   0  0  0  0  0  0  0  0  0  0  0  0
   18.2445   21.5215   21.1277 C   0  0  0  0  0  0  0  0  0  0  0  0
   17.4159   21.4471   19.8429 C   0  0  0  0  0  0  0  0  0  0  0  0
   17.8525   24.2783   15.3328 C   0  0  0  0  0  0  0  0  0  0  0  0
   18.0776   25.5935   14.6380 C   0  0  0  0  0  0  0  0  0  0  0  0
   19.2842   25.6263   13.7195 C   0  0  0  0  0  0  0  0  0  0  0  0
   20.5297   24.8874   14.1876 C   0  0  0  0  0  0  0  0  0  0  0  0
 50 51  2  0  0  0
 50 52  1  0  0  0
 53 49  1  0  0  0
 49 45  1  0  0  0
 49 55  1  0  0  0
 45 46  2  0  0  0
 55 56  1  0  0  0
 55 57  1  0  0  0
 47 44  1  0  0  0
 44 40  1  0  0  0
 44 59  1  0  0  0
 40 41  2  0  0  0
 59 61  1  0  0  0
 59 60  1  0  0  0
 61 62  1  0  0  0
 42 39  1  0  0  0
 39 38  1  0  0  0
 39 63  1  0  0  0
 63 64  1  0  0  0
 64 65  1  0  0  0
 65 66  1  0  0  0
 36  1  1  0  0  0
  1  2  1  0  0  0
  1 67  1  0  0  0
  2  3  2  0  0  0
 67 68  1  0  0  0
 68 69  1  0  0  0
 69 70  1  0  0  0
  4  6  1  0  0  0
  6  7  1  0  0  0
  6 29  1  0  0  0
  7  8  2  0  0  0
 29 30  1  0  0  0
 30 31  1  0  0  0
 31 32  2  0  0  0
 31 33  1  0  0  0
  9 11  1  0  0  0
 11 12  1  0  0  0
 11 17  1  0  0  0
 12 13  2  0  0  0
 17 18  1  0  0  0
 18 19  1  0  0  0
 19 20  1  0  0  0
 20 22  1  0  0  0
 22 23  1  0  0  0
 22 24  2  0  0  0
 50 53  1  0  0  0
 45 47  1  0  0  0
 40 42  1  0  0  0
 38 36  1  0  0  0
  2  4  1  0  0  0
  7  9  1  0  0  0
 12 14  1  0  0  0
 53 54  1  0  0  0
 56 58  1  0  0  0
 47 48  1  0  0  0
 42 43  1  0  0  0
 36 37  1  0  0  0
  4  5  1  0  0  0
 33 34  1  0  0  0
 33 35  1  0  0  0
  9 10  1  0  0  0
 20 21  1  0  0  0
 23 25  1  0  0  0
 23 26  1  0  0  0
 24 27  1  0  0  0
 24 28  1  0  0  0
 14 15  1  0  0  0
 14 16  1  0  0  0
M  CHG 1  24   1
M  END
> <minimizedAffinity>
-7.84178

$$$$
