5WBO_A1Y_A_301


 16 17  0  0  0  0  0  0  0  0999 V2000
   -5.5478   -1.3972   20.3144 C   0  0  0  0  0  0  0  0  0  0  0  0
   -3.4715   -2.7449   18.9943 C   0  0  0  0  0  0  0  0  0  0  0  0
   -4.3221   -4.9933   19.8882 C   0  0  0  0  0  0  0  0  0  0  0  0
   -4.4142   -3.4863   19.8033 C   0  0  0  0  0  0  0  0  0  0  0  0
   -5.4506   -2.8002   20.4718 C   0  0  0  0  0  0  0  0  0  0  0  0
   -4.7117   -0.6769   19.5351 N   0  0  0  0  0  0  0  0  0  0  0  0
   -3.6509   -1.2790   18.8145 C   0  0  0  0  0  0  0  0  0  0  0  0
   -6.6230   -0.6221   21.0020 C   0  0  0  0  0  0  0  0  0  0  0  0
   -2.9715   -0.5227   17.9647 N   0  0  0  0  0  0  0  0  0  0  0  0
   -2.3118   -0.0007   15.6669 C   0  0  0  0  0  0  0  0  0  0  0  0
   -3.1265   -0.9042   16.5416 C   0  0  0  0  0  0  0  0  0  0  0  0
   -2.7059    1.3444   15.8369 O   0  0  0  0  0  0  0  0  0  0  0  0
   -2.4178    1.7517   17.1718 C   0  0  0  0  0  0  0  0  0  0  0  0
   -3.1682    0.9370   18.1994 C   0  0  0  0  0  0  0  0  0  0  0  0
   -1.4179   -4.0227   18.1061 N   0  0  0  0  0  0  0  0  0  0  0  0
   -2.3507   -3.4934   18.5126 C   0  0  0  0  0  0  0  0  0  0  0  0
 12 10  1  0  0  0
 12 13  1  0  0  0
 10 11  1  0  0  0
 13 14  1  0  0  0
 11  9  1  0  0  0
 14  9  1  0  0  0
  9  7  1  0  0  0
  7  6  2  0  0  0
  7  2  1  0  0  0
  6  1  1  0  0  0
 15 16  3  0  0  0
 16  2  1  0  0  0
  2  4  2  0  0  0
  1  8  1  0  0  0
  1  5  2  0  0  0
  4  5  1  0  0  0
  4  3  1  0  0  0
M  END
> <minimizedAffinity>
-6.45112

$$$$
5WBO_A1Y_A_301


 16 17  0  0  0  0  0  0  0  0999 V2000
   -4.7803    0.8829   19.4608 C   0  0  0  0  0  0  0  0  0  0  0  0
   -3.4200    0.0624   17.1486 C   0  0  0  0  0  0  0  0  0  0  0  0
   -3.3418    2.4814   16.2999 C   0  0  0  0  0  0  0  0  0  0  0  0
   -3.7667    1.4556   17.3266 C   0  0  0  0  0  0  0  0  0  0  0  0
   -4.4591    1.8592   18.4882 C   0  0  0  0  0  0  0  0  0  0  0  0
   -4.4372   -0.4190   19.3488 N   0  0  0  0  0  0  0  0  0  0  0  0
   -3.7292   -0.9153   18.2265 C   0  0  0  0  0  0  0  0  0  0  0  0
   -5.5151    1.2553   20.7063 C   0  0  0  0  0  0  0  0  0  0  0  0
   -3.3086   -2.1713   18.2652 N   0  0  0  0  0  0  0  0  0  0  0  0
   -1.4638   -3.7774   18.3311 C   0  0  0  0  0  0  0  0  0  0  0  0
   -1.8358   -2.3262   18.3026 C   0  0  0  0  0  0  0  0  0  0  0  0
   -2.0306   -4.4144   19.4565 O   0  0  0  0  0  0  0  0  0  0  0  0
   -3.4508   -4.3913   19.3419 C   0  0  0  0  0  0  0  0  0  0  0  0
   -4.0048   -2.9863   19.3023 C   0  0  0  0  0  0  0  0  0  0  0  0
   -2.5454   -0.5739   14.8100 N   0  0  0  0  0  0  0  0  0  0  0  0
   -2.8923   -0.2820   15.8636 C   0  0  0  0  0  0  0  0  0  0  0  0
 12 10  1  0  0  0
 12 13  1  0  0  0
 10 11  1  0  0  0
 13 14  1  0  0  0
 11  9  1  0  0  0
 14  9  1  0  0  0
  9  7  1  0  0  0
  7  6  2  0  0  0
  7  2  1  0  0  0
  6  1  1  0  0  0
 15 16  3  0  0  0
 16  2  1  0  0  0
  2  4  2  0  0  0
  1  8  1  0  0  0
  1  5  2  0  0  0
  4  5  1  0  0  0
  4  3  1  0  0  0
M  END
> <minimizedAffinity>
-6.33429

$$$$
5WBO_A1Y_A_301


 16 17  0  0  0  0  0  0  0  0999 V2000
   -5.6042   -2.0207   20.5848 C   0  0  0  0  0  0  0  0  0  0  0  0
   -4.5065    0.2304   19.3208 C   0  0  0  0  0  0  0  0  0  0  0  0
   -5.9101    1.7840   20.8020 C   0  0  0  0  0  0  0  0  0  0  0  0
   -5.5039    0.3975   20.3553 C   0  0  0  0  0  0  0  0  0  0  0  0
   -6.0582   -0.7400   20.9801 C   0  0  0  0  0  0  0  0  0  0  0  0
   -4.6458   -2.2146   19.6527 N   0  0  0  0  0  0  0  0  0  0  0  0
   -4.0211   -1.1345   18.9816 C   0  0  0  0  0  0  0  0  0  0  0  0
   -6.1598   -3.2572   21.2111 C   0  0  0  0  0  0  0  0  0  0  0  0
   -2.9940   -1.4075   18.1903 N   0  0  0  0  0  0  0  0  0  0  0  0
   -1.2764   -2.9746   17.4278 C   0  0  0  0  0  0  0  0  0  0  0  0
   -2.4369   -2.7705   18.3533 C   0  0  0  0  0  0  0  0  0  0  0  0
   -1.6716   -2.7875   16.0853 O   0  0  0  0  0  0  0  0  0  0  0  0
   -2.0690   -1.4318   15.8986 C   0  0  0  0  0  0  0  0  0  0  0  0
   -3.2467   -1.0502   16.7645 C   0  0  0  0  0  0  0  0  0  0  0  0
   -3.9316    2.3888   18.0364 N   0  0  0  0  0  0  0  0  0  0  0  0
   -4.1436    1.4222   18.6164 C   0  0  0  0  0  0  0  0  0  0  0  0
 12 10  1  0  0  0
 12 13  1  0  0  0
 10 11  1  0  0  0
 13 14  1  0  0  0
 11  9  1  0  0  0
 14  9  1  0  0  0
  9  7  1  0  0  0
  7  6  2  0  0  0
  7  2  1  0  0  0
  6  1  1  0  0  0
 15 16  3  0  0  0
 16  2  1  0  0  0
  2  4  2  0  0  0
  1  8  1  0  0  0
  1  5  2  0  0  0
  4  5  1  0  0  0
  4  3  1  0  0  0
M  END
> <minimizedAffinity>
-6.31815

$$$$
5WBO_A1Y_A_301


 16 17  0  0  0  0  0  0  0  0999 V2000
   -2.5705   -1.9146   17.3495 C   0  0  0  0  0  0  0  0  0  0  0  0
   -4.1700   -0.5505   19.2073 C   0  0  0  0  0  0  0  0  0  0  0  0
   -4.3193    1.4728   17.6384 C   0  0  0  0  0  0  0  0  0  0  0  0
   -3.7969    0.0920   17.9660 C   0  0  0  0  0  0  0  0  0  0  0  0
   -2.9844   -0.5971   17.0404 C   0  0  0  0  0  0  0  0  0  0  0  0
   -2.9325   -2.5618   18.4788 N   0  0  0  0  0  0  0  0  0  0  0  0
   -3.7571   -1.9574   19.4596 C   0  0  0  0  0  0  0  0  0  0  0  0
   -1.7075   -2.6872   16.4072 C   0  0  0  0  0  0  0  0  0  0  0  0
   -4.1800   -2.7115   20.4636 N   0  0  0  0  0  0  0  0  0  0  0  0
   -5.9197   -4.1124   21.4628 C   0  0  0  0  0  0  0  0  0  0  0  0
   -5.5298   -3.2912   20.2717 C   0  0  0  0  0  0  0  0  0  0  0  0
   -4.9892   -5.1526   21.6763 O   0  0  0  0  0  0  0  0  0  0  0  0
   -3.7229   -4.5880   22.0058 C   0  0  0  0  0  0  0  0  0  0  0  0
   -3.1713   -3.7203   20.8988 C   0  0  0  0  0  0  0  0  0  0  0  0
   -5.4060    0.8952   20.9454 N   0  0  0  0  0  0  0  0  0  0  0  0
   -4.8310    0.2877   20.1606 C   0  0  0  0  0  0  0  0  0  0  0  0
 12 10  1  0  0  0
 12 13  1  0  0  0
 10 11  1  0  0  0
 13 14  1  0  0  0
 11  9  1  0  0  0
 14  9  1  0  0  0
  9  7  1  0  0  0
  7  6  2  0  0  0
  7  2  1  0  0  0
  6  1  1  0  0  0
 15 16  3  0  0  0
 16  2  1  0  0  0
  2  4  2  0  0  0
  1  8  1  0  0  0
  1  5  2  0  0  0
  4  5  1  0  0  0
  4  3  1  0  0  0
M  END
> <minimizedAffinity>
-6.23523

$$$$
5WBO_A1Y_A_301


 16 17  0  0  0  0  0  0  0  0999 V2000
   -4.6498    0.8580   18.8761 C   0  0  0  0  0  0  0  0  0  0  0  0
   -3.1044   -1.0009   17.4526 C   0  0  0  0  0  0  0  0  0  0  0  0
   -2.3545    0.8285   15.8188 C   0  0  0  0  0  0  0  0  0  0  0  0
   -3.1687    0.3749   17.0098 C   0  0  0  0  0  0  0  0  0  0  0  0
   -3.9556    1.3021   17.7257 C   0  0  0  0  0  0  0  0  0  0  0  0
   -4.5812   -0.4078   19.3433 N   0  0  0  0  0  0  0  0  0  0  0  0
   -3.8064   -1.4047   18.7006 C   0  0  0  0  0  0  0  0  0  0  0  0
   -5.4992    1.7967   19.6681 C   0  0  0  0  0  0  0  0  0  0  0  0
   -3.6807   -2.5771   19.3050 N   0  0  0  0  0  0  0  0  0  0  0  0
   -2.3137   -4.1606   20.5743 C   0  0  0  0  0  0  0  0  0  0  0  0
   -2.3584   -2.8076   19.9320 C   0  0  0  0  0  0  0  0  0  0  0  0
   -3.3238   -4.2802   21.5536 O   0  0  0  0  0  0  0  0  0  0  0  0
   -4.5992   -4.2044   20.9226 C   0  0  0  0  0  0  0  0  0  0  0  0
   -4.8184   -2.8856   20.2188 C   0  0  0  0  0  0  0  0  0  0  0  0
   -1.9444   -2.6891   15.8895 N   0  0  0  0  0  0  0  0  0  0  0  0
   -2.4406   -1.9042   16.5628 C   0  0  0  0  0  0  0  0  0  0  0  0
 12 10  1  0  0  0
 12 13  1  0  0  0
 10 11  1  0  0  0
 13 14  1  0  0  0
 11  9  1  0  0  0
 14  9  1  0  0  0
  9  7  1  0  0  0
  7  6  2  0  0  0
  7  2  1  0  0  0
  6  1  1  0  0  0
 15 16  3  0  0  0
 16  2  1  0  0  0
  2  4  2  0  0  0
  1  8  1  0  0  0
  1  5  2  0  0  0
  4  5  1  0  0  0
  4  3  1  0  0  0
M  END
> <minimizedAffinity>
-6.21892

$$$$
5WBO_A1Y_A_301


 16 17  0  0  0  0  0  0  0  0999 V2000
   -5.2165    0.6175   20.0381 C   0  0  0  0  0  0  0  0  0  0  0  0
   -4.6439   -2.1083   19.7033 C   0  0  0  0  0  0  0  0  0  0  0  0
   -6.2063   -2.7062   21.6473 C   0  0  0  0  0  0  0  0  0  0  0  0
   -5.5336   -1.6818   20.7613 C   0  0  0  0  0  0  0  0  0  0  0  0
   -5.8096   -0.3080   20.9292 C   0  0  0  0  0  0  0  0  0  0  0  0
   -4.4140    0.2538   19.0140 N   0  0  0  0  0  0  0  0  0  0  0  0
   -4.0912   -1.1017   18.7574 C   0  0  0  0  0  0  0  0  0  0  0  0
   -5.4722    2.0825   20.1733 C   0  0  0  0  0  0  0  0  0  0  0  0
   -3.4176   -1.3793   17.6507 N   0  0  0  0  0  0  0  0  0  0  0  0
   -2.7578   -0.7721   15.3740 C   0  0  0  0  0  0  0  0  0  0  0  0
   -3.5419   -0.3602   16.5827 C   0  0  0  0  0  0  0  0  0  0  0  0
   -1.3950   -0.9452   15.7001 O   0  0  0  0  0  0  0  0  0  0  0  0
   -1.2670   -2.0267   16.6191 C   0  0  0  0  0  0  0  0  0  0  0  0
   -2.0040   -1.7753   17.9139 C   0  0  0  0  0  0  0  0  0  0  0  0
   -3.9026   -4.5753   19.7595 N   0  0  0  0  0  0  0  0  0  0  0  0
   -4.2750   -3.4910   19.7283 C   0  0  0  0  0  0  0  0  0  0  0  0
 12 10  1  0  0  0
 12 13  1  0  0  0
 10 11  1  0  0  0
 13 14  1  0  0  0
 11  9  1  0  0  0
 14  9  1  0  0  0
  9  7  1  0  0  0
  7  6  2  0  0  0
  7  2  1  0  0  0
  6  1  1  0  0  0
 15 16  3  0  0  0
 16  2  1  0  0  0
  2  4  2  0  0  0
  1  8  1  0  0  0
  1  5  2  0  0  0
  4  5  1  0  0  0
  4  3  1  0  0  0
M  END
> <minimizedAffinity>
-6.11229

$$$$
5WBO_A1Y_A_301


 16 17  0  0  0  0  0  0  0  0999 V2000
   -2.2101   -1.1424   16.7696 C   0  0  0  0  0  0  0  0  0  0  0  0
   -3.6141   -2.1975   18.9573 C   0  0  0  0  0  0  0  0  0  0  0  0
   -2.0740   -4.2480   18.9952 C   0  0  0  0  0  0  0  0  0  0  0  0
   -2.5123   -2.9372   18.3814 C   0  0  0  0  0  0  0  0  0  0  0  0
   -1.8167   -2.4043   17.2752 C   0  0  0  0  0  0  0  0  0  0  0  0
   -3.2063   -0.4043   17.3063 N   0  0  0  0  0  0  0  0  0  0  0  0
   -3.9517   -0.8495   18.4259 C   0  0  0  0  0  0  0  0  0  0  0  0
   -1.5104   -0.5344   15.5990 C   0  0  0  0  0  0  0  0  0  0  0  0
   -4.8105   -0.0028   18.9747 N   0  0  0  0  0  0  0  0  0  0  0  0
   -5.5891    1.2390   20.9341 C   0  0  0  0  0  0  0  0  0  0  0  0
   -4.5604    0.2860   20.4061 C   0  0  0  0  0  0  0  0  0  0  0  0
   -5.5710    2.4464   20.2024 O   0  0  0  0  0  0  0  0  0  0  0  0
   -5.9562    2.1839   18.8558 C   0  0  0  0  0  0  0  0  0  0  0  0
   -5.0131    1.2301   18.1603 C   0  0  0  0  0  0  0  0  0  0  0  0
   -5.0278   -3.3893   20.7517 N   0  0  0  0  0  0  0  0  0  0  0  0
   -4.3760   -2.8973   19.9463 C   0  0  0  0  0  0  0  0  0  0  0  0
 12 10  1  0  0  0
 12 13  1  0  0  0
 10 11  1  0  0  0
 13 14  1  0  0  0
 11  9  1  0  0  0
 14  9  1  0  0  0
  9  7  1  0  0  0
  7  6  2  0  0  0
  7  2  1  0  0  0
  6  1  1  0  0  0
 15 16  3  0  0  0
 16  2  1  0  0  0
  2  4  2  0  0  0
  1  8  1  0  0  0
  1  5  2  0  0  0
  4  5  1  0  0  0
  4  3  1  0  0  0
M  END
> <minimizedAffinity>
-5.87308

$$$$
5WBO_A1Y_A_301


 16 17  0  0  0  0  0  0  0  0999 V2000
   -3.6863   -3.5331   20.9347 C   0  0  0  0  0  0  0  0  0  0  0  0
   -3.8365   -1.5256   18.9809 C   0  0  0  0  0  0  0  0  0  0  0  0
   -2.1339   -2.7738   17.5245 C   0  0  0  0  0  0  0  0  0  0  0  0
   -2.9417   -2.6473   18.7967 C   0  0  0  0  0  0  0  0  0  0  0  0
   -2.8648   -3.6486   19.7882 C   0  0  0  0  0  0  0  0  0  0  0  0
   -4.5632   -2.5227   21.1222 N   0  0  0  0  0  0  0  0  0  0  0  0
   -4.7210   -1.4798   20.1762 C   0  0  0  0  0  0  0  0  0  0  0  0
   -3.6419   -4.5625   22.0155 C   0  0  0  0  0  0  0  0  0  0  0  0
   -5.7021   -0.6105   20.3704 N   0  0  0  0  0  0  0  0  0  0  0  0
   -7.8848   -0.0739   21.3373 C   0  0  0  0  0  0  0  0  0  0  0  0
   -6.8259   -1.1235   21.1881 C   0  0  0  0  0  0  0  0  0  0  0  0
   -7.3544    1.0853   21.9446 O   0  0  0  0  0  0  0  0  0  0  0  0
   -6.3742    1.6584   21.0835 C   0  0  0  0  0  0  0  0  0  0  0  0
   -5.2154    0.7242   20.8243 C   0  0  0  0  0  0  0  0  0  0  0  0
   -3.5998    0.4259   17.3152 N   0  0  0  0  0  0  0  0  0  0  0  0
   -3.7083   -0.4711   18.0217 C   0  0  0  0  0  0  0  0  0  0  0  0
 12 10  1  0  0  0
 12 13  1  0  0  0
 10 11  1  0  0  0
 13 14  1  0  0  0
 11  9  1  0  0  0
 14  9  1  0  0  0
  9  7  1  0  0  0
  7  6  2  0  0  0
  7  2  1  0  0  0
  6  1  1  0  0  0
 15 16  3  0  0  0
 16  2  1  0  0  0
  2  4  2  0  0  0
  1  8  1  0  0  0
  1  5  2  0  0  0
  4  5  1  0  0  0
  4  3  1  0  0  0
M  END
> <minimizedAffinity>
-5.84293

$$$$
5WBO_A1Y_A_301


 16 17  0  0  0  0  0  0  0  0999 V2000
   -3.9049   -0.4783   19.1352 C   0  0  0  0  0  0  0  0  0  0  0  0
   -5.0026    2.0343   18.5422 C   0  0  0  0  0  0  0  0  0  0  0  0
   -3.5423    2.2099   16.4411 C   0  0  0  0  0  0  0  0  0  0  0  0
   -3.9780    1.4740   17.6883 C   0  0  0  0  0  0  0  0  0  0  0  0
   -3.4241    0.2135   17.9983 C   0  0  0  0  0  0  0  0  0  0  0  0
   -4.8884   -0.0060   19.9320 N   0  0  0  0  0  0  0  0  0  0  0  0
   -5.5146    1.2422   19.6927 C   0  0  0  0  0  0  0  0  0  0  0  0
   -3.3510   -1.8134   19.5104 C   0  0  0  0  0  0  0  0  0  0  0  0
   -6.5644    1.5611   20.4357 N   0  0  0  0  0  0  0  0  0  0  0  0
   -8.3830    0.8764   21.9226 C   0  0  0  0  0  0  0  0  0  0  0  0
   -7.2030    0.4145   21.1229 C   0  0  0  0  0  0  0  0  0  0  0  0
   -7.9901    1.8367   22.8802 O   0  0  0  0  0  0  0  0  0  0  0  0
   -7.5115    2.9990   22.2087 C   0  0  0  0  0  0  0  0  0  0  0  0
   -6.3040    2.7126   21.3470 C   0  0  0  0  0  0  0  0  0  0  0  0
   -5.7350    4.4507   18.0289 N   0  0  0  0  0  0  0  0  0  0  0  0
   -5.3664    3.3895   18.2603 C   0  0  0  0  0  0  0  0  0  0  0  0
 12 10  1  0  0  0
 12 13  1  0  0  0
 10 11  1  0  0  0
 13 14  1  0  0  0
 11  9  1  0  0  0
 14  9  1  0  0  0
  9  7  1  0  0  0
  7  6  2  0  0  0
  7  2  1  0  0  0
  6  1  1  0  0  0
 15 16  3  0  0  0
 16  2  1  0  0  0
  2  4  2  0  0  0
  1  8  1  0  0  0
  1  5  2  0  0  0
  4  5  1  0  0  0
  4  3  1  0  0  0
M  END
> <minimizedAffinity>
-5.82984

$$$$
5WBO_A1Y_A_301


 16 17  0  0  0  0  0  0  0  0999 V2000
   -2.9427   -0.5056   15.9091 C   0  0  0  0  0  0  0  0  0  0  0  0
   -3.9403   -0.4069   18.5292 C   0  0  0  0  0  0  0  0  0  0  0  0
   -2.3291   -2.2696   19.2449 C   0  0  0  0  0  0  0  0  0  0  0  0
   -2.9127   -1.3646   18.1832 C   0  0  0  0  0  0  0  0  0  0  0  0
   -2.4224   -1.4144   16.8608 C   0  0  0  0  0  0  0  0  0  0  0  0
   -3.8722    0.4293   16.2047 N   0  0  0  0  0  0  0  0  0  0  0  0
   -4.4132    0.5651   17.5070 C   0  0  0  0  0  0  0  0  0  0  0  0
   -2.4616   -0.5178   14.4955 C   0  0  0  0  0  0  0  0  0  0  0  0
   -5.2097    1.5975   17.7423 N   0  0  0  0  0  0  0  0  0  0  0  0
   -5.6263    3.7254   18.8764 C   0  0  0  0  0  0  0  0  0  0  0  0
   -4.6476    2.6105   18.6658 C   0  0  0  0  0  0  0  0  0  0  0  0
   -5.9516    4.3407   17.6479 O   0  0  0  0  0  0  0  0  0  0  0  0
   -6.6253    3.3995   16.8166 C   0  0  0  0  0  0  0  0  0  0  0  0
   -5.7709    2.1954   16.4965 C   0  0  0  0  0  0  0  0  0  0  0  0
   -5.0063   -0.6098   20.8662 N   0  0  0  0  0  0  0  0  0  0  0  0
   -4.5075   -0.5564   19.8347 C   0  0  0  0  0  0  0  0  0  0  0  0
 12 10  1  0  0  0
 12 13  1  0  0  0
 10 11  1  0  0  0
 13 14  1  0  0  0
 11  9  1  0  0  0
 14  9  1  0  0  0
  9  7  1  0  0  0
  7  6  2  0  0  0
  7  2  1  0  0  0
  6  1  1  0  0  0
 15 16  3  0  0  0
 16  2  1  0  0  0
  2  4  2  0  0  0
  1  8  1  0  0  0
  1  5  2  0  0  0
  4  5  1  0  0  0
  4  3  1  0  0  0
M  END
> <minimizedAffinity>
-5.82396

$$$$
