4ZB8_GDS_A_300


 52 51  0  0  0  0  0  0  0  0999 V2000
   -6.6698    6.3619  -10.7074 S   0  0  0  0  0  0  0  0  0  0  0  0
   -6.7711    8.0535  -10.2315 C   0  0  0  0  0  0  0  0  0  0  0  0
   -6.5470    8.1976   -8.7270 C   0  0  0  0  0  0  0  0  0  0  0  0
   -6.0612    9.5880   -8.4189 C   0  0  0  0  0  0  0  0  0  0  0  0
   -6.7183   10.5656   -8.7202 O   0  0  0  0  0  0  0  0  0  0  0  0
   -4.8874    9.6856   -7.8095 N   0  0  0  0  0  0  0  0  0  0  0  0
   -4.3540    8.8726   -7.6550 H   0  0  0  0  0  0  0  0  0  0  0  0
   -4.3757   10.9666   -7.3668 C   0  0  0  0  0  0  0  0  0  0  0  0
   -3.6196   10.8702   -6.0632 C   0  0  0  0  0  0  0  0  0  0  0  0
   -3.8142   11.7438   -5.1966 O   0  0  0  0  0  0  0  0  0  0  0  0
   -2.8263    9.9229   -5.9098 O   0  0  0  0  0  0  0  0  0  0  0  0
   -2.7145    9.2903   -6.5919 H   0  0  0  0  0  0  0  0  0  0  0  0
   -7.7781    7.0002   -6.9918 C   0  0  0  0  0  0  0  0  0  0  0  0
   -6.8464    6.2660   -6.7309 O   0  0  0  0  0  0  0  0  0  0  0  0
   -7.7601    7.8602   -8.0059 N   0  0  0  0  0  0  0  0  0  0  0  0
   -8.6049    8.2857   -8.2787 H   0  0  0  0  0  0  0  0  0  0  0  0
   -9.0400    6.9755   -6.1536 C   0  0  0  0  0  0  0  0  0  0  0  0
   -8.9499    5.9444   -5.0377 C   0  0  0  0  0  0  0  0  0  0  0  0
  -10.2126    4.4851   -3.5517 N   0  0  0  0  0  0  0  0  0  0  0  0
  -10.3314    5.4068   -4.6607 C   0  0  0  0  0  0  0  0  0  0  0  0
  -11.1362    4.1298   -3.3045 H   0  0  0  0  0  0  0  0  0  0  0  0
   -9.8084    4.9685   -2.7497 H   0  0  0  0  0  0  0  0  0  0  0  0
  -10.9404    4.7092   -5.8479 C   0  0  0  0  0  0  0  0  0  0  0  0
  -11.9190    5.2332   -6.4023 O   0  0  0  0  0  0  0  0  0  0  0  0
  -10.4548    3.6328   -6.2247 O   0  0  0  0  0  0  0  0  0  0  0  0
   -9.7148    3.2709   -5.7781 H   0  0  0  0  0  0  0  0  0  0  0  0
   -4.6793    6.0100  -10.6099 S   0  0  0  0  0  0  0  0  0  0  0  0
   -4.5861    4.8137   -9.3113 C   0  0  0  0  0  0  0  0  0  0  0  0
   -4.0120    5.3932   -8.0175 C   0  0  0  0  0  0  0  0  0  0  0  0
   -2.5942    5.6525   -8.1564 N   0  0  0  0  0  0  0  0  0  0  0  0
   -2.0530    6.8592   -8.0123 C   0  0  0  0  0  0  0  0  0  0  0  0
   -2.7070    7.8672   -7.8367 O   0  0  0  0  0  0  0  0  0  0  0  0
   -2.0000    4.8968   -8.3686 H   0  0  0  0  0  0  0  0  0  0  0  0
   -0.5425    6.9232   -8.0785 C   0  0  0  0  0  0  0  0  0  0  0  0
    0.0325    7.7527   -6.9357 C   0  0  0  0  0  0  0  0  0  0  0  0
    0.2730    6.9441   -5.6641 C   0  0  0  0  0  0  0  0  0  0  0  0
    0.5088    5.5605   -6.0170 N   0  0  0  0  0  0  0  0  0  0  0  0
   -0.3089    5.1889   -6.5005 H   0  0  0  0  0  0  0  0  0  0  0  0
    0.6788    5.0179   -5.1702 H   0  0  0  0  0  0  0  0  0  0  0  0
   -0.9199    7.0255   -4.7517 C   0  0  0  0  0  0  0  0  0  0  0  0
   -1.3380    8.1498   -4.4002 O   0  0  0  0  0  0  0  0  0  0  0  0
   -1.4433    5.9630   -4.3778 O   0  0  0  0  0  0  0  0  0  0  0  0
   -1.0957    5.1423   -4.6670 H   0  0  0  0  0  0  0  0  0  0  0  0
   -5.4358    3.7826   -6.9051 N   0  0  0  0  0  0  0  0  0  0  0  0
   -4.2888    4.4517   -6.8725 C   0  0  0  0  0  0  0  0  0  0  0  0
   -3.4780    4.3217   -5.9800 O   0  0  0  0  0  0  0  0  0  0  0  0
   -6.0878    3.9904   -7.6129 H   0  0  0  0  0  0  0  0  0  0  0  0
   -5.7594    2.7587   -5.9357 C   0  0  0  0  0  0  0  0  0  0  0  0
   -7.2471    2.5146   -5.8016 C   0  0  0  0  0  0  0  0  0  0  0  0
   -7.8145    2.7381   -4.7125 O   0  0  0  0  0  0  0  0  0  0  0  0
   -7.8493    2.0988   -6.8025 O   0  0  0  0  0  0  0  0  0  0  0  0
   -7.3822    1.9449   -7.6000 H   0  0  0  0  0  0  0  0  0  0  0  0
 19 20  1  0  0  0
 20 23  1  0  0  0
 20 18  1  0  0  0
 23 24  2  0  0  0
 23 25  1  0  0  0
 18 17  1  0  0  0
 17 13  1  0  0  0
 13 14  2  0  0  0
 13 15  1  0  0  0
 15  3  1  0  0  0
  3  4  1  0  0  0
  3  2  1  0  0  0
  4  5  2  0  0  0
  4  6  1  0  0  0
  2  1  1  0  0  0
  1 27  1  0  0  0
  6  8  1  0  0  0
  8  9  1  0  0  0
  9 10  2  0  0  0
  9 11  1  0  0  0
 44 48  1  0  0  0
 44 45  1  0  0  0
 48 49  1  0  0  0
 49 50  2  0  0  0
 49 51  1  0  0  0
 45 46  2  0  0  0
 45 29  1  0  0  0
 29 30  1  0  0  0
 29 28  1  0  0  0
 30 31  1  0  0  0
 28 27  1  0  0  0
 36 40  1  0  0  0
 36 37  1  0  0  0
 36 35  1  0  0  0
 40 41  2  0  0  0
 40 42  1  0  0  0
 35 34  1  0  0  0
 34 31  1  0  0  0
 31 32  2  0  0  0
 19 21  1  0  0  0
 19 22  1  0  0  0
 25 26  1  0  0  0
 15 16  1  0  0  0
  6  7  1  0  0  0
 11 12  1  0  0  0
 44 47  1  0  0  0
 51 52  1  0  0  0
 30 33  1  0  0  0
 42 43  1  0  0  0
 37 38  1  0  0  0
 37 39  1  0  0  0
M  END
> <minimizedAffinity>
-8.29760

$$$$
4ZB8_GDS_A_300


 52 51  0  0  0  0  0  0  0  0999 V2000
   -5.6436    7.0464  -10.4977 S   0  0  0  0  0  0  0  0  0  0  0  0
   -7.1465    7.2777   -9.6112 C   0  0  0  0  0  0  0  0  0  0  0  0
   -6.8605    7.8126   -8.2088 C   0  0  0  0  0  0  0  0  0  0  0  0
   -6.2904    9.2018   -8.3040 C   0  0  0  0  0  0  0  0  0  0  0  0
   -6.9435   10.1204   -8.7599 O   0  0  0  0  0  0  0  0  0  0  0  0
   -5.0480    9.3650   -7.8697 N   0  0  0  0  0  0  0  0  0  0  0  0
   -4.5296    8.5791   -7.5817 H   0  0  0  0  0  0  0  0  0  0  0  0
   -4.4396   10.6785   -7.8113 C   0  0  0  0  0  0  0  0  0  0  0  0
   -3.9495   11.0298   -6.4270 C   0  0  0  0  0  0  0  0  0  0  0  0
   -3.1784   10.2392   -5.8504 O   0  0  0  0  0  0  0  0  0  0  0  0
   -4.3416   12.0947   -5.9147 O   0  0  0  0  0  0  0  0  0  0  0  0
   -4.9221   12.6569   -6.3890 H   0  0  0  0  0  0  0  0  0  0  0  0
   -8.2260    6.8840   -6.4107 C   0  0  0  0  0  0  0  0  0  0  0  0
   -7.4976    5.9256   -6.2496 O   0  0  0  0  0  0  0  0  0  0  0  0
   -8.0628    7.7595   -7.3982 N   0  0  0  0  0  0  0  0  0  0  0  0
   -8.7878    8.3982   -7.5871 H   0  0  0  0  0  0  0  0  0  0  0  0
   -9.3864    7.1397   -5.4705 C   0  0  0  0  0  0  0  0  0  0  0  0
   -9.8443    5.8596   -4.7865 C   0  0  0  0  0  0  0  0  0  0  0  0
  -12.1003    5.4567   -5.6114 N   0  0  0  0  0  0  0  0  0  0  0  0
  -10.7255    5.0168   -5.7101 C   0  0  0  0  0  0  0  0  0  0  0  0
  -12.6833    4.8918   -6.2289 H   0  0  0  0  0  0  0  0  0  0  0  0
  -12.1642    6.4369   -5.8862 H   0  0  0  0  0  0  0  0  0  0  0  0
  -10.6191    3.5663   -5.3205 C   0  0  0  0  0  0  0  0  0  0  0  0
  -10.9162    3.2437   -4.1598 O   0  0  0  0  0  0  0  0  0  0  0  0
  -10.2283    2.7463   -6.1638 O   0  0  0  0  0  0  0  0  0  0  0  0
  -10.0138    3.0314   -7.0302 H   0  0  0  0  0  0  0  0  0  0  0  0
   -4.9708    5.2920   -9.7459 S   0  0  0  0  0  0  0  0  0  0  0  0
   -3.2186    5.4916   -9.8733 C   0  0  0  0  0  0  0  0  0  0  0  0
   -2.4941    5.1798   -8.5628 C   0  0  0  0  0  0  0  0  0  0  0  0
   -3.3041    4.3258   -7.7195 N   0  0  0  0  0  0  0  0  0  0  0  0
   -2.8710    3.8034   -6.5754 C   0  0  0  0  0  0  0  0  0  0  0  0
   -1.7303    3.9237   -6.1764 O   0  0  0  0  0  0  0  0  0  0  0  0
   -4.2229    4.1212   -8.0078 H   0  0  0  0  0  0  0  0  0  0  0  0
   -3.8913    3.0299   -5.7687 C   0  0  0  0  0  0  0  0  0  0  0  0
   -5.3115    3.4966   -6.0688 C   0  0  0  0  0  0  0  0  0  0  0  0
   -6.3818    2.5184   -5.5931 C   0  0  0  0  0  0  0  0  0  0  0  0
   -7.3799    2.3636   -6.6295 N   0  0  0  0  0  0  0  0  0  0  0  0
   -7.8134    3.2667   -6.8217 H   0  0  0  0  0  0  0  0  0  0  0  0
   -8.0929    1.7035   -6.3190 H   0  0  0  0  0  0  0  0  0  0  0  0
   -7.0432    3.0255   -4.3411 C   0  0  0  0  0  0  0  0  0  0  0  0
   -6.5925    4.0539   -3.7919 O   0  0  0  0  0  0  0  0  0  0  0  0
   -8.0164    2.3940   -3.8974 O   0  0  0  0  0  0  0  0  0  0  0  0
   -8.3200    1.6276   -4.3427 H   0  0  0  0  0  0  0  0  0  0  0  0
   -0.8732    6.6162   -7.4820 N   0  0  0  0  0  0  0  0  0  0  0  0
   -2.1373    6.4660   -7.8613 C   0  0  0  0  0  0  0  0  0  0  0  0
   -2.9839    7.3141   -7.6745 O   0  0  0  0  0  0  0  0  0  0  0  0
   -0.2514    5.8604   -7.5894 H   0  0  0  0  0  0  0  0  0  0  0  0
   -0.3791    7.8525   -6.9164 C   0  0  0  0  0  0  0  0  0  0  0  0
   -0.1638    7.7787   -5.4201 C   0  0  0  0  0  0  0  0  0  0  0  0
   -1.1459    7.8270   -4.6512 O   0  0  0  0  0  0  0  0  0  0  0  0
    1.0032    7.6667   -5.0166 O   0  0  0  0  0  0  0  0  0  0  0  0
    1.7102    7.6344   -5.6307 H   0  0  0  0  0  0  0  0  0  0  0  0
 19 20  1  0  0  0
 20 23  1  0  0  0
 20 18  1  0  0  0
 23 24  2  0  0  0
 23 25  1  0  0  0
 18 17  1  0  0  0
 17 13  1  0  0  0
 13 14  2  0  0  0
 13 15  1  0  0  0
 15  3  1  0  0  0
  3  4  1  0  0  0
  3  2  1  0  0  0
  4  5  2  0  0  0
  4  6  1  0  0  0
  2  1  1  0  0  0
  1 27  1  0  0  0
  6  8  1  0  0  0
  8  9  1  0  0  0
  9 10  2  0  0  0
  9 11  1  0  0  0
 44 48  1  0  0  0
 44 45  1  0  0  0
 48 49  1  0  0  0
 49 50  2  0  0  0
 49 51  1  0  0  0
 45 46  2  0  0  0
 45 29  1  0  0  0
 29 30  1  0  0  0
 29 28  1  0  0  0
 30 31  1  0  0  0
 28 27  1  0  0  0
 36 40  1  0  0  0
 36 37  1  0  0  0
 36 35  1  0  0  0
 40 41  2  0  0  0
 40 42  1  0  0  0
 35 34  1  0  0  0
 34 31  1  0  0  0
 31 32  2  0  0  0
 19 21  1  0  0  0
 19 22  1  0  0  0
 25 26  1  0  0  0
 15 16  1  0  0  0
  6  7  1  0  0  0
 11 12  1  0  0  0
 44 47  1  0  0  0
 51 52  1  0  0  0
 30 33  1  0  0  0
 42 43  1  0  0  0
 37 38  1  0  0  0
 37 39  1  0  0  0
M  END
> <minimizedAffinity>
-8.28018

$$$$
4ZB8_GDS_A_300


 52 51  0  0  0  0  0  0  0  0999 V2000
   -5.3968    6.5295  -10.1561 S   0  0  0  0  0  0  0  0  0  0  0  0
   -6.9198    7.1037   -9.4860 C   0  0  0  0  0  0  0  0  0  0  0  0
   -6.6958    7.7187   -8.1053 C   0  0  0  0  0  0  0  0  0  0  0  0
   -6.2200    9.1382   -8.2552 C   0  0  0  0  0  0  0  0  0  0  0  0
   -6.9484   10.0024   -8.7033 O   0  0  0  0  0  0  0  0  0  0  0  0
   -4.9738    9.3899   -7.8775 N   0  0  0  0  0  0  0  0  0  0  0  0
   -4.3950    8.6456   -7.5944 H   0  0  0  0  0  0  0  0  0  0  0  0
   -4.4488   10.7401   -7.8740 C   0  0  0  0  0  0  0  0  0  0  0  0
   -3.3154   10.9193   -6.8924 C   0  0  0  0  0  0  0  0  0  0  0  0
   -2.3275   11.5936   -7.2409 O   0  0  0  0  0  0  0  0  0  0  0  0
   -3.4120   10.3797   -5.7745 O   0  0  0  0  0  0  0  0  0  0  0  0
   -4.1761    9.8819   -5.5591 H   0  0  0  0  0  0  0  0  0  0  0  0
   -8.0263    6.7800   -6.2863 C   0  0  0  0  0  0  0  0  0  0  0  0
   -7.2367    5.8828   -6.0701 O   0  0  0  0  0  0  0  0  0  0  0  0
   -7.9059    7.6190   -7.3108 N   0  0  0  0  0  0  0  0  0  0  0  0
   -8.6695    8.1967   -7.5399 H   0  0  0  0  0  0  0  0  0  0  0  0
   -9.2180    6.9969   -5.3762 C   0  0  0  0  0  0  0  0  0  0  0  0
  -10.2418    7.9290   -6.0082 C   0  0  0  0  0  0  0  0  0  0  0  0
  -12.5808    7.2536   -6.0804 N   0  0  0  0  0  0  0  0  0  0  0  0
  -11.5739    7.8877   -5.2573 C   0  0  0  0  0  0  0  0  0  0  0  0
  -13.4666    7.2287   -5.5752 H   0  0  0  0  0  0  0  0  0  0  0  0
  -12.2889    6.3017   -6.3019 H   0  0  0  0  0  0  0  0  0  0  0  0
  -11.9992    9.2898   -4.9108 C   0  0  0  0  0  0  0  0  0  0  0  0
  -11.2896    9.9465   -4.1330 O   0  0  0  0  0  0  0  0  0  0  0  0
  -13.0457    9.7373   -5.4015 O   0  0  0  0  0  0  0  0  0  0  0  0
  -13.5530    9.2083   -5.9852 H   0  0  0  0  0  0  0  0  0  0  0  0
   -5.2351    4.6886   -9.3311 S   0  0  0  0  0  0  0  0  0  0  0  0
   -4.7440    5.0749   -7.6770 C   0  0  0  0  0  0  0  0  0  0  0  0
   -4.3723    3.8312   -6.8680 C   0  0  0  0  0  0  0  0  0  0  0  0
   -5.2994    3.6356   -5.7730 N   0  0  0  0  0  0  0  0  0  0  0  0
   -6.3843    2.8707   -5.8599 C   0  0  0  0  0  0  0  0  0  0  0  0
   -6.7431    2.3361   -6.8896 O   0  0  0  0  0  0  0  0  0  0  0  0
   -5.1174    4.0923   -4.9201 H   0  0  0  0  0  0  0  0  0  0  0  0
   -7.1753    2.6902   -4.5826 C   0  0  0  0  0  0  0  0  0  0  0  0
   -8.6128    3.1731   -4.7422 C   0  0  0  0  0  0  0  0  0  0  0  0
   -9.6041    2.0426   -5.0027 C   0  0  0  0  0  0  0  0  0  0  0  0
   -9.4477    1.5763   -6.3638 N   0  0  0  0  0  0  0  0  0  0  0  0
   -9.6367    2.3428   -7.0097 H   0  0  0  0  0  0  0  0  0  0  0  0
  -10.1027    0.8143   -6.5396 H   0  0  0  0  0  0  0  0  0  0  0  0
  -11.0162    2.5205   -4.8028 C   0  0  0  0  0  0  0  0  0  0  0  0
  -11.9267    2.0301   -5.5048 O   0  0  0  0  0  0  0  0  0  0  0  0
  -11.2216    3.3935   -3.9435 O   0  0  0  0  0  0  0  0  0  0  0  0
  -10.5077    3.7324   -3.4401 H   0  0  0  0  0  0  0  0  0  0  0  0
   -2.0989    4.6149   -7.1439 N   0  0  0  0  0  0  0  0  0  0  0  0
   -2.9536    3.9533   -6.3717 C   0  0  0  0  0  0  0  0  0  0  0  0
   -2.6364    3.4693   -5.3058 O   0  0  0  0  0  0  0  0  0  0  0  0
   -2.3955    4.9147   -8.0335 H   0  0  0  0  0  0  0  0  0  0  0  0
   -0.7471    4.9097   -6.7218 C   0  0  0  0  0  0  0  0  0  0  0  0
    0.2405    4.9439   -7.8683 C   0  0  0  0  0  0  0  0  0  0  0  0
    0.6345    6.0420   -8.3122 O   0  0  0  0  0  0  0  0  0  0  0  0
    0.6254    3.8562   -8.3221 O   0  0  0  0  0  0  0  0  0  0  0  0
    0.3026    3.0557   -7.9574 H   0  0  0  0  0  0  0  0  0  0  0  0
 19 20  1  0  0  0
 20 23  1  0  0  0
 20 18  1  0  0  0
 23 24  2  0  0  0
 23 25  1  0  0  0
 18 17  1  0  0  0
 17 13  1  0  0  0
 13 14  2  0  0  0
 13 15  1  0  0  0
 15  3  1  0  0  0
  3  4  1  0  0  0
  3  2  1  0  0  0
  4  5  2  0  0  0
  4  6  1  0  0  0
  2  1  1  0  0  0
  1 27  1  0  0  0
  6  8  1  0  0  0
  8  9  1  0  0  0
  9 10  2  0  0  0
  9 11  1  0  0  0
 44 48  1  0  0  0
 44 45  1  0  0  0
 48 49  1  0  0  0
 49 50  2  0  0  0
 49 51  1  0  0  0
 45 46  2  0  0  0
 45 29  1  0  0  0
 29 30  1  0  0  0
 29 28  1  0  0  0
 30 31  1  0  0  0
 28 27  1  0  0  0
 36 40  1  0  0  0
 36 37  1  0  0  0
 36 35  1  0  0  0
 40 41  2  0  0  0
 40 42  1  0  0  0
 35 34  1  0  0  0
 34 31  1  0  0  0
 31 32  2  0  0  0
 19 21  1  0  0  0
 19 22  1  0  0  0
 25 26  1  0  0  0
 15 16  1  0  0  0
  6  7  1  0  0  0
 11 12  1  0  0  0
 44 47  1  0  0  0
 51 52  1  0  0  0
 30 33  1  0  0  0
 42 43  1  0  0  0
 37 38  1  0  0  0
 37 39  1  0  0  0
M  END
> <minimizedAffinity>
-8.04441

$$$$
4ZB8_GDS_A_300


 52 51  0  0  0  0  0  0  0  0999 V2000
   -5.5373    5.4989  -10.1591 S   0  0  0  0  0  0  0  0  0  0  0  0
   -3.8486    5.0768   -9.8974 C   0  0  0  0  0  0  0  0  0  0  0  0
   -3.3920    5.5404   -8.5150 C   0  0  0  0  0  0  0  0  0  0  0  0
   -3.4717    4.3929   -7.5449 C   0  0  0  0  0  0  0  0  0  0  0  0
   -2.4881    3.7348   -7.2661 O   0  0  0  0  0  0  0  0  0  0  0  0
   -4.6630    4.1411   -7.0194 N   0  0  0  0  0  0  0  0  0  0  0  0
   -5.4464    4.6485   -7.3326 H   0  0  0  0  0  0  0  0  0  0  0  0
   -4.8327    3.1331   -5.9928 C   0  0  0  0  0  0  0  0  0  0  0  0
   -6.2830    2.7887   -5.7519 C   0  0  0  0  0  0  0  0  0  0  0  0
   -6.9623    2.3711   -6.7092 O   0  0  0  0  0  0  0  0  0  0  0  0
   -6.7435    2.9422   -4.6053 O   0  0  0  0  0  0  0  0  0  0  0  0
   -6.1919    3.2596   -3.9176 H   0  0  0  0  0  0  0  0  0  0  0  0
   -1.6945    7.1818   -7.8949 C   0  0  0  0  0  0  0  0  0  0  0  0
   -2.4881    7.8969   -7.3171 O   0  0  0  0  0  0  0  0  0  0  0  0
   -2.0601    6.1107   -8.5931 N   0  0  0  0  0  0  0  0  0  0  0  0
   -1.3996    5.6871   -9.1876 H   0  0  0  0  0  0  0  0  0  0  0  0
   -0.2095    7.4787   -7.8476 C   0  0  0  0  0  0  0  0  0  0  0  0
    0.1150    8.5430   -6.8092 C   0  0  0  0  0  0  0  0  0  0  0  0
    0.9337    6.5095   -5.7478 N   0  0  0  0  0  0  0  0  0  0  0  0
    0.7194    7.9262   -5.5467 C   0  0  0  0  0  0  0  0  0  0  0  0
    1.3366    6.1033   -4.9033 H   0  0  0  0  0  0  0  0  0  0  0  0
    1.5728    6.3700   -6.5304 H   0  0  0  0  0  0  0  0  0  0  0  0
   -0.2118    8.1469   -4.3843 C   0  0  0  0  0  0  0  0  0  0  0  0
    0.2207    7.9560   -3.2371 O   0  0  0  0  0  0  0  0  0  0  0  0
   -1.3787    8.4989   -4.6095 O   0  0  0  0  0  0  0  0  0  0  0  0
   -1.6658    8.6324   -5.4914 H   0  0  0  0  0  0  0  0  0  0  0  0
   -5.3935    7.3433  -10.9794 S   0  0  0  0  0  0  0  0  0  0  0  0
   -6.6514    8.2271  -10.1059 C   0  0  0  0  0  0  0  0  0  0  0  0
   -6.3533    8.3511   -8.6108 C   0  0  0  0  0  0  0  0  0  0  0  0
   -7.5379    8.0712   -7.8267 N   0  0  0  0  0  0  0  0  0  0  0  0
   -7.6337    7.0451   -6.9855 C   0  0  0  0  0  0  0  0  0  0  0  0
   -6.7699    6.2005   -6.8623 O   0  0  0  0  0  0  0  0  0  0  0  0
   -8.3126    8.6714   -7.9209 H   0  0  0  0  0  0  0  0  0  0  0  0
   -8.9029    6.9738   -6.1646 C   0  0  0  0  0  0  0  0  0  0  0  0
   -8.9123    5.7501   -5.2549 C   0  0  0  0  0  0  0  0  0  0  0  0
  -10.2712    5.4852   -4.6131 C   0  0  0  0  0  0  0  0  0  0  0  0
  -10.0756    5.0424   -3.2493 N   0  0  0  0  0  0  0  0  0  0  0  0
   -9.5303    4.1804   -3.2466 H   0  0  0  0  0  0  0  0  0  0  0  0
  -10.9821    4.8725   -2.8136 H   0  0  0  0  0  0  0  0  0  0  0  0
  -11.0186    4.4253   -5.3750 C   0  0  0  0  0  0  0  0  0  0  0  0
  -10.3727    3.5167   -5.9402 O   0  0  0  0  0  0  0  0  0  0  0  0
  -12.2578    4.4988   -5.4153 O   0  0  0  0  0  0  0  0  0  0  0  0
  -12.7002    5.1984   -4.9761 H   0  0  0  0  0  0  0  0  0  0  0  0
   -4.5660    9.7963   -7.8521 N   0  0  0  0  0  0  0  0  0  0  0  0
   -5.8096    9.7259   -8.3136 C   0  0  0  0  0  0  0  0  0  0  0  0
   -6.4947   10.7078   -8.5072 O   0  0  0  0  0  0  0  0  0  0  0  0
   -4.0894    8.9614   -7.6400 H   0  0  0  0  0  0  0  0  0  0  0  0
   -3.8883   11.0584   -7.6506 C   0  0  0  0  0  0  0  0  0  0  0  0
   -3.3828   11.2436   -6.2360 C   0  0  0  0  0  0  0  0  0  0  0  0
   -4.1098   11.8004   -5.3878 O   0  0  0  0  0  0  0  0  0  0  0  0
   -2.2464   10.8210   -5.9766 O   0  0  0  0  0  0  0  0  0  0  0  0
   -1.7356   10.4092   -6.6456 H   0  0  0  0  0  0  0  0  0  0  0  0
 19 20  1  0  0  0
 20 23  1  0  0  0
 20 18  1  0  0  0
 23 24  2  0  0  0
 23 25  1  0  0  0
 18 17  1  0  0  0
 17 13  1  0  0  0
 13 14  2  0  0  0
 13 15  1  0  0  0
 15  3  1  0  0  0
  3  4  1  0  0  0
  3  2  1  0  0  0
  4  5  2  0  0  0
  4  6  1  0  0  0
  2  1  1  0  0  0
  1 27  1  0  0  0
  6  8  1  0  0  0
  8  9  1  0  0  0
  9 10  2  0  0  0
  9 11  1  0  0  0
 44 48  1  0  0  0
 44 45  1  0  0  0
 48 49  1  0  0  0
 49 50  2  0  0  0
 49 51  1  0  0  0
 45 46  2  0  0  0
 45 29  1  0  0  0
 29 30  1  0  0  0
 29 28  1  0  0  0
 30 31  1  0  0  0
 28 27  1  0  0  0
 36 40  1  0  0  0
 36 37  1  0  0  0
 36 35  1  0  0  0
 40 41  2  0  0  0
 40 42  1  0  0  0
 35 34  1  0  0  0
 34 31  1  0  0  0
 31 32  2  0  0  0
 19 21  1  0  0  0
 19 22  1  0  0  0
 25 26  1  0  0  0
 15 16  1  0  0  0
  6  7  1  0  0  0
 11 12  1  0  0  0
 44 47  1  0  0  0
 51 52  1  0  0  0
 30 33  1  0  0  0
 42 43  1  0  0  0
 37 38  1  0  0  0
 37 39  1  0  0  0
M  END
> <minimizedAffinity>
-7.91229

$$$$
4ZB8_GDS_A_300


 52 51  0  0  0  0  0  0  0  0999 V2000
   -6.2949    7.3097   -9.0683 S   0  0  0  0  0  0  0  0  0  0  0  0
   -5.1551    8.5147   -8.4791 C   0  0  0  0  0  0  0  0  0  0  0  0
   -3.7268    8.1270   -8.8589 C   0  0  0  0  0  0  0  0  0  0  0  0
   -2.7744    9.2007   -8.4072 C   0  0  0  0  0  0  0  0  0  0  0  0
   -1.5984    9.1689   -8.7143 O   0  0  0  0  0  0  0  0  0  0  0  0
   -3.2842   10.1714   -7.6611 N   0  0  0  0  0  0  0  0  0  0  0  0
   -4.2235   10.1157   -7.3715 H   0  0  0  0  0  0  0  0  0  0  0  0
   -2.4842   11.3122   -7.2644 C   0  0  0  0  0  0  0  0  0  0  0  0
   -2.6415   11.6504   -5.8012 C   0  0  0  0  0  0  0  0  0  0  0  0
   -1.8252   12.4345   -5.2808 O   0  0  0  0  0  0  0  0  0  0  0  0
   -3.5791   11.1260   -5.1718 O   0  0  0  0  0  0  0  0  0  0  0  0
   -4.1676   10.5420   -5.6082 H   0  0  0  0  0  0  0  0  0  0  0  0
   -2.8274    5.8636   -9.0276 C   0  0  0  0  0  0  0  0  0  0  0  0
   -2.7389    5.9073  -10.2381 O   0  0  0  0  0  0  0  0  0  0  0  0
   -3.3985    6.8252   -8.3083 N   0  0  0  0  0  0  0  0  0  0  0  0
   -3.6072    6.6465   -7.3629 H   0  0  0  0  0  0  0  0  0  0  0  0
   -2.2762    4.6830   -8.2544 C   0  0  0  0  0  0  0  0  0  0  0  0
   -3.1712    4.3175   -7.0789 C   0  0  0  0  0  0  0  0  0  0  0  0
   -3.3379    2.9706   -5.0565 N   0  0  0  0  0  0  0  0  0  0  0  0
   -2.4097    3.5095   -6.0267 C   0  0  0  0  0  0  0  0  0  0  0  0
   -2.8252    2.4330   -4.3575 H   0  0  0  0  0  0  0  0  0  0  0  0
   -4.0082    2.3633   -5.5280 H   0  0  0  0  0  0  0  0  0  0  0  0
   -1.4052    4.3974   -5.3413 C   0  0  0  0  0  0  0  0  0  0  0  0
   -1.8080    5.4438   -4.8100 O   0  0  0  0  0  0  0  0  0  0  0  0
   -0.2118    4.0626   -5.3401 O   0  0  0  0  0  0  0  0  0  0  0  0
    0.0510    3.2636   -5.7530 H   0  0  0  0  0  0  0  0  0  0  0  0
   -6.5544    6.1361   -7.4401 S   0  0  0  0  0  0  0  0  0  0  0  0
   -8.0581    6.7779   -6.7669 C   0  0  0  0  0  0  0  0  0  0  0  0
   -8.3940    6.1786   -5.4003 C   0  0  0  0  0  0  0  0  0  0  0  0
   -8.2793    4.7355   -5.4309 N   0  0  0  0  0  0  0  0  0  0  0  0
   -7.8181    4.0159   -4.4116 C   0  0  0  0  0  0  0  0  0  0  0  0
   -7.3708    4.5082   -3.3956 O   0  0  0  0  0  0  0  0  0  0  0  0
   -8.5570    4.2624   -6.2485 H   0  0  0  0  0  0  0  0  0  0  0  0
   -7.8769    2.5129   -4.5778 C   0  0  0  0  0  0  0  0  0  0  0  0
   -8.7210    2.1164   -5.7841 C   0  0  0  0  0  0  0  0  0  0  0  0
  -10.1085    1.6045   -5.4081 C   0  0  0  0  0  0  0  0  0  0  0  0
  -10.6213    0.7842   -6.4845 N   0  0  0  0  0  0  0  0  0  0  0  0
  -10.6897    1.3430   -7.3350 H   0  0  0  0  0  0  0  0  0  0  0  0
  -11.5453    0.4326   -6.2335 H   0  0  0  0  0  0  0  0  0  0  0  0
  -11.0498    2.7533   -5.1702 C   0  0  0  0  0  0  0  0  0  0  0  0
  -11.2676    3.5602   -6.0995 O   0  0  0  0  0  0  0  0  0  0  0  0
  -11.5739    2.8568   -4.0489 O   0  0  0  0  0  0  0  0  0  0  0  0
  -11.3812    2.2277   -3.3818 H   0  0  0  0  0  0  0  0  0  0  0  0
  -10.4494    7.3834   -5.8279 N   0  0  0  0  0  0  0  0  0  0  0  0
   -9.7766    6.6113   -4.9819 C   0  0  0  0  0  0  0  0  0  0  0  0
  -10.2345    6.2468   -3.9196 O   0  0  0  0  0  0  0  0  0  0  0  0
   -9.9944    7.7114   -6.6370 H   0  0  0  0  0  0  0  0  0  0  0  0
  -11.8278    7.7586   -5.6005 C   0  0  0  0  0  0  0  0  0  0  0  0
  -11.9805    9.1611   -5.0524 C   0  0  0  0  0  0  0  0  0  0  0  0
  -11.4383    9.4641   -3.9697 O   0  0  0  0  0  0  0  0  0  0  0  0
  -12.6481    9.9649   -5.7200 O   0  0  0  0  0  0  0  0  0  0  0  0
  -13.0372    9.6932   -6.5279 H   0  0  0  0  0  0  0  0  0  0  0  0
 19 20  1  0  0  0
 20 23  1  0  0  0
 20 18  1  0  0  0
 23 24  2  0  0  0
 23 25  1  0  0  0
 18 17  1  0  0  0
 17 13  1  0  0  0
 13 14  2  0  0  0
 13 15  1  0  0  0
 15  3  1  0  0  0
  3  4  1  0  0  0
  3  2  1  0  0  0
  4  5  2  0  0  0
  4  6  1  0  0  0
  2  1  1  0  0  0
  1 27  1  0  0  0
  6  8  1  0  0  0
  8  9  1  0  0  0
  9 10  2  0  0  0
  9 11  1  0  0  0
 44 48  1  0  0  0
 44 45  1  0  0  0
 48 49  1  0  0  0
 49 50  2  0  0  0
 49 51  1  0  0  0
 45 46  2  0  0  0
 45 29  1  0  0  0
 29 30  1  0  0  0
 29 28  1  0  0  0
 30 31  1  0  0  0
 28 27  1  0  0  0
 36 40  1  0  0  0
 36 37  1  0  0  0
 36 35  1  0  0  0
 40 41  2  0  0  0
 40 42  1  0  0  0
 35 34  1  0  0  0
 34 31  1  0  0  0
 31 32  2  0  0  0
 19 21  1  0  0  0
 19 22  1  0  0  0
 25 26  1  0  0  0
 15 16  1  0  0  0
  6  7  1  0  0  0
 11 12  1  0  0  0
 44 47  1  0  0  0
 51 52  1  0  0  0
 30 33  1  0  0  0
 42 43  1  0  0  0
 37 38  1  0  0  0
 37 39  1  0  0  0
M  END
> <minimizedAffinity>
-7.90949

$$$$
4ZB8_GDS_A_300


 52 51  0  0  0  0  0  0  0  0999 V2000
   -4.7187    4.8903   -9.4150 S   0  0  0  0  0  0  0  0  0  0  0  0
   -4.7124    5.3084   -7.7052 C   0  0  0  0  0  0  0  0  0  0  0  0
   -4.4852    4.0608   -6.8529 C   0  0  0  0  0  0  0  0  0  0  0  0
   -3.1021    4.0975   -6.2614 C   0  0  0  0  0  0  0  0  0  0  0  0
   -2.8159    3.4282   -5.2875 O   0  0  0  0  0  0  0  0  0  0  0  0
   -2.2235    4.8945   -6.8545 N   0  0  0  0  0  0  0  0  0  0  0  0
   -2.5195    5.4768   -7.5911 H   0  0  0  0  0  0  0  0  0  0  0  0
   -0.8362    4.9239   -6.4383 C   0  0  0  0  0  0  0  0  0  0  0  0
   -0.4387    6.2511   -5.8378 C   0  0  0  0  0  0  0  0  0  0  0  0
   -1.3377    7.0255   -5.4580 O   0  0  0  0  0  0  0  0  0  0  0  0
    0.7739    6.5205   -5.7520 O   0  0  0  0  0  0  0  0  0  0  0  0
    1.4131    5.9044   -6.0518 H   0  0  0  0  0  0  0  0  0  0  0  0
   -6.5001    3.0552   -5.9100 C   0  0  0  0  0  0  0  0  0  0  0  0
   -6.7428    2.4163   -6.9139 O   0  0  0  0  0  0  0  0  0  0  0  0
   -5.5195    3.9507   -5.8412 N   0  0  0  0  0  0  0  0  0  0  0  0
   -5.4942    4.5645   -5.0719 H   0  0  0  0  0  0  0  0  0  0  0  0
   -7.3208    2.8591   -4.6516 C   0  0  0  0  0  0  0  0  0  0  0  0
   -8.7625    3.3052   -4.8492 C   0  0  0  0  0  0  0  0  0  0  0  0
   -9.4861    1.4662   -6.2729 N   0  0  0  0  0  0  0  0  0  0  0  0
   -9.7032    2.1077   -4.9943 C   0  0  0  0  0  0  0  0  0  0  0  0
  -10.1156    0.6688   -6.3644 H   0  0  0  0  0  0  0  0  0  0  0  0
   -8.5198    1.1452   -6.3325 H   0  0  0  0  0  0  0  0  0  0  0  0
  -11.1307    2.5742   -4.8872 C   0  0  0  0  0  0  0  0  0  0  0  0
  -11.9315    2.2315   -5.7709 O   0  0  0  0  0  0  0  0  0  0  0  0
  -11.4565    3.2923   -3.9309 O   0  0  0  0  0  0  0  0  0  0  0  0
  -10.8206    3.5284   -3.2844 H   0  0  0  0  0  0  0  0  0  0  0  0
   -6.4410    5.7385  -10.0550 S   0  0  0  0  0  0  0  0  0  0  0  0
   -6.1099    7.4582   -9.8120 C   0  0  0  0  0  0  0  0  0  0  0  0
   -6.3562    7.9069   -8.3707 C   0  0  0  0  0  0  0  0  0  0  0  0
   -7.7053    7.5833   -7.9562 N   0  0  0  0  0  0  0  0  0  0  0  0
   -7.9890    6.9245   -6.8358 C   0  0  0  0  0  0  0  0  0  0  0  0
   -7.1404    6.4592   -6.1024 O   0  0  0  0  0  0  0  0  0  0  0  0
   -8.4513    7.8654   -8.5334 H   0  0  0  0  0  0  0  0  0  0  0  0
   -9.4581    6.7758   -6.5051 C   0  0  0  0  0  0  0  0  0  0  0  0
   -9.8370    7.5819   -5.2675 C   0  0  0  0  0  0  0  0  0  0  0  0
  -11.3444    7.7205   -5.0752 C   0  0  0  0  0  0  0  0  0  0  0  0
  -12.0234    7.1971   -6.2411 N   0  0  0  0  0  0  0  0  0  0  0  0
  -11.7408    7.7271   -7.0656 H   0  0  0  0  0  0  0  0  0  0  0  0
  -13.0319    7.2798   -6.1130 H   0  0  0  0  0  0  0  0  0  0  0  0
  -11.7235    9.1640   -4.8884 C   0  0  0  0  0  0  0  0  0  0  0  0
  -11.5237    9.7040   -3.7790 O   0  0  0  0  0  0  0  0  0  0  0  0
  -12.2278    9.7651   -5.8513 O   0  0  0  0  0  0  0  0  0  0  0  0
  -12.3590    9.3195   -6.6651 H   0  0  0  0  0  0  0  0  0  0  0  0
   -4.9928    9.7412   -7.5735 N   0  0  0  0  0  0  0  0  0  0  0  0
   -6.0821    9.3844   -8.2448 C   0  0  0  0  0  0  0  0  0  0  0  0
   -6.8331   10.1897   -8.7532 O   0  0  0  0  0  0  0  0  0  0  0  0
   -4.4670    9.0458   -7.1160 H   0  0  0  0  0  0  0  0  0  0  0  0
   -4.5528   11.1168   -7.4920 C   0  0  0  0  0  0  0  0  0  0  0  0
   -3.5451   11.3552   -6.3882 C   0  0  0  0  0  0  0  0  0  0  0  0
   -3.9348   11.7509   -5.2704 O   0  0  0  0  0  0  0  0  0  0  0  0
   -2.3524   11.1380   -6.6482 O   0  0  0  0  0  0  0  0  0  0  0  0
   -2.1054   10.8416   -7.5020 H   0  0  0  0  0  0  0  0  0  0  0  0
 19 20  1  0  0  0
 20 23  1  0  0  0
 20 18  1  0  0  0
 23 24  2  0  0  0
 23 25  1  0  0  0
 18 17  1  0  0  0
 17 13  1  0  0  0
 13 14  2  0  0  0
 13 15  1  0  0  0
 15  3  1  0  0  0
  3  4  1  0  0  0
  3  2  1  0  0  0
  4  5  2  0  0  0
  4  6  1  0  0  0
  2  1  1  0  0  0
  1 27  1  0  0  0
  6  8  1  0  0  0
  8  9  1  0  0  0
  9 10  2  0  0  0
  9 11  1  0  0  0
 44 48  1  0  0  0
 44 45  1  0  0  0
 48 49  1  0  0  0
 49 50  2  0  0  0
 49 51  1  0  0  0
 45 46  2  0  0  0
 45 29  1  0  0  0
 29 30  1  0  0  0
 29 28  1  0  0  0
 30 31  1  0  0  0
 28 27  1  0  0  0
 36 40  1  0  0  0
 36 37  1  0  0  0
 36 35  1  0  0  0
 40 41  2  0  0  0
 40 42  1  0  0  0
 35 34  1  0  0  0
 34 31  1  0  0  0
 31 32  2  0  0  0
 19 21  1  0  0  0
 19 22  1  0  0  0
 25 26  1  0  0  0
 15 16  1  0  0  0
  6  7  1  0  0  0
 11 12  1  0  0  0
 44 47  1  0  0  0
 51 52  1  0  0  0
 30 33  1  0  0  0
 42 43  1  0  0  0
 37 38  1  0  0  0
 37 39  1  0  0  0
M  END
> <minimizedAffinity>
-7.84764

$$$$
4ZB8_GDS_A_300


 52 51  0  0  0  0  0  0  0  0999 V2000
   -4.6574    5.0353   -9.3577 S   0  0  0  0  0  0  0  0  0  0  0  0
   -4.3284    5.4676   -7.6834 C   0  0  0  0  0  0  0  0  0  0  0  0
   -3.9823    4.2213   -6.8700 C   0  0  0  0  0  0  0  0  0  0  0  0
   -2.6160    4.3789   -6.2599 C   0  0  0  0  0  0  0  0  0  0  0  0
   -2.2755    3.7169   -5.2986 O   0  0  0  0  0  0  0  0  0  0  0  0
   -1.8140    5.2730   -6.8223 N   0  0  0  0  0  0  0  0  0  0  0  0
   -2.1581    5.8416   -7.5486 H   0  0  0  0  0  0  0  0  0  0  0  0
   -0.4408    5.4282   -6.3875 C   0  0  0  0  0  0  0  0  0  0  0  0
   -0.1953    6.7510   -5.7020 C   0  0  0  0  0  0  0  0  0  0  0  0
    0.9780    7.0746   -5.4360 O   0  0  0  0  0  0  0  0  0  0  0  0
   -1.1781    7.4633   -5.4245 O   0  0  0  0  0  0  0  0  0  0  0  0
   -2.0422    7.1760   -5.6454 H   0  0  0  0  0  0  0  0  0  0  0  0
   -6.0428    3.1644   -6.0970 C   0  0  0  0  0  0  0  0  0  0  0  0
   -6.3353    2.7520   -7.2013 O   0  0  0  0  0  0  0  0  0  0  0  0
   -5.0094    3.9715   -5.8759 N   0  0  0  0  0  0  0  0  0  0  0  0
   -4.9382    4.4181   -5.0015 H   0  0  0  0  0  0  0  0  0  0  0  0
   -6.8590    2.7693   -4.8831 C   0  0  0  0  0  0  0  0  0  0  0  0
   -8.3095    3.2102   -5.0171 C   0  0  0  0  0  0  0  0  0  0  0  0
   -8.9451    1.4881   -6.6179 N   0  0  0  0  0  0  0  0  0  0  0  0
   -9.2303    2.0229   -5.3041 C   0  0  0  0  0  0  0  0  0  0  0  0
   -9.5616    0.6970   -6.8041 H   0  0  0  0  0  0  0  0  0  0  0  0
   -7.9740    1.1785   -6.6555 H   0  0  0  0  0  0  0  0  0  0  0  0
  -10.6659    2.4710   -5.2303 C   0  0  0  0  0  0  0  0  0  0  0  0
  -11.1848    2.6072   -4.1114 O   0  0  0  0  0  0  0  0  0  0  0  0
  -11.2845    2.6768   -6.2844 O   0  0  0  0  0  0  0  0  0  0  0  0
  -10.8553    2.5624   -7.1095 H   0  0  0  0  0  0  0  0  0  0  0  0
   -5.2402    6.8047  -10.1483 S   0  0  0  0  0  0  0  0  0  0  0  0
   -6.9353    6.8827   -9.6513 C   0  0  0  0  0  0  0  0  0  0  0  0
   -7.1789    7.9167   -8.5509 C   0  0  0  0  0  0  0  0  0  0  0  0
   -6.0099    8.7501   -8.3624 N   0  0  0  0  0  0  0  0  0  0  0  0
   -6.0297   10.0755   -8.4752 C   0  0  0  0  0  0  0  0  0  0  0  0
   -7.0083   10.7003   -8.8309 O   0  0  0  0  0  0  0  0  0  0  0  0
   -5.1563    8.3134   -8.1391 H   0  0  0  0  0  0  0  0  0  0  0  0
   -4.7419   10.7919   -8.1311 C   0  0  0  0  0  0  0  0  0  0  0  0
   -3.7759    9.8780   -7.3851 C   0  0  0  0  0  0  0  0  0  0  0  0
   -2.6149   10.6267   -6.7370 C   0  0  0  0  0  0  0  0  0  0  0  0
   -1.3780    9.9365   -7.0342 N   0  0  0  0  0  0  0  0  0  0  0  0
   -1.4180    8.9896   -6.6571 H   0  0  0  0  0  0  0  0  0  0  0  0
   -0.5981   10.4388   -6.6101 H   0  0  0  0  0  0  0  0  0  0  0  0
   -2.7966   10.6960   -5.2455 C   0  0  0  0  0  0  0  0  0  0  0  0
   -3.7261   11.3902   -4.7803 O   0  0  0  0  0  0  0  0  0  0  0  0
   -2.0063   10.0585   -4.5303 O   0  0  0  0  0  0  0  0  0  0  0  0
   -1.3238    9.5509   -4.9233 H   0  0  0  0  0  0  0  0  0  0  0  0
   -8.6392    7.6730   -6.6360 N   0  0  0  0  0  0  0  0  0  0  0  0
   -7.5666    7.2166   -7.2728 C   0  0  0  0  0  0  0  0  0  0  0  0
   -6.9170    6.2738   -6.8725 O   0  0  0  0  0  0  0  0  0  0  0  0
   -9.0769    8.4904   -6.9670 H   0  0  0  0  0  0  0  0  0  0  0  0
   -9.1861    7.0096   -5.4726 C   0  0  0  0  0  0  0  0  0  0  0  0
  -10.6725    6.7461   -5.5812 C   0  0  0  0  0  0  0  0  0  0  0  0
  -11.4820    7.5596   -5.0902 O   0  0  0  0  0  0  0  0  0  0  0  0
  -11.0273    5.7139   -6.1694 O   0  0  0  0  0  0  0  0  0  0  0  0
  -10.3840    5.1313   -6.5226 H   0  0  0  0  0  0  0  0  0  0  0  0
 19 20  1  0  0  0
 20 23  1  0  0  0
 20 18  1  0  0  0
 23 24  2  0  0  0
 23 25  1  0  0  0
 18 17  1  0  0  0
 17 13  1  0  0  0
 13 14  2  0  0  0
 13 15  1  0  0  0
 15  3  1  0  0  0
  3  4  1  0  0  0
  3  2  1  0  0  0
  4  5  2  0  0  0
  4  6  1  0  0  0
  2  1  1  0  0  0
  1 27  1  0  0  0
  6  8  1  0  0  0
  8  9  1  0  0  0
  9 10  2  0  0  0
  9 11  1  0  0  0
 44 48  1  0  0  0
 44 45  1  0  0  0
 48 49  1  0  0  0
 49 50  2  0  0  0
 49 51  1  0  0  0
 45 46  2  0  0  0
 45 29  1  0  0  0
 29 30  1  0  0  0
 29 28  1  0  0  0
 30 31  1  0  0  0
 28 27  1  0  0  0
 36 40  1  0  0  0
 36 37  1  0  0  0
 36 35  1  0  0  0
 40 41  2  0  0  0
 40 42  1  0  0  0
 35 34  1  0  0  0
 34 31  1  0  0  0
 31 32  2  0  0  0
 19 21  1  0  0  0
 19 22  1  0  0  0
 25 26  1  0  0  0
 15 16  1  0  0  0
  6  7  1  0  0  0
 11 12  1  0  0  0
 44 47  1  0  0  0
 51 52  1  0  0  0
 30 33  1  0  0  0
 42 43  1  0  0  0
 37 38  1  0  0  0
 37 39  1  0  0  0
M  END
> <minimizedAffinity>
-7.69015

$$$$
4ZB8_GDS_A_300


 52 51  0  0  0  0  0  0  0  0999 V2000
   -5.1446    7.0582  -10.9471 S   0  0  0  0  0  0  0  0  0  0  0  0
   -6.7014    7.5997  -10.3294 C   0  0  0  0  0  0  0  0  0  0  0  0
   -6.6410    7.7734   -8.8126 C   0  0  0  0  0  0  0  0  0  0  0  0
   -6.3646    9.2144   -8.4793 C   0  0  0  0  0  0  0  0  0  0  0  0
   -7.1906   10.0801   -8.6951 O   0  0  0  0  0  0  0  0  0  0  0  0
   -5.1810    9.4840   -7.9452 N   0  0  0  0  0  0  0  0  0  0  0  0
   -4.5139    8.7649   -7.8606 H   0  0  0  0  0  0  0  0  0  0  0  0
   -4.8518   10.8173   -7.4839 C   0  0  0  0  0  0  0  0  0  0  0  0
   -3.4717   10.8967   -6.8764 C   0  0  0  0  0  0  0  0  0  0  0  0
   -3.2224   10.2015   -5.8731 O   0  0  0  0  0  0  0  0  0  0  0  0
   -2.6392   11.6600   -7.4004 O   0  0  0  0  0  0  0  0  0  0  0  0
   -2.8747   12.1630   -8.1550 H   0  0  0  0  0  0  0  0  0  0  0  0
   -7.9206    6.8518   -6.9489 C   0  0  0  0  0  0  0  0  0  0  0  0
   -6.9303    6.6145   -6.2871 O   0  0  0  0  0  0  0  0  0  0  0  0
   -7.8652    7.2871   -8.2042 N   0  0  0  0  0  0  0  0  0  0  0  0
   -8.6891    7.2791   -8.7431 H   0  0  0  0  0  0  0  0  0  0  0  0
   -9.3053    6.6615   -6.3638 C   0  0  0  0  0  0  0  0  0  0  0  0
   -9.7659    7.8974   -5.6043 C   0  0  0  0  0  0  0  0  0  0  0  0
  -11.9670    6.9285   -5.9896 N   0  0  0  0  0  0  0  0  0  0  0  0
  -11.1878    7.7255   -5.0672 C   0  0  0  0  0  0  0  0  0  0  0  0
  -12.9138    6.8171   -5.6269 H   0  0  0  0  0  0  0  0  0  0  0  0
  -11.5337    6.0113   -6.0964 H   0  0  0  0  0  0  0  0  0  0  0  0
  -11.8247    9.0783   -4.8893 C   0  0  0  0  0  0  0  0  0  0  0  0
  -11.4949    9.7613   -3.9073 O   0  0  0  0  0  0  0  0  0  0  0  0
  -12.6630    9.4598   -5.7187 O   0  0  0  0  0  0  0  0  0  0  0  0
  -12.8841    8.9130   -6.4468 H   0  0  0  0  0  0  0  0  0  0  0  0
   -4.8591    5.3323   -9.9298 S   0  0  0  0  0  0  0  0  0  0  0  0
   -3.0960    5.2690   -9.8114 C   0  0  0  0  0  0  0  0  0  0  0  0
   -2.6119    4.9729   -8.3910 C   0  0  0  0  0  0  0  0  0  0  0  0
   -3.5621    4.1352   -7.6895 N   0  0  0  0  0  0  0  0  0  0  0  0
   -3.3395    3.6310   -6.4788 C   0  0  0  0  0  0  0  0  0  0  0  0
   -2.2860    3.7551   -5.8876 O   0  0  0  0  0  0  0  0  0  0  0  0
   -4.4172    3.9282   -8.1314 H   0  0  0  0  0  0  0  0  0  0  0  0
   -4.4898    2.8738   -5.8515 C   0  0  0  0  0  0  0  0  0  0  0  0
   -5.8338    3.3527   -6.3894 C   0  0  0  0  0  0  0  0  0  0  0  0
   -6.9248    3.4101   -5.3240 C   0  0  0  0  0  0  0  0  0  0  0  0
   -6.3252    3.2358   -4.0185 N   0  0  0  0  0  0  0  0  0  0  0  0
   -5.8625    2.3278   -3.9753 H   0  0  0  0  0  0  0  0  0  0  0  0
   -7.0501    3.2824   -3.3024 H   0  0  0  0  0  0  0  0  0  0  0  0
   -7.9424    2.3258   -5.5498 C   0  0  0  0  0  0  0  0  0  0  0  0
   -8.6063    1.9064   -4.5773 O   0  0  0  0  0  0  0  0  0  0  0  0
   -8.0802    1.8844   -6.7025 O   0  0  0  0  0  0  0  0  0  0  0  0
   -7.5602    2.2293   -7.4015 H   0  0  0  0  0  0  0  0  0  0  0  0
   -1.2313    6.3790   -6.9855 N   0  0  0  0  0  0  0  0  0  0  0  0
   -2.3727    6.2675   -7.6557 C   0  0  0  0  0  0  0  0  0  0  0  0
   -3.1974    7.1556   -7.7001 O   0  0  0  0  0  0  0  0  0  0  0  0
   -0.6393    5.5950   -6.9207 H   0  0  0  0  0  0  0  0  0  0  0  0
   -0.8287    7.6133   -6.3476 C   0  0  0  0  0  0  0  0  0  0  0  0
   -0.6792    7.4868   -4.8468 C   0  0  0  0  0  0  0  0  0  0  0  0
   -0.0699    8.3703   -4.2096 O   0  0  0  0  0  0  0  0  0  0  0  0
   -1.1833    6.4917   -4.3053 O   0  0  0  0  0  0  0  0  0  0  0  0
   -1.6320    5.8531   -4.8238 H   0  0  0  0  0  0  0  0  0  0  0  0
 19 20  1  0  0  0
 20 23  1  0  0  0
 20 18  1  0  0  0
 23 24  2  0  0  0
 23 25  1  0  0  0
 18 17  1  0  0  0
 17 13  1  0  0  0
 13 14  2  0  0  0
 13 15  1  0  0  0
 15  3  1  0  0  0
  3  4  1  0  0  0
  3  2  1  0  0  0
  4  5  2  0  0  0
  4  6  1  0  0  0
  2  1  1  0  0  0
  1 27  1  0  0  0
  6  8  1  0  0  0
  8  9  1  0  0  0
  9 10  2  0  0  0
  9 11  1  0  0  0
 44 48  1  0  0  0
 44 45  1  0  0  0
 48 49  1  0  0  0
 49 50  2  0  0  0
 49 51  1  0  0  0
 45 46  2  0  0  0
 45 29  1  0  0  0
 29 30  1  0  0  0
 29 28  1  0  0  0
 30 31  1  0  0  0
 28 27  1  0  0  0
 36 40  1  0  0  0
 36 37  1  0  0  0
 36 35  1  0  0  0
 40 41  2  0  0  0
 40 42  1  0  0  0
 35 34  1  0  0  0
 34 31  1  0  0  0
 31 32  2  0  0  0
 19 21  1  0  0  0
 19 22  1  0  0  0
 25 26  1  0  0  0
 15 16  1  0  0  0
  6  7  1  0  0  0
 11 12  1  0  0  0
 44 47  1  0  0  0
 51 52  1  0  0  0
 30 33  1  0  0  0
 42 43  1  0  0  0
 37 38  1  0  0  0
 37 39  1  0  0  0
M  END
> <minimizedAffinity>
-7.59930

$$$$
4ZB8_GDS_A_300


 52 51  0  0  0  0  0  0  0  0999 V2000
   -1.8595    3.9221   -7.9926 S   0  0  0  0  0  0  0  0  0  0  0  0
   -3.2145    4.5937   -8.8932 C   0  0  0  0  0  0  0  0  0  0  0  0
   -4.3078    5.0663   -7.9362 C   0  0  0  0  0  0  0  0  0  0  0  0
   -5.1276    6.1415   -8.5964 C   0  0  0  0  0  0  0  0  0  0  0  0
   -6.3014    5.9657   -8.8600 O   0  0  0  0  0  0  0  0  0  0  0  0
   -4.5033    7.2783   -8.8737 N   0  0  0  0  0  0  0  0  0  0  0  0
   -3.5343    7.3488   -8.7146 H   0  0  0  0  0  0  0  0  0  0  0  0
   -5.2212    8.4182   -9.4067 C   0  0  0  0  0  0  0  0  0  0  0  0
   -5.8655    9.2545   -8.3270 C   0  0  0  0  0  0  0  0  0  0  0  0
   -7.0474    9.6171   -8.4811 O   0  0  0  0  0  0  0  0  0  0  0  0
   -5.1858    9.5533   -7.3275 O   0  0  0  0  0  0  0  0  0  0  0  0
   -4.3000    9.2562   -7.2575 H   0  0  0  0  0  0  0  0  0  0  0  0
   -5.6359    3.8580   -6.2820 C   0  0  0  0  0  0  0  0  0  0  0  0
   -5.3052    4.5894   -5.3705 O   0  0  0  0  0  0  0  0  0  0  0  0
   -5.1139    3.9405   -7.5021 N   0  0  0  0  0  0  0  0  0  0  0  0
   -5.2812    3.2073   -8.1374 H   0  0  0  0  0  0  0  0  0  0  0  0
   -6.6881    2.7883   -6.0718 C   0  0  0  0  0  0  0  0  0  0  0  0
   -6.9797    2.5736   -4.5936 C   0  0  0  0  0  0  0  0  0  0  0  0
   -9.0795    3.4963   -5.4133 N   0  0  0  0  0  0  0  0  0  0  0  0
   -8.3778    3.0708   -4.2217 C   0  0  0  0  0  0  0  0  0  0  0  0
  -10.0106    3.8266   -5.1598 H   0  0  0  0  0  0  0  0  0  0  0  0
   -9.1615    2.7105   -6.0584 H   0  0  0  0  0  0  0  0  0  0  0  0
   -8.2621    4.2184   -3.2539 C   0  0  0  0  0  0  0  0  0  0  0  0
   -9.2795    4.8824   -3.0015 O   0  0  0  0  0  0  0  0  0  0  0  0
   -7.1572    4.4698   -2.7517 O   0  0  0  0  0  0  0  0  0  0  0  0
   -6.4131    3.9434   -2.9689 H   0  0  0  0  0  0  0  0  0  0  0  0
   -1.6601    5.2441   -6.4734 S   0  0  0  0  0  0  0  0  0  0  0  0
   -0.0306    5.8719   -6.7511 C   0  0  0  0  0  0  0  0  0  0  0  0
    0.0323    7.3984   -6.6777 C   0  0  0  0  0  0  0  0  0  0  0  0
   -0.6420    7.8831   -5.4916 N   0  0  0  0  0  0  0  0  0  0  0  0
   -0.0002    8.3241   -4.4131 C   0  0  0  0  0  0  0  0  0  0  0  0
    1.2072    8.2803   -4.2907 O   0  0  0  0  0  0  0  0  0  0  0  0
   -1.6265    7.8864   -5.4828 H   0  0  0  0  0  0  0  0  0  0  0  0
   -0.8652    8.8997   -3.3129 C   0  0  0  0  0  0  0  0  0  0  0  0
   -1.1195   10.3884   -3.5228 C   0  0  0  0  0  0  0  0  0  0  0  0
   -2.5972   10.7636   -3.4584 C   0  0  0  0  0  0  0  0  0  0  0  0
   -3.3049    9.7778   -2.6698 N   0  0  0  0  0  0  0  0  0  0  0  0
   -3.2109    8.8612   -3.1073 H   0  0  0  0  0  0  0  0  0  0  0  0
   -4.2919   10.0296   -2.6168 H   0  0  0  0  0  0  0  0  0  0  0  0
   -3.1916   10.8118   -4.8392 C   0  0  0  0  0  0  0  0  0  0  0  0
   -3.9892   11.7312   -5.1234 O   0  0  0  0  0  0  0  0  0  0  0  0
   -2.8661    9.9262   -5.6469 O   0  0  0  0  0  0  0  0  0  0  0  0
   -2.2640    9.2559   -5.3897 H   0  0  0  0  0  0  0  0  0  0  0  0
   -0.9036    9.2752   -7.8863 N   0  0  0  0  0  0  0  0  0  0  0  0
   -0.5630    7.9920   -7.9296 C   0  0  0  0  0  0  0  0  0  0  0  0
   -0.7031    7.3087   -8.9218 O   0  0  0  0  0  0  0  0  0  0  0  0
   -0.8404    9.7553   -7.0291 H   0  0  0  0  0  0  0  0  0  0  0  0
   -1.3642    9.9910   -9.0559 C   0  0  0  0  0  0  0  0  0  0  0  0
   -2.0058   11.3214   -8.7254 C   0  0  0  0  0  0  0  0  0  0  0  0
   -3.1802   11.3536   -8.3038 O   0  0  0  0  0  0  0  0  0  0  0  0
   -1.3198   12.3414   -8.8878 O   0  0  0  0  0  0  0  0  0  0  0  0
   -0.4417   12.2696   -9.2068 H   0  0  0  0  0  0  0  0  0  0  0  0
 19 20  1  0  0  0
 20 23  1  0  0  0
 20 18  1  0  0  0
 23 24  2  0  0  0
 23 25  1  0  0  0
 18 17  1  0  0  0
 17 13  1  0  0  0
 13 14  2  0  0  0
 13 15  1  0  0  0
 15  3  1  0  0  0
  3  4  1  0  0  0
  3  2  1  0  0  0
  4  5  2  0  0  0
  4  6  1  0  0  0
  2  1  1  0  0  0
  1 27  1  0  0  0
  6  8  1  0  0  0
  8  9  1  0  0  0
  9 10  2  0  0  0
  9 11  1  0  0  0
 44 48  1  0  0  0
 44 45  1  0  0  0
 48 49  1  0  0  0
 49 50  2  0  0  0
 49 51  1  0  0  0
 45 46  2  0  0  0
 45 29  1  0  0  0
 29 30  1  0  0  0
 29 28  1  0  0  0
 30 31  1  0  0  0
 28 27  1  0  0  0
 36 40  1  0  0  0
 36 37  1  0  0  0
 36 35  1  0  0  0
 40 41  2  0  0  0
 40 42  1  0  0  0
 35 34  1  0  0  0
 34 31  1  0  0  0
 31 32  2  0  0  0
 19 21  1  0  0  0
 19 22  1  0  0  0
 25 26  1  0  0  0
 15 16  1  0  0  0
  6  7  1  0  0  0
 11 12  1  0  0  0
 44 47  1  0  0  0
 51 52  1  0  0  0
 30 33  1  0  0  0
 42 43  1  0  0  0
 37 38  1  0  0  0
 37 39  1  0  0  0
M  END
> <minimizedAffinity>
-7.49683

$$$$
4ZB8_GDS_A_300


 52 51  0  0  0  0  0  0  0  0999 V2000
   -5.9192    8.1548   -8.3943 S   0  0  0  0  0  0  0  0  0  0  0  0
   -4.1608    8.1005   -8.3363 C   0  0  0  0  0  0  0  0  0  0  0  0
   -3.6291    7.0360   -9.2949 C   0  0  0  0  0  0  0  0  0  0  0  0
   -2.7119    7.6752  -10.3020 C   0  0  0  0  0  0  0  0  0  0  0  0
   -1.9047    8.5217   -9.9703 O   0  0  0  0  0  0  0  0  0  0  0  0
   -2.8347    7.2694  -11.5587 N   0  0  0  0  0  0  0  0  0  0  0  0
   -3.5539    6.6401  -11.7952 H   0  0  0  0  0  0  0  0  0  0  0  0
   -1.9298    7.7353  -12.5897 C   0  0  0  0  0  0  0  0  0  0  0  0
   -1.1691    6.6083  -13.2464 C   0  0  0  0  0  0  0  0  0  0  0  0
   -0.7866    5.6569  -12.5388 O   0  0  0  0  0  0  0  0  0  0  0  0
   -0.9493    6.6789  -14.4699 O   0  0  0  0  0  0  0  0  0  0  0  0
   -1.2579    7.4158  -14.9596 H   0  0  0  0  0  0  0  0  0  0  0  0
   -2.8397    4.7406   -9.0344 C   0  0  0  0  0  0  0  0  0  0  0  0
   -3.4247    4.3467  -10.0233 O   0  0  0  0  0  0  0  0  0  0  0  0
   -2.9822    5.9712   -8.5512 N   0  0  0  0  0  0  0  0  0  0  0  0
   -2.6343    6.1680   -7.6515 H   0  0  0  0  0  0  0  0  0  0  0  0
   -1.8920    3.8286   -8.2823 C   0  0  0  0  0  0  0  0  0  0  0  0
   -0.9413    4.6194   -7.3951 C   0  0  0  0  0  0  0  0  0  0  0  0
   -2.6127    3.8542   -5.7973 N   0  0  0  0  0  0  0  0  0  0  0  0
   -1.3218    4.4963   -5.9187 C   0  0  0  0  0  0  0  0  0  0  0  0
   -2.8615    3.7747   -4.8113 H   0  0  0  0  0  0  0  0  0  0  0  0
   -2.5701    2.9239   -6.2133 H   0  0  0  0  0  0  0  0  0  0  0  0
   -1.3667    5.8662   -5.2954 C   0  0  0  0  0  0  0  0  0  0  0  0
   -1.4089    5.9506   -4.0582 O   0  0  0  0  0  0  0  0  0  0  0  0
   -1.3723    6.8611   -6.0347 O   0  0  0  0  0  0  0  0  0  0  0  0
   -1.3392    6.7538   -6.9649 H   0  0  0  0  0  0  0  0  0  0  0  0
   -6.4294    6.4169   -7.4915 S   0  0  0  0  0  0  0  0  0  0  0  0
   -8.0487    6.7857   -6.8849 C   0  0  0  0  0  0  0  0  0  0  0  0
   -8.3258    6.1487   -5.5222 C   0  0  0  0  0  0  0  0  0  0  0  0
   -8.2614    4.7047   -5.6084 N   0  0  0  0  0  0  0  0  0  0  0  0
   -7.5242    3.9547   -4.7938 C   0  0  0  0  0  0  0  0  0  0  0  0
   -6.7717    4.4165   -3.9600 O   0  0  0  0  0  0  0  0  0  0  0  0
   -8.7906    4.2547   -6.3060 H   0  0  0  0  0  0  0  0  0  0  0  0
   -7.6681    2.4570   -4.9558 C   0  0  0  0  0  0  0  0  0  0  0  0
   -8.6858    2.1068   -6.0358 C   0  0  0  0  0  0  0  0  0  0  0  0
   -9.8820    1.3211   -5.5063 C   0  0  0  0  0  0  0  0  0  0  0  0
  -10.3874    0.4597   -6.5537 N   0  0  0  0  0  0  0  0  0  0  0  0
  -10.6845    1.0277   -7.3472 H   0  0  0  0  0  0  0  0  0  0  0  0
  -11.1819   -0.0740   -6.2012 H   0  0  0  0  0  0  0  0  0  0  0  0
  -10.9747    2.2551   -5.0638 C   0  0  0  0  0  0  0  0  0  0  0  0
  -10.7557    3.0359   -4.1126 O   0  0  0  0  0  0  0  0  0  0  0  0
  -12.0612    2.2095   -5.6639 O   0  0  0  0  0  0  0  0  0  0  0  0
  -12.1804    1.6076   -6.3720 H   0  0  0  0  0  0  0  0  0  0  0  0
  -10.4165    7.3266   -5.8390 N   0  0  0  0  0  0  0  0  0  0  0  0
   -9.6670    6.6093   -5.0094 C   0  0  0  0  0  0  0  0  0  0  0  0
  -10.0258    6.3144   -3.8891 O   0  0  0  0  0  0  0  0  0  0  0  0
  -10.0377    7.6013   -6.7052 H   0  0  0  0  0  0  0  0  0  0  0  0
  -11.7705    7.7177   -5.5128 C   0  0  0  0  0  0  0  0  0  0  0  0
  -11.8787    9.1516   -5.0408 C   0  0  0  0  0  0  0  0  0  0  0  0
  -11.4351    9.4679   -3.9178 O   0  0  0  0  0  0  0  0  0  0  0  0
  -12.4109    9.9664   -5.8091 O   0  0  0  0  0  0  0  0  0  0  0  0
  -12.7300    9.6839   -6.6436 H   0  0  0  0  0  0  0  0  0  0  0  0
 19 20  1  0  0  0
 20 23  1  0  0  0
 20 18  1  0  0  0
 23 24  2  0  0  0
 23 25  1  0  0  0
 18 17  1  0  0  0
 17 13  1  0  0  0
 13 14  2  0  0  0
 13 15  1  0  0  0
 15  3  1  0  0  0
  3  4  1  0  0  0
  3  2  1  0  0  0
  4  5  2  0  0  0
  4  6  1  0  0  0
  2  1  1  0  0  0
  1 27  1  0  0  0
  6  8  1  0  0  0
  8  9  1  0  0  0
  9 10  2  0  0  0
  9 11  1  0  0  0
 44 48  1  0  0  0
 44 45  1  0  0  0
 48 49  1  0  0  0
 49 50  2  0  0  0
 49 51  1  0  0  0
 45 46  2  0  0  0
 45 29  1  0  0  0
 29 30  1  0  0  0
 29 28  1  0  0  0
 30 31  1  0  0  0
 28 27  1  0  0  0
 36 40  1  0  0  0
 36 37  1  0  0  0
 36 35  1  0  0  0
 40 41  2  0  0  0
 40 42  1  0  0  0
 35 34  1  0  0  0
 34 31  1  0  0  0
 31 32  2  0  0  0
 19 21  1  0  0  0
 19 22  1  0  0  0
 25 26  1  0  0  0
 15 16  1  0  0  0
  6  7  1  0  0  0
 11 12  1  0  0  0
 44 47  1  0  0  0
 51 52  1  0  0  0
 30 33  1  0  0  0
 42 43  1  0  0  0
 37 38  1  0  0  0
 37 39  1  0  0  0
M  END
> <minimizedAffinity>
-7.48248

$$$$
