4DJV_0KM_A_501


 30 33  0  0  0  0  0  0  0  0999 V2000
   22.7883   13.0882   22.0220 O   0  0  0  0  0  0  0  0  0  0  0  0
   22.6694   11.9224   22.3446 C   0  0  0  0  0  0  0  0  0  0  0  0
   22.4033   10.7093   21.3740 C   0  0  0  0  0  0  0  0  0  0  0  0
   22.5332    9.5448   22.3114 N   0  0  0  0  0  0  0  0  0  0  0  0
   22.6906   10.0010   23.5645 C   0  0  0  0  0  0  0  0  0  0  0  0
   22.8161   11.4187   23.6162 N   0  0  0  0  0  0  0  0  0  0  0  0
   22.7903    9.2383   24.6520 N   0  0  0  0  0  0  0  0  0  0  0  0
   23.0642   12.2497   24.8009 C   0  0  0  0  0  0  0  0  0  0  0  0
   22.5071    8.5963   22.0491 H   0  0  0  0  0  0  0  0  0  0  0  0
   22.6980    8.2610   24.5779 H   0  0  0  0  0  0  0  0  0  0  0  0
   20.9754   10.7704   20.7958 C   0  0  0  0  0  0  0  0  0  0  0  0
   20.2195    9.6105   20.6550 C   0  0  0  0  0  0  0  0  0  0  0  0
   18.9220    9.6595   20.1476 C   0  0  0  0  0  0  0  0  0  0  0  0
   18.3654   10.8632   19.7818 C   0  0  0  0  0  0  0  0  0  0  0  0
   19.1025   12.0255   19.9096 C   0  0  0  0  0  0  0  0  0  0  0  0
   20.4031   11.9808   20.4071 C   0  0  0  0  0  0  0  0  0  0  0  0
   23.5219   10.6971   20.3148 C   0  0  0  0  0  0  0  0  0  0  0  0
   23.2399   10.8805   18.9635 C   0  0  0  0  0  0  0  0  0  0  0  0
   24.2637   11.0109   18.0369 C   0  0  0  0  0  0  0  0  0  0  0  0
   25.5818   10.9459   18.4486 C   0  0  0  0  0  0  0  0  0  0  0  0
   25.8962   10.7313   19.7944 C   0  0  0  0  0  0  0  0  0  0  0  0
   24.8534   10.6017   20.7198 C   0  0  0  0  0  0  0  0  0  0  0  0
   29.8488   10.6630   21.4579 C   0  0  0  0  0  0  0  0  0  0  0  0
   27.7143    9.6040   21.0840 C   0  0  0  0  0  0  0  0  0  0  0  0
   27.3082   10.6519   20.2560 C   0  0  0  0  0  0  0  0  0  0  0  0
   28.2185   11.6803   20.0005 C   0  0  0  0  0  0  0  0  0  0  0  0
   29.4750   11.6843   20.5970 C   0  0  0  0  0  0  0  0  0  0  0  0
   28.9673    9.6119   21.6860 C   0  0  0  0  0  0  0  0  0  0  0  0
   29.1940    8.5368   22.5107 O   0  0  0  0  0  0  0  0  0  0  0  0
   30.0760    8.7216   23.6289 C   0  0  0  0  0  0  0  0  0  0  0  0
 19 20  2  0  0  0
 19 18  1  0  0  0
 20 21  1  0  0  0
 18 17  2  0  0  0
 21 25  1  0  0  0
 21 22  2  0  0  0
 26 25  2  0  0  0
 26 27  1  0  0  0
 14 15  2  0  0  0
 14 13  1  0  0  0
 15 16  1  0  0  0
 13 12  2  0  0  0
 25 24  1  0  0  0
 17 22  1  0  0  0
 17  3  1  0  0  0
 27 23  2  0  0  0
 16 11  2  0  0  0
 12 11  1  0  0  0
 11  3  1  0  0  0
 24 28  2  0  0  0
 23 28  1  0  0  0
  3  4  1  0  0  0
  3  2  1  0  0  0
 28 29  1  0  0  0
  1  2  2  0  0  0
  4  5  1  0  0  0
  2  6  1  0  0  0
 29 30  1  0  0  0
  5  6  1  0  0  0
  5  7  2  0  0  0
  6  8  1  0  0  0
  4  9  1  0  0  0
  7 10  1  0  0  0
M  END
> <minimizedAffinity>
-10.30637

$$$$
4DJV_0KM_A_501


 30 33  0  0  0  0  0  0  0  0999 V2000
   22.1762   13.4036   22.6551 O   0  0  0  0  0  0  0  0  0  0  0  0
   22.1833   12.1902   22.7243 C   0  0  0  0  0  0  0  0  0  0  0  0
   22.0344   11.1869   21.5177 C   0  0  0  0  0  0  0  0  0  0  0  0
   22.2958    9.8717   22.1910 N   0  0  0  0  0  0  0  0  0  0  0  0
   22.4190   10.0684   23.5136 C   0  0  0  0  0  0  0  0  0  0  0  0
   22.3963   11.4488   23.8632 N   0  0  0  0  0  0  0  0  0  0  0  0
   22.6101    9.1091   24.4177 N   0  0  0  0  0  0  0  0  0  0  0  0
   22.5698   12.0338   25.1987 C   0  0  0  0  0  0  0  0  0  0  0  0
   22.3659    9.0019   21.7351 H   0  0  0  0  0  0  0  0  0  0  0  0
   22.6195    8.1649   24.1391 H   0  0  0  0  0  0  0  0  0  0  0  0
   20.6015   11.2185   20.9498 C   0  0  0  0  0  0  0  0  0  0  0  0
   20.1475   10.1985   20.1191 C   0  0  0  0  0  0  0  0  0  0  0  0
   18.8482   10.2120   19.6142 C   0  0  0  0  0  0  0  0  0  0  0  0
   17.9896   11.2374   19.9364 C   0  0  0  0  0  0  0  0  0  0  0  0
   18.4239   12.2622   20.7560 C   0  0  0  0  0  0  0  0  0  0  0  0
   19.7245   12.2584   21.2555 C   0  0  0  0  0  0  0  0  0  0  0  0
   23.1360   11.5143   20.4919 C   0  0  0  0  0  0  0  0  0  0  0  0
   22.8425   12.1766   19.3025 C   0  0  0  0  0  0  0  0  0  0  0  0
   23.8575   12.5931   18.4539 C   0  0  0  0  0  0  0  0  0  0  0  0
   25.1775   12.3405   18.7778 C   0  0  0  0  0  0  0  0  0  0  0  0
   25.5019   11.6500   19.9500 C   0  0  0  0  0  0  0  0  0  0  0  0
   24.4680   11.2352   20.7983 C   0  0  0  0  0  0  0  0  0  0  0  0
   29.6818   11.0368   20.6895 C   0  0  0  0  0  0  0  0  0  0  0  0
   27.6575   12.3033   21.0296 C   0  0  0  0  0  0  0  0  0  0  0  0
   26.9158   11.3628   20.3127 C   0  0  0  0  0  0  0  0  0  0  0  0
   27.5769   10.2299   19.8322 C   0  0  0  0  0  0  0  0  0  0  0  0
   28.9459   10.0708   20.0190 C   0  0  0  0  0  0  0  0  0  0  0  0
   29.0272   12.1479   21.2097 C   0  0  0  0  0  0  0  0  0  0  0  0
   29.6187   13.1838   21.8913 O   0  0  0  0  0  0  0  0  0  0  0  0
   28.7853   14.2762   22.3092 C   0  0  0  0  0  0  0  0  0  0  0  0
 19 20  2  0  0  0
 19 18  1  0  0  0
 20 21  1  0  0  0
 18 17  2  0  0  0
 21 25  1  0  0  0
 21 22  2  0  0  0
 26 25  2  0  0  0
 26 27  1  0  0  0
 14 15  2  0  0  0
 14 13  1  0  0  0
 15 16  1  0  0  0
 13 12  2  0  0  0
 25 24  1  0  0  0
 17 22  1  0  0  0
 17  3  1  0  0  0
 27 23  2  0  0  0
 16 11  2  0  0  0
 12 11  1  0  0  0
 11  3  1  0  0  0
 24 28  2  0  0  0
 23 28  1  0  0  0
  3  4  1  0  0  0
  3  2  1  0  0  0
 28 29  1  0  0  0
  1  2  2  0  0  0
  4  5  1  0  0  0
  2  6  1  0  0  0
 29 30  1  0  0  0
  5  6  1  0  0  0
  5  7  2  0  0  0
  6  8  1  0  0  0
  4  9  1  0  0  0
  7 10  1  0  0  0
M  END
> <minimizedAffinity>
-9.43645

$$$$
4DJV_0KM_A_501


 30 33  0  0  0  0  0  0  0  0999 V2000
   18.7100   13.5798   23.8991 O   0  0  0  0  0  0  0  0  0  0  0  0
   19.1100   12.4814   24.2320 C   0  0  0  0  0  0  0  0  0  0  0  0
   18.6259   11.0980   23.6523 C   0  0  0  0  0  0  0  0  0  0  0  0
   19.5864   10.1491   24.3068 N   0  0  0  0  0  0  0  0  0  0  0  0
   20.3511   10.8252   25.1792 C   0  0  0  0  0  0  0  0  0  0  0  0
   20.1198   12.2297   25.1316 N   0  0  0  0  0  0  0  0  0  0  0  0
   21.2789   10.2838   25.9669 N   0  0  0  0  0  0  0  0  0  0  0  0
   20.8168   13.2749   25.8915 C   0  0  0  0  0  0  0  0  0  0  0  0
   19.6465    9.1833   24.1252 H   0  0  0  0  0  0  0  0  0  0  0  0
   21.4107    9.3082   25.9735 H   0  0  0  0  0  0  0  0  0  0  0  0
   17.1835   10.7884   24.1003 C   0  0  0  0  0  0  0  0  0  0  0  0
   16.7618    9.4727   24.2664 C   0  0  0  0  0  0  0  0  0  0  0  0
   15.4639    9.1851   24.6863 C   0  0  0  0  0  0  0  0  0  0  0  0
   14.5782   10.2044   24.9489 C   0  0  0  0  0  0  0  0  0  0  0  0
   14.9770   11.5175   24.7847 C   0  0  0  0  0  0  0  0  0  0  0  0
   16.2700   11.8101   24.3561 C   0  0  0  0  0  0  0  0  0  0  0  0
   18.8284   11.1282   22.1255 C   0  0  0  0  0  0  0  0  0  0  0  0
   17.7616   11.3529   21.2590 C   0  0  0  0  0  0  0  0  0  0  0  0
   17.9762   11.5205   19.8989 C   0  0  0  0  0  0  0  0  0  0  0  0
   19.2586   11.4522   19.3872 C   0  0  0  0  0  0  0  0  0  0  0  0
   20.3466   11.1968   20.2280 C   0  0  0  0  0  0  0  0  0  0  0  0
   20.1166   11.0298   21.5991 C   0  0  0  0  0  0  0  0  0  0  0  0
   24.1878   10.9383   18.3380 C   0  0  0  0  0  0  0  0  0  0  0  0
   22.3598   12.2566   19.1970 C   0  0  0  0  0  0  0  0  0  0  0  0
   21.7331   11.1132   19.6955 C   0  0  0  0  0  0  0  0  0  0  0  0
   22.3847    9.8866   19.5460 C   0  0  0  0  0  0  0  0  0  0  0  0
   23.5990    9.8021   18.8732 C   0  0  0  0  0  0  0  0  0  0  0  0
   23.5698   12.1710   18.5180 C   0  0  0  0  0  0  0  0  0  0  0  0
   24.0283   13.3770   18.0461 O   0  0  0  0  0  0  0  0  0  0  0  0
   24.3894   14.3813   19.0070 C   0  0  0  0  0  0  0  0  0  0  0  0
 19 20  2  0  0  0
 19 18  1  0  0  0
 20 21  1  0  0  0
 18 17  2  0  0  0
 21 25  1  0  0  0
 21 22  2  0  0  0
 26 25  2  0  0  0
 26 27  1  0  0  0
 14 15  2  0  0  0
 14 13  1  0  0  0
 15 16  1  0  0  0
 13 12  2  0  0  0
 25 24  1  0  0  0
 17 22  1  0  0  0
 17  3  1  0  0  0
 27 23  2  0  0  0
 16 11  2  0  0  0
 12 11  1  0  0  0
 11  3  1  0  0  0
 24 28  2  0  0  0
 23 28  1  0  0  0
  3  4  1  0  0  0
  3  2  1  0  0  0
 28 29  1  0  0  0
  1  2  2  0  0  0
  4  5  1  0  0  0
  2  6  1  0  0  0
 29 30  1  0  0  0
  5  6  1  0  0  0
  5  7  2  0  0  0
  6  8  1  0  0  0
  4  9  1  0  0  0
  7 10  1  0  0  0
M  END
> <minimizedAffinity>
-9.28048

$$$$
4DJV_0KM_A_501


 30 33  0  0  0  0  0  0  0  0999 V2000
   25.1543   13.8516   20.9805 O   0  0  0  0  0  0  0  0  0  0  0  0
   25.6248   13.7474   19.8647 C   0  0  0  0  0  0  0  0  0  0  0  0
   25.9512   12.4012   19.1127 C   0  0  0  0  0  0  0  0  0  0  0  0
   26.3267   12.9054   17.7502 N   0  0  0  0  0  0  0  0  0  0  0  0
   26.3521   14.2479   17.7667 C   0  0  0  0  0  0  0  0  0  0  0  0
   25.8990   14.7859   19.0051 N   0  0  0  0  0  0  0  0  0  0  0  0
   26.6921   15.0217   16.7373 N   0  0  0  0  0  0  0  0  0  0  0  0
   25.7317   16.2020   19.3546 C   0  0  0  0  0  0  0  0  0  0  0  0
   26.5235   12.3411   16.9678 H   0  0  0  0  0  0  0  0  0  0  0  0
   27.0011   14.6142   15.8961 H   0  0  0  0  0  0  0  0  0  0  0  0
   27.1505   11.6842   19.7641 C   0  0  0  0  0  0  0  0  0  0  0  0
   28.1027   12.4053   20.4782 C   0  0  0  0  0  0  0  0  0  0  0  0
   29.1815   11.7623   21.0832 C   0  0  0  0  0  0  0  0  0  0  0  0
   29.3179   10.3968   20.9867 C   0  0  0  0  0  0  0  0  0  0  0  0
   28.3851    9.6640   20.2772 C   0  0  0  0  0  0  0  0  0  0  0  0
   27.3103   10.3028   19.6626 C   0  0  0  0  0  0  0  0  0  0  0  0
   24.6588   11.5646   19.0585 C   0  0  0  0  0  0  0  0  0  0  0  0
   24.6718   10.2415   18.6241 C   0  0  0  0  0  0  0  0  0  0  0  0
   23.5332    9.4546   18.7140 C   0  0  0  0  0  0  0  0  0  0  0  0
   22.3642    9.9852   19.2269 C   0  0  0  0  0  0  0  0  0  0  0  0
   22.3117   11.3196   19.6422 C   0  0  0  0  0  0  0  0  0  0  0  0
   23.4682   12.1032   19.5465 C   0  0  0  0  0  0  0  0  0  0  0  0
   18.7214   12.7520   21.5003 C   0  0  0  0  0  0  0  0  0  0  0  0
   21.1219   12.7947   21.2694 C   0  0  0  0  0  0  0  0  0  0  0  0
   21.0616   11.9106   20.1907 C   0  0  0  0  0  0  0  0  0  0  0  0
   19.8031   11.4965   19.7480 C   0  0  0  0  0  0  0  0  0  0  0  0
   18.6462   11.9133   20.3980 C   0  0  0  0  0  0  0  0  0  0  0  0
   19.9661   13.2053   21.9236 C   0  0  0  0  0  0  0  0  0  0  0  0
   20.1987   14.0329   22.9952 O   0  0  0  0  0  0  0  0  0  0  0  0
   21.5196   14.5745   23.1519 C   0  0  0  0  0  0  0  0  0  0  0  0
 19 20  2  0  0  0
 19 18  1  0  0  0
 20 21  1  0  0  0
 18 17  2  0  0  0
 21 25  1  0  0  0
 21 22  2  0  0  0
 26 25  2  0  0  0
 26 27  1  0  0  0
 14 15  2  0  0  0
 14 13  1  0  0  0
 15 16  1  0  0  0
 13 12  2  0  0  0
 25 24  1  0  0  0
 17 22  1  0  0  0
 17  3  1  0  0  0
 27 23  2  0  0  0
 16 11  2  0  0  0
 12 11  1  0  0  0
 11  3  1  0  0  0
 24 28  2  0  0  0
 23 28  1  0  0  0
  3  4  1  0  0  0
  3  2  1  0  0  0
 28 29  1  0  0  0
  1  2  2  0  0  0
  4  5  1  0  0  0
  2  6  1  0  0  0
 29 30  1  0  0  0
  5  6  1  0  0  0
  5  7  2  0  0  0
  6  8  1  0  0  0
  4  9  1  0  0  0
  7 10  1  0  0  0
M  END
> <minimizedAffinity>
-9.24735

$$$$
4DJV_0KM_A_501


 30 33  0  0  0  0  0  0  0  0999 V2000
   26.0218   13.1898   21.8732 O   0  0  0  0  0  0  0  0  0  0  0  0
   25.6198   13.7477   20.8710 C   0  0  0  0  0  0  0  0  0  0  0  0
   24.2059   13.5562   20.2012 C   0  0  0  0  0  0  0  0  0  0  0  0
   24.2353   14.6140   19.1374 N   0  0  0  0  0  0  0  0  0  0  0  0
   25.4522   15.1812   19.1110 C   0  0  0  0  0  0  0  0  0  0  0  0
   26.2935   14.7143   20.1610 N   0  0  0  0  0  0  0  0  0  0  0  0
   25.8401   16.1260   18.2560 N   0  0  0  0  0  0  0  0  0  0  0  0
   27.6564   15.1597   20.4771 C   0  0  0  0  0  0  0  0  0  0  0  0
   23.4816   14.8542   18.5513 H   0  0  0  0  0  0  0  0  0  0  0  0
   25.2312   16.4240   17.5421 H   0  0  0  0  0  0  0  0  0  0  0  0
   24.0858   12.1594   19.5596 C   0  0  0  0  0  0  0  0  0  0  0  0
   23.8035   11.0438   20.3421 C   0  0  0  0  0  0  0  0  0  0  0  0
   23.6779    9.7800   19.7674 C   0  0  0  0  0  0  0  0  0  0  0  0
   23.8270    9.6179   18.4094 C   0  0  0  0  0  0  0  0  0  0  0  0
   24.1128   10.7132   17.6163 C   0  0  0  0  0  0  0  0  0  0  0  0
   24.2487   11.9769   18.1870 C   0  0  0  0  0  0  0  0  0  0  0  0
   23.1338   13.8661   21.2631 C   0  0  0  0  0  0  0  0  0  0  0  0
   23.3344   14.8512   22.2268 C   0  0  0  0  0  0  0  0  0  0  0  0
   22.3105   15.2210   23.0863 C   0  0  0  0  0  0  0  0  0  0  0  0
   21.0779   14.6009   23.0013 C   0  0  0  0  0  0  0  0  0  0  0  0
   20.8558   13.5866   22.0645 C   0  0  0  0  0  0  0  0  0  0  0  0
   21.8975   13.2228   21.2024 C   0  0  0  0  0  0  0  0  0  0  0  0
   16.9696   11.8667   21.4863 C   0  0  0  0  0  0  0  0  0  0  0  0
   19.3240   11.9459   20.9686 C   0  0  0  0  0  0  0  0  0  0  0  0
   19.5385   12.9030   21.9619 C   0  0  0  0  0  0  0  0  0  0  0  0
   18.4507   13.2931   22.7467 C   0  0  0  0  0  0  0  0  0  0  0  0
   17.1801   12.7797   22.5092 C   0  0  0  0  0  0  0  0  0  0  0  0
   18.0526   11.4384   20.7264 C   0  0  0  0  0  0  0  0  0  0  0  0
   18.0005   10.5455   19.6836 O   0  0  0  0  0  0  0  0  0  0  0  0
   18.0540    9.1445   19.9950 C   0  0  0  0  0  0  0  0  0  0  0  0
 19 20  2  0  0  0
 19 18  1  0  0  0
 20 21  1  0  0  0
 18 17  2  0  0  0
 21 25  1  0  0  0
 21 22  2  0  0  0
 26 25  2  0  0  0
 26 27  1  0  0  0
 14 15  2  0  0  0
 14 13  1  0  0  0
 15 16  1  0  0  0
 13 12  2  0  0  0
 25 24  1  0  0  0
 17 22  1  0  0  0
 17  3  1  0  0  0
 27 23  2  0  0  0
 16 11  2  0  0  0
 12 11  1  0  0  0
 11  3  1  0  0  0
 24 28  2  0  0  0
 23 28  1  0  0  0
  3  4  1  0  0  0
  3  2  1  0  0  0
 28 29  1  0  0  0
  1  2  2  0  0  0
  4  5  1  0  0  0
  2  6  1  0  0  0
 29 30  1  0  0  0
  5  6  1  0  0  0
  5  7  2  0  0  0
  6  8  1  0  0  0
  4  9  1  0  0  0
  7 10  1  0  0  0
M  END
> <minimizedAffinity>
-8.95750

$$$$
4DJV_0KM_A_501


 30 33  0  0  0  0  0  0  0  0999 V2000
   25.4590   13.9710   21.1166 O   0  0  0  0  0  0  0  0  0  0  0  0
   25.8549   13.7952   19.9810 C   0  0  0  0  0  0  0  0  0  0  0  0
   26.1739   12.4052   19.3098 C   0  0  0  0  0  0  0  0  0  0  0  0
   26.4378   12.8142   17.8904 N   0  0  0  0  0  0  0  0  0  0  0  0
   26.4191   14.1542   17.8053 C   0  0  0  0  0  0  0  0  0  0  0  0
   26.0344   14.7722   19.0294 N   0  0  0  0  0  0  0  0  0  0  0  0
   26.6613   14.8564   16.6997 N   0  0  0  0  0  0  0  0  0  0  0  0
   25.8439   16.2057   19.2837 C   0  0  0  0  0  0  0  0  0  0  0  0
   26.5992   12.1976   17.1401 H   0  0  0  0  0  0  0  0  0  0  0  0
   26.9253   14.3947   15.8713 H   0  0  0  0  0  0  0  0  0  0  0  0
   27.4386   11.7744   19.9258 C   0  0  0  0  0  0  0  0  0  0  0  0
   28.4162   12.5752   20.5083 C   0  0  0  0  0  0  0  0  0  0  0  0
   29.5552   12.0113   21.0812 C   0  0  0  0  0  0  0  0  0  0  0  0
   29.7270   10.6464   21.0834 C   0  0  0  0  0  0  0  0  0  0  0  0
   28.7693    9.8347   20.5051 C   0  0  0  0  0  0  0  0  0  0  0  0
   27.6339   10.3939   19.9227 C   0  0  0  0  0  0  0  0  0  0  0  0
   24.9097   11.5306   19.4099 C   0  0  0  0  0  0  0  0  0  0  0  0
   24.5576   10.6496   18.3904 C   0  0  0  0  0  0  0  0  0  0  0  0
   23.5010    9.7655   18.5510 C   0  0  0  0  0  0  0  0  0  0  0  0
   22.7754    9.7609   19.7277 C   0  0  0  0  0  0  0  0  0  0  0  0
   23.0855   10.6552   20.7573 C   0  0  0  0  0  0  0  0  0  0  0  0
   24.1546   11.5424   20.5828 C   0  0  0  0  0  0  0  0  0  0  0  0
   21.0578   10.3834   24.5268 C   0  0  0  0  0  0  0  0  0  0  0  0
   22.8727   11.2256   23.1798 C   0  0  0  0  0  0  0  0  0  0  0  0
   22.3125   10.6701   22.0282 C   0  0  0  0  0  0  0  0  0  0  0  0
   21.0856   10.0123   22.1439 C   0  0  0  0  0  0  0  0  0  0  0  0
   20.4667    9.8708   23.3814 C   0  0  0  0  0  0  0  0  0  0  0  0
   22.2579   11.0776   24.4178 C   0  0  0  0  0  0  0  0  0  0  0  0
   22.9608   11.6368   25.4573 O   0  0  0  0  0  0  0  0  0  0  0  0
   22.7441   13.0272   25.7442 C   0  0  0  0  0  0  0  0  0  0  0  0
 19 20  2  0  0  0
 19 18  1  0  0  0
 20 21  1  0  0  0
 18 17  2  0  0  0
 21 25  1  0  0  0
 21 22  2  0  0  0
 26 25  2  0  0  0
 26 27  1  0  0  0
 14 15  2  0  0  0
 14 13  1  0  0  0
 15 16  1  0  0  0
 13 12  2  0  0  0
 25 24  1  0  0  0
 17 22  1  0  0  0
 17  3  1  0  0  0
 27 23  2  0  0  0
 16 11  2  0  0  0
 12 11  1  0  0  0
 11  3  1  0  0  0
 24 28  2  0  0  0
 23 28  1  0  0  0
  3  4  1  0  0  0
  3  2  1  0  0  0
 28 29  1  0  0  0
  1  2  2  0  0  0
  4  5  1  0  0  0
  2  6  1  0  0  0
 29 30  1  0  0  0
  5  6  1  0  0  0
  5  7  2  0  0  0
  6  8  1  0  0  0
  4  9  1  0  0  0
  7 10  1  0  0  0
M  END
> <minimizedAffinity>
-8.86722

$$$$
4DJV_0KM_A_501


 30 33  0  0  0  0  0  0  0  0999 V2000
   21.9564   10.5114   22.7215 O   0  0  0  0  0  0  0  0  0  0  0  0
   22.2460   11.6481   22.4035 C   0  0  0  0  0  0  0  0  0  0  0  0
   21.9125   12.3453   21.0298 C   0  0  0  0  0  0  0  0  0  0  0  0
   22.3521   13.7548   21.2974 N   0  0  0  0  0  0  0  0  0  0  0  0
   22.9413   13.8132   22.5027 C   0  0  0  0  0  0  0  0  0  0  0  0
   22.8601   12.5791   23.2088 N   0  0  0  0  0  0  0  0  0  0  0  0
   23.4895   14.9032   23.0369 N   0  0  0  0  0  0  0  0  0  0  0  0
   23.3336   12.2971   24.5697 C   0  0  0  0  0  0  0  0  0  0  0  0
   22.2281   14.5164   20.6860 H   0  0  0  0  0  0  0  0  0  0  0  0
   23.5281   15.7393   22.5186 H   0  0  0  0  0  0  0  0  0  0  0  0
   22.7478   11.7354   19.8864 C   0  0  0  0  0  0  0  0  0  0  0  0
   23.3840   12.5561   18.9600 C   0  0  0  0  0  0  0  0  0  0  0  0
   24.1538   12.0127   17.9326 C   0  0  0  0  0  0  0  0  0  0  0  0
   24.3005   10.6493   17.8228 C   0  0  0  0  0  0  0  0  0  0  0  0
   23.6721    9.8176   18.7304 C   0  0  0  0  0  0  0  0  0  0  0  0
   22.8938   10.3552   19.7533 C   0  0  0  0  0  0  0  0  0  0  0  0
   20.3884   12.2694   20.8187 C   0  0  0  0  0  0  0  0  0  0  0  0
   19.8444   11.6681   19.6865 C   0  0  0  0  0  0  0  0  0  0  0  0
   18.4752   11.4773   19.5737 C   0  0  0  0  0  0  0  0  0  0  0  0
   17.6324   11.8975   20.5858 C   0  0  0  0  0  0  0  0  0  0  0  0
   18.1464   12.5326   21.7209 C   0  0  0  0  0  0  0  0  0  0  0  0
   19.5305   12.7189   21.8226 C   0  0  0  0  0  0  0  0  0  0  0  0
   15.4292   13.5150   24.8904 C   0  0  0  0  0  0  0  0  0  0  0  0
   17.5839   12.7263   24.1468 C   0  0  0  0  0  0  0  0  0  0  0  0
   17.2553   12.9977   22.8175 C   0  0  0  0  0  0  0  0  0  0  0  0
   16.0142   13.5810   22.5516 C   0  0  0  0  0  0  0  0  0  0  0  0
   15.1116   13.8355   23.5787 C   0  0  0  0  0  0  0  0  0  0  0  0
   16.6787   12.9737   25.1725 C   0  0  0  0  0  0  0  0  0  0  0  0
   17.1333   12.6045   26.4153 O   0  0  0  0  0  0  0  0  0  0  0  0
   18.5532   12.5287   26.6165 C   0  0  0  0  0  0  0  0  0  0  0  0
 19 20  2  0  0  0
 19 18  1  0  0  0
 20 21  1  0  0  0
 18 17  2  0  0  0
 21 25  1  0  0  0
 21 22  2  0  0  0
 26 25  2  0  0  0
 26 27  1  0  0  0
 14 15  2  0  0  0
 14 13  1  0  0  0
 15 16  1  0  0  0
 13 12  2  0  0  0
 25 24  1  0  0  0
 17 22  1  0  0  0
 17  3  1  0  0  0
 27 23  2  0  0  0
 16 11  2  0  0  0
 12 11  1  0  0  0
 11  3  1  0  0  0
 24 28  2  0  0  0
 23 28  1  0  0  0
  3  4  1  0  0  0
  3  2  1  0  0  0
 28 29  1  0  0  0
  1  2  2  0  0  0
  4  5  1  0  0  0
  2  6  1  0  0  0
 29 30  1  0  0  0
  5  6  1  0  0  0
  5  7  2  0  0  0
  6  8  1  0  0  0
  4  9  1  0  0  0
  7 10  1  0  0  0
M  END
> <minimizedAffinity>
-8.86580

$$$$
4DJV_0KM_A_501


 30 33  0  0  0  0  0  0  0  0999 V2000
   28.2222   10.8426   19.5811 O   0  0  0  0  0  0  0  0  0  0  0  0
   27.7549   11.5834   20.4238 C   0  0  0  0  0  0  0  0  0  0  0  0
   26.5982   12.6315   20.2053 C   0  0  0  0  0  0  0  0  0  0  0  0
   26.3486   13.0958   21.6102 N   0  0  0  0  0  0  0  0  0  0  0  0
   27.2609   12.5446   22.4270 C   0  0  0  0  0  0  0  0  0  0  0  0
   28.0936   11.6034   21.7569 N   0  0  0  0  0  0  0  0  0  0  0  0
   27.3606   12.7777   23.7346 N   0  0  0  0  0  0  0  0  0  0  0  0
   29.1479   10.7677   22.3449 C   0  0  0  0  0  0  0  0  0  0  0  0
   25.6297   13.7079   21.8891 H   0  0  0  0  0  0  0  0  0  0  0  0
   26.7677   13.4360   24.1639 H   0  0  0  0  0  0  0  0  0  0  0  0
   27.0797   13.8084   19.3335 C   0  0  0  0  0  0  0  0  0  0  0  0
   28.1340   14.6140   19.7530 C   0  0  0  0  0  0  0  0  0  0  0  0
   28.5854   15.6703   18.9633 C   0  0  0  0  0  0  0  0  0  0  0  0
   27.9947   15.9294   17.7481 C   0  0  0  0  0  0  0  0  0  0  0  0
   26.9429   15.1434   17.3166 C   0  0  0  0  0  0  0  0  0  0  0  0
   26.4817   14.0924   18.1065 C   0  0  0  0  0  0  0  0  0  0  0  0
   25.3772   11.8781   19.6443 C   0  0  0  0  0  0  0  0  0  0  0  0
   25.5251   10.8561   18.7100 C   0  0  0  0  0  0  0  0  0  0  0  0
   24.4370   10.0897   18.3194 C   0  0  0  0  0  0  0  0  0  0  0  0
   23.1855   10.3449   18.8483 C   0  0  0  0  0  0  0  0  0  0  0  0
   22.9999   11.3847   19.7650 C   0  0  0  0  0  0  0  0  0  0  0  0
   24.1065   12.1507   20.1513 C   0  0  0  0  0  0  0  0  0  0  0  0
   19.0821   12.4764   21.1265 C   0  0  0  0  0  0  0  0  0  0  0  0
   20.5263   11.0438   19.8306 C   0  0  0  0  0  0  0  0  0  0  0  0
   21.6600   11.6791   20.3403 C   0  0  0  0  0  0  0  0  0  0  0  0
   21.4791   12.6871   21.2904 C   0  0  0  0  0  0  0  0  0  0  0  0
   20.2025   13.0808   21.6775 C   0  0  0  0  0  0  0  0  0  0  0  0
   19.2503   11.4424   20.2119 C   0  0  0  0  0  0  0  0  0  0  0  0
   18.2420   10.7537   19.5824 O   0  0  0  0  0  0  0  0  0  0  0  0
   17.6745    9.6228   20.2618 C   0  0  0  0  0  0  0  0  0  0  0  0
 19 20  2  0  0  0
 19 18  1  0  0  0
 20 21  1  0  0  0
 18 17  2  0  0  0
 21 25  1  0  0  0
 21 22  2  0  0  0
 26 25  2  0  0  0
 26 27  1  0  0  0
 14 15  2  0  0  0
 14 13  1  0  0  0
 15 16  1  0  0  0
 13 12  2  0  0  0
 25 24  1  0  0  0
 17 22  1  0  0  0
 17  3  1  0  0  0
 27 23  2  0  0  0
 16 11  2  0  0  0
 12 11  1  0  0  0
 11  3  1  0  0  0
 24 28  2  0  0  0
 23 28  1  0  0  0
  3  4  1  0  0  0
  3  2  1  0  0  0
 28 29  1  0  0  0
  1  2  2  0  0  0
  4  5  1  0  0  0
  2  6  1  0  0  0
 29 30  1  0  0  0
  5  6  1  0  0  0
  5  7  2  0  0  0
  6  8  1  0  0  0
  4  9  1  0  0  0
  7 10  1  0  0  0
M  END
> <minimizedAffinity>
-8.73939

$$$$
4DJV_0KM_A_501


 30 33  0  0  0  0  0  0  0  0999 V2000
   20.6379   11.5922   24.4365 O   0  0  0  0  0  0  0  0  0  0  0  0
   19.5795   12.1844   24.3560 C   0  0  0  0  0  0  0  0  0  0  0  0
   19.1608   13.1949   23.2211 C   0  0  0  0  0  0  0  0  0  0  0  0
   17.7215   13.4458   23.5629 N   0  0  0  0  0  0  0  0  0  0  0  0
   17.4279   12.8314   24.7202 C   0  0  0  0  0  0  0  0  0  0  0  0
   18.5055   12.0348   25.2024 N   0  0  0  0  0  0  0  0  0  0  0  0
   16.2501   12.8843   25.3400 N   0  0  0  0  0  0  0  0  0  0  0  0
   18.5176   11.1778   26.3945 C   0  0  0  0  0  0  0  0  0  0  0  0
   17.0918   13.9770   23.0238 H   0  0  0  0  0  0  0  0  0  0  0  0
   15.5278   13.4464   24.9772 H   0  0  0  0  0  0  0  0  0  0  0  0
   19.9685   14.5040   23.3248 C   0  0  0  0  0  0  0  0  0  0  0  0
   19.3705   15.6681   23.7979 C   0  0  0  0  0  0  0  0  0  0  0  0
   20.0982   16.8519   23.9093 C   0  0  0  0  0  0  0  0  0  0  0  0
   21.4274   16.8846   23.5561 C   0  0  0  0  0  0  0  0  0  0  0  0
   22.0376   15.7398   23.0793 C   0  0  0  0  0  0  0  0  0  0  0  0
   21.3123   14.5566   22.9569 C   0  0  0  0  0  0  0  0  0  0  0  0
   19.2921   12.4683   21.8691 C   0  0  0  0  0  0  0  0  0  0  0  0
   18.1707   12.1538   21.1055 C   0  0  0  0  0  0  0  0  0  0  0  0
   18.3068   11.6303   19.8283 C   0  0  0  0  0  0  0  0  0  0  0  0
   19.5656   11.4025   19.3044 C   0  0  0  0  0  0  0  0  0  0  0  0
   20.7102   11.6791   20.0591 C   0  0  0  0  0  0  0  0  0  0  0  0
   20.5591   12.2076   21.3470 C   0  0  0  0  0  0  0  0  0  0  0  0
   24.4854   11.0089   18.1375 C   0  0  0  0  0  0  0  0  0  0  0  0
   22.8652   12.5094   19.1075 C   0  0  0  0  0  0  0  0  0  0  0  0
   22.0731   11.4347   19.5155 C   0  0  0  0  0  0  0  0  0  0  0  0
   22.5381   10.1414   19.2653 C   0  0  0  0  0  0  0  0  0  0  0  0
   23.7317    9.9328   18.5825 C   0  0  0  0  0  0  0  0  0  0  0  0
   24.0544   12.3009   18.4184 C   0  0  0  0  0  0  0  0  0  0  0  0
   24.6891   13.4599   18.0427 O   0  0  0  0  0  0  0  0  0  0  0  0
   26.0720   13.6145   18.3981 C   0  0  0  0  0  0  0  0  0  0  0  0
 19 20  2  0  0  0
 19 18  1  0  0  0
 20 21  1  0  0  0
 18 17  2  0  0  0
 21 25  1  0  0  0
 21 22  2  0  0  0
 26 25  2  0  0  0
 26 27  1  0  0  0
 14 15  2  0  0  0
 14 13  1  0  0  0
 15 16  1  0  0  0
 13 12  2  0  0  0
 25 24  1  0  0  0
 17 22  1  0  0  0
 17  3  1  0  0  0
 27 23  2  0  0  0
 16 11  2  0  0  0
 12 11  1  0  0  0
 11  3  1  0  0  0
 24 28  2  0  0  0
 23 28  1  0  0  0
  3  4  1  0  0  0
  3  2  1  0  0  0
 28 29  1  0  0  0
  1  2  2  0  0  0
  4  5  1  0  0  0
  2  6  1  0  0  0
 29 30  1  0  0  0
  5  6  1  0  0  0
  5  7  2  0  0  0
  6  8  1  0  0  0
  4  9  1  0  0  0
  7 10  1  0  0  0
M  END
> <minimizedAffinity>
-8.70054

$$$$
4DJV_0KM_A_501


 30 33  0  0  0  0  0  0  0  0999 V2000
   23.3092   10.5229   21.5461 O   0  0  0  0  0  0  0  0  0  0  0  0
   23.2565   11.4129   20.7200 C   0  0  0  0  0  0  0  0  0  0  0  0
   22.4048   12.7349   20.8273 C   0  0  0  0  0  0  0  0  0  0  0  0
   22.8818   13.4941   19.6242 N   0  0  0  0  0  0  0  0  0  0  0  0
   23.7104   12.7156   18.9096 C   0  0  0  0  0  0  0  0  0  0  0  0
   23.9880   11.4778   19.5568 N   0  0  0  0  0  0  0  0  0  0  0  0
   24.2803   13.0578   17.7554 N   0  0  0  0  0  0  0  0  0  0  0  0
   24.8964   10.4175   19.1025 C   0  0  0  0  0  0  0  0  0  0  0  0
   22.6274   14.4171   19.3948 H   0  0  0  0  0  0  0  0  0  0  0  0
   24.0642   13.9224   17.3370 H   0  0  0  0  0  0  0  0  0  0  0  0
   20.8987   12.4305   20.7019 C   0  0  0  0  0  0  0  0  0  0  0  0
   20.4189   11.6573   19.6490 C   0  0  0  0  0  0  0  0  0  0  0  0
   19.0605   11.3647   19.5373 C   0  0  0  0  0  0  0  0  0  0  0  0
   18.1705   11.8347   20.4751 C   0  0  0  0  0  0  0  0  0  0  0  0
   18.6273   12.6085   21.5253 C   0  0  0  0  0  0  0  0  0  0  0  0
   19.9826   12.9119   21.6362 C   0  0  0  0  0  0  0  0  0  0  0  0
   22.8058   13.4512   22.1309 C   0  0  0  0  0  0  0  0  0  0  0  0
   23.4607   14.6800   22.1086 C   0  0  0  0  0  0  0  0  0  0  0  0
   23.6890   15.3831   23.2821 C   0  0  0  0  0  0  0  0  0  0  0  0
   23.2771   14.8597   24.4935 C   0  0  0  0  0  0  0  0  0  0  0  0
   22.6447   13.6135   24.5511 C   0  0  0  0  0  0  0  0  0  0  0  0
   22.4199   12.9140   23.3591 C   0  0  0  0  0  0  0  0  0  0  0  0
   21.0879   12.2067   28.2916 C   0  0  0  0  0  0  0  0  0  0  0  0
   21.1131   12.1553   25.8803 C   0  0  0  0  0  0  0  0  0  0  0  0
   22.2000   13.0306   25.8454 C   0  0  0  0  0  0  0  0  0  0  0  0
   22.7517   13.4446   27.0602 C   0  0  0  0  0  0  0  0  0  0  0  0
   22.1993   13.0364   28.2697 C   0  0  0  0  0  0  0  0  0  0  0  0
   20.5565   11.7534   27.0891 C   0  0  0  0  0  0  0  0  0  0  0  0
   19.4624   10.9340   26.9515 O   0  0  0  0  0  0  0  0  0  0  0  0
   18.4861   11.2779   25.9560 C   0  0  0  0  0  0  0  0  0  0  0  0
 19 20  2  0  0  0
 19 18  1  0  0  0
 20 21  1  0  0  0
 18 17  2  0  0  0
 21 25  1  0  0  0
 21 22  2  0  0  0
 26 25  2  0  0  0
 26 27  1  0  0  0
 14 15  2  0  0  0
 14 13  1  0  0  0
 15 16  1  0  0  0
 13 12  2  0  0  0
 25 24  1  0  0  0
 17 22  1  0  0  0
 17  3  1  0  0  0
 27 23  2  0  0  0
 16 11  2  0  0  0
 12 11  1  0  0  0
 11  3  1  0  0  0
 24 28  2  0  0  0
 23 28  1  0  0  0
  3  4  1  0  0  0
  3  2  1  0  0  0
 28 29  1  0  0  0
  1  2  2  0  0  0
  4  5  1  0  0  0
  2  6  1  0  0  0
 29 30  1  0  0  0
  5  6  1  0  0  0
  5  7  2  0  0  0
  6  8  1  0  0  0
  4  9  1  0  0  0
  7 10  1  0  0  0
M  END
> <minimizedAffinity>
-8.40842

$$$$
