3JVS_AGY_A_900


 33 35  0  0  0  0  0  0  0  0999 V2000
   29.8287   -5.6327   19.0917 O   0  0  0  0  0  0  0  0  0  0  0  0
   29.2630   -3.5123   18.6045 N   0  0  0  0  0  0  0  0  0  0  0  0
   29.2743   -4.5759   19.4532 C   0  0  0  0  0  0  0  0  0  0  0  0
   28.8369   -2.6564   18.8392 H   0  0  0  0  0  0  0  0  0  0  0  0
   31.5835   -2.0871   17.7501 N   0  0  0  0  0  0  0  0  0  0  0  0
   31.4924   -3.3073   15.8337 O   0  0  0  0  0  0  0  0  0  0  0  0
   29.9153   -3.7244   17.3433 N   0  0  0  0  0  0  0  0  0  0  0  0
   31.0208   -3.0367   16.9462 C   0  0  0  0  0  0  0  0  0  0  0  0
   31.1318   -1.9569   18.6151 H   0  0  0  0  0  0  0  0  0  0  0  0
   29.5437   -4.4024   16.7339 H   0  0  0  0  0  0  0  0  0  0  0  0
   34.0731   -1.7415   17.5581 C   0  0  0  0  0  0  0  0  0  0  0  0
   32.6946   -1.2734   17.5418 C   0  0  0  0  0  0  0  0  0  0  0  0
   35.1938   -0.7813   17.3210 C   0  0  0  0  0  0  0  0  0  0  0  0
   34.3851   -3.1316   17.8018 C   0  0  0  0  0  0  0  0  0  0  0  0
   32.4509    0.1450   17.2909 C   0  0  0  0  0  0  0  0  0  0  0  0
   34.9257    0.6147   17.0754 C   0  0  0  0  0  0  0  0  0  0  0  0
   36.5433   -1.2458   17.3379 C   0  0  0  0  0  0  0  0  0  0  0  0
   35.7572   -3.5827   17.8154 C   0  0  0  0  0  0  0  0  0  0  0  0
   33.5432    1.0806   17.0602 C   0  0  0  0  0  0  0  0  0  0  0  0
   36.8335   -2.6454   17.5850 C   0  0  0  0  0  0  0  0  0  0  0  0
   28.6394   -4.4828   20.7663 C   0  0  0  0  0  0  0  0  0  0  0  0
   29.1412   -5.2537   21.8357 C   0  0  0  0  0  0  0  0  0  0  0  0
   27.5203   -3.6217   20.9839 C   0  0  0  0  0  0  0  0  0  0  0  0
   28.5619   -5.1965   23.1445 C   0  0  0  0  0  0  0  0  0  0  0  0
   26.9002   -3.5313   22.2848 C   0  0  0  0  0  0  0  0  0  0  0  0
   27.4036   -4.3254   23.4200 C   0  0  0  0  0  0  0  0  0  0  0  0
   26.7021   -4.1867   24.7939 C   0  0  0  0  0  0  0  0  0  0  0  0
   26.0030   -5.4809   25.2759 C   0  0  0  0  0  0  0  0  0  0  0  0
   27.5363   -3.9080   26.1009 C   0  0  0  0  0  0  0  0  0  0  0  0
   25.7367   -2.9913   24.6782 C   0  0  0  0  0  0  0  0  0  0  0  0
   30.1570   -5.4440   24.7334 O   0  0  0  0  0  0  0  0  0  0  0  0
   29.1225   -5.9187   24.0990 N   0  0  0  0  0  0  0  0  0  0  0  0
   28.6174   -7.1742   24.4149 O   0  0  0  0  0  0  0  0  0  0  0  0
  6  8  2  0  0  0
  8  7  1  0  0  0
  8  5  1  0  0  0
 19 16  2  0  0  0
 19 15  1  0  0  0
 16 13  1  0  0  0
 15 12  2  0  0  0
  7  2  1  0  0  0
 13 17  2  0  0  0
 13 11  1  0  0  0
 17 20  1  0  0  0
 12 11  1  0  0  0
 12  5  1  0  0  0
 11 14  2  0  0  0
 20 18  2  0  0  0
 14 18  1  0  0  0
  2  3  1  0  0  0
  1  3  2  0  0  0
  3 21  1  0  0  0
 21 22  2  0  0  0
 21 23  1  0  0  0
 22 24  1  0  0  0
 33 32  1  0  0  0
 23 25  2  0  0  0
 24 32  1  0  0  0
 24 26  2  0  0  0
 32 31  2  0  0  0
 25 26  1  0  0  0
 26 27  1  0  0  0
 27 29  1  0  0  0
 27 30  1  0  0  0
 27 28  1  0  0  0
  5  9  1  0  0  0
  7 10  1  0  0  0
  2  4  1  0  0  0
M  CHG 1  32   1
M  CHG 1  33  -1
M  END
> <minimizedAffinity>
-8.56174

$$$$
3JVS_AGY_A_900


 33 35  0  0  0  0  0  0  0  0999 V2000
   29.6630   -5.6901   18.9014 O   0  0  0  0  0  0  0  0  0  0  0  0
   29.3662   -3.4925   18.5331 N   0  0  0  0  0  0  0  0  0  0  0  0
   29.2630   -4.5900   19.3309 C   0  0  0  0  0  0  0  0  0  0  0  0
   29.0632   -2.6015   18.8222 H   0  0  0  0  0  0  0  0  0  0  0  0
   31.9998   -2.6727   17.7996 N   0  0  0  0  0  0  0  0  0  0  0  0
   31.5939   -3.5805   15.7548 O   0  0  0  0  0  0  0  0  0  0  0  0
   29.9473   -3.7235   17.2408 N   0  0  0  0  0  0  0  0  0  0  0  0
   31.2043   -3.3258   16.9022 C   0  0  0  0  0  0  0  0  0  0  0  0
   31.5928   -2.5276   18.6842 H   0  0  0  0  0  0  0  0  0  0  0  0
   29.4086   -4.1939   16.5642 H   0  0  0  0  0  0  0  0  0  0  0  0
   33.6260   -0.7727   17.4840 C   0  0  0  0  0  0  0  0  0  0  0  0
   33.2950   -2.1791   17.6631 C   0  0  0  0  0  0  0  0  0  0  0  0
   35.0531   -0.3497   17.3483 C   0  0  0  0  0  0  0  0  0  0  0  0
   32.5916    0.2355   17.4337 C   0  0  0  0  0  0  0  0  0  0  0  0
   34.3899   -3.1454   17.7033 C   0  0  0  0  0  0  0  0  0  0  0  0
   36.1156   -1.3244   17.3915 C   0  0  0  0  0  0  0  0  0  0  0  0
   35.3717    1.0306   17.1730 C   0  0  0  0  0  0  0  0  0  0  0  0
   32.9337    1.6275   17.2554 C   0  0  0  0  0  0  0  0  0  0  0  0
   35.7806   -2.7330   17.5707 C   0  0  0  0  0  0  0  0  0  0  0  0
   34.3174    2.0256   17.1250 C   0  0  0  0  0  0  0  0  0  0  0  0
   28.6851   -4.4818   20.6690 C   0  0  0  0  0  0  0  0  0  0  0  0
   29.2469   -5.2230   21.7294 C   0  0  0  0  0  0  0  0  0  0  0  0
   27.5617   -3.6352   20.9197 C   0  0  0  0  0  0  0  0  0  0  0  0
   28.7250   -5.1497   23.0613 C   0  0  0  0  0  0  0  0  0  0  0  0
   26.9982   -3.5297   22.2450 C   0  0  0  0  0  0  0  0  0  0  0  0
   27.5649   -4.2928   23.3715 C   0  0  0  0  0  0  0  0  0  0  0  0
   26.9224   -4.1388   24.7722 C   0  0  0  0  0  0  0  0  0  0  0  0
   26.2136   -5.4170   25.2823 C   0  0  0  0  0  0  0  0  0  0  0  0
   27.8144   -3.8801   26.0447 C   0  0  0  0  0  0  0  0  0  0  0  0
   25.9807   -2.9216   24.6948 C   0  0  0  0  0  0  0  0  0  0  0  0
   30.4232   -5.3630   24.5449 O   0  0  0  0  0  0  0  0  0  0  0  0
   29.3397   -5.8436   24.0034 N   0  0  0  0  0  0  0  0  0  0  0  0
   28.8387   -7.0762   24.4044 O   0  0  0  0  0  0  0  0  0  0  0  0
  6  8  2  0  0  0
  8  7  1  0  0  0
  8  5  1  0  0  0
 19 16  2  0  0  0
 19 15  1  0  0  0
 16 13  1  0  0  0
 15 12  2  0  0  0
  7  2  1  0  0  0
 13 17  2  0  0  0
 13 11  1  0  0  0
 17 20  1  0  0  0
 12 11  1  0  0  0
 12  5  1  0  0  0
 11 14  2  0  0  0
 20 18  2  0  0  0
 14 18  1  0  0  0
  2  3  1  0  0  0
  1  3  2  0  0  0
  3 21  1  0  0  0
 21 22  2  0  0  0
 21 23  1  0  0  0
 22 24  1  0  0  0
 33 32  1  0  0  0
 23 25  2  0  0  0
 24 32  1  0  0  0
 24 26  2  0  0  0
 32 31  2  0  0  0
 25 26  1  0  0  0
 26 27  1  0  0  0
 27 29  1  0  0  0
 27 30  1  0  0  0
 27 28  1  0  0  0
  5  9  1  0  0  0
  7 10  1  0  0  0
  2  4  1  0  0  0
M  CHG 1  32   1
M  CHG 1  33  -1
M  END
> <minimizedAffinity>
-8.56005

$$$$
3JVS_AGY_A_900


 33 35  0  0  0  0  0  0  0  0999 V2000
   29.5541   -5.8046   18.9988 O   0  0  0  0  0  0  0  0  0  0  0  0
   29.1833   -3.5876   18.9761 N   0  0  0  0  0  0  0  0  0  0  0  0
   29.2173   -4.7818   19.6274 C   0  0  0  0  0  0  0  0  0  0  0  0
   28.9219   -2.7510   19.4244 H   0  0  0  0  0  0  0  0  0  0  0  0
   31.7704   -2.8865   17.9956 N   0  0  0  0  0  0  0  0  0  0  0  0
   30.9916   -3.3695   15.9147 O   0  0  0  0  0  0  0  0  0  0  0  0
   29.5547   -3.6317   17.5900 N   0  0  0  0  0  0  0  0  0  0  0  0
   30.7918   -3.2929   17.1343 C   0  0  0  0  0  0  0  0  0  0  0  0
   31.5056   -2.8682   18.9436 H   0  0  0  0  0  0  0  0  0  0  0  0
   28.8796   -3.9221   16.9350 H   0  0  0  0  0  0  0  0  0  0  0  0
   33.5039   -1.1173   17.5277 C   0  0  0  0  0  0  0  0  0  0  0  0
   33.0833   -2.4938   17.7470 C   0  0  0  0  0  0  0  0  0  0  0  0
   34.9426   -0.8050   17.2694 C   0  0  0  0  0  0  0  0  0  0  0  0
   32.5484   -0.0331   17.5545 C   0  0  0  0  0  0  0  0  0  0  0  0
   34.1012   -3.5408   17.7046 C   0  0  0  0  0  0  0  0  0  0  0  0
   35.9279   -1.8579   17.2329 C   0  0  0  0  0  0  0  0  0  0  0  0
   35.3492    0.5464   17.0553 C   0  0  0  0  0  0  0  0  0  0  0  0
   32.9791    1.3282   17.3352 C   0  0  0  0  0  0  0  0  0  0  0  0
   35.5032   -3.2363   17.4526 C   0  0  0  0  0  0  0  0  0  0  0  0
   34.3732    1.6189   17.0861 C   0  0  0  0  0  0  0  0  0  0  0  0
   28.8574   -4.8651   21.0415 C   0  0  0  0  0  0  0  0  0  0  0  0
   27.6926   -4.2154   21.5004 C   0  0  0  0  0  0  0  0  0  0  0  0
   29.6658   -5.5962   21.9654 C   0  0  0  0  0  0  0  0  0  0  0  0
   27.2892   -4.2696   22.8737 C   0  0  0  0  0  0  0  0  0  0  0  0
   29.3023   -5.6778   23.3605 C   0  0  0  0  0  0  0  0  0  0  0  0
   28.0908   -5.0087   23.8675 C   0  0  0  0  0  0  0  0  0  0  0  0
   27.7474   -5.1323   25.3726 C   0  0  0  0  0  0  0  0  0  0  0  0
   28.9404   -5.5733   26.2550 C   0  0  0  0  0  0  0  0  0  0  0  0
   27.3319   -3.8655   26.2118 C   0  0  0  0  0  0  0  0  0  0  0  0
   26.5420   -6.0869   25.4737 C   0  0  0  0  0  0  0  0  0  0  0  0
   25.0403   -4.3313   23.1367 O   0  0  0  0  0  0  0  0  0  0  0  0
   26.1604   -3.6693   23.2089 N   0  0  0  0  0  0  0  0  0  0  0  0
   26.1696   -2.3435   23.6254 O   0  0  0  0  0  0  0  0  0  0  0  0
  6  8  2  0  0  0
  8  7  1  0  0  0
  8  5  1  0  0  0
 19 16  2  0  0  0
 19 15  1  0  0  0
 16 13  1  0  0  0
 15 12  2  0  0  0
  7  2  1  0  0  0
 13 17  2  0  0  0
 13 11  1  0  0  0
 17 20  1  0  0  0
 12 11  1  0  0  0
 12  5  1  0  0  0
 11 14  2  0  0  0
 20 18  2  0  0  0
 14 18  1  0  0  0
  2  3  1  0  0  0
  1  3  2  0  0  0
  3 21  1  0  0  0
 21 22  2  0  0  0
 21 23  1  0  0  0
 22 24  1  0  0  0
 33 32  1  0  0  0
 23 25  2  0  0  0
 24 32  1  0  0  0
 24 26  2  0  0  0
 32 31  2  0  0  0
 25 26  1  0  0  0
 26 27  1  0  0  0
 27 29  1  0  0  0
 27 30  1  0  0  0
 27 28  1  0  0  0
  5  9  1  0  0  0
  7 10  1  0  0  0
  2  4  1  0  0  0
M  CHG 1  32   1
M  CHG 1  33  -1
M  END
> <minimizedAffinity>
-8.30812

$$$$
3JVS_AGY_A_900


 33 35  0  0  0  0  0  0  0  0999 V2000
   32.4415   -5.4335   17.6970 O   0  0  0  0  0  0  0  0  0  0  0  0
   31.0385   -3.9919   18.7004 N   0  0  0  0  0  0  0  0  0  0  0  0
   32.1873   -4.2565   18.0207 C   0  0  0  0  0  0  0  0  0  0  0  0
   30.7916   -3.0814   18.9820 H   0  0  0  0  0  0  0  0  0  0  0  0
   29.7301   -4.4415   21.1968 N   0  0  0  0  0  0  0  0  0  0  0  0
   28.9075   -6.3597   20.2947 O   0  0  0  0  0  0  0  0  0  0  0  0
   30.2115   -5.1320   18.9785 N   0  0  0  0  0  0  0  0  0  0  0  0
   29.5940   -5.3363   20.1743 C   0  0  0  0  0  0  0  0  0  0  0  0
   30.2930   -3.6605   20.9908 H   0  0  0  0  0  0  0  0  0  0  0  0
   30.0843   -5.8008   18.2674 H   0  0  0  0  0  0  0  0  0  0  0  0
   27.8918   -3.9279   22.8433 C   0  0  0  0  0  0  0  0  0  0  0  0
   29.1997   -4.4575   22.4845 C   0  0  0  0  0  0  0  0  0  0  0  0
   27.4177   -3.9967   24.2592 C   0  0  0  0  0  0  0  0  0  0  0  0
   27.0316   -3.3296   21.8477 C   0  0  0  0  0  0  0  0  0  0  0  0
   30.0183   -5.0471   23.5411 C   0  0  0  0  0  0  0  0  0  0  0  0
   28.2459   -4.5844   25.2835 C   0  0  0  0  0  0  0  0  0  0  0  0
   26.1345   -3.4761   24.6050 C   0  0  0  0  0  0  0  0  0  0  0  0
   25.7363   -2.8079   22.2173 C   0  0  0  0  0  0  0  0  0  0  0  0
   29.5562   -5.1138   24.9208 C   0  0  0  0  0  0  0  0  0  0  0  0
   25.2877   -2.8795   23.5897 C   0  0  0  0  0  0  0  0  0  0  0  0
   33.1128   -3.1774   17.6815 C   0  0  0  0  0  0  0  0  0  0  0  0
   32.6219   -1.8636   17.5319 C   0  0  0  0  0  0  0  0  0  0  0  0
   34.5071   -3.4325   17.5014 C   0  0  0  0  0  0  0  0  0  0  0  0
   33.4849   -0.7676   17.2068 C   0  0  0  0  0  0  0  0  0  0  0  0
   35.4168   -2.3611   17.1704 C   0  0  0  0  0  0  0  0  0  0  0  0
   34.9313   -0.9789   17.0079 C   0  0  0  0  0  0  0  0  0  0  0  0
   35.9520    0.1314   16.6557 C   0  0  0  0  0  0  0  0  0  0  0  0
   35.9161    0.5702   15.1717 C   0  0  0  0  0  0  0  0  0  0  0  0
   35.8349    1.5668   17.2944 C   0  0  0  0  0  0  0  0  0  0  0  0
   37.3358   -0.3853   17.0947 C   0  0  0  0  0  0  0  0  0  0  0  0
   32.7559    1.1215   18.2217 O   0  0  0  0  0  0  0  0  0  0  0  0
   32.9482    0.4377   17.1292 N   0  0  0  0  0  0  0  0  0  0  0  0
   32.5860    0.9646   15.8954 O   0  0  0  0  0  0  0  0  0  0  0  0
  6  8  2  0  0  0
  8  7  1  0  0  0
  8  5  1  0  0  0
 19 16  2  0  0  0
 19 15  1  0  0  0
 16 13  1  0  0  0
 15 12  2  0  0  0
  7  2  1  0  0  0
 13 17  2  0  0  0
 13 11  1  0  0  0
 17 20  1  0  0  0
 12 11  1  0  0  0
 12  5  1  0  0  0
 11 14  2  0  0  0
 20 18  2  0  0  0
 14 18  1  0  0  0
  2  3  1  0  0  0
  1  3  2  0  0  0
  3 21  1  0  0  0
 21 22  2  0  0  0
 21 23  1  0  0  0
 22 24  1  0  0  0
 33 32  1  0  0  0
 23 25  2  0  0  0
 24 32  1  0  0  0
 24 26  2  0  0  0
 32 31  2  0  0  0
 25 26  1  0  0  0
 26 27  1  0  0  0
 27 29  1  0  0  0
 27 30  1  0  0  0
 27 28  1  0  0  0
  5  9  1  0  0  0
  7 10  1  0  0  0
  2  4  1  0  0  0
M  CHG 1  32   1
M  CHG 1  33  -1
M  END
> <minimizedAffinity>
-8.19350

$$$$
3JVS_AGY_A_900


 33 35  0  0  0  0  0  0  0  0999 V2000
   32.6144   -5.1437   17.9184 O   0  0  0  0  0  0  0  0  0  0  0  0
   30.9323   -3.7866   18.5364 N   0  0  0  0  0  0  0  0  0  0  0  0
   32.1937   -3.9790   18.0639 C   0  0  0  0  0  0  0  0  0  0  0  0
   30.5526   -2.8885   18.6724 H   0  0  0  0  0  0  0  0  0  0  0  0
   29.6992   -4.3356   21.0512 N   0  0  0  0  0  0  0  0  0  0  0  0
   29.0013   -6.3051   20.1545 O   0  0  0  0  0  0  0  0  0  0  0  0
   30.1932   -4.9837   18.8230 N   0  0  0  0  0  0  0  0  0  0  0  0
   29.6110   -5.2349   20.0274 C   0  0  0  0  0  0  0  0  0  0  0  0
   30.2015   -3.5158   20.8396 H   0  0  0  0  0  0  0  0  0  0  0  0
   30.1027   -5.6578   18.1113 H   0  0  0  0  0  0  0  0  0  0  0  0
   27.8822   -3.8941   22.7418 C   0  0  0  0  0  0  0  0  0  0  0  0
   29.1918   -4.3930   22.3470 C   0  0  0  0  0  0  0  0  0  0  0  0
   27.4343   -4.0067   24.1633 C   0  0  0  0  0  0  0  0  0  0  0  0
   26.9953   -3.2846   21.7769 C   0  0  0  0  0  0  0  0  0  0  0  0
   30.0381   -4.9961   23.3738 C   0  0  0  0  0  0  0  0  0  0  0  0
   28.2896   -4.6069   25.1578 C   0  0  0  0  0  0  0  0  0  0  0  0
   26.1493   -3.5160   24.5445 C   0  0  0  0  0  0  0  0  0  0  0  0
   25.6986   -2.7936   22.1820 C   0  0  0  0  0  0  0  0  0  0  0  0
   29.6015   -5.1055   24.7591 C   0  0  0  0  0  0  0  0  0  0  0  0
   25.2755   -2.9075   23.5596 C   0  0  0  0  0  0  0  0  0  0  0  0
   33.0453   -2.8366   17.7385 C   0  0  0  0  0  0  0  0  0  0  0  0
   34.4337   -3.0291   17.5802 C   0  0  0  0  0  0  0  0  0  0  0  0
   32.4931   -1.5289   17.5764 C   0  0  0  0  0  0  0  0  0  0  0  0
   35.3136   -1.9466   17.2549 C   0  0  0  0  0  0  0  0  0  0  0  0
   33.3395   -0.4052   17.2509 C   0  0  0  0  0  0  0  0  0  0  0  0
   34.7934   -0.5773   17.0798 C   0  0  0  0  0  0  0  0  0  0  0  0
   35.6527    0.6622   16.7278 C   0  0  0  0  0  0  0  0  0  0  0  0
   35.1820    1.9681   17.4129 C   0  0  0  0  0  0  0  0  0  0  0  0
   37.1664    0.7424   17.1569 C   0  0  0  0  0  0  0  0  0  0  0  0
   35.6712    0.7648   15.1904 C   0  0  0  0  0  0  0  0  0  0  0  0
   37.0487   -2.4082   15.8741 O   0  0  0  0  0  0  0  0  0  0  0  0
   36.5941   -2.2239   17.0814 N   0  0  0  0  0  0  0  0  0  0  0  0
   37.4430   -2.3257   18.1769 O   0  0  0  0  0  0  0  0  0  0  0  0
  6  8  2  0  0  0
  8  7  1  0  0  0
  8  5  1  0  0  0
 19 16  2  0  0  0
 19 15  1  0  0  0
 16 13  1  0  0  0
 15 12  2  0  0  0
  7  2  1  0  0  0
 13 17  2  0  0  0
 13 11  1  0  0  0
 17 20  1  0  0  0
 12 11  1  0  0  0
 12  5  1  0  0  0
 11 14  2  0  0  0
 20 18  2  0  0  0
 14 18  1  0  0  0
  2  3  1  0  0  0
  1  3  2  0  0  0
  3 21  1  0  0  0
 21 22  2  0  0  0
 21 23  1  0  0  0
 22 24  1  0  0  0
 33 32  1  0  0  0
 23 25  2  0  0  0
 24 32  1  0  0  0
 24 26  2  0  0  0
 32 31  2  0  0  0
 25 26  1  0  0  0
 26 27  1  0  0  0
 27 29  1  0  0  0
 27 30  1  0  0  0
 27 28  1  0  0  0
  5  9  1  0  0  0
  7 10  1  0  0  0
  2  4  1  0  0  0
M  CHG 1  32   1
M  CHG 1  33  -1
M  END
> <minimizedAffinity>
-7.90899

$$$$
3JVS_AGY_A_900


 33 35  0  0  0  0  0  0  0  0999 V2000
   32.5485   -5.5260   17.8081 O   0  0  0  0  0  0  0  0  0  0  0  0
   31.1742   -4.1016   18.8736 N   0  0  0  0  0  0  0  0  0  0  0  0
   32.2975   -4.3529   18.1480 C   0  0  0  0  0  0  0  0  0  0  0  0
   30.9310   -3.1947   19.1697 H   0  0  0  0  0  0  0  0  0  0  0  0
   29.1388   -4.1366   20.8741 N   0  0  0  0  0  0  0  0  0  0  0  0
   28.7732   -6.3080   20.3077 O   0  0  0  0  0  0  0  0  0  0  0  0
   30.3681   -5.2500   19.1776 N   0  0  0  0  0  0  0  0  0  0  0  0
   29.4013   -5.2549   20.1358 C   0  0  0  0  0  0  0  0  0  0  0  0
   29.6927   -3.3539   20.6507 H   0  0  0  0  0  0  0  0  0  0  0  0
   30.5226   -6.0771   18.6665 H   0  0  0  0  0  0  0  0  0  0  0  0
   28.3982   -4.3468   23.2745 C   0  0  0  0  0  0  0  0  0  0  0  0
   28.2127   -3.9265   21.8929 C   0  0  0  0  0  0  0  0  0  0  0  0
   27.3383   -4.0696   24.2913 C   0  0  0  0  0  0  0  0  0  0  0  0
   29.5999   -5.0348   23.6889 C   0  0  0  0  0  0  0  0  0  0  0  0
   26.9732   -3.2371   21.5425 C   0  0  0  0  0  0  0  0  0  0  0  0
   26.1235   -3.3868   23.9189 C   0  0  0  0  0  0  0  0  0  0  0  0
   27.5258   -4.4838   25.6443 C   0  0  0  0  0  0  0  0  0  0  0  0
   29.7712   -5.4464   25.0628 C   0  0  0  0  0  0  0  0  0  0  0  0
   25.9404   -2.9674   22.5335 C   0  0  0  0  0  0  0  0  0  0  0  0
   28.7396   -5.1734   26.0381 C   0  0  0  0  0  0  0  0  0  0  0  0
   33.2001   -3.2643   17.7788 C   0  0  0  0  0  0  0  0  0  0  0  0
   32.6781   -1.9706   17.5706 C   0  0  0  0  0  0  0  0  0  0  0  0
   34.6029   -3.4899   17.6277 C   0  0  0  0  0  0  0  0  0  0  0  0
   33.5176   -0.8661   17.2139 C   0  0  0  0  0  0  0  0  0  0  0  0
   35.4898   -2.4091   17.2667 C   0  0  0  0  0  0  0  0  0  0  0  0
   34.9717   -1.0474   17.0430 C   0  0  0  0  0  0  0  0  0  0  0  0
   35.9688    0.0744   16.6609 C   0  0  0  0  0  0  0  0  0  0  0  0
   35.9178    0.4784   15.1674 C   0  0  0  0  0  0  0  0  0  0  0  0
   35.8262    1.5213   17.2673 C   0  0  0  0  0  0  0  0  0  0  0  0
   37.3644   -0.4050   17.1049 C   0  0  0  0  0  0  0  0  0  0  0  0
   32.6072    0.7340   15.8944 O   0  0  0  0  0  0  0  0  0  0  0  0
   32.9516    0.3208   17.0814 N   0  0  0  0  0  0  0  0  0  0  0  0
   32.7350    1.1214   18.1964 O   0  0  0  0  0  0  0  0  0  0  0  0
  6  8  2  0  0  0
  8  7  1  0  0  0
  8  5  1  0  0  0
 19 16  2  0  0  0
 19 15  1  0  0  0
 16 13  1  0  0  0
 15 12  2  0  0  0
  7  2  1  0  0  0
 13 17  2  0  0  0
 13 11  1  0  0  0
 17 20  1  0  0  0
 12 11  1  0  0  0
 12  5  1  0  0  0
 11 14  2  0  0  0
 20 18  2  0  0  0
 14 18  1  0  0  0
  2  3  1  0  0  0
  1  3  2  0  0  0
  3 21  1  0  0  0
 21 22  2  0  0  0
 21 23  1  0  0  0
 22 24  1  0  0  0
 33 32  1  0  0  0
 23 25  2  0  0  0
 24 32  1  0  0  0
 24 26  2  0  0  0
 32 31  2  0  0  0
 25 26  1  0  0  0
 26 27  1  0  0  0
 27 29  1  0  0  0
 27 30  1  0  0  0
 27 28  1  0  0  0
  5  9  1  0  0  0
  7 10  1  0  0  0
  2  4  1  0  0  0
M  CHG 1  32   1
M  CHG 1  33  -1
M  END
> <minimizedAffinity>
-7.58628

$$$$
3JVS_AGY_A_900


 33 35  0  0  0  0  0  0  0  0999 V2000
   32.6629   -5.1969   18.0871 O   0  0  0  0  0  0  0  0  0  0  0  0
   30.9816   -3.8584   18.7466 N   0  0  0  0  0  0  0  0  0  0  0  0
   32.2238   -4.0376   18.2208 C   0  0  0  0  0  0  0  0  0  0  0  0
   30.5889   -2.9650   18.8761 H   0  0  0  0  0  0  0  0  0  0  0  0
   29.0424   -4.0227   20.8343 N   0  0  0  0  0  0  0  0  0  0  0  0
   28.8273   -6.2249   20.3113 O   0  0  0  0  0  0  0  0  0  0  0  0
   30.2833   -5.0621   19.0997 N   0  0  0  0  0  0  0  0  0  0  0  0
   29.3615   -5.1282   20.0991 C   0  0  0  0  0  0  0  0  0  0  0  0
   29.5221   -3.2023   20.5772 H   0  0  0  0  0  0  0  0  0  0  0  0
   30.4814   -5.8824   18.5926 H   0  0  0  0  0  0  0  0  0  0  0  0
   28.3951   -4.3190   23.2525 C   0  0  0  0  0  0  0  0  0  0  0  0
   28.1466   -3.8704   21.8898 C   0  0  0  0  0  0  0  0  0  0  0  0
   27.3634   -4.1043   24.3125 C   0  0  0  0  0  0  0  0  0  0  0  0
   29.6331   -4.9756   23.6065 C   0  0  0  0  0  0  0  0  0  0  0  0
   26.8731   -3.2153   21.6011 C   0  0  0  0  0  0  0  0  0  0  0  0
   26.1139   -3.4544   24.0007 C   0  0  0  0  0  0  0  0  0  0  0  0
   27.6126   -4.5460   25.6466 C   0  0  0  0  0  0  0  0  0  0  0  0
   29.8668   -5.4159   24.9623 C   0  0  0  0  0  0  0  0  0  0  0  0
   25.8677   -3.0064   22.6342 C   0  0  0  0  0  0  0  0  0  0  0  0
   28.8620   -5.2033   25.9796 C   0  0  0  0  0  0  0  0  0  0  0  0
   33.0339   -2.8873   17.8251 C   0  0  0  0  0  0  0  0  0  0  0  0
   34.4267   -3.0419   17.6645 C   0  0  0  0  0  0  0  0  0  0  0  0
   32.4367   -1.6096   17.5965 C   0  0  0  0  0  0  0  0  0  0  0  0
   35.2672   -1.9504   17.2720 C   0  0  0  0  0  0  0  0  0  0  0  0
   33.2423   -0.4781   17.2019 C   0  0  0  0  0  0  0  0  0  0  0  0
   34.6998   -0.6109   17.0268 C   0  0  0  0  0  0  0  0  0  0  0  0
   35.5142    0.6351   16.5992 C   0  0  0  0  0  0  0  0  0  0  0  0
   34.9583    1.9694   17.1531 C   0  0  0  0  0  0  0  0  0  0  0  0
   37.0052    0.8251   17.0712 C   0  0  0  0  0  0  0  0  0  0  0  0
   35.5866    0.6087   15.0602 C   0  0  0  0  0  0  0  0  0  0  0  0
   37.3432   -2.2111   18.1395 O   0  0  0  0  0  0  0  0  0  0  0  0
   36.5550   -2.1942   17.1019 N   0  0  0  0  0  0  0  0  0  0  0  0
   37.0622   -2.4212   15.8282 O   0  0  0  0  0  0  0  0  0  0  0  0
  6  8  2  0  0  0
  8  7  1  0  0  0
  8  5  1  0  0  0
 19 16  2  0  0  0
 19 15  1  0  0  0
 16 13  1  0  0  0
 15 12  2  0  0  0
  7  2  1  0  0  0
 13 17  2  0  0  0
 13 11  1  0  0  0
 17 20  1  0  0  0
 12 11  1  0  0  0
 12  5  1  0  0  0
 11 14  2  0  0  0
 20 18  2  0  0  0
 14 18  1  0  0  0
  2  3  1  0  0  0
  1  3  2  0  0  0
  3 21  1  0  0  0
 21 22  2  0  0  0
 21 23  1  0  0  0
 22 24  1  0  0  0
 33 32  1  0  0  0
 23 25  2  0  0  0
 24 32  1  0  0  0
 24 26  2  0  0  0
 32 31  2  0  0  0
 25 26  1  0  0  0
 26 27  1  0  0  0
 27 29  1  0  0  0
 27 30  1  0  0  0
 27 28  1  0  0  0
  5  9  1  0  0  0
  7 10  1  0  0  0
  2  4  1  0  0  0
M  CHG 1  32   1
M  CHG 1  33  -1
M  END
> <minimizedAffinity>
-7.33450

$$$$
3JVS_AGY_A_900


 33 35  0  0  0  0  0  0  0  0999 V2000
   31.7205   -5.7165   17.1704 O   0  0  0  0  0  0  0  0  0  0  0  0
   30.1134   -4.4580   18.1120 N   0  0  0  0  0  0  0  0  0  0  0  0
   31.1927   -4.5937   17.2945 C   0  0  0  0  0  0  0  0  0  0  0  0
   29.6612   -3.5940   18.2475 H   0  0  0  0  0  0  0  0  0  0  0  0
   29.3460   -4.5977   20.8575 N   0  0  0  0  0  0  0  0  0  0  0  0
   28.9629   -6.8139   20.5236 O   0  0  0  0  0  0  0  0  0  0  0  0
   29.6794   -5.6616   18.7632 N   0  0  0  0  0  0  0  0  0  0  0  0
   29.3176   -5.7160   20.0743 C   0  0  0  0  0  0  0  0  0  0  0  0
   29.6376   -3.7777   20.3973 H   0  0  0  0  0  0  0  0  0  0  0  0
   29.6414   -6.4909   18.2339 H   0  0  0  0  0  0  0  0  0  0  0  0
   27.7883   -3.8453   22.6909 C   0  0  0  0  0  0  0  0  0  0  0  0
   29.0283   -4.4321   22.2034 C   0  0  0  0  0  0  0  0  0  0  0  0
   27.5473   -3.7151   24.1603 C   0  0  0  0  0  0  0  0  0  0  0  0
   26.7730   -3.3801   21.7734 C   0  0  0  0  0  0  0  0  0  0  0  0
   30.0122   -4.8800   23.1860 C   0  0  0  0  0  0  0  0  0  0  0  0
   28.5355   -4.1656   25.1097 C   0  0  0  0  0  0  0  0  0  0  0  0
   26.3297   -3.1392   24.6325 C   0  0  0  0  0  0  0  0  0  0  0  0
   25.5472   -2.7997   22.2705 C   0  0  0  0  0  0  0  0  0  0  0  0
   29.7772   -4.7528   24.6179 C   0  0  0  0  0  0  0  0  0  0  0  0
   25.3245   -2.6784   23.6937 C   0  0  0  0  0  0  0  0  0  0  0  0
   31.7295   -3.4383   16.5782 C   0  0  0  0  0  0  0  0  0  0  0  0
   32.2984   -2.3731   17.3071 C   0  0  0  0  0  0  0  0  0  0  0  0
   31.6889   -3.3723   15.1515 C   0  0  0  0  0  0  0  0  0  0  0  0
   32.8451   -1.2201   16.6563 C   0  0  0  0  0  0  0  0  0  0  0  0
   32.2248   -2.2298   14.4498 C   0  0  0  0  0  0  0  0  0  0  0  0
   32.8249   -1.1025   15.1859 C   0  0  0  0  0  0  0  0  0  0  0  0
   33.3871    0.0958   14.3818 C   0  0  0  0  0  0  0  0  0  0  0  0
   34.9070    0.3210   14.5700 C   0  0  0  0  0  0  0  0  0  0  0  0
   33.3772    0.0858   12.8065 C   0  0  0  0  0  0  0  0  0  0  0  0
   32.5457    1.3254   14.7751 C   0  0  0  0  0  0  0  0  0  0  0  0
   32.6421    0.6200   17.9614 O   0  0  0  0  0  0  0  0  0  0  0  0
   33.3984   -0.2890   17.4137 N   0  0  0  0  0  0  0  0  0  0  0  0
   34.7733   -0.2766   17.6155 O   0  0  0  0  0  0  0  0  0  0  0  0
  6  8  2  0  0  0
  8  7  1  0  0  0
  8  5  1  0  0  0
 19 16  2  0  0  0
 19 15  1  0  0  0
 16 13  1  0  0  0
 15 12  2  0  0  0
  7  2  1  0  0  0
 13 17  2  0  0  0
 13 11  1  0  0  0
 17 20  1  0  0  0
 12 11  1  0  0  0
 12  5  1  0  0  0
 11 14  2  0  0  0
 20 18  2  0  0  0
 14 18  1  0  0  0
  2  3  1  0  0  0
  1  3  2  0  0  0
  3 21  1  0  0  0
 21 22  2  0  0  0
 21 23  1  0  0  0
 22 24  1  0  0  0
 33 32  1  0  0  0
 23 25  2  0  0  0
 24 32  1  0  0  0
 24 26  2  0  0  0
 32 31  2  0  0  0
 25 26  1  0  0  0
 26 27  1  0  0  0
 27 29  1  0  0  0
 27 30  1  0  0  0
 27 28  1  0  0  0
  5  9  1  0  0  0
  7 10  1  0  0  0
  2  4  1  0  0  0
M  CHG 1  32   1
M  CHG 1  33  -1
M  END
> <minimizedAffinity>
-7.22805

$$$$
3JVS_AGY_A_900


 33 35  0  0  0  0  0  0  0  0999 V2000
   31.9355   -4.6091   16.5841 O   0  0  0  0  0  0  0  0  0  0  0  0
   30.7847   -3.5634   18.2074 N   0  0  0  0  0  0  0  0  0  0  0  0
   31.6600   -3.5412   17.1659 C   0  0  0  0  0  0  0  0  0  0  0  0
   30.5352   -2.7498   18.7025 H   0  0  0  0  0  0  0  0  0  0  0  0
   29.7010   -4.2404   20.7595 N   0  0  0  0  0  0  0  0  0  0  0  0
   29.3075   -6.3161   19.9191 O   0  0  0  0  0  0  0  0  0  0  0  0
   30.2500   -4.8550   18.5347 N   0  0  0  0  0  0  0  0  0  0  0  0
   29.7375   -5.1663   19.7566 C   0  0  0  0  0  0  0  0  0  0  0  0
   30.0631   -3.3567   20.5201 H   0  0  0  0  0  0  0  0  0  0  0  0
   30.2544   -5.5517   17.8392 H   0  0  0  0  0  0  0  0  0  0  0  0
   27.9294   -3.8792   22.5161 C   0  0  0  0  0  0  0  0  0  0  0  0
   29.2332   -4.3464   22.0671 C   0  0  0  0  0  0  0  0  0  0  0  0
   27.5255   -4.0435   23.9458 C   0  0  0  0  0  0  0  0  0  0  0  0
   27.0061   -3.2520   21.5979 C   0  0  0  0  0  0  0  0  0  0  0  0
   30.1177   -4.9698   23.0486 C   0  0  0  0  0  0  0  0  0  0  0  0
   28.4180   -4.6629   24.8948 C   0  0  0  0  0  0  0  0  0  0  0  0
   26.2460   -3.5838   24.3802 C   0  0  0  0  0  0  0  0  0  0  0  0
   25.7156   -2.7928   22.0565 C   0  0  0  0  0  0  0  0  0  0  0  0
   29.7240   -5.1296   24.4419 C   0  0  0  0  0  0  0  0  0  0  0  0
   25.3352   -2.9567   23.4415 C   0  0  0  0  0  0  0  0  0  0  0  0
   32.2736   -2.2849   16.7402 C   0  0  0  0  0  0  0  0  0  0  0  0
   32.5839   -2.0909   15.3780 C   0  0  0  0  0  0  0  0  0  0  0  0
   32.5618   -1.2498   17.6820 C   0  0  0  0  0  0  0  0  0  0  0  0
   33.1796   -0.8771   14.9048 C   0  0  0  0  0  0  0  0  0  0  0  0
   33.1644   -0.0092   17.2542 C   0  0  0  0  0  0  0  0  0  0  0  0
   33.4992    0.2205   15.8372 C   0  0  0  0  0  0  0  0  0  0  0  0
   34.1412    1.5711   15.4342 C   0  0  0  0  0  0  0  0  0  0  0  0
   35.5524    1.4353   14.8127 C   0  0  0  0  0  0  0  0  0  0  0  0
   33.5048    2.4600   14.2999 C   0  0  0  0  0  0  0  0  0  0  0  0
   34.1231    2.4615   16.6918 C   0  0  0  0  0  0  0  0  0  0  0  0
   34.5266   -1.1785   13.1090 O   0  0  0  0  0  0  0  0  0  0  0  0
   33.3963   -0.7622   13.6062 N   0  0  0  0  0  0  0  0  0  0  0  0
   32.4308   -0.1952   12.7829 O   0  0  0  0  0  0  0  0  0  0  0  0
  6  8  2  0  0  0
  8  7  1  0  0  0
  8  5  1  0  0  0
 19 16  2  0  0  0
 19 15  1  0  0  0
 16 13  1  0  0  0
 15 12  2  0  0  0
  7  2  1  0  0  0
 13 17  2  0  0  0
 13 11  1  0  0  0
 17 20  1  0  0  0
 12 11  1  0  0  0
 12  5  1  0  0  0
 11 14  2  0  0  0
 20 18  2  0  0  0
 14 18  1  0  0  0
  2  3  1  0  0  0
  1  3  2  0  0  0
  3 21  1  0  0  0
 21 22  2  0  0  0
 21 23  1  0  0  0
 22 24  1  0  0  0
 33 32  1  0  0  0
 23 25  2  0  0  0
 24 32  1  0  0  0
 24 26  2  0  0  0
 32 31  2  0  0  0
 25 26  1  0  0  0
 26 27  1  0  0  0
 27 29  1  0  0  0
 27 30  1  0  0  0
 27 28  1  0  0  0
  5  9  1  0  0  0
  7 10  1  0  0  0
  2  4  1  0  0  0
M  CHG 1  32   1
M  CHG 1  33  -1
M  END
> <minimizedAffinity>
-7.16456

$$$$
3JVS_AGY_A_900


 33 35  0  0  0  0  0  0  0  0999 V2000
   29.5465   -7.0738   19.3694 O   0  0  0  0  0  0  0  0  0  0  0  0
   30.7401   -5.1692   19.3334 N   0  0  0  0  0  0  0  0  0  0  0  0
   29.7440   -5.9398   19.8488 C   0  0  0  0  0  0  0  0  0  0  0  0
   30.9361   -4.2662   19.6732 H   0  0  0  0  0  0  0  0  0  0  0  0
   31.5669   -3.7590   16.9938 N   0  0  0  0  0  0  0  0  0  0  0  0
   32.5100   -5.7040   16.2886 O   0  0  0  0  0  0  0  0  0  0  0  0
   31.4854   -5.7638   18.2600 N   0  0  0  0  0  0  0  0  0  0  0  0
   31.8725   -5.0809   17.1480 C   0  0  0  0  0  0  0  0  0  0  0  0
   31.0627   -3.3612   17.7400 H   0  0  0  0  0  0  0  0  0  0  0  0
   31.7293   -6.7149   18.3320 H   0  0  0  0  0  0  0  0  0  0  0  0
   32.8611   -1.8333   16.0085 C   0  0  0  0  0  0  0  0  0  0  0  0
   31.8546   -2.8836   15.9495 C   0  0  0  0  0  0  0  0  0  0  0  0
   33.0907   -0.9475   14.8266 C   0  0  0  0  0  0  0  0  0  0  0  0
   33.6527   -1.6262   17.1999 C   0  0  0  0  0  0  0  0  0  0  0  0
   31.0892   -3.0364   14.7145 C   0  0  0  0  0  0  0  0  0  0  0  0
   32.3211   -1.1198   13.6188 C   0  0  0  0  0  0  0  0  0  0  0  0
   34.0789    0.0804   14.8902 C   0  0  0  0  0  0  0  0  0  0  0  0
   34.6481   -0.5803   17.2452 C   0  0  0  0  0  0  0  0  0  0  0  0
   31.3129   -2.1729   13.5630 C   0  0  0  0  0  0  0  0  0  0  0  0
   34.8617    0.2708   16.0964 C   0  0  0  0  0  0  0  0  0  0  0  0
   28.9134   -5.4424   20.9437 C   0  0  0  0  0  0  0  0  0  0  0  0
   28.8852   -6.1438   22.1671 C   0  0  0  0  0  0  0  0  0  0  0  0
   28.1317   -4.2557   20.7946 C   0  0  0  0  0  0  0  0  0  0  0  0
   28.0944   -5.6977   23.2750 C   0  0  0  0  0  0  0  0  0  0  0  0
   27.3164   -3.7673   21.8817 C   0  0  0  0  0  0  0  0  0  0  0  0
   27.2678   -4.4803   23.1709 C   0  0  0  0  0  0  0  0  0  0  0  0
   26.3786   -3.9096   24.3033 C   0  0  0  0  0  0  0  0  0  0  0  0
   25.3640   -4.9272   24.8787 C   0  0  0  0  0  0  0  0  0  0  0  0
   27.0099   -3.4559   25.6735 C   0  0  0  0  0  0  0  0  0  0  0  0
   25.7041   -2.6438   23.7399 C   0  0  0  0  0  0  0  0  0  0  0  0
   29.0139   -6.0347   25.3173 O   0  0  0  0  0  0  0  0  0  0  0  0
   28.1610   -6.3905   24.3986 N   0  0  0  0  0  0  0  0  0  0  0  0
   27.3351   -7.4912   24.5923 O   0  0  0  0  0  0  0  0  0  0  0  0
  6  8  2  0  0  0
  8  7  1  0  0  0
  8  5  1  0  0  0
 19 16  2  0  0  0
 19 15  1  0  0  0
 16 13  1  0  0  0
 15 12  2  0  0  0
  7  2  1  0  0  0
 13 17  2  0  0  0
 13 11  1  0  0  0
 17 20  1  0  0  0
 12 11  1  0  0  0
 12  5  1  0  0  0
 11 14  2  0  0  0
 20 18  2  0  0  0
 14 18  1  0  0  0
  2  3  1  0  0  0
  1  3  2  0  0  0
  3 21  1  0  0  0
 21 22  2  0  0  0
 21 23  1  0  0  0
 22 24  1  0  0  0
 33 32  1  0  0  0
 23 25  2  0  0  0
 24 32  1  0  0  0
 24 26  2  0  0  0
 32 31  2  0  0  0
 25 26  1  0  0  0
 26 27  1  0  0  0
 27 29  1  0  0  0
 27 30  1  0  0  0
 27 28  1  0  0  0
  5  9  1  0  0  0
  7 10  1  0  0  0
  2  4  1  0  0  0
M  CHG 1  32   1
M  CHG 1  33  -1
M  END
> <minimizedAffinity>
-6.74713

$$$$
