1QBV_PPX_H_907
  RCSB PDB12061703453D
Coordinates from PDB:1QBV:H:907 Model:1 without hydrogens
 28 30  0  0  0  0            999 V2000
   16.5750  -16.9570   23.5180   N 0  0  0  0  0  0  0  0  0  0  0  0
   17.8510  -16.1860   23.6670   C 0  0  0  0  0  0  0  0  0  0  0  0
   17.6040  -14.8370   22.9630   C 0  0  0  0  0  0  0  0  0  0  0  0
   16.5700  -14.2150   23.1900   O 0  0  0  0  0  0  0  0  0  0  0  0
   18.1370  -15.9710   25.1610   C 0  0  0  0  0  0  0  0  0  0  0  0
   22.2570  -14.8100   25.4970   C 0  0  0  0  0  0  0  0  0  0  0  0
   19.9340  -14.3910   25.9840   C 0  0  0  0  0  0  0  0  0  0  0  0
   20.5860  -16.4500   24.9930   C 0  0  0  0  0  0  0  0  0  0  0  0
   21.2600  -13.9890   26.0220   C 0  0  0  0  0  0  0  0  0  0  0  0
   21.9240  -16.0560   25.0270   C 0  0  0  0  0  0  0  0  0  0  0  0
   22.2510  -14.8020   25.5410   C 0  0  0  0  0  0  0  0  0  0  0  0
   18.5200  -14.4270   22.0640   N 0  0  0  0  0  0  0  0  0  0  0  0
   18.3790  -13.1430   21.3490   C 0  0  0  0  0  0  0  0  0  0  0  0
   17.0600  -13.0640   20.5960   C 0  0  0  0  0  0  0  0  0  0  0  0
   16.7200  -13.9660   19.8340   O 0  0  0  0  0  0  0  0  0  0  0  0
   19.5820  -13.1550   20.3720   C 0  0  0  0  0  0  0  0  0  0  0  0
   20.5100  -14.2340   20.9120   C 0  0  0  0  0  0  0  0  0  0  0  0
   19.5980  -15.2610   21.4760   C 0  0  0  0  0  0  0  0  0  0  0  0
   16.3020  -11.9960   20.8110   N 0  0  0  0  0  0  0  0  0  0  0  0
   14.9960  -11.7850   20.1770   C 0  0  0  0  0  0  0  0  0  0  0  0
   14.0530  -11.0400   21.0760   C 0  0  0  0  0  0  0  0  0  0  0  0
   13.1720  -11.9830   21.6650   N 0  0  0  0  0  0  0  0  0  0  0  0
   12.3720  -11.6560   22.6740   C 0  0  0  0  0  0  0  0  0  0  0  0
   11.4520  -12.6130   23.0630   C 0  0  0  0  0  0  0  0  0  0  0  0
   10.6030  -12.3620   24.1440   C 0  0  0  0  0  0  0  0  0  0  0  0
   10.6820  -11.2130   24.8140   N 0  0  0  0  0  0  0  0  0  0  0  0
   11.5670  -10.2590   24.4560   C 0  0  0  0  0  0  0  0  0  0  0  0
   12.4380  -10.4570   23.3840   C 0  0  0  0  0  0  0  0  0  0  0  0
  1  2  1  0  0  0  0
  2  5  1  0  0  0  0
  2  3  1  0  0  0  0
  5  6  1  0  0  0  0
  6  7  2  0  0  0  0
  6  8  1  0  0  0  0
  7  9  1  0  0  0  0
  8 10  2  0  0  0  0
  9 11  2  0  0  0  0
 10 11  1  0  0  0  0
  3  4  2  0  0  0  0
  3 12  1  0  0  0  0
 12 18  1  0  0  0  0
 12 13  1  0  0  0  0
 18 17  1  0  0  0  0
 13 16  1  0  0  0  0
 13 14  1  0  0  0  0
 16 17  1  0  0  0  0
 14 15  2  0  0  0  0
 14 19  1  0  0  0  0
 19 20  1  0  0  0  0
 20 21  1  0  0  0  0
 21 22  1  0  0  0  0
 22 23  1  0  0  0  0
 23 24  2  0  0  0  0
 23 28  1  0  0  0  0
 24 25  1  0  0  0  0
 25 26  2  0  0  0  0
 26 27  1  0  0  0  0
 27 28  2  0  0  0  0
A    1
N1
A    2
C2
A    3
C10
A    4
O11
A    5
C3
A    6
C4
A    7
C5
A    8
C6
A    9
C7
A   10
C8
A   11
C9
A   12
N12
A   13
C14
A   14
C17
A   15
O18
A   16
C15
A   17
C16
A   18
C13
A   19
N19
A   20
C20
A   21
C30
A   22
N27
A   23
C21
A   24
C22
A   25
C23
A   26
N24
A   27
C25
A   28
C26
M  END
>  <InstanceId>
1QBV_PPX_H_907

>  <ChemCompId>
PPX

>  <PdbId>
1QBV

>  <ChainId>
H

>  <ResidueNumber>
907

>  <InsertionCode>


>  <Model>
1

>  <AltIds>


>  <MissingHeavyAtoms>
0

>  <ObservedFormula>
C21 N5 O2

>  <Name>
[PHENYLALANINYL-PROLINYL]-[2-(PYRIDIN-4-YLAMINO)-ETHYL]-AMINE

>  <SystematicName>
(2S)-1-[(2R)-2-azanyl-3-phenyl-propanoyl]-N-[2-(pyridin-4-ylamino)ethyl]pyrrolidine-2-carboxamide

>  <Synonyms>


>  <Type>
peptide-like

>  <Formula>
C21 H27 N5 O2

>  <MolecularWeight>
381.471

>  <ModifiedDate>
2011-06-04

>  <Parent>


>  <OneLetterCode>


>  <SubcomponentList>
DPN PRO 01R

>  <AmbiguousFlag>
N

>  <InChI>
InChI=1S/C21H27N5O2/c22-18(15-16-5-2-1-3-6-16)21(28)26-14-4-7-19(26)20(27)25-13-12-24-17-8-10-23-11-9-17/h1-3,5-6,8-11,18-19H,4,7,12-15,22H2,(H,23,24)(H,25,27)/t18-,19+/m1/s1

>  <InChIKey>
GEIDRYBJURDUSW-MOPGFXCFSA-N

>  <SMILES>
c1ccc(cc1)C[C@H](C(=O)N2CCC[C@H]2C(=O)NCCNc3ccncc3)N

$$$$
