1QBV_PPX_H_907


 32 34  0  0  0  0  0  0  0  0999 V2000
   17.8805  -14.7738   22.9427 C   0  0  0  0  0  0  0  0  0  0  0  0
   16.8052  -14.2345   23.1886 O   0  0  0  0  0  0  0  0  0  0  0  0
   18.7680  -14.2662   22.0652 N   0  0  0  0  0  0  0  0  0  0  0  0
   18.5397  -12.9679   21.4002 C   0  0  0  0  0  0  0  0  0  0  0  0
   19.7430  -12.8580   20.4296 C   0  0  0  0  0  0  0  0  0  0  0  0
   20.7425  -13.8904   20.9318 C   0  0  0  0  0  0  0  0  0  0  0  0
   19.9027  -14.9996   21.4505 C   0  0  0  0  0  0  0  0  0  0  0  0
   16.9607  -16.9386   23.5161 N   0  0  0  0  0  0  0  0  0  0  0  0
   18.2190  -16.1291   23.5947 C   0  0  0  0  0  0  0  0  0  0  0  0
   17.1195  -17.8552   23.9345 H   0  0  0  0  0  0  0  0  0  0  0  0
   16.6905  -17.0530   22.5392 H   0  0  0  0  0  0  0  0  0  0  0  0
   18.6024  -15.9378   25.0700 C   0  0  0  0  0  0  0  0  0  0  0  0
   22.5568  -14.2661   25.1337 C   0  0  0  0  0  0  0  0  0  0  0  0
   20.2521  -14.1774   25.8333 C   0  0  0  0  0  0  0  0  0  0  0  0
   21.0676  -16.0846   24.6739 C   0  0  0  0  0  0  0  0  0  0  0  0
   21.5150  -13.6080   25.7857 C   0  0  0  0  0  0  0  0  0  0  0  0
   22.3429  -15.5213   24.6208 C   0  0  0  0  0  0  0  0  0  0  0  0
   22.5538  -14.2611   25.1784 C   0  0  0  0  0  0  0  0  0  0  0  0
   17.2203  -12.9510   20.6441 C   0  0  0  0  0  0  0  0  0  0  0  0
   17.0480  -13.6809   19.6707 O   0  0  0  0  0  0  0  0  0  0  0  0
   16.2761  -12.1319   21.0902 N   0  0  0  0  0  0  0  0  0  0  0  0
   16.4798  -11.5701   21.8726 H   0  0  0  0  0  0  0  0  0  0  0  0
   14.9459  -12.0170   20.4825 C   0  0  0  0  0  0  0  0  0  0  0  0
   14.1851  -10.8415   21.0228 C   0  0  0  0  0  0  0  0  0  0  0  0
   12.8260  -11.2243   21.1593 N   0  0  0  0  0  0  0  0  0  0  0  0
   12.2949  -11.4041   20.3501 H   0  0  0  0  0  0  0  0  0  0  0  0
   12.2511  -11.3464   22.3508 C   0  0  0  0  0  0  0  0  0  0  0  0
   12.2945  -10.2329   23.1704 C   0  0  0  0  0  0  0  0  0  0  0  0
   11.6757  -10.2671   24.4227 C   0  0  0  0  0  0  0  0  0  0  0  0
   11.0301  -11.3596   24.8289 N   0  0  0  0  0  0  0  0  0  0  0  0
   10.9735  -12.4625   24.0530 C   0  0  0  0  0  0  0  0  0  0  0  0
   11.5746  -12.4831   22.7939 C   0  0  0  0  0  0  0  0  0  0  0  0
  8  9  1  0  0  0
  9 12  1  0  0  0
  9  1  1  0  0  0
 12 13  1  0  0  0
 13 14  2  0  0  0
 13 15  1  0  0  0
 14 16  1  0  0  0
 15 17  2  0  0  0
 16 18  2  0  0  0
 17 18  1  0  0  0
  1  2  2  0  0  0
  1  3  1  0  0  0
  3  7  1  0  0  0
  3  4  1  0  0  0
  7  6  1  0  0  0
  4  5  1  0  0  0
  4 19  1  0  0  0
  5  6  1  0  0  0
 19 20  2  0  0  0
 19 21  1  0  0  0
 21 23  1  0  0  0
 23 24  1  0  0  0
 24 25  1  0  0  0
 25 27  1  0  0  0
 27 28  2  0  0  0
 27 32  1  0  0  0
 28 29  1  0  0  0
 29 30  2  0  0  0
 30 31  1  0  0  0
 31 32  2  0  0  0
  8 10  1  0  0  0
  8 11  1  0  0  0
 21 22  1  0  0  0
 25 26  1  0  0  0
M  END
> <minimizedAffinity>
-9.76745

$$$$
1QBV_PPX_H_907


 32 34  0  0  0  0  0  0  0  0999 V2000
   17.8571  -14.7965   22.9696 C   0  0  0  0  0  0  0  0  0  0  0  0
   16.8307  -14.2126   23.3059 O   0  0  0  0  0  0  0  0  0  0  0  0
   18.6949  -14.3172   22.0295 N   0  0  0  0  0  0  0  0  0  0  0  0
   18.4750  -13.0007   21.3983 C   0  0  0  0  0  0  0  0  0  0  0  0
   19.6015  -12.9317   20.3362 C   0  0  0  0  0  0  0  0  0  0  0  0
   20.5888  -14.0152   20.7464 C   0  0  0  0  0  0  0  0  0  0  0  0
   19.7424  -15.0925   21.3188 C   0  0  0  0  0  0  0  0  0  0  0  0
   16.9272  -16.9806   23.4450 N   0  0  0  0  0  0  0  0  0  0  0  0
   18.1832  -16.1747   23.5784 C   0  0  0  0  0  0  0  0  0  0  0  0
   17.0780  -17.9119   23.8328 H   0  0  0  0  0  0  0  0  0  0  0  0
   16.6768  -17.0593   22.4593 H   0  0  0  0  0  0  0  0  0  0  0  0
   18.5367  -16.0373   25.0671 C   0  0  0  0  0  0  0  0  0  0  0  0
   22.4024  -14.1802   25.2743 C   0  0  0  0  0  0  0  0  0  0  0  0
   20.0855  -14.2349   25.9362 C   0  0  0  0  0  0  0  0  0  0  0  0
   21.0119  -16.0464   24.7087 C   0  0  0  0  0  0  0  0  0  0  0  0
   21.3193  -13.6033   25.9361 C   0  0  0  0  0  0  0  0  0  0  0  0
   22.2586  -15.4201   24.7030 C   0  0  0  0  0  0  0  0  0  0  0  0
   22.3984  -14.1773   25.3191 C   0  0  0  0  0  0  0  0  0  0  0  0
   17.1020  -12.9137   20.7499 C   0  0  0  0  0  0  0  0  0  0  0  0
   16.8412  -13.5737   19.7468 O   0  0  0  0  0  0  0  0  0  0  0  0
   16.2113  -12.1127   21.3212 N   0  0  0  0  0  0  0  0  0  0  0  0
   16.4854  -11.6078   22.1207 H   0  0  0  0  0  0  0  0  0  0  0  0
   14.8409  -11.9376   20.8278 C   0  0  0  0  0  0  0  0  0  0  0  0
   13.8476  -12.6977   21.6572 C   0  0  0  0  0  0  0  0  0  0  0  0
   14.2981  -14.0388   21.7607 N   0  0  0  0  0  0  0  0  0  0  0  0
   15.1502  -14.2244   22.2176 H   0  0  0  0  0  0  0  0  0  0  0  0
   13.6001  -15.0509   21.2573 C   0  0  0  0  0  0  0  0  0  0  0  0
   13.6367  -15.1979   19.8823 C   0  0  0  0  0  0  0  0  0  0  0  0
   12.9630  -16.2631   19.2791 C   0  0  0  0  0  0  0  0  0  0  0  0
   12.2969  -17.1486   20.0191 N   0  0  0  0  0  0  0  0  0  0  0  0
   12.2404  -17.0296   21.3623 C   0  0  0  0  0  0  0  0  0  0  0  0
   12.8943  -15.9847   22.0162 C   0  0  0  0  0  0  0  0  0  0  0  0
  8  9  1  0  0  0
  9 12  1  0  0  0
  9  1  1  0  0  0
 12 13  1  0  0  0
 13 14  2  0  0  0
 13 15  1  0  0  0
 14 16  1  0  0  0
 15 17  2  0  0  0
 16 18  2  0  0  0
 17 18  1  0  0  0
  1  2  2  0  0  0
  1  3  1  0  0  0
  3  7  1  0  0  0
  3  4  1  0  0  0
  7  6  1  0  0  0
  4  5  1  0  0  0
  4 19  1  0  0  0
  5  6  1  0  0  0
 19 20  2  0  0  0
 19 21  1  0  0  0
 21 23  1  0  0  0
 23 24  1  0  0  0
 24 25  1  0  0  0
 25 27  1  0  0  0
 27 28  2  0  0  0
 27 32  1  0  0  0
 28 29  1  0  0  0
 29 30  2  0  0  0
 30 31  1  0  0  0
 31 32  2  0  0  0
  8 10  1  0  0  0
  8 11  1  0  0  0
 21 22  1  0  0  0
 25 26  1  0  0  0
M  END
> <minimizedAffinity>
-8.88209

$$$$
1QBV_PPX_H_907


 32 34  0  0  0  0  0  0  0  0999 V2000
   17.5798  -14.8611   21.8671 C   0  0  0  0  0  0  0  0  0  0  0  0
   17.4331  -13.7435   21.3801 O   0  0  0  0  0  0  0  0  0  0  0  0
   17.0440  -15.9708   21.3222 N   0  0  0  0  0  0  0  0  0  0  0  0
   16.3106  -15.9252   20.0417 C   0  0  0  0  0  0  0  0  0  0  0  0
   15.8040  -17.3808   19.8790 C   0  0  0  0  0  0  0  0  0  0  0  0
   16.6399  -18.1944   20.8569 C   0  0  0  0  0  0  0  0  0  0  0  0
   16.8687  -17.2783   22.0027 C   0  0  0  0  0  0  0  0  0  0  0  0
   17.3681  -14.6145   24.2662 N   0  0  0  0  0  0  0  0  0  0  0  0
   18.3398  -15.0172   23.1991 C   0  0  0  0  0  0  0  0  0  0  0  0
   17.8136  -14.6962   25.1801 H   0  0  0  0  0  0  0  0  0  0  0  0
   16.5515  -15.2246   24.2302 H   0  0  0  0  0  0  0  0  0  0  0  0
   19.5527  -14.0754   23.2424 C   0  0  0  0  0  0  0  0  0  0  0  0
   21.7960  -15.0769   26.7637 C   0  0  0  0  0  0  0  0  0  0  0  0
   21.1808  -15.5619   24.4844 C   0  0  0  0  0  0  0  0  0  0  0  0
   20.5061  -13.5153   25.4857 C   0  0  0  0  0  0  0  0  0  0  0  0
   21.8419  -15.9149   25.6504 C   0  0  0  0  0  0  0  0  0  0  0  0
   21.1687  -13.8600   26.6642 C   0  0  0  0  0  0  0  0  0  0  0  0
   21.8327  -15.0836   26.7383 C   0  0  0  0  0  0  0  0  0  0  0  0
   15.1512  -14.9424   20.0958 C   0  0  0  0  0  0  0  0  0  0  0  0
   14.1743  -15.1663   20.8068 O   0  0  0  0  0  0  0  0  0  0  0  0
   15.2531  -13.8432   19.3591 N   0  0  0  0  0  0  0  0  0  0  0  0
   16.0603  -13.7263   18.8078 H   0  0  0  0  0  0  0  0  0  0  0  0
   14.2300  -12.7925   19.3206 C   0  0  0  0  0  0  0  0  0  0  0  0
   14.0610  -12.1289   20.6561 C   0  0  0  0  0  0  0  0  0  0  0  0
   12.7439  -12.3920   21.1127 N   0  0  0  0  0  0  0  0  0  0  0  0
   12.1707  -13.0036   20.5963 H   0  0  0  0  0  0  0  0  0  0  0  0
   12.2638  -11.8347   22.2190 C   0  0  0  0  0  0  0  0  0  0  0  0
   11.4518  -12.6320   23.0054 C   0  0  0  0  0  0  0  0  0  0  0  0
   10.9416  -12.1331   24.2068 C   0  0  0  0  0  0  0  0  0  0  0  0
   11.2430  -10.8993   24.6096 N   0  0  0  0  0  0  0  0  0  0  0  0
   12.0298  -10.0969   23.8622 C   0  0  0  0  0  0  0  0  0  0  0  0
   12.5655  -10.5440   22.6539 C   0  0  0  0  0  0  0  0  0  0  0  0
  8  9  1  0  0  0
  9 12  1  0  0  0
  9  1  1  0  0  0
 12 13  1  0  0  0
 13 14  2  0  0  0
 13 15  1  0  0  0
 14 16  1  0  0  0
 15 17  2  0  0  0
 16 18  2  0  0  0
 17 18  1  0  0  0
  1  2  2  0  0  0
  1  3  1  0  0  0
  3  7  1  0  0  0
  3  4  1  0  0  0
  7  6  1  0  0  0
  4  5  1  0  0  0
  4 19  1  0  0  0
  5  6  1  0  0  0
 19 20  2  0  0  0
 19 21  1  0  0  0
 21 23  1  0  0  0
 23 24  1  0  0  0
 24 25  1  0  0  0
 25 27  1  0  0  0
 27 28  2  0  0  0
 27 32  1  0  0  0
 28 29  1  0  0  0
 29 30  2  0  0  0
 30 31  1  0  0  0
 31 32  2  0  0  0
  8 10  1  0  0  0
  8 11  1  0  0  0
 21 22  1  0  0  0
 25 26  1  0  0  0
M  END
> <minimizedAffinity>
-8.55208

$$$$
1QBV_PPX_H_907


 32 34  0  0  0  0  0  0  0  0999 V2000
   15.2602  -13.7548   20.8679 C   0  0  0  0  0  0  0  0  0  0  0  0
   15.4100  -13.7202   22.0861 O   0  0  0  0  0  0  0  0  0  0  0  0
   15.3311  -14.8965   20.1559 N   0  0  0  0  0  0  0  0  0  0  0  0
   15.5088  -16.2064   20.8133 C   0  0  0  0  0  0  0  0  0  0  0  0
   15.6372  -17.1819   19.6159 C   0  0  0  0  0  0  0  0  0  0  0  0
   15.1093  -16.4012   18.4207 C   0  0  0  0  0  0  0  0  0  0  0  0
   15.5123  -14.9970   18.6861 C   0  0  0  0  0  0  0  0  0  0  0  0
   15.5277  -11.3525   21.0051 N   0  0  0  0  0  0  0  0  0  0  0  0
   15.0581  -12.4404   20.0882 C   0  0  0  0  0  0  0  0  0  0  0  0
   15.4194  -10.4491   20.5443 H   0  0  0  0  0  0  0  0  0  0  0  0
   16.5104  -11.5016   21.2344 H   0  0  0  0  0  0  0  0  0  0  0  0
   13.5706  -12.2238   19.7714 C   0  0  0  0  0  0  0  0  0  0  0  0
   11.5649  -11.6098   23.5178 C   0  0  0  0  0  0  0  0  0  0  0  0
   12.6497  -10.6983   21.5681 C   0  0  0  0  0  0  0  0  0  0  0  0
   12.1598  -13.0210   21.6765 C   0  0  0  0  0  0  0  0  0  0  0  0
   12.0670  -10.5170   22.8126 C   0  0  0  0  0  0  0  0  0  0  0  0
   11.5702  -12.8500   22.9294 C   0  0  0  0  0  0  0  0  0  0  0  0
   11.5394  -11.5777   23.4987 C   0  0  0  0  0  0  0  0  0  0  0  0
   16.7583  -16.2324   21.6801 C   0  0  0  0  0  0  0  0  0  0  0  0
   17.8700  -16.0813   21.1791 O   0  0  0  0  0  0  0  0  0  0  0  0
   16.5880  -16.4097   22.9843 N   0  0  0  0  0  0  0  0  0  0  0  0
   15.6708  -16.5293   23.3213 H   0  0  0  0  0  0  0  0  0  0  0  0
   17.6905  -16.4376   23.9517 C   0  0  0  0  0  0  0  0  0  0  0  0
   18.0671  -15.0585   24.4085 C   0  0  0  0  0  0  0  0  0  0  0  0
   19.1863  -14.6349   23.6467 N   0  0  0  0  0  0  0  0  0  0  0  0
   19.0719  -14.4556   22.6855 H   0  0  0  0  0  0  0  0  0  0  0  0
   20.3849  -14.4737   24.1967 C   0  0  0  0  0  0  0  0  0  0  0  0
   21.4709  -14.5950   23.3484 C   0  0  0  0  0  0  0  0  0  0  0  0
   22.7633  -14.3976   23.8415 C   0  0  0  0  0  0  0  0  0  0  0  0
   22.9583  -14.0784   25.1203 N   0  0  0  0  0  0  0  0  0  0  0  0
   21.9190  -13.9563   25.9726 C   0  0  0  0  0  0  0  0  0  0  0  0
   20.6078  -14.1433   25.5335 C   0  0  0  0  0  0  0  0  0  0  0  0
  8  9  1  0  0  0
  9 12  1  0  0  0
  9  1  1  0  0  0
 12 13  1  0  0  0
 13 14  2  0  0  0
 13 15  1  0  0  0
 14 16  1  0  0  0
 15 17  2  0  0  0
 16 18  2  0  0  0
 17 18  1  0  0  0
  1  2  2  0  0  0
  1  3  1  0  0  0
  3  7  1  0  0  0
  3  4  1  0  0  0
  7  6  1  0  0  0
  4  5  1  0  0  0
  4 19  1  0  0  0
  5  6  1  0  0  0
 19 20  2  0  0  0
 19 21  1  0  0  0
 21 23  1  0  0  0
 23 24  1  0  0  0
 24 25  1  0  0  0
 25 27  1  0  0  0
 27 28  2  0  0  0
 27 32  1  0  0  0
 28 29  1  0  0  0
 29 30  2  0  0  0
 30 31  1  0  0  0
 31 32  2  0  0  0
  8 10  1  0  0  0
  8 11  1  0  0  0
 21 22  1  0  0  0
 25 26  1  0  0  0
M  END
> <minimizedAffinity>
-8.44936

$$$$
1QBV_PPX_H_907


 32 34  0  0  0  0  0  0  0  0999 V2000
   16.5271  -14.6386   20.9210 C   0  0  0  0  0  0  0  0  0  0  0  0
   16.4931  -13.4114   20.8971 O   0  0  0  0  0  0  0  0  0  0  0  0
   15.9799  -15.4029   19.9557 N   0  0  0  0  0  0  0  0  0  0  0  0
   15.3737  -14.8058   18.7492 C   0  0  0  0  0  0  0  0  0  0  0  0
   14.7993  -16.0368   18.0031 C   0  0  0  0  0  0  0  0  0  0  0  0
   15.4902  -17.2342   18.6401 C   0  0  0  0  0  0  0  0  0  0  0  0
   15.6645  -16.8493   20.0635 C   0  0  0  0  0  0  0  0  0  0  0  0
   16.8048  -14.5149   23.3229 N   0  0  0  0  0  0  0  0  0  0  0  0
   17.1483  -15.3594   22.1338 C   0  0  0  0  0  0  0  0  0  0  0  0
   17.1906  -14.9411   24.1654 H   0  0  0  0  0  0  0  0  0  0  0  0
   15.7909  -14.4468   23.4100 H   0  0  0  0  0  0  0  0  0  0  0  0
   18.6764  -15.4327   21.9938 C   0  0  0  0  0  0  0  0  0  0  0  0
   20.3330  -14.6413   25.8752 C   0  0  0  0  0  0  0  0  0  0  0  0
   19.3421  -16.1884   24.3152 C   0  0  0  0  0  0  0  0  0  0  0  0
   19.9867  -14.0199   23.5883 C   0  0  0  0  0  0  0  0  0  0  0  0
   19.8109  -15.9016   25.5877 C   0  0  0  0  0  0  0  0  0  0  0  0
   20.4625  -13.7206   24.8653 C   0  0  0  0  0  0  0  0  0  0  0  0
   20.3575  -14.6791   25.8722 C   0  0  0  0  0  0  0  0  0  0  0  0
   14.2746  -13.8171   19.1062 C   0  0  0  0  0  0  0  0  0  0  0  0
   13.2096  -14.2093   19.5771 O   0  0  0  0  0  0  0  0  0  0  0  0
   14.5258  -12.5304   18.8994 N   0  0  0  0  0  0  0  0  0  0  0  0
   15.3977  -12.2830   18.5150 H   0  0  0  0  0  0  0  0  0  0  0  0
   13.5766  -11.4564   19.2118 C   0  0  0  0  0  0  0  0  0  0  0  0
   13.9002  -10.7873   20.5157 C   0  0  0  0  0  0  0  0  0  0  0  0
   13.6504  -11.7159   21.5586 N   0  0  0  0  0  0  0  0  0  0  0  0
   14.1438  -12.5677   21.5704 H   0  0  0  0  0  0  0  0  0  0  0  0
   12.7680  -11.4659   22.5198 C   0  0  0  0  0  0  0  0  0  0  0  0
   11.9204  -12.5048   22.8603 C   0  0  0  0  0  0  0  0  0  0  0  0
   10.9923  -12.3351   23.8910 C   0  0  0  0  0  0  0  0  0  0  0  0
   10.9265  -11.1846   24.5598 N   0  0  0  0  0  0  0  0  0  0  0  0
   11.7378  -10.1520   24.2482 C   0  0  0  0  0  0  0  0  0  0  0  0
   12.6823  -10.2669   23.2276 C   0  0  0  0  0  0  0  0  0  0  0  0
  8  9  1  0  0  0
  9 12  1  0  0  0
  9  1  1  0  0  0
 12 13  1  0  0  0
 13 14  2  0  0  0
 13 15  1  0  0  0
 14 16  1  0  0  0
 15 17  2  0  0  0
 16 18  2  0  0  0
 17 18  1  0  0  0
  1  2  2  0  0  0
  1  3  1  0  0  0
  3  7  1  0  0  0
  3  4  1  0  0  0
  7  6  1  0  0  0
  4  5  1  0  0  0
  4 19  1  0  0  0
  5  6  1  0  0  0
 19 20  2  0  0  0
 19 21  1  0  0  0
 21 23  1  0  0  0
 23 24  1  0  0  0
 24 25  1  0  0  0
 25 27  1  0  0  0
 27 28  2  0  0  0
 27 32  1  0  0  0
 28 29  1  0  0  0
 29 30  2  0  0  0
 30 31  1  0  0  0
 31 32  2  0  0  0
  8 10  1  0  0  0
  8 11  1  0  0  0
 21 22  1  0  0  0
 25 26  1  0  0  0
M  END
> <minimizedAffinity>
-8.35515

$$$$
1QBV_PPX_H_907


 32 34  0  0  0  0  0  0  0  0999 V2000
   18.8514  -15.6091   22.4487 C   0  0  0  0  0  0  0  0  0  0  0  0
   18.8059  -16.2354   21.3936 O   0  0  0  0  0  0  0  0  0  0  0  0
   18.3627  -16.0940   23.6069 N   0  0  0  0  0  0  0  0  0  0  0  0
   17.8132  -17.4611   23.7008 C   0  0  0  0  0  0  0  0  0  0  0  0
   17.2909  -17.5267   25.1584 C   0  0  0  0  0  0  0  0  0  0  0  0
   17.9607  -16.3560   25.8640 C   0  0  0  0  0  0  0  0  0  0  0  0
   18.0574  -15.3008   24.8239 C   0  0  0  0  0  0  0  0  0  0  0  0
   19.1232  -13.6172   21.0999 N   0  0  0  0  0  0  0  0  0  0  0  0
   19.4169  -14.1751   22.4590 C   0  0  0  0  0  0  0  0  0  0  0  0
   19.4753  -12.6617   21.0412 H   0  0  0  0  0  0  0  0  0  0  0  0
   18.1154  -13.6184   20.9423 H   0  0  0  0  0  0  0  0  0  0  0  0
   20.9376  -14.1958   22.6761 C   0  0  0  0  0  0  0  0  0  0  0  0
   21.5985  -14.7006   26.8884 C   0  0  0  0  0  0  0  0  0  0  0  0
   21.9292  -15.4660   24.6271 C   0  0  0  0  0  0  0  0  0  0  0  0
   20.9323  -13.3467   25.0286 C   0  0  0  0  0  0  0  0  0  0  0  0
   22.0727  -15.6576   25.9924 C   0  0  0  0  0  0  0  0  0  0  0  0
   21.0725  -13.5285   26.4048 C   0  0  0  0  0  0  0  0  0  0  0  0
   21.6421  -14.7087   26.8805 C   0  0  0  0  0  0  0  0  0  0  0  0
   16.6869  -17.6810   22.7028 C   0  0  0  0  0  0  0  0  0  0  0  0
   16.5626  -18.7598   22.1278 O   0  0  0  0  0  0  0  0  0  0  0  0
   15.8516  -16.6700   22.4987 N   0  0  0  0  0  0  0  0  0  0  0  0
   16.0096  -15.8304   22.9880 H   0  0  0  0  0  0  0  0  0  0  0  0
   14.7060  -16.7338   21.5845 C   0  0  0  0  0  0  0  0  0  0  0  0
   14.4246  -15.4038   20.9486 C   0  0  0  0  0  0  0  0  0  0  0  0
   14.5440  -14.4055   21.9493 N   0  0  0  0  0  0  0  0  0  0  0  0
   15.2498  -14.4913   22.6303 H   0  0  0  0  0  0  0  0  0  0  0  0
   13.7281  -13.3579   21.9915 C   0  0  0  0  0  0  0  0  0  0  0  0
   12.4583  -13.5883   22.4896 C   0  0  0  0  0  0  0  0  0  0  0  0
   11.5546  -12.5290   22.6060 C   0  0  0  0  0  0  0  0  0  0  0  0
   11.9107  -11.2940   22.2548 N   0  0  0  0  0  0  0  0  0  0  0  0
   13.1412  -11.0388   21.7625 C   0  0  0  0  0  0  0  0  0  0  0  0
   14.0825  -12.0595   21.6245 C   0  0  0  0  0  0  0  0  0  0  0  0
  8  9  1  0  0  0
  9 12  1  0  0  0
  9  1  1  0  0  0
 12 13  1  0  0  0
 13 14  2  0  0  0
 13 15  1  0  0  0
 14 16  1  0  0  0
 15 17  2  0  0  0
 16 18  2  0  0  0
 17 18  1  0  0  0
  1  2  2  0  0  0
  1  3  1  0  0  0
  3  7  1  0  0  0
  3  4  1  0  0  0
  7  6  1  0  0  0
  4  5  1  0  0  0
  4 19  1  0  0  0
  5  6  1  0  0  0
 19 20  2  0  0  0
 19 21  1  0  0  0
 21 23  1  0  0  0
 23 24  1  0  0  0
 24 25  1  0  0  0
 25 27  1  0  0  0
 27 28  2  0  0  0
 27 32  1  0  0  0
 28 29  1  0  0  0
 29 30  2  0  0  0
 30 31  1  0  0  0
 31 32  2  0  0  0
  8 10  1  0  0  0
  8 11  1  0  0  0
 21 22  1  0  0  0
 25 26  1  0  0  0
M  END
> <minimizedAffinity>
-8.29840

$$$$
1QBV_PPX_H_907


 32 34  0  0  0  0  0  0  0  0999 V2000
   15.0227  -13.4100   20.9382 C   0  0  0  0  0  0  0  0  0  0  0  0
   15.2180  -14.6065   21.1320 O   0  0  0  0  0  0  0  0  0  0  0  0
   13.8967  -12.7815   21.3288 N   0  0  0  0  0  0  0  0  0  0  0  0
   12.8509  -13.4806   22.1016 C   0  0  0  0  0  0  0  0  0  0  0  0
   11.7349  -12.4121   22.2224 C   0  0  0  0  0  0  0  0  0  0  0  0
   12.4173  -11.0967   21.8743 C   0  0  0  0  0  0  0  0  0  0  0  0
   13.4232  -11.4606   20.8445 C   0  0  0  0  0  0  0  0  0  0  0  0
   16.6558  -13.5379   19.1555 N   0  0  0  0  0  0  0  0  0  0  0  0
   16.0604  -12.5874   20.1489 C   0  0  0  0  0  0  0  0  0  0  0  0
   17.3564  -13.0509   18.5966 H   0  0  0  0  0  0  0  0  0  0  0  0
   15.9214  -13.8950   18.5443 H   0  0  0  0  0  0  0  0  0  0  0  0
   17.1682  -12.0769   21.0828 C   0  0  0  0  0  0  0  0  0  0  0  0
   20.2853  -15.0297   21.0655 C   0  0  0  0  0  0  0  0  0  0  0  0
   19.3875  -12.9515   20.2383 C   0  0  0  0  0  0  0  0  0  0  0  0
   18.3509  -14.0439   22.0765 C   0  0  0  0  0  0  0  0  0  0  0  0
   20.3499  -13.9478   20.1886 C   0  0  0  0  0  0  0  0  0  0  0  0
   19.3149  -15.0517   22.0361 C   0  0  0  0  0  0  0  0  0  0  0  0
   20.3162  -14.9968   21.0676 C   0  0  0  0  0  0  0  0  0  0  0  0
   12.3504  -14.7183   21.3731 C   0  0  0  0  0  0  0  0  0  0  0  0
   11.8238  -14.6227   20.2670 O   0  0  0  0  0  0  0  0  0  0  0  0
   12.5211  -15.8878   21.9768 N   0  0  0  0  0  0  0  0  0  0  0  0
   12.9462  -15.8949   22.8648 H   0  0  0  0  0  0  0  0  0  0  0  0
   12.1117  -17.1707   21.3947 C   0  0  0  0  0  0  0  0  0  0  0  0
   13.1896  -18.2079   21.5158 C   0  0  0  0  0  0  0  0  0  0  0  0
   14.4173  -17.5384   21.7544 N   0  0  0  0  0  0  0  0  0  0  0  0
   14.6127  -16.7066   21.2654 H   0  0  0  0  0  0  0  0  0  0  0  0
   15.3102  -18.0046   22.6206 C   0  0  0  0  0  0  0  0  0  0  0  0
   16.6335  -17.6914   22.3666 C   0  0  0  0  0  0  0  0  0  0  0  0
   17.6291  -18.1087   23.2537 C   0  0  0  0  0  0  0  0  0  0  0  0
   17.3131  -18.7942   24.3517 N   0  0  0  0  0  0  0  0  0  0  0  0
   16.0316  -19.1176   24.6246 C   0  0  0  0  0  0  0  0  0  0  0  0
   14.9980  -18.7267   23.7726 C   0  0  0  0  0  0  0  0  0  0  0  0
  8  9  1  0  0  0
  9 12  1  0  0  0
  9  1  1  0  0  0
 12 13  1  0  0  0
 13 14  2  0  0  0
 13 15  1  0  0  0
 14 16  1  0  0  0
 15 17  2  0  0  0
 16 18  2  0  0  0
 17 18  1  0  0  0
  1  2  2  0  0  0
  1  3  1  0  0  0
  3  7  1  0  0  0
  3  4  1  0  0  0
  7  6  1  0  0  0
  4  5  1  0  0  0
  4 19  1  0  0  0
  5  6  1  0  0  0
 19 20  2  0  0  0
 19 21  1  0  0  0
 21 23  1  0  0  0
 23 24  1  0  0  0
 24 25  1  0  0  0
 25 27  1  0  0  0
 27 28  2  0  0  0
 27 32  1  0  0  0
 28 29  1  0  0  0
 29 30  2  0  0  0
 30 31  1  0  0  0
 31 32  2  0  0  0
  8 10  1  0  0  0
  8 11  1  0  0  0
 21 22  1  0  0  0
 25 26  1  0  0  0
M  END
> <minimizedAffinity>
-7.82711

$$$$
1QBV_PPX_H_907


 32 34  0  0  0  0  0  0  0  0999 V2000
   14.2949  -14.9133   20.6644 C   0  0  0  0  0  0  0  0  0  0  0  0
   13.8014  -15.5835   21.5672 O   0  0  0  0  0  0  0  0  0  0  0  0
   14.6939  -15.4472   19.4935 N   0  0  0  0  0  0  0  0  0  0  0  0
   14.4806  -16.8748   19.1835 C   0  0  0  0  0  0  0  0  0  0  0  0
   15.1811  -17.0412   17.8111 C   0  0  0  0  0  0  0  0  0  0  0  0
   15.3566  -15.6217   17.2901 C   0  0  0  0  0  0  0  0  0  0  0  0
   15.5989  -14.8061   18.5069 C   0  0  0  0  0  0  0  0  0  0  0  0
   14.7697  -13.2504   22.3587 N   0  0  0  0  0  0  0  0  0  0  0  0
   14.5499  -13.4091   20.8851 C   0  0  0  0  0  0  0  0  0  0  0  0
   14.9454  -12.2686   22.5724 H   0  0  0  0  0  0  0  0  0  0  0  0
   15.5733  -13.8097   22.6447 H   0  0  0  0  0  0  0  0  0  0  0  0
   13.3212  -12.5863   20.4686 C   0  0  0  0  0  0  0  0  0  0  0  0
   11.4496  -11.2080   24.0787 C   0  0  0  0  0  0  0  0  0  0  0  0
   12.8327  -10.7645   22.1553 C   0  0  0  0  0  0  0  0  0  0  0  0
   11.6635  -12.8261   22.3260 C   0  0  0  0  0  0  0  0  0  0  0  0
   12.2839  -10.3531   23.3599 C   0  0  0  0  0  0  0  0  0  0  0  0
   11.1047  -12.4221   23.5389 C   0  0  0  0  0  0  0  0  0  0  0  0
   11.4357  -11.1709   24.0571 C   0  0  0  0  0  0  0  0  0  0  0  0
   15.1101  -17.7756   20.2348 C   0  0  0  0  0  0  0  0  0  0  0  0
   14.5325  -18.7914   20.6149 O   0  0  0  0  0  0  0  0  0  0  0  0
   16.3008  -17.4218   20.7023 N   0  0  0  0  0  0  0  0  0  0  0  0
   16.7074  -16.5934   20.3592 H   0  0  0  0  0  0  0  0  0  0  0  0
   17.0448  -18.1963   21.7017 C   0  0  0  0  0  0  0  0  0  0  0  0
   16.8520  -17.6514   23.0867 C   0  0  0  0  0  0  0  0  0  0  0  0
   16.8478  -16.2353   23.0039 N   0  0  0  0  0  0  0  0  0  0  0  0
   16.0710  -15.7806   22.6050 H   0  0  0  0  0  0  0  0  0  0  0  0
   17.8649  -15.5066   23.4507 C   0  0  0  0  0  0  0  0  0  0  0  0
   18.1808  -15.6494   24.7899 C   0  0  0  0  0  0  0  0  0  0  0  0
   19.2643  -14.9493   25.3268 C   0  0  0  0  0  0  0  0  0  0  0  0
   20.0063  -14.1555   24.5557 N   0  0  0  0  0  0  0  0  0  0  0  0
   19.7206  -13.9934   23.2466 C   0  0  0  0  0  0  0  0  0  0  0  0
   18.6497  -14.6679   22.6591 C   0  0  0  0  0  0  0  0  0  0  0  0
  8  9  1  0  0  0
  9 12  1  0  0  0
  9  1  1  0  0  0
 12 13  1  0  0  0
 13 14  2  0  0  0
 13 15  1  0  0  0
 14 16  1  0  0  0
 15 17  2  0  0  0
 16 18  2  0  0  0
 17 18  1  0  0  0
  1  2  2  0  0  0
  1  3  1  0  0  0
  3  7  1  0  0  0
  3  4  1  0  0  0
  7  6  1  0  0  0
  4  5  1  0  0  0
  4 19  1  0  0  0
  5  6  1  0  0  0
 19 20  2  0  0  0
 19 21  1  0  0  0
 21 23  1  0  0  0
 23 24  1  0  0  0
 24 25  1  0  0  0
 25 27  1  0  0  0
 27 28  2  0  0  0
 27 32  1  0  0  0
 28 29  1  0  0  0
 29 30  2  0  0  0
 30 31  1  0  0  0
 31 32  2  0  0  0
  8 10  1  0  0  0
  8 11  1  0  0  0
 21 22  1  0  0  0
 25 26  1  0  0  0
M  END
> <minimizedAffinity>
-7.55473

$$$$
1QBV_PPX_H_907


 32 34  0  0  0  0  0  0  0  0999 V2000
   17.6958  -14.5680   22.7102 C   0  0  0  0  0  0  0  0  0  0  0  0
   16.6106  -14.0067   22.8320 O   0  0  0  0  0  0  0  0  0  0  0  0
   18.6678  -14.1092   21.8978 N   0  0  0  0  0  0  0  0  0  0  0  0
   18.5212  -12.8391   21.1595 C   0  0  0  0  0  0  0  0  0  0  0  0
   19.8103  -12.7851   20.3009 C   0  0  0  0  0  0  0  0  0  0  0  0
   20.7437  -13.8052   20.9373 C   0  0  0  0  0  0  0  0  0  0  0  0
   19.8433  -14.8813   21.4230 C   0  0  0  0  0  0  0  0  0  0  0  0
   16.7058  -16.7069   23.2636 N   0  0  0  0  0  0  0  0  0  0  0  0
   17.9526  -15.8969   23.4483 C   0  0  0  0  0  0  0  0  0  0  0  0
   16.8121  -17.6064   23.7326 H   0  0  0  0  0  0  0  0  0  0  0  0
   16.5438  -16.8596   22.2682 H   0  0  0  0  0  0  0  0  0  0  0  0
   18.1728  -15.6478   24.9481 C   0  0  0  0  0  0  0  0  0  0  0  0
   22.3090  -14.6139   25.4559 C   0  0  0  0  0  0  0  0  0  0  0  0
   20.6352  -16.1678   24.6859 C   0  0  0  0  0  0  0  0  0  0  0  0
   19.9945  -13.9996   25.4173 C   0  0  0  0  0  0  0  0  0  0  0  0
   21.9647  -15.8550   24.9222 C   0  0  0  0  0  0  0  0  0  0  0  0
   21.3295  -13.6736   25.6582 C   0  0  0  0  0  0  0  0  0  0  0  0
   22.3172  -14.6266   25.4134 C   0  0  0  0  0  0  0  0  0  0  0  0
   17.2774  -12.8412   20.2843 C   0  0  0  0  0  0  0  0  0  0  0  0
   16.6295  -11.8108   20.1160 O   0  0  0  0  0  0  0  0  0  0  0  0
   16.9414  -13.9899   19.7108 N   0  0  0  0  0  0  0  0  0  0  0  0
   17.5005  -14.7801   19.8903 H   0  0  0  0  0  0  0  0  0  0  0  0
   15.7833  -14.1478   18.8242 C   0  0  0  0  0  0  0  0  0  0  0  0
   14.5412  -14.5057   19.5868 C   0  0  0  0  0  0  0  0  0  0  0  0
   14.7008  -15.8219   20.0913 N   0  0  0  0  0  0  0  0  0  0  0  0
   14.9392  -15.9467   21.0383 H   0  0  0  0  0  0  0  0  0  0  0  0
   14.5369  -16.8905   19.3192 C   0  0  0  0  0  0  0  0  0  0  0  0
   13.3201  -16.9980   18.6700 C   0  0  0  0  0  0  0  0  0  0  0  0
   13.0854  -18.0711   17.8065 C   0  0  0  0  0  0  0  0  0  0  0  0
   14.0304  -18.9855   17.5910 N   0  0  0  0  0  0  0  0  0  0  0  0
   15.2260  -18.9093   18.2124 C   0  0  0  0  0  0  0  0  0  0  0  0
   15.5131  -17.8591   19.0852 C   0  0  0  0  0  0  0  0  0  0  0  0
  8  9  1  0  0  0
  9 12  1  0  0  0
  9  1  1  0  0  0
 12 13  1  0  0  0
 13 14  2  0  0  0
 13 15  1  0  0  0
 14 16  1  0  0  0
 15 17  2  0  0  0
 16 18  2  0  0  0
 17 18  1  0  0  0
  1  2  2  0  0  0
  1  3  1  0  0  0
  3  7  1  0  0  0
  3  4  1  0  0  0
  7  6  1  0  0  0
  4  5  1  0  0  0
  4 19  1  0  0  0
  5  6  1  0  0  0
 19 20  2  0  0  0
 19 21  1  0  0  0
 21 23  1  0  0  0
 23 24  1  0  0  0
 24 25  1  0  0  0
 25 27  1  0  0  0
 27 28  2  0  0  0
 27 32  1  0  0  0
 28 29  1  0  0  0
 29 30  2  0  0  0
 30 31  1  0  0  0
 31 32  2  0  0  0
  8 10  1  0  0  0
  8 11  1  0  0  0
 21 22  1  0  0  0
 25 26  1  0  0  0
M  END
> <minimizedAffinity>
-7.48971

$$$$
1QBV_PPX_H_907


 32 34  0  0  0  0  0  0  0  0999 V2000
   15.0126  -13.4228   20.9254 C   0  0  0  0  0  0  0  0  0  0  0  0
   15.1972  -14.6222   21.1123 O   0  0  0  0  0  0  0  0  0  0  0  0
   13.8940  -12.7857   21.3233 N   0  0  0  0  0  0  0  0  0  0  0  0
   12.8442  -13.4789   22.0960 C   0  0  0  0  0  0  0  0  0  0  0  0
   11.7389  -12.4005   22.2264 C   0  0  0  0  0  0  0  0  0  0  0  0
   12.4327  -11.0899   21.8827 C   0  0  0  0  0  0  0  0  0  0  0  0
   13.4315  -11.4579   20.8476 C   0  0  0  0  0  0  0  0  0  0  0  0
   16.6512  -13.5616   19.1487 N   0  0  0  0  0  0  0  0  0  0  0  0
   16.0554  -12.6059   20.1369 C   0  0  0  0  0  0  0  0  0  0  0  0
   17.3552  -13.0785   18.5905 H   0  0  0  0  0  0  0  0  0  0  0  0
   15.9179  -13.9185   18.5362 H   0  0  0  0  0  0  0  0  0  0  0  0
   17.1616  -12.0956   21.0727 C   0  0  0  0  0  0  0  0  0  0  0  0
   20.2964  -15.0294   21.0291 C   0  0  0  0  0  0  0  0  0  0  0  0
   19.4141  -12.9200   20.2667 C   0  0  0  0  0  0  0  0  0  0  0  0
   18.3221  -14.1002   22.0164 C   0  0  0  0  0  0  0  0  0  0  0  0
   20.3841  -13.9083   20.2051 C   0  0  0  0  0  0  0  0  0  0  0  0
   19.2934  -15.1004   21.9636 C   0  0  0  0  0  0  0  0  0  0  0  0
   20.3270  -14.9965   21.0338 C   0  0  0  0  0  0  0  0  0  0  0  0
   12.3295  -14.7079   21.3628 C   0  0  0  0  0  0  0  0  0  0  0  0
   11.8381  -14.6067   20.2411 O   0  0  0  0  0  0  0  0  0  0  0  0
   12.4488  -15.8767   21.9802 N   0  0  0  0  0  0  0  0  0  0  0  0
   12.8476  -15.8883   22.8802 H   0  0  0  0  0  0  0  0  0  0  0  0
   12.0195  -17.1522   21.3963 C   0  0  0  0  0  0  0  0  0  0  0  0
   13.1441  -18.1440   21.3336 C   0  0  0  0  0  0  0  0  0  0  0  0
   14.1167  -17.6471   20.4282 N   0  0  0  0  0  0  0  0  0  0  0  0
   14.3939  -16.7046   20.4920 H   0  0  0  0  0  0  0  0  0  0  0  0
   14.6631  -18.4205   19.4964 C   0  0  0  0  0  0  0  0  0  0  0  0
   14.1614  -19.7055   19.3935 C   0  0  0  0  0  0  0  0  0  0  0  0
   14.6540  -20.5673   18.4102 C   0  0  0  0  0  0  0  0  0  0  0  0
   15.5938  -20.1567   17.5596 N   0  0  0  0  0  0  0  0  0  0  0  0
   16.1050  -18.9101   17.6373 C   0  0  0  0  0  0  0  0  0  0  0  0
   15.6499  -18.0088   18.6004 C   0  0  0  0  0  0  0  0  0  0  0  0
  8  9  1  0  0  0
  9 12  1  0  0  0
  9  1  1  0  0  0
 12 13  1  0  0  0
 13 14  2  0  0  0
 13 15  1  0  0  0
 14 16  1  0  0  0
 15 17  2  0  0  0
 16 18  2  0  0  0
 17 18  1  0  0  0
  1  2  2  0  0  0
  1  3  1  0  0  0
  3  7  1  0  0  0
  3  4  1  0  0  0
  7  6  1  0  0  0
  4  5  1  0  0  0
  4 19  1  0  0  0
  5  6  1  0  0  0
 19 20  2  0  0  0
 19 21  1  0  0  0
 21 23  1  0  0  0
 23 24  1  0  0  0
 24 25  1  0  0  0
 25 27  1  0  0  0
 27 28  2  0  0  0
 27 32  1  0  0  0
 28 29  1  0  0  0
 29 30  2  0  0  0
 30 31  1  0  0  0
 31 32  2  0  0  0
  8 10  1  0  0  0
  8 11  1  0  0  0
 21 22  1  0  0  0
 25 26  1  0  0  0
M  END
> <minimizedAffinity>
-7.29288

$$$$
