4WKO_HCE_A_301


 29 31  0  0  0  0  0  0  0  0999 V2000
  -35.1452  -45.2548   12.3337 C   0  0  0  0  0  0  0  0  0  0  0  0
  -34.0172  -46.2474   12.1185 C   0  0  0  0  0  0  0  0  0  0  0  0
  -35.1393  -44.4095   11.0780 C   0  0  0  0  0  0  0  0  0  0  0  0
  -34.1282  -43.3972   11.1059 O   0  0  0  0  0  0  0  0  0  0  0  0
  -34.7552  -45.4020   10.0025 C   0  0  0  0  0  0  0  0  0  0  0  0
  -33.6496  -46.1153   10.6854 N   0  0  0  0  0  0  0  0  0  0  0  0
  -33.2595  -43.8112   11.2279 H   0  0  0  0  0  0  0  0  0  0  0  0
  -36.4598  -46.0195   12.5176 C   0  0  0  0  0  0  0  0  0  0  0  0
  -37.8202  -44.9581   12.8634 S   0  0  0  0  0  0  0  0  0  0  0  0
  -37.5569  -44.5518   14.5632 C   0  0  0  0  0  0  0  0  0  0  0  0
  -38.8062  -44.1004   15.3139 C   0  0  0  0  0  0  0  0  0  0  0  0
  -38.6962  -44.6280   16.7478 C   0  0  0  0  0  0  0  0  0  0  0  0
  -39.5932  -43.8977   17.7293 C   0  0  0  0  0  0  0  0  0  0  0  0
  -39.6845  -42.5337   17.3231 O   0  0  0  0  0  0  0  0  0  0  0  0
  -40.0531  -42.4872   16.4270 H   0  0  0  0  0  0  0  0  0  0  0  0
  -33.3107  -47.3743   10.0155 C   0  0  0  0  0  0  0  0  0  0  0  0
  -34.2093  -48.5716   10.1940 C   0  0  0  0  0  0  0  0  0  0  0  0
  -34.0806  -49.5731   11.1660 C   0  0  0  0  0  0  0  0  0  0  0  0
  -35.0423  -50.5322   11.0010 N   0  0  0  0  0  0  0  0  0  0  0  0
  -35.8284  -50.2402    9.9514 C   0  0  0  0  0  0  0  0  0  0  0  0
  -35.3534  -48.9958    9.3699 C   0  0  0  0  0  0  0  0  0  0  0  0
  -35.9477  -48.4314    8.2907 N   0  0  0  0  0  0  0  0  0  0  0  0
  -37.0180  -49.0504    7.7354 C   0  0  0  0  0  0  0  0  0  0  0  0
  -37.5420  -50.2139    8.2181 N   0  0  0  0  0  0  0  0  0  0  0  0
  -37.0032  -50.8484    9.2932 C   0  0  0  0  0  0  0  0  0  0  0  0
  -37.5217  -52.0150    9.7705 N   0  0  0  0  0  0  0  0  0  0  0  0
  -35.1441  -51.3272   11.5728 H   0  0  0  0  0  0  0  0  0  0  0  0
  -38.3045  -52.4213    9.3329 H   0  0  0  0  0  0  0  0  0  0  0  0
  -37.1135  -52.4515   10.5529 H   0  0  0  0  0  0  0  0  0  0  0  0
 14 13  1  0  0  0
 13 12  1  0  0  0
 11 12  1  0  0  0
 11 10  1  0  0  0
  9 10  1  0  0  0
  9  8  1  0  0  0
 23 24  2  0  0  0
 23 22  1  0  0  0
 24 25  1  0  0  0
  8  1  1  0  0  0
  3  5  1  0  0  0
  3  1  1  0  0  0
  3  4  1  0  0  0
 22 21  2  0  0  0
 25 26  1  0  0  0
 25 20  2  0  0  0
  5  6  1  0  0  0
  1  2  1  0  0  0
 21 20  1  0  0  0
 21 17  1  0  0  0
 20 19  1  0  0  0
  2  6  1  0  0  0
  6 16  1  0  0  0
 17 16  1  0  0  0
 17 18  2  0  0  0
 19 18  1  0  0  0
 14 15  1  0  0  0
  4  7  1  0  0  0
 19 27  1  0  0  0
 26 28  1  0  0  0
 26 29  1  0  0  0
M  END
> <minimizedAffinity>
-9.57274

$$$$
4WKO_HCE_A_301


 29 31  0  0  0  0  0  0  0  0999 V2000
  -35.5119  -46.1523   11.0793 C   0  0  0  0  0  0  0  0  0  0  0  0
  -36.9098  -46.1720   11.6702 C   0  0  0  0  0  0  0  0  0  0  0  0
  -34.8620  -44.9371   11.7057 C   0  0  0  0  0  0  0  0  0  0  0  0
  -35.2451  -43.7190   11.0596 O   0  0  0  0  0  0  0  0  0  0  0  0
  -35.4540  -44.9155   13.0979 C   0  0  0  0  0  0  0  0  0  0  0  0
  -36.8765  -45.1891   12.7833 N   0  0  0  0  0  0  0  0  0  0  0  0
  -36.2103  -43.6275   11.0883 H   0  0  0  0  0  0  0  0  0  0  0  0
  -34.7925  -47.4543   11.4457 C   0  0  0  0  0  0  0  0  0  0  0  0
  -33.8863  -48.1319   10.0980 S   0  0  0  0  0  0  0  0  0  0  0  0
  -34.9677  -49.4052    9.5207 C   0  0  0  0  0  0  0  0  0  0  0  0
  -36.1499  -48.9130    8.6911 C   0  0  0  0  0  0  0  0  0  0  0  0
  -37.2253  -50.0030    8.7320 C   0  0  0  0  0  0  0  0  0  0  0  0
  -36.7100  -51.3399    9.2306 C   0  0  0  0  0  0  0  0  0  0  0  0
  -37.7506  -51.9722    9.9730 O   0  0  0  0  0  0  0  0  0  0  0  0
  -38.5245  -52.0983    9.4019 H   0  0  0  0  0  0  0  0  0  0  0  0
  -37.6383  -45.5774   13.9739 C   0  0  0  0  0  0  0  0  0  0  0  0
  -38.3523  -44.5168   14.7729 C   0  0  0  0  0  0  0  0  0  0  0  0
  -39.2751  -43.5831   14.2819 C   0  0  0  0  0  0  0  0  0  0  0  0
  -39.6853  -42.7401   15.2784 N   0  0  0  0  0  0  0  0  0  0  0  0
  -39.0808  -43.0470   16.4382 C   0  0  0  0  0  0  0  0  0  0  0  0
  -38.1980  -44.1761   16.1969 C   0  0  0  0  0  0  0  0  0  0  0  0
  -37.4464  -44.7266   17.1811 N   0  0  0  0  0  0  0  0  0  0  0  0
  -37.5197  -44.2041   18.4296 C   0  0  0  0  0  0  0  0  0  0  0  0
  -38.3276  -43.1537   18.7540 N   0  0  0  0  0  0  0  0  0  0  0  0
  -39.1095  -42.5405   17.8260 C   0  0  0  0  0  0  0  0  0  0  0  0
  -39.9105  -41.4859   18.1484 N   0  0  0  0  0  0  0  0  0  0  0  0
  -40.3343  -42.0091   15.1615 H   0  0  0  0  0  0  0  0  0  0  0  0
  -39.9306  -41.1474   19.0726 H   0  0  0  0  0  0  0  0  0  0  0  0
  -40.4691  -41.0626   17.4569 H   0  0  0  0  0  0  0  0  0  0  0  0
 14 13  1  0  0  0
 13 12  1  0  0  0
 11 12  1  0  0  0
 11 10  1  0  0  0
  9 10  1  0  0  0
  9  8  1  0  0  0
 23 24  2  0  0  0
 23 22  1  0  0  0
 24 25  1  0  0  0
  8  1  1  0  0  0
  3  5  1  0  0  0
  3  1  1  0  0  0
  3  4  1  0  0  0
 22 21  2  0  0  0
 25 26  1  0  0  0
 25 20  2  0  0  0
  5  6  1  0  0  0
  1  2  1  0  0  0
 21 20  1  0  0  0
 21 17  1  0  0  0
 20 19  1  0  0  0
  2  6  1  0  0  0
  6 16  1  0  0  0
 17 16  1  0  0  0
 17 18  2  0  0  0
 19 18  1  0  0  0
 14 15  1  0  0  0
  4  7  1  0  0  0
 19 27  1  0  0  0
 26 28  1  0  0  0
 26 29  1  0  0  0
M  END
> <minimizedAffinity>
-6.84365

$$$$
