4WKO_HCE_A_301
  RCSB PDB12061715593D
Coordinates from PDB:4WKO:A:301 Model:1 without hydrogens
 24 26  0  0  0  0            999 V2000
  -39.7660  -43.6330   17.4330   C 0  0  0  0  0  0  0  0  0  0  0  0
  -39.9670  -42.2300   17.2750   O 0  0  0  0  0  0  0  0  0  0  0  0
  -38.5790  -44.0430   16.5820   C 0  0  0  0  0  0  0  0  0  0  0  0
  -38.8410  -43.9300   15.0770   C 0  0  0  0  0  0  0  0  0  0  0  0
  -37.7190  -44.6750   14.3600   C 0  0  0  0  0  0  0  0  0  0  0  0
  -37.9440  -44.8530   12.6160   S 0  0  0  0  0  0  0  0  0  0  0  0
  -36.6250  -45.9320   12.1770   C 0  0  0  0  0  0  0  0  0  0  0  0
  -35.2700  -45.2190   12.1260   C 0  0  0  0  0  0  0  0  0  0  0  0
  -34.1620  -46.2560   12.0980   C 0  0  0  0  0  0  0  0  0  0  0  0
  -35.0770  -44.4360   10.8450   C 0  0  0  0  0  0  0  0  0  0  0  0
  -34.0400  -43.4560   10.9550   O 0  0  0  0  0  0  0  0  0  0  0  0
  -34.6000  -45.4910    9.8710   C 0  0  0  0  0  0  0  0  0  0  0  0
  -33.6150  -46.2050   10.7180   N 0  0  0  0  0  0  0  0  0  0  0  0
  -33.2430  -47.5050   10.1520   C 0  0  0  0  0  0  0  0  0  0  0  0
  -34.1880  -48.6710   10.2950   C 0  0  0  0  0  0  0  0  0  0  0  0
  -34.0580  -49.7450   11.1860   C 0  0  0  0  0  0  0  0  0  0  0  0
  -35.0720  -50.6460   11.0070   N 0  0  0  0  0  0  0  0  0  0  0  0
  -35.8960  -50.2440   10.0250   C 0  0  0  0  0  0  0  0  0  0  0  0
  -35.3920  -48.9830    9.5070   C 0  0  0  0  0  0  0  0  0  0  0  0
  -36.0130  -48.3160    8.5040   N 0  0  0  0  0  0  0  0  0  0  0  0
  -37.1390  -48.8450    7.9660   C 0  0  0  0  0  0  0  0  0  0  0  0
  -37.6930  -50.0160    8.3940   N 0  0  0  0  0  0  0  0  0  0  0  0
  -37.1310  -50.7500    9.3910   C 0  0  0  0  0  0  0  0  0  0  0  0
  -37.6800  -51.9240    9.8130   N 0  0  0  0  0  0  0  0  0  0  0  0
  2  1  1  0  0  0  0
  1  3  1  0  0  0  0
  4  3  1  0  0  0  0
  4  5  1  0  0  0  0
  6  5  1  0  0  0  0
  6  7  1  0  0  0  0
 21 22  2  0  0  0  0
 21 20  1  0  0  0  0
 22 23  1  0  0  0  0
  7  8  1  0  0  0  0
 10 12  1  0  0  0  0
 10  8  1  0  0  0  0
 10 11  1  0  0  0  0
 20 19  2  0  0  0  0
 23 24  1  0  0  0  0
 23 18  2  0  0  0  0
 12 13  1  0  0  0  0
  8  9  1  0  0  0  0
 19 18  1  0  0  0  0
 19 15  1  0  0  0  0
 18 17  1  0  0  0  0
  9 13  1  0  0  0  0
 13 14  1  0  0  0  0
 15 14  1  0  0  0  0
 15 16  2  0  0  0  0
 17 16  1  0  0  0  0
A    1
C
A    2
OXT
A    3
CA
A    4
CB
A    5
CG
A    6
S5'
A    7
C5'
A    8
C4'
A    9
C1'
A   10
C3'
A   11
O3'
A   12
C2'
A   13
N1'
A   14
C10
A   15
C9
A   16
C8
A   17
N7
A   18
C5
A   19
C4
A   20
N3
A   21
C2
A   22
N1
A   23
C6
A   24
N6
M  END
>  <InstanceId>
4WKO_HCE_A_301

>  <ChemCompId>
HCE

>  <PdbId>
4WKO

>  <ChainId>
A

>  <ResidueNumber>
301

>  <InsertionCode>


>  <Model>
1

>  <AltIds>


>  <MissingHeavyAtoms>
2

>  <ObservedFormula>
C16 N5 O2 S

>  <Name>
{(3R,4S)-1-[(4-amino-5H-pyrrolo[3,2-d]pyrimidin-7-yl)methyl]-4-hydroxypyrrolidin-3-yl}-L-methionine

>  <SystematicName>
(2S)-2-azanyl-4-[[(3S,4R)-1-[(4-azanyl-5H-pyrrolo[3,2-d]pyrimidin-7-yl)methyl]-4-oxidanyl-pyrrolidin-3-yl]methylsulfanyl]butanoic acid

>  <Synonyms>
homocysteine-DADMe-Immucillin-A

>  <Type>
NON-POLYMER

>  <Formula>
C16 H24 N6 O3 S

>  <MolecularWeight>
380.465

>  <ModifiedDate>
2013-04-26

>  <Parent>


>  <OneLetterCode>


>  <SubcomponentList>


>  <AmbiguousFlag>
N

>  <InChI>
InChI=1S/C16H24N6O3S/c17-11(16(24)25)1-2-26-7-10-5-22(6-12(10)23)4-9-3-19-14-13(9)20-8-21-15(14)18/h3,8,10-12,19,23H,1-2,4-7,17H2,(H,24,25)(H2,18,20,21)/t10-,11+,12+/m1/s1

>  <InChIKey>
DQWJHDQQDUJDLQ-WOPDTQHZSA-N

>  <SMILES>
c1c(c2c([nH]1)c(ncn2)N)CN3C[C@@H]([C@H](C3)O)CSCC[C@@H](C(=O)O)N

$$$$
