3ACX_673_A_1001


 24 25  0  0  0  0  0  0  0  0999 V2000
   56.4047   18.1350   51.9223 C   0  0  0  0  0  0  0  0  0  0  0  0
   55.8745   16.8482   51.8185 C   0  0  0  0  0  0  0  0  0  0  0  0
   57.1431   17.5998   54.1278 C   0  0  0  0  0  0  0  0  0  0  0  0
   57.0687   18.5186   53.0821 C   0  0  0  0  0  0  0  0  0  0  0  0
   56.6129   16.3089   54.0561 C   0  0  0  0  0  0  0  0  0  0  0  0
   55.9893   15.9320   52.8653 C   0  0  0  0  0  0  0  0  0  0  0  0
   58.4202   22.4897   53.6971 C   0  0  0  0  0  0  0  0  0  0  0  0
   57.6331   22.1977   52.6106 C   0  0  0  0  0  0  0  0  0  0  0  0
   58.7312   21.4708   54.5860 C   0  0  0  0  0  0  0  0  0  0  0  0
   57.2159   20.8926   52.4085 C   0  0  0  0  0  0  0  0  0  0  0  0
   58.3060   20.1647   54.3730 C   0  0  0  0  0  0  0  0  0  0  0  0
   57.5566   19.8303   53.2546 C   0  0  0  0  0  0  0  0  0  0  0  0
   56.7243   15.3442   55.2540 C   0  0  0  0  0  0  0  0  0  0  0  0
   56.3363   16.3054   57.4983 C   0  0  0  0  0  0  0  0  0  0  0  0
   57.1630   15.9151   56.4597 C   0  0  0  0  0  0  0  0  0  0  0  0
   55.4223   14.6936   52.7647 O   0  0  0  0  0  0  0  0  0  0  0  0
   55.8326   13.8435   51.7071 C   0  0  0  0  0  0  0  0  0  0  0  0
   56.9175   12.8923   52.2147 C   0  0  0  0  0  0  0  0  0  0  0  0
   56.2863   11.6164   52.7784 C   0  0  0  0  0  0  0  0  0  0  0  0
   55.5562   11.9509   54.0122 N   0  0  0  0  0  0  0  0  0  0  0  0
   55.5100   12.9673   54.0844 H   0  0  0  0  0  0  0  0  0  0  0  0
   53.8280   10.8368   52.7285 C   0  0  0  0  0  0  0  0  0  0  0  0
   53.2429   12.5701   54.4683 C   0  0  0  0  0  0  0  0  0  0  0  0
   54.1789   11.4255   54.0972 C   0  0  0  0  0  0  0  0  0  0  0  0
 14 15  2  0  0  0
 22 24  1  0  0  0
 23 24  1  0  0  0
 15 13  1  0  0  0
  7  8  2  0  0  0
  7  9  1  0  0  0
  8 10  1  0  0  0
  9 11  2  0  0  0
 10 12  2  0  0  0
 11 12  1  0  0  0
  1  2  2  0  0  0
  1  4  1  0  0  0
  2  6  1  0  0  0
  3  4  2  0  0  0
  3  5  1  0  0  0
 13  5  1  0  0  0
 18 19  1  0  0  0
 18 17  1  0  0  0
 19 20  1  0  0  0
 17 16  1  0  0  0
 20 24  1  0  0  0
 16  6  1  0  0  0
 12  4  1  0  0  0
  5  6  2  0  0  0
 20 21  1  0  0  0
M  END
> <minimizedAffinity>
-9.49619

$$$$
3ACX_673_A_1001


 24 25  0  0  0  0  0  0  0  0999 V2000
   56.4954   17.8299   52.0059 C   0  0  0  0  0  0  0  0  0  0  0  0
   56.0041   16.5243   51.9642 C   0  0  0  0  0  0  0  0  0  0  0  0
   57.1257   17.4679   54.2792 C   0  0  0  0  0  0  0  0  0  0  0  0
   57.0854   18.3107   53.1695 C   0  0  0  0  0  0  0  0  0  0  0  0
   56.6328   16.1604   54.2698 C   0  0  0  0  0  0  0  0  0  0  0  0
   56.0846   15.6853   53.0769 C   0  0  0  0  0  0  0  0  0  0  0  0
   58.3042   22.3505   53.5810 C   0  0  0  0  0  0  0  0  0  0  0  0
   57.5500   21.9725   52.4976 C   0  0  0  0  0  0  0  0  0  0  0  0
   58.6261   21.3942   54.5333 C   0  0  0  0  0  0  0  0  0  0  0  0
   57.1764   20.6458   52.3630 C   0  0  0  0  0  0  0  0  0  0  0  0
   58.2447   20.0654   54.3876 C   0  0  0  0  0  0  0  0  0  0  0  0
   57.5301   19.6446   53.2756 C   0  0  0  0  0  0  0  0  0  0  0  0
   56.7029   15.2833   55.5361 C   0  0  0  0  0  0  0  0  0  0  0  0
   56.1738   16.4351   57.6586 C   0  0  0  0  0  0  0  0  0  0  0  0
   57.0651   15.9466   56.7197 C   0  0  0  0  0  0  0  0  0  0  0  0
   55.5551   14.4271   53.0331 O   0  0  0  0  0  0  0  0  0  0  0  0
   55.0555   13.9440   51.7977 C   0  0  0  0  0  0  0  0  0  0  0  0
   54.1414   12.7451   52.0560 C   0  0  0  0  0  0  0  0  0  0  0  0
   54.9711   11.4701   52.2295 C   0  0  0  0  0  0  0  0  0  0  0  0
   56.1795   11.5707   51.3949 N   0  0  0  0  0  0  0  0  0  0  0  0
   56.5561   12.5128   51.4993 H   0  0  0  0  0  0  0  0  0  0  0  0
   56.9841   10.0755   53.1249 C   0  0  0  0  0  0  0  0  0  0  0  0
   58.5932   11.3393   51.6459 C   0  0  0  0  0  0  0  0  0  0  0  0
   57.2553   10.6121   51.7172 C   0  0  0  0  0  0  0  0  0  0  0  0
 14 15  2  0  0  0
 22 24  1  0  0  0
 23 24  1  0  0  0
 15 13  1  0  0  0
  7  8  2  0  0  0
  7  9  1  0  0  0
  8 10  1  0  0  0
  9 11  2  0  0  0
 10 12  2  0  0  0
 11 12  1  0  0  0
  1  2  2  0  0  0
  1  4  1  0  0  0
  2  6  1  0  0  0
  3  4  2  0  0  0
  3  5  1  0  0  0
 13  5  1  0  0  0
 18 19  1  0  0  0
 18 17  1  0  0  0
 19 20  1  0  0  0
 17 16  1  0  0  0
 20 24  1  0  0  0
 16  6  1  0  0  0
 12  4  1  0  0  0
  5  6  2  0  0  0
 20 21  1  0  0  0
M  END
> <minimizedAffinity>
-9.43194

$$$$
3ACX_673_A_1001


 24 25  0  0  0  0  0  0  0  0999 V2000
   54.7463   13.7107   52.4018 C   0  0  0  0  0  0  0  0  0  0  0  0
   55.4492   14.8276   51.9479 C   0  0  0  0  0  0  0  0  0  0  0  0
   55.6023   14.1229   54.5912 C   0  0  0  0  0  0  0  0  0  0  0  0
   54.8008   13.3576   53.7455 C   0  0  0  0  0  0  0  0  0  0  0  0
   56.3249   15.2397   54.1629 C   0  0  0  0  0  0  0  0  0  0  0  0
   56.2196   15.6004   52.8184 C   0  0  0  0  0  0  0  0  0  0  0  0
   52.8081    9.8586   55.0726 C   0  0  0  0  0  0  0  0  0  0  0  0
   52.3196   11.0944   55.4182 C   0  0  0  0  0  0  0  0  0  0  0  0
   53.9365    9.7909   54.2681 C   0  0  0  0  0  0  0  0  0  0  0  0
   52.9916   12.2297   54.9970 C   0  0  0  0  0  0  0  0  0  0  0  0
   54.6021   10.9376   53.8507 C   0  0  0  0  0  0  0  0  0  0  0  0
   54.1632   12.1973   54.2310 C   0  0  0  0  0  0  0  0  0  0  0  0
   57.1985   16.0386   55.1510 C   0  0  0  0  0  0  0  0  0  0  0  0
   56.2832   16.5546   57.3887 C   0  0  0  0  0  0  0  0  0  0  0  0
   56.9963   15.7565   56.5118 C   0  0  0  0  0  0  0  0  0  0  0  0
   56.9392   16.6613   52.3474 O   0  0  0  0  0  0  0  0  0  0  0  0
   56.2784   17.9023   52.1659 C   0  0  0  0  0  0  0  0  0  0  0  0
   57.2923   18.9533   51.7111 C   0  0  0  0  0  0  0  0  0  0  0  0
   57.3829   20.0856   52.7377 C   0  0  0  0  0  0  0  0  0  0  0  0
   56.9136   21.3334   52.1135 N   0  0  0  0  0  0  0  0  0  0  0  0
   55.8966   21.2895   52.0490 H   0  0  0  0  0  0  0  0  0  0  0  0
   58.4140   22.2368   53.7895 C   0  0  0  0  0  0  0  0  0  0  0  0
   56.0422   23.0759   53.5789 C   0  0  0  0  0  0  0  0  0  0  0  0
   57.2711   22.5747   52.8289 C   0  0  0  0  0  0  0  0  0  0  0  0
 14 15  2  0  0  0
 22 24  1  0  0  0
 23 24  1  0  0  0
 15 13  1  0  0  0
  7  8  2  0  0  0
  7  9  1  0  0  0
  8 10  1  0  0  0
  9 11  2  0  0  0
 10 12  2  0  0  0
 11 12  1  0  0  0
  1  2  2  0  0  0
  1  4  1  0  0  0
  2  6  1  0  0  0
  3  4  2  0  0  0
  3  5  1  0  0  0
 13  5  1  0  0  0
 18 19  1  0  0  0
 18 17  1  0  0  0
 19 20  1  0  0  0
 17 16  1  0  0  0
 20 24  1  0  0  0
 16  6  1  0  0  0
 12  4  1  0  0  0
  5  6  2  0  0  0
 20 21  1  0  0  0
M  END
> <minimizedAffinity>
-8.98436

$$$$
3ACX_673_A_1001


 24 25  0  0  0  0  0  0  0  0999 V2000
   55.7958   14.4878   51.8473 C   0  0  0  0  0  0  0  0  0  0  0  0
   55.6440   15.8747   51.8807 C   0  0  0  0  0  0  0  0  0  0  0  0
   56.6881   14.5814   54.0588 C   0  0  0  0  0  0  0  0  0  0  0  0
   56.3050   13.8203   52.9556 C   0  0  0  0  0  0  0  0  0  0  0  0
   56.5572   15.9715   54.1167 C   0  0  0  0  0  0  0  0  0  0  0  0
   56.0028   16.6147   53.0085 C   0  0  0  0  0  0  0  0  0  0  0  0
   56.9072    9.6269   52.7889 C   0  0  0  0  0  0  0  0  0  0  0  0
   56.0502   10.1564   53.7220 C   0  0  0  0  0  0  0  0  0  0  0  0
   57.5370   10.4869   51.9009 C   0  0  0  0  0  0  0  0  0  0  0  0
   55.8785   11.5293   53.7809 C   0  0  0  0  0  0  0  0  0  0  0  0
   57.3561   11.8635   51.9692 C   0  0  0  0  0  0  0  0  0  0  0  0
   56.5398   12.4300   52.9372 C   0  0  0  0  0  0  0  0  0  0  0  0
   57.0078   16.7534   55.3670 C   0  0  0  0  0  0  0  0  0  0  0  0
   56.2372   16.4564   57.6971 C   0  0  0  0  0  0  0  0  0  0  0  0
   56.9483   16.0510   56.5816 C   0  0  0  0  0  0  0  0  0  0  0  0
   55.8925   17.9760   53.0055 O   0  0  0  0  0  0  0  0  0  0  0  0
   56.6031   18.7120   52.0243 C   0  0  0  0  0  0  0  0  0  0  0  0
   57.9498   19.1532   52.6000 C   0  0  0  0  0  0  0  0  0  0  0  0
   57.7412   19.9641   53.8819 C   0  0  0  0  0  0  0  0  0  0  0  0
   56.6219   20.8982   53.6780 N   0  0  0  0  0  0  0  0  0  0  0  0
   56.1649   21.0426   54.5783 H   0  0  0  0  0  0  0  0  0  0  0  0
   58.3118   22.6323   53.7907 C   0  0  0  0  0  0  0  0  0  0  0  0
   55.8757   23.2092   53.4647 C   0  0  0  0  0  0  0  0  0  0  0  0
   56.9900   22.2218   53.1369 C   0  0  0  0  0  0  0  0  0  0  0  0
 14 15  2  0  0  0
 22 24  1  0  0  0
 23 24  1  0  0  0
 15 13  1  0  0  0
  7  8  2  0  0  0
  7  9  1  0  0  0
  8 10  1  0  0  0
  9 11  2  0  0  0
 10 12  2  0  0  0
 11 12  1  0  0  0
  1  2  2  0  0  0
  1  4  1  0  0  0
  2  6  1  0  0  0
  3  4  2  0  0  0
  3  5  1  0  0  0
 13  5  1  0  0  0
 18 19  1  0  0  0
 18 17  1  0  0  0
 19 20  1  0  0  0
 17 16  1  0  0  0
 20 24  1  0  0  0
 16  6  1  0  0  0
 12  4  1  0  0  0
  5  6  2  0  0  0
 20 21  1  0  0  0
M  END
> <minimizedAffinity>
-8.96430

$$$$
3ACX_673_A_1001


 24 25  0  0  0  0  0  0  0  0999 V2000
   55.5846   13.7170   52.1186 C   0  0  0  0  0  0  0  0  0  0  0  0
   54.7995   12.6707   51.6322 C   0  0  0  0  0  0  0  0  0  0  0  0
   54.5816   13.4081   54.2620 C   0  0  0  0  0  0  0  0  0  0  0  0
   55.4965   14.0844   53.4566 C   0  0  0  0  0  0  0  0  0  0  0  0
   53.7756   12.3641   53.8003 C   0  0  0  0  0  0  0  0  0  0  0  0
   53.9135   11.9841   52.4640 C   0  0  0  0  0  0  0  0  0  0  0  0
   57.5457   17.4214   55.0816 C   0  0  0  0  0  0  0  0  0  0  0  0
   56.9675   17.5146   53.8397 C   0  0  0  0  0  0  0  0  0  0  0  0
   57.4178   16.2336   55.7872 C   0  0  0  0  0  0  0  0  0  0  0  0
   56.3197   16.4109   53.3103 C   0  0  0  0  0  0  0  0  0  0  0  0
   56.7644   15.1327   55.2457 C   0  0  0  0  0  0  0  0  0  0  0  0
   56.2195   15.1805   53.9710 C   0  0  0  0  0  0  0  0  0  0  0  0
   52.7784   11.6625   54.7443 C   0  0  0  0  0  0  0  0  0  0  0  0
   52.2974    9.2536   55.0222 C   0  0  0  0  0  0  0  0  0  0  0  0
   53.1221   10.3586   55.1368 C   0  0  0  0  0  0  0  0  0  0  0  0
   53.1181   10.9950   51.9596 O   0  0  0  0  0  0  0  0  0  0  0  0
   53.6975   10.0341   51.0934 C   0  0  0  0  0  0  0  0  0  0  0  0
   53.7509    8.6803   51.8033 C   0  0  0  0  0  0  0  0  0  0  0  0
   55.1880    8.3520   52.2171 C   0  0  0  0  0  0  0  0  0  0  0  0
   56.0905    9.3682   51.6518 N   0  0  0  0  0  0  0  0  0  0  0  0
   55.5397   10.2043   51.4566 H   0  0  0  0  0  0  0  0  0  0  0  0
   56.6478   10.1593   53.8743 C   0  0  0  0  0  0  0  0  0  0  0  0
   57.9558   10.9246   51.8551 C   0  0  0  0  0  0  0  0  0  0  0  0
   57.2237    9.7607   52.5133 C   0  0  0  0  0  0  0  0  0  0  0  0
 14 15  2  0  0  0
 22 24  1  0  0  0
 23 24  1  0  0  0
 15 13  1  0  0  0
  7  8  2  0  0  0
  7  9  1  0  0  0
  8 10  1  0  0  0
  9 11  2  0  0  0
 10 12  2  0  0  0
 11 12  1  0  0  0
  1  2  2  0  0  0
  1  4  1  0  0  0
  2  6  1  0  0  0
  3  4  2  0  0  0
  3  5  1  0  0  0
 13  5  1  0  0  0
 18 19  1  0  0  0
 18 17  1  0  0  0
 19 20  1  0  0  0
 17 16  1  0  0  0
 20 24  1  0  0  0
 16  6  1  0  0  0
 12  4  1  0  0  0
  5  6  2  0  0  0
 20 21  1  0  0  0
M  END
> <minimizedAffinity>
-8.64424

$$$$
3ACX_673_A_1001


 24 25  0  0  0  0  0  0  0  0999 V2000
   57.5484   17.5636   54.9865 C   0  0  0  0  0  0  0  0  0  0  0  0
   57.2250   16.2113   55.1074 C   0  0  0  0  0  0  0  0  0  0  0  0
   56.6302   17.5358   52.7838 C   0  0  0  0  0  0  0  0  0  0  0  0
   57.2314   18.2494   53.8194 C   0  0  0  0  0  0  0  0  0  0  0  0
   56.3043   16.1798   52.8726 C   0  0  0  0  0  0  0  0  0  0  0  0
   56.5925   15.5234   54.0706 C   0  0  0  0  0  0  0  0  0  0  0  0
   58.2395   22.3403   53.3462 C   0  0  0  0  0  0  0  0  0  0  0  0
   57.4111   21.7322   52.4356 C   0  0  0  0  0  0  0  0  0  0  0  0
   58.7058   21.5970   54.4210 C   0  0  0  0  0  0  0  0  0  0  0  0
   57.1066   20.3898   52.5887 C   0  0  0  0  0  0  0  0  0  0  0  0
   58.3926   20.2503   54.5645 C   0  0  0  0  0  0  0  0  0  0  0  0
   57.6035   19.5963   53.6297 C   0  0  0  0  0  0  0  0  0  0  0  0
   55.6458   15.4488   51.6852 C   0  0  0  0  0  0  0  0  0  0  0  0
   56.7722   13.3348   51.0743 C   0  0  0  0  0  0  0  0  0  0  0  0
   56.5079   14.6799   50.8867 C   0  0  0  0  0  0  0  0  0  0  0  0
   56.3273   14.1888   54.1879 O   0  0  0  0  0  0  0  0  0  0  0  0
   55.0937   13.7902   54.7614 C   0  0  0  0  0  0  0  0  0  0  0  0
   54.2977   12.9806   53.7363 C   0  0  0  0  0  0  0  0  0  0  0  0
   54.3641   11.4876   54.0688 C   0  0  0  0  0  0  0  0  0  0  0  0
   55.7762   11.0862   54.1784 N   0  0  0  0  0  0  0  0  0  0  0  0
   56.0184   11.0558   55.1688 H   0  0  0  0  0  0  0  0  0  0  0  0
   57.5958    9.5173   53.8571 C   0  0  0  0  0  0  0  0  0  0  0  0
   55.8167    9.8253   52.0925 C   0  0  0  0  0  0  0  0  0  0  0  0
   56.1113    9.7753   53.5873 C   0  0  0  0  0  0  0  0  0  0  0  0
 14 15  2  0  0  0
 22 24  1  0  0  0
 23 24  1  0  0  0
 15 13  1  0  0  0
  7  8  2  0  0  0
  7  9  1  0  0  0
  8 10  1  0  0  0
  9 11  2  0  0  0
 10 12  2  0  0  0
 11 12  1  0  0  0
  1  2  2  0  0  0
  1  4  1  0  0  0
  2  6  1  0  0  0
  3  4  2  0  0  0
  3  5  1  0  0  0
 13  5  1  0  0  0
 18 19  1  0  0  0
 18 17  1  0  0  0
 19 20  1  0  0  0
 17 16  1  0  0  0
 20 24  1  0  0  0
 16  6  1  0  0  0
 12  4  1  0  0  0
  5  6  2  0  0  0
 20 21  1  0  0  0
M  END
> <minimizedAffinity>
-8.32649

$$$$
3ACX_673_A_1001


 24 25  0  0  0  0  0  0  0  0999 V2000
   57.5423   17.5796   55.0527 C   0  0  0  0  0  0  0  0  0  0  0  0
   57.2849   16.2131   55.1722 C   0  0  0  0  0  0  0  0  0  0  0  0
   56.5570   17.5253   52.8796 C   0  0  0  0  0  0  0  0  0  0  0  0
   57.1576   18.2584   53.9019 C   0  0  0  0  0  0  0  0  0  0  0  0
   56.2962   16.1553   52.9671 C   0  0  0  0  0  0  0  0  0  0  0  0
   56.6519   15.5043   54.1498 C   0  0  0  0  0  0  0  0  0  0  0  0
   58.1858   22.3176   53.2378 C   0  0  0  0  0  0  0  0  0  0  0  0
   58.6671   21.6645   54.3455 C   0  0  0  0  0  0  0  0  0  0  0  0
   57.3903   21.6144   52.3446 C   0  0  0  0  0  0  0  0  0  0  0  0
   58.3066   20.3451   54.5630 C   0  0  0  0  0  0  0  0  0  0  0  0
   57.0357   20.2900   52.5733 C   0  0  0  0  0  0  0  0  0  0  0  0
   57.4618   19.6223   53.7121 C   0  0  0  0  0  0  0  0  0  0  0  0
   55.6343   15.4033   51.7948 C   0  0  0  0  0  0  0  0  0  0  0  0
   56.7947   13.3536   51.0440 C   0  0  0  0  0  0  0  0  0  0  0  0
   56.5078   14.7036   50.9465 C   0  0  0  0  0  0  0  0  0  0  0  0
   56.4515   14.1581   54.2640 O   0  0  0  0  0  0  0  0  0  0  0  0
   55.1361   13.6857   54.5004 C   0  0  0  0  0  0  0  0  0  0  0  0
   55.0147   12.2498   53.9872 C   0  0  0  0  0  0  0  0  0  0  0  0
   53.7509   12.0929   53.1373 C   0  0  0  0  0  0  0  0  0  0  0  0
   52.5951   11.9124   54.0309 N   0  0  0  0  0  0  0  0  0  0  0  0
   51.8577   12.5464   53.7231 H   0  0  0  0  0  0  0  0  0  0  0  0
   52.6071    9.8552   55.3129 C   0  0  0  0  0  0  0  0  0  0  0  0
   52.4265    9.8179   52.7950 C   0  0  0  0  0  0  0  0  0  0  0  0
   52.0331   10.5477   54.0743 C   0  0  0  0  0  0  0  0  0  0  0  0
 14 15  2  0  0  0
 22 24  1  0  0  0
 23 24  1  0  0  0
 15 13  1  0  0  0
  7  8  2  0  0  0
  7  9  1  0  0  0
  8 10  1  0  0  0
  9 11  2  0  0  0
 10 12  2  0  0  0
 11 12  1  0  0  0
  1  2  2  0  0  0
  1  4  1  0  0  0
  2  6  1  0  0  0
  3  4  2  0  0  0
  3  5  1  0  0  0
 13  5  1  0  0  0
 18 19  1  0  0  0
 18 17  1  0  0  0
 19 20  1  0  0  0
 17 16  1  0  0  0
 20 24  1  0  0  0
 16  6  1  0  0  0
 12  4  1  0  0  0
  5  6  2  0  0  0
 20 21  1  0  0  0
M  END
> <minimizedAffinity>
-8.22269

$$$$
3ACX_673_A_1001


 24 25  0  0  0  0  0  0  0  0999 V2000
   57.0738   13.4916   52.3824 C   0  0  0  0  0  0  0  0  0  0  0  0
   56.6522   12.2388   51.9348 C   0  0  0  0  0  0  0  0  0  0  0  0
   55.0310   13.6896   53.6005 C   0  0  0  0  0  0  0  0  0  0  0  0
   56.2675   14.2261   53.2447 C   0  0  0  0  0  0  0  0  0  0  0  0
   54.5784   12.4431   53.1599 C   0  0  0  0  0  0  0  0  0  0  0  0
   55.4244   11.7051   52.3300 C   0  0  0  0  0  0  0  0  0  0  0  0
   57.4569   18.1264   54.4058 C   0  0  0  0  0  0  0  0  0  0  0  0
   57.8587   17.0420   55.1461 C   0  0  0  0  0  0  0  0  0  0  0  0
   56.6873   17.9091   53.2720 C   0  0  0  0  0  0  0  0  0  0  0  0
   57.4458   15.7749   54.7693 C   0  0  0  0  0  0  0  0  0  0  0  0
   56.2795   16.6324   52.9033 C   0  0  0  0  0  0  0  0  0  0  0  0
   56.6241   15.5245   53.6636 C   0  0  0  0  0  0  0  0  0  0  0  0
   53.1952   11.9118   53.5868 C   0  0  0  0  0  0  0  0  0  0  0  0
   52.7177   10.0309   55.1183 C   0  0  0  0  0  0  0  0  0  0  0  0
   53.1323   11.3257   54.8614 C   0  0  0  0  0  0  0  0  0  0  0  0
   55.0067   10.4991   51.8438 O   0  0  0  0  0  0  0  0  0  0  0  0
   55.8855    9.3904   51.9335 C   0  0  0  0  0  0  0  0  0  0  0  0
   56.1075    9.0389   53.4055 C   0  0  0  0  0  0  0  0  0  0  0  0
   57.5591    9.3153   53.8062 C   0  0  0  0  0  0  0  0  0  0  0  0
   58.3070    8.0474   53.7917 N   0  0  0  0  0  0  0  0  0  0  0  0
   59.2594    8.2477   53.4864 H   0  0  0  0  0  0  0  0  0  0  0  0
   59.7044    7.7385   55.7482 C   0  0  0  0  0  0  0  0  0  0  0  0
   58.3199    5.8397   54.8255 C   0  0  0  0  0  0  0  0  0  0  0  0
   58.3831    7.3404   55.0858 C   0  0  0  0  0  0  0  0  0  0  0  0
 14 15  2  0  0  0
 22 24  1  0  0  0
 23 24  1  0  0  0
 15 13  1  0  0  0
  7  8  2  0  0  0
  7  9  1  0  0  0
  8 10  1  0  0  0
  9 11  2  0  0  0
 10 12  2  0  0  0
 11 12  1  0  0  0
  1  2  2  0  0  0
  1  4  1  0  0  0
  2  6  1  0  0  0
  3  4  2  0  0  0
  3  5  1  0  0  0
 13  5  1  0  0  0
 18 19  1  0  0  0
 18 17  1  0  0  0
 19 20  1  0  0  0
 17 16  1  0  0  0
 20 24  1  0  0  0
 16  6  1  0  0  0
 12  4  1  0  0  0
  5  6  2  0  0  0
 20 21  1  0  0  0
M  END
> <minimizedAffinity>
-7.92099

$$$$
3ACX_673_A_1001


 24 25  0  0  0  0  0  0  0  0999 V2000
   55.7887   15.4426   54.6262 C   0  0  0  0  0  0  0  0  0  0  0  0
   55.3915   14.1069   54.7034 C   0  0  0  0  0  0  0  0  0  0  0  0
   56.2406   15.1229   52.3047 C   0  0  0  0  0  0  0  0  0  0  0  0
   56.2009   15.9729   53.4088 C   0  0  0  0  0  0  0  0  0  0  0  0
   55.8589   13.7796   52.3545 C   0  0  0  0  0  0  0  0  0  0  0  0
   55.4071   13.2815   53.5779 C   0  0  0  0  0  0  0  0  0  0  0  0
   57.7530   19.8986   53.0149 C   0  0  0  0  0  0  0  0  0  0  0  0
   57.9701   19.1922   54.1721 C   0  0  0  0  0  0  0  0  0  0  0  0
   57.0473   19.2900   51.9869 C   0  0  0  0  0  0  0  0  0  0  0  0
   57.4395   17.9191   54.2975 C   0  0  0  0  0  0  0  0  0  0  0  0
   56.5202   18.0112   52.1241 C   0  0  0  0  0  0  0  0  0  0  0  0
   56.6764   17.2962   53.3025 C   0  0  0  0  0  0  0  0  0  0  0  0
   55.9340   12.8925   51.0954 C   0  0  0  0  0  0  0  0  0  0  0  0
   57.8895   11.3801   51.0815 C   0  0  0  0  0  0  0  0  0  0  0  0
   57.2252   12.5261   50.6820 C   0  0  0  0  0  0  0  0  0  0  0  0
   55.0611   11.9644   53.6823 O   0  0  0  0  0  0  0  0  0  0  0  0
   56.0485   11.0342   54.0937 C   0  0  0  0  0  0  0  0  0  0  0  0
   55.7272    9.6608   53.5020 C   0  0  0  0  0  0  0  0  0  0  0  0
   54.2193    9.3998   53.5495 C   0  0  0  0  0  0  0  0  0  0  0  0
   53.7376    9.6369   54.9201 N   0  0  0  0  0  0  0  0  0  0  0  0
   54.3168   10.3668   55.3350 H   0  0  0  0  0  0  0  0  0  0  0  0
   51.7254   10.0270   53.6260 C   0  0  0  0  0  0  0  0  0  0  0  0
   52.2812   11.4583   55.6301 C   0  0  0  0  0  0  0  0  0  0  0  0
   52.3264   10.0562   55.0335 C   0  0  0  0  0  0  0  0  0  0  0  0
 14 15  2  0  0  0
 22 24  1  0  0  0
 23 24  1  0  0  0
 15 13  1  0  0  0
  7  8  2  0  0  0
  7  9  1  0  0  0
  8 10  1  0  0  0
  9 11  2  0  0  0
 10 12  2  0  0  0
 11 12  1  0  0  0
  1  2  2  0  0  0
  1  4  1  0  0  0
  2  6  1  0  0  0
  3  4  2  0  0  0
  3  5  1  0  0  0
 13  5  1  0  0  0
 18 19  1  0  0  0
 18 17  1  0  0  0
 19 20  1  0  0  0
 17 16  1  0  0  0
 20 24  1  0  0  0
 16  6  1  0  0  0
 12  4  1  0  0  0
  5  6  2  0  0  0
 20 21  1  0  0  0
M  END
> <minimizedAffinity>
-7.90925

$$$$
3ACX_673_A_1001


 24 25  0  0  0  0  0  0  0  0999 V2000
   54.8588   14.4282   54.6197 C   0  0  0  0  0  0  0  0  0  0  0  0
   54.1327   13.2527   54.4226 C   0  0  0  0  0  0  0  0  0  0  0  0
   56.1983   13.8600   52.7279 C   0  0  0  0  0  0  0  0  0  0  0  0
   55.8950   14.7554   53.7523 C   0  0  0  0  0  0  0  0  0  0  0  0
   55.4957   12.6714   52.5127 C   0  0  0  0  0  0  0  0  0  0  0  0
   54.4314   12.3860   53.3700 C   0  0  0  0  0  0  0  0  0  0  0  0
   58.2216   18.2222   54.4897 C   0  0  0  0  0  0  0  0  0  0  0  0
   57.2081   18.2650   53.5642 C   0  0  0  0  0  0  0  0  0  0  0  0
   58.4393   17.0404   55.1831 C   0  0  0  0  0  0  0  0  0  0  0  0
   56.4693   17.1201   53.3164 C   0  0  0  0  0  0  0  0  0  0  0  0
   57.6907   15.8978   54.9262 C   0  0  0  0  0  0  0  0  0  0  0  0
   56.6978   15.8965   53.9575 C   0  0  0  0  0  0  0  0  0  0  0  0
   55.8887   11.7214   51.3634 C   0  0  0  0  0  0  0  0  0  0  0  0
   58.2799   11.1366   51.5902 C   0  0  0  0  0  0  0  0  0  0  0  0
   57.2312   11.7783   50.9554 C   0  0  0  0  0  0  0  0  0  0  0  0
   53.7419   11.2165   53.2213 O   0  0  0  0  0  0  0  0  0  0  0  0
   52.3555   11.2042   53.5168 C   0  0  0  0  0  0  0  0  0  0  0  0
   51.6245   10.3525   52.4775 C   0  0  0  0  0  0  0  0  0  0  0  0
   52.6267    9.5328   51.6603 C   0  0  0  0  0  0  0  0  0  0  0  0
   53.0372    8.3591   52.4482 N   0  0  0  0  0  0  0  0  0  0  0  0
   52.2391    7.7269   52.5097 H   0  0  0  0  0  0  0  0  0  0  0  0
   55.4547    8.1913   52.5103 C   0  0  0  0  0  0  0  0  0  0  0  0
   54.1724    7.7253   50.3860 C   0  0  0  0  0  0  0  0  0  0  0  0
   54.1800    7.5979   51.9051 C   0  0  0  0  0  0  0  0  0  0  0  0
 14 15  2  0  0  0
 22 24  1  0  0  0
 23 24  1  0  0  0
 15 13  1  0  0  0
  7  8  2  0  0  0
  7  9  1  0  0  0
  8 10  1  0  0  0
  9 11  2  0  0  0
 10 12  2  0  0  0
 11 12  1  0  0  0
  1  2  2  0  0  0
  1  4  1  0  0  0
  2  6  1  0  0  0
  3  4  2  0  0  0
  3  5  1  0  0  0
 13  5  1  0  0  0
 18 19  1  0  0  0
 18 17  1  0  0  0
 19 20  1  0  0  0
 17 16  1  0  0  0
 20 24  1  0  0  0
 16  6  1  0  0  0
 12  4  1  0  0  0
  5  6  2  0  0  0
 20 21  1  0  0  0
M  END
> <minimizedAffinity>
-7.66944

$$$$
