4LJ8_ADP_A_901


 34 36  0  0  0  0  0  0  0  0999 V2000
   -9.0964   29.7266   -9.1862 C   0  0  0  0  0  0  0  0  0  0  0  0
   -9.5081   30.3460   -7.9709 O   0  0  0  0  0  0  0  0  0  0  0  0
   -9.9474   30.3186  -10.3105 C   0  0  0  0  0  0  0  0  0  0  0  0
  -10.6290   29.2994  -11.0277 O   0  0  0  0  0  0  0  0  0  0  0  0
  -10.8875   31.3075   -9.6582 C   0  0  0  0  0  0  0  0  0  0  0  0
  -12.2084   30.8089   -9.4058 O   0  0  0  0  0  0  0  0  0  0  0  0
  -10.2540   31.5129   -8.3061 C   0  0  0  0  0  0  0  0  0  0  0  0
  -11.1992   28.8027  -10.4203 H   0  0  0  0  0  0  0  0  0  0  0  0
  -12.1553   30.0287   -8.8320 H   0  0  0  0  0  0  0  0  0  0  0  0
   -9.3747   32.6975   -8.2438 N   0  0  0  0  0  0  0  0  0  0  0  0
   -8.9012   33.4544   -9.2592 C   0  0  0  0  0  0  0  0  0  0  0  0
   -8.0828   34.4230   -8.8112 N   0  0  0  0  0  0  0  0  0  0  0  0
   -8.0072   34.2755   -7.4885 C   0  0  0  0  0  0  0  0  0  0  0  0
   -7.2929   34.9659   -6.4057 C   0  0  0  0  0  0  0  0  0  0  0  0
   -6.5082   36.0179   -6.6824 N   0  0  0  0  0  0  0  0  0  0  0  0
   -7.4870   34.5170   -5.1615 N   0  0  0  0  0  0  0  0  0  0  0  0
   -8.2836   33.4592   -4.8987 C   0  0  0  0  0  0  0  0  0  0  0  0
   -8.9646   32.7849   -5.8309 N   0  0  0  0  0  0  0  0  0  0  0  0
   -8.8535   33.1433   -7.1209 C   0  0  0  0  0  0  0  0  0  0  0  0
   -6.3934   36.3148   -7.6140 H   0  0  0  0  0  0  0  0  0  0  0  0
   -6.0470   36.4931   -5.9539 H   0  0  0  0  0  0  0  0  0  0  0  0
   -7.6385   30.0815   -9.3590 C   0  0  0  0  0  0  0  0  0  0  0  0
   -6.9711   29.4226   -8.3655 O   0  0  0  0  0  0  0  0  0  0  0  0
   -6.3149   30.1846   -7.1374 P   0  0  0  0  0  0  0  0  0  0  0  0
   -5.8775   31.4075   -7.8982 O   0  0  0  0  0  0  0  0  0  0  0  0
   -7.1986   30.3048   -5.9372 O   0  0  0  0  0  0  0  0  0  0  0  0
   -6.7273   30.7798   -5.2350 H   0  0  0  0  0  0  0  0  0  0  0  0
   -5.0834   29.1913   -6.8126 O   0  0  0  0  0  0  0  0  0  0  0  0
   -5.1944   27.8753   -5.9187 P   0  0  0  0  0  0  0  0  0  0  0  0
   -3.9595   27.0373   -6.2230 O   0  0  0  0  0  0  0  0  0  0  0  0
   -5.2053   28.4177   -4.5349 O   0  0  0  0  0  0  0  0  0  0  0  0
   -6.4493   27.2189   -6.3747 O   0  0  0  0  0  0  0  0  0  0  0  0
   -5.2714   27.6861   -3.9014 H   0  0  0  0  0  0  0  0  0  0  0  0
   -6.5878   26.4013   -5.8715 H   0  0  0  0  0  0  0  0  0  0  0  0
 29 30  2  0  0  0
 29 31  1  0  0  0
 29 32  1  0  0  0
 29 28  1  0  0  0
 24 25  2  0  0  0
 24 26  1  0  0  0
 24 28  1  0  0  0
 24 23  1  0  0  0
 23 22  1  0  0  0
 22  1  1  0  0  0
  1  2  1  0  0  0
  1  3  1  0  0  0
  2  7  1  0  0  0
  3  4  1  0  0  0
  3  5  1  0  0  0
  5  6  1  0  0  0
  5  7  1  0  0  0
  7 10  1  0  0  0
 10 11  1  0  0  0
 10 19  1  0  0  0
 11 12  2  0  0  0
 12 13  1  0  0  0
 13 14  1  0  0  0
 13 19  2  0  0  0
 14 15  1  0  0  0
 14 16  2  0  0  0
 16 17  1  0  0  0
 17 18  2  0  0  0
 18 19  1  0  0  0
 31 33  1  0  0  0
 32 34  1  0  0  0
 26 27  1  0  0  0
  4  8  1  0  0  0
  6  9  1  0  0  0
 15 20  1  0  0  0
 15 21  1  0  0  0
M  END
> <minimizedAffinity>
-8.83452

$$$$
4LJ8_ADP_A_901


 34 36  0  0  0  0  0  0  0  0999 V2000
   -7.2778   33.8797   -6.7254 C   0  0  0  0  0  0  0  0  0  0  0  0
   -7.4028   33.6393   -8.1242 O   0  0  0  0  0  0  0  0  0  0  0  0
   -7.9072   35.2438   -6.4393 C   0  0  0  0  0  0  0  0  0  0  0  0
   -6.9825   36.1097   -5.7969 O   0  0  0  0  0  0  0  0  0  0  0  0
   -8.3874   35.7792   -7.7697 C   0  0  0  0  0  0  0  0  0  0  0  0
   -7.5035   36.7183   -8.3972 O   0  0  0  0  0  0  0  0  0  0  0  0
   -8.3725   34.5478   -8.6386 C   0  0  0  0  0  0  0  0  0  0  0  0
   -6.2032   36.2274   -6.3624 H   0  0  0  0  0  0  0  0  0  0  0  0
   -6.6389   36.3026   -8.5406 H   0  0  0  0  0  0  0  0  0  0  0  0
   -9.6841   33.8751   -8.7257 N   0  0  0  0  0  0  0  0  0  0  0  0
  -10.8004   34.0995   -7.9966 C   0  0  0  0  0  0  0  0  0  0  0  0
  -11.7864   33.2482   -8.3311 N   0  0  0  0  0  0  0  0  0  0  0  0
  -11.2926   32.4459   -9.2742 C   0  0  0  0  0  0  0  0  0  0  0  0
  -11.8125   31.3101  -10.0482 C   0  0  0  0  0  0  0  0  0  0  0  0
  -13.0735   30.8923   -9.8633 N   0  0  0  0  0  0  0  0  0  0  0  0
  -10.9902   30.7517  -10.9422 N   0  0  0  0  0  0  0  0  0  0  0  0
   -9.7245   31.1866  -11.1196 C   0  0  0  0  0  0  0  0  0  0  0  0
   -9.1853   32.2130  -10.4540 N   0  0  0  0  0  0  0  0  0  0  0  0
   -9.9149   32.8586   -9.5288 C   0  0  0  0  0  0  0  0  0  0  0  0
  -13.6448   31.3327   -9.1934 H   0  0  0  0  0  0  0  0  0  0  0  0
  -13.4278   30.1451  -10.3976 H   0  0  0  0  0  0  0  0  0  0  0  0
   -8.0437   32.7703   -6.0443 C   0  0  0  0  0  0  0  0  0  0  0  0
   -7.3386   31.6249   -6.2836 O   0  0  0  0  0  0  0  0  0  0  0  0
   -7.8737   30.4891   -7.2546 P   0  0  0  0  0  0  0  0  0  0  0  0
   -9.3349   30.6507   -6.9314 O   0  0  0  0  0  0  0  0  0  0  0  0
   -7.3847   30.5955   -8.6637 O   0  0  0  0  0  0  0  0  0  0  0  0
   -7.7545   29.8693   -9.1899 H   0  0  0  0  0  0  0  0  0  0  0  0
   -7.2300   29.1864   -6.5491 O   0  0  0  0  0  0  0  0  0  0  0  0
   -5.6663   28.8875   -6.4572 P   0  0  0  0  0  0  0  0  0  0  0  0
   -5.3335   28.7633   -4.9762 O   0  0  0  0  0  0  0  0  0  0  0  0
   -5.5328   27.6042   -7.1951 O   0  0  0  0  0  0  0  0  0  0  0  0
   -5.0220   30.0732   -7.0838 O   0  0  0  0  0  0  0  0  0  0  0  0
   -4.6029   27.3285   -7.1986 H   0  0  0  0  0  0  0  0  0  0  0  0
   -4.0582   29.9648   -7.0656 H   0  0  0  0  0  0  0  0  0  0  0  0
 29 30  2  0  0  0
 29 31  1  0  0  0
 29 32  1  0  0  0
 29 28  1  0  0  0
 24 25  2  0  0  0
 24 26  1  0  0  0
 24 28  1  0  0  0
 24 23  1  0  0  0
 23 22  1  0  0  0
 22  1  1  0  0  0
  1  2  1  0  0  0
  1  3  1  0  0  0
  2  7  1  0  0  0
  3  4  1  0  0  0
  3  5  1  0  0  0
  5  6  1  0  0  0
  5  7  1  0  0  0
  7 10  1  0  0  0
 10 11  1  0  0  0
 10 19  1  0  0  0
 11 12  2  0  0  0
 12 13  1  0  0  0
 13 14  1  0  0  0
 13 19  2  0  0  0
 14 15  1  0  0  0
 14 16  2  0  0  0
 16 17  1  0  0  0
 17 18  2  0  0  0
 18 19  1  0  0  0
 31 33  1  0  0  0
 32 34  1  0  0  0
 26 27  1  0  0  0
  4  8  1  0  0  0
  6  9  1  0  0  0
 15 20  1  0  0  0
 15 21  1  0  0  0
M  END
> <minimizedAffinity>
-8.71128

$$$$
4LJ8_ADP_A_901


 34 36  0  0  0  0  0  0  0  0999 V2000
   -9.9200   31.3717   -9.8320 C   0  0  0  0  0  0  0  0  0  0  0  0
   -9.9834   31.5841   -8.4245 O   0  0  0  0  0  0  0  0  0  0  0  0
  -10.8814   32.3646  -10.4866 C   0  0  0  0  0  0  0  0  0  0  0  0
  -11.8363   31.6945  -11.2969 O   0  0  0  0  0  0  0  0  0  0  0  0
  -11.5145   33.1508   -9.3603 C   0  0  0  0  0  0  0  0  0  0  0  0
  -12.8171   32.6985   -8.9659 O   0  0  0  0  0  0  0  0  0  0  0  0
  -10.5997   32.8492   -8.2010 C   0  0  0  0  0  0  0  0  0  0  0  0
  -12.3407   31.0697  -10.7526 H   0  0  0  0  0  0  0  0  0  0  0  0
  -12.7666   31.7708   -8.6870 H   0  0  0  0  0  0  0  0  0  0  0  0
   -9.5599   33.8764   -7.9913 N   0  0  0  0  0  0  0  0  0  0  0  0
   -9.0942   34.7995   -8.8625 C   0  0  0  0  0  0  0  0  0  0  0  0
   -8.1040   35.5315   -8.3218 N   0  0  0  0  0  0  0  0  0  0  0  0
   -7.9104   35.0591   -7.0904 C   0  0  0  0  0  0  0  0  0  0  0  0
   -6.9951   35.3803   -5.9868 C   0  0  0  0  0  0  0  0  0  0  0  0
   -6.1030   36.3729   -6.1212 N   0  0  0  0  0  0  0  0  0  0  0  0
   -7.1180   34.6669   -4.8629 N   0  0  0  0  0  0  0  0  0  0  0  0
   -8.0241   33.6734   -4.7416 C   0  0  0  0  0  0  0  0  0  0  0  0
   -8.8885   33.3272   -5.7009 N   0  0  0  0  0  0  0  0  0  0  0  0
   -8.8649   33.9740   -6.8782 C   0  0  0  0  0  0  0  0  0  0  0  0
   -6.0465   36.8727   -6.9674 H   0  0  0  0  0  0  0  0  0  0  0  0
   -5.5047   36.6015   -5.3735 H   0  0  0  0  0  0  0  0  0  0  0  0
   -8.4900   31.6520  -10.2293 C   0  0  0  0  0  0  0  0  0  0  0  0
   -7.7113   31.0079   -9.3100 O   0  0  0  0  0  0  0  0  0  0  0  0
   -6.3891   30.2301   -9.7174 P   0  0  0  0  0  0  0  0  0  0  0  0
   -7.0480   28.9182  -10.0498 O   0  0  0  0  0  0  0  0  0  0  0  0
   -5.5383   30.9364  -10.7240 O   0  0  0  0  0  0  0  0  0  0  0  0
   -4.7544   30.3993  -10.9186 H   0  0  0  0  0  0  0  0  0  0  0  0
   -5.6317   30.1920   -8.2914 O   0  0  0  0  0  0  0  0  0  0  0  0
   -6.2926   29.6906   -6.9295 P   0  0  0  0  0  0  0  0  0  0  0  0
   -5.1510   29.2094   -6.0433 O   0  0  0  0  0  0  0  0  0  0  0  0
   -6.9545   30.9174   -6.4138 O   0  0  0  0  0  0  0  0  0  0  0  0
   -7.1961   28.5818   -7.3389 O   0  0  0  0  0  0  0  0  0  0  0  0
   -7.3947   30.7181   -5.5728 H   0  0  0  0  0  0  0  0  0  0  0  0
   -7.6400   28.2205   -6.5558 H   0  0  0  0  0  0  0  0  0  0  0  0
 29 30  2  0  0  0
 29 31  1  0  0  0
 29 32  1  0  0  0
 29 28  1  0  0  0
 24 25  2  0  0  0
 24 26  1  0  0  0
 24 28  1  0  0  0
 24 23  1  0  0  0
 23 22  1  0  0  0
 22  1  1  0  0  0
  1  2  1  0  0  0
  1  3  1  0  0  0
  2  7  1  0  0  0
  3  4  1  0  0  0
  3  5  1  0  0  0
  5  6  1  0  0  0
  5  7  1  0  0  0
  7 10  1  0  0  0
 10 11  1  0  0  0
 10 19  1  0  0  0
 11 12  2  0  0  0
 12 13  1  0  0  0
 13 14  1  0  0  0
 13 19  2  0  0  0
 14 15  1  0  0  0
 14 16  2  0  0  0
 16 17  1  0  0  0
 17 18  2  0  0  0
 18 19  1  0  0  0
 31 33  1  0  0  0
 32 34  1  0  0  0
 26 27  1  0  0  0
  4  8  1  0  0  0
  6  9  1  0  0  0
 15 20  1  0  0  0
 15 21  1  0  0  0
M  END
> <minimizedAffinity>
-8.69481

$$$$
4LJ8_ADP_A_901


 34 36  0  0  0  0  0  0  0  0999 V2000
   -7.0100   29.4101   -7.8812 C   0  0  0  0  0  0  0  0  0  0  0  0
   -8.2226   29.9818   -7.3987 O   0  0  0  0  0  0  0  0  0  0  0  0
   -6.7280   30.0284   -9.2512 C   0  0  0  0  0  0  0  0  0  0  0  0
   -6.5893   29.0252  -10.2471 O   0  0  0  0  0  0  0  0  0  0  0  0
   -7.8683   30.9814   -9.5317 C   0  0  0  0  0  0  0  0  0  0  0  0
   -8.8996   30.4564  -10.3789 O   0  0  0  0  0  0  0  0  0  0  0  0
   -8.4924   31.1491   -8.1701 C   0  0  0  0  0  0  0  0  0  0  0  0
   -7.4037   28.5002  -10.2928 H   0  0  0  0  0  0  0  0  0  0  0  0
   -9.2742   29.6578   -9.9754 H   0  0  0  0  0  0  0  0  0  0  0  0
   -8.0108   32.3428   -7.4467 N   0  0  0  0  0  0  0  0  0  0  0  0
   -7.5382   32.4333   -6.1831 C   0  0  0  0  0  0  0  0  0  0  0  0
   -7.2432   33.7044   -5.8575 N   0  0  0  0  0  0  0  0  0  0  0  0
   -7.5518   34.4503   -6.9184 C   0  0  0  0  0  0  0  0  0  0  0  0
   -7.4979   35.8852   -7.2302 C   0  0  0  0  0  0  0  0  0  0  0  0
   -7.0359   36.7539   -6.3187 N   0  0  0  0  0  0  0  0  0  0  0  0
   -7.8968   36.2615   -8.4495 N   0  0  0  0  0  0  0  0  0  0  0  0
   -8.3555   35.3742   -9.3577 C   0  0  0  0  0  0  0  0  0  0  0  0
   -8.4312   34.0565   -9.1451 N   0  0  0  0  0  0  0  0  0  0  0  0
   -8.0558   33.5550   -7.9566 C   0  0  0  0  0  0  0  0  0  0  0  0
   -6.7526   36.4329   -5.4321 H   0  0  0  0  0  0  0  0  0  0  0  0
   -6.9801   37.7124   -6.5361 H   0  0  0  0  0  0  0  0  0  0  0  0
   -5.9453   29.7906   -6.8798 C   0  0  0  0  0  0  0  0  0  0  0  0
   -5.0633   28.7475   -6.8544 O   0  0  0  0  0  0  0  0  0  0  0  0
   -5.1560   27.5871   -5.7755 P   0  0  0  0  0  0  0  0  0  0  0  0
   -5.1462   28.4727   -4.5584 O   0  0  0  0  0  0  0  0  0  0  0  0
   -6.2671   26.6131   -6.0049 O   0  0  0  0  0  0  0  0  0  0  0  0
   -6.2558   25.9395   -5.3071 H   0  0  0  0  0  0  0  0  0  0  0  0
   -3.7336   26.8610   -6.0171 O   0  0  0  0  0  0  0  0  0  0  0  0
   -3.5058   25.2831   -5.9796 P   0  0  0  0  0  0  0  0  0  0  0  0
   -4.1431   24.7214   -7.2437 O   0  0  0  0  0  0  0  0  0  0  0  0
   -2.0242   25.1648   -5.9708 O   0  0  0  0  0  0  0  0  0  0  0  0
   -4.2059   24.8339   -4.7460 O   0  0  0  0  0  0  0  0  0  0  0  0
   -1.7748   24.2277   -5.9480 H   0  0  0  0  0  0  0  0  0  0  0  0
   -4.1115   23.8731   -4.6524 H   0  0  0  0  0  0  0  0  0  0  0  0
 29 30  2  0  0  0
 29 31  1  0  0  0
 29 32  1  0  0  0
 29 28  1  0  0  0
 24 25  2  0  0  0
 24 26  1  0  0  0
 24 28  1  0  0  0
 24 23  1  0  0  0
 23 22  1  0  0  0
 22  1  1  0  0  0
  1  2  1  0  0  0
  1  3  1  0  0  0
  2  7  1  0  0  0
  3  4  1  0  0  0
  3  5  1  0  0  0
  5  6  1  0  0  0
  5  7  1  0  0  0
  7 10  1  0  0  0
 10 11  1  0  0  0
 10 19  1  0  0  0
 11 12  2  0  0  0
 12 13  1  0  0  0
 13 14  1  0  0  0
 13 19  2  0  0  0
 14 15  1  0  0  0
 14 16  2  0  0  0
 16 17  1  0  0  0
 17 18  2  0  0  0
 18 19  1  0  0  0
 31 33  1  0  0  0
 32 34  1  0  0  0
 26 27  1  0  0  0
  4  8  1  0  0  0
  6  9  1  0  0  0
 15 20  1  0  0  0
 15 21  1  0  0  0
M  END
> <minimizedAffinity>
-8.54534

$$$$
4LJ8_ADP_A_901


 34 36  0  0  0  0  0  0  0  0999 V2000
   -7.4350   32.6277   -6.3835 C   0  0  0  0  0  0  0  0  0  0  0  0
   -7.2781   33.1125   -7.7141 O   0  0  0  0  0  0  0  0  0  0  0  0
   -8.3924   33.5774   -5.6623 C   0  0  0  0  0  0  0  0  0  0  0  0
   -7.8007   34.1026   -4.4827 O   0  0  0  0  0  0  0  0  0  0  0  0
   -8.7625   34.6501   -6.6621 C   0  0  0  0  0  0  0  0  0  0  0  0
   -8.0241   35.8733   -6.5366 O   0  0  0  0  0  0  0  0  0  0  0  0
   -8.3327   34.0360   -7.9697 C   0  0  0  0  0  0  0  0  0  0  0  0
   -6.9880   34.5794   -4.7132 H   0  0  0  0  0  0  0  0  0  0  0  0
   -7.0766   35.6907   -6.6360 H   0  0  0  0  0  0  0  0  0  0  0  0
   -9.4282   33.3511   -8.6846 N   0  0  0  0  0  0  0  0  0  0  0  0
  -10.7500   33.3442   -8.4005 C   0  0  0  0  0  0  0  0  0  0  0  0
  -11.4330   32.5601   -9.2535 N   0  0  0  0  0  0  0  0  0  0  0  0
  -10.5361   32.0336  -10.0873 C   0  0  0  0  0  0  0  0  0  0  0  0
  -10.5943   31.1006  -11.2211 C   0  0  0  0  0  0  0  0  0  0  0  0
  -11.7730   30.5983  -11.6179 N   0  0  0  0  0  0  0  0  0  0  0  0
   -9.4425   30.8119  -11.8353 N   0  0  0  0  0  0  0  0  0  0  0  0
   -8.2644   31.3291  -11.4264 C   0  0  0  0  0  0  0  0  0  0  0  0
   -8.1356   32.1834  -10.4062 N   0  0  0  0  0  0  0  0  0  0  0  0
   -9.2239   32.5528   -9.7105 C   0  0  0  0  0  0  0  0  0  0  0  0
  -12.5974   30.8378  -11.1360 H   0  0  0  0  0  0  0  0  0  0  0  0
  -11.8137   29.9901  -12.3910 H   0  0  0  0  0  0  0  0  0  0  0  0
   -8.0301   31.2456   -6.5135 C   0  0  0  0  0  0  0  0  0  0  0  0
   -6.9744   30.3787   -6.4965 O   0  0  0  0  0  0  0  0  0  0  0  0
   -6.4057   29.7118   -7.8198 P   0  0  0  0  0  0  0  0  0  0  0  0
   -7.5889   28.8230   -8.0954 O   0  0  0  0  0  0  0  0  0  0  0  0
   -5.9230   30.6848   -8.8476 O   0  0  0  0  0  0  0  0  0  0  0  0
   -5.5933   30.2010   -9.6210 H   0  0  0  0  0  0  0  0  0  0  0  0
   -5.1534   28.8943   -7.2099 O   0  0  0  0  0  0  0  0  0  0  0  0
   -5.2590   27.8251   -6.0314 P   0  0  0  0  0  0  0  0  0  0  0  0
   -4.0124   26.9546   -6.1208 O   0  0  0  0  0  0  0  0  0  0  0  0
   -5.2891   28.6784   -4.8148 O   0  0  0  0  0  0  0  0  0  0  0  0
   -6.5024   27.0638   -6.3282 O   0  0  0  0  0  0  0  0  0  0  0  0
   -5.3535   28.1162   -4.0270 H   0  0  0  0  0  0  0  0  0  0  0  0
   -6.6370   26.3863   -5.6472 H   0  0  0  0  0  0  0  0  0  0  0  0
 29 30  2  0  0  0
 29 31  1  0  0  0
 29 32  1  0  0  0
 29 28  1  0  0  0
 24 25  2  0  0  0
 24 26  1  0  0  0
 24 28  1  0  0  0
 24 23  1  0  0  0
 23 22  1  0  0  0
 22  1  1  0  0  0
  1  2  1  0  0  0
  1  3  1  0  0  0
  2  7  1  0  0  0
  3  4  1  0  0  0
  3  5  1  0  0  0
  5  6  1  0  0  0
  5  7  1  0  0  0
  7 10  1  0  0  0
 10 11  1  0  0  0
 10 19  1  0  0  0
 11 12  2  0  0  0
 12 13  1  0  0  0
 13 14  1  0  0  0
 13 19  2  0  0  0
 14 15  1  0  0  0
 14 16  2  0  0  0
 16 17  1  0  0  0
 17 18  2  0  0  0
 18 19  1  0  0  0
 31 33  1  0  0  0
 32 34  1  0  0  0
 26 27  1  0  0  0
  4  8  1  0  0  0
  6  9  1  0  0  0
 15 20  1  0  0  0
 15 21  1  0  0  0
M  END
> <minimizedAffinity>
-8.52161

$$$$
4LJ8_ADP_A_901


 34 36  0  0  0  0  0  0  0  0999 V2000
   -8.9625   31.1611   -8.4142 C   0  0  0  0  0  0  0  0  0  0  0  0
   -9.8652   32.0489   -7.7608 O   0  0  0  0  0  0  0  0  0  0  0  0
   -7.9567   32.0184   -9.1837 C   0  0  0  0  0  0  0  0  0  0  0  0
   -7.9387   31.6742  -10.5616 O   0  0  0  0  0  0  0  0  0  0  0  0
   -8.3515   33.4583   -8.9426 C   0  0  0  0  0  0  0  0  0  0  0  0
   -9.1231   34.0569   -9.9930 O   0  0  0  0  0  0  0  0  0  0  0  0
   -9.2762   33.3465   -7.7577 C   0  0  0  0  0  0  0  0  0  0  0  0
   -8.8236   31.8010  -10.9381 H   0  0  0  0  0  0  0  0  0  0  0  0
   -9.9365   33.5460  -10.1281 H   0  0  0  0  0  0  0  0  0  0  0  0
   -8.6040   33.5820   -6.4643 N   0  0  0  0  0  0  0  0  0  0  0  0
   -8.6683   32.8476   -5.3309 C   0  0  0  0  0  0  0  0  0  0  0  0
   -7.9556   33.4098   -4.3387 N   0  0  0  0  0  0  0  0  0  0  0  0
   -7.4418   34.5371   -4.8309 C   0  0  0  0  0  0  0  0  0  0  0  0
   -6.5995   35.6153   -4.2950 C   0  0  0  0  0  0  0  0  0  0  0  0
   -6.1688   35.5635   -3.0258 N   0  0  0  0  0  0  0  0  0  0  0  0
   -6.2721   36.6075   -5.1290 N   0  0  0  0  0  0  0  0  0  0  0  0
   -6.7103   36.6431   -6.4055 C   0  0  0  0  0  0  0  0  0  0  0  0
   -7.4764   35.6987   -6.9607 N   0  0  0  0  0  0  0  0  0  0  0  0
   -7.8700   34.6471   -6.2230 C   0  0  0  0  0  0  0  0  0  0  0  0
   -6.4346   34.8137   -2.4460 H   0  0  0  0  0  0  0  0  0  0  0  0
   -5.5868   36.2755   -2.6741 H   0  0  0  0  0  0  0  0  0  0  0  0
   -8.2850   30.3765   -7.3158 C   0  0  0  0  0  0  0  0  0  0  0  0
   -7.7307   29.2843   -7.9210 O   0  0  0  0  0  0  0  0  0  0  0  0
   -6.2183   28.8637   -7.6867 P   0  0  0  0  0  0  0  0  0  0  0  0
   -6.0329   28.1294   -8.9876 O   0  0  0  0  0  0  0  0  0  0  0  0
   -5.3117   29.9908   -7.3077 O   0  0  0  0  0  0  0  0  0  0  0  0
   -4.4109   29.6533   -7.1832 H   0  0  0  0  0  0  0  0  0  0  0  0
   -6.3941   27.8584   -6.4348 O   0  0  0  0  0  0  0  0  0  0  0  0
   -5.2070   27.3862   -5.4805 P   0  0  0  0  0  0  0  0  0  0  0  0
   -5.1351   28.3966   -4.3430 O   0  0  0  0  0  0  0  0  0  0  0  0
   -5.6562   26.0403   -5.0381 O   0  0  0  0  0  0  0  0  0  0  0  0
   -3.9965   27.4213   -6.3448 O   0  0  0  0  0  0  0  0  0  0  0  0
   -4.9931   25.6577   -4.4424 H   0  0  0  0  0  0  0  0  0  0  0  0
   -3.2231   27.1435   -5.8295 H   0  0  0  0  0  0  0  0  0  0  0  0
 29 30  2  0  0  0
 29 31  1  0  0  0
 29 32  1  0  0  0
 29 28  1  0  0  0
 24 25  2  0  0  0
 24 26  1  0  0  0
 24 28  1  0  0  0
 24 23  1  0  0  0
 23 22  1  0  0  0
 22  1  1  0  0  0
  1  2  1  0  0  0
  1  3  1  0  0  0
  2  7  1  0  0  0
  3  4  1  0  0  0
  3  5  1  0  0  0
  5  6  1  0  0  0
  5  7  1  0  0  0
  7 10  1  0  0  0
 10 11  1  0  0  0
 10 19  1  0  0  0
 11 12  2  0  0  0
 12 13  1  0  0  0
 13 14  1  0  0  0
 13 19  2  0  0  0
 14 15  1  0  0  0
 14 16  2  0  0  0
 16 17  1  0  0  0
 17 18  2  0  0  0
 18 19  1  0  0  0
 31 33  1  0  0  0
 32 34  1  0  0  0
 26 27  1  0  0  0
  4  8  1  0  0  0
  6  9  1  0  0  0
 15 20  1  0  0  0
 15 21  1  0  0  0
M  END
> <minimizedAffinity>
-8.29665

$$$$
4LJ8_ADP_A_901


 34 36  0  0  0  0  0  0  0  0999 V2000
   -7.2036   30.4518   -6.5028 C   0  0  0  0  0  0  0  0  0  0  0  0
   -8.2572   29.9233   -7.3033 O   0  0  0  0  0  0  0  0  0  0  0  0
   -5.9816   29.5555   -6.7080 C   0  0  0  0  0  0  0  0  0  0  0  0
   -5.5065   29.0460   -5.4702 O   0  0  0  0  0  0  0  0  0  0  0  0
   -6.4079   28.4666   -7.6671 C   0  0  0  0  0  0  0  0  0  0  0  0
   -6.7691   27.2241   -7.0482 O   0  0  0  0  0  0  0  0  0  0  0  0
   -7.6798   29.0277   -8.2493 C   0  0  0  0  0  0  0  0  0  0  0  0
   -6.2102   28.5364   -5.0388 H   0  0  0  0  0  0  0  0  0  0  0  0
   -7.4986   27.3727   -6.4264 H   0  0  0  0  0  0  0  0  0  0  0  0
   -7.4788   29.7267   -9.5342 N   0  0  0  0  0  0  0  0  0  0  0  0
   -6.3578   30.3116  -10.0132 C   0  0  0  0  0  0  0  0  0  0  0  0
   -6.5776   30.8955  -11.2046 N   0  0  0  0  0  0  0  0  0  0  0  0
   -7.8659   30.7056  -11.4895 C   0  0  0  0  0  0  0  0  0  0  0  0
   -8.7514   31.0866  -12.5985 C   0  0  0  0  0  0  0  0  0  0  0  0
   -8.2657   31.7816  -13.6377 N   0  0  0  0  0  0  0  0  0  0  0  0
  -10.0255   30.6875  -12.5286 N   0  0  0  0  0  0  0  0  0  0  0  0
  -10.4984   29.9846  -11.4774 C   0  0  0  0  0  0  0  0  0  0  0  0
   -9.7524   29.6020  -10.4360 N   0  0  0  0  0  0  0  0  0  0  0  0
   -8.4532   29.9410  -10.3923 C   0  0  0  0  0  0  0  0  0  0  0  0
   -7.3201   32.0554  -13.6479 H   0  0  0  0  0  0  0  0  0  0  0  0
   -8.8548   32.0179  -14.3903 H   0  0  0  0  0  0  0  0  0  0  0  0
   -6.9507   31.8482   -7.0199 C   0  0  0  0  0  0  0  0  0  0  0  0
   -8.1826   32.4062   -7.2131 O   0  0  0  0  0  0  0  0  0  0  0  0
   -8.4072   33.6492   -8.1743 P   0  0  0  0  0  0  0  0  0  0  0  0
   -7.6167   34.6445   -7.3678 O   0  0  0  0  0  0  0  0  0  0  0  0
   -8.0770   33.3919   -9.6097 O   0  0  0  0  0  0  0  0  0  0  0  0
   -8.2400   34.1954  -10.1281 H   0  0  0  0  0  0  0  0  0  0  0  0
  -10.0009   33.8523   -8.0075 O   0  0  0  0  0  0  0  0  0  0  0  0
  -11.1069   32.9577   -8.7282 P   0  0  0  0  0  0  0  0  0  0  0  0
  -10.9274   33.1671  -10.2261 O   0  0  0  0  0  0  0  0  0  0  0  0
  -10.7575   31.5827   -8.2851 O   0  0  0  0  0  0  0  0  0  0  0  0
  -12.4028   33.4957   -8.2336 O   0  0  0  0  0  0  0  0  0  0  0  0
  -11.3807   30.9494   -8.6743 H   0  0  0  0  0  0  0  0  0  0  0  0
  -13.1331   32.9968   -8.6319 H   0  0  0  0  0  0  0  0  0  0  0  0
 29 30  2  0  0  0
 29 31  1  0  0  0
 29 32  1  0  0  0
 29 28  1  0  0  0
 24 25  2  0  0  0
 24 26  1  0  0  0
 24 28  1  0  0  0
 24 23  1  0  0  0
 23 22  1  0  0  0
 22  1  1  0  0  0
  1  2  1  0  0  0
  1  3  1  0  0  0
  2  7  1  0  0  0
  3  4  1  0  0  0
  3  5  1  0  0  0
  5  6  1  0  0  0
  5  7  1  0  0  0
  7 10  1  0  0  0
 10 11  1  0  0  0
 10 19  1  0  0  0
 11 12  2  0  0  0
 12 13  1  0  0  0
 13 14  1  0  0  0
 13 19  2  0  0  0
 14 15  1  0  0  0
 14 16  2  0  0  0
 16 17  1  0  0  0
 17 18  2  0  0  0
 18 19  1  0  0  0
 31 33  1  0  0  0
 32 34  1  0  0  0
 26 27  1  0  0  0
  4  8  1  0  0  0
  6  9  1  0  0  0
 15 20  1  0  0  0
 15 21  1  0  0  0
M  END
> <minimizedAffinity>
-8.04111

$$$$
4LJ8_ADP_A_901


 34 36  0  0  0  0  0  0  0  0999 V2000
   -6.1205   30.3888   -7.6209 C   0  0  0  0  0  0  0  0  0  0  0  0
   -5.9982   30.4391   -9.0395 O   0  0  0  0  0  0  0  0  0  0  0  0
   -7.3576   31.2036   -7.2408 C   0  0  0  0  0  0  0  0  0  0  0  0
   -7.0303   32.2296   -6.3146 O   0  0  0  0  0  0  0  0  0  0  0  0
   -7.9288   31.7398   -8.5344 C   0  0  0  0  0  0  0  0  0  0  0  0
   -7.5699   33.0951   -8.8372 O   0  0  0  0  0  0  0  0  0  0  0  0
   -7.2432   30.8857   -9.5698 C   0  0  0  0  0  0  0  0  0  0  0  0
   -6.3654   32.8179   -6.7054 H   0  0  0  0  0  0  0  0  0  0  0  0
   -6.6041   33.1704   -8.8868 H   0  0  0  0  0  0  0  0  0  0  0  0
   -8.0459   29.7219   -9.9956 N   0  0  0  0  0  0  0  0  0  0  0  0
   -9.3386   29.4384   -9.7187 C   0  0  0  0  0  0  0  0  0  0  0  0
   -9.7064   28.2554  -10.2422 N   0  0  0  0  0  0  0  0  0  0  0  0
   -8.6286   27.7554  -10.8468 C   0  0  0  0  0  0  0  0  0  0  0  0
   -8.3315   26.5206  -11.5857 C   0  0  0  0  0  0  0  0  0  0  0  0
   -9.2920   25.6040  -11.7762 N   0  0  0  0  0  0  0  0  0  0  0  0
   -7.0928   26.3798  -12.0686 N   0  0  0  0  0  0  0  0  0  0  0  0
   -6.1378   27.3137  -11.8719 C   0  0  0  0  0  0  0  0  0  0  0  0
   -6.3358   28.4597  -11.2126 N   0  0  0  0  0  0  0  0  0  0  0  0
   -7.5427   28.7181  -10.6818 C   0  0  0  0  0  0  0  0  0  0  0  0
  -10.1913   25.7484  -11.4024 H   0  0  0  0  0  0  0  0  0  0  0  0
   -9.0977   24.7869  -12.2898 H   0  0  0  0  0  0  0  0  0  0  0  0
   -6.2980   28.9300   -7.2718 C   0  0  0  0  0  0  0  0  0  0  0  0
   -5.1113   28.5266   -6.7283 O   0  0  0  0  0  0  0  0  0  0  0  0
   -5.0333   27.4203   -5.5929 P   0  0  0  0  0  0  0  0  0  0  0  0
   -4.9538   28.3670   -4.4253 O   0  0  0  0  0  0  0  0  0  0  0  0
   -6.1056   26.3806   -5.6641 O   0  0  0  0  0  0  0  0  0  0  0  0
   -5.9886   25.7454   -4.9404 H   0  0  0  0  0  0  0  0  0  0  0  0
   -3.6031   26.7558   -5.9421 O   0  0  0  0  0  0  0  0  0  0  0  0
   -3.3028   25.1899   -5.9152 P   0  0  0  0  0  0  0  0  0  0  0  0
   -3.9152   24.6515   -4.6288 O   0  0  0  0  0  0  0  0  0  0  0  0
   -3.9916   24.7018   -7.1385 O   0  0  0  0  0  0  0  0  0  0  0  0
   -1.8181   25.0944   -5.9175 O   0  0  0  0  0  0  0  0  0  0  0  0
   -3.8686   23.7429   -7.2180 H   0  0  0  0  0  0  0  0  0  0  0  0
   -1.5541   24.1611   -5.9017 H   0  0  0  0  0  0  0  0  0  0  0  0
 29 30  2  0  0  0
 29 31  1  0  0  0
 29 32  1  0  0  0
 29 28  1  0  0  0
 24 25  2  0  0  0
 24 26  1  0  0  0
 24 28  1  0  0  0
 24 23  1  0  0  0
 23 22  1  0  0  0
 22  1  1  0  0  0
  1  2  1  0  0  0
  1  3  1  0  0  0
  2  7  1  0  0  0
  3  4  1  0  0  0
  3  5  1  0  0  0
  5  6  1  0  0  0
  5  7  1  0  0  0
  7 10  1  0  0  0
 10 11  1  0  0  0
 10 19  1  0  0  0
 11 12  2  0  0  0
 12 13  1  0  0  0
 13 14  1  0  0  0
 13 19  2  0  0  0
 14 15  1  0  0  0
 14 16  2  0  0  0
 16 17  1  0  0  0
 17 18  2  0  0  0
 18 19  1  0  0  0
 31 33  1  0  0  0
 32 34  1  0  0  0
 26 27  1  0  0  0
  4  8  1  0  0  0
  6  9  1  0  0  0
 15 20  1  0  0  0
 15 21  1  0  0  0
M  END
> <minimizedAffinity>
-7.94810

$$$$
4LJ8_ADP_A_901


 34 36  0  0  0  0  0  0  0  0999 V2000
   -6.1309   30.3140   -7.4425 C   0  0  0  0  0  0  0  0  0  0  0  0
   -5.9028   30.6571   -8.8065 O   0  0  0  0  0  0  0  0  0  0  0  0
   -7.4775   30.9168   -7.0398 C   0  0  0  0  0  0  0  0  0  0  0  0
   -7.3413   31.7640   -5.9079 O   0  0  0  0  0  0  0  0  0  0  0  0
   -8.0007   31.6437   -8.2585 C   0  0  0  0  0  0  0  0  0  0  0  0
   -7.7726   33.0596   -8.2614 O   0  0  0  0  0  0  0  0  0  0  0  0
   -7.1439   31.0811   -9.3636 C   0  0  0  0  0  0  0  0  0  0  0  0
   -6.7174   32.4782   -6.1118 H   0  0  0  0  0  0  0  0  0  0  0  0
   -6.8204   33.2339   -8.1994 H   0  0  0  0  0  0  0  0  0  0  0  0
   -7.7753   29.9551  -10.0804 N   0  0  0  0  0  0  0  0  0  0  0  0
   -7.1866   28.9711  -10.7967 C   0  0  0  0  0  0  0  0  0  0  0  0
   -8.0983   28.1504  -11.3481 N   0  0  0  0  0  0  0  0  0  0  0  0
   -9.2952   28.6245  -11.0025 C   0  0  0  0  0  0  0  0  0  0  0  0
  -10.6853   28.2313  -11.2716 C   0  0  0  0  0  0  0  0  0  0  0  0
  -10.9443   27.1483  -12.0193 N   0  0  0  0  0  0  0  0  0  0  0  0
  -11.6491   28.9760  -10.7206 N   0  0  0  0  0  0  0  0  0  0  0  0
  -11.3720   30.0611   -9.9666 C   0  0  0  0  0  0  0  0  0  0  0  0
  -10.1344   30.4767   -9.6789 N   0  0  0  0  0  0  0  0  0  0  0  0
   -9.0796   29.8075  -10.1735 C   0  0  0  0  0  0  0  0  0  0  0  0
  -10.2032   26.6285  -12.4061 H   0  0  0  0  0  0  0  0  0  0  0  0
  -11.8757   26.8733  -12.1813 H   0  0  0  0  0  0  0  0  0  0  0  0
   -6.1714   28.8049   -7.3960 C   0  0  0  0  0  0  0  0  0  0  0  0
   -5.0184   28.4170   -6.7741 O   0  0  0  0  0  0  0  0  0  0  0  0
   -5.0134   27.3846   -5.5685 P   0  0  0  0  0  0  0  0  0  0  0  0
   -4.9979   28.4032   -4.4603 O   0  0  0  0  0  0  0  0  0  0  0  0
   -6.0852   26.3442   -5.6373 O   0  0  0  0  0  0  0  0  0  0  0  0
   -6.0144   25.7559   -4.8693 H   0  0  0  0  0  0  0  0  0  0  0  0
   -3.5687   26.6972   -5.7898 O   0  0  0  0  0  0  0  0  0  0  0  0
   -3.3232   25.1258   -5.9057 P   0  0  0  0  0  0  0  0  0  0  0  0
   -3.9881   24.6759   -7.2001 O   0  0  0  0  0  0  0  0  0  0  0  0
   -1.8407   25.0266   -5.9460 O   0  0  0  0  0  0  0  0  0  0  0  0
   -3.9852   24.5546   -4.7020 O   0  0  0  0  0  0  0  0  0  0  0  0
   -1.5808   24.0948   -6.0173 H   0  0  0  0  0  0  0  0  0  0  0  0
   -3.8781   23.5905   -4.7009 H   0  0  0  0  0  0  0  0  0  0  0  0
 29 30  2  0  0  0
 29 31  1  0  0  0
 29 32  1  0  0  0
 29 28  1  0  0  0
 24 25  2  0  0  0
 24 26  1  0  0  0
 24 28  1  0  0  0
 24 23  1  0  0  0
 23 22  1  0  0  0
 22  1  1  0  0  0
  1  2  1  0  0  0
  1  3  1  0  0  0
  2  7  1  0  0  0
  3  4  1  0  0  0
  3  5  1  0  0  0
  5  6  1  0  0  0
  5  7  1  0  0  0
  7 10  1  0  0  0
 10 11  1  0  0  0
 10 19  1  0  0  0
 11 12  2  0  0  0
 12 13  1  0  0  0
 13 14  1  0  0  0
 13 19  2  0  0  0
 14 15  1  0  0  0
 14 16  2  0  0  0
 16 17  1  0  0  0
 17 18  2  0  0  0
 18 19  1  0  0  0
 31 33  1  0  0  0
 32 34  1  0  0  0
 26 27  1  0  0  0
  4  8  1  0  0  0
  6  9  1  0  0  0
 15 20  1  0  0  0
 15 21  1  0  0  0
M  END
> <minimizedAffinity>
-7.79544

$$$$
4LJ8_ADP_A_901


 34 36  0  0  0  0  0  0  0  0999 V2000
   -7.7455   32.0199   -6.3102 C   0  0  0  0  0  0  0  0  0  0  0  0
   -7.1916   32.6238   -7.4759 O   0  0  0  0  0  0  0  0  0  0  0  0
   -8.9438   32.8685   -5.8828 C   0  0  0  0  0  0  0  0  0  0  0  0
   -8.8055   33.3100   -4.5398 O   0  0  0  0  0  0  0  0  0  0  0  0
   -9.0318   34.0102   -6.8708 C   0  0  0  0  0  0  0  0  0  0  0  0
   -8.4533   35.2434   -6.4217 O   0  0  0  0  0  0  0  0  0  0  0  0
   -8.1597   33.5278   -8.0014 C   0  0  0  0  0  0  0  0  0  0  0  0
   -7.9936   33.8337   -4.4536 H   0  0  0  0  0  0  0  0  0  0  0  0
   -7.5162   35.1041   -6.2137 H   0  0  0  0  0  0  0  0  0  0  0  0
   -8.9152   32.8689   -9.0855 N   0  0  0  0  0  0  0  0  0  0  0  0
   -8.4432   32.1745  -10.1452 C   0  0  0  0  0  0  0  0  0  0  0  0
   -9.4402   31.7665  -10.9503 N   0  0  0  0  0  0  0  0  0  0  0  0
  -10.5723   32.2242  -10.4157 C   0  0  0  0  0  0  0  0  0  0  0  0
  -11.9941   32.1593  -10.7812 C   0  0  0  0  0  0  0  0  0  0  0  0
  -12.3742   31.5015  -11.8865 N   0  0  0  0  0  0  0  0  0  0  0  0
  -12.8649   32.7514   -9.9576 N   0  0  0  0  0  0  0  0  0  0  0  0
  -12.4669   33.4063   -8.8462 C   0  0  0  0  0  0  0  0  0  0  0  0
  -11.1936   33.5047   -8.4507 N   0  0  0  0  0  0  0  0  0  0  0  0
  -10.2242   32.9471   -9.1952 C   0  0  0  0  0  0  0  0  0  0  0  0
  -11.6985   31.0798  -12.4653 H   0  0  0  0  0  0  0  0  0  0  0  0
  -13.3288   31.4403  -12.1192 H   0  0  0  0  0  0  0  0  0  0  0  0
   -8.1776   30.6340   -6.7270 C   0  0  0  0  0  0  0  0  0  0  0  0
   -7.0783   29.8367   -6.5775 O   0  0  0  0  0  0  0  0  0  0  0  0
   -6.2429   29.3059   -7.8183 P   0  0  0  0  0  0  0  0  0  0  0  0
   -7.2340   28.2671   -8.2705 O   0  0  0  0  0  0  0  0  0  0  0  0
   -5.7728   30.3740   -8.7532 O   0  0  0  0  0  0  0  0  0  0  0  0
   -5.2733   29.9705   -9.4802 H   0  0  0  0  0  0  0  0  0  0  0  0
   -4.9790   28.6550   -7.0516 O   0  0  0  0  0  0  0  0  0  0  0  0
   -5.0890   27.6003   -5.8606 P   0  0  0  0  0  0  0  0  0  0  0  0
   -3.8214   26.7572   -5.9078 O   0  0  0  0  0  0  0  0  0  0  0  0
   -5.1672   28.4696   -4.6576 O   0  0  0  0  0  0  0  0  0  0  0  0
   -6.3075   26.8069   -6.1756 O   0  0  0  0  0  0  0  0  0  0  0  0
   -5.2379   27.9172   -3.8635 H   0  0  0  0  0  0  0  0  0  0  0  0
   -6.4432   26.1361   -5.4882 H   0  0  0  0  0  0  0  0  0  0  0  0
 29 30  2  0  0  0
 29 31  1  0  0  0
 29 32  1  0  0  0
 29 28  1  0  0  0
 24 25  2  0  0  0
 24 26  1  0  0  0
 24 28  1  0  0  0
 24 23  1  0  0  0
 23 22  1  0  0  0
 22  1  1  0  0  0
  1  2  1  0  0  0
  1  3  1  0  0  0
  2  7  1  0  0  0
  3  4  1  0  0  0
  3  5  1  0  0  0
  5  6  1  0  0  0
  5  7  1  0  0  0
  7 10  1  0  0  0
 10 11  1  0  0  0
 10 19  1  0  0  0
 11 12  2  0  0  0
 12 13  1  0  0  0
 13 14  1  0  0  0
 13 19  2  0  0  0
 14 15  1  0  0  0
 14 16  2  0  0  0
 16 17  1  0  0  0
 17 18  2  0  0  0
 18 19  1  0  0  0
 31 33  1  0  0  0
 32 34  1  0  0  0
 26 27  1  0  0  0
  4  8  1  0  0  0
  6  9  1  0  0  0
 15 20  1  0  0  0
 15 21  1  0  0  0
M  END
> <minimizedAffinity>
-7.71084

$$$$
