4LJ8_ADP_A_901
  RCSB PDB12061713343D
Coordinates from PDB:4LJ8:A:901 Model:1 without hydrogens
 27 29  0  0  0  0            999 V2000
   -5.4690   27.3180   -6.4690   P 0  0  0  0  0  0  0  0  0  0  0  0
   -5.2880   26.5110   -7.7480   O 0  0  0  0  0  0  0  0  0  0  0  0
   -4.3320   28.2340   -6.1910   O 0  0  0  0  0  0  0  0  0  0  0  0
   -5.9260   26.4770   -5.3300   O 0  0  0  0  0  0  0  0  0  0  0  0
   -7.2280   28.7310   -8.1960   P 0  0  0  0  0  0  0  0  0  0  0  0
   -7.6600   27.5320   -8.9970   O 0  0  0  0  0  0  0  0  0  0  0  0
   -6.3440   29.7760   -8.7980   O 0  0  0  0  0  0  0  0  0  0  0  0
   -6.6770   28.3250   -6.7330   O 0  0  0  0  0  0  0  0  0  0  0  0
   -8.6830   29.2380   -7.8150   O 0  0  0  0  0  0  0  0  0  0  0  0
   -8.9000   30.4490   -7.2210   C 0  0  0  0  0  0  0  0  0  0  0  0
   -9.6170   31.2930   -8.2480   C 0  0  0  0  0  0  0  0  0  0  0  0
  -10.2800   32.3200   -7.5160   O 0  0  0  0  0  0  0  0  0  0  0  0
   -8.6270   31.9740   -9.1940   C 0  0  0  0  0  0  0  0  0  0  0  0
   -8.8620   31.5930  -10.5420   O 0  0  0  0  0  0  0  0  0  0  0  0
   -8.7770   33.4620   -8.9690   C 0  0  0  0  0  0  0  0  0  0  0  0
   -9.6050   34.1370   -9.9260   O 0  0  0  0  0  0  0  0  0  0  0  0
   -9.5220   33.5180   -7.6600   C 0  0  0  0  0  0  0  0  0  0  0  0
   -8.6390   33.6890   -6.4890   N 0  0  0  0  0  0  0  0  0  0  0  0
   -8.4000   32.8260   -5.4760   C 0  0  0  0  0  0  0  0  0  0  0  0
   -7.5720   33.3590   -4.5600   N 0  0  0  0  0  0  0  0  0  0  0  0
   -7.2900   34.5940   -4.9750   C 0  0  0  0  0  0  0  0  0  0  0  0
   -6.4810   35.7050   -4.4550   C 0  0  0  0  0  0  0  0  0  0  0  0
   -5.8070   35.5640   -3.3040   N 0  0  0  0  0  0  0  0  0  0  0  0
   -6.4330   36.8220   -5.1880   N 0  0  0  0  0  0  0  0  0  0  0  0
   -7.1140   36.9470   -6.3470   C 0  0  0  0  0  0  0  0  0  0  0  0
   -7.8670   35.9800   -6.8810   N 0  0  0  0  0  0  0  0  0  0  0  0
   -7.9920   34.8070   -6.2380   C 0  0  0  0  0  0  0  0  0  0  0  0
  1  2  2  0  0  0  0
  1  3  1  0  0  0  0
  1  4  1  0  0  0  0
  1  8  1  0  0  0  0
  5  6  2  0  0  0  0
  5  7  1  0  0  0  0
  5  8  1  0  0  0  0
  5  9  1  0  0  0  0
  9 10  1  0  0  0  0
 10 11  1  0  0  0  0
 11 12  1  0  0  0  0
 11 13  1  0  0  0  0
 12 17  1  0  0  0  0
 13 14  1  0  0  0  0
 13 15  1  0  0  0  0
 15 16  1  0  0  0  0
 15 17  1  0  0  0  0
 17 18  1  0  0  0  0
 18 19  1  0  0  0  0
 18 27  1  0  0  0  0
 19 20  2  0  0  0  0
 20 21  1  0  0  0  0
 21 22  1  0  0  0  0
 21 27  2  0  0  0  0
 22 23  1  0  0  0  0
 22 24  2  0  0  0  0
 24 25  1  0  0  0  0
 25 26  2  0  0  0  0
 26 27  1  0  0  0  0
A    1
PB
A    2
O1B
A    3
O2B
A    4
O3B
A    5
PA
A    6
O1A
A    7
O2A
A    8
O3A
A    9
O5'
A   10
C5'
A   11
C4'
A   12
O4'
A   13
C3'
A   14
O3'
A   15
C2'
A   16
O2'
A   17
C1'
A   18
N9
A   19
C8
A   20
N7
A   21
C5
A   22
C6
A   23
N6
A   24
N1
A   25
C2
A   26
N3
A   27
C4
M  END
>  <InstanceId>
4LJ8_ADP_A_901

>  <ChemCompId>
ADP

>  <PdbId>
4LJ8

>  <ChainId>
A

>  <ResidueNumber>
901

>  <InsertionCode>


>  <Model>
1

>  <AltIds>


>  <MissingHeavyAtoms>
0

>  <ObservedFormula>
C10 N5 O10 P2

>  <Name>
ADENOSINE-5'-DIPHOSPHATE

>  <SystematicName>
[(2R,3S,4R,5R)-5-(6-aminopurin-9-yl)-3,4-dihydroxy-oxolan-2-yl]methyl phosphono hydrogen phosphate

>  <Synonyms>


>  <Type>
NON-POLYMER

>  <Formula>
C10 H15 N5 O10 P2

>  <MolecularWeight>
427.201

>  <ModifiedDate>
2011-06-04

>  <Parent>
A

>  <OneLetterCode>


>  <SubcomponentList>


>  <AmbiguousFlag>
N

>  <InChI>
InChI=1S/C10H15N5O10P2/c11-8-5-9(13-2-12-8)15(3-14-5)10-7(17)6(16)4(24-10)1-23-27(21,22)25-26(18,19)20/h2-4,6-7,10,16-17H,1H2,(H,21,22)(H2,11,12,13)(H2,18,19,20)/t4-,6-,7-,10-/m1/s1

>  <InChIKey>
XTWYTFMLZFPYCI-KQYNXXCUSA-N

>  <SMILES>
c1nc(c2c(n1)n(cn2)[C@H]3[C@@H]([C@@H]([C@H](O3)CO[P@](=O)(O)OP(=O)(O)O)O)O)N

$$$$
