4R4C_3HS_A_201


 44 48  0  0  0  0  0  0  0  0999 V2000
    7.0631   13.5778   25.0619 C   0  0  0  0  0  0  0  0  0  0  0  0
    9.4643   13.5754   24.9299 C   0  0  0  0  0  0  0  0  0  0  0  0
    8.2381   14.1024   24.5439 C   0  0  0  0  0  0  0  0  0  0  0  0
    9.5149   12.5266   25.8407 C   0  0  0  0  0  0  0  0  0  0  0  0
    8.3427   12.0017   26.3638 C   0  0  0  0  0  0  0  0  0  0  0  0
    7.1155   12.5332   25.9806 C   0  0  0  0  0  0  0  0  0  0  0  0
    4.0482   15.6174   24.3167 C   0  0  0  0  0  0  0  0  0  0  0  0
    3.7385   14.4285   23.8224 N   0  0  0  0  0  0  0  0  0  0  0  0
    4.7273   13.5822   24.0146 N   0  0  0  0  0  0  0  0  0  0  0  0
    5.7438   14.1751   24.6415 C   0  0  0  0  0  0  0  0  0  0  0  0
    5.3525   15.5229   24.8749 C   0  0  0  0  0  0  0  0  0  0  0  0
    4.5272    9.6039   22.7221 C   0  0  0  0  0  0  0  0  0  0  0  0
    4.0073   11.2848   24.3509 C   0  0  0  0  0  0  0  0  0  0  0  0
    4.6674   12.2255   23.5763 C   0  0  0  0  0  0  0  0  0  0  0  0
    5.2529   11.8608   22.3720 C   0  0  0  0  0  0  0  0  0  0  0  0
    5.1859   10.5476   21.9446 C   0  0  0  0  0  0  0  0  0  0  0  0
    5.9195   10.1053   20.4393 Cl  0  0  0  0  0  0  0  0  0  0  0  0
    4.4279    7.9573   22.2074 Cl  0  0  0  0  0  0  0  0  0  0  0  0
    3.9394    9.9706   23.9236 C   0  0  0  0  0  0  0  0  0  0  0  0
    3.4032   17.7776   25.0687 O   0  0  0  0  0  0  0  0  0  0  0  0
    3.1772   16.8202   24.2858 C   0  0  0  0  0  0  0  0  0  0  0  0
    2.2250   16.8708   23.4667 O   0  0  0  0  0  0  0  0  0  0  0  0
    4.1159   17.7288   25.6750 H   0  0  0  0  0  0  0  0  0  0  0  0
   10.8549   11.9714   26.2515 C   0  0  0  0  0  0  0  0  0  0  0  0
   12.1397   11.1739   24.2518 C   0  0  0  0  0  0  0  0  0  0  0  0
   11.9231   12.1461   25.2922 N   0  0  0  0  0  0  0  0  0  0  0  0
   11.4191   10.1886   24.1755 O   0  0  0  0  0  0  0  0  0  0  0  0
   12.5073   12.9364   25.3508 H   0  0  0  0  0  0  0  0  0  0  0  0
   13.2425   11.3996   23.2560 C   0  0  0  0  0  0  0  0  0  0  0  0
   15.3162   10.6947   22.2581 C   0  0  0  0  0  0  0  0  0  0  0  0
   14.2942   10.4987   23.1774 C   0  0  0  0  0  0  0  0  0  0  0  0
   15.2721   11.7994   21.4211 C   0  0  0  0  0  0  0  0  0  0  0  0
   14.2240   12.6990   21.4936 C   0  0  0  0  0  0  0  0  0  0  0  0
   13.2031   12.5080   22.4078 C   0  0  0  0  0  0  0  0  0  0  0  0
   11.9153   13.6697   22.4551 Cl  0  0  0  0  0  0  0  0  0  0  0  0
   16.3318   12.0678   20.4131 C   0  0  0  0  0  0  0  0  0  0  0  0
   18.0757   11.9898   18.9938 C   0  0  0  0  0  0  0  0  0  0  0  0
   17.3490   11.2174   19.9645 C   0  0  0  0  0  0  0  0  0  0  0  0
   17.4218   13.2274   18.9542 C   0  0  0  0  0  0  0  0  0  0  0  0
   16.4253   13.2126   19.7912 O   0  0  0  0  0  0  0  0  0  0  0  0
   17.7444   14.4163   18.1214 C   0  0  0  0  0  0  0  0  0  0  0  0
   17.0186   15.4473   18.1562 O   0  0  0  0  0  0  0  0  0  0  0  0
   18.7656   14.3579   17.3911 O   0  0  0  0  0  0  0  0  0  0  0  0
   19.2905   13.5818   17.3808 H   0  0  0  0  0  0  0  0  0  0  0  0
 42 41  2  0  0  0
 43 41  1  0  0  0
 41 39  1  0  0  0
 39 37  2  0  0  0
 39 40  1  0  0  0
 37 38  1  0  0  0
 40 36  1  0  0  0
 38 36  2  0  0  0
 17 16  1  0  0  0
 36 32  1  0  0  0
 32 33  2  0  0  0
 32 30  1  0  0  0
 33 34  1  0  0  0
 16 15  2  0  0  0
 16 12  1  0  0  0
 18 12  1  0  0  0
 15 14  1  0  0  0
 30 31  2  0  0  0
 35 34  1  0  0  0
 34 29  2  0  0  0
 12 19  2  0  0  0
 31 29  1  0  0  0
 29 25  1  0  0  0
 14  9  1  0  0  0
 14 13  2  0  0  0
 22 21  2  0  0  0
  8  9  1  0  0  0
  8  7  2  0  0  0
 19 13  1  0  0  0
  9 10  1  0  0  0
 27 25  2  0  0  0
 21  7  1  0  0  0
 21 20  1  0  0  0
 25 26  1  0  0  0
  7 11  1  0  0  0
 10 11  2  0  0  0
 10  1  1  0  0  0
  3  1  2  0  0  0
  3  2  1  0  0  0
  1  6  1  0  0  0
 26 24  1  0  0  0
  2  4  2  0  0  0
  6  5  2  0  0  0
  4  5  1  0  0  0
  4 24  1  0  0  0
 20 23  1  0  0  0
 26 28  1  0  0  0
 43 44  1  0  0  0
M  END
> <minimizedAffinity>
-9.38696

$$$$
4R4C_3HS_A_201


 44 48  0  0  0  0  0  0  0  0999 V2000
    7.0309   13.4943   24.9824 C   0  0  0  0  0  0  0  0  0  0  0  0
    8.2764   11.8733   26.2487 C   0  0  0  0  0  0  0  0  0  0  0  0
    7.0607   12.4299   25.8712 C   0  0  0  0  0  0  0  0  0  0  0  0
    9.4634   12.3782   25.7307 C   0  0  0  0  0  0  0  0  0  0  0  0
    9.4377   13.4399   24.8389 C   0  0  0  0  0  0  0  0  0  0  0  0
    8.2197   13.9935   24.4576 C   0  0  0  0  0  0  0  0  0  0  0  0
    3.9810   15.4915   24.2653 C   0  0  0  0  0  0  0  0  0  0  0  0
    3.6840   14.2989   23.7724 N   0  0  0  0  0  0  0  0  0  0  0  0
    4.6863   13.4665   23.9552 N   0  0  0  0  0  0  0  0  0  0  0  0
    5.6997   14.0732   24.5739 C   0  0  0  0  0  0  0  0  0  0  0  0
    5.2912   15.4151   24.8122 C   0  0  0  0  0  0  0  0  0  0  0  0
    4.5320    9.4874   22.6589 C   0  0  0  0  0  0  0  0  0  0  0  0
    3.9496   11.1705   24.2640 C   0  0  0  0  0  0  0  0  0  0  0  0
    4.6419   12.1095   23.5159 C   0  0  0  0  0  0  0  0  0  0  0  0
    5.2750   11.7428   22.3365 C   0  0  0  0  0  0  0  0  0  0  0  0
    5.2231   10.4294   21.9079 C   0  0  0  0  0  0  0  0  0  0  0  0
    6.0161    9.9846   20.4337 Cl  0  0  0  0  0  0  0  0  0  0  0  0
    4.4508    7.8405   22.1420 Cl  0  0  0  0  0  0  0  0  0  0  0  0
    3.8968    9.8561   23.8354 C   0  0  0  0  0  0  0  0  0  0  0  0
    1.8967   16.5644   23.8744 O   0  0  0  0  0  0  0  0  0  0  0  0
    3.0928   16.6819   24.2431 C   0  0  0  0  0  0  0  0  0  0  0  0
    3.5475   17.7970   24.6039 O   0  0  0  0  0  0  0  0  0  0  0  0
    1.5687   15.7282   23.6076 H   0  0  0  0  0  0  0  0  0  0  0  0
   10.7724   11.7578   26.1481 C   0  0  0  0  0  0  0  0  0  0  0  0
   12.8259   12.5281   24.9333 C   0  0  0  0  0  0  0  0  0  0  0  0
   11.7467   11.5876   25.0927 N   0  0  0  0  0  0  0  0  0  0  0  0
   12.9229   13.4823   25.6922 O   0  0  0  0  0  0  0  0  0  0  0  0
   11.6715   10.8224   24.4779 H   0  0  0  0  0  0  0  0  0  0  0  0
   13.8354   12.3068   23.8421 C   0  0  0  0  0  0  0  0  0  0  0  0
   14.4576   12.4748   21.5232 C   0  0  0  0  0  0  0  0  0  0  0  0
   13.5310   12.6702   22.5386 C   0  0  0  0  0  0  0  0  0  0  0  0
   15.6885   11.9137   21.8279 C   0  0  0  0  0  0  0  0  0  0  0  0
   15.9980   11.5523   23.1267 C   0  0  0  0  0  0  0  0  0  0  0  0
   15.0781   11.7453   24.1421 C   0  0  0  0  0  0  0  0  0  0  0  0
   15.5202   11.2715   25.7515 Cl  0  0  0  0  0  0  0  0  0  0  0  0
   16.7269   11.6790   20.7897 C   0  0  0  0  0  0  0  0  0  0  0  0
   18.1700   10.8297   19.2872 C   0  0  0  0  0  0  0  0  0  0  0  0
   17.1573   10.4656   20.2405 C   0  0  0  0  0  0  0  0  0  0  0  0
   18.2464   12.2261   19.3569 C   0  0  0  0  0  0  0  0  0  0  0  0
   17.3914   12.6586   20.2376 O   0  0  0  0  0  0  0  0  0  0  0  0
   19.1282   13.1425   18.5865 C   0  0  0  0  0  0  0  0  0  0  0  0
   20.3671   13.1951   18.8176 O   0  0  0  0  0  0  0  0  0  0  0  0
   18.5967   13.8535   17.6968 O   0  0  0  0  0  0  0  0  0  0  0  0
   17.6742   13.7984   17.5420 H   0  0  0  0  0  0  0  0  0  0  0  0
 42 41  2  0  0  0
 43 41  1  0  0  0
 41 39  1  0  0  0
 39 37  2  0  0  0
 39 40  1  0  0  0
 37 38  1  0  0  0
 40 36  1  0  0  0
 38 36  2  0  0  0
 17 16  1  0  0  0
 36 32  1  0  0  0
 32 33  2  0  0  0
 32 30  1  0  0  0
 33 34  1  0  0  0
 16 15  2  0  0  0
 16 12  1  0  0  0
 18 12  1  0  0  0
 15 14  1  0  0  0
 30 31  2  0  0  0
 35 34  1  0  0  0
 34 29  2  0  0  0
 12 19  2  0  0  0
 31 29  1  0  0  0
 29 25  1  0  0  0
 14  9  1  0  0  0
 14 13  2  0  0  0
 22 21  2  0  0  0
  8  9  1  0  0  0
  8  7  2  0  0  0
 19 13  1  0  0  0
  9 10  1  0  0  0
 27 25  2  0  0  0
 21  7  1  0  0  0
 21 20  1  0  0  0
 25 26  1  0  0  0
  7 11  1  0  0  0
 10 11  2  0  0  0
 10  1  1  0  0  0
  3  1  2  0  0  0
  3  2  1  0  0  0
  1  6  1  0  0  0
 26 24  1  0  0  0
  2  4  2  0  0  0
  6  5  2  0  0  0
  4  5  1  0  0  0
  4 24  1  0  0  0
 20 23  1  0  0  0
 26 28  1  0  0  0
 43 44  1  0  0  0
M  END
> <minimizedAffinity>
-7.44191

$$$$
4R4C_3HS_A_201


 44 48  0  0  0  0  0  0  0  0999 V2000
    6.3895   10.6233   24.9305 C   0  0  0  0  0  0  0  0  0  0  0  0
    8.7420   10.9200   24.5300 C   0  0  0  0  0  0  0  0  0  0  0  0
    7.4962   10.4725   24.1081 C   0  0  0  0  0  0  0  0  0  0  0  0
    8.8790   11.5253   25.7738 C   0  0  0  0  0  0  0  0  0  0  0  0
    7.7744   11.6813   26.5976 C   0  0  0  0  0  0  0  0  0  0  0  0
    6.5263   11.2374   26.1723 C   0  0  0  0  0  0  0  0  0  0  0  0
    3.3791    8.8388   23.6820 C   0  0  0  0  0  0  0  0  0  0  0  0
    2.9540   10.0847   23.8258 N   0  0  0  0  0  0  0  0  0  0  0  0
    3.9270   10.8512   24.2691 N   0  0  0  0  0  0  0  0  0  0  0  0
    5.0439   10.1447   24.4464 C   0  0  0  0  0  0  0  0  0  0  0  0
    4.7471    8.8055   24.0685 C   0  0  0  0  0  0  0  0  0  0  0  0
    3.3842   14.9408   24.9884 C   0  0  0  0  0  0  0  0  0  0  0  0
    4.3368   13.1733   23.6781 C   0  0  0  0  0  0  0  0  0  0  0  0
    3.7475   12.2443   24.5209 C   0  0  0  0  0  0  0  0  0  0  0  0
    2.9714   12.6593   25.5940 C   0  0  0  0  0  0  0  0  0  0  0  0
    2.7912   14.0094   25.8309 C   0  0  0  0  0  0  0  0  0  0  0  0
    1.8194   14.5146   27.1727 Cl  0  0  0  0  0  0  0  0  0  0  0  0
    3.1710   16.6336   25.2625 Cl  0  0  0  0  0  0  0  0  0  0  0  0
    4.1565   14.5246   23.9141 C   0  0  0  0  0  0  0  0  0  0  0  0
    1.5313    7.3522   23.8351 O   0  0  0  0  0  0  0  0  0  0  0  0
    2.5611    7.6960   23.2012 C   0  0  0  0  0  0  0  0  0  0  0  0
    2.9048    7.0888   22.1556 O   0  0  0  0  0  0  0  0  0  0  0  0
    1.2848    7.8122   24.6133 H   0  0  0  0  0  0  0  0  0  0  0  0
   10.2378   12.0092   26.2122 C   0  0  0  0  0  0  0  0  0  0  0  0
   12.4469   11.4632   25.1598 C   0  0  0  0  0  0  0  0  0  0  0  0
   11.2057   12.1939   25.1534 N   0  0  0  0  0  0  0  0  0  0  0  0
   12.6914   10.6804   26.0673 O   0  0  0  0  0  0  0  0  0  0  0  0
   11.0145   12.8245   24.4219 H   0  0  0  0  0  0  0  0  0  0  0  0
   13.4189   11.6600   24.0305 C   0  0  0  0  0  0  0  0  0  0  0  0
   14.7035   10.7446   22.2126 C   0  0  0  0  0  0  0  0  0  0  0  0
   13.8097   10.5739   23.2613 C   0  0  0  0  0  0  0  0  0  0  0  0
   15.1989   12.0116   21.9440 C   0  0  0  0  0  0  0  0  0  0  0  0
   14.8101   13.0983   22.7062 C   0  0  0  0  0  0  0  0  0  0  0  0
   13.9194   12.9334   23.7521 C   0  0  0  0  0  0  0  0  0  0  0  0
   13.4687   14.3317   24.6750 Cl  0  0  0  0  0  0  0  0  0  0  0  0
   16.1568   12.2650   20.8352 C   0  0  0  0  0  0  0  0  0  0  0  0
   17.7099   12.1468   19.2118 C   0  0  0  0  0  0  0  0  0  0  0  0
   17.0278   11.3665   20.2082 C   0  0  0  0  0  0  0  0  0  0  0  0
   17.1797   13.4367   19.3379 C   0  0  0  0  0  0  0  0  0  0  0  0
   16.2895   13.4432   20.2871 O   0  0  0  0  0  0  0  0  0  0  0  0
   17.5189   14.6552   18.5562 C   0  0  0  0  0  0  0  0  0  0  0  0
   16.8375   15.7102   18.6735 O   0  0  0  0  0  0  0  0  0  0  0  0
   18.5087   14.5968   17.7838 O   0  0  0  0  0  0  0  0  0  0  0  0
   19.0008   13.8026   17.7122 H   0  0  0  0  0  0  0  0  0  0  0  0
 42 41  2  0  0  0
 43 41  1  0  0  0
 41 39  1  0  0  0
 39 37  2  0  0  0
 39 40  1  0  0  0
 37 38  1  0  0  0
 40 36  1  0  0  0
 38 36  2  0  0  0
 17 16  1  0  0  0
 36 32  1  0  0  0
 32 33  2  0  0  0
 32 30  1  0  0  0
 33 34  1  0  0  0
 16 15  2  0  0  0
 16 12  1  0  0  0
 18 12  1  0  0  0
 15 14  1  0  0  0
 30 31  2  0  0  0
 35 34  1  0  0  0
 34 29  2  0  0  0
 12 19  2  0  0  0
 31 29  1  0  0  0
 29 25  1  0  0  0
 14  9  1  0  0  0
 14 13  2  0  0  0
 22 21  2  0  0  0
  8  9  1  0  0  0
  8  7  2  0  0  0
 19 13  1  0  0  0
  9 10  1  0  0  0
 27 25  2  0  0  0
 21  7  1  0  0  0
 21 20  1  0  0  0
 25 26  1  0  0  0
  7 11  1  0  0  0
 10 11  2  0  0  0
 10  1  1  0  0  0
  3  1  2  0  0  0
  3  2  1  0  0  0
  1  6  1  0  0  0
 26 24  1  0  0  0
  2  4  2  0  0  0
  6  5  2  0  0  0
  4  5  1  0  0  0
  4 24  1  0  0  0
 20 23  1  0  0  0
 26 28  1  0  0  0
 43 44  1  0  0  0
M  END
> <minimizedAffinity>
-7.41160

$$$$
4R4C_3HS_A_201


 44 48  0  0  0  0  0  0  0  0999 V2000
   16.7889   12.1370   20.4355 C   0  0  0  0  0  0  0  0  0  0  0  0
   15.9575   10.2174   21.6216 C   0  0  0  0  0  0  0  0  0  0  0  0
   16.8624   10.7841   20.7326 C   0  0  0  0  0  0  0  0  0  0  0  0
   14.9820   11.0071   22.2191 C   0  0  0  0  0  0  0  0  0  0  0  0
   14.9074   12.3609   21.9275 C   0  0  0  0  0  0  0  0  0  0  0  0
   15.8170   12.9286   21.0411 C   0  0  0  0  0  0  0  0  0  0  0  0
   18.7369   13.9958   17.8751 C   0  0  0  0  0  0  0  0  0  0  0  0
   19.6253   13.1517   18.3768 N   0  0  0  0  0  0  0  0  0  0  0  0
   19.0733   12.4103   19.3130 N   0  0  0  0  0  0  0  0  0  0  0  0
   17.7908   12.7348   19.4800 C   0  0  0  0  0  0  0  0  0  0  0  0
   17.5060   13.7746   18.5517 C   0  0  0  0  0  0  0  0  0  0  0  0
   21.1984    9.4895   21.4320 C   0  0  0  0  0  0  0  0  0  0  0  0
   20.3470   11.7247   21.2668 C   0  0  0  0  0  0  0  0  0  0  0  0
   19.8040   11.4159   20.0297 C   0  0  0  0  0  0  0  0  0  0  0  0
   19.9508   10.1442   19.4935 C   0  0  0  0  0  0  0  0  0  0  0  0
   20.6514    9.1795   20.1935 C   0  0  0  0  0  0  0  0  0  0  0  0
   20.8266    7.5959   19.5143 Cl  0  0  0  0  0  0  0  0  0  0  0  0
   22.0756    8.2996   22.3268 Cl  0  0  0  0  0  0  0  0  0  0  0  0
   21.0477   10.7597   21.9682 C   0  0  0  0  0  0  0  0  0  0  0  0
   19.9396   14.7988   15.9892 O   0  0  0  0  0  0  0  0  0  0  0  0
   18.9968   14.9865   16.7993 C   0  0  0  0  0  0  0  0  0  0  0  0
   18.2614   16.0017   16.7056 O   0  0  0  0  0  0  0  0  0  0  0  0
   20.4813   14.0383   16.0688 H   0  0  0  0  0  0  0  0  0  0  0  0
   14.0121   10.3754   23.1850 C   0  0  0  0  0  0  0  0  0  0  0  0
   12.3113   11.6050   24.5563 C   0  0  0  0  0  0  0  0  0  0  0  0
   12.7299   11.0342   23.3020 N   0  0  0  0  0  0  0  0  0  0  0  0
   13.0409   11.5326   25.5353 O   0  0  0  0  0  0  0  0  0  0  0  0
   12.1381   11.0931   22.5174 H   0  0  0  0  0  0  0  0  0  0  0  0
   10.9837   12.3050   24.6361 C   0  0  0  0  0  0  0  0  0  0  0  0
    8.6641   12.2919   25.2780 C   0  0  0  0  0  0  0  0  0  0  0  0
    9.8942   11.6534   25.1948 C   0  0  0  0  0  0  0  0  0  0  0  0
    8.5388   13.5865   24.7972 C   0  0  0  0  0  0  0  0  0  0  0  0
    9.6229   14.2417   24.2418 C   0  0  0  0  0  0  0  0  0  0  0  0
   10.8509   13.6098   24.1569 C   0  0  0  0  0  0  0  0  0  0  0  0
   12.1748   14.4795   23.4491 Cl  0  0  0  0  0  0  0  0  0  0  0  0
    7.2518   14.3289   24.8571 C   0  0  0  0  0  0  0  0  0  0  0  0
    5.5621   15.7539   25.2763 C   0  0  0  0  0  0  0  0  0  0  0  0
    6.9329   15.4695   25.6032 C   0  0  0  0  0  0  0  0  0  0  0  0
    5.1938   14.7569   24.3647 C   0  0  0  0  0  0  0  0  0  0  0  0
    6.2076   13.9668   24.1610 O   0  0  0  0  0  0  0  0  0  0  0  0
    3.8831   14.5602   23.6905 C   0  0  0  0  0  0  0  0  0  0  0  0
    3.4744   13.4043   23.3943 O   0  0  0  0  0  0  0  0  0  0  0  0
    3.1987   15.5829   23.4348 O   0  0  0  0  0  0  0  0  0  0  0  0
    3.5218   16.4322   23.6637 H   0  0  0  0  0  0  0  0  0  0  0  0
 42 41  2  0  0  0
 43 41  1  0  0  0
 41 39  1  0  0  0
 39 37  2  0  0  0
 39 40  1  0  0  0
 37 38  1  0  0  0
 40 36  1  0  0  0
 38 36  2  0  0  0
 17 16  1  0  0  0
 36 32  1  0  0  0
 32 33  2  0  0  0
 32 30  1  0  0  0
 33 34  1  0  0  0
 16 15  2  0  0  0
 16 12  1  0  0  0
 18 12  1  0  0  0
 15 14  1  0  0  0
 30 31  2  0  0  0
 35 34  1  0  0  0
 34 29  2  0  0  0
 12 19  2  0  0  0
 31 29  1  0  0  0
 29 25  1  0  0  0
 14  9  1  0  0  0
 14 13  2  0  0  0
 22 21  2  0  0  0
  8  9  1  0  0  0
  8  7  2  0  0  0
 19 13  1  0  0  0
  9 10  1  0  0  0
 27 25  2  0  0  0
 21  7  1  0  0  0
 21 20  1  0  0  0
 25 26  1  0  0  0
  7 11  1  0  0  0
 10 11  2  0  0  0
 10  1  1  0  0  0
  3  1  2  0  0  0
  3  2  1  0  0  0
  1  6  1  0  0  0
 26 24  1  0  0  0
  2  4  2  0  0  0
  6  5  2  0  0  0
  4  5  1  0  0  0
  4 24  1  0  0  0
 20 23  1  0  0  0
 26 28  1  0  0  0
 43 44  1  0  0  0
M  END
> <minimizedAffinity>
-6.98103

$$$$
4R4C_3HS_A_201


 44 48  0  0  0  0  0  0  0  0999 V2000
   16.9380   12.0383   20.5115 C   0  0  0  0  0  0  0  0  0  0  0  0
   15.2734   12.3576   22.2174 C   0  0  0  0  0  0  0  0  0  0  0  0
   16.1664   12.8855   21.2931 C   0  0  0  0  0  0  0  0  0  0  0  0
   15.1476   10.9801   22.3547 C   0  0  0  0  0  0  0  0  0  0  0  0
   15.9146   10.1296   21.5726 C   0  0  0  0  0  0  0  0  0  0  0  0
   16.8049   10.6589   20.6439 C   0  0  0  0  0  0  0  0  0  0  0  0
   18.7711   13.9285   17.8900 C   0  0  0  0  0  0  0  0  0  0  0  0
   19.6447   13.0064   18.2643 N   0  0  0  0  0  0  0  0  0  0  0  0
   19.1298   12.2445   19.2053 N   0  0  0  0  0  0  0  0  0  0  0  0
   17.8894   12.6322   19.5035 C   0  0  0  0  0  0  0  0  0  0  0  0
   17.5916   13.7396   18.6613 C   0  0  0  0  0  0  0  0  0  0  0  0
   21.2778    9.0911   20.9314 C   0  0  0  0  0  0  0  0  0  0  0  0
   19.8903    9.9358   19.1680 C   0  0  0  0  0  0  0  0  0  0  0  0
   19.8557   11.1690   19.7994 C   0  0  0  0  0  0  0  0  0  0  0  0
   20.5353   11.3687   20.9929 C   0  0  0  0  0  0  0  0  0  0  0  0
   21.2454   10.3280   21.5622 C   0  0  0  0  0  0  0  0  0  0  0  0
   22.0904   10.5902   23.0512 Cl  0  0  0  0  0  0  0  0  0  0  0  0
   22.1610    7.7763   21.6223 Cl  0  0  0  0  0  0  0  0  0  0  0  0
   20.6012    8.8941   19.7368 C   0  0  0  0  0  0  0  0  0  0  0  0
   19.9524   14.8391   16.0398 O   0  0  0  0  0  0  0  0  0  0  0  0
   18.9991   14.9640   16.8498 C   0  0  0  0  0  0  0  0  0  0  0  0
   18.2266   15.9537   16.7856 O   0  0  0  0  0  0  0  0  0  0  0  0
   20.5219   14.0972   16.0973 H   0  0  0  0  0  0  0  0  0  0  0  0
   14.1697   10.4259   23.3593 C   0  0  0  0  0  0  0  0  0  0  0  0
   12.2184   11.2660   24.6906 C   0  0  0  0  0  0  0  0  0  0  0  0
   12.8948   11.1055   23.4292 N   0  0  0  0  0  0  0  0  0  0  0  0
   12.7201   10.8236   25.7145 O   0  0  0  0  0  0  0  0  0  0  0  0
   12.4858   11.4614   22.6074 H   0  0  0  0  0  0  0  0  0  0  0  0
   10.9075   12.0000   24.7308 C   0  0  0  0  0  0  0  0  0  0  0  0
    8.5352   11.9935   25.1376 C   0  0  0  0  0  0  0  0  0  0  0  0
    9.7512   11.3246   25.0924 C   0  0  0  0  0  0  0  0  0  0  0  0
    8.4915   13.3421   24.8180 C   0  0  0  0  0  0  0  0  0  0  0  0
    9.6422   14.0207   24.4596 C   0  0  0  0  0  0  0  0  0  0  0  0
   10.8563   13.3587   24.4134 C   0  0  0  0  0  0  0  0  0  0  0  0
   12.2662   14.2602   23.9557 Cl  0  0  0  0  0  0  0  0  0  0  0  0
    7.2239   14.1190   24.8481 C   0  0  0  0  0  0  0  0  0  0  0  0
    5.5569   15.5770   25.2436 C   0  0  0  0  0  0  0  0  0  0  0  0
    6.9035   15.2420   25.6196 C   0  0  0  0  0  0  0  0  0  0  0  0
    5.2025   14.6230   24.2818 C   0  0  0  0  0  0  0  0  0  0  0  0
    6.2023   13.8114   24.0946 O   0  0  0  0  0  0  0  0  0  0  0  0
    3.9183   14.4877   23.5445 C   0  0  0  0  0  0  0  0  0  0  0  0
    3.0159   15.3627   23.6500 O   0  0  0  0  0  0  0  0  0  0  0  0
    3.7697   13.4780   22.8109 O   0  0  0  0  0  0  0  0  0  0  0  0
    4.4534   12.8404   22.7474 H   0  0  0  0  0  0  0  0  0  0  0  0
 42 41  2  0  0  0
 43 41  1  0  0  0
 41 39  1  0  0  0
 39 37  2  0  0  0
 39 40  1  0  0  0
 37 38  1  0  0  0
 40 36  1  0  0  0
 38 36  2  0  0  0
 17 16  1  0  0  0
 36 32  1  0  0  0
 32 33  2  0  0  0
 32 30  1  0  0  0
 33 34  1  0  0  0
 16 15  2  0  0  0
 16 12  1  0  0  0
 18 12  1  0  0  0
 15 14  1  0  0  0
 30 31  2  0  0  0
 35 34  1  0  0  0
 34 29  2  0  0  0
 12 19  2  0  0  0
 31 29  1  0  0  0
 29 25  1  0  0  0
 14  9  1  0  0  0
 14 13  2  0  0  0
 22 21  2  0  0  0
  8  9  1  0  0  0
  8  7  2  0  0  0
 19 13  1  0  0  0
  9 10  1  0  0  0
 27 25  2  0  0  0
 21  7  1  0  0  0
 21 20  1  0  0  0
 25 26  1  0  0  0
  7 11  1  0  0  0
 10 11  2  0  0  0
 10  1  1  0  0  0
  3  1  2  0  0  0
  3  2  1  0  0  0
  1  6  1  0  0  0
 26 24  1  0  0  0
  2  4  2  0  0  0
  6  5  2  0  0  0
  4  5  1  0  0  0
  4 24  1  0  0  0
 20 23  1  0  0  0
 26 28  1  0  0  0
 43 44  1  0  0  0
M  END
> <minimizedAffinity>
-6.82689

$$$$
4R4C_3HS_A_201


 44 48  0  0  0  0  0  0  0  0999 V2000
   10.4742   16.7645   24.9470 C   0  0  0  0  0  0  0  0  0  0  0  0
    8.9192   14.9736   25.3438 C   0  0  0  0  0  0  0  0  0  0  0  0
   10.0379   15.4735   24.6887 C   0  0  0  0  0  0  0  0  0  0  0  0
    8.2406   15.7645   26.2636 C   0  0  0  0  0  0  0  0  0  0  0  0
    8.6758   17.0545   26.5275 C   0  0  0  0  0  0  0  0  0  0  0  0
    9.7989   17.5526   25.8748 C   0  0  0  0  0  0  0  0  0  0  0  0
   13.0561   18.4411   22.8666 C   0  0  0  0  0  0  0  0  0  0  0  0
   13.7587   17.5744   23.5798 N   0  0  0  0  0  0  0  0  0  0  0  0
   12.9671   16.8924   24.3792 N   0  0  0  0  0  0  0  0  0  0  0  0
   11.6998   17.2817   24.2366 C   0  0  0  0  0  0  0  0  0  0  0  0
   11.6924   18.3009   23.2441 C   0  0  0  0  0  0  0  0  0  0  0  0
   14.4329   13.9529   26.9769 C   0  0  0  0  0  0  0  0  0  0  0  0
   13.6474   14.5978   24.8054 C   0  0  0  0  0  0  0  0  0  0  0  0
   13.4589   15.8904   25.2683 C   0  0  0  0  0  0  0  0  0  0  0  0
   13.7618   16.2193   26.5822 C   0  0  0  0  0  0  0  0  0  0  0  0
   14.2468   15.2492   27.4396 C   0  0  0  0  0  0  0  0  0  0  0  0
   14.6223   15.6725   29.0766 Cl  0  0  0  0  0  0  0  0  0  0  0  0
   15.0406   12.7242   28.0289 Cl  0  0  0  0  0  0  0  0  0  0  0  0
   14.1333   13.6266   25.6626 C   0  0  0  0  0  0  0  0  0  0  0  0
   13.1652   19.3705   20.6820 O   0  0  0  0  0  0  0  0  0  0  0  0
   13.6093   19.3809   21.8581 C   0  0  0  0  0  0  0  0  0  0  0  0
   14.5135   20.1860   22.1965 O   0  0  0  0  0  0  0  0  0  0  0  0
   12.4911   18.7659   20.4411 H   0  0  0  0  0  0  0  0  0  0  0  0
    7.0320   15.2029   26.9683 C   0  0  0  0  0  0  0  0  0  0  0  0
    5.7572   13.7993   25.3280 C   0  0  0  0  0  0  0  0  0  0  0  0
    6.5836   13.9090   26.5026 N   0  0  0  0  0  0  0  0  0  0  0  0
    5.4263   14.8055   24.7165 O   0  0  0  0  0  0  0  0  0  0  0  0
    6.8454   13.0964   26.9927 H   0  0  0  0  0  0  0  0  0  0  0  0
    5.3305   12.4373   24.8571 C   0  0  0  0  0  0  0  0  0  0  0  0
    5.6370   10.5588   23.3839 C   0  0  0  0  0  0  0  0  0  0  0  0
    6.0194   11.8189   23.8242 C   0  0  0  0  0  0  0  0  0  0  0  0
    4.5607    9.9275   23.9888 C   0  0  0  0  0  0  0  0  0  0  0  0
    3.8723   10.5387   25.0210 C   0  0  0  0  0  0  0  0  0  0  0  0
    4.2496   11.7942   25.4635 C   0  0  0  0  0  0  0  0  0  0  0  0
    3.3486   12.5129   26.7603 Cl  0  0  0  0  0  0  0  0  0  0  0  0
    4.1001    8.5776   23.5681 C   0  0  0  0  0  0  0  0  0  0  0  0
    3.8587    6.3862   23.1203 C   0  0  0  0  0  0  0  0  0  0  0  0
    4.7645    7.3510   23.6820 C   0  0  0  0  0  0  0  0  0  0  0  0
    2.7388    7.1288   22.7263 C   0  0  0  0  0  0  0  0  0  0  0  0
    2.9349    8.3834   23.0107 O   0  0  0  0  0  0  0  0  0  0  0  0
    1.4884    6.6439   22.0842 C   0  0  0  0  0  0  0  0  0  0  0  0
    0.4823    6.3333   22.7787 O   0  0  0  0  0  0  0  0  0  0  0  0
    1.4695    6.5625   20.8301 O   0  0  0  0  0  0  0  0  0  0  0  0
    2.2285    6.7985   20.3338 H   0  0  0  0  0  0  0  0  0  0  0  0
 42 41  2  0  0  0
 43 41  1  0  0  0
 41 39  1  0  0  0
 39 37  2  0  0  0
 39 40  1  0  0  0
 37 38  1  0  0  0
 40 36  1  0  0  0
 38 36  2  0  0  0
 17 16  1  0  0  0
 36 32  1  0  0  0
 32 33  2  0  0  0
 32 30  1  0  0  0
 33 34  1  0  0  0
 16 15  2  0  0  0
 16 12  1  0  0  0
 18 12  1  0  0  0
 15 14  1  0  0  0
 30 31  2  0  0  0
 35 34  1  0  0  0
 34 29  2  0  0  0
 12 19  2  0  0  0
 31 29  1  0  0  0
 29 25  1  0  0  0
 14  9  1  0  0  0
 14 13  2  0  0  0
 22 21  2  0  0  0
  8  9  1  0  0  0
  8  7  2  0  0  0
 19 13  1  0  0  0
  9 10  1  0  0  0
 27 25  2  0  0  0
 21  7  1  0  0  0
 21 20  1  0  0  0
 25 26  1  0  0  0
  7 11  1  0  0  0
 10 11  2  0  0  0
 10  1  1  0  0  0
  3  1  2  0  0  0
  3  2  1  0  0  0
  1  6  1  0  0  0
 26 24  1  0  0  0
  2  4  2  0  0  0
  6  5  2  0  0  0
  4  5  1  0  0  0
  4 24  1  0  0  0
 20 23  1  0  0  0
 26 28  1  0  0  0
 43 44  1  0  0  0
M  END
> <minimizedAffinity>
-6.71496

$$$$
4R4C_3HS_A_201


 44 48  0  0  0  0  0  0  0  0999 V2000
   17.1240   12.4645   20.5227 C   0  0  0  0  0  0  0  0  0  0  0  0
   15.1792   12.3035   21.9279 C   0  0  0  0  0  0  0  0  0  0  0  0
   16.0565   13.0691   21.1700 C   0  0  0  0  0  0  0  0  0  0  0  0
   15.3666   10.9302   22.0327 C   0  0  0  0  0  0  0  0  0  0  0  0
   16.4305   10.3213   21.3842 C   0  0  0  0  0  0  0  0  0  0  0  0
   17.3057   11.0879   20.6213 C   0  0  0  0  0  0  0  0  0  0  0  0
   18.9711   14.4417   17.9763 C   0  0  0  0  0  0  0  0  0  0  0  0
   19.7430   14.5334   19.0484 N   0  0  0  0  0  0  0  0  0  0  0  0
   19.2111   13.8701   20.0524 N   0  0  0  0  0  0  0  0  0  0  0  0
   18.0550   13.3119   19.6924 C   0  0  0  0  0  0  0  0  0  0  0  0
   17.8440   13.6487   18.3263 C   0  0  0  0  0  0  0  0  0  0  0  0
   21.0040   13.6670   23.8314 C   0  0  0  0  0  0  0  0  0  0  0  0
   19.5117   14.7495   22.2987 C   0  0  0  0  0  0  0  0  0  0  0  0
   19.8294   13.8038   21.3368 C   0  0  0  0  0  0  0  0  0  0  0  0
   20.7287   12.7854   21.6202 C   0  0  0  0  0  0  0  0  0  0  0  0
   21.3198   12.7176   22.8682 C   0  0  0  0  0  0  0  0  0  0  0  0
   22.4395   11.4411   23.2100 Cl  0  0  0  0  0  0  0  0  0  0  0  0
   21.7277   13.6012   25.3992 Cl  0  0  0  0  0  0  0  0  0  0  0  0
   20.1024   14.6820   23.5480 C   0  0  0  0  0  0  0  0  0  0  0  0
   20.2069   14.6425   15.9563 O   0  0  0  0  0  0  0  0  0  0  0  0
   19.2491   15.0608   16.6550 C   0  0  0  0  0  0  0  0  0  0  0  0
   18.5141   15.9944   16.2448 O   0  0  0  0  0  0  0  0  0  0  0  0
   20.7482   13.9460   16.2723 H   0  0  0  0  0  0  0  0  0  0  0  0
   14.4013   10.1154   22.8555 C   0  0  0  0  0  0  0  0  0  0  0  0
   12.6911   11.1181   24.3902 C   0  0  0  0  0  0  0  0  0  0  0  0
   13.1031   10.7158   23.0699 N   0  0  0  0  0  0  0  0  0  0  0  0
   13.4400   10.9503   25.3425 O   0  0  0  0  0  0  0  0  0  0  0  0
   12.4958   10.8508   22.3069 H   0  0  0  0  0  0  0  0  0  0  0  0
   11.3458   11.7625   24.5733 C   0  0  0  0  0  0  0  0  0  0  0  0
    9.0294   11.5912   25.2042 C   0  0  0  0  0  0  0  0  0  0  0  0
   10.2757   11.0054   25.0268 C   0  0  0  0  0  0  0  0  0  0  0  0
    8.8684   12.9396   24.9236 C   0  0  0  0  0  0  0  0  0  0  0  0
    9.9330   13.6996   24.4740 C   0  0  0  0  0  0  0  0  0  0  0  0
   11.1769   13.1205   24.2959 C   0  0  0  0  0  0  0  0  0  0  0  0
   12.4750   14.1218   23.7281 Cl  0  0  0  0  0  0  0  0  0  0  0  0
    7.5623   13.6300   25.0936 C   0  0  0  0  0  0  0  0  0  0  0  0
    5.8525   14.9705   25.6777 C   0  0  0  0  0  0  0  0  0  0  0  0
    7.2495   14.7229   25.9102 C   0  0  0  0  0  0  0  0  0  0  0  0
    5.4650   14.0027   24.7428 C   0  0  0  0  0  0  0  0  0  0  0  0
    6.4914   13.2611   24.4431 O   0  0  0  0  0  0  0  0  0  0  0  0
    4.1238   13.7881   24.1376 C   0  0  0  0  0  0  0  0  0  0  0  0
    3.0743   13.9260   24.8236 O   0  0  0  0  0  0  0  0  0  0  0  0
    4.0754   13.4728   22.9219 O   0  0  0  0  0  0  0  0  0  0  0  0
    4.8678   13.3757   22.4312 H   0  0  0  0  0  0  0  0  0  0  0  0
 42 41  2  0  0  0
 43 41  1  0  0  0
 41 39  1  0  0  0
 39 37  2  0  0  0
 39 40  1  0  0  0
 37 38  1  0  0  0
 40 36  1  0  0  0
 38 36  2  0  0  0
 17 16  1  0  0  0
 36 32  1  0  0  0
 32 33  2  0  0  0
 32 30  1  0  0  0
 33 34  1  0  0  0
 16 15  2  0  0  0
 16 12  1  0  0  0
 18 12  1  0  0  0
 15 14  1  0  0  0
 30 31  2  0  0  0
 35 34  1  0  0  0
 34 29  2  0  0  0
 12 19  2  0  0  0
 31 29  1  0  0  0
 29 25  1  0  0  0
 14  9  1  0  0  0
 14 13  2  0  0  0
 22 21  2  0  0  0
  8  9  1  0  0  0
  8  7  2  0  0  0
 19 13  1  0  0  0
  9 10  1  0  0  0
 27 25  2  0  0  0
 21  7  1  0  0  0
 21 20  1  0  0  0
 25 26  1  0  0  0
  7 11  1  0  0  0
 10 11  2  0  0  0
 10  1  1  0  0  0
  3  1  2  0  0  0
  3  2  1  0  0  0
  1  6  1  0  0  0
 26 24  1  0  0  0
  2  4  2  0  0  0
  6  5  2  0  0  0
  4  5  1  0  0  0
  4 24  1  0  0  0
 20 23  1  0  0  0
 26 28  1  0  0  0
 43 44  1  0  0  0
M  END
> <minimizedAffinity>
-6.51269

$$$$
4R4C_3HS_A_201


 44 48  0  0  0  0  0  0  0  0999 V2000
    7.2329   14.0012   25.2238 C   0  0  0  0  0  0  0  0  0  0  0  0
    7.8868   11.7773   25.8634 C   0  0  0  0  0  0  0  0  0  0  0  0
    6.9410   12.7948   25.8428 C   0  0  0  0  0  0  0  0  0  0  0  0
    9.1239   11.9651   25.2580 C   0  0  0  0  0  0  0  0  0  0  0  0
    9.4184   13.1685   24.6349 C   0  0  0  0  0  0  0  0  0  0  0  0
    8.4690   14.1851   24.6102 C   0  0  0  0  0  0  0  0  0  0  0  0
    4.3451   16.2804   24.7035 C   0  0  0  0  0  0  0  0  0  0  0  0
    5.0883   16.9309   25.5855 N   0  0  0  0  0  0  0  0  0  0  0  0
    6.1678   16.2363   25.8741 N   0  0  0  0  0  0  0  0  0  0  0  0
    6.1862   15.0865   25.1992 C   0  0  0  0  0  0  0  0  0  0  0  0
    5.0087   15.0598   24.4011 C   0  0  0  0  0  0  0  0  0  0  0  0
    9.0508   17.5672   28.6043 C   0  0  0  0  0  0  0  0  0  0  0  0
    7.0325   16.3581   28.1428 C   0  0  0  0  0  0  0  0  0  0  0  0
    7.1469   16.6977   26.8040 C   0  0  0  0  0  0  0  0  0  0  0  0
    8.2143   17.4662   26.3609 C   0  0  0  0  0  0  0  0  0  0  0  0
    9.1667   17.9047   27.2620 C   0  0  0  0  0  0  0  0  0  0  0  0
   10.4947   18.8620   26.6964 Cl  0  0  0  0  0  0  0  0  0  0  0  0
   10.2303   18.1011   29.7487 Cl  0  0  0  0  0  0  0  0  0  0  0  0
    7.9856   16.7961   29.0450 C   0  0  0  0  0  0  0  0  0  0  0  0
    2.1752   15.9247   23.8015 O   0  0  0  0  0  0  0  0  0  0  0  0
    3.0549   16.7560   24.1417 C   0  0  0  0  0  0  0  0  0  0  0  0
    2.8531   17.9909   24.0209 O   0  0  0  0  0  0  0  0  0  0  0  0
    2.3368   15.0066   23.8962 H   0  0  0  0  0  0  0  0  0  0  0  0
   10.1354   10.8476   25.2863 C   0  0  0  0  0  0  0  0  0  0  0  0
   12.5399   11.2300   24.6878 C   0  0  0  0  0  0  0  0  0  0  0  0
   11.1862   10.9322   24.2960 N   0  0  0  0  0  0  0  0  0  0  0  0
   12.8087   11.4166   25.8663 O   0  0  0  0  0  0  0  0  0  0  0  0
   10.9744   10.7851   23.3459 H   0  0  0  0  0  0  0  0  0  0  0  0
   13.6119   11.2848   23.6360 C   0  0  0  0  0  0  0  0  0  0  0  0
   15.5322   10.2960   22.5741 C   0  0  0  0  0  0  0  0  0  0  0  0
   14.5402   10.2582   23.5448 C   0  0  0  0  0  0  0  0  0  0  0  0
   15.5828   11.3701   21.6984 C   0  0  0  0  0  0  0  0  0  0  0  0
   14.6577   12.3948   21.7833 C   0  0  0  0  0  0  0  0  0  0  0  0
   13.6671   12.3616   22.7488 C   0  0  0  0  0  0  0  0  0  0  0  0
   12.5352   13.6751   22.8093 Cl  0  0  0  0  0  0  0  0  0  0  0  0
   16.6168   11.4722   20.6347 C   0  0  0  0  0  0  0  0  0  0  0  0
   18.1759   11.1124   19.0532 C   0  0  0  0  0  0  0  0  0  0  0  0
   17.3061   10.4435   19.9822 C   0  0  0  0  0  0  0  0  0  0  0  0
   17.9215   12.4768   19.2384 C   0  0  0  0  0  0  0  0  0  0  0  0
   17.0143   12.6223   20.1601 O   0  0  0  0  0  0  0  0  0  0  0  0
   18.5387   13.6348   18.5390 C   0  0  0  0  0  0  0  0  0  0  0  0
   19.7327   13.9694   18.7703 O   0  0  0  0  0  0  0  0  0  0  0  0
   17.8321   14.2596   17.7084 O   0  0  0  0  0  0  0  0  0  0  0  0
   16.9473   13.9937   17.5521 H   0  0  0  0  0  0  0  0  0  0  0  0
 42 41  2  0  0  0
 43 41  1  0  0  0
 41 39  1  0  0  0
 39 37  2  0  0  0
 39 40  1  0  0  0
 37 38  1  0  0  0
 40 36  1  0  0  0
 38 36  2  0  0  0
 17 16  1  0  0  0
 36 32  1  0  0  0
 32 33  2  0  0  0
 32 30  1  0  0  0
 33 34  1  0  0  0
 16 15  2  0  0  0
 16 12  1  0  0  0
 18 12  1  0  0  0
 15 14  1  0  0  0
 30 31  2  0  0  0
 35 34  1  0  0  0
 34 29  2  0  0  0
 12 19  2  0  0  0
 31 29  1  0  0  0
 29 25  1  0  0  0
 14  9  1  0  0  0
 14 13  2  0  0  0
 22 21  2  0  0  0
  8  9  1  0  0  0
  8  7  2  0  0  0
 19 13  1  0  0  0
  9 10  1  0  0  0
 27 25  2  0  0  0
 21  7  1  0  0  0
 21 20  1  0  0  0
 25 26  1  0  0  0
  7 11  1  0  0  0
 10 11  2  0  0  0
 10  1  1  0  0  0
  3  1  2  0  0  0
  3  2  1  0  0  0
  1  6  1  0  0  0
 26 24  1  0  0  0
  2  4  2  0  0  0
  6  5  2  0  0  0
  4  5  1  0  0  0
  4 24  1  0  0  0
 20 23  1  0  0  0
 26 28  1  0  0  0
 43 44  1  0  0  0
M  END
> <minimizedAffinity>
-6.50928

$$$$
4R4C_3HS_A_201


 44 48  0  0  0  0  0  0  0  0999 V2000
    6.8496   10.6917   25.1749 C   0  0  0  0  0  0  0  0  0  0  0  0
    9.2465   10.7551   24.9914 C   0  0  0  0  0  0  0  0  0  0  0  0
    8.0048   10.4569   24.4439 C   0  0  0  0  0  0  0  0  0  0  0  0
    9.3317   11.2953   26.2693 C   0  0  0  0  0  0  0  0  0  0  0  0
    8.1789   11.5349   27.0020 C   0  0  0  0  0  0  0  0  0  0  0  0
    6.9357   11.2407   26.4513 C   0  0  0  0  0  0  0  0  0  0  0  0
    3.7813    9.2721   23.6337 C   0  0  0  0  0  0  0  0  0  0  0  0
    3.5077   10.5652   23.7160 N   0  0  0  0  0  0  0  0  0  0  0  0
    4.5198   11.2132   24.2513 N   0  0  0  0  0  0  0  0  0  0  0  0
    5.5115   10.3754   24.5556 C   0  0  0  0  0  0  0  0  0  0  0  0
    5.0856    9.0755   24.1646 C   0  0  0  0  0  0  0  0  0  0  0  0
    4.4383   15.3560   24.8575 C   0  0  0  0  0  0  0  0  0  0  0  0
    5.3462   13.4407   23.7368 C   0  0  0  0  0  0  0  0  0  0  0  0
    4.4961   12.6239   24.4654 C   0  0  0  0  0  0  0  0  0  0  0  0
    3.6121   13.1695   25.3858 C   0  0  0  0  0  0  0  0  0  0  0  0
    3.5844   14.5373   25.5851 C   0  0  0  0  0  0  0  0  0  0  0  0
    2.4758   15.2061   26.7357 Cl  0  0  0  0  0  0  0  0  0  0  0  0
    4.4198   17.0686   25.0872 Cl  0  0  0  0  0  0  0  0  0  0  0  0
    5.3186   14.8097   23.9354 C   0  0  0  0  0  0  0  0  0  0  0  0
    3.2359    7.5540   22.0850 O   0  0  0  0  0  0  0  0  0  0  0  0
    2.8774    8.2304   23.0822 C   0  0  0  0  0  0  0  0  0  0  0  0
    1.7626    8.0302   23.6275 O   0  0  0  0  0  0  0  0  0  0  0  0
    4.0691    7.7120   21.6867 H   0  0  0  0  0  0  0  0  0  0  0  0
   10.6875   11.6171   26.8445 C   0  0  0  0  0  0  0  0  0  0  0  0
   12.6111   11.9703   25.2758 C   0  0  0  0  0  0  0  0  0  0  0  0
   11.8177   11.0998   26.1047 N   0  0  0  0  0  0  0  0  0  0  0  0
   12.3299   13.1576   25.1904 O   0  0  0  0  0  0  0  0  0  0  0  0
   12.0466   10.1444   26.1684 H   0  0  0  0  0  0  0  0  0  0  0  0
   13.7940   11.4049   24.5411 C   0  0  0  0  0  0  0  0  0  0  0  0
   14.8600   10.8097   22.4669 C   0  0  0  0  0  0  0  0  0  0  0  0
   13.7711   11.3260   23.1565 C   0  0  0  0  0  0  0  0  0  0  0  0
   15.9685   10.3755   23.1781 C   0  0  0  0  0  0  0  0  0  0  0  0
   15.9974   10.4548   24.5587 C   0  0  0  0  0  0  0  0  0  0  0  0
   14.9148   10.9687   25.2504 C   0  0  0  0  0  0  0  0  0  0  0  0
   15.0063   11.0423   26.9813 Cl  0  0  0  0  0  0  0  0  0  0  0  0
   17.1686    9.8145   22.5027 C   0  0  0  0  0  0  0  0  0  0  0  0
   19.0311    8.6965   21.9175 C   0  0  0  0  0  0  0  0  0  0  0  0
   18.0801    8.8666   22.9821 C   0  0  0  0  0  0  0  0  0  0  0  0
   18.5955    9.5578   20.9030 C   0  0  0  0  0  0  0  0  0  0  0  0
   17.5186   10.1734   21.2966 O   0  0  0  0  0  0  0  0  0  0  0  0
   19.2019    9.7907   19.5654 C   0  0  0  0  0  0  0  0  0  0  0  0
   19.7400    8.8465   18.9253 O   0  0  0  0  0  0  0  0  0  0  0  0
   19.1521   10.9558   19.0966 O   0  0  0  0  0  0  0  0  0  0  0  0
   18.7475   11.6423   19.5895 H   0  0  0  0  0  0  0  0  0  0  0  0
 42 41  2  0  0  0
 43 41  1  0  0  0
 41 39  1  0  0  0
 39 37  2  0  0  0
 39 40  1  0  0  0
 37 38  1  0  0  0
 40 36  1  0  0  0
 38 36  2  0  0  0
 17 16  1  0  0  0
 36 32  1  0  0  0
 32 33  2  0  0  0
 32 30  1  0  0  0
 33 34  1  0  0  0
 16 15  2  0  0  0
 16 12  1  0  0  0
 18 12  1  0  0  0
 15 14  1  0  0  0
 30 31  2  0  0  0
 35 34  1  0  0  0
 34 29  2  0  0  0
 12 19  2  0  0  0
 31 29  1  0  0  0
 29 25  1  0  0  0
 14  9  1  0  0  0
 14 13  2  0  0  0
 22 21  2  0  0  0
  8  9  1  0  0  0
  8  7  2  0  0  0
 19 13  1  0  0  0
  9 10  1  0  0  0
 27 25  2  0  0  0
 21  7  1  0  0  0
 21 20  1  0  0  0
 25 26  1  0  0  0
  7 11  1  0  0  0
 10 11  2  0  0  0
 10  1  1  0  0  0
  3  1  2  0  0  0
  3  2  1  0  0  0
  1  6  1  0  0  0
 26 24  1  0  0  0
  2  4  2  0  0  0
  6  5  2  0  0  0
  4  5  1  0  0  0
  4 24  1  0  0  0
 20 23  1  0  0  0
 26 28  1  0  0  0
 43 44  1  0  0  0
M  END
> <minimizedAffinity>
-6.42711

$$$$
