4L4Z_D5X_A_501


 19 18  0  0  0  0  0  0  0  0999 V2000
  -35.8735   20.4730   -5.5027 C   0  0  0  0  0  0  0  0  0  0  0  0
  -36.2160   19.9106   -4.2453 O   0  0  0  0  0  0  0  0  0  0  0  0
  -35.8118   20.4344   -3.5359 H   0  0  0  0  0  0  0  0  0  0  0  0
  -34.3705   20.5002   -5.8215 C   0  0  0  0  0  0  0  0  0  0  0  0
  -33.9604   20.4705   -7.1714 O   0  0  0  0  0  0  0  0  0  0  0  0
  -33.4261   20.8435   -4.8827 O   0  0  0  0  0  0  0  0  0  0  0  0
  -34.5731   20.2415   -7.8423 H   0  0  0  0  0  0  0  0  0  0  0  0
  -33.6575   20.8751   -3.9753 H   0  0  0  0  0  0  0  0  0  0  0  0
  -34.0603   18.9651   -5.5841 C   0  0  0  0  0  0  0  0  0  0  0  0
  -34.5447   18.0353   -6.2596 O   0  0  0  0  0  0  0  0  0  0  0  0
  -33.0068   18.6004   -4.4949 C   0  0  0  0  0  0  0  0  0  0  0  0
  -36.3211   21.9090   -5.3420 C   0  0  0  0  0  0  0  0  0  0  0  0
  -37.5738   22.0701   -5.9882 O   0  0  0  0  0  0  0  0  0  0  0  0
  -39.6518   20.5346   -5.3408 O   0  0  0  0  0  0  0  0  0  0  0  0
  -38.8415   21.9325   -5.1936 P   0  0  0  0  0  0  0  0  0  0  0  0
  -38.4242   22.0854   -3.7234 O   0  0  0  0  0  0  0  0  0  0  0  0
  -39.6770   23.1251   -5.6620 O   0  0  0  0  0  0  0  0  0  0  0  0
  -39.0928   19.8031   -5.0353 H   0  0  0  0  0  0  0  0  0  0  0  0
  -39.1621   23.9407   -5.5598 H   0  0  0  0  0  0  0  0  0  0  0  0
  5  4  1  0  0  0
 12 13  1  0  0  0
 12  1  1  0  0  0
  4  1  1  0  0  0
  4  6  1  0  0  0
  4  9  1  0  0  0
 13 15  1  0  0  0
 10  9  2  0  0  0
  1  2  1  0  0  0
 16 15  2  0  0  0
  9 11  1  0  0  0
 14 15  1  0  0  0
 15 17  1  0  0  0
 14 18  1  0  0  0
 17 19  1  0  0  0
  2  3  1  0  0  0
  5  7  1  0  0  0
  6  8  1  0  0  0
M  END
> <minimizedAffinity>
-7.62335

$$$$
4L4Z_D5X_A_501


 19 18  0  0  0  0  0  0  0  0999 V2000
  -34.4755   20.6835   -5.6547 C   0  0  0  0  0  0  0  0  0  0  0  0
  -34.1852   20.6561   -7.0438 O   0  0  0  0  0  0  0  0  0  0  0  0
  -34.9784   20.3902   -7.5347 H   0  0  0  0  0  0  0  0  0  0  0  0
  -34.8993   19.3375   -5.0465 C   0  0  0  0  0  0  0  0  0  0  0  0
  -35.4628   19.3223   -3.7529 O   0  0  0  0  0  0  0  0  0  0  0  0
  -35.0269   18.1966   -5.8036 O   0  0  0  0  0  0  0  0  0  0  0  0
  -35.3979   20.0795   -3.2047 H   0  0  0  0  0  0  0  0  0  0  0  0
  -34.6669   18.1652   -6.6681 H   0  0  0  0  0  0  0  0  0  0  0  0
  -33.4756   18.8560   -4.5462 C   0  0  0  0  0  0  0  0  0  0  0  0
  -32.8947   17.8307   -4.9543 O   0  0  0  0  0  0  0  0  0  0  0  0
  -32.7108   19.7764   -3.5476 C   0  0  0  0  0  0  0  0  0  0  0  0
  -35.6800   21.5968   -5.5989 C   0  0  0  0  0  0  0  0  0  0  0  0
  -36.8550   20.8018   -5.6149 O   0  0  0  0  0  0  0  0  0  0  0  0
  -39.4804   20.4604   -5.3227 O   0  0  0  0  0  0  0  0  0  0  0  0
  -38.1755   21.4222   -5.2562 P   0  0  0  0  0  0  0  0  0  0  0  0
  -38.0207   21.9109   -3.8085 O   0  0  0  0  0  0  0  0  0  0  0  0
  -38.2849   22.5957   -6.2313 O   0  0  0  0  0  0  0  0  0  0  0  0
  -39.3760   19.7298   -4.6932 H   0  0  0  0  0  0  0  0  0  0  0  0
  -37.4897   23.1472   -6.1640 H   0  0  0  0  0  0  0  0  0  0  0  0
  5  4  1  0  0  0
 12 13  1  0  0  0
 12  1  1  0  0  0
  4  1  1  0  0  0
  4  6  1  0  0  0
  4  9  1  0  0  0
 13 15  1  0  0  0
 10  9  2  0  0  0
  1  2  1  0  0  0
 16 15  2  0  0  0
  9 11  1  0  0  0
 14 15  1  0  0  0
 15 17  1  0  0  0
 14 18  1  0  0  0
 17 19  1  0  0  0
  2  3  1  0  0  0
  5  7  1  0  0  0
  6  8  1  0  0  0
M  END
> <minimizedAffinity>
-7.41925

$$$$
4L4Z_D5X_A_501


 19 18  0  0  0  0  0  0  0  0999 V2000
  -34.3058   20.6194   -4.6586 C   0  0  0  0  0  0  0  0  0  0  0  0
  -33.4188   21.7261   -4.7159 O   0  0  0  0  0  0  0  0  0  0  0  0
  -33.8768   22.4877   -5.1047 H   0  0  0  0  0  0  0  0  0  0  0  0
  -34.8315   20.1292   -6.0167 C   0  0  0  0  0  0  0  0  0  0  0  0
  -36.2025   19.8206   -6.1448 O   0  0  0  0  0  0  0  0  0  0  0  0
  -34.1021   20.2543   -7.1758 O   0  0  0  0  0  0  0  0  0  0  0  0
  -36.7351   19.7266   -5.3796 H   0  0  0  0  0  0  0  0  0  0  0  0
  -33.1885   20.4586   -7.1347 H   0  0  0  0  0  0  0  0  0  0  0  0
  -34.3936   18.6117   -5.8954 C   0  0  0  0  0  0  0  0  0  0  0  0
  -34.7825   17.7029   -6.6557 O   0  0  0  0  0  0  0  0  0  0  0  0
  -33.3332   18.2496   -4.8121 C   0  0  0  0  0  0  0  0  0  0  0  0
  -35.4848   21.1947   -3.9055 C   0  0  0  0  0  0  0  0  0  0  0  0
  -35.9145   22.3746   -4.5659 O   0  0  0  0  0  0  0  0  0  0  0  0
  -38.3455   21.8793   -3.5965 O   0  0  0  0  0  0  0  0  0  0  0  0
  -37.3759   22.7228   -4.5868 P   0  0  0  0  0  0  0  0  0  0  0  0
  -37.4524   24.2013   -4.1782 O   0  0  0  0  0  0  0  0  0  0  0  0
  -37.7585   22.5305   -6.0553 O   0  0  0  0  0  0  0  0  0  0  0  0
  -38.0740   22.0250   -2.6768 H   0  0  0  0  0  0  0  0  0  0  0  0
  -37.1594   23.0479   -6.6159 H   0  0  0  0  0  0  0  0  0  0  0  0
  5  4  1  0  0  0
 12 13  1  0  0  0
 12  1  1  0  0  0
  4  1  1  0  0  0
  4  6  1  0  0  0
  4  9  1  0  0  0
 13 15  1  0  0  0
 10  9  2  0  0  0
  1  2  1  0  0  0
 16 15  2  0  0  0
  9 11  1  0  0  0
 14 15  1  0  0  0
 15 17  1  0  0  0
 14 18  1  0  0  0
 17 19  1  0  0  0
  2  3  1  0  0  0
  5  7  1  0  0  0
  6  8  1  0  0  0
M  END
> <minimizedAffinity>
-7.29704

$$$$
4L4Z_D5X_A_501


 19 18  0  0  0  0  0  0  0  0999 V2000
  -36.3269   22.0949   -5.1813 C   0  0  0  0  0  0  0  0  0  0  0  0
  -36.0363   23.3873   -4.6715 O   0  0  0  0  0  0  0  0  0  0  0  0
  -35.9157   23.3362   -3.7104 H   0  0  0  0  0  0  0  0  0  0  0  0
  -37.6142   21.4516   -4.6426 C   0  0  0  0  0  0  0  0  0  0  0  0
  -38.1125   20.2929   -5.2754 O   0  0  0  0  0  0  0  0  0  0  0  0
  -38.1366   21.7722   -3.4115 O   0  0  0  0  0  0  0  0  0  0  0  0
  -37.7832   20.0392   -6.1151 H   0  0  0  0  0  0  0  0  0  0  0  0
  -37.8330   22.5337   -2.9577 H   0  0  0  0  0  0  0  0  0  0  0  0
  -38.6594   22.4123   -5.3454 C   0  0  0  0  0  0  0  0  0  0  0  0
  -38.8427   22.4739   -6.5774 O   0  0  0  0  0  0  0  0  0  0  0  0
  -39.5851   23.2679   -4.4288 C   0  0  0  0  0  0  0  0  0  0  0  0
  -35.1671   21.2774   -4.6573 C   0  0  0  0  0  0  0  0  0  0  0  0
  -35.3877   19.9141   -4.9823 O   0  0  0  0  0  0  0  0  0  0  0  0
  -34.0873   20.3929   -7.2571 O   0  0  0  0  0  0  0  0  0  0  0  0
  -34.7892   19.3444   -6.2371 P   0  0  0  0  0  0  0  0  0  0  0  0
  -33.7165   18.3508   -5.7669 O   0  0  0  0  0  0  0  0  0  0  0  0
  -35.9696   18.6221   -6.8889 O   0  0  0  0  0  0  0  0  0  0  0  0
  -33.3455   20.8307   -6.8109 H   0  0  0  0  0  0  0  0  0  0  0  0
  -36.3631   18.0056   -6.2518 H   0  0  0  0  0  0  0  0  0  0  0  0
  5  4  1  0  0  0
 12 13  1  0  0  0
 12  1  1  0  0  0
  4  1  1  0  0  0
  4  6  1  0  0  0
  4  9  1  0  0  0
 13 15  1  0  0  0
 10  9  2  0  0  0
  1  2  1  0  0  0
 16 15  2  0  0  0
  9 11  1  0  0  0
 14 15  1  0  0  0
 15 17  1  0  0  0
 14 18  1  0  0  0
 17 19  1  0  0  0
  2  3  1  0  0  0
  5  7  1  0  0  0
  6  8  1  0  0  0
M  END
> <minimizedAffinity>
-7.08483

$$$$
4L4Z_D5X_A_501


 19 18  0  0  0  0  0  0  0  0999 V2000
  -37.1179   21.0343   -5.0696 C   0  0  0  0  0  0  0  0  0  0  0  0
  -38.0514   19.9908   -5.3028 O   0  0  0  0  0  0  0  0  0  0  0  0
  -38.2128   19.9083   -6.2557 H   0  0  0  0  0  0  0  0  0  0  0  0
  -37.5662   22.4303   -5.5295 C   0  0  0  0  0  0  0  0  0  0  0  0
  -36.7998   23.5517   -5.1470 O   0  0  0  0  0  0  0  0  0  0  0  0
  -38.4971   22.6123   -6.5253 O   0  0  0  0  0  0  0  0  0  0  0  0
  -36.1547   23.4703   -4.4724 H   0  0  0  0  0  0  0  0  0  0  0  0
  -39.0266   21.8931   -6.8088 H   0  0  0  0  0  0  0  0  0  0  0  0
  -38.6792   22.6846   -4.4314 C   0  0  0  0  0  0  0  0  0  0  0  0
  -38.5879   22.3286   -3.2396 O   0  0  0  0  0  0  0  0  0  0  0  0
  -39.9287   23.5179   -4.8479 C   0  0  0  0  0  0  0  0  0  0  0  0
  -35.9575   20.6263   -5.9500 C   0  0  0  0  0  0  0  0  0  0  0  0
  -35.2050   19.6290   -5.2776 O   0  0  0  0  0  0  0  0  0  0  0  0
  -32.7843   18.5183   -5.2431 O   0  0  0  0  0  0  0  0  0  0  0  0
  -34.1627   18.8521   -6.0309 P   0  0  0  0  0  0  0  0  0  0  0  0
  -34.8309   17.5198   -6.4017 O   0  0  0  0  0  0  0  0  0  0  0  0
  -33.9141   19.7140   -7.2699 O   0  0  0  0  0  0  0  0  0  0  0  0
  -32.9802   17.9720   -4.4658 H   0  0  0  0  0  0  0  0  0  0  0  0
  -34.7578   19.8928   -7.7139 H   0  0  0  0  0  0  0  0  0  0  0  0
  5  4  1  0  0  0
 12 13  1  0  0  0
 12  1  1  0  0  0
  4  1  1  0  0  0
  4  6  1  0  0  0
  4  9  1  0  0  0
 13 15  1  0  0  0
 10  9  2  0  0  0
  1  2  1  0  0  0
 16 15  2  0  0  0
  9 11  1  0  0  0
 14 15  1  0  0  0
 15 17  1  0  0  0
 14 18  1  0  0  0
 17 19  1  0  0  0
  2  3  1  0  0  0
  5  7  1  0  0  0
  6  8  1  0  0  0
M  END
> <minimizedAffinity>
-7.07366

$$$$
4L4Z_D5X_A_501


 19 18  0  0  0  0  0  0  0  0999 V2000
  -37.0822   21.1325   -5.6978 C   0  0  0  0  0  0  0  0  0  0  0  0
  -36.5406   22.4036   -6.0231 O   0  0  0  0  0  0  0  0  0  0  0  0
  -36.3134   22.8766   -5.2073 H   0  0  0  0  0  0  0  0  0  0  0  0
  -38.3766   21.1633   -4.8704 C   0  0  0  0  0  0  0  0  0  0  0  0
  -39.4355   20.3030   -5.2307 O   0  0  0  0  0  0  0  0  0  0  0  0
  -38.4459   21.7666   -3.6365 O   0  0  0  0  0  0  0  0  0  0  0  0
  -39.4266   19.8721   -6.0627 H   0  0  0  0  0  0  0  0  0  0  0  0
  -37.7632   22.3452   -3.3588 H   0  0  0  0  0  0  0  0  0  0  0  0
  -39.0432   22.4354   -5.5388 C   0  0  0  0  0  0  0  0  0  0  0  0
  -39.1279   22.6224   -6.7689 O   0  0  0  0  0  0  0  0  0  0  0  0
  -39.7212   23.4755   -4.5967 C   0  0  0  0  0  0  0  0  0  0  0  0
  -36.0036   20.5428   -4.8164 C   0  0  0  0  0  0  0  0  0  0  0  0
  -35.5549   21.5429   -3.9156 O   0  0  0  0  0  0  0  0  0  0  0  0
  -33.5548   23.1179   -3.1320 O   0  0  0  0  0  0  0  0  0  0  0  0
  -34.0887   21.6623   -3.6101 P   0  0  0  0  0  0  0  0  0  0  0  0
  -33.8225   20.6636   -2.4740 O   0  0  0  0  0  0  0  0  0  0  0  0
  -33.4241   21.2136   -4.9127 O   0  0  0  0  0  0  0  0  0  0  0  0
  -33.9966   23.3689   -2.3058 H   0  0  0  0  0  0  0  0  0  0  0  0
  -33.7665   20.3424   -5.1670 H   0  0  0  0  0  0  0  0  0  0  0  0
  5  4  1  0  0  0
 12 13  1  0  0  0
 12  1  1  0  0  0
  4  1  1  0  0  0
  4  6  1  0  0  0
  4  9  1  0  0  0
 13 15  1  0  0  0
 10  9  2  0  0  0
  1  2  1  0  0  0
 16 15  2  0  0  0
  9 11  1  0  0  0
 14 15  1  0  0  0
 15 17  1  0  0  0
 14 18  1  0  0  0
 17 19  1  0  0  0
  2  3  1  0  0  0
  5  7  1  0  0  0
  6  8  1  0  0  0
M  END
> <minimizedAffinity>
-6.94053

$$$$
4L4Z_D5X_A_501


 19 18  0  0  0  0  0  0  0  0999 V2000
  -35.3280   21.7309   -4.2232 C   0  0  0  0  0  0  0  0  0  0  0  0
  -35.6864   23.0602   -3.8780 O   0  0  0  0  0  0  0  0  0  0  0  0
  -35.4791   23.6533   -4.6171 H   0  0  0  0  0  0  0  0  0  0  0  0
  -33.8362   21.5093   -4.5175 C   0  0  0  0  0  0  0  0  0  0  0  0
  -33.4702   20.5915   -5.5250 O   0  0  0  0  0  0  0  0  0  0  0  0
  -32.8616   22.3641   -4.0585 O   0  0  0  0  0  0  0  0  0  0  0  0
  -34.1045   19.9916   -5.8652 H   0  0  0  0  0  0  0  0  0  0  0  0
  -33.0633   22.9889   -3.3900 H   0  0  0  0  0  0  0  0  0  0  0  0
  -33.5192   20.5012   -3.3374 C   0  0  0  0  0  0  0  0  0  0  0  0
  -33.9949   20.5896   -2.1880 O   0  0  0  0  0  0  0  0  0  0  0  0
  -32.6281   19.2646   -3.6627 C   0  0  0  0  0  0  0  0  0  0  0  0
  -36.0739   21.5271   -5.5232 C   0  0  0  0  0  0  0  0  0  0  0  0
  -37.2183   20.7274   -5.2706 O   0  0  0  0  0  0  0  0  0  0  0  0
  -39.8501   20.3699   -5.4719 O   0  0  0  0  0  0  0  0  0  0  0  0
  -38.5808   21.3605   -5.2721 P   0  0  0  0  0  0  0  0  0  0  0  0
  -38.7207   22.0390   -3.9014 O   0  0  0  0  0  0  0  0  0  0  0  0
  -38.4837   22.3926   -6.3968 O   0  0  0  0  0  0  0  0  0  0  0  0
  -39.8796   19.7311   -4.7425 H   0  0  0  0  0  0  0  0  0  0  0  0
  -37.7159   22.9655   -6.2445 H   0  0  0  0  0  0  0  0  0  0  0  0
  5  4  1  0  0  0
 12 13  1  0  0  0
 12  1  1  0  0  0
  4  1  1  0  0  0
  4  6  1  0  0  0
  4  9  1  0  0  0
 13 15  1  0  0  0
 10  9  2  0  0  0
  1  2  1  0  0  0
 16 15  2  0  0  0
  9 11  1  0  0  0
 14 15  1  0  0  0
 15 17  1  0  0  0
 14 18  1  0  0  0
 17 19  1  0  0  0
  2  3  1  0  0  0
  5  7  1  0  0  0
  6  8  1  0  0  0
M  END
> <minimizedAffinity>
-6.79473

$$$$
4L4Z_D5X_A_501


 19 18  0  0  0  0  0  0  0  0999 V2000
  -38.3809   21.8510   -5.5795 C   0  0  0  0  0  0  0  0  0  0  0  0
  -38.2642   22.6187   -6.7677 O   0  0  0  0  0  0  0  0  0  0  0  0
  -37.3546   22.9442   -6.8544 H   0  0  0  0  0  0  0  0  0  0  0  0
  -38.0946   22.6126   -4.2760 C   0  0  0  0  0  0  0  0  0  0  0  0
  -38.4216   22.0035   -3.0458 O   0  0  0  0  0  0  0  0  0  0  0  0
  -37.2779   23.7183   -4.2350 O   0  0  0  0  0  0  0  0  0  0  0  0
  -38.9754   21.2478   -3.0298 H   0  0  0  0  0  0  0  0  0  0  0  0
  -37.0368   24.1524   -5.0296 H   0  0  0  0  0  0  0  0  0  0  0  0
  -39.3736   23.5471   -4.2733 C   0  0  0  0  0  0  0  0  0  0  0  0
  -40.4386   23.2861   -4.8674 O   0  0  0  0  0  0  0  0  0  0  0  0
  -39.3284   24.8320   -3.3922 C   0  0  0  0  0  0  0  0  0  0  0  0
  -37.2783   20.8297   -5.7505 C   0  0  0  0  0  0  0  0  0  0  0  0
  -36.0662   21.5114   -6.0314 O   0  0  0  0  0  0  0  0  0  0  0  0
  -33.7148   21.7330   -4.7999 O   0  0  0  0  0  0  0  0  0  0  0  0
  -34.7543   20.8629   -5.6913 P   0  0  0  0  0  0  0  0  0  0  0  0
  -35.1141   19.5976   -4.8987 O   0  0  0  0  0  0  0  0  0  0  0  0
  -34.1727   20.5143   -7.0624 O   0  0  0  0  0  0  0  0  0  0  0  0
  -34.1163   21.9349   -3.9403 H   0  0  0  0  0  0  0  0  0  0  0  0
  -34.8198   19.9957   -7.5658 H   0  0  0  0  0  0  0  0  0  0  0  0
  5  4  1  0  0  0
 12 13  1  0  0  0
 12  1  1  0  0  0
  4  1  1  0  0  0
  4  6  1  0  0  0
  4  9  1  0  0  0
 13 15  1  0  0  0
 10  9  2  0  0  0
  1  2  1  0  0  0
 16 15  2  0  0  0
  9 11  1  0  0  0
 14 15  1  0  0  0
 15 17  1  0  0  0
 14 18  1  0  0  0
 17 19  1  0  0  0
  2  3  1  0  0  0
  5  7  1  0  0  0
  6  8  1  0  0  0
M  END
> <minimizedAffinity>
-6.78479

$$$$
4L4Z_D5X_A_501


 19 18  0  0  0  0  0  0  0  0999 V2000
  -36.5959   21.1098   -5.1509 C   0  0  0  0  0  0  0  0  0  0  0  0
  -37.3469   19.9546   -5.4919 O   0  0  0  0  0  0  0  0  0  0  0  0
  -37.4799   19.9273   -6.4524 H   0  0  0  0  0  0  0  0  0  0  0  0
  -37.2556   22.4504   -5.5094 C   0  0  0  0  0  0  0  0  0  0  0  0
  -36.6425   23.6469   -5.0807 O   0  0  0  0  0  0  0  0  0  0  0  0
  -38.2405   22.5530   -6.4636 O   0  0  0  0  0  0  0  0  0  0  0  0
  -35.9670   23.6209   -4.4319 H   0  0  0  0  0  0  0  0  0  0  0  0
  -38.6728   21.7824   -6.7755 H   0  0  0  0  0  0  0  0  0  0  0  0
  -38.3504   22.4780   -4.3648 C   0  0  0  0  0  0  0  0  0  0  0  0
  -38.2449   21.8829   -3.2739 O   0  0  0  0  0  0  0  0  0  0  0  0
  -39.5990   23.3856   -4.5803 C   0  0  0  0  0  0  0  0  0  0  0  0
  -35.3731   20.9656   -6.0296 C   0  0  0  0  0  0  0  0  0  0  0  0
  -34.2511   21.4900   -5.3374 O   0  0  0  0  0  0  0  0  0  0  0  0
  -32.0781   20.4805   -4.1740 O   0  0  0  0  0  0  0  0  0  0  0  0
  -33.6804   20.7355   -4.1703 P   0  0  0  0  0  0  0  0  0  0  0  0
  -34.0235   21.5745   -2.9304 O   0  0  0  0  0  0  0  0  0  0  0  0
  -34.4643   19.4221   -4.1881 O   0  0  0  0  0  0  0  0  0  0  0  0
  -31.6150   21.3327   -4.1624 H   0  0  0  0  0  0  0  0  0  0  0  0
  -35.4153   19.6131   -4.1853 H   0  0  0  0  0  0  0  0  0  0  0  0
  5  4  1  0  0  0
 12 13  1  0  0  0
 12  1  1  0  0  0
  4  1  1  0  0  0
  4  6  1  0  0  0
  4  9  1  0  0  0
 13 15  1  0  0  0
 10  9  2  0  0  0
  1  2  1  0  0  0
 16 15  2  0  0  0
  9 11  1  0  0  0
 14 15  1  0  0  0
 15 17  1  0  0  0
 14 18  1  0  0  0
 17 19  1  0  0  0
  2  3  1  0  0  0
  5  7  1  0  0  0
  6  8  1  0  0  0
M  END
> <minimizedAffinity>
-6.67645

$$$$
4L4Z_D5X_A_501


 19 18  0  0  0  0  0  0  0  0999 V2000
  -36.9645   23.4890   -4.8896 C   0  0  0  0  0  0  0  0  0  0  0  0
  -36.4676   24.6897   -4.3185 O   0  0  0  0  0  0  0  0  0  0  0  0
  -36.3157   24.5577   -3.3696 H   0  0  0  0  0  0  0  0  0  0  0  0
  -38.3081   23.0014   -4.3255 C   0  0  0  0  0  0  0  0  0  0  0  0
  -38.3183   21.8899   -3.4562 O   0  0  0  0  0  0  0  0  0  0  0  0
  -39.4519   23.7621   -4.3902 O   0  0  0  0  0  0  0  0  0  0  0  0
  -37.5591   21.3457   -3.3826 H   0  0  0  0  0  0  0  0  0  0  0  0
  -39.4866   24.5089   -4.9551 H   0  0  0  0  0  0  0  0  0  0  0  0
  -38.7879   22.1588   -5.5782 C   0  0  0  0  0  0  0  0  0  0  0  0
  -38.9861   22.6348   -6.7138 O   0  0  0  0  0  0  0  0  0  0  0  0
  -38.9303   20.6170   -5.4009 C   0  0  0  0  0  0  0  0  0  0  0  0
  -35.9152   22.4812   -4.4755 C   0  0  0  0  0  0  0  0  0  0  0  0
  -35.3686   21.8880   -5.6427 O   0  0  0  0  0  0  0  0  0  0  0  0
  -33.1487   20.9401   -4.5163 O   0  0  0  0  0  0  0  0  0  0  0  0
  -34.4137   20.7354   -5.5114 P   0  0  0  0  0  0  0  0  0  0  0  0
  -35.2524   19.5651   -4.9768 O   0  0  0  0  0  0  0  0  0  0  0  0
  -33.9674   20.4874   -6.9533 O   0  0  0  0  0  0  0  0  0  0  0  0
  -33.4690   21.0944   -3.6138 H   0  0  0  0  0  0  0  0  0  0  0  0
  -34.7475   20.3700   -7.5176 H   0  0  0  0  0  0  0  0  0  0  0  0
  5  4  1  0  0  0
 12 13  1  0  0  0
 12  1  1  0  0  0
  4  1  1  0  0  0
  4  6  1  0  0  0
  4  9  1  0  0  0
 13 15  1  0  0  0
 10  9  2  0  0  0
  1  2  1  0  0  0
 16 15  2  0  0  0
  9 11  1  0  0  0
 14 15  1  0  0  0
 15 17  1  0  0  0
 14 18  1  0  0  0
 17 19  1  0  0  0
  2  3  1  0  0  0
  5  7  1  0  0  0
  6  8  1  0  0  0
M  END
> <minimizedAffinity>
-6.62717

$$$$
