1ZDP_TIO_E_1006


 20 20  0  0  0  0  0  0  0  0999 V2000
   34.1566   41.6408   -7.2111 C   0  0  0  0  0  0  0  0  0  0  0  0
   35.5574   41.8951   -6.5390 C   0  0  0  0  0  0  0  0  0  0  0  0
   36.5996   42.3553   -7.1233 O   0  0  0  0  0  0  0  0  0  0  0  0
   35.5427   41.5732   -5.2474 N   0  0  0  0  0  0  0  0  0  0  0  0
   34.6792   41.2734   -4.8817 H   0  0  0  0  0  0  0  0  0  0  0  0
   36.6824   41.6154   -4.2958 C   0  0  0  0  0  0  0  0  0  0  0  0
   36.1450   42.3469   -3.0166 C   0  0  0  0  0  0  0  0  0  0  0  0
   36.6980   43.4283   -2.6167 O   0  0  0  0  0  0  0  0  0  0  0  0
   35.1636   41.8663   -2.3680 O   0  0  0  0  0  0  0  0  0  0  0  0
   34.7544   41.0742   -2.6562 H   0  0  0  0  0  0  0  0  0  0  0  0
   33.9111   43.0085   -9.5719 S   0  0  0  0  0  0  0  0  0  0  0  0
   33.3552   42.7948   -7.8393 C   0  0  0  0  0  0  0  0  0  0  0  0
   33.2157   44.0249  -10.1490 H   0  0  0  0  0  0  0  0  0  0  0  0
   34.3045   40.7961   -8.4316 C   0  0  0  0  0  0  0  0  0  0  0  0
   33.4032   39.6600   -8.1417 C   0  0  0  0  0  0  0  0  0  0  0  0
   33.5915   38.9412   -6.9558 C   0  0  0  0  0  0  0  0  0  0  0  0
   32.4097   39.3552   -9.0713 C   0  0  0  0  0  0  0  0  0  0  0  0
   32.7517   37.8721   -6.6580 C   0  0  0  0  0  0  0  0  0  0  0  0
   31.5848   38.2672   -8.7869 C   0  0  0  0  0  0  0  0  0  0  0  0
   31.7471   37.5686   -7.5835 C   0  0  0  0  0  0  0  0  0  0  0  0
 11 12  1  0  0  0
 12  1  1  0  0  0
  1  2  1  0  0  0
  1 14  1  0  0  0
  2  3  2  0  0  0
  2  4  1  0  0  0
 14 15  1  0  0  0
 15 16  2  0  0  0
 15 17  1  0  0  0
 16 18  1  0  0  0
 17 19  2  0  0  0
 18 20  2  0  0  0
 19 20  1  0  0  0
  4  6  1  0  0  0
  6  7  1  0  0  0
  7  8  2  0  0  0
  7  9  1  0  0  0
 11 13  1  0  0  0
  4  5  1  0  0  0
  9 10  1  0  0  0
M  END
> <minimizedAffinity>
-6.37185

$$$$
1ZDP_TIO_E_1006


 20 20  0  0  0  0  0  0  0  0999 V2000
   36.9949   41.9457   -3.7167 C   0  0  0  0  0  0  0  0  0  0  0  0
   35.9987   42.0678   -4.9297 C   0  0  0  0  0  0  0  0  0  0  0  0
   35.5952   43.1588   -5.4647 O   0  0  0  0  0  0  0  0  0  0  0  0
   35.6082   40.8703   -5.3607 N   0  0  0  0  0  0  0  0  0  0  0  0
   36.0126   40.0919   -4.9137 H   0  0  0  0  0  0  0  0  0  0  0  0
   34.6310   40.5764   -6.4401 C   0  0  0  0  0  0  0  0  0  0  0  0
   35.3090   41.0519   -7.7722 C   0  0  0  0  0  0  0  0  0  0  0  0
   36.1031   40.2717   -8.4012 O   0  0  0  0  0  0  0  0  0  0  0  0
   35.0788   42.2151   -8.2290 O   0  0  0  0  0  0  0  0  0  0  0  0
   34.4978   42.7913   -7.7725 H   0  0  0  0  0  0  0  0  0  0  0  0
   38.6488   39.7657   -3.5879 S   0  0  0  0  0  0  0  0  0  0  0  0
   38.4677   41.5556   -3.9340 C   0  0  0  0  0  0  0  0  0  0  0  0
   39.9446   39.3969   -3.7736 H   0  0  0  0  0  0  0  0  0  0  0  0
   37.2193   43.2779   -3.0843 C   0  0  0  0  0  0  0  0  0  0  0  0
   37.3816   42.9277   -1.6567 C   0  0  0  0  0  0  0  0  0  0  0  0
   36.5760   41.9177   -1.1189 C   0  0  0  0  0  0  0  0  0  0  0  0
   38.3292   43.6284   -0.9115 C   0  0  0  0  0  0  0  0  0  0  0  0
   36.7150   41.5660    0.2203 C   0  0  0  0  0  0  0  0  0  0  0  0
   38.4505   43.2954    0.4373 C   0  0  0  0  0  0  0  0  0  0  0  0
   37.6714   42.2600    0.9698 C   0  0  0  0  0  0  0  0  0  0  0  0
 11 12  1  0  0  0
 12  1  1  0  0  0
  1  2  1  0  0  0
  1 14  1  0  0  0
  2  3  2  0  0  0
  2  4  1  0  0  0
 14 15  1  0  0  0
 15 16  2  0  0  0
 15 17  1  0  0  0
 16 18  1  0  0  0
 17 19  2  0  0  0
 18 20  2  0  0  0
 19 20  1  0  0  0
  4  6  1  0  0  0
  6  7  1  0  0  0
  7  8  2  0  0  0
  7  9  1  0  0  0
 11 13  1  0  0  0
  4  5  1  0  0  0
  9 10  1  0  0  0
M  END
> <minimizedAffinity>
-6.36209

$$$$
1ZDP_TIO_E_1006


 20 20  0  0  0  0  0  0  0  0999 V2000
   38.2254   40.0376   -3.8335 C   0  0  0  0  0  0  0  0  0  0  0  0
   37.2813   39.7516   -5.0606 C   0  0  0  0  0  0  0  0  0  0  0  0
   37.3141   38.7132   -5.8089 O   0  0  0  0  0  0  0  0  0  0  0  0
   36.4079   40.7396   -5.2428 N   0  0  0  0  0  0  0  0  0  0  0  0
   36.4325   41.4714   -4.5847 H   0  0  0  0  0  0  0  0  0  0  0  0
   35.4002   40.8622   -6.3273 C   0  0  0  0  0  0  0  0  0  0  0  0
   34.9491   42.3644   -6.3243 C   0  0  0  0  0  0  0  0  0  0  0  0
   35.6042   43.2291   -5.6473 O   0  0  0  0  0  0  0  0  0  0  0  0
   33.9283   42.7286   -6.9877 O   0  0  0  0  0  0  0  0  0  0  0  0
   33.4443   42.0995   -7.4857 H   0  0  0  0  0  0  0  0  0  0  0  0
   39.8437   38.0143   -2.9440 S   0  0  0  0  0  0  0  0  0  0  0  0
   39.7013   39.6015   -3.8477 C   0  0  0  0  0  0  0  0  0  0  0  0
   41.1416   37.6081   -2.9431 H   0  0  0  0  0  0  0  0  0  0  0  0
   38.4390   41.5043   -3.6651 C   0  0  0  0  0  0  0  0  0  0  0  0
   37.9955   41.7311   -2.2726 C   0  0  0  0  0  0  0  0  0  0  0  0
   37.4261   40.6642   -1.5687 C   0  0  0  0  0  0  0  0  0  0  0  0
   38.1613   43.0044   -1.7290 C   0  0  0  0  0  0  0  0  0  0  0  0
   37.0071   40.8515   -0.2549 C   0  0  0  0  0  0  0  0  0  0  0  0
   37.7172   43.2006   -0.4217 C   0  0  0  0  0  0  0  0  0  0  0  0
   37.1803   42.1252    0.2980 C   0  0  0  0  0  0  0  0  0  0  0  0
 11 12  1  0  0  0
 12  1  1  0  0  0
  1  2  1  0  0  0
  1 14  1  0  0  0
  2  3  2  0  0  0
  2  4  1  0  0  0
 14 15  1  0  0  0
 15 16  2  0  0  0
 15 17  1  0  0  0
 16 18  1  0  0  0
 17 19  2  0  0  0
 18 20  2  0  0  0
 19 20  1  0  0  0
  4  6  1  0  0  0
  6  7  1  0  0  0
  7  8  2  0  0  0
  7  9  1  0  0  0
 11 13  1  0  0  0
  4  5  1  0  0  0
  9 10  1  0  0  0
M  END
> <minimizedAffinity>
-6.00135

$$$$
1ZDP_TIO_E_1006


 20 20  0  0  0  0  0  0  0  0999 V2000
   35.3523   40.4142   -7.1717 C   0  0  0  0  0  0  0  0  0  0  0  0
   36.2652   41.3885   -6.3372 C   0  0  0  0  0  0  0  0  0  0  0  0
   36.6641   42.5473   -6.7076 O   0  0  0  0  0  0  0  0  0  0  0  0
   36.5876   40.8620   -5.1578 N   0  0  0  0  0  0  0  0  0  0  0  0
   36.1914   39.9856   -4.9476 H   0  0  0  0  0  0  0  0  0  0  0  0
   37.4779   41.4480   -4.1233 C   0  0  0  0  0  0  0  0  0  0  0  0
   36.5294   42.1533   -3.0922 C   0  0  0  0  0  0  0  0  0  0  0  0
   37.0109   42.9657   -2.2300 O   0  0  0  0  0  0  0  0  0  0  0  0
   35.2810   41.9166   -3.1034 O   0  0  0  0  0  0  0  0  0  0  0  0
   34.9225   41.3222   -3.7328 H   0  0  0  0  0  0  0  0  0  0  0  0
   35.6906   37.8624   -8.1086 S   0  0  0  0  0  0  0  0  0  0  0  0
   35.1473   38.9515   -6.7393 C   0  0  0  0  0  0  0  0  0  0  0  0
   35.5186   36.5621   -7.7491 H   0  0  0  0  0  0  0  0  0  0  0  0
   33.9277   40.8531   -7.1177 C   0  0  0  0  0  0  0  0  0  0  0  0
   33.7542   41.5275   -8.4224 C   0  0  0  0  0  0  0  0  0  0  0  0
   33.6738   40.7414   -9.5773 C   0  0  0  0  0  0  0  0  0  0  0  0
   33.6856   42.9200   -8.4387 C   0  0  0  0  0  0  0  0  0  0  0  0
   33.5040   41.3528  -10.8159 C   0  0  0  0  0  0  0  0  0  0  0  0
   33.5426   43.5352   -9.6821 C   0  0  0  0  0  0  0  0  0  0  0  0
   33.4250   42.7497  -10.8361 C   0  0  0  0  0  0  0  0  0  0  0  0
 11 12  1  0  0  0
 12  1  1  0  0  0
  1  2  1  0  0  0
  1 14  1  0  0  0
  2  3  2  0  0  0
  2  4  1  0  0  0
 14 15  1  0  0  0
 15 16  2  0  0  0
 15 17  1  0  0  0
 16 18  1  0  0  0
 17 19  2  0  0  0
 18 20  2  0  0  0
 19 20  1  0  0  0
  4  6  1  0  0  0
  6  7  1  0  0  0
  7  8  2  0  0  0
  7  9  1  0  0  0
 11 13  1  0  0  0
  4  5  1  0  0  0
  9 10  1  0  0  0
M  END
> <minimizedAffinity>
-5.67278

$$$$
1ZDP_TIO_E_1006


 20 20  0  0  0  0  0  0  0  0999 V2000
   38.1870   41.9046   -2.6664 C   0  0  0  0  0  0  0  0  0  0  0  0
   37.7616   42.4007   -4.0988 C   0  0  0  0  0  0  0  0  0  0  0  0
   38.5261   42.9645   -4.9573 O   0  0  0  0  0  0  0  0  0  0  0  0
   36.4740   42.1586   -4.3347 N   0  0  0  0  0  0  0  0  0  0  0  0
   35.9836   41.6775   -3.6296 H   0  0  0  0  0  0  0  0  0  0  0  0
   35.6940   42.5326   -5.5422 C   0  0  0  0  0  0  0  0  0  0  0  0
   35.5397   41.2140   -6.3774 C   0  0  0  0  0  0  0  0  0  0  0  0
   36.0168   41.1459   -7.5618 O   0  0  0  0  0  0  0  0  0  0  0  0
   34.9350   40.2105   -5.8854 O   0  0  0  0  0  0  0  0  0  0  0  0
   34.5833   40.2545   -5.0180 H   0  0  0  0  0  0  0  0  0  0  0  0
   36.3942   42.4726   -0.6745 S   0  0  0  0  0  0  0  0  0  0  0  0
   38.0278   42.8100   -1.4320 C   0  0  0  0  0  0  0  0  0  0  0  0
   36.2303   43.2625    0.4204 H   0  0  0  0  0  0  0  0  0  0  0  0
   37.3149   40.7803   -2.2188 C   0  0  0  0  0  0  0  0  0  0  0  0
   38.2605   39.6440   -2.1751 C   0  0  0  0  0  0  0  0  0  0  0  0
   38.0689   38.6498   -1.2091 C   0  0  0  0  0  0  0  0  0  0  0  0
   39.3050   39.6221   -3.0986 C   0  0  0  0  0  0  0  0  0  0  0  0
   38.9418   37.5674   -1.1525 C   0  0  0  0  0  0  0  0  0  0  0  0
   40.1961   38.5518   -3.0254 C   0  0  0  0  0  0  0  0  0  0  0  0
   39.9860   37.5363   -2.0835 C   0  0  0  0  0  0  0  0  0  0  0  0
 11 12  1  0  0  0
 12  1  1  0  0  0
  1  2  1  0  0  0
  1 14  1  0  0  0
  2  3  2  0  0  0
  2  4  1  0  0  0
 14 15  1  0  0  0
 15 16  2  0  0  0
 15 17  1  0  0  0
 16 18  1  0  0  0
 17 19  2  0  0  0
 18 20  2  0  0  0
 19 20  1  0  0  0
  4  6  1  0  0  0
  6  7  1  0  0  0
  7  8  2  0  0  0
  7  9  1  0  0  0
 11 13  1  0  0  0
  4  5  1  0  0  0
  9 10  1  0  0  0
M  END
> <minimizedAffinity>
-5.64829

$$$$
1ZDP_TIO_E_1006


 20 20  0  0  0  0  0  0  0  0999 V2000
   37.9564   41.8093   -3.7589 C   0  0  0  0  0  0  0  0  0  0  0  0
   38.3195   40.2932   -3.9788 C   0  0  0  0  0  0  0  0  0  0  0  0
   37.8711   39.5401   -4.9122 O   0  0  0  0  0  0  0  0  0  0  0  0
   39.1791   39.8606   -3.0589 N   0  0  0  0  0  0  0  0  0  0  0  0
   39.5008   40.5300   -2.4127 H   0  0  0  0  0  0  0  0  0  0  0  0
   39.7074   38.4818   -2.8979 C   0  0  0  0  0  0  0  0  0  0  0  0
   41.2413   38.5718   -3.2130 C   0  0  0  0  0  0  0  0  0  0  0  0
   41.6645   39.3742   -4.1142 O   0  0  0  0  0  0  0  0  0  0  0  0
   42.0695   37.8444   -2.5807 O   0  0  0  0  0  0  0  0  0  0  0  0
   41.7653   37.2545   -1.9193 H   0  0  0  0  0  0  0  0  0  0  0  0
   35.8522   42.3407   -5.4304 S   0  0  0  0  0  0  0  0  0  0  0  0
   37.5780   42.7158   -4.9436 C   0  0  0  0  0  0  0  0  0  0  0  0
   35.4946   43.1311   -6.4778 H   0  0  0  0  0  0  0  0  0  0  0  0
   36.6911   41.9393   -2.9796 C   0  0  0  0  0  0  0  0  0  0  0  0
   37.1847   42.2909   -1.6306 C   0  0  0  0  0  0  0  0  0  0  0  0
   36.7947   41.4966   -0.5465 C   0  0  0  0  0  0  0  0  0  0  0  0
   38.0129   43.4055   -1.5034 C   0  0  0  0  0  0  0  0  0  0  0  0
   37.2515   41.8038    0.7317 C   0  0  0  0  0  0  0  0  0  0  0  0
   38.4495   43.7301   -0.2193 C   0  0  0  0  0  0  0  0  0  0  0  0
   38.0907   42.9158    0.8628 C   0  0  0  0  0  0  0  0  0  0  0  0
 11 12  1  0  0  0
 12  1  1  0  0  0
  1  2  1  0  0  0
  1 14  1  0  0  0
  2  3  2  0  0  0
  2  4  1  0  0  0
 14 15  1  0  0  0
 15 16  2  0  0  0
 15 17  1  0  0  0
 16 18  1  0  0  0
 17 19  2  0  0  0
 18 20  2  0  0  0
 19 20  1  0  0  0
  4  6  1  0  0  0
  6  7  1  0  0  0
  7  8  2  0  0  0
  7  9  1  0  0  0
 11 13  1  0  0  0
  4  5  1  0  0  0
  9 10  1  0  0  0
M  END
> <minimizedAffinity>
-5.51698

$$$$
1ZDP_TIO_E_1006


 20 20  0  0  0  0  0  0  0  0999 V2000
   37.2777   41.4317   -4.1596 C   0  0  0  0  0  0  0  0  0  0  0  0
   38.3634   40.4267   -3.6213 C   0  0  0  0  0  0  0  0  0  0  0  0
   39.5853   40.7076   -3.3615 O   0  0  0  0  0  0  0  0  0  0  0  0
   37.8566   39.2072   -3.4537 N   0  0  0  0  0  0  0  0  0  0  0  0
   36.8946   39.1051   -3.6360 H   0  0  0  0  0  0  0  0  0  0  0  0
   38.5793   37.9832   -3.0224 C   0  0  0  0  0  0  0  0  0  0  0  0
   37.9878   37.6093   -1.6186 C   0  0  0  0  0  0  0  0  0  0  0  0
   38.3751   36.5466   -1.0223 O   0  0  0  0  0  0  0  0  0  0  0  0
   37.1173   38.3553   -1.0704 O   0  0  0  0  0  0  0  0  0  0  0  0
   36.8296   39.1353   -1.5026 H   0  0  0  0  0  0  0  0  0  0  0  0
   35.5120   42.5812   -5.9104 S   0  0  0  0  0  0  0  0  0  0  0  0
   36.3794   41.0663   -5.3546 C   0  0  0  0  0  0  0  0  0  0  0  0
   34.7106   42.2826   -6.9679 H   0  0  0  0  0  0  0  0  0  0  0  0
   36.2052   41.6408   -3.1441 C   0  0  0  0  0  0  0  0  0  0  0  0
   36.8965   42.4466   -2.1146 C   0  0  0  0  0  0  0  0  0  0  0  0
   37.0320   41.9151   -0.8272 C   0  0  0  0  0  0  0  0  0  0  0  0
   37.3759   43.7049   -2.4769 C   0  0  0  0  0  0  0  0  0  0  0  0
   37.6844   42.6518    0.1568 C   0  0  0  0  0  0  0  0  0  0  0  0
   38.0061   44.4553   -1.4846 C   0  0  0  0  0  0  0  0  0  0  0  0
   38.1756   43.9112   -0.2048 C   0  0  0  0  0  0  0  0  0  0  0  0
 11 12  1  0  0  0
 12  1  1  0  0  0
  1  2  1  0  0  0
  1 14  1  0  0  0
  2  3  2  0  0  0
  2  4  1  0  0  0
 14 15  1  0  0  0
 15 16  2  0  0  0
 15 17  1  0  0  0
 16 18  1  0  0  0
 17 19  2  0  0  0
 18 20  2  0  0  0
 19 20  1  0  0  0
  4  6  1  0  0  0
  6  7  1  0  0  0
  7  8  2  0  0  0
  7  9  1  0  0  0
 11 13  1  0  0  0
  4  5  1  0  0  0
  9 10  1  0  0  0
M  END
> <minimizedAffinity>
-5.51191

$$$$
1ZDP_TIO_E_1006


 20 20  0  0  0  0  0  0  0  0999 V2000
   38.5845   39.3522   -3.3996 C   0  0  0  0  0  0  0  0  0  0  0  0
   38.3246   40.7145   -2.6544 C   0  0  0  0  0  0  0  0  0  0  0  0
   38.8781   41.8370   -2.9243 O   0  0  0  0  0  0  0  0  0  0  0  0
   37.4302   40.5721   -1.6787 N   0  0  0  0  0  0  0  0  0  0  0  0
   37.0273   39.6790   -1.5824 H   0  0  0  0  0  0  0  0  0  0  0  0
   36.9718   41.6090   -0.7190 C   0  0  0  0  0  0  0  0  0  0  0  0
   35.8363   42.4017   -1.4556 C   0  0  0  0  0  0  0  0  0  0  0  0
   35.9059   43.6744   -1.5582 O   0  0  0  0  0  0  0  0  0  0  0  0
   34.8397   41.7856   -1.9475 O   0  0  0  0  0  0  0  0  0  0  0  0
   34.7832   40.8531   -1.8754 H   0  0  0  0  0  0  0  0  0  0  0  0
   38.6502   37.4702   -5.3890 S   0  0  0  0  0  0  0  0  0  0  0  0
   38.1164   39.1377   -4.8499 C   0  0  0  0  0  0  0  0  0  0  0  0
   38.2471   37.2573   -6.6703 H   0  0  0  0  0  0  0  0  0  0  0  0
   40.0454   39.1408   -3.6146 C   0  0  0  0  0  0  0  0  0  0  0  0
   40.3544   38.0615   -2.6520 C   0  0  0  0  0  0  0  0  0  0  0  0
   39.4027   37.7400   -1.6778 C   0  0  0  0  0  0  0  0  0  0  0  0
   41.5871   37.4185   -2.7586 C   0  0  0  0  0  0  0  0  0  0  0  0
   39.6680   36.7235   -0.7650 C   0  0  0  0  0  0  0  0  0  0  0  0
   41.8652   36.4182   -1.8276 C   0  0  0  0  0  0  0  0  0  0  0  0
   40.9000   36.0690   -0.8742 C   0  0  0  0  0  0  0  0  0  0  0  0
 11 12  1  0  0  0
 12  1  1  0  0  0
  1  2  1  0  0  0
  1 14  1  0  0  0
  2  3  2  0  0  0
  2  4  1  0  0  0
 14 15  1  0  0  0
 15 16  2  0  0  0
 15 17  1  0  0  0
 16 18  1  0  0  0
 17 19  2  0  0  0
 18 20  2  0  0  0
 19 20  1  0  0  0
  4  6  1  0  0  0
  6  7  1  0  0  0
  7  8  2  0  0  0
  7  9  1  0  0  0
 11 13  1  0  0  0
  4  5  1  0  0  0
  9 10  1  0  0  0
M  END
> <minimizedAffinity>
-5.41174

$$$$
1ZDP_TIO_E_1006


 20 20  0  0  0  0  0  0  0  0999 V2000
   39.0442   39.0504   -3.0366 C   0  0  0  0  0  0  0  0  0  0  0  0
   38.2803   40.4106   -2.8239 C   0  0  0  0  0  0  0  0  0  0  0  0
   37.6064   40.7404   -1.7865 O   0  0  0  0  0  0  0  0  0  0  0  0
   38.4180   41.2152   -3.8754 N   0  0  0  0  0  0  0  0  0  0  0  0
   38.9955   40.8886   -4.6028 H   0  0  0  0  0  0  0  0  0  0  0  0
   37.7985   42.5505   -4.0747 C   0  0  0  0  0  0  0  0  0  0  0  0
   36.5400   42.3075   -4.9788 C   0  0  0  0  0  0  0  0  0  0  0  0
   36.6138   42.4893   -6.2424 O   0  0  0  0  0  0  0  0  0  0  0  0
   35.4406   41.9362   -4.4609 O   0  0  0  0  0  0  0  0  0  0  0  0
   35.3805   41.8014   -3.5356 H   0  0  0  0  0  0  0  0  0  0  0  0
   39.2082   37.0806   -1.1400 S   0  0  0  0  0  0  0  0  0  0  0  0
   38.3957   37.7070   -2.6579 C   0  0  0  0  0  0  0  0  0  0  0  0
   38.6508   35.8919   -0.7851 H   0  0  0  0  0  0  0  0  0  0  0  0
   39.2498   38.7845   -4.4899 C   0  0  0  0  0  0  0  0  0  0  0  0
   40.6677   38.3669   -4.5381 C   0  0  0  0  0  0  0  0  0  0  0  0
   41.5588   38.9129   -3.6075 C   0  0  0  0  0  0  0  0  0  0  0  0
   41.0502   37.4505   -5.5169 C   0  0  0  0  0  0  0  0  0  0  0  0
   42.8967   38.5304   -3.6289 C   0  0  0  0  0  0  0  0  0  0  0  0
   42.3960   37.0869   -5.5565 C   0  0  0  0  0  0  0  0  0  0  0  0
   43.2832   37.6036   -4.6034 C   0  0  0  0  0  0  0  0  0  0  0  0
 11 12  1  0  0  0
 12  1  1  0  0  0
  1  2  1  0  0  0
  1 14  1  0  0  0
  2  3  2  0  0  0
  2  4  1  0  0  0
 14 15  1  0  0  0
 15 16  2  0  0  0
 15 17  1  0  0  0
 16 18  1  0  0  0
 17 19  2  0  0  0
 18 20  2  0  0  0
 19 20  1  0  0  0
  4  6  1  0  0  0
  6  7  1  0  0  0
  7  8  2  0  0  0
  7  9  1  0  0  0
 11 13  1  0  0  0
  4  5  1  0  0  0
  9 10  1  0  0  0
M  END
> <minimizedAffinity>
-5.30911

$$$$
1ZDP_TIO_E_1006


 20 20  0  0  0  0  0  0  0  0999 V2000
   33.2387   40.5396   -8.9545 C   0  0  0  0  0  0  0  0  0  0  0  0
   34.6073   40.6599   -8.1856 C   0  0  0  0  0  0  0  0  0  0  0  0
   35.7725   40.6378   -8.7160 O   0  0  0  0  0  0  0  0  0  0  0  0
   34.4184   40.7971   -6.8750 N   0  0  0  0  0  0  0  0  0  0  0  0
   33.4833   40.8506   -6.5717 H   0  0  0  0  0  0  0  0  0  0  0  0
   35.4596   40.8787   -5.8188 C   0  0  0  0  0  0  0  0  0  0  0  0
   35.9701   42.3617   -5.8347 C   0  0  0  0  0  0  0  0  0  0  0  0
   37.2148   42.6128   -5.6839 O   0  0  0  0  0  0  0  0  0  0  0  0
   35.1504   43.3202   -5.9904 O   0  0  0  0  0  0  0  0  0  0  0  0
   34.2372   43.1424   -6.1013 H   0  0  0  0  0  0  0  0  0  0  0  0
   33.1027   43.2750   -9.0076 S   0  0  0  0  0  0  0  0  0  0  0  0
   32.7200   41.6877   -9.8384 C   0  0  0  0  0  0  0  0  0  0  0  0
   32.6529   44.3065   -9.7714 H   0  0  0  0  0  0  0  0  0  0  0  0
   33.3163   39.4823  -10.0039 C   0  0  0  0  0  0  0  0  0  0  0  0
   32.9258   38.2664   -9.2581 C   0  0  0  0  0  0  0  0  0  0  0  0
   31.7321   38.2828   -8.5280 C   0  0  0  0  0  0  0  0  0  0  0  0
   33.7732   37.1604   -9.3138 C   0  0  0  0  0  0  0  0  0  0  0  0
   31.3403   37.1484   -7.8234 C   0  0  0  0  0  0  0  0  0  0  0  0
   33.3951   36.0323   -8.5863 C   0  0  0  0  0  0  0  0  0  0  0  0
   32.1828   36.0329   -7.8842 C   0  0  0  0  0  0  0  0  0  0  0  0
 11 12  1  0  0  0
 12  1  1  0  0  0
  1  2  1  0  0  0
  1 14  1  0  0  0
  2  3  2  0  0  0
  2  4  1  0  0  0
 14 15  1  0  0  0
 15 16  2  0  0  0
 15 17  1  0  0  0
 16 18  1  0  0  0
 17 19  2  0  0  0
 18 20  2  0  0  0
 19 20  1  0  0  0
  4  6  1  0  0  0
  6  7  1  0  0  0
  7  8  2  0  0  0
  7  9  1  0  0  0
 11 13  1  0  0  0
  4  5  1  0  0  0
  9 10  1  0  0  0
M  END
> <minimizedAffinity>
-5.28685

$$$$
