2WR8_SAH_A_1257
  RCSB PDB12061707183D
Coordinates from PDB:2WR8:A:1257 Model:1 without hydrogens
 26 28  0  0  0  0            999 V2000
   17.5030  -42.0960    7.0680   N 0  0  0  0  0  0  0  0  0  0  0  0
   17.6730  -43.1640    6.0600   C 0  0  0  0  0  0  0  0  0  0  0  0
   16.2790  -43.6400    5.5350   C 0  0  0  0  0  0  0  0  0  0  0  0
   16.2900  -45.0380    4.9190   C 0  0  0  0  0  0  0  0  0  0  0  0
   14.5580  -45.5190    4.4340   S 0  0  0  0  0  0  0  0  0  0  0  0
   18.4890  -42.6760    4.8770   C 0  0  0  0  0  0  0  0  0  0  0  0
   18.5710  -41.4450    4.6540   O 0  0  0  0  0  0  0  0  0  0  0  0
   19.0410  -43.5620    4.1930   O 0  0  0  0  0  0  0  0  0  0  0  0
   14.7660  -47.3070    4.1410   C 0  0  0  0  0  0  0  0  0  0  0  0
   14.4190  -48.2510    5.2610   C 0  0  0  0  0  0  0  0  0  0  0  0
   15.1730  -47.8750    6.4330   O 0  0  0  0  0  0  0  0  0  0  0  0
   12.9500  -48.1050    5.6990   C 0  0  0  0  0  0  0  0  0  0  0  0
   12.1320  -49.0510    5.0200   O 0  0  0  0  0  0  0  0  0  0  0  0
   13.0220  -48.3300    7.2320   C 0  0  0  0  0  0  0  0  0  0  0  0
   12.2760  -49.5020    7.5920   O 0  0  0  0  0  0  0  0  0  0  0  0
   14.5370  -48.4890    7.5430   C 0  0  0  0  0  0  0  0  0  0  0  0
   14.8580  -47.6200    8.7120   N 0  0  0  0  0  0  0  0  0  0  0  0
   14.8210  -46.2610    8.7530   C 0  0  0  0  0  0  0  0  0  0  0  0
   15.1720  -45.8330    9.9880   N 0  0  0  0  0  0  0  0  0  0  0  0
   15.4500  -46.9320   10.7120   C 0  0  0  0  0  0  0  0  0  0  0  0
   15.8610  -47.0980   12.0410   C 0  0  0  0  0  0  0  0  0  0  0  0
   16.0190  -46.0270   12.8760   N 0  0  0  0  0  0  0  0  0  0  0  0
   16.0820  -48.3500   12.4820   N 0  0  0  0  0  0  0  0  0  0  0  0
   15.9060  -49.4190   11.6790   C 0  0  0  0  0  0  0  0  0  0  0  0
   15.5380  -49.3080   10.3860   N 0  0  0  0  0  0  0  0  0  0  0  0
   15.2810  -48.0540    9.8940   C 0  0  0  0  0  0  0  0  0  0  0  0
  1  2  1  0  0  0  0
  2  3  1  0  0  0  0
  2  6  1  0  0  0  0
  3  4  1  0  0  0  0
  4  5  1  0  0  0  0
  5  9  1  0  0  0  0
  6  7  2  0  0  0  0
  6  8  1  0  0  0  0
  9 10  1  0  0  0  0
 10 11  1  0  0  0  0
 10 12  1  0  0  0  0
 11 16  1  0  0  0  0
 12 13  1  0  0  0  0
 12 14  1  0  0  0  0
 14 15  1  0  0  0  0
 14 16  1  0  0  0  0
 16 17  1  0  0  0  0
 17 18  1  0  0  0  0
 17 26  1  0  0  0  0
 18 19  2  0  0  0  0
 19 20  1  0  0  0  0
 20 21  1  0  0  0  0
 20 26  2  0  0  0  0
 21 22  1  0  0  0  0
 21 23  2  0  0  0  0
 23 24  1  0  0  0  0
 24 25  2  0  0  0  0
 25 26  1  0  0  0  0
A    1
N
A    2
CA
A    3
CB
A    4
CG
A    5
SD
A    6
C
A    7
O
A    8
OXT
A    9
C5'
A   10
C4'
A   11
O4'
A   12
C3'
A   13
O3'
A   14
C2'
A   15
O2'
A   16
C1'
A   17
N9
A   18
C8
A   19
N7
A   20
C5
A   21
C6
A   22
N6
A   23
N1
A   24
C2
A   25
N3
A   26
C4
M  END
>  <InstanceId>
2WR8_SAH_A_1257

>  <ChemCompId>
SAH

>  <PdbId>
2WR8

>  <ChainId>
A

>  <ResidueNumber>
1257

>  <InsertionCode>


>  <Model>
1

>  <AltIds>


>  <MissingHeavyAtoms>
0

>  <ObservedFormula>
C14 N6 O5 S

>  <Name>
S-ADENOSYL-L-HOMOCYSTEINE

>  <SystematicName>
(2S)-2-amino-4-[[(2S,3S,4R,5R)-5-(6-aminopurin-9-yl)-3,4-dihydroxy-oxolan-2-yl]methylsulfanyl]butanoic acid

>  <Synonyms>


>  <Type>
L-PEPTIDE LINKING

>  <Formula>
C14 H20 N6 O5 S

>  <MolecularWeight>
384.411

>  <ModifiedDate>
2011-06-04

>  <Parent>
CYS

>  <OneLetterCode>
C

>  <SubcomponentList>


>  <AmbiguousFlag>
N

>  <InChI>
InChI=1S/C14H20N6O5S/c15-6(14(23)24)1-2-26-3-7-9(21)10(22)13(25-7)20-5-19-8-11(16)17-4-18-12(8)20/h4-7,9-10,13,21-22H,1-3,15H2,(H,23,24)(H2,16,17,18)/t6-,7+,9+,10+,13+/m0/s1

>  <InChIKey>
ZJUKTBDSGOFHSH-WFMPWKQPSA-N

>  <SMILES>
c1nc(c2c(n1)n(cn2)[C@H]3[C@@H]([C@@H]([C@H](O3)CSCC[C@@H](C(=O)O)N)O)O)N

$$$$
