4LRR_CF9_A_309
  RCSB PDB12061713373D
Coordinates from PDB:4LRR:A:309 Model:1 without hydrogens
 25 28  0  0  0  0            999 V2000
    6.1310   11.6720  -40.2010   O 0  5  0  0  0  0  0  0  0  0  0  0
    6.4150   12.8770  -40.3100   N 0  3  0  0  0  0  0  0  0  0  0  0
    7.5230   13.3000  -39.9420   O 0  0  0  0  0  0  0  0  0  0  0  0
    5.4270   13.7290  -40.8610   C 0  0  0  0  0  0  0  0  0  0  0  0
    4.1020   13.4080  -40.5970   C 0  0  0  0  0  0  0  0  0  0  0  0
    3.1030   14.1170  -41.2410   C 0  0  0  0  0  0  0  0  0  0  0  0
    5.7750   14.7820  -41.7030   C 0  0  0  0  0  0  0  0  0  0  0  0
    4.7790   15.4950  -42.3450   C 0  0  0  0  0  0  0  0  0  0  0  0
    3.4540   15.1500  -42.1010   C 0  0  0  0  0  0  0  0  0  0  0  0
    2.3500   15.8830  -42.7640   C 0  0  0  0  0  0  0  0  0  0  0  0
    2.5830   16.6240  -43.7040   O 0  0  0  0  0  0  0  0  0  0  0  0
    1.0100   15.6610  -42.2350   O 0  0  0  0  0  0  0  0  0  0  0  0
    0.9340   15.2580  -40.9300   C 0  0  0  0  0  0  0  0  0  0  0  0
    1.1240   16.1900  -39.9240   C 0  0  0  0  0  0  0  0  0  0  0  0
    1.3670   17.5510  -40.0960   C 0  0  0  0  0  0  0  0  0  0  0  0
    1.5340   18.3720  -38.9750   C 0  0  0  0  0  0  0  0  0  0  0  0
    1.4660   17.8500  -37.6820   C 0  0  0  0  0  0  0  0  0  0  0  0
    1.2230   16.4810  -37.5380   C 0  0  0  0  0  0  0  0  0  0  0  0
    0.7020   13.9130  -40.6060   C 0  0  0  0  0  0  0  0  0  0  0  0
    0.6290   13.4560  -39.2890   C 0  0  0  0  0  0  0  0  0  0  0  0
    0.8250   14.4110  -38.3270   C 0  0  0  0  0  0  0  0  0  0  0  0
    1.0610   15.7130  -38.6570   C 0  0  0  0  0  0  0  0  0  0  0  0
    0.8290   14.3170  -36.9120   O 0  0  0  0  0  0  0  0  0  0  0  0
    1.0720   15.5990  -36.4620   C 0  0  0  0  0  0  0  0  0  0  0  0
    1.1520   15.9000  -35.2870   O 0  0  0  0  0  0  0  0  0  0  0  0
 11 10  2  0  0  0  0
 10 12  1  0  0  0  0
 10  9  1  0  0  0  0
  8  9  2  0  0  0  0
  8  7  1  0  0  0  0
 12 13  1  0  0  0  0
  9  6  1  0  0  0  0
  7  4  2  0  0  0  0
  6  5  2  0  0  0  0
 13 19  2  0  0  0  0
 13 14  1  0  0  0  0
  4  5  1  0  0  0  0
  4  2  1  0  0  0  0
 19 20  1  0  0  0  0
  2  1  1  0  0  0  0
  2  3  2  0  0  0  0
 15 14  2  0  0  0  0
 15 16  1  0  0  0  0
 14 22  1  0  0  0  0
 20 21  2  0  0  0  0
 16 17  2  0  0  0  0
 22 21  1  0  0  0  0
 22 18  2  0  0  0  0
 21 23  1  0  0  0  0
 17 18  1  0  0  0  0
 18 24  1  0  0  0  0
 23 24  1  0  0  0  0
 24 25  2  0  0  0  0
M  CHG  2   1  -1   2   1
A    1
O50
A    2
N48
A    3
O52
A    4
C41
A    5
C39
A    6
C37
A    7
C43
A    8
C45
A    9
C35
A   10
C31
A   11
O33
A   12
O29
A   13
C13
A   14
C3
A   15
C4
A   16
C5
A   17
C6
A   18
C1
A   19
C14
A   20
C15
A   21
C16
A   22
C2
A   23
O24
A   24
C22
A   25
O27
M  END
>  <InstanceId>
4LRR_CF9_A_309

>  <ChemCompId>
CF9

>  <PdbId>
4LRR

>  <ChainId>
A

>  <ResidueNumber>
309

>  <InsertionCode>


>  <Model>
1

>  <AltIds>


>  <MissingHeavyAtoms>
0

>  <ObservedFormula>
C18 N O6

>  <Name>
2-oxo-2H-naphtho[1,8-bc]furan-6-yl 4-nitrobenzoate

>  <SystematicName>


>  <Synonyms>


>  <Type>
NON-POLYMER

>  <Formula>
C18 H9 N O6

>  <MolecularWeight>
335.267

>  <ModifiedDate>
2013-11-01

>  <Parent>


>  <OneLetterCode>


>  <SubcomponentList>


>  <AmbiguousFlag>
N

>  <InChI>
InChI=1S/C18H9NO6/c20-17(10-4-6-11(7-5-10)19(22)23)24-14-8-9-15-16-12(14)2-1-3-13(16)18(21)25-15/h1-9H

>  <InChIKey>
JZRRRFGHBXIXDI-UHFFFAOYSA-N

>  <SMILES>
c1cc2c(ccc3c2c(c1)C(=O)O3)OC(=O)c4ccc(cc4)[N+](=O)[O-]

$$$$
