3BXF_FBP_A_401
  RCSB PDB12061708053D
Coordinates from PDB:3BXF:A:401 Model:1 without hydrogens
 20 20  0  0  0  0            999 V2000
   11.4180    1.0530    0.8330   P 0  0  0  0  0  0  0  0  0  0  0  0
   11.1050    2.3340    1.5890   O 0  0  0  0  0  0  0  0  0  0  0  0
   10.1900    0.5190    0.1150   O 0  0  0  0  0  0  0  0  0  0  0  0
   12.4970    1.3050   -0.2120   O 0  0  0  0  0  0  0  0  0  0  0  0
   11.9820   -0.0070    1.9090   O 0  0  0  0  0  0  0  0  0  0  0  0
   11.1930   -0.2390    3.0500   C 0  0  0  0  0  0  0  0  0  0  0  0
   11.9920   -0.7500    4.2460   C 0  0  0  0  0  0  0  0  0  0  0  0
   11.0670   -1.0680    5.3130   O 0  0  0  0  0  0  0  0  0  0  0  0
   13.0410    0.1990    4.7890   C 0  0  0  0  0  0  0  0  0  0  0  0
   12.5050    1.2580    5.5360   O 0  0  0  0  0  0  0  0  0  0  0  0
   13.8780   -0.7220    5.6480   C 0  0  0  0  0  0  0  0  0  0  0  0
   15.1980   -0.2420    5.6830   O 0  0  0  0  0  0  0  0  0  0  0  0
   13.8560   -1.9600    4.7690   C 0  0  0  0  0  0  0  0  0  0  0  0
   12.6880   -1.9320    3.9530   O 0  0  0  0  0  0  0  0  0  0  0  0
   13.9990   -3.2710    5.4920   C 0  0  0  0  0  0  0  0  0  0  0  0
   13.9910   -4.2620    4.4890   O 0  0  0  0  0  0  0  0  0  0  0  0
   14.2760   -5.7830    4.8420   P 0  0  0  0  0  0  0  0  0  0  0  0
   15.6710   -5.9070    5.4140   O 0  0  0  0  0  0  0  0  0  0  0  0
   14.0920   -6.5640    3.5590   O 0  0  0  0  0  0  0  0  0  0  0  0
   13.2400   -6.1520    5.8600   O 0  0  0  0  0  0  0  0  0  0  0  0
  1  2  2  0  0  0  0
  1  3  1  0  0  0  0
  1  4  1  0  0  0  0
  1  5  1  0  0  0  0
  5  6  1  0  0  0  0
  6  7  1  0  0  0  0
  7  8  1  0  0  0  0
  7  9  1  0  0  0  0
  7 14  1  0  0  0  0
  9 10  1  0  0  0  0
  9 11  1  0  0  0  0
 11 12  1  0  0  0  0
 11 13  1  0  0  0  0
 13 14  1  0  0  0  0
 13 15  1  0  0  0  0
 15 16  1  0  0  0  0
 16 17  1  0  0  0  0
 17 18  2  0  0  0  0
 17 19  1  0  0  0  0
 17 20  1  0  0  0  0
A    1
P1
A    2
O1P
A    3
O2P
A    4
O3P
A    5
O1
A    6
C1
A    7
C2
A    8
O2
A    9
C3
A   10
O3
A   11
C4
A   12
O4
A   13
C5
A   14
O5
A   15
C6
A   16
O6
A   17
P2
A   18
O4P
A   19
O5P
A   20
O6P
M  END
>  <InstanceId>
3BXF_FBP_A_401

>  <ChemCompId>
FBP

>  <PdbId>
3BXF

>  <ChainId>
A

>  <ResidueNumber>
401

>  <InsertionCode>


>  <Model>
1

>  <AltIds>


>  <MissingHeavyAtoms>
0

>  <ObservedFormula>
C6 O12 P2

>  <Name>
BETA-FRUCTOSE-1,6-DIPHOSPHATE

>  <SystematicName>
[(2R,3S,4S,5R)-2,3,4-trihydroxy-5-(phosphonooxymethyl)oxolan-2-yl]methyl dihydrogen phosphate

>  <Synonyms>
FRUCTOSE-1,6-BISPHOSPHATE

>  <Type>
SACCHARIDE

>  <Formula>
C6 H14 O12 P2

>  <MolecularWeight>
340.116

>  <ModifiedDate>
2011-06-04

>  <Parent>


>  <OneLetterCode>


>  <SubcomponentList>


>  <AmbiguousFlag>
N

>  <InChI>
InChI=1S/C6H14O12P2/c7-4-3(1-16-19(10,11)12)18-6(9,5(4)8)2-17-20(13,14)15/h3-5,7-9H,1-2H2,(H2,10,11,12)(H2,13,14,15)/t3-,4-,5+,6-/m1/s1

>  <InChIKey>
RNBGYGVWRKECFJ-ARQDHWQXSA-N

>  <SMILES>
C([C@@H]1[C@H]([C@@H]([C@](O1)(COP(=O)(O)O)O)O)O)OP(=O)(O)O

$$$$
