3HCM_S45_A_94


 19 21  0  0  0  0  0  0  0  0999 V2000
   -1.6907    8.0915   33.8502 C   0  0  0  0  0  0  0  0  0  0  0  0
   -1.3761    9.4154   33.7370 N   0  0  0  0  0  0  0  0  0  0  0  0
   -0.5200    9.7701   34.7081 C   0  0  0  0  0  0  0  0  0  0  0  0
   -0.2761    8.6635   35.4663 O   0  0  0  0  0  0  0  0  0  0  0  0
   -1.0324    7.5618   34.9244 N   0  0  0  0  0  0  0  0  0  0  0  0
   -5.5856    5.3156   30.0451 Cl  0  0  0  0  0  0  0  0  0  0  0  0
   -4.4223    6.1221   31.1527 C   0  0  0  0  0  0  0  0  0  0  0  0
   -4.4427    5.8434   32.5240 C   0  0  0  0  0  0  0  0  0  0  0  0
   -3.5454    6.4837   33.3836 C   0  0  0  0  0  0  0  0  0  0  0  0
   -2.6243    7.4083   32.8955 C   0  0  0  0  0  0  0  0  0  0  0  0
   -2.5999    7.6937   31.5327 C   0  0  0  0  0  0  0  0  0  0  0  0
   -3.4911    7.0465   30.6660 C   0  0  0  0  0  0  0  0  0  0  0  0
    0.1287   11.0658   35.0495 C   0  0  0  0  0  0  0  0  0  0  0  0
   -0.7978   11.8334   36.0128 C   0  0  0  0  0  0  0  0  0  0  0  0
   -1.9239   12.6280   35.3235 C   0  0  0  0  0  0  0  0  0  0  0  0
   -1.3576   13.5897   34.2707 C   0  0  0  0  0  0  0  0  0  0  0  0
    0.0423   13.2867   33.9799 N   0  0  0  0  0  0  0  0  0  0  0  0
    0.4586   11.8994   33.8052 C   0  0  0  0  0  0  0  0  0  0  0  0
    0.5935   13.6666   34.7494 H   0  0  0  0  0  0  0  0  0  0  0  0
  6  7  1  0  0  0
  7  8  2  0  0  0
  7 12  1  0  0  0
  8  9  1  0  0  0
  9 10  2  0  0  0
 10 11  1  0  0  0
 10  1  1  0  0  0
 11 12  2  0  0  0
  1  2  1  0  0  0
  1  5  2  0  0  0
  2  3  2  0  0  0
  3  4  1  0  0  0
  3 13  1  0  0  0
  4  5  1  0  0  0
 13 14  1  0  0  0
 13 18  1  0  0  0
 14 15  1  0  0  0
 15 16  1  0  0  0
 16 17  1  0  0  0
 17 18  1  0  0  0
 17 19  1  0  0  0
M  END
> <minimizedAffinity>
-5.23776

$$$$
3HCM_S45_A_94


 19 21  0  0  0  0  0  0  0  0999 V2000
   -5.5551    5.0077   29.9072 C   0  0  0  0  0  0  0  0  0  0  0  0
   -6.9095    5.1599   29.8237 N   0  0  0  0  0  0  0  0  0  0  0  0
   -7.4019    4.3764   28.8513 C   0  0  0  0  0  0  0  0  0  0  0  0
   -6.3541    3.7075   28.2913 O   0  0  0  0  0  0  0  0  0  0  0  0
   -5.1433    4.1083   28.9641 N   0  0  0  0  0  0  0  0  0  0  0  0
   -2.1701    7.9423   34.0647 Cl  0  0  0  0  0  0  0  0  0  0  0  0
   -3.1758    7.0995   32.8363 C   0  0  0  0  0  0  0  0  0  0  0  0
   -4.0747    6.0996   33.2242 C   0  0  0  0  0  0  0  0  0  0  0  0
   -4.8446    5.4370   32.2639 C   0  0  0  0  0  0  0  0  0  0  0  0
   -4.7284    5.7539   30.9119 C   0  0  0  0  0  0  0  0  0  0  0  0
   -3.8335    6.7455   30.5174 C   0  0  0  0  0  0  0  0  0  0  0  0
   -3.0671    7.4190   31.4782 C   0  0  0  0  0  0  0  0  0  0  0  0
   -8.7833    4.1605   28.3401 C   0  0  0  0  0  0  0  0  0  0  0  0
   -9.4111    2.9876   29.1183 C   0  0  0  0  0  0  0  0  0  0  0  0
   -9.0408    1.5908   28.5829 C   0  0  0  0  0  0  0  0  0  0  0  0
   -9.3767    1.4634   27.0913 C   0  0  0  0  0  0  0  0  0  0  0  0
   -9.6644    2.7701   26.5031 N   0  0  0  0  0  0  0  0  0  0  0  0
   -8.8136    3.9100   26.8274 C   0  0  0  0  0  0  0  0  0  0  0  0
  -10.6128    3.0190   26.7843 H   0  0  0  0  0  0  0  0  0  0  0  0
  6  7  1  0  0  0
  7  8  2  0  0  0
  7 12  1  0  0  0
  8  9  1  0  0  0
  9 10  2  0  0  0
 10 11  1  0  0  0
 10  1  1  0  0  0
 11 12  2  0  0  0
  1  2  1  0  0  0
  1  5  2  0  0  0
  2  3  2  0  0  0
  3  4  1  0  0  0
  3 13  1  0  0  0
  4  5  1  0  0  0
 13 14  1  0  0  0
 13 18  1  0  0  0
 14 15  1  0  0  0
 15 16  1  0  0  0
 16 17  1  0  0  0
 17 18  1  0  0  0
 17 19  1  0  0  0
M  END
> <minimizedAffinity>
-4.96939

$$$$
3HCM_S45_A_94


 19 21  0  0  0  0  0  0  0  0999 V2000
   -1.6412    9.4872   30.9573 C   0  0  0  0  0  0  0  0  0  0  0  0
   -1.4656   10.6773   31.6033 N   0  0  0  0  0  0  0  0  0  0  0  0
   -0.7221   11.5042   30.8513 C   0  0  0  0  0  0  0  0  0  0  0  0
   -0.4062   10.8430   29.7016 O   0  0  0  0  0  0  0  0  0  0  0  0
   -0.9935    9.5271   29.7544 N   0  0  0  0  0  0  0  0  0  0  0  0
   -4.9063    4.9835   33.4892 Cl  0  0  0  0  0  0  0  0  0  0  0  0
   -3.9361    6.2925   32.7302 C   0  0  0  0  0  0  0  0  0  0  0  0
   -3.0212    7.0270   33.4929 C   0  0  0  0  0  0  0  0  0  0  0  0
   -2.2791    8.0535   32.9016 C   0  0  0  0  0  0  0  0  0  0  0  0
   -2.4391    8.3655   31.5530 C   0  0  0  0  0  0  0  0  0  0  0  0
   -3.3502    7.6415   30.7881 C   0  0  0  0  0  0  0  0  0  0  0  0
   -4.0889    6.6050   31.3747 C   0  0  0  0  0  0  0  0  0  0  0  0
   -0.2335   12.8931   31.0712 C   0  0  0  0  0  0  0  0  0  0  0  0
    1.1877   12.8197   31.6631 C   0  0  0  0  0  0  0  0  0  0  0  0
    1.2374   12.6066   33.1885 C   0  0  0  0  0  0  0  0  0  0  0  0
    0.4234   13.6794   33.9236 C   0  0  0  0  0  0  0  0  0  0  0  0
   -0.4249   14.4244   32.9954 N   0  0  0  0  0  0  0  0  0  0  0  0
   -1.1734   13.7076   31.9686 C   0  0  0  0  0  0  0  0  0  0  0  0
    0.1783   15.0898   32.5119 H   0  0  0  0  0  0  0  0  0  0  0  0
  6  7  1  0  0  0
  7  8  2  0  0  0
  7 12  1  0  0  0
  8  9  1  0  0  0
  9 10  2  0  0  0
 10 11  1  0  0  0
 10  1  1  0  0  0
 11 12  2  0  0  0
  1  2  1  0  0  0
  1  5  2  0  0  0
  2  3  2  0  0  0
  3  4  1  0  0  0
  3 13  1  0  0  0
  4  5  1  0  0  0
 13 14  1  0  0  0
 13 18  1  0  0  0
 14 15  1  0  0  0
 15 16  1  0  0  0
 16 17  1  0  0  0
 17 18  1  0  0  0
 17 19  1  0  0  0
M  END
> <minimizedAffinity>
-4.89367

$$$$
3HCM_S45_A_94


 19 21  0  0  0  0  0  0  0  0999 V2000
   -1.6487    9.5338   30.9697 C   0  0  0  0  0  0  0  0  0  0  0  0
   -1.4170   10.7225   31.6003 N   0  0  0  0  0  0  0  0  0  0  0  0
   -0.6871   11.5275   30.8120 C   0  0  0  0  0  0  0  0  0  0  0  0
   -0.4369   10.8530   29.6539 O   0  0  0  0  0  0  0  0  0  0  0  0
   -1.0527    9.5519   29.7399 N   0  0  0  0  0  0  0  0  0  0  0  0
   -4.8904    4.9889   33.4578 Cl  0  0  0  0  0  0  0  0  0  0  0  0
   -3.9469    6.3405   32.7410 C   0  0  0  0  0  0  0  0  0  0  0  0
   -4.1189    6.6873   31.3962 C   0  0  0  0  0  0  0  0  0  0  0  0
   -3.3727    7.7300   30.8394 C   0  0  0  0  0  0  0  0  0  0  0  0
   -2.4469    8.4348   31.6060 C   0  0  0  0  0  0  0  0  0  0  0  0
   -2.2673    8.0935   32.9442 C   0  0  0  0  0  0  0  0  0  0  0  0
   -3.0207    7.0554   33.5089 C   0  0  0  0  0  0  0  0  0  0  0  0
   -0.1563   12.9053   31.0023 C   0  0  0  0  0  0  0  0  0  0  0  0
   -1.3400   13.8916   30.9598 C   0  0  0  0  0  0  0  0  0  0  0  0
   -1.7814   14.3036   29.5420 C   0  0  0  0  0  0  0  0  0  0  0  0
   -0.6035   14.8709   28.7391 C   0  0  0  0  0  0  0  0  0  0  0  0
    0.6687   14.5912   29.4020 N   0  0  0  0  0  0  0  0  0  0  0  0
    0.9131   13.2675   29.9644 C   0  0  0  0  0  0  0  0  0  0  0  0
    0.7566   15.2592   30.1679 H   0  0  0  0  0  0  0  0  0  0  0  0
  6  7  1  0  0  0
  7  8  2  0  0  0
  7 12  1  0  0  0
  8  9  1  0  0  0
  9 10  2  0  0  0
 10 11  1  0  0  0
 10  1  1  0  0  0
 11 12  2  0  0  0
  1  2  1  0  0  0
  1  5  2  0  0  0
  2  3  2  0  0  0
  3  4  1  0  0  0
  3 13  1  0  0  0
  4  5  1  0  0  0
 13 14  1  0  0  0
 13 18  1  0  0  0
 14 15  1  0  0  0
 15 16  1  0  0  0
 16 17  1  0  0  0
 17 18  1  0  0  0
 17 19  1  0  0  0
M  END
> <minimizedAffinity>
-4.60429

$$$$
3HCM_S45_A_94


 19 21  0  0  0  0  0  0  0  0999 V2000
   -1.7945    9.5525   32.7409 C   0  0  0  0  0  0  0  0  0  0  0  0
   -1.3538   10.6716   32.0945 N   0  0  0  0  0  0  0  0  0  0  0  0
   -0.7293   11.4869   32.9590 C   0  0  0  0  0  0  0  0  0  0  0  0
   -0.7666   10.8928   34.1856 O   0  0  0  0  0  0  0  0  0  0  0  0
   -1.4591    9.6339   34.0633 N   0  0  0  0  0  0  0  0  0  0  0  0
   -4.8767    5.1133   29.8863 Cl  0  0  0  0  0  0  0  0  0  0  0  0
   -3.9506    6.4064   30.7236 C   0  0  0  0  0  0  0  0  0  0  0  0
   -4.2563    6.7522   32.0447 C   0  0  0  0  0  0  0  0  0  0  0  0
   -3.5427    7.7682   32.6871 C   0  0  0  0  0  0  0  0  0  0  0  0
   -2.5249    8.4538   32.0272 C   0  0  0  0  0  0  0  0  0  0  0  0
   -2.2170    8.1180   30.7112 C   0  0  0  0  0  0  0  0  0  0  0  0
   -2.9233    7.0932   30.0669 C   0  0  0  0  0  0  0  0  0  0  0  0
   -0.0769   12.8147   32.7930 C   0  0  0  0  0  0  0  0  0  0  0  0
   -0.4692   13.3792   31.4135 C   0  0  0  0  0  0  0  0  0  0  0  0
    0.3858   12.8606   30.2410 C   0  0  0  0  0  0  0  0  0  0  0  0
    1.8792   13.1031   30.4960 C   0  0  0  0  0  0  0  0  0  0  0  0
    2.1223   13.4712   31.8894 N   0  0  0  0  0  0  0  0  0  0  0  0
    1.4462   12.7414   32.9565 C   0  0  0  0  0  0  0  0  0  0  0  0
    1.8577   14.4514   31.9872 H   0  0  0  0  0  0  0  0  0  0  0  0
  6  7  1  0  0  0
  7  8  2  0  0  0
  7 12  1  0  0  0
  8  9  1  0  0  0
  9 10  2  0  0  0
 10 11  1  0  0  0
 10  1  1  0  0  0
 11 12  2  0  0  0
  1  2  1  0  0  0
  1  5  2  0  0  0
  2  3  2  0  0  0
  3  4  1  0  0  0
  3 13  1  0  0  0
  4  5  1  0  0  0
 13 14  1  0  0  0
 13 18  1  0  0  0
 14 15  1  0  0  0
 15 16  1  0  0  0
 16 17  1  0  0  0
 17 18  1  0  0  0
 17 19  1  0  0  0
M  END
> <minimizedAffinity>
-4.56513

$$$$
3HCM_S45_A_94


 19 21  0  0  0  0  0  0  0  0999 V2000
   -2.0685    9.9735   33.9327 C   0  0  0  0  0  0  0  0  0  0  0  0
   -3.0987    9.6885   33.0832 N   0  0  0  0  0  0  0  0  0  0  0  0
   -3.9165    8.7807   33.6392 C   0  0  0  0  0  0  0  0  0  0  0  0
   -3.4104    8.4674   34.8659 O   0  0  0  0  0  0  0  0  0  0  0  0
   -2.2056    9.2322   35.0727 N   0  0  0  0  0  0  0  0  0  0  0  0
    2.2145   14.0743   32.4512 Cl  0  0  0  0  0  0  0  0  0  0  0  0
    0.9716   12.8521   32.8893 C   0  0  0  0  0  0  0  0  0  0  0  0
   -0.0309   12.5051   31.9766 C   0  0  0  0  0  0  0  0  0  0  0  0
   -1.0038   11.5644   32.3269 C   0  0  0  0  0  0  0  0  0  0  0  0
   -0.9965   10.9631   33.5839 C   0  0  0  0  0  0  0  0  0  0  0  0
   -0.0043   11.3056   34.4991 C   0  0  0  0  0  0  0  0  0  0  0  0
    0.9787   12.2409   34.1482 C   0  0  0  0  0  0  0  0  0  0  0  0
   -5.1631    8.1252   33.1572 C   0  0  0  0  0  0  0  0  0  0  0  0
   -5.1858    6.6775   33.6855 C   0  0  0  0  0  0  0  0  0  0  0  0
   -4.3810    5.6725   32.8386 C   0  0  0  0  0  0  0  0  0  0  0  0
   -4.8333    5.6977   31.3727 C   0  0  0  0  0  0  0  0  0  0  0  0
   -5.6743    6.8619   31.1013 N   0  0  0  0  0  0  0  0  0  0  0  0
   -5.2915    8.1668   31.6295 C   0  0  0  0  0  0  0  0  0  0  0  0
   -6.6003    6.6516   31.4738 H   0  0  0  0  0  0  0  0  0  0  0  0
  6  7  1  0  0  0
  7  8  2  0  0  0
  7 12  1  0  0  0
  8  9  1  0  0  0
  9 10  2  0  0  0
 10 11  1  0  0  0
 10  1  1  0  0  0
 11 12  2  0  0  0
  1  2  1  0  0  0
  1  5  2  0  0  0
  2  3  2  0  0  0
  3  4  1  0  0  0
  3 13  1  0  0  0
  4  5  1  0  0  0
 13 14  1  0  0  0
 13 18  1  0  0  0
 14 15  1  0  0  0
 15 16  1  0  0  0
 16 17  1  0  0  0
 17 18  1  0  0  0
 17 19  1  0  0  0
M  END
> <minimizedAffinity>
-4.41431

$$$$
3HCM_S45_A_94


 19 21  0  0  0  0  0  0  0  0999 V2000
   -5.1672    5.6543   30.4596 C   0  0  0  0  0  0  0  0  0  0  0  0
   -5.2091    5.7369   31.8218 N   0  0  0  0  0  0  0  0  0  0  0  0
   -4.1786    6.4707   32.2707 C   0  0  0  0  0  0  0  0  0  0  0  0
   -3.4535    6.8686   31.1868 O   0  0  0  0  0  0  0  0  0  0  0  0
   -4.0807    6.3438   29.9991 N   0  0  0  0  0  0  0  0  0  0  0  0
   -9.3064    2.4811   27.2732 Cl  0  0  0  0  0  0  0  0  0  0  0  0
   -8.0959    3.4338   28.1992 C   0  0  0  0  0  0  0  0  0  0  0  0
   -6.7305    3.1530   28.0751 C   0  0  0  0  0  0  0  0  0  0  0  0
   -5.7936    3.8871   28.8080 C   0  0  0  0  0  0  0  0  0  0  0  0
   -6.1990    4.9013   29.6733 C   0  0  0  0  0  0  0  0  0  0  0  0
   -7.5562    5.1845   29.8051 C   0  0  0  0  0  0  0  0  0  0  0  0
   -8.4980    4.4575   29.0645 C   0  0  0  0  0  0  0  0  0  0  0  0
   -3.7495    6.8651   33.6405 C   0  0  0  0  0  0  0  0  0  0  0  0
   -4.7047    7.9614   34.1516 C   0  0  0  0  0  0  0  0  0  0  0  0
   -4.3575    9.3865   33.6790 C   0  0  0  0  0  0  0  0  0  0  0  0
   -2.9105    9.7505   34.0364 C   0  0  0  0  0  0  0  0  0  0  0  0
   -2.1556    8.5673   34.4443 N   0  0  0  0  0  0  0  0  0  0  0  0
   -2.2885    7.3295   33.6837 C   0  0  0  0  0  0  0  0  0  0  0  0
   -2.4311    8.3565   35.4036 H   0  0  0  0  0  0  0  0  0  0  0  0
  6  7  1  0  0  0
  7  8  2  0  0  0
  7 12  1  0  0  0
  8  9  1  0  0  0
  9 10  2  0  0  0
 10 11  1  0  0  0
 10  1  1  0  0  0
 11 12  2  0  0  0
  1  2  1  0  0  0
  1  5  2  0  0  0
  2  3  2  0  0  0
  3  4  1  0  0  0
  3 13  1  0  0  0
  4  5  1  0  0  0
 13 14  1  0  0  0
 13 18  1  0  0  0
 14 15  1  0  0  0
 15 16  1  0  0  0
 16 17  1  0  0  0
 17 18  1  0  0  0
 17 19  1  0  0  0
M  END
> <minimizedAffinity>
-4.33086

$$$$
3HCM_S45_A_94


 19 21  0  0  0  0  0  0  0  0999 V2000
    0.3776   11.8724   33.6611 C   0  0  0  0  0  0  0  0  0  0  0  0
   -0.6476   10.9707   33.6823 N   0  0  0  0  0  0  0  0  0  0  0  0
   -0.7405   10.4075   34.8973 C   0  0  0  0  0  0  0  0  0  0  0  0
    0.2392   10.9468   35.6771 O   0  0  0  0  0  0  0  0  0  0  0  0
    0.9792   11.9004   34.8879 N   0  0  0  0  0  0  0  0  0  0  0  0
    1.8840   15.0958   28.6916 Cl  0  0  0  0  0  0  0  0  0  0  0  0
    1.4198   14.1576   30.1527 C   0  0  0  0  0  0  0  0  0  0  0  0
    2.1086   14.3387   31.3574 C   0  0  0  0  0  0  0  0  0  0  0  0
    1.7533   13.5966   32.4874 C   0  0  0  0  0  0  0  0  0  0  0  0
    0.7176   12.6659   32.4344 C   0  0  0  0  0  0  0  0  0  0  0  0
    0.0295   12.4772   31.2384 C   0  0  0  0  0  0  0  0  0  0  0  0
    0.3761   13.2264   30.1059 C   0  0  0  0  0  0  0  0  0  0  0  0
   -1.6575    9.3775   35.4579 C   0  0  0  0  0  0  0  0  0  0  0  0
   -1.0775    7.9857   35.1386 C   0  0  0  0  0  0  0  0  0  0  0  0
   -1.4145    7.4575   33.7307 C   0  0  0  0  0  0  0  0  0  0  0  0
   -2.9295    7.4569   33.4883 C   0  0  0  0  0  0  0  0  0  0  0  0
   -3.6268    8.2315   34.5130 N   0  0  0  0  0  0  0  0  0  0  0  0
   -3.0904    9.5223   34.9307 C   0  0  0  0  0  0  0  0  0  0  0  0
   -3.6725    7.6460   35.3469 H   0  0  0  0  0  0  0  0  0  0  0  0
  6  7  1  0  0  0
  7  8  2  0  0  0
  7 12  1  0  0  0
  8  9  1  0  0  0
  9 10  2  0  0  0
 10 11  1  0  0  0
 10  1  1  0  0  0
 11 12  2  0  0  0
  1  2  1  0  0  0
  1  5  2  0  0  0
  2  3  2  0  0  0
  3  4  1  0  0  0
  3 13  1  0  0  0
  4  5  1  0  0  0
 13 14  1  0  0  0
 13 18  1  0  0  0
 14 15  1  0  0  0
 15 16  1  0  0  0
 16 17  1  0  0  0
 17 18  1  0  0  0
 17 19  1  0  0  0
M  END
> <minimizedAffinity>
-4.22018

$$$$
3HCM_S45_A_94


 19 21  0  0  0  0  0  0  0  0999 V2000
   -2.3647    9.5015   30.9723 C   0  0  0  0  0  0  0  0  0  0  0  0
   -2.7338    9.4152   32.2841 N   0  0  0  0  0  0  0  0  0  0  0  0
   -2.1147    8.3779   32.8694 C   0  0  0  0  0  0  0  0  0  0  0  0
   -1.3345    7.7782   31.9258 O   0  0  0  0  0  0  0  0  0  0  0  0
   -1.4870    8.4944   30.6835 N   0  0  0  0  0  0  0  0  0  0  0  0
   -4.6176   13.7959   27.2524 Cl  0  0  0  0  0  0  0  0  0  0  0  0
   -3.9334   12.5404   28.3416 C   0  0  0  0  0  0  0  0  0  0  0  0
   -4.1369   11.1827   28.0707 C   0  0  0  0  0  0  0  0  0  0  0  0
   -3.6149   10.2100   28.9283 C   0  0  0  0  0  0  0  0  0  0  0  0
   -2.8921   10.5718   30.0634 C   0  0  0  0  0  0  0  0  0  0  0  0
   -2.6883   11.9210   30.3419 C   0  0  0  0  0  0  0  0  0  0  0  0
   -3.2014   12.8990   29.4792 C   0  0  0  0  0  0  0  0  0  0  0  0
   -2.1586    7.8356   34.2552 C   0  0  0  0  0  0  0  0  0  0  0  0
   -2.0752    9.0169   35.2416 C   0  0  0  0  0  0  0  0  0  0  0  0
   -0.6451    9.5144   35.5276 C   0  0  0  0  0  0  0  0  0  0  0  0
    0.2525    8.3684   36.0125 C   0  0  0  0  0  0  0  0  0  0  0  0
   -0.3813    7.0712   35.7850 N   0  0  0  0  0  0  0  0  0  0  0  0
   -1.0502    6.8082   34.5155 C   0  0  0  0  0  0  0  0  0  0  0  0
   -1.0797    6.9501   36.5184 H   0  0  0  0  0  0  0  0  0  0  0  0
  6  7  1  0  0  0
  7  8  2  0  0  0
  7 12  1  0  0  0
  8  9  1  0  0  0
  9 10  2  0  0  0
 10 11  1  0  0  0
 10  1  1  0  0  0
 11 12  2  0  0  0
  1  2  1  0  0  0
  1  5  2  0  0  0
  2  3  2  0  0  0
  3  4  1  0  0  0
  3 13  1  0  0  0
  4  5  1  0  0  0
 13 14  1  0  0  0
 13 18  1  0  0  0
 14 15  1  0  0  0
 15 16  1  0  0  0
 16 17  1  0  0  0
 17 18  1  0  0  0
 17 19  1  0  0  0
M  END
> <minimizedAffinity>
-4.11275

$$$$
3HCM_S45_A_94


 19 21  0  0  0  0  0  0  0  0999 V2000
   -1.0428   10.3456   34.1168 C   0  0  0  0  0  0  0  0  0  0  0  0
   -1.3206   11.5311   33.4989 N   0  0  0  0  0  0  0  0  0  0  0  0
   -0.4570   12.4754   33.9045 C   0  0  0  0  0  0  0  0  0  0  0  0
    0.3927   11.8984   34.8012 O   0  0  0  0  0  0  0  0  0  0  0  0
    0.0244   10.5127   34.9542 N   0  0  0  0  0  0  0  0  0  0  0  0
   -4.2481    5.2316   33.1535 Cl  0  0  0  0  0  0  0  0  0  0  0  0
   -3.3057    6.7399   33.4138 C   0  0  0  0  0  0  0  0  0  0  0  0
   -2.0210    6.6841   33.9659 C   0  0  0  0  0  0  0  0  0  0  0  0
   -1.2974    7.8608   34.1797 C   0  0  0  0  0  0  0  0  0  0  0  0
   -1.8398    9.1024   33.8542 C   0  0  0  0  0  0  0  0  0  0  0  0
   -3.1191    9.1666   33.3076 C   0  0  0  0  0  0  0  0  0  0  0  0
   -3.8439    7.9885   33.0824 C   0  0  0  0  0  0  0  0  0  0  0  0
   -0.3122   13.9166   33.5607 C   0  0  0  0  0  0  0  0  0  0  0  0
    0.6304   14.0338   32.3470 C   0  0  0  0  0  0  0  0  0  0  0  0
    2.1313   14.0104   32.6954 C   0  0  0  0  0  0  0  0  0  0  0  0
    2.4763   15.0920   33.7274 C   0  0  0  0  0  0  0  0  0  0  0  0
    1.2672   15.6466   34.3329 N   0  0  0  0  0  0  0  0  0  0  0  0
    0.1912   14.7515   34.7445 C   0  0  0  0  0  0  0  0  0  0  0  0
    0.8686   16.2971   33.6560 H   0  0  0  0  0  0  0  0  0  0  0  0
  6  7  1  0  0  0
  7  8  2  0  0  0
  7 12  1  0  0  0
  8  9  1  0  0  0
  9 10  2  0  0  0
 10 11  1  0  0  0
 10  1  1  0  0  0
 11 12  2  0  0  0
  1  2  1  0  0  0
  1  5  2  0  0  0
  2  3  2  0  0  0
  3  4  1  0  0  0
  3 13  1  0  0  0
  4  5  1  0  0  0
 13 14  1  0  0  0
 13 18  1  0  0  0
 14 15  1  0  0  0
 15 16  1  0  0  0
 16 17  1  0  0  0
 17 18  1  0  0  0
 17 19  1  0  0  0
M  END
> <minimizedAffinity>
-4.10954

$$$$
