1HVL_A76_B_800
  RCSB PDB12061702463D
Coordinates from PDB:1HVL:B:800 Model:1 without hydrogens
 58 61  0  0  0  0            999 V2000
    3.3750    3.2130   10.8020   C 0  0  0  0  0  0  0  0  0  0  0  0
    3.0890    3.9150   11.7510   O 0  0  0  0  0  0  0  0  0  0  0  0
    3.9220    3.7490    9.7000   N 0  0  0  0  0  0  0  0  0  0  0  0
    4.2730    2.9460    8.5250   C 0  0  0  0  0  0  0  0  0  0  0  0
    4.2610    5.1730    9.7270   C 0  0  0  0  0  0  0  0  0  0  0  0
    5.7350    5.4640    9.9150   C 0  0  0  0  0  0  0  0  0  0  0  0
    6.5140    5.7190    8.7930   C 0  0  0  0  0  0  0  0  0  0  0  0
    6.2050    5.5480   11.1550   N 0  0  0  0  0  0  0  0  0  0  0  0
    7.8330    6.1030    9.0050   C 0  0  0  0  0  0  0  0  0  0  0  0
    7.4610    5.9250   11.3580   C 0  0  0  0  0  0  0  0  0  0  0  0
    8.3160    6.2230   10.3100   C 0  0  0  0  0  0  0  0  0  0  0  0
    3.1630    1.8950   10.8040   N 0  0  0  0  0  0  0  0  0  0  0  0
    2.7340    1.1600   12.0220   C 0  0  0  0  0  0  0  0  0  0  0  0
    3.8430    0.1720   12.4740   C 0  0  0  0  0  0  0  0  0  0  0  0
    3.9350   -0.9490   12.0140   O 0  0  0  0  0  0  0  0  0  0  0  0
    1.3530    0.4590   11.8050   C 0  0  0  0  0  0  0  0  0  0  0  0
    0.2590    1.4370   11.3390   C 0  0  0  0  0  0  0  0  0  0  0  0
    0.8540   -0.3020   13.0350   C 0  0  0  0  0  0  0  0  0  0  0  0
    4.6950    0.6400   13.4020   N 0  0  0  0  0  0  0  0  0  0  0  0
    5.8630   -0.0780   13.9970   C 0  0  0  0  0  0  0  0  0  0  0  0
    7.1800    0.6630   13.7410   C 0  0  0  0  0  0  0  0  0  0  0  0
    7.4770    0.8150   12.3010   C 0  0  0  0  0  0  0  0  0  0  0  0
    7.9520   -0.2810   11.5950   C 0  0  0  0  0  0  0  0  0  0  0  0
    8.2170   -0.1470   10.2500   C 0  0  0  0  0  0  0  0  0  0  0  0
    8.0000    1.0750    9.6070   C 0  0  0  0  0  0  0  0  0  0  0  0
    7.5430    2.1680   10.3260   C 0  0  0  0  0  0  0  0  0  0  0  0
    7.2770    2.0430   11.6780   C 0  0  0  0  0  0  0  0  0  0  0  0
    5.7690   -0.1850   15.5040   C 0  0  0  0  0  0  0  0  0  0  0  0
    5.7570    1.1590   15.9770   O 0  0  0  0  0  0  0  0  0  0  0  0
    4.6810   -0.7540   17.5020   O 0  0  0  0  0  0  0  0  0  0  0  0
    4.5410   -0.8350   16.0810   C 0  0  0  0  0  0  0  0  0  0  0  0
    5.4660   -3.1000   16.1950   N 0  0  0  0  0  0  0  0  0  0  0  0
    4.3690   -2.2860   15.6750   C 0  0  0  0  0  0  0  0  0  0  0  0
    3.0490   -2.8250   16.2110   C 0  0  0  0  0  0  0  0  0  0  0  0
    2.8640   -4.3070   15.9610   C 0  0  0  0  0  0  0  0  0  0  0  0
    2.4080   -4.7500   14.7120   C 0  0  0  0  0  0  0  0  0  0  0  0
    2.2440   -6.1210   14.4760   C 0  0  0  0  0  0  0  0  0  0  0  0
    2.5400   -7.0460   15.4810   C 0  0  0  0  0  0  0  0  0  0  0  0
    2.9920   -6.6080   16.7270   C 0  0  0  0  0  0  0  0  0  0  0  0
    3.1570   -5.2460   16.9730   C 0  0  0  0  0  0  0  0  0  0  0  0
    6.9480   -5.9900   16.6460   N 0  0  0  0  0  0  0  0  0  0  0  0
    7.3610   -4.6320   16.2660   C 0  0  0  0  0  0  0  0  0  0  0  0
    6.2680   -3.8780   15.4650   C 0  0  0  0  0  0  0  0  0  0  0  0
    6.1760   -3.9420   14.2590   O 0  0  0  0  0  0  0  0  0  0  0  0
    8.7110   -4.6080   15.5100   C 0  0  0  0  0  0  0  0  0  0  0  0
    9.7690   -5.4340   16.2350   C 0  0  0  0  0  0  0  0  0  0  0  0
    9.2260   -3.1700   15.3470   C 0  0  0  0  0  0  0  0  0  0  0  0
    6.7970   -6.4050   17.9020   C 0  0  0  0  0  0  0  0  0  0  0  0
    7.0870   -5.7120   18.8680   O 0  0  0  0  0  0  0  0  0  0  0  0
    6.3110   -7.6600   18.0560   N 0  0  0  0  0  0  0  0  0  0  0  0
    5.8910   -8.5060   16.9340   C 0  0  0  0  0  0  0  0  0  0  0  0
    6.0950   -8.1580   19.4230   C 0  0  0  0  0  0  0  0  0  0  0  0
    4.7000   -7.8490   19.9180   C 0  0  0  0  0  0  0  0  0  0  0  0
    3.6630   -8.7550   19.6540   C 0  0  0  0  0  0  0  0  0  0  0  0
    4.5240   -6.6940   20.5770   N 0  0  0  0  0  0  0  0  0  0  0  0
    2.3780   -8.4410   20.0920   C 0  0  0  0  0  0  0  0  0  0  0  0
    3.2800   -6.3950   20.9820   C 0  0  0  0  0  0  0  0  0  0  0  0
    2.1790   -7.2340   20.7650   C 0  0  0  0  0  0  0  0  0  0  0  0
  1  2  2  0  0  0  0
  1  3  1  0  0  0  0
  1 12  1  0  0  0  0
  3  4  1  0  0  0  0
  3  5  1  0  0  0  0
  5  6  1  0  0  0  0
  6  7  1  0  0  0  0
  6  8  2  0  0  0  0
  7  9  2  0  0  0  0
  8 10  1  0  0  0  0
  9 11  1  0  0  0  0
 10 11  2  0  0  0  0
 12 13  1  0  0  0  0
 13 14  1  0  0  0  0
 13 16  1  0  0  0  0
 14 15  2  0  0  0  0
 14 19  1  0  0  0  0
 16 17  1  0  0  0  0
 16 18  1  0  0  0  0
 19 20  1  0  0  0  0
 20 21  1  0  0  0  0
 20 28  1  0  0  0  0
 21 22  1  0  0  0  0
 22 23  2  0  0  0  0
 22 27  1  0  0  0  0
 23 24  1  0  0  0  0
 24 25  2  0  0  0  0
 25 26  1  0  0  0  0
 26 27  2  0  0  0  0
 28 29  1  0  0  0  0
 28 31  1  0  0  0  0
 30 31  1  0  0  0  0
 31 33  1  0  0  0  0
 32 33  1  0  0  0  0
 32 43  1  0  0  0  0
 33 34  1  0  0  0  0
 34 35  1  0  0  0  0
 35 36  2  0  0  0  0
 35 40  1  0  0  0  0
 36 37  1  0  0  0  0
 37 38  2  0  0  0  0
 38 39  1  0  0  0  0
 39 40  2  0  0  0  0
 41 42  1  0  0  0  0
 41 48  1  0  0  0  0
 42 43  1  0  0  0  0
 42 45  1  0  0  0  0
 43 44  2  0  0  0  0
 45 46  1  0  0  0  0
 45 47  1  0  0  0  0
 48 49  2  0  0  0  0
 48 50  1  0  0  0  0
 50 51  1  0  0  0  0
 50 52  1  0  0  0  0
 52 53  1  0  0  0  0
 53 54  1  0  0  0  0
 53 55  2  0  0  0  0
 54 56  2  0  0  0  0
 55 57  1  0  0  0  0
 56 58  1  0  0  0  0
 57 58  2  0  0  0  0
A    1
C1
A    2
O2
A    3
N3
A    4
C4
A    5
C5
A    6
C6
A    7
C7
A    8
N8
A    9
C9
A   10
C10
A   11
C11
A   12
N21
A   13
C22
A   14
C23
A   15
O24
A   16
C25
A   17
C26
A   18
C27
A   19
N37
A   20
C38
A   21
C39
A   22
C40
A   23
C41
A   24
C42
A   25
C43
A   26
C44
A   27
C45
A   28
C46
A   29
O47
A   30
O48
A   31
C49
A   32
N50
A   33
C51
A   34
C52
A   35
C53
A   36
C54
A   37
C55
A   38
C56
A   39
C57
A   40
C58
A   41
N81
A   42
C82
A   43
C83
A   44
O84
A   45
C85
A   46
C86
A   47
C87
A   48
C97
A   49
O98
A   50
N99
A   51
C2
A   52
C3
A   53
C8
A   54
C12
A   55
N10
A   56
C13
A   57
C14
A   58
C15
M  END
>  <InstanceId>
1HVL_A76_B_800

>  <ChemCompId>
A76

>  <PdbId>
1HVL

>  <ChainId>
B

>  <ResidueNumber>
800

>  <InsertionCode>


>  <Model>
1

>  <AltIds>


>  <MissingHeavyAtoms>
0

>  <ObservedFormula>
C44 N8 O6

>  <Name>
N-{1-BENZYL-(2R,3R)-2,3-DIHYDROXY-4-[3-METHYL-2-(3-METHYL-3-PYRIDIN-2-YLMETHYL-UREIDO)-BUTYRYLAMINO]-5-PHENYL-PENTYL}-3-METHYL-2-(3-METHYL-3-PYRIDIN-2-YLMETHYL-UREIDO)-BUTYRAMIDE

>  <SystematicName>
(2S)-N-[(2S,3R,4R,5S)-3,4-dihydroxy-5-[[(2S)-3-methyl-2-[(methyl-(pyridin-2-ylmethyl)carbamoyl)amino]butanoyl]amino]-1,6-diphenyl-hexan-2-yl]-3-methyl-2-[(methyl-(pyridin-2-ylmethyl)carbamoyl)amino]butanamide

>  <Synonyms>


>  <Type>
NON-POLYMER

>  <Formula>
C44 H58 N8 O6

>  <MolecularWeight>
794.981

>  <ModifiedDate>
2011-06-04

>  <Parent>


>  <OneLetterCode>


>  <SubcomponentList>


>  <AmbiguousFlag>
N

>  <InChI>
InChI=1S/C44H58N8O6/c1-29(2)37(49-43(57)51(5)27-33-21-13-15-23-45-33)41(55)47-35(25-31-17-9-7-10-18-31)39(53)40(54)36(26-32-19-11-8-12-20-32)48-42(56)38(30(3)4)50-44(58)52(6)28-34-22-14-16-24-46-34/h7-24,29-30,35-40,53-54H,25-28H2,1-6H3,(H,47,55)(H,48,56)(H,49,57)(H,50,58)/t35-,36-,37-,38-,39+,40+/m0/s1

>  <InChIKey>
QPVWMQXBTCSLCB-RRUVMKMCSA-N

>  <SMILES>
CC(C)[C@@H](C(=O)N[C@@H](Cc1ccccc1)[C@H]([C@@H]([C@H](Cc2ccccc2)NC(=O)[C@H](C(C)C)NC(=O)N(C)Cc3ccccn3)O)O)NC(=O)N(C)Cc4ccccn4

$$$$
