1HVL_A76_B_800


 64 67  0  0  0  0  0  0  0  0999 V2000
    5.9223   -0.0982   15.2032 C   0  0  0  0  0  0  0  0  0  0  0  0
    6.0149    1.2423   15.6771 O   0  0  0  0  0  0  0  0  0  0  0  0
    5.2418    1.7455   15.3770 H   0  0  0  0  0  0  0  0  0  0  0  0
    4.8875   -0.5741   17.2531 O   0  0  0  0  0  0  0  0  0  0  0  0
    4.6878   -0.6754   15.8406 C   0  0  0  0  0  0  0  0  0  0  0  0
    5.0529    0.3517   17.4907 H   0  0  0  0  0  0  0  0  0  0  0  0
    4.4295   -2.1237   15.4723 C   0  0  0  0  0  0  0  0  0  0  0  0
    5.4892   -2.9848   15.9937 N   0  0  0  0  0  0  0  0  0  0  0  0
    6.2111   -3.8475   15.2754 C   0  0  0  0  0  0  0  0  0  0  0  0
    6.0708   -3.9604   14.0777 O   0  0  0  0  0  0  0  0  0  0  0  0
    5.6873   -2.9231   16.9560 H   0  0  0  0  0  0  0  0  0  0  0  0
    7.2812   -4.6356   16.0745 C   0  0  0  0  0  0  0  0  0  0  0  0
    6.7979   -5.9484   16.5243 N   0  0  0  0  0  0  0  0  0  0  0  0
    6.6298   -6.2897   17.8001 C   0  0  0  0  0  0  0  0  0  0  0  0
    6.9599   -5.5645   18.7289 O   0  0  0  0  0  0  0  0  0  0  0  0
    6.0783   -7.5075   18.0189 N   0  0  0  0  0  0  0  0  0  0  0  0
    5.6096   -8.3863   16.9424 C   0  0  0  0  0  0  0  0  0  0  0  0
    6.5844   -6.6199   15.8367 H   0  0  0  0  0  0  0  0  0  0  0  0
    5.8412   -7.9224   19.4100 C   0  0  0  0  0  0  0  0  0  0  0  0
    4.3734   -7.8661   19.7690 C   0  0  0  0  0  0  0  0  0  0  0  0
    3.8028   -6.6370   20.1291 C   0  0  0  0  0  0  0  0  0  0  0  0
    3.6900   -9.0201   19.7426 N   0  0  0  0  0  0  0  0  0  0  0  0
    2.4559   -6.6080   20.4851 C   0  0  0  0  0  0  0  0  0  0  0  0
    2.3972   -8.9830   20.1008 C   0  0  0  0  0  0  0  0  0  0  0  0
    1.7379   -7.8053   20.4771 C   0  0  0  0  0  0  0  0  0  0  0  0
    8.6047   -4.7274   15.2778 C   0  0  0  0  0  0  0  0  0  0  0  0
    9.4987   -5.8423   15.8115 C   0  0  0  0  0  0  0  0  0  0  0  0
    9.3753   -3.3998   15.3344 C   0  0  0  0  0  0  0  0  0  0  0  0
    3.0916   -2.5765   16.0425 C   0  0  0  0  0  0  0  0  0  0  0  0
    2.8009   -4.0413   15.7914 C   0  0  0  0  0  0  0  0  0  0  0  0
    2.3409   -4.4533   14.5333 C   0  0  0  0  0  0  0  0  0  0  0  0
    2.0793   -5.8089   14.2964 C   0  0  0  0  0  0  0  0  0  0  0  0
    2.2820   -6.7498   15.3097 C   0  0  0  0  0  0  0  0  0  0  0  0
    2.7378   -6.3425   16.5647 C   0  0  0  0  0  0  0  0  0  0  0  0
    2.9995   -4.9960   16.8116 C   0  0  0  0  0  0  0  0  0  0  0  0
    5.9471    0.0085   13.6934 C   0  0  0  0  0  0  0  0  0  0  0  0
    3.7915    0.1494   12.3532 C   0  0  0  0  0  0  0  0  0  0  0  0
    3.8324   -1.0097   11.9906 O   0  0  0  0  0  0  0  0  0  0  0  0
    4.7315    0.6868   13.1493 N   0  0  0  0  0  0  0  0  0  0  0  0
    4.6056    1.6300   13.4017 H   0  0  0  0  0  0  0  0  0  0  0  0
    2.6500    1.1086   11.9206 C   0  0  0  0  0  0  0  0  0  0  0  0
    3.3926    3.2588   10.9516 C   0  0  0  0  0  0  0  0  0  0  0  0
    3.1743    3.8490   11.9905 O   0  0  0  0  0  0  0  0  0  0  0  0
    3.9471    3.8980    9.9100 N   0  0  0  0  0  0  0  0  0  0  0  0
    4.2185    3.2331    8.6322 C   0  0  0  0  0  0  0  0  0  0  0  0
    3.0967    1.9668   10.7929 N   0  0  0  0  0  0  0  0  0  0  0  0
    3.1774    1.5682    9.8964 H   0  0  0  0  0  0  0  0  0  0  0  0
    4.3771    5.2836   10.1069 C   0  0  0  0  0  0  0  0  0  0  0  0
    5.7973    5.4346   10.6099 C   0  0  0  0  0  0  0  0  0  0  0  0
    6.8309    5.4978    9.6834 C   0  0  0  0  0  0  0  0  0  0  0  0
    5.9877    5.5870   11.9160 N   0  0  0  0  0  0  0  0  0  0  0  0
    8.1074    5.7596   10.1674 C   0  0  0  0  0  0  0  0  0  0  0  0
    7.2044    5.8475   12.3772 C   0  0  0  0  0  0  0  0  0  0  0  0
    8.3005    5.9524   11.5371 C   0  0  0  0  0  0  0  0  0  0  0  0
    1.3270    0.3524   11.5689 C   0  0  0  0  0  0  0  0  0  0  0  0
    0.4103    1.1650   10.6363 C   0  0  0  0  0  0  0  0  0  0  0  0
    0.5288   -0.0868   12.7981 C   0  0  0  0  0  0  0  0  0  0  0  0
    7.2268    0.7915   13.3797 C   0  0  0  0  0  0  0  0  0  0  0  0
    7.5393    0.8162   11.9352 C   0  0  0  0  0  0  0  0  0  0  0  0
    8.2264   -0.2536   11.3794 C   0  0  0  0  0  0  0  0  0  0  0  0
    8.5075   -0.2405   10.0311 C   0  0  0  0  0  0  0  0  0  0  0  0
    8.0963    0.8326    9.2355 C   0  0  0  0  0  0  0  0  0  0  0  0
    7.4270    1.9043    9.8047 C   0  0  0  0  0  0  0  0  0  0  0  0
    7.1430    1.9008   11.1588 C   0  0  0  0  0  0  0  0  0  0  0  0
 42 43  2  0  0  0
 42 44  1  0  0  0
 42 46  1  0  0  0
 44 45  1  0  0  0
 44 48  1  0  0  0
 48 49  1  0  0  0
 49 50  1  0  0  0
 49 51  2  0  0  0
 50 52  2  0  0  0
 51 53  1  0  0  0
 52 54  1  0  0  0
 53 54  2  0  0  0
 46 41  1  0  0  0
 41 37  1  0  0  0
 41 55  1  0  0  0
 37 38  2  0  0  0
 37 39  1  0  0  0
 55 56  1  0  0  0
 55 57  1  0  0  0
 39 36  1  0  0  0
 36 58  1  0  0  0
 36  1  1  0  0  0
 58 59  1  0  0  0
 59 60  2  0  0  0
 59 64  1  0  0  0
 60 61  1  0  0  0
 61 62  2  0  0  0
 62 63  1  0  0  0
 63 64  2  0  0  0
  1  2  1  0  0  0
  1  5  1  0  0  0
  4  5  1  0  0  0
  5  7  1  0  0  0
  8  7  1  0  0  0
  8  9  1  0  0  0
  7 29  1  0  0  0
 29 30  1  0  0  0
 30 31  2  0  0  0
 30 35  1  0  0  0
 31 32  1  0  0  0
 32 33  2  0  0  0
 33 34  1  0  0  0
 34 35  2  0  0  0
 13 12  1  0  0  0
 13 14  1  0  0  0
 12  9  1  0  0  0
 12 26  1  0  0  0
  9 10  2  0  0  0
 26 27  1  0  0  0
 26 28  1  0  0  0
 14 15  2  0  0  0
 14 16  1  0  0  0
 16 17  1  0  0  0
 16 19  1  0  0  0
 19 20  1  0  0  0
 20 21  1  0  0  0
 20 22  2  0  0  0
 21 23  2  0  0  0
 22 24  1  0  0  0
 23 25  1  0  0  0
 24 25  2  0  0  0
 46 47  1  0  0  0
 39 40  1  0  0  0
  2  3  1  0  0  0
  4  6  1  0  0  0
  8 11  1  0  0  0
 13 18  1  0  0  0
M  END
> <minimizedAffinity>
-11.14293

$$$$
1HVL_A76_B_800


 64 67  0  0  0  0  0  0  0  0999 V2000
    4.5325   -0.9343   15.8288 C   0  0  0  0  0  0  0  0  0  0  0  0
    4.5172   -0.9249   17.2535 O   0  0  0  0  0  0  0  0  0  0  0  0
    5.2950   -1.3978   17.5884 H   0  0  0  0  0  0  0  0  0  0  0  0
    5.6385    1.1277   15.9860 O   0  0  0  0  0  0  0  0  0  0  0  0
    5.7713   -0.1816   15.4259 C   0  0  0  0  0  0  0  0  0  0  0  0
    5.5190    1.0580   16.9461 H   0  0  0  0  0  0  0  0  0  0  0  0
    5.9578   -0.0695   13.9251 C   0  0  0  0  0  0  0  0  0  0  0  0
    4.8302    0.6341   13.3169 N   0  0  0  0  0  0  0  0  0  0  0  0
    3.9731    0.1113   12.4374 C   0  0  0  0  0  0  0  0  0  0  0  0
    4.0366   -1.0475   12.0906 O   0  0  0  0  0  0  0  0  0  0  0  0
    4.6911    1.5731   13.5781 H   0  0  0  0  0  0  0  0  0  0  0  0
    2.8585    1.0742   11.9524 C   0  0  0  0  0  0  0  0  0  0  0  0
    3.3081    1.9599   10.8695 N   0  0  0  0  0  0  0  0  0  0  0  0
    3.5923    3.2513   11.0250 C   0  0  0  0  0  0  0  0  0  0  0  0
    3.4083    3.8480   12.0774 O   0  0  0  0  0  0  0  0  0  0  0  0
    4.0904    3.8828    9.9351 N   0  0  0  0  0  0  0  0  0  0  0  0
    4.3867    3.1994    8.6717 C   0  0  0  0  0  0  0  0  0  0  0  0
    3.4057    1.5728    9.9696 H   0  0  0  0  0  0  0  0  0  0  0  0
    4.4510    5.3033   10.0600 C   0  0  0  0  0  0  0  0  0  0  0  0
    5.9145    5.4824   10.3954 C   0  0  0  0  0  0  0  0  0  0  0  0
    6.3113    5.5061   11.7400 C   0  0  0  0  0  0  0  0  0  0  0  0
    6.7658    5.6320    9.3696 N   0  0  0  0  0  0  0  0  0  0  0  0
    7.6598    5.7011   12.0320 C   0  0  0  0  0  0  0  0  0  0  0  0
    8.0598    5.8332    9.6626 C   0  0  0  0  0  0  0  0  0  0  0  0
    8.5534    5.8743   10.9733 C   0  0  0  0  0  0  0  0  0  0  0  0
    1.5752    0.2899   11.5883 C   0  0  0  0  0  0  0  0  0  0  0  0
    0.6603    1.1098   10.6838 C   0  0  0  0  0  0  0  0  0  0  0  0
    0.7982   -0.1124   12.8509 C   0  0  0  0  0  0  0  0  0  0  0  0
    7.2441    0.6847   13.6139 C   0  0  0  0  0  0  0  0  0  0  0  0
    7.5247    0.7993   12.1303 C   0  0  0  0  0  0  0  0  0  0  0  0
    7.1964    1.9795   11.4495 C   0  0  0  0  0  0  0  0  0  0  0  0
    7.4626    2.0906   10.0787 C   0  0  0  0  0  0  0  0  0  0  0  0
    8.0597    1.0299    9.3920 C   0  0  0  0  0  0  0  0  0  0  0  0
    8.3857   -0.1480   10.0665 C   0  0  0  0  0  0  0  0  0  0  0  0
    8.1235   -0.2698   11.4300 C   0  0  0  0  0  0  0  0  0  0  0  0
    4.4406   -2.3936   15.4373 C   0  0  0  0  0  0  0  0  0  0  0  0
    6.3711   -4.0407   15.2859 C   0  0  0  0  0  0  0  0  0  0  0  0
    6.2427   -4.2237   14.0914 O   0  0  0  0  0  0  0  0  0  0  0  0
    5.5784   -3.2009   15.9734 N   0  0  0  0  0  0  0  0  0  0  0  0
    5.7679   -3.1074   16.9349 H   0  0  0  0  0  0  0  0  0  0  0  0
    7.4606   -4.7682   16.1189 C   0  0  0  0  0  0  0  0  0  0  0  0
    6.8431   -6.4637   17.8095 C   0  0  0  0  0  0  0  0  0  0  0  0
    7.2354   -5.7596   18.7181 O   0  0  0  0  0  0  0  0  0  0  0  0
    6.2463   -7.6376   18.0678 N   0  0  0  0  0  0  0  0  0  0  0  0
    5.7672   -8.5276   17.0062 C   0  0  0  0  0  0  0  0  0  0  0  0
    6.9835   -6.1144   16.5287 N   0  0  0  0  0  0  0  0  0  0  0  0
    6.7629   -6.7725   15.8305 H   0  0  0  0  0  0  0  0  0  0  0  0
    5.9873   -7.9808   19.4673 C   0  0  0  0  0  0  0  0  0  0  0  0
    4.5483   -7.7994   19.9022 C   0  0  0  0  0  0  0  0  0  0  0  0
    4.1256   -6.5380   20.3032 C   0  0  0  0  0  0  0  0  0  0  0  0
    3.7261   -8.8383   19.8002 N   0  0  0  0  0  0  0  0  0  0  0  0
    2.7728   -6.3753   20.5786 C   0  0  0  0  0  0  0  0  0  0  0  0
    2.4329   -8.6806   20.0526 C   0  0  0  0  0  0  0  0  0  0  0  0
    1.9043   -7.4601   20.4388 C   0  0  0  0  0  0  0  0  0  0  0  0
    8.8326   -4.8550   15.3734 C   0  0  0  0  0  0  0  0  0  0  0  0
    9.7963   -5.8655   16.0220 C   0  0  0  0  0  0  0  0  0  0  0  0
    9.5398   -3.5052   15.2360 C   0  0  0  0  0  0  0  0  0  0  0  0
    3.0933   -2.8626   15.9976 C   0  0  0  0  0  0  0  0  0  0  0  0
    2.8941   -4.3204   15.8554 C   0  0  0  0  0  0  0  0  0  0  0  0
    3.0679   -5.1324   16.9670 C   0  0  0  0  0  0  0  0  0  0  0  0
    2.8700   -6.4897   16.8418 C   0  0  0  0  0  0  0  0  0  0  0  0
    2.4900   -7.0364   15.6127 C   0  0  0  0  0  0  0  0  0  0  0  0
    2.3374   -6.2181   14.5047 C   0  0  0  0  0  0  0  0  0  0  0  0
    2.5371   -4.8539   14.6209 C   0  0  0  0  0  0  0  0  0  0  0  0
 42 43  2  0  0  0
 42 44  1  0  0  0
 42 46  1  0  0  0
 44 45  1  0  0  0
 44 48  1  0  0  0
 48 49  1  0  0  0
 49 50  1  0  0  0
 49 51  2  0  0  0
 50 52  2  0  0  0
 51 53  1  0  0  0
 52 54  1  0  0  0
 53 54  2  0  0  0
 46 41  1  0  0  0
 41 37  1  0  0  0
 41 55  1  0  0  0
 37 38  2  0  0  0
 37 39  1  0  0  0
 55 56  1  0  0  0
 55 57  1  0  0  0
 39 36  1  0  0  0
 36 58  1  0  0  0
 36  1  1  0  0  0
 58 59  1  0  0  0
 59 60  2  0  0  0
 59 64  1  0  0  0
 60 61  1  0  0  0
 61 62  2  0  0  0
 62 63  1  0  0  0
 63 64  2  0  0  0
  1  2  1  0  0  0
  1  5  1  0  0  0
  4  5  1  0  0  0
  5  7  1  0  0  0
  8  7  1  0  0  0
  8  9  1  0  0  0
  7 29  1  0  0  0
 29 30  1  0  0  0
 30 31  2  0  0  0
 30 35  1  0  0  0
 31 32  1  0  0  0
 32 33  2  0  0  0
 33 34  1  0  0  0
 34 35  2  0  0  0
 13 12  1  0  0  0
 13 14  1  0  0  0
 12  9  1  0  0  0
 12 26  1  0  0  0
  9 10  2  0  0  0
 26 27  1  0  0  0
 26 28  1  0  0  0
 14 15  2  0  0  0
 14 16  1  0  0  0
 16 17  1  0  0  0
 16 19  1  0  0  0
 19 20  1  0  0  0
 20 21  1  0  0  0
 20 22  2  0  0  0
 21 23  2  0  0  0
 22 24  1  0  0  0
 23 25  1  0  0  0
 24 25  2  0  0  0
 46 47  1  0  0  0
 39 40  1  0  0  0
  2  3  1  0  0  0
  4  6  1  0  0  0
  8 11  1  0  0  0
 13 18  1  0  0  0
M  END
> <minimizedAffinity>
-10.89721

$$$$
1HVL_A76_B_800


 64 67  0  0  0  0  0  0  0  0999 V2000
    4.7633   -0.6579   15.1873 C   0  0  0  0  0  0  0  0  0  0  0  0
    4.4404    0.4227   16.0582 O   0  0  0  0  0  0  0  0  0  0  0  0
    3.8978    0.0951   16.7925 H   0  0  0  0  0  0  0  0  0  0  0  0
    5.5862   -1.0947   17.3394 O   0  0  0  0  0  0  0  0  0  0  0  0
    5.5817   -1.6170   16.0081 C   0  0  0  0  0  0  0  0  0  0  0  0
    4.6729   -0.9954   17.6508 H   0  0  0  0  0  0  0  0  0  0  0  0
    7.0107   -1.7711   15.5241 C   0  0  0  0  0  0  0  0  0  0  0  0
    7.6286   -2.9581   16.1120 N   0  0  0  0  0  0  0  0  0  0  0  0
    7.4717   -4.2101   15.6771 C   0  0  0  0  0  0  0  0  0  0  0  0
    6.8130   -4.4703   14.6946 O   0  0  0  0  0  0  0  0  0  0  0  0
    8.2097   -2.8226   16.8951 H   0  0  0  0  0  0  0  0  0  0  0  0
    8.2479   -5.2873   16.4784 C   0  0  0  0  0  0  0  0  0  0  0  0
    7.4193   -6.4565   16.8036 N   0  0  0  0  0  0  0  0  0  0  0  0
    7.1448   -6.8611   18.0419 C   0  0  0  0  0  0  0  0  0  0  0  0
    7.6449   -6.3464   19.0332 O   0  0  0  0  0  0  0  0  0  0  0  0
    6.2800   -7.8984   18.1473 N   0  0  0  0  0  0  0  0  0  0  0  0
    5.6072   -8.5083   16.9956 C   0  0  0  0  0  0  0  0  0  0  0  0
    7.0422   -6.9748   16.0564 H   0  0  0  0  0  0  0  0  0  0  0  0
    5.9174   -8.3660   19.4939 C   0  0  0  0  0  0  0  0  0  0  0  0
    4.5076   -7.9650   19.8655 C   0  0  0  0  0  0  0  0  0  0  0  0
    4.2469   -6.6367   20.2309 C   0  0  0  0  0  0  0  0  0  0  0  0
    3.5705   -8.9245   19.8445 N   0  0  0  0  0  0  0  0  0  0  0  0
    2.9481   -6.2907   20.5985 C   0  0  0  0  0  0  0  0  0  0  0  0
    2.3261   -8.5835   20.2138 C   0  0  0  0  0  0  0  0  0  0  0  0
    1.9671   -7.2843   20.5961 C   0  0  0  0  0  0  0  0  0  0  0  0
    9.5618   -5.6691   15.7557 C   0  0  0  0  0  0  0  0  0  0  0  0
   10.6161   -6.1617   16.7422 C   0  0  0  0  0  0  0  0  0  0  0  0
   10.1289   -4.4738   14.9751 C   0  0  0  0  0  0  0  0  0  0  0  0
    7.0372   -1.8938   14.0060 C   0  0  0  0  0  0  0  0  0  0  0  0
    7.2981   -0.5769   13.3054 C   0  0  0  0  0  0  0  0  0  0  0  0
    7.2076   -0.5023   11.9088 C   0  0  0  0  0  0  0  0  0  0  0  0
    7.4405    0.7168   11.2594 C   0  0  0  0  0  0  0  0  0  0  0  0
    7.7563    1.8579   12.0019 C   0  0  0  0  0  0  0  0  0  0  0  0
    7.8497    1.7865   13.3929 C   0  0  0  0  0  0  0  0  0  0  0  0
    7.6217    0.5781   14.0490 C   0  0  0  0  0  0  0  0  0  0  0  0
    3.4360   -1.1500   14.6511 C   0  0  0  0  0  0  0  0  0  0  0  0
    3.0341    0.0452   12.4437 C   0  0  0  0  0  0  0  0  0  0  0  0
    3.8547   -0.6107   11.8330 O   0  0  0  0  0  0  0  0  0  0  0  0
    2.7811   -0.1550   13.7484 N   0  0  0  0  0  0  0  0  0  0  0  0
    2.0890    0.4160   14.1536 H   0  0  0  0  0  0  0  0  0  0  0  0
    2.2124    1.1750   11.7665 C   0  0  0  0  0  0  0  0  0  0  0  0
    3.2383    3.2075   10.8018 C   0  0  0  0  0  0  0  0  0  0  0  0
    2.6301    3.9274   11.5680 O   0  0  0  0  0  0  0  0  0  0  0  0
    4.1401    3.7251    9.9534 N   0  0  0  0  0  0  0  0  0  0  0  0
    4.8899    2.8998    9.0018 C   0  0  0  0  0  0  0  0  0  0  0  0
    3.0445    1.8873   10.7625 N   0  0  0  0  0  0  0  0  0  0  0  0
    3.4683    1.3668   10.0423 H   0  0  0  0  0  0  0  0  0  0  0  0
    4.4417    5.1535   10.0623 C   0  0  0  0  0  0  0  0  0  0  0  0
    5.8159    5.4645   10.6169 C   0  0  0  0  0  0  0  0  0  0  0  0
    6.0054    5.4258   11.9929 C   0  0  0  0  0  0  0  0  0  0  0  0
    6.8062    5.6780    9.7571 N   0  0  0  0  0  0  0  0  0  0  0  0
    7.3022    5.5943   12.4641 C   0  0  0  0  0  0  0  0  0  0  0  0
    8.0459    5.8281   10.2061 C   0  0  0  0  0  0  0  0  0  0  0  0
    8.3470    5.7855   11.5572 C   0  0  0  0  0  0  0  0  0  0  0  0
    0.8798    0.6559   11.1337 C   0  0  0  0  0  0  0  0  0  0  0  0
    0.0388    1.7865   10.5133 C   0  0  0  0  0  0  0  0  0  0  0  0
    0.0092   -0.1389   12.1090 C   0  0  0  0  0  0  0  0  0  0  0  0
    3.7718   -2.4529   13.9172 C   0  0  0  0  0  0  0  0  0  0  0  0
    2.8902   -3.5719   14.3116 C   0  0  0  0  0  0  0  0  0  0  0  0
    1.5331   -3.3316   14.4725 C   0  0  0  0  0  0  0  0  0  0  0  0
    0.7062   -4.3747   14.8267 C   0  0  0  0  0  0  0  0  0  0  0  0
    1.2292   -5.6577   15.0111 C   0  0  0  0  0  0  0  0  0  0  0  0
    2.5890   -5.8822   14.8659 C   0  0  0  0  0  0  0  0  0  0  0  0
    3.4273   -4.8396   14.5131 C   0  0  0  0  0  0  0  0  0  0  0  0
 42 43  2  0  0  0
 42 44  1  0  0  0
 42 46  1  0  0  0
 44 45  1  0  0  0
 44 48  1  0  0  0
 48 49  1  0  0  0
 49 50  1  0  0  0
 49 51  2  0  0  0
 50 52  2  0  0  0
 51 53  1  0  0  0
 52 54  1  0  0  0
 53 54  2  0  0  0
 46 41  1  0  0  0
 41 37  1  0  0  0
 41 55  1  0  0  0
 37 38  2  0  0  0
 37 39  1  0  0  0
 55 56  1  0  0  0
 55 57  1  0  0  0
 39 36  1  0  0  0
 36 58  1  0  0  0
 36  1  1  0  0  0
 58 59  1  0  0  0
 59 60  2  0  0  0
 59 64  1  0  0  0
 60 61  1  0  0  0
 61 62  2  0  0  0
 62 63  1  0  0  0
 63 64  2  0  0  0
  1  2  1  0  0  0
  1  5  1  0  0  0
  4  5  1  0  0  0
  5  7  1  0  0  0
  8  7  1  0  0  0
  8  9  1  0  0  0
  7 29  1  0  0  0
 29 30  1  0  0  0
 30 31  2  0  0  0
 30 35  1  0  0  0
 31 32  1  0  0  0
 32 33  2  0  0  0
 33 34  1  0  0  0
 34 35  2  0  0  0
 13 12  1  0  0  0
 13 14  1  0  0  0
 12  9  1  0  0  0
 12 26  1  0  0  0
  9 10  2  0  0  0
 26 27  1  0  0  0
 26 28  1  0  0  0
 14 15  2  0  0  0
 14 16  1  0  0  0
 16 17  1  0  0  0
 16 19  1  0  0  0
 19 20  1  0  0  0
 20 21  1  0  0  0
 20 22  2  0  0  0
 21 23  2  0  0  0
 22 24  1  0  0  0
 23 25  1  0  0  0
 24 25  2  0  0  0
 46 47  1  0  0  0
 39 40  1  0  0  0
  2  3  1  0  0  0
  4  6  1  0  0  0
  8 11  1  0  0  0
 13 18  1  0  0  0
M  END
> <minimizedAffinity>
-10.25121

$$$$
1HVL_A76_B_800


 64 67  0  0  0  0  0  0  0  0999 V2000
    5.6059   -1.5504   15.8469 C   0  0  0  0  0  0  0  0  0  0  0  0
    5.6937   -1.1607   17.2146 O   0  0  0  0  0  0  0  0  0  0  0  0
    6.1583   -0.3117   17.2797 H   0  0  0  0  0  0  0  0  0  0  0  0
    4.6858    0.5918   16.0997 O   0  0  0  0  0  0  0  0  0  0  0  0
    4.7809   -0.4903   15.1694 C   0  0  0  0  0  0  0  0  0  0  0  0
    5.5768    0.8875   16.3440 H   0  0  0  0  0  0  0  0  0  0  0  0
    3.3867   -0.9502   14.7894 C   0  0  0  0  0  0  0  0  0  0  0  0
    2.7670   -0.0049   13.8628 N   0  0  0  0  0  0  0  0  0  0  0  0
    2.9904    0.0519   12.5481 C   0  0  0  0  0  0  0  0  0  0  0  0
    3.7210   -0.7343   11.9869 O   0  0  0  0  0  0  0  0  0  0  0  0
    2.1310    0.6450   14.2402 H   0  0  0  0  0  0  0  0  0  0  0  0
    2.1954    1.1479   11.7921 C   0  0  0  0  0  0  0  0  0  0  0  0
    3.0264    1.8902   10.8343 N   0  0  0  0  0  0  0  0  0  0  0  0
    3.2441    3.2025   10.8883 C   0  0  0  0  0  0  0  0  0  0  0  0
    2.6850    3.9341   11.6944 O   0  0  0  0  0  0  0  0  0  0  0  0
    4.1204    3.6947    9.9801 N   0  0  0  0  0  0  0  0  0  0  0  0
    4.8618    2.8527    9.0355 C   0  0  0  0  0  0  0  0  0  0  0  0
    3.4503    1.3835   10.1043 H   0  0  0  0  0  0  0  0  0  0  0  0
    4.4216    5.1340   10.0152 C   0  0  0  0  0  0  0  0  0  0  0  0
    5.7246    5.4165   10.7285 C   0  0  0  0  0  0  0  0  0  0  0  0
    6.9274    5.3460   10.0115 C   0  0  0  0  0  0  0  0  0  0  0  0
    5.6585    5.7044   12.0370 N   0  0  0  0  0  0  0  0  0  0  0  0
    8.1212    5.5807   10.6908 C   0  0  0  0  0  0  0  0  0  0  0  0
    6.8150    5.9149   12.6843 C   0  0  0  0  0  0  0  0  0  0  0  0
    8.0667    5.8655   12.0566 C   0  0  0  0  0  0  0  0  0  0  0  0
    0.9222    0.5541   11.1434 C   0  0  0  0  0  0  0  0  0  0  0  0
    0.1236    1.6240   10.4051 C   0  0  0  0  0  0  0  0  0  0  0  0
    0.0200   -0.1018   12.1995 C   0  0  0  0  0  0  0  0  0  0  0  0
    3.4507   -2.3236   14.1339 C   0  0  0  0  0  0  0  0  0  0  0  0
    3.1659   -3.4579   15.0959 C   0  0  0  0  0  0  0  0  0  0  0  0
    3.1224   -4.7765   14.6230 C   0  0  0  0  0  0  0  0  0  0  0  0
    2.8672   -5.8280   15.5127 C   0  0  0  0  0  0  0  0  0  0  0  0
    2.6623   -5.5643   16.8698 C   0  0  0  0  0  0  0  0  0  0  0  0
    2.7024   -4.2519   17.3436 C   0  0  0  0  0  0  0  0  0  0  0  0
    2.9538   -3.1981   16.4667 C   0  0  0  0  0  0  0  0  0  0  0  0
    7.0378   -1.7242   15.3876 C   0  0  0  0  0  0  0  0  0  0  0  0
    7.3810   -4.2210   15.7203 C   0  0  0  0  0  0  0  0  0  0  0  0
    6.5166   -4.5394   14.9277 O   0  0  0  0  0  0  0  0  0  0  0  0
    7.6828   -2.9368   15.9770 N   0  0  0  0  0  0  0  0  0  0  0  0
    8.4077   -2.7775   16.6238 H   0  0  0  0  0  0  0  0  0  0  0  0
    8.2060   -5.2746   16.5075 C   0  0  0  0  0  0  0  0  0  0  0  0
    7.1335   -6.9171   18.0127 C   0  0  0  0  0  0  0  0  0  0  0  0
    7.6862   -6.4466   18.9865 O   0  0  0  0  0  0  0  0  0  0  0  0
    6.2411   -7.9099   18.1507 N   0  0  0  0  0  0  0  0  0  0  0  0
    5.5573   -8.5186   17.0059 C   0  0  0  0  0  0  0  0  0  0  0  0
    7.3808   -6.4807   16.7756 N   0  0  0  0  0  0  0  0  0  0  0  0
    7.0027   -6.9760   16.0133 H   0  0  0  0  0  0  0  0  0  0  0  0
    5.8793   -8.3217   19.5083 C   0  0  0  0  0  0  0  0  0  0  0  0
    4.5005   -7.8803   19.9518 C   0  0  0  0  0  0  0  0  0  0  0  0
    4.3042   -6.5487   20.2970 C   0  0  0  0  0  0  0  0  0  0  0  0
    3.5134   -8.7688   19.9101 N   0  0  0  0  0  0  0  0  0  0  0  0
    3.0040   -6.1475   20.5810 C   0  0  0  0  0  0  0  0  0  0  0  0
    2.2706   -8.3836   20.1706 C   0  0  0  0  0  0  0  0  0  0  0  0
    1.9628   -7.0752   20.5043 C   0  0  0  0  0  0  0  0  0  0  0  0
    9.5448   -5.6504   15.7918 C   0  0  0  0  0  0  0  0  0  0  0  0
   10.6332   -6.1142   16.7770 C   0  0  0  0  0  0  0  0  0  0  0  0
   10.1062   -4.5277   14.9170 C   0  0  0  0  0  0  0  0  0  0  0  0
    6.9487   -1.8100   13.8600 C   0  0  0  0  0  0  0  0  0  0  0  0
    7.1901   -0.5087   13.2018 C   0  0  0  0  0  0  0  0  0  0  0  0
    7.6735    0.5473   13.9611 C   0  0  0  0  0  0  0  0  0  0  0  0
    7.9126    1.7576   13.3485 C   0  0  0  0  0  0  0  0  0  0  0  0
    7.6795    1.9130   11.9791 C   0  0  0  0  0  0  0  0  0  0  0  0
    7.1791    0.8569   11.2343 C   0  0  0  0  0  0  0  0  0  0  0  0
    6.9333   -0.3615   11.8422 C   0  0  0  0  0  0  0  0  0  0  0  0
 42 43  2  0  0  0
 42 44  1  0  0  0
 42 46  1  0  0  0
 44 45  1  0  0  0
 44 48  1  0  0  0
 48 49  1  0  0  0
 49 50  1  0  0  0
 49 51  2  0  0  0
 50 52  2  0  0  0
 51 53  1  0  0  0
 52 54  1  0  0  0
 53 54  2  0  0  0
 46 41  1  0  0  0
 41 37  1  0  0  0
 41 55  1  0  0  0
 37 38  2  0  0  0
 37 39  1  0  0  0
 55 56  1  0  0  0
 55 57  1  0  0  0
 39 36  1  0  0  0
 36 58  1  0  0  0
 36  1  1  0  0  0
 58 59  1  0  0  0
 59 60  2  0  0  0
 59 64  1  0  0  0
 60 61  1  0  0  0
 61 62  2  0  0  0
 62 63  1  0  0  0
 63 64  2  0  0  0
  1  2  1  0  0  0
  1  5  1  0  0  0
  4  5  1  0  0  0
  5  7  1  0  0  0
  8  7  1  0  0  0
  8  9  1  0  0  0
  7 29  1  0  0  0
 29 30  1  0  0  0
 30 31  2  0  0  0
 30 35  1  0  0  0
 31 32  1  0  0  0
 32 33  2  0  0  0
 33 34  1  0  0  0
 34 35  2  0  0  0
 13 12  1  0  0  0
 13 14  1  0  0  0
 12  9  1  0  0  0
 12 26  1  0  0  0
  9 10  2  0  0  0
 26 27  1  0  0  0
 26 28  1  0  0  0
 14 15  2  0  0  0
 14 16  1  0  0  0
 16 17  1  0  0  0
 16 19  1  0  0  0
 19 20  1  0  0  0
 20 21  1  0  0  0
 20 22  2  0  0  0
 21 23  2  0  0  0
 22 24  1  0  0  0
 23 25  1  0  0  0
 24 25  2  0  0  0
 46 47  1  0  0  0
 39 40  1  0  0  0
  2  3  1  0  0  0
  4  6  1  0  0  0
  8 11  1  0  0  0
 13 18  1  0  0  0
M  END
> <minimizedAffinity>
-10.20445

$$$$
1HVL_A76_B_800


 64 67  0  0  0  0  0  0  0  0999 V2000
    4.9886   -1.1098   15.9371 C   0  0  0  0  0  0  0  0  0  0  0  0
    4.6034   -0.8297   17.2800 O   0  0  0  0  0  0  0  0  0  0  0  0
    5.3953   -0.7632   17.8363 H   0  0  0  0  0  0  0  0  0  0  0  0
    5.1068    1.2322   15.9547 O   0  0  0  0  0  0  0  0  0  0  0  0
    5.8021    0.0731   15.4873 C   0  0  0  0  0  0  0  0  0  0  0  0
    4.9969    1.1773   16.9169 H   0  0  0  0  0  0  0  0  0  0  0  0
    5.9723    0.1619   13.9830 C   0  0  0  0  0  0  0  0  0  0  0  0
    4.8145    0.8108   13.3709 N   0  0  0  0  0  0  0  0  0  0  0  0
    3.9761    0.2419   12.5021 C   0  0  0  0  0  0  0  0  0  0  0  0
    4.0856   -0.9178   12.1700 O   0  0  0  0  0  0  0  0  0  0  0  0
    4.6381    1.7466   13.6205 H   0  0  0  0  0  0  0  0  0  0  0  0
    2.8210    1.1519   12.0096 C   0  0  0  0  0  0  0  0  0  0  0  0
    3.2241    2.0265   10.8998 N   0  0  0  0  0  0  0  0  0  0  0  0
    3.5096    3.3205   11.0292 C   0  0  0  0  0  0  0  0  0  0  0  0
    3.3655    3.9287   12.0812 O   0  0  0  0  0  0  0  0  0  0  0  0
    3.9617    3.9410    9.9132 N   0  0  0  0  0  0  0  0  0  0  0  0
    4.2100    3.2440    8.6468 C   0  0  0  0  0  0  0  0  0  0  0  0
    3.2872    1.6294   10.0012 H   0  0  0  0  0  0  0  0  0  0  0  0
    4.3219    5.3639   10.0075 C   0  0  0  0  0  0  0  0  0  0  0  0
    5.7028    5.5547   10.5935 C   0  0  0  0  0  0  0  0  0  0  0  0
    6.8209    5.4804    9.7508 C   0  0  0  0  0  0  0  0  0  0  0  0
    5.7849    5.7682   11.9152 N   0  0  0  0  0  0  0  0  0  0  0  0
    8.0876    5.6297   10.3118 C   0  0  0  0  0  0  0  0  0  0  0  0
    7.0102    5.8965   12.4472 C   0  0  0  0  0  0  0  0  0  0  0  0
    8.1870    5.8363   11.6891 C   0  0  0  0  0  0  0  0  0  0  0  0
    1.5623    0.3134   11.6823 C   0  0  0  0  0  0  0  0  0  0  0  0
    0.6151    1.0705   10.7567 C   0  0  0  0  0  0  0  0  0  0  0  0
    0.8070   -0.0703   12.9637 C   0  0  0  0  0  0  0  0  0  0  0  0
    7.2271    0.9570   13.6458 C   0  0  0  0  0  0  0  0  0  0  0  0
    7.5923    0.9011   12.1773 C   0  0  0  0  0  0  0  0  0  0  0  0
    7.2536    1.9691   11.3353 C   0  0  0  0  0  0  0  0  0  0  0  0
    7.5978    1.9230    9.9782 C   0  0  0  0  0  0  0  0  0  0  0  0
    8.2826    0.8179    9.4655 C   0  0  0  0  0  0  0  0  0  0  0  0
    8.6192   -0.2487   10.3008 C   0  0  0  0  0  0  0  0  0  0  0  0
    8.2800   -0.2139   11.6523 C   0  0  0  0  0  0  0  0  0  0  0  0
    5.6793   -2.4557   15.9913 C   0  0  0  0  0  0  0  0  0  0  0  0
    4.2283   -4.0729   14.6716 C   0  0  0  0  0  0  0  0  0  0  0  0
    4.5360   -3.6116   13.5903 O   0  0  0  0  0  0  0  0  0  0  0  0
    4.7251   -3.5939   15.8248 N   0  0  0  0  0  0  0  0  0  0  0  0
    4.4281   -4.0415   16.6498 H   0  0  0  0  0  0  0  0  0  0  0  0
    3.2291   -5.2530   14.8102 C   0  0  0  0  0  0  0  0  0  0  0  0
    3.9609   -6.9150   16.4883 C   0  0  0  0  0  0  0  0  0  0  0  0
    4.4648   -7.6160   15.6340 O   0  0  0  0  0  0  0  0  0  0  0  0
    4.0772   -7.2351   17.7864 N   0  0  0  0  0  0  0  0  0  0  0  0
    3.4769   -6.4285   18.8530 C   0  0  0  0  0  0  0  0  0  0  0  0
    3.2758   -5.8096   16.1871 N   0  0  0  0  0  0  0  0  0  0  0  0
    2.7837   -5.3465   16.9030 H   0  0  0  0  0  0  0  0  0  0  0  0
    4.9177   -8.3816   18.1363 C   0  0  0  0  0  0  0  0  0  0  0  0
    6.3995   -8.1657   17.9114 C   0  0  0  0  0  0  0  0  0  0  0  0
    7.0180   -7.0846   18.5273 C   0  0  0  0  0  0  0  0  0  0  0  0
    7.0650   -9.0706   17.2017 N   0  0  0  0  0  0  0  0  0  0  0  0
    8.3987   -6.9826   18.4027 C   0  0  0  0  0  0  0  0  0  0  0  0
    8.3843   -8.9795   17.0915 C   0  0  0  0  0  0  0  0  0  0  0  0
    9.1007   -7.9530   17.6842 C   0  0  0  0  0  0  0  0  0  0  0  0
    1.7704   -4.8594   14.4063 C   0  0  0  0  0  0  0  0  0  0  0  0
    1.4336   -3.3977   14.7535 C   0  0  0  0  0  0  0  0  0  0  0  0
    0.7019   -5.7759   15.0058 C   0  0  0  0  0  0  0  0  0  0  0  0
    6.7140   -2.4077   14.8616 C   0  0  0  0  0  0  0  0  0  0  0  0
    7.9220   -3.2048   15.1620 C   0  0  0  0  0  0  0  0  0  0  0  0
    8.9367   -2.6278   15.9121 C   0  0  0  0  0  0  0  0  0  0  0  0
   10.0581   -3.3719   16.2056 C   0  0  0  0  0  0  0  0  0  0  0  0
   10.1642   -4.6926   15.7603 C   0  0  0  0  0  0  0  0  0  0  0  0
    9.1528   -5.2526   14.9961 C   0  0  0  0  0  0  0  0  0  0  0  0
    8.0242   -4.5113   14.6942 C   0  0  0  0  0  0  0  0  0  0  0  0
 42 43  2  0  0  0
 42 44  1  0  0  0
 42 46  1  0  0  0
 44 45  1  0  0  0
 44 48  1  0  0  0
 48 49  1  0  0  0
 49 50  1  0  0  0
 49 51  2  0  0  0
 50 52  2  0  0  0
 51 53  1  0  0  0
 52 54  1  0  0  0
 53 54  2  0  0  0
 46 41  1  0  0  0
 41 37  1  0  0  0
 41 55  1  0  0  0
 37 38  2  0  0  0
 37 39  1  0  0  0
 55 56  1  0  0  0
 55 57  1  0  0  0
 39 36  1  0  0  0
 36 58  1  0  0  0
 36  1  1  0  0  0
 58 59  1  0  0  0
 59 60  2  0  0  0
 59 64  1  0  0  0
 60 61  1  0  0  0
 61 62  2  0  0  0
 62 63  1  0  0  0
 63 64  2  0  0  0
  1  2  1  0  0  0
  1  5  1  0  0  0
  4  5  1  0  0  0
  5  7  1  0  0  0
  8  7  1  0  0  0
  8  9  1  0  0  0
  7 29  1  0  0  0
 29 30  1  0  0  0
 30 31  2  0  0  0
 30 35  1  0  0  0
 31 32  1  0  0  0
 32 33  2  0  0  0
 33 34  1  0  0  0
 34 35  2  0  0  0
 13 12  1  0  0  0
 13 14  1  0  0  0
 12  9  1  0  0  0
 12 26  1  0  0  0
  9 10  2  0  0  0
 26 27  1  0  0  0
 26 28  1  0  0  0
 14 15  2  0  0  0
 14 16  1  0  0  0
 16 17  1  0  0  0
 16 19  1  0  0  0
 19 20  1  0  0  0
 20 21  1  0  0  0
 20 22  2  0  0  0
 21 23  2  0  0  0
 22 24  1  0  0  0
 23 25  1  0  0  0
 24 25  2  0  0  0
 46 47  1  0  0  0
 39 40  1  0  0  0
  2  3  1  0  0  0
  4  6  1  0  0  0
  8 11  1  0  0  0
 13 18  1  0  0  0
M  END
> <minimizedAffinity>
-10.07177

$$$$
1HVL_A76_B_800


 64 67  0  0  0  0  0  0  0  0999 V2000
    3.5666   -1.8722   15.0432 C   0  0  0  0  0  0  0  0  0  0  0  0
    2.5169   -1.3969   15.8812 O   0  0  0  0  0  0  0  0  0  0  0  0
    2.8447   -1.3052   16.7895 H   0  0  0  0  0  0  0  0  0  0  0  0
    4.0472    0.3153   15.7386 O   0  0  0  0  0  0  0  0  0  0  0  0
    4.6299   -0.8082   15.0724 C   0  0  0  0  0  0  0  0  0  0  0  0
    3.7403    0.0459   16.6185 H   0  0  0  0  0  0  0  0  0  0  0  0
    5.1087   -0.3841   13.6974 C   0  0  0  0  0  0  0  0  0  0  0  0
    4.1415    0.5139   13.0694 N   0  0  0  0  0  0  0  0  0  0  0  0
    3.3370    0.1983   12.0522 C   0  0  0  0  0  0  0  0  0  0  0  0
    3.3113   -0.9151   11.5762 O   0  0  0  0  0  0  0  0  0  0  0  0
    4.0780    1.4291   13.4268 H   0  0  0  0  0  0  0  0  0  0  0  0
    2.3972    1.3372   11.5784 C   0  0  0  0  0  0  0  0  0  0  0  0
    3.0187    2.1969   10.5616 N   0  0  0  0  0  0  0  0  0  0  0  0
    3.3380    3.4752   10.7526 C   0  0  0  0  0  0  0  0  0  0  0  0
    3.0495    4.0846   11.7738 O   0  0  0  0  0  0  0  0  0  0  0  0
    3.9971    4.0788    9.7346 N   0  0  0  0  0  0  0  0  0  0  0  0
    4.4197    3.3768    8.5182 C   0  0  0  0  0  0  0  0  0  0  0  0
    3.2116    1.8015    9.6809 H   0  0  0  0  0  0  0  0  0  0  0  0
    4.4018    5.4825    9.9051 C   0  0  0  0  0  0  0  0  0  0  0  0
    5.7461    5.5992   10.5876 C   0  0  0  0  0  0  0  0  0  0  0  0
    6.9151    5.5034    9.8195 C   0  0  0  0  0  0  0  0  0  0  0  0
    5.7465    5.7708   11.9180 N   0  0  0  0  0  0  0  0  0  0  0  0
    8.1456    5.5840   10.4683 C   0  0  0  0  0  0  0  0  0  0  0  0
    6.9369    5.8330   12.5344 C   0  0  0  0  0  0  0  0  0  0  0  0
    8.1592    5.7463   11.8549 C   0  0  0  0  0  0  0  0  0  0  0  0
    1.0306    0.7694   11.1261 C   0  0  0  0  0  0  0  0  0  0  0  0
    0.2037    1.8245   10.3979 C   0  0  0  0  0  0  0  0  0  0  0  0
    0.2268    0.2461   12.3259 C   0  0  0  0  0  0  0  0  0  0  0  0
    6.4515    0.3264   13.8086 C   0  0  0  0  0  0  0  0  0  0  0  0
    7.1010    0.5884   12.4659 C   0  0  0  0  0  0  0  0  0  0  0  0
    6.8511    1.7937   11.7959 C   0  0  0  0  0  0  0  0  0  0  0  0
    7.4574    2.0414   10.5576 C   0  0  0  0  0  0  0  0  0  0  0  0
    8.3143    1.0922    9.9938 C   0  0  0  0  0  0  0  0  0  0  0  0
    8.5633   -0.1104   10.6574 C   0  0  0  0  0  0  0  0  0  0  0  0
    7.9639   -0.3679   11.8891 C   0  0  0  0  0  0  0  0  0  0  0  0
    3.9264   -3.2378   15.5880 C   0  0  0  0  0  0  0  0  0  0  0  0
    6.2644   -4.1650   15.9579 C   0  0  0  0  0  0  0  0  0  0  0  0
    6.1262   -5.0805   15.1708 O   0  0  0  0  0  0  0  0  0  0  0  0
    5.2918   -3.2683   16.1951 N   0  0  0  0  0  0  0  0  0  0  0  0
    5.5016   -2.5537   16.8389 H   0  0  0  0  0  0  0  0  0  0  0  0
    7.5774   -3.9589   16.7603 C   0  0  0  0  0  0  0  0  0  0  0  0
    7.7517   -6.0525   18.0644 C   0  0  0  0  0  0  0  0  0  0  0  0
    6.9092   -5.6780   18.8550 O   0  0  0  0  0  0  0  0  0  0  0  0
    8.2716   -7.2861   18.1580 N   0  0  0  0  0  0  0  0  0  0  0  0
    9.2989   -7.7796   17.2362 C   0  0  0  0  0  0  0  0  0  0  0  0
    8.1985   -5.2706   17.0789 N   0  0  0  0  0  0  0  0  0  0  0  0
    8.9673   -5.5740   16.5440 H   0  0  0  0  0  0  0  0  0  0  0  0
    7.7118   -8.1906   19.1640 C   0  0  0  0  0  0  0  0  0  0  0  0
    6.5506   -9.0310   18.6760 C   0  0  0  0  0  0  0  0  0  0  0  0
    6.4167   -9.2572   17.3116 C   0  0  0  0  0  0  0  0  0  0  0  0
    5.7555   -9.5894   19.5823 N   0  0  0  0  0  0  0  0  0  0  0  0
    5.4156  -10.1313   16.9043 C   0  0  0  0  0  0  0  0  0  0  0  0
    4.8067  -10.4322   19.1945 C   0  0  0  0  0  0  0  0  0  0  0  0
    4.6020  -10.7432   17.8605 C   0  0  0  0  0  0  0  0  0  0  0  0
    8.5883   -3.0144   16.0312 C   0  0  0  0  0  0  0  0  0  0  0  0
    8.2368   -2.8029   14.5472 C   0  0  0  0  0  0  0  0  0  0  0  0
   10.0432   -3.4751   16.1409 C   0  0  0  0  0  0  0  0  0  0  0  0
    2.8354   -3.5448   16.6198 C   0  0  0  0  0  0  0  0  0  0  0  0
    2.8007   -4.9718   17.0039 C   0  0  0  0  0  0  0  0  0  0  0  0
    2.5991   -5.9269   16.0179 C   0  0  0  0  0  0  0  0  0  0  0  0
    2.5796   -7.2584   16.3699 C   0  0  0  0  0  0  0  0  0  0  0  0
    2.7703   -7.6385   17.7015 C   0  0  0  0  0  0  0  0  0  0  0  0
    2.9522   -6.6750   18.6808 C   0  0  0  0  0  0  0  0  0  0  0  0
    2.9703   -5.3351   18.3364 C   0  0  0  0  0  0  0  0  0  0  0  0
 42 43  2  0  0  0
 42 44  1  0  0  0
 42 46  1  0  0  0
 44 45  1  0  0  0
 44 48  1  0  0  0
 48 49  1  0  0  0
 49 50  1  0  0  0
 49 51  2  0  0  0
 50 52  2  0  0  0
 51 53  1  0  0  0
 52 54  1  0  0  0
 53 54  2  0  0  0
 46 41  1  0  0  0
 41 37  1  0  0  0
 41 55  1  0  0  0
 37 38  2  0  0  0
 37 39  1  0  0  0
 55 56  1  0  0  0
 55 57  1  0  0  0
 39 36  1  0  0  0
 36 58  1  0  0  0
 36  1  1  0  0  0
 58 59  1  0  0  0
 59 60  2  0  0  0
 59 64  1  0  0  0
 60 61  1  0  0  0
 61 62  2  0  0  0
 62 63  1  0  0  0
 63 64  2  0  0  0
  1  2  1  0  0  0
  1  5  1  0  0  0
  4  5  1  0  0  0
  5  7  1  0  0  0
  8  7  1  0  0  0
  8  9  1  0  0  0
  7 29  1  0  0  0
 29 30  1  0  0  0
 30 31  2  0  0  0
 30 35  1  0  0  0
 31 32  1  0  0  0
 32 33  2  0  0  0
 33 34  1  0  0  0
 34 35  2  0  0  0
 13 12  1  0  0  0
 13 14  1  0  0  0
 12  9  1  0  0  0
 12 26  1  0  0  0
  9 10  2  0  0  0
 26 27  1  0  0  0
 26 28  1  0  0  0
 14 15  2  0  0  0
 14 16  1  0  0  0
 16 17  1  0  0  0
 16 19  1  0  0  0
 19 20  1  0  0  0
 20 21  1  0  0  0
 20 22  2  0  0  0
 21 23  2  0  0  0
 22 24  1  0  0  0
 23 25  1  0  0  0
 24 25  2  0  0  0
 46 47  1  0  0  0
 39 40  1  0  0  0
  2  3  1  0  0  0
  4  6  1  0  0  0
  8 11  1  0  0  0
 13 18  1  0  0  0
M  END
> <minimizedAffinity>
-9.83131

$$$$
1HVL_A76_B_800


 64 67  0  0  0  0  0  0  0  0999 V2000
    3.5462   -3.6826   14.6785 C   0  0  0  0  0  0  0  0  0  0  0  0
    2.3875   -4.4693   14.9407 O   0  0  0  0  0  0  0  0  0  0  0  0
    2.0963   -4.3215   15.8541 H   0  0  0  0  0  0  0  0  0  0  0  0
    1.7327   -2.2132   14.4506 O   0  0  0  0  0  0  0  0  0  0  0  0
    3.1123   -2.2496   14.8259 C   0  0  0  0  0  0  0  0  0  0  0  0
    1.2307   -2.8319   15.0039 H   0  0  0  0  0  0  0  0  0  0  0  0
    3.8944   -1.2816   13.9593 C   0  0  0  0  0  0  0  0  0  0  0  0
    3.0107   -0.2595   13.4018 N   0  0  0  0  0  0  0  0  0  0  0  0
    3.0242    0.1725   12.1391 C   0  0  0  0  0  0  0  0  0  0  0  0
    3.7705   -0.2966   11.3084 O   0  0  0  0  0  0  0  0  0  0  0  0
    2.3495    0.1444   14.0092 H   0  0  0  0  0  0  0  0  0  0  0  0
    1.9724    1.2618   11.8048 C   0  0  0  0  0  0  0  0  0  0  0  0
    2.4002    2.1441   10.7104 N   0  0  0  0  0  0  0  0  0  0  0  0
    2.9661    3.3365   10.8848 C   0  0  0  0  0  0  0  0  0  0  0  0
    3.0935    3.8545   11.9861 O   0  0  0  0  0  0  0  0  0  0  0  0
    3.3872    3.9618    9.7593 N   0  0  0  0  0  0  0  0  0  0  0  0
    3.3136    3.3577    8.4249 C   0  0  0  0  0  0  0  0  0  0  0  0
    2.2590    1.8329    9.7871 H   0  0  0  0  0  0  0  0  0  0  0  0
    4.0480    5.2686    9.8970 C   0  0  0  0  0  0  0  0  0  0  0  0
    5.4044    5.1442   10.5536 C   0  0  0  0  0  0  0  0  0  0  0  0
    6.3497    4.2621   10.0113 C   0  0  0  0  0  0  0  0  0  0  0  0
    5.6255    5.8831   11.6510 N   0  0  0  0  0  0  0  0  0  0  0  0
    7.5842    4.1380   10.6456 C   0  0  0  0  0  0  0  0  0  0  0  0
    6.8124    5.7454   12.2620 C   0  0  0  0  0  0  0  0  0  0  0  0
    7.8205    4.8898   11.7981 C   0  0  0  0  0  0  0  0  0  0  0  0
    0.5845    0.6260   11.5515 C   0  0  0  0  0  0  0  0  0  0  0  0
   -0.2412    1.4625   10.5790 C   0  0  0  0  0  0  0  0  0  0  0  0
   -0.1981    0.4696   12.8640 C   0  0  0  0  0  0  0  0  0  0  0  0
    4.9830   -0.6059   14.7831 C   0  0  0  0  0  0  0  0  0  0  0  0
    6.1694   -0.1610   13.9540 C   0  0  0  0  0  0  0  0  0  0  0  0
    6.7133   -1.0283   12.9968 C   0  0  0  0  0  0  0  0  0  0  0  0
    7.8057   -0.6156   12.2230 C   0  0  0  0  0  0  0  0  0  0  0  0
    8.3486    0.6600   12.4001 C   0  0  0  0  0  0  0  0  0  0  0  0
    7.8109    1.5254   13.3543 C   0  0  0  0  0  0  0  0  0  0  0  0
    6.7251    1.1242   14.1308 C   0  0  0  0  0  0  0  0  0  0  0  0
    4.6031   -4.1966   15.6325 C   0  0  0  0  0  0  0  0  0  0  0  0
    3.2783   -5.1609   17.5761 C   0  0  0  0  0  0  0  0  0  0  0  0
    2.8410   -4.0846   17.9326 O   0  0  0  0  0  0  0  0  0  0  0  0
    4.0924   -5.2897   16.5146 N   0  0  0  0  0  0  0  0  0  0  0  0
    4.3842   -6.2037   16.2941 H   0  0  0  0  0  0  0  0  0  0  0  0
    2.9360   -6.4781   18.3232 C   0  0  0  0  0  0  0  0  0  0  0  0
    3.4802   -8.8076   17.6976 C   0  0  0  0  0  0  0  0  0  0  0  0
    2.3492   -9.1793   17.9379 O   0  0  0  0  0  0  0  0  0  0  0  0
    4.3813   -9.6592   17.1840 N   0  0  0  0  0  0  0  0  0  0  0  0
    5.7609   -9.2619   16.8887 C   0  0  0  0  0  0  0  0  0  0  0  0
    3.8805   -7.5552   17.9288 N   0  0  0  0  0  0  0  0  0  0  0  0
    4.8360   -7.3375   17.8346 H   0  0  0  0  0  0  0  0  0  0  0  0
    3.9255  -11.0029   16.8233 C   0  0  0  0  0  0  0  0  0  0  0  0
    3.4583  -11.1437   15.3899 C   0  0  0  0  0  0  0  0  0  0  0  0
    4.1841  -10.5144   14.3859 C   0  0  0  0  0  0  0  0  0  0  0  0
    2.4205  -11.9358   15.1429 N   0  0  0  0  0  0  0  0  0  0  0  0
    3.8039  -10.7620   13.0719 C   0  0  0  0  0  0  0  0  0  0  0  0
    2.0641  -12.1808   13.8884 C   0  0  0  0  0  0  0  0  0  0  0  0
    2.7336  -11.6211   12.8129 C   0  0  0  0  0  0  0  0  0  0  0  0
    2.8964   -6.2984   19.8762 C   0  0  0  0  0  0  0  0  0  0  0  0
    4.2612   -6.5624   20.5380 C   0  0  0  0  0  0  0  0  0  0  0  0
    1.8319   -7.1559   20.5636 C   0  0  0  0  0  0  0  0  0  0  0  0
    5.7428   -4.6780   14.7278 C   0  0  0  0  0  0  0  0  0  0  0  0
    7.0519   -4.1071   15.1088 C   0  0  0  0  0  0  0  0  0  0  0  0
    8.2081   -4.6882   14.6081 C   0  0  0  0  0  0  0  0  0  0  0  0
    9.4294   -4.1508   14.9500 C   0  0  0  0  0  0  0  0  0  0  0  0
    9.4983   -3.0298   15.7821 C   0  0  0  0  0  0  0  0  0  0  0  0
    8.3378   -2.4689   16.2912 C   0  0  0  0  0  0  0  0  0  0  0  0
    7.1070   -3.0042   15.9553 C   0  0  0  0  0  0  0  0  0  0  0  0
 42 43  2  0  0  0
 42 44  1  0  0  0
 42 46  1  0  0  0
 44 45  1  0  0  0
 44 48  1  0  0  0
 48 49  1  0  0  0
 49 50  1  0  0  0
 49 51  2  0  0  0
 50 52  2  0  0  0
 51 53  1  0  0  0
 52 54  1  0  0  0
 53 54  2  0  0  0
 46 41  1  0  0  0
 41 37  1  0  0  0
 41 55  1  0  0  0
 37 38  2  0  0  0
 37 39  1  0  0  0
 55 56  1  0  0  0
 55 57  1  0  0  0
 39 36  1  0  0  0
 36 58  1  0  0  0
 36  1  1  0  0  0
 58 59  1  0  0  0
 59 60  2  0  0  0
 59 64  1  0  0  0
 60 61  1  0  0  0
 61 62  2  0  0  0
 62 63  1  0  0  0
 63 64  2  0  0  0
  1  2  1  0  0  0
  1  5  1  0  0  0
  4  5  1  0  0  0
  5  7  1  0  0  0
  8  7  1  0  0  0
  8  9  1  0  0  0
  7 29  1  0  0  0
 29 30  1  0  0  0
 30 31  2  0  0  0
 30 35  1  0  0  0
 31 32  1  0  0  0
 32 33  2  0  0  0
 33 34  1  0  0  0
 34 35  2  0  0  0
 13 12  1  0  0  0
 13 14  1  0  0  0
 12  9  1  0  0  0
 12 26  1  0  0  0
  9 10  2  0  0  0
 26 27  1  0  0  0
 26 28  1  0  0  0
 14 15  2  0  0  0
 14 16  1  0  0  0
 16 17  1  0  0  0
 16 19  1  0  0  0
 19 20  1  0  0  0
 20 21  1  0  0  0
 20 22  2  0  0  0
 21 23  2  0  0  0
 22 24  1  0  0  0
 23 25  1  0  0  0
 24 25  2  0  0  0
 46 47  1  0  0  0
 39 40  1  0  0  0
  2  3  1  0  0  0
  4  6  1  0  0  0
  8 11  1  0  0  0
 13 18  1  0  0  0
M  END
> <minimizedAffinity>
-9.40760

$$$$
1HVL_A76_B_800


 64 67  0  0  0  0  0  0  0  0999 V2000
    5.0644   -0.6351   15.3825 C   0  0  0  0  0  0  0  0  0  0  0  0
    4.9589    0.0881   16.6057 O   0  0  0  0  0  0  0  0  0  0  0  0
    5.8455    0.3306   16.9155 H   0  0  0  0  0  0  0  0  0  0  0  0
    6.3294    1.3282   15.1708 O   0  0  0  0  0  0  0  0  0  0  0  0
    5.6827    0.3161   14.3944 C   0  0  0  0  0  0  0  0  0  0  0  0
    6.9715    0.9155   15.7695 H   0  0  0  0  0  0  0  0  0  0  0  0
    4.6797    0.9643   13.4597 C   0  0  0  0  0  0  0  0  0  0  0  0
    5.3250    1.9904   12.6429 N   0  0  0  0  0  0  0  0  0  0  0  0
    6.4903    1.8555   12.0063 C   0  0  0  0  0  0  0  0  0  0  0  0
    7.1116    0.8159   12.0187 O   0  0  0  0  0  0  0  0  0  0  0  0
    4.8608    2.8541   12.5549 H   0  0  0  0  0  0  0  0  0  0  0  0
    6.9476    3.0987   11.2000 C   0  0  0  0  0  0  0  0  0  0  0  0
    6.2240    3.2462    9.9296 N   0  0  0  0  0  0  0  0  0  0  0  0
    6.8107    3.3470    8.7388 C   0  0  0  0  0  0  0  0  0  0  0  0
    8.0244    3.4251    8.6027 O   0  0  0  0  0  0  0  0  0  0  0  0
    5.9791    3.3732    7.6698 N   0  0  0  0  0  0  0  0  0  0  0  0
    4.5242    3.2207    7.7755 C   0  0  0  0  0  0  0  0  0  0  0  0
    5.2404    3.2723    9.9612 H   0  0  0  0  0  0  0  0  0  0  0  0
    6.5757    3.4522    6.3277 C   0  0  0  0  0  0  0  0  0  0  0  0
    6.8039    2.0802    5.7344 C   0  0  0  0  0  0  0  0  0  0  0  0
    5.7004    1.3200    5.3216 C   0  0  0  0  0  0  0  0  0  0  0  0
    8.0716    1.6495    5.6528 N   0  0  0  0  0  0  0  0  0  0  0  0
    5.9264    0.0463    4.8039 C   0  0  0  0  0  0  0  0  0  0  0  0
    8.2768    0.4159    5.1657 C   0  0  0  0  0  0  0  0  0  0  0  0
    7.2405   -0.4197    4.7288 C   0  0  0  0  0  0  0  0  0  0  0  0
    6.8852    4.3739   12.0743 C   0  0  0  0  0  0  0  0  0  0  0  0
    5.7308    5.2791   11.6558 C   0  0  0  0  0  0  0  0  0  0  0  0
    8.1979    5.1669   11.9869 C   0  0  0  0  0  0  0  0  0  0  0  0
    4.0627   -0.0869   12.5461 C   0  0  0  0  0  0  0  0  0  0  0  0
    2.5534    0.0053   12.4643 C   0  0  0  0  0  0  0  0  0  0  0  0
    1.9379    0.2562   11.2304 C   0  0  0  0  0  0  0  0  0  0  0  0
    0.5415    0.3338   11.1511 C   0  0  0  0  0  0  0  0  0  0  0  0
   -0.2371    0.1554   12.2980 C   0  0  0  0  0  0  0  0  0  0  0  0
    0.3729   -0.0922   13.5289 C   0  0  0  0  0  0  0  0  0  0  0  0
    1.7616   -0.1696   13.6193 C   0  0  0  0  0  0  0  0  0  0  0  0
    5.8379   -1.8903   15.7253 C   0  0  0  0  0  0  0  0  0  0  0  0
    4.4257   -3.7843   14.7869 C   0  0  0  0  0  0  0  0  0  0  0  0
    4.6296   -3.4854   13.6269 O   0  0  0  0  0  0  0  0  0  0  0  0
    4.9594   -3.0964   15.8107 N   0  0  0  0  0  0  0  0  0  0  0  0
    4.7488   -3.4225   16.7154 H   0  0  0  0  0  0  0  0  0  0  0  0
    3.5249   -4.9854   15.1826 C   0  0  0  0  0  0  0  0  0  0  0  0
    4.0525   -6.9163   16.6343 C   0  0  0  0  0  0  0  0  0  0  0  0
    3.5695   -7.6975   15.8396 O   0  0  0  0  0  0  0  0  0  0  0  0
    4.6593   -7.3635   17.7445 N   0  0  0  0  0  0  0  0  0  0  0  0
    5.2461   -6.4606   18.7390 C   0  0  0  0  0  0  0  0  0  0  0  0
    4.0051   -5.5950   16.4497 N   0  0  0  0  0  0  0  0  0  0  0  0
    4.2990   -5.0031   17.1795 H   0  0  0  0  0  0  0  0  0  0  0  0
    4.8152   -8.8105   17.9041 C   0  0  0  0  0  0  0  0  0  0  0  0
    6.2479   -9.2738   18.0634 C   0  0  0  0  0  0  0  0  0  0  0  0
    7.1156   -9.1442   16.9858 C   0  0  0  0  0  0  0  0  0  0  0  0
    6.6385   -9.7067   19.2573 N   0  0  0  0  0  0  0  0  0  0  0  0
    8.4516   -9.4629   17.1996 C   0  0  0  0  0  0  0  0  0  0  0  0
    7.9158  -10.0006   19.4647 C   0  0  0  0  0  0  0  0  0  0  0  0
    8.8667   -9.8861   18.4643 C   0  0  0  0  0  0  0  0  0  0  0  0
    2.0121   -4.6003   15.2756 C   0  0  0  0  0  0  0  0  0  0  0  0
    1.1035   -5.5792   14.5097 C   0  0  0  0  0  0  0  0  0  0  0  0
    1.7151   -3.1731   14.8110 C   0  0  0  0  0  0  0  0  0  0  0  0
    6.8812   -2.0211   14.6102 C   0  0  0  0  0  0  0  0  0  0  0  0
    7.9902   -2.9290   14.9719 C   0  0  0  0  0  0  0  0  0  0  0  0
    8.9717   -2.4753   15.8415 C   0  0  0  0  0  0  0  0  0  0  0  0
    9.9993   -3.3230   16.1916 C   0  0  0  0  0  0  0  0  0  0  0  0
   10.0441   -4.6243   15.6834 C   0  0  0  0  0  0  0  0  0  0  0  0
    9.0686   -5.0605   14.8010 C   0  0  0  0  0  0  0  0  0  0  0  0
    8.0343   -4.2147   14.4417 C   0  0  0  0  0  0  0  0  0  0  0  0
 42 43  2  0  0  0
 42 44  1  0  0  0
 42 46  1  0  0  0
 44 45  1  0  0  0
 44 48  1  0  0  0
 48 49  1  0  0  0
 49 50  1  0  0  0
 49 51  2  0  0  0
 50 52  2  0  0  0
 51 53  1  0  0  0
 52 54  1  0  0  0
 53 54  2  0  0  0
 46 41  1  0  0  0
 41 37  1  0  0  0
 41 55  1  0  0  0
 37 38  2  0  0  0
 37 39  1  0  0  0
 55 56  1  0  0  0
 55 57  1  0  0  0
 39 36  1  0  0  0
 36 58  1  0  0  0
 36  1  1  0  0  0
 58 59  1  0  0  0
 59 60  2  0  0  0
 59 64  1  0  0  0
 60 61  1  0  0  0
 61 62  2  0  0  0
 62 63  1  0  0  0
 63 64  2  0  0  0
  1  2  1  0  0  0
  1  5  1  0  0  0
  4  5  1  0  0  0
  5  7  1  0  0  0
  8  7  1  0  0  0
  8  9  1  0  0  0
  7 29  1  0  0  0
 29 30  1  0  0  0
 30 31  2  0  0  0
 30 35  1  0  0  0
 31 32  1  0  0  0
 32 33  2  0  0  0
 33 34  1  0  0  0
 34 35  2  0  0  0
 13 12  1  0  0  0
 13 14  1  0  0  0
 12  9  1  0  0  0
 12 26  1  0  0  0
  9 10  2  0  0  0
 26 27  1  0  0  0
 26 28  1  0  0  0
 14 15  2  0  0  0
 14 16  1  0  0  0
 16 17  1  0  0  0
 16 19  1  0  0  0
 19 20  1  0  0  0
 20 21  1  0  0  0
 20 22  2  0  0  0
 21 23  2  0  0  0
 22 24  1  0  0  0
 23 25  1  0  0  0
 24 25  2  0  0  0
 46 47  1  0  0  0
 39 40  1  0  0  0
  2  3  1  0  0  0
  4  6  1  0  0  0
  8 11  1  0  0  0
 13 18  1  0  0  0
M  END
> <minimizedAffinity>
-8.94789

$$$$
1HVL_A76_B_800


 64 67  0  0  0  0  0  0  0  0999 V2000
    4.3705   -3.7114   16.2321 C   0  0  0  0  0  0  0  0  0  0  0  0
    3.4970   -4.3097   17.1857 O   0  0  0  0  0  0  0  0  0  0  0  0
    3.7270   -3.9979   18.0750 H   0  0  0  0  0  0  0  0  0  0  0  0
    2.6974   -2.0816   16.4414 O   0  0  0  0  0  0  0  0  0  0  0  0
    4.1138   -2.2312   16.3111 C   0  0  0  0  0  0  0  0  0  0  0  0
    2.3906   -2.5730   17.2194 H   0  0  0  0  0  0  0  0  0  0  0  0
    4.5904   -1.4620   15.0941 C   0  0  0  0  0  0  0  0  0  0  0  0
    3.5135   -0.6349   14.5531 N   0  0  0  0  0  0  0  0  0  0  0  0
    3.1220   -0.6087   13.2774 C   0  0  0  0  0  0  0  0  0  0  0  0
    3.6181   -1.3285   12.4390 O   0  0  0  0  0  0  0  0  0  0  0  0
    3.0366   -0.0475   15.1829 H   0  0  0  0  0  0  0  0  0  0  0  0
    1.9467    0.3548   12.9693 C   0  0  0  0  0  0  0  0  0  0  0  0
    2.3424    1.4683   12.0959 N   0  0  0  0  0  0  0  0  0  0  0  0
    3.4904    2.1341   12.2017 C   0  0  0  0  0  0  0  0  0  0  0  0
    4.2874    1.9401   13.1099 O   0  0  0  0  0  0  0  0  0  0  0  0
    3.7266    3.0621   11.2436 N   0  0  0  0  0  0  0  0  0  0  0  0
    2.8340    3.2887   10.1022 C   0  0  0  0  0  0  0  0  0  0  0  0
    1.7172    1.7399   11.3856 H   0  0  0  0  0  0  0  0  0  0  0  0
    4.9948    3.8054   11.2946 C   0  0  0  0  0  0  0  0  0  0  0  0
    6.0244    3.2220   10.3534 C   0  0  0  0  0  0  0  0  0  0  0  0
    7.2054    3.9350   10.1027 C   0  0  0  0  0  0  0  0  0  0  0  0
    5.7370    2.0421    9.7838 N   0  0  0  0  0  0  0  0  0  0  0  0
    8.1305    3.3968    9.2104 C   0  0  0  0  0  0  0  0  0  0  0  0
    6.6285    1.5397    8.9155 C   0  0  0  0  0  0  0  0  0  0  0  0
    7.8354    2.1769    8.5987 C   0  0  0  0  0  0  0  0  0  0  0  0
    0.7250   -0.4247   12.4266 C   0  0  0  0  0  0  0  0  0  0  0  0
    0.1571    0.2341   11.1733 C   0  0  0  0  0  0  0  0  0  0  0  0
   -0.3832   -0.5199   13.4861 C   0  0  0  0  0  0  0  0  0  0  0  0
    5.7664   -0.5691   15.4686 C   0  0  0  0  0  0  0  0  0  0  0  0
    6.6245   -0.1836   14.2820 C   0  0  0  0  0  0  0  0  0  0  0  0
    6.8338   -1.1047   13.2466 C   0  0  0  0  0  0  0  0  0  0  0  0
    7.6206   -0.7472   12.1441 C   0  0  0  0  0  0  0  0  0  0  0  0
    8.1908    0.5268   12.0731 C   0  0  0  0  0  0  0  0  0  0  0  0
    7.9864    1.4457   13.1038 C   0  0  0  0  0  0  0  0  0  0  0  0
    7.2067    1.0997   14.2061 C   0  0  0  0  0  0  0  0  0  0  0  0
    5.7556   -4.2030   16.5945 C   0  0  0  0  0  0  0  0  0  0  0  0
    6.7092   -5.8697   18.2604 C   0  0  0  0  0  0  0  0  0  0  0  0
    7.7830   -5.3077   18.3487 O   0  0  0  0  0  0  0  0  0  0  0  0
    5.7204   -5.4104   17.4747 N   0  0  0  0  0  0  0  0  0  0  0  0
    4.8813   -5.9254   17.4794 H   0  0  0  0  0  0  0  0  0  0  0  0
    6.3928   -7.1710   19.0458 C   0  0  0  0  0  0  0  0  0  0  0  0
    4.0556   -7.5441   19.7614 C   0  0  0  0  0  0  0  0  0  0  0  0
    4.3286   -7.3011   20.9197 O   0  0  0  0  0  0  0  0  0  0  0  0
    2.7858   -7.7807   19.3973 N   0  0  0  0  0  0  0  0  0  0  0  0
    2.4078   -8.0904   18.0153 C   0  0  0  0  0  0  0  0  0  0  0  0
    4.9873   -7.5892   18.8064 N   0  0  0  0  0  0  0  0  0  0  0  0
    4.7339   -7.9113   17.9112 H   0  0  0  0  0  0  0  0  0  0  0  0
    1.7422   -7.6257   20.4123 C   0  0  0  0  0  0  0  0  0  0  0  0
    1.0944   -8.9225   20.8498 C   0  0  0  0  0  0  0  0  0  0  0  0
   -0.1775   -8.8790   21.4077 C   0  0  0  0  0  0  0  0  0  0  0  0
    1.7362  -10.0594   20.6025 N   0  0  0  0  0  0  0  0  0  0  0  0
   -0.7949  -10.0929   21.6856 C   0  0  0  0  0  0  0  0  0  0  0  0
    1.1426  -11.2185   20.8577 C   0  0  0  0  0  0  0  0  0  0  0  0
   -0.1323  -11.2874   21.3943 C   0  0  0  0  0  0  0  0  0  0  0  0
    7.3926   -8.3293   18.7224 C   0  0  0  0  0  0  0  0  0  0  0  0
    7.5188   -8.5984   17.2117 C   0  0  0  0  0  0  0  0  0  0  0  0
    7.0617   -9.6400   19.4390 C   0  0  0  0  0  0  0  0  0  0  0  0
    6.4288   -4.4961   15.2492 C   0  0  0  0  0  0  0  0  0  0  0  0
    7.8767   -4.1986   15.2604 C   0  0  0  0  0  0  0  0  0  0  0  0
    8.7518   -5.1043   14.6780 C   0  0  0  0  0  0  0  0  0  0  0  0
   10.1004   -4.8242   14.6745 C   0  0  0  0  0  0  0  0  0  0  0  0
   10.5757   -3.6385   15.2421 C   0  0  0  0  0  0  0  0  0  0  0  0
    9.6945   -2.7501   15.8375 C   0  0  0  0  0  0  0  0  0  0  0  0
    8.3385   -3.0249   15.8481 C   0  0  0  0  0  0  0  0  0  0  0  0
 42 43  2  0  0  0
 42 44  1  0  0  0
 42 46  1  0  0  0
 44 45  1  0  0  0
 44 48  1  0  0  0
 48 49  1  0  0  0
 49 50  1  0  0  0
 49 51  2  0  0  0
 50 52  2  0  0  0
 51 53  1  0  0  0
 52 54  1  0  0  0
 53 54  2  0  0  0
 46 41  1  0  0  0
 41 37  1  0  0  0
 41 55  1  0  0  0
 37 38  2  0  0  0
 37 39  1  0  0  0
 55 56  1  0  0  0
 55 57  1  0  0  0
 39 36  1  0  0  0
 36 58  1  0  0  0
 36  1  1  0  0  0
 58 59  1  0  0  0
 59 60  2  0  0  0
 59 64  1  0  0  0
 60 61  1  0  0  0
 61 62  2  0  0  0
 62 63  1  0  0  0
 63 64  2  0  0  0
  1  2  1  0  0  0
  1  5  1  0  0  0
  4  5  1  0  0  0
  5  7  1  0  0  0
  8  7  1  0  0  0
  8  9  1  0  0  0
  7 29  1  0  0  0
 29 30  1  0  0  0
 30 31  2  0  0  0
 30 35  1  0  0  0
 31 32  1  0  0  0
 32 33  2  0  0  0
 33 34  1  0  0  0
 34 35  2  0  0  0
 13 12  1  0  0  0
 13 14  1  0  0  0
 12  9  1  0  0  0
 12 26  1  0  0  0
  9 10  2  0  0  0
 26 27  1  0  0  0
 26 28  1  0  0  0
 14 15  2  0  0  0
 14 16  1  0  0  0
 16 17  1  0  0  0
 16 19  1  0  0  0
 19 20  1  0  0  0
 20 21  1  0  0  0
 20 22  2  0  0  0
 21 23  2  0  0  0
 22 24  1  0  0  0
 23 25  1  0  0  0
 24 25  2  0  0  0
 46 47  1  0  0  0
 39 40  1  0  0  0
  2  3  1  0  0  0
  4  6  1  0  0  0
  8 11  1  0  0  0
 13 18  1  0  0  0
M  END
> <minimizedAffinity>
-8.94078

$$$$
1HVL_A76_B_800


 64 67  0  0  0  0  0  0  0  0999 V2000
    5.4455   -1.4495   15.9467 C   0  0  0  0  0  0  0  0  0  0  0  0
    5.5495   -0.9494   17.2768 O   0  0  0  0  0  0  0  0  0  0  0  0
    6.0103   -0.0959   17.2663 H   0  0  0  0  0  0  0  0  0  0  0  0
    4.5103    0.6990   16.0407 O   0  0  0  0  0  0  0  0  0  0  0  0
    4.6057   -0.4516   15.1967 C   0  0  0  0  0  0  0  0  0  0  0  0
    5.4010    1.0194   16.2525 H   0  0  0  0  0  0  0  0  0  0  0  0
    3.2118   -0.9501   14.8673 C   0  0  0  0  0  0  0  0  0  0  0  0
    2.5039    0.0159   14.0294 N   0  0  0  0  0  0  0  0  0  0  0  0
    2.7983    0.3038   12.7598 C   0  0  0  0  0  0  0  0  0  0  0  0
    3.6840   -0.2659   12.1615 O   0  0  0  0  0  0  0  0  0  0  0  0
    1.7457    0.4947   14.4359 H   0  0  0  0  0  0  0  0  0  0  0  0
    1.8818    1.3639   12.0957 C   0  0  0  0  0  0  0  0  0  0  0  0
    2.5125    2.0101   10.9365 N   0  0  0  0  0  0  0  0  0  0  0  0
    2.3119    3.2778   10.5824 C   0  0  0  0  0  0  0  0  0  0  0  0
    1.4976    4.0006   11.1409 O   0  0  0  0  0  0  0  0  0  0  0  0
    3.0586    3.7276    9.5456 N   0  0  0  0  0  0  0  0  0  0  0  0
    4.0900    2.9214    8.8843 C   0  0  0  0  0  0  0  0  0  0  0  0
    3.1238    1.4700   10.3853 H   0  0  0  0  0  0  0  0  0  0  0  0
    2.8997    5.1303    9.1326 C   0  0  0  0  0  0  0  0  0  0  0  0
    1.8638    5.2791    8.0411 C   0  0  0  0  0  0  0  0  0  0  0  0
    1.5159    4.1611    7.2698 C   0  0  0  0  0  0  0  0  0  0  0  0
    1.3400    6.4997    7.8538 N   0  0  0  0  0  0  0  0  0  0  0  0
    0.5811    4.3223    6.2491 C   0  0  0  0  0  0  0  0  0  0  0  0
    0.4512    6.6466    6.8591 C   0  0  0  0  0  0  0  0  0  0  0  0
    0.0406    5.5915    6.0338 C   0  0  0  0  0  0  0  0  0  0  0  0
    0.4962    0.7608   11.7626 C   0  0  0  0  0  0  0  0  0  0  0  0
    0.4302    0.2856   10.3145 C   0  0  0  0  0  0  0  0  0  0  0  0
   -0.6230    1.7852   12.0030 C   0  0  0  0  0  0  0  0  0  0  0  0
    3.2938   -2.2826   14.1339 C   0  0  0  0  0  0  0  0  0  0  0  0
    3.0487   -3.4753   15.0341 C   0  0  0  0  0  0  0  0  0  0  0  0
    2.9536   -4.7583   14.4782 C   0  0  0  0  0  0  0  0  0  0  0  0
    2.7350   -5.8640   15.3100 C   0  0  0  0  0  0  0  0  0  0  0  0
    2.6182   -5.6898   16.6918 C   0  0  0  0  0  0  0  0  0  0  0  0
    2.7100   -4.4130   17.2485 C   0  0  0  0  0  0  0  0  0  0  0  0
    2.9256   -3.3058   16.4297 C   0  0  0  0  0  0  0  0  0  0  0  0
    6.8719   -1.6540   15.4834 C   0  0  0  0  0  0  0  0  0  0  0  0
    7.2032   -4.1223   15.9934 C   0  0  0  0  0  0  0  0  0  0  0  0
    6.3126   -4.4899   15.2529 O   0  0  0  0  0  0  0  0  0  0  0  0
    7.5238   -2.8259   16.1435 N   0  0  0  0  0  0  0  0  0  0  0  0
    8.2692   -2.6262   16.7548 H   0  0  0  0  0  0  0  0  0  0  0  0
    8.0423   -5.1227   16.8334 C   0  0  0  0  0  0  0  0  0  0  0  0
    7.0021   -6.9054   18.1950 C   0  0  0  0  0  0  0  0  0  0  0  0
    7.4333   -6.4267   19.2247 O   0  0  0  0  0  0  0  0  0  0  0  0
    6.1918   -7.9745   18.2292 N   0  0  0  0  0  0  0  0  0  0  0  0
    5.6561   -8.5955   17.0142 C   0  0  0  0  0  0  0  0  0  0  0  0
    7.3070   -6.4035   16.9962 N   0  0  0  0  0  0  0  0  0  0  0  0
    7.0348   -6.9000   16.1908 H   0  0  0  0  0  0  0  0  0  0  0  0
    5.7616   -8.4661   19.5394 C   0  0  0  0  0  0  0  0  0  0  0  0
    4.3525   -8.0701   19.9270 C   0  0  0  0  0  0  0  0  0  0  0  0
    4.0867   -6.7351   20.2062 C   0  0  0  0  0  0  0  0  0  0  0  0
    3.4081   -9.0044   19.9002 N   0  0  0  0  0  0  0  0  0  0  0  0
    2.7623   -6.3825   20.4382 C   0  0  0  0  0  0  0  0  0  0  0  0
    2.1424   -8.6662   20.1110 C   0  0  0  0  0  0  0  0  0  0  0  0
    1.7666   -7.3600   20.3769 C   0  0  0  0  0  0  0  0  0  0  0  0
    9.4702   -5.3592   16.2409 C   0  0  0  0  0  0  0  0  0  0  0  0
    9.4332   -5.8181   14.7717 C   0  0  0  0  0  0  0  0  0  0  0  0
   10.3131   -6.3449   17.0527 C   0  0  0  0  0  0  0  0  0  0  0  0
    6.7652   -1.8396   13.9657 C   0  0  0  0  0  0  0  0  0  0  0  0
    7.1834   -0.6373   13.2144 C   0  0  0  0  0  0  0  0  0  0  0  0
    7.6606    0.4600   13.9169 C   0  0  0  0  0  0  0  0  0  0  0  0
    8.0641    1.5772   13.2196 C   0  0  0  0  0  0  0  0  0  0  0  0
    8.0011    1.5977   11.8234 C   0  0  0  0  0  0  0  0  0  0  0  0
    7.5053    0.5030   11.1332 C   0  0  0  0  0  0  0  0  0  0  0  0
    7.0952   -0.6222   11.8259 C   0  0  0  0  0  0  0  0  0  0  0  0
 42 43  2  0  0  0
 42 44  1  0  0  0
 42 46  1  0  0  0
 44 45  1  0  0  0
 44 48  1  0  0  0
 48 49  1  0  0  0
 49 50  1  0  0  0
 49 51  2  0  0  0
 50 52  2  0  0  0
 51 53  1  0  0  0
 52 54  1  0  0  0
 53 54  2  0  0  0
 46 41  1  0  0  0
 41 37  1  0  0  0
 41 55  1  0  0  0
 37 38  2  0  0  0
 37 39  1  0  0  0
 55 56  1  0  0  0
 55 57  1  0  0  0
 39 36  1  0  0  0
 36 58  1  0  0  0
 36  1  1  0  0  0
 58 59  1  0  0  0
 59 60  2  0  0  0
 59 64  1  0  0  0
 60 61  1  0  0  0
 61 62  2  0  0  0
 62 63  1  0  0  0
 63 64  2  0  0  0
  1  2  1  0  0  0
  1  5  1  0  0  0
  4  5  1  0  0  0
  5  7  1  0  0  0
  8  7  1  0  0  0
  8  9  1  0  0  0
  7 29  1  0  0  0
 29 30  1  0  0  0
 30 31  2  0  0  0
 30 35  1  0  0  0
 31 32  1  0  0  0
 32 33  2  0  0  0
 33 34  1  0  0  0
 34 35  2  0  0  0
 13 12  1  0  0  0
 13 14  1  0  0  0
 12  9  1  0  0  0
 12 26  1  0  0  0
  9 10  2  0  0  0
 26 27  1  0  0  0
 26 28  1  0  0  0
 14 15  2  0  0  0
 14 16  1  0  0  0
 16 17  1  0  0  0
 16 19  1  0  0  0
 19 20  1  0  0  0
 20 21  1  0  0  0
 20 22  2  0  0  0
 21 23  2  0  0  0
 22 24  1  0  0  0
 23 25  1  0  0  0
 24 25  2  0  0  0
 46 47  1  0  0  0
 39 40  1  0  0  0
  2  3  1  0  0  0
  4  6  1  0  0  0
  8 11  1  0  0  0
 13 18  1  0  0  0
M  END
> <minimizedAffinity>
-8.86378

$$$$
