1RD4_L08_A_328


 34 37  0  0  0  0  0  0  0  0999 V2000
    1.9824   -5.1427   -7.2485 C   0  0  0  0  0  0  0  0  0  0  0  0
    3.1747   -6.0031   -7.4310 C   0  0  0  0  0  0  0  0  0  0  0  0
    2.9683   -7.4494   -7.7078 C   0  0  0  0  0  0  0  0  0  0  0  0
    1.6660   -8.0314   -7.8012 C   0  0  0  0  0  0  0  0  0  0  0  0
    0.4511   -7.2191   -7.6291 C   0  0  0  0  0  0  0  0  0  0  0  0
    0.6231   -5.7994   -7.3567 C   0  0  0  0  0  0  0  0  0  0  0  0
   -0.9169   -7.8873   -7.7302 C   0  0  0  0  0  0  0  0  0  0  0  0
   -2.0442   -7.5456   -6.8599 C   0  0  0  0  0  0  0  0  0  0  0  0
   -3.2754   -8.2673   -7.0688 C   0  0  0  0  0  0  0  0  0  0  0  0
   -3.4018   -9.2894   -8.0893 N   0  0  0  0  0  0  0  0  0  0  0  0
   -2.4308   -9.6301   -8.8867 C   0  0  0  0  0  0  0  0  0  0  0  0
   -1.0860   -8.9161   -8.7402 C   0  0  0  0  0  0  0  0  0  0  0  0
   -2.5465  -10.6542   -9.8984 N   0  0  0  0  0  0  0  0  0  0  0  0
   -2.4856  -10.1345  -11.2551 C   0  0  0  0  0  0  0  0  0  0  0  0
   -1.4210  -10.8867  -11.9912 C   0  0  0  0  0  0  0  0  0  0  0  0
   -1.6383  -12.3734  -11.8104 N   0  0  0  0  0  0  0  0  0  0  0  0
   -1.6628  -12.8747  -10.3668 C   0  0  0  0  0  0  0  0  0  0  0  0
   -2.7417  -12.0647   -9.5224 C   0  0  0  0  0  0  0  0  0  0  0  0
   -0.6377  -13.1053  -12.5193 C   0  0  0  0  0  0  0  0  0  0  0  0
   -0.9482  -13.9251  -13.4359 O   0  0  0  0  0  0  0  0  0  0  0  0
    0.8607  -12.9059  -12.1966 C   0  0  0  0  0  0  0  0  0  0  0  0
    1.4011   -2.9088   -7.5447 O   0  0  0  0  0  0  0  0  0  0  0  0
    2.0949   -3.7392   -6.9767 N   0  0  0  0  0  0  0  0  0  0  0  0
    2.8861   -3.2414   -6.1468 O   0  0  0  0  0  0  0  0  0  0  0  0
    4.8373   -5.2633   -7.3090 S   0  0  0  0  0  0  0  0  0  0  0  0
    5.7402   -6.3721   -6.3071 C   0  0  0  0  0  0  0  0  0  0  0  0
    6.6275   -7.3759   -6.9676 C   0  0  0  0  0  0  0  0  0  0  0  0
    7.3909   -8.3145   -6.0877 C   0  0  0  0  0  0  0  0  0  0  0  0
    7.2361   -8.2136   -4.6037 C   0  0  0  0  0  0  0  0  0  0  0  0
    6.3325   -7.1942   -3.9926 C   0  0  0  0  0  0  0  0  0  0  0  0
    5.5933   -6.2824   -4.8418 C   0  0  0  0  0  0  0  0  0  0  0  0
    6.6893   -7.3780   -8.4389 O   0  0  0  0  0  0  0  0  0  0  0  0
    6.0499   -8.4590   -9.2444 C   0  0  0  0  0  0  0  0  0  0  0  0
    5.4603   -7.8164  -10.5293 C   0  0  0  0  0  0  0  0  0  0  0  0
 22 23  2  0  0  0
 23  1  1  0  0  0
 23 24  1  0  0  0
  1  2  2  0  0  0
  1  6  1  0  0  0
  2  3  1  0  0  0
  2 25  1  0  0  0
  3  4  2  0  0  0
  4  5  1  0  0  0
  5  6  2  0  0  0
  5  7  1  0  0  0
  7  8  2  0  0  0
  7 12  1  0  0  0
  8  9  1  0  0  0
  9 10  2  0  0  0
 10 11  1  0  0  0
 11 13  1  0  0  0
 11 12  2  0  0  0
 13 14  1  0  0  0
 13 18  1  0  0  0
 14 15  1  0  0  0
 15 16  1  0  0  0
 16 17  1  0  0  0
 16 19  1  0  0  0
 17 18  1  0  0  0
 19 20  2  0  0  0
 19 21  1  0  0  0
 25 26  1  0  0  0
 26 27  2  0  0  0
 26 31  1  0  0  0
 27 28  1  0  0  0
 27 32  1  0  0  0
 28 29  2  0  0  0
 29 30  1  0  0  0
 30 31  2  0  0  0
 32 33  1  0  0  0
 33 34  1  0  0  0
M  CHG 1  23   1
M  CHG 1  24  -1
M  END
> <minimizedAffinity>
-9.34357

$$$$
1RD4_L08_A_328


 34 37  0  0  0  0  0  0  0  0999 V2000
    2.7868   -8.1561   -8.3283 C   0  0  0  0  0  0  0  0  0  0  0  0
    3.0807   -6.8287   -7.7396 C   0  0  0  0  0  0  0  0  0  0  0  0
    1.9679   -6.0737   -7.1048 C   0  0  0  0  0  0  0  0  0  0  0  0
    0.6339   -6.5838   -7.0466 C   0  0  0  0  0  0  0  0  0  0  0  0
    0.2916   -7.8971   -7.6154 C   0  0  0  0  0  0  0  0  0  0  0  0
    1.3616   -8.6586   -8.2437 C   0  0  0  0  0  0  0  0  0  0  0  0
   -1.1483   -8.3954   -7.5355 C   0  0  0  0  0  0  0  0  0  0  0  0
   -2.2399   -7.6086   -6.9572 C   0  0  0  0  0  0  0  0  0  0  0  0
   -3.5488   -8.2142   -6.9446 C   0  0  0  0  0  0  0  0  0  0  0  0
   -3.7845   -9.5427   -7.4749 N   0  0  0  0  0  0  0  0  0  0  0  0
   -2.8493  -10.2820   -7.9981 C   0  0  0  0  0  0  0  0  0  0  0  0
   -1.4274   -9.7212   -8.0566 C   0  0  0  0  0  0  0  0  0  0  0  0
   -3.0748  -11.6101   -8.5189 N   0  0  0  0  0  0  0  0  0  0  0  0
   -4.4830  -11.9563   -8.6261 C   0  0  0  0  0  0  0  0  0  0  0  0
   -4.7423  -12.4104  -10.0288 C   0  0  0  0  0  0  0  0  0  0  0  0
   -3.7225  -13.4598  -10.4150 N   0  0  0  0  0  0  0  0  0  0  0  0
   -2.2573  -13.0366  -10.3155 C   0  0  0  0  0  0  0  0  0  0  0  0
   -1.9418  -12.4891   -8.8547 C   0  0  0  0  0  0  0  0  0  0  0  0
   -3.9657  -13.9134  -11.7471 C   0  0  0  0  0  0  0  0  0  0  0  0
   -4.2143  -15.1330  -11.9913 O   0  0  0  0  0  0  0  0  0  0  0  0
   -3.9469  -12.9217  -12.9325 C   0  0  0  0  0  0  0  0  0  0  0  0
    4.1251  -10.0482   -8.5403 O   0  0  0  0  0  0  0  0  0  0  0  0
    3.8025   -8.9468   -8.9602 N   0  0  0  0  0  0  0  0  0  0  0  0
    4.4344   -8.6002   -9.9816 O   0  0  0  0  0  0  0  0  0  0  0  0
    4.7815   -6.1745   -7.8156 S   0  0  0  0  0  0  0  0  0  0  0  0
    5.4980   -6.6324   -6.2907 C   0  0  0  0  0  0  0  0  0  0  0  0
    6.4727   -7.7641   -6.2672 C   0  0  0  0  0  0  0  0  0  0  0  0
    7.0732   -8.1371   -4.9488 C   0  0  0  0  0  0  0  0  0  0  0  0
    6.6781   -7.3751   -3.7242 C   0  0  0  0  0  0  0  0  0  0  0  0
    5.6955   -6.2534   -3.8006 C   0  0  0  0  0  0  0  0  0  0  0  0
    5.1137   -5.8883   -5.0761 C   0  0  0  0  0  0  0  0  0  0  0  0
    6.7748   -8.4393   -7.5406 O   0  0  0  0  0  0  0  0  0  0  0  0
    8.0843   -9.1157   -7.7727 C   0  0  0  0  0  0  0  0  0  0  0  0
    7.8339  -10.6479   -7.8101 C   0  0  0  0  0  0  0  0  0  0  0  0
 22 23  2  0  0  0
 23  1  1  0  0  0
 23 24  1  0  0  0
  1  2  2  0  0  0
  1  6  1  0  0  0
  2  3  1  0  0  0
  2 25  1  0  0  0
  3  4  2  0  0  0
  4  5  1  0  0  0
  5  6  2  0  0  0
  5  7  1  0  0  0
  7  8  2  0  0  0
  7 12  1  0  0  0
  8  9  1  0  0  0
  9 10  2  0  0  0
 10 11  1  0  0  0
 11 13  1  0  0  0
 11 12  2  0  0  0
 13 14  1  0  0  0
 13 18  1  0  0  0
 14 15  1  0  0  0
 15 16  1  0  0  0
 16 17  1  0  0  0
 16 19  1  0  0  0
 17 18  1  0  0  0
 19 20  2  0  0  0
 19 21  1  0  0  0
 25 26  1  0  0  0
 26 27  2  0  0  0
 26 31  1  0  0  0
 27 28  1  0  0  0
 27 32  1  0  0  0
 28 29  2  0  0  0
 29 30  1  0  0  0
 30 31  2  0  0  0
 32 33  1  0  0  0
 33 34  1  0  0  0
M  CHG 1  23   1
M  CHG 1  24  -1
M  END
> <minimizedAffinity>
-8.86850

$$$$
1RD4_L08_A_328


 34 37  0  0  0  0  0  0  0  0999 V2000
    1.9652   -5.2291   -7.2064 C   0  0  0  0  0  0  0  0  0  0  0  0
    3.1403   -6.0887   -7.4806 C   0  0  0  0  0  0  0  0  0  0  0  0
    2.9104   -7.5261   -7.7845 C   0  0  0  0  0  0  0  0  0  0  0  0
    1.6017   -8.1002   -7.8186 C   0  0  0  0  0  0  0  0  0  0  0  0
    0.4032   -7.2882   -7.5548 C   0  0  0  0  0  0  0  0  0  0  0  0
    0.5983   -5.8771   -7.2541 C   0  0  0  0  0  0  0  0  0  0  0  0
   -0.9720   -7.9479   -7.5952 C   0  0  0  0  0  0  0  0  0  0  0  0
   -2.1698   -7.3454   -7.0058 C   0  0  0  0  0  0  0  0  0  0  0  0
   -3.3999   -8.0904   -7.1160 C   0  0  0  0  0  0  0  0  0  0  0  0
   -3.4592   -9.3802   -7.7756 N   0  0  0  0  0  0  0  0  0  0  0  0
   -2.4243   -9.9582   -8.3140 C   0  0  0  0  0  0  0  0  0  0  0  0
   -1.0750   -9.2406   -8.2475 C   0  0  0  0  0  0  0  0  0  0  0  0
   -2.4739  -11.2472   -8.9633 N   0  0  0  0  0  0  0  0  0  0  0  0
   -3.3522  -12.1954   -8.2972 C   0  0  0  0  0  0  0  0  0  0  0  0
   -4.3152  -12.7264   -9.3130 C   0  0  0  0  0  0  0  0  0  0  0  0
   -3.5520  -13.2012  -10.5305 N   0  0  0  0  0  0  0  0  0  0  0  0
   -2.6674  -12.1586  -11.2134 C   0  0  0  0  0  0  0  0  0  0  0  0
   -1.6600  -11.5184  -10.1605 C   0  0  0  0  0  0  0  0  0  0  0  0
   -4.4568  -13.7241  -11.5037 C   0  0  0  0  0  0  0  0  0  0  0  0
   -4.3717  -14.9252  -11.9024 O   0  0  0  0  0  0  0  0  0  0  0  0
   -5.5803  -12.8393  -12.0902 C   0  0  0  0  0  0  0  0  0  0  0  0
    1.4633   -2.9749   -7.4941 O   0  0  0  0  0  0  0  0  0  0  0  0
    2.1009   -3.8341   -6.9035 N   0  0  0  0  0  0  0  0  0  0  0  0
    2.8576   -3.3728   -6.0218 O   0  0  0  0  0  0  0  0  0  0  0  0
    4.8112   -5.3592   -7.4344 S   0  0  0  0  0  0  0  0  0  0  0  0
    5.7290   -6.4256   -6.4005 C   0  0  0  0  0  0  0  0  0  0  0  0
    6.6428   -7.4249   -7.0310 C   0  0  0  0  0  0  0  0  0  0  0  0
    7.4184   -8.3270   -6.1241 C   0  0  0  0  0  0  0  0  0  0  0  0
    7.2491   -8.1960   -4.6440 C   0  0  0  0  0  0  0  0  0  0  0  0
    6.3191   -7.1825   -4.0634 C   0  0  0  0  0  0  0  0  0  0  0  0
    5.5680   -6.3060   -4.9388 C   0  0  0  0  0  0  0  0  0  0  0  0
    6.7168   -7.4588   -8.5014 O   0  0  0  0  0  0  0  0  0  0  0  0
    5.9558   -8.4657   -9.2972 C   0  0  0  0  0  0  0  0  0  0  0  0
    5.5524   -7.8079  -10.6449 C   0  0  0  0  0  0  0  0  0  0  0  0
 22 23  2  0  0  0
 23  1  1  0  0  0
 23 24  1  0  0  0
  1  2  2  0  0  0
  1  6  1  0  0  0
  2  3  1  0  0  0
  2 25  1  0  0  0
  3  4  2  0  0  0
  4  5  1  0  0  0
  5  6  2  0  0  0
  5  7  1  0  0  0
  7  8  2  0  0  0
  7 12  1  0  0  0
  8  9  1  0  0  0
  9 10  2  0  0  0
 10 11  1  0  0  0
 11 13  1  0  0  0
 11 12  2  0  0  0
 13 14  1  0  0  0
 13 18  1  0  0  0
 14 15  1  0  0  0
 15 16  1  0  0  0
 16 17  1  0  0  0
 16 19  1  0  0  0
 17 18  1  0  0  0
 19 20  2  0  0  0
 19 21  1  0  0  0
 25 26  1  0  0  0
 26 27  2  0  0  0
 26 31  1  0  0  0
 27 28  1  0  0  0
 27 32  1  0  0  0
 28 29  2  0  0  0
 29 30  1  0  0  0
 30 31  2  0  0  0
 32 33  1  0  0  0
 33 34  1  0  0  0
M  CHG 1  23   1
M  CHG 1  24  -1
M  END
> <minimizedAffinity>
-8.79614

$$$$
1RD4_L08_A_328


 34 37  0  0  0  0  0  0  0  0999 V2000
   -1.8571   -9.7185   -8.3926 C   0  0  0  0  0  0  0  0  0  0  0  0
   -1.4797  -10.1511   -9.7584 C   0  0  0  0  0  0  0  0  0  0  0  0
   -0.1621   -9.7223  -10.2980 C   0  0  0  0  0  0  0  0  0  0  0  0
    0.7440   -8.9111   -9.5469 C   0  0  0  0  0  0  0  0  0  0  0  0
    0.4161   -8.4571   -8.1860 C   0  0  0  0  0  0  0  0  0  0  0  0
   -0.8680   -8.8618   -7.6321 C   0  0  0  0  0  0  0  0  0  0  0  0
    1.4126   -7.5862   -7.4268 C   0  0  0  0  0  0  0  0  0  0  0  0
    1.0136   -6.5974   -6.4227 C   0  0  0  0  0  0  0  0  0  0  0  0
    2.0681   -5.8422   -5.7917 C   0  0  0  0  0  0  0  0  0  0  0  0
    3.4634   -6.0421   -6.1307 N   0  0  0  0  0  0  0  0  0  0  0  0
    3.8694   -6.9066   -7.0154 C   0  0  0  0  0  0  0  0  0  0  0  0
    2.8207   -7.7558   -7.7359 C   0  0  0  0  0  0  0  0  0  0  0  0
    5.2566   -7.1038   -7.3654 N   0  0  0  0  0  0  0  0  0  0  0  0
    6.1267   -7.2583   -6.2107 C   0  0  0  0  0  0  0  0  0  0  0  0
    6.9061   -8.5245   -6.3848 C   0  0  0  0  0  0  0  0  0  0  0  0
    7.5412   -8.5401   -7.7583 N   0  0  0  0  0  0  0  0  0  0  0  0
    6.5813   -8.4063   -8.9401 C   0  0  0  0  0  0  0  0  0  0  0  0
    5.6847   -7.1018   -8.7746 C   0  0  0  0  0  0  0  0  0  0  0  0
    8.3005   -9.7366   -7.9343 C   0  0  0  0  0  0  0  0  0  0  0  0
    9.5452   -9.6962   -8.1751 O   0  0  0  0  0  0  0  0  0  0  0  0
    7.6247  -11.1221   -7.8207 C   0  0  0  0  0  0  0  0  0  0  0  0
   -4.0937   -9.3646   -7.8553 O   0  0  0  0  0  0  0  0  0  0  0  0
   -3.1096  -10.0872   -7.7997 N   0  0  0  0  0  0  0  0  0  0  0  0
   -3.3151  -11.1602   -7.1921 O   0  0  0  0  0  0  0  0  0  0  0  0
   -2.6356  -11.1834  -10.7199 S   0  0  0  0  0  0  0  0  0  0  0  0
   -3.0713  -10.1955  -12.0921 C   0  0  0  0  0  0  0  0  0  0  0  0
   -3.5782  -10.8663  -13.3268 C   0  0  0  0  0  0  0  0  0  0  0  0
   -3.9451   -9.9984  -14.4886 C   0  0  0  0  0  0  0  0  0  0  0  0
   -3.7901   -8.5157  -14.3707 C   0  0  0  0  0  0  0  0  0  0  0  0
   -3.2747   -7.8942  -13.1148 C   0  0  0  0  0  0  0  0  0  0  0  0
   -2.9204   -8.7317  -11.9870 C   0  0  0  0  0  0  0  0  0  0  0  0
   -3.6795  -12.3354  -13.3202 O   0  0  0  0  0  0  0  0  0  0  0  0
   -2.9132  -13.1740  -14.2875 C   0  0  0  0  0  0  0  0  0  0  0  0
   -1.4975  -13.4166  -13.6971 C   0  0  0  0  0  0  0  0  0  0  0  0
 22 23  2  0  0  0
 23  1  1  0  0  0
 23 24  1  0  0  0
  1  2  2  0  0  0
  1  6  1  0  0  0
  2  3  1  0  0  0
  2 25  1  0  0  0
  3  4  2  0  0  0
  4  5  1  0  0  0
  5  6  2  0  0  0
  5  7  1  0  0  0
  7  8  2  0  0  0
  7 12  1  0  0  0
  8  9  1  0  0  0
  9 10  2  0  0  0
 10 11  1  0  0  0
 11 13  1  0  0  0
 11 12  2  0  0  0
 13 14  1  0  0  0
 13 18  1  0  0  0
 14 15  1  0  0  0
 15 16  1  0  0  0
 16 17  1  0  0  0
 16 19  1  0  0  0
 17 18  1  0  0  0
 19 20  2  0  0  0
 19 21  1  0  0  0
 25 26  1  0  0  0
 26 27  2  0  0  0
 26 31  1  0  0  0
 27 28  1  0  0  0
 27 32  1  0  0  0
 28 29  2  0  0  0
 29 30  1  0  0  0
 30 31  2  0  0  0
 32 33  1  0  0  0
 33 34  1  0  0  0
M  CHG 1  23   1
M  CHG 1  24  -1
M  END
> <minimizedAffinity>
-8.59275

$$$$
1RD4_L08_A_328


 34 37  0  0  0  0  0  0  0  0999 V2000
   -0.5310   -9.5384   -9.9050 C   0  0  0  0  0  0  0  0  0  0  0  0
   -1.7144   -9.9240   -9.1014 C   0  0  0  0  0  0  0  0  0  0  0  0
   -1.8023   -9.4457   -7.6961 C   0  0  0  0  0  0  0  0  0  0  0  0
   -0.7881   -8.6333   -7.1006 C   0  0  0  0  0  0  0  0  0  0  0  0
    0.4052   -8.2225   -7.8573 C   0  0  0  0  0  0  0  0  0  0  0  0
    0.5179   -8.6765   -9.2359 C   0  0  0  0  0  0  0  0  0  0  0  0
    1.4642   -7.3611   -7.1757 C   0  0  0  0  0  0  0  0  0  0  0  0
    1.1478   -6.3458   -6.1686 C   0  0  0  0  0  0  0  0  0  0  0  0
    2.2543   -5.6036   -5.6163 C   0  0  0  0  0  0  0  0  0  0  0  0
    3.6221   -5.8411   -6.0342 N   0  0  0  0  0  0  0  0  0  0  0  0
    3.9554   -6.7301   -6.9250 C   0  0  0  0  0  0  0  0  0  0  0  0
    2.8472   -7.5679   -7.5652 C   0  0  0  0  0  0  0  0  0  0  0  0
    5.3144   -6.9649   -7.3535 N   0  0  0  0  0  0  0  0  0  0  0  0
    6.2562   -7.0742   -6.2511 C   0  0  0  0  0  0  0  0  0  0  0  0
    7.0082   -8.3588   -6.4107 C   0  0  0  0  0  0  0  0  0  0  0  0
    7.5519   -8.4523   -7.8199 N   0  0  0  0  0  0  0  0  0  0  0  0
    6.5185   -8.3637   -8.9424 C   0  0  0  0  0  0  0  0  0  0  0  0
    5.6495   -7.0395   -8.7858 C   0  0  0  0  0  0  0  0  0  0  0  0
    8.2845   -9.6671   -7.9835 C   0  0  0  0  0  0  0  0  0  0  0  0
    9.5111   -9.6570   -8.3061 O   0  0  0  0  0  0  0  0  0  0  0  0
    7.6018  -11.0351   -7.7562 C   0  0  0  0  0  0  0  0  0  0  0  0
   -0.7608   -9.2846  -12.2069 O   0  0  0  0  0  0  0  0  0  0  0  0
   -0.3693   -9.9593  -11.2662 N   0  0  0  0  0  0  0  0  0  0  0  0
    0.1825  -11.0253  -11.6153 O   0  0  0  0  0  0  0  0  0  0  0  0
   -3.0081  -10.9633   -9.8581 S   0  0  0  0  0  0  0  0  0  0  0  0
   -3.8222  -11.7080   -8.5049 C   0  0  0  0  0  0  0  0  0  0  0  0
   -3.2714  -12.9798   -7.9479 C   0  0  0  0  0  0  0  0  0  0  0  0
   -3.9865  -13.5982   -6.7885 C   0  0  0  0  0  0  0  0  0  0  0  0
   -5.2077  -12.9297   -6.2425 C   0  0  0  0  0  0  0  0  0  0  0  0
   -5.7205  -11.6603   -6.8383 C   0  0  0  0  0  0  0  0  0  0  0  0
   -5.0292  -11.0577   -7.9598 C   0  0  0  0  0  0  0  0  0  0  0  0
   -2.0651  -13.5422   -8.5781 O   0  0  0  0  0  0  0  0  0  0  0  0
   -0.7376  -13.4973   -7.8984 C   0  0  0  0  0  0  0  0  0  0  0  0
    0.3511  -13.2786   -8.9841 C   0  0  0  0  0  0  0  0  0  0  0  0
 22 23  2  0  0  0
 23  1  1  0  0  0
 23 24  1  0  0  0
  1  2  2  0  0  0
  1  6  1  0  0  0
  2  3  1  0  0  0
  2 25  1  0  0  0
  3  4  2  0  0  0
  4  5  1  0  0  0
  5  6  2  0  0  0
  5  7  1  0  0  0
  7  8  2  0  0  0
  7 12  1  0  0  0
  8  9  1  0  0  0
  9 10  2  0  0  0
 10 11  1  0  0  0
 11 13  1  0  0  0
 11 12  2  0  0  0
 13 14  1  0  0  0
 13 18  1  0  0  0
 14 15  1  0  0  0
 15 16  1  0  0  0
 16 17  1  0  0  0
 16 19  1  0  0  0
 17 18  1  0  0  0
 19 20  2  0  0  0
 19 21  1  0  0  0
 25 26  1  0  0  0
 26 27  2  0  0  0
 26 31  1  0  0  0
 27 28  1  0  0  0
 27 32  1  0  0  0
 28 29  2  0  0  0
 29 30  1  0  0  0
 30 31  2  0  0  0
 32 33  1  0  0  0
 33 34  1  0  0  0
M  CHG 1  23   1
M  CHG 1  24  -1
M  END
> <minimizedAffinity>
-8.32363

$$$$
1RD4_L08_A_328


 34 37  0  0  0  0  0  0  0  0999 V2000
   -0.2261  -10.1815   -9.4242 C   0  0  0  0  0  0  0  0  0  0  0  0
   -1.6446   -9.8968   -9.1052 C   0  0  0  0  0  0  0  0  0  0  0  0
   -1.9494   -8.7864   -8.1642 C   0  0  0  0  0  0  0  0  0  0  0  0
   -0.9249   -7.9924   -7.5616 C   0  0  0  0  0  0  0  0  0  0  0  0
    0.4981   -8.2346   -7.8474 C   0  0  0  0  0  0  0  0  0  0  0  0
    0.8262   -9.3160   -8.7653 C   0  0  0  0  0  0  0  0  0  0  0  0
    1.5557   -7.3652   -7.1738 C   0  0  0  0  0  0  0  0  0  0  0  0
    1.2361   -6.3300   -6.1883 C   0  0  0  0  0  0  0  0  0  0  0  0
    2.3417   -5.5824   -5.6414 C   0  0  0  0  0  0  0  0  0  0  0  0
    3.7116   -5.8336   -6.0442 N   0  0  0  0  0  0  0  0  0  0  0  0
    4.0477   -6.7405   -6.9157 C   0  0  0  0  0  0  0  0  0  0  0  0
    2.9407   -7.5853   -7.5487 C   0  0  0  0  0  0  0  0  0  0  0  0
    5.4089   -6.9891   -7.3293 N   0  0  0  0  0  0  0  0  0  0  0  0
    6.3329   -7.1333   -6.2159 C   0  0  0  0  0  0  0  0  0  0  0  0
    7.0669   -8.4266   -6.3883 C   0  0  0  0  0  0  0  0  0  0  0  0
    7.6293   -8.5033   -7.7911 N   0  0  0  0  0  0  0  0  0  0  0  0
    6.6136   -8.3780   -8.9263 C   0  0  0  0  0  0  0  0  0  0  0  0
    5.7634   -7.0432   -8.7577 C   0  0  0  0  0  0  0  0  0  0  0  0
    8.3450   -9.7265   -7.9666 C   0  0  0  0  0  0  0  0  0  0  0  0
    9.5762   -9.7301   -8.2716 O   0  0  0  0  0  0  0  0  0  0  0  0
    7.6379  -11.0873   -7.7740 C   0  0  0  0  0  0  0  0  0  0  0  0
    0.2830  -11.0529  -11.5213 O   0  0  0  0  0  0  0  0  0  0  0  0
    0.1525  -11.2354  -10.3199 N   0  0  0  0  0  0  0  0  0  0  0  0
    0.3896  -12.4111   -9.9676 O   0  0  0  0  0  0  0  0  0  0  0  0
   -2.9533  -10.9107   -9.8703 S   0  0  0  0  0  0  0  0  0  0  0  0
   -3.9087  -11.4842   -8.5261 C   0  0  0  0  0  0  0  0  0  0  0  0
   -5.3760  -11.6835   -8.7222 C   0  0  0  0  0  0  0  0  0  0  0  0
   -6.1728  -12.1757   -7.5558 C   0  0  0  0  0  0  0  0  0  0  0  0
   -5.4794  -12.4428   -6.2580 C   0  0  0  0  0  0  0  0  0  0  0  0
   -4.0097  -12.2237   -6.1123 C   0  0  0  0  0  0  0  0  0  0  0  0
   -3.2349  -11.7490   -7.2406 C   0  0  0  0  0  0  0  0  0  0  0  0
   -5.9412  -11.3790  -10.0476 O   0  0  0  0  0  0  0  0  0  0  0  0
   -7.2122  -12.0051  -10.5155 C   0  0  0  0  0  0  0  0  0  0  0  0
   -8.0734  -10.9007  -11.1866 C   0  0  0  0  0  0  0  0  0  0  0  0
 22 23  2  0  0  0
 23  1  1  0  0  0
 23 24  1  0  0  0
  1  2  2  0  0  0
  1  6  1  0  0  0
  2  3  1  0  0  0
  2 25  1  0  0  0
  3  4  2  0  0  0
  4  5  1  0  0  0
  5  6  2  0  0  0
  5  7  1  0  0  0
  7  8  2  0  0  0
  7 12  1  0  0  0
  8  9  1  0  0  0
  9 10  2  0  0  0
 10 11  1  0  0  0
 11 13  1  0  0  0
 11 12  2  0  0  0
 13 14  1  0  0  0
 13 18  1  0  0  0
 14 15  1  0  0  0
 15 16  1  0  0  0
 16 17  1  0  0  0
 16 19  1  0  0  0
 17 18  1  0  0  0
 19 20  2  0  0  0
 19 21  1  0  0  0
 25 26  1  0  0  0
 26 27  2  0  0  0
 26 31  1  0  0  0
 27 28  1  0  0  0
 27 32  1  0  0  0
 28 29  2  0  0  0
 29 30  1  0  0  0
 30 31  2  0  0  0
 32 33  1  0  0  0
 33 34  1  0  0  0
M  CHG 1  23   1
M  CHG 1  24  -1
M  END
> <minimizedAffinity>
-8.31887

$$$$
1RD4_L08_A_328


 34 37  0  0  0  0  0  0  0  0999 V2000
   -0.1762  -10.2551   -9.3905 C   0  0  0  0  0  0  0  0  0  0  0  0
   -1.5970   -9.9089   -9.1525 C   0  0  0  0  0  0  0  0  0  0  0  0
   -1.9053   -8.7434   -8.2821 C   0  0  0  0  0  0  0  0  0  0  0  0
   -0.8822   -7.9537   -7.6715 C   0  0  0  0  0  0  0  0  0  0  0  0
    0.5431   -8.2560   -7.8782 C   0  0  0  0  0  0  0  0  0  0  0  0
    0.8746   -9.3922   -8.7259 C   0  0  0  0  0  0  0  0  0  0  0  0
    1.5986   -7.3886   -7.1989 C   0  0  0  0  0  0  0  0  0  0  0  0
    1.2757   -6.3527   -6.2152 C   0  0  0  0  0  0  0  0  0  0  0  0
    2.3797   -5.6072   -5.6623 C   0  0  0  0  0  0  0  0  0  0  0  0
    3.7513   -5.8610   -6.0577 N   0  0  0  0  0  0  0  0  0  0  0  0
    4.0904   -6.7686   -6.9273 C   0  0  0  0  0  0  0  0  0  0  0  0
    2.9852   -7.6113   -7.5663 C   0  0  0  0  0  0  0  0  0  0  0  0
    5.4533   -7.0198   -7.3335 N   0  0  0  0  0  0  0  0  0  0  0  0
    6.3709   -7.1664   -6.2151 C   0  0  0  0  0  0  0  0  0  0  0  0
    7.1032   -8.4611   -6.3841 C   0  0  0  0  0  0  0  0  0  0  0  0
    7.6732   -8.5383   -7.7838 N   0  0  0  0  0  0  0  0  0  0  0  0
    6.6640   -8.4104   -8.9245 C   0  0  0  0  0  0  0  0  0  0  0  0
    5.8156   -7.0739   -8.7600 C   0  0  0  0  0  0  0  0  0  0  0  0
    8.3873   -9.7629   -7.9560 C   0  0  0  0  0  0  0  0  0  0  0  0
    9.6201   -9.7689   -8.2542 O   0  0  0  0  0  0  0  0  0  0  0  0
    7.6763  -11.1224   -7.7679 C   0  0  0  0  0  0  0  0  0  0  0  0
    0.4231  -11.2415  -11.4115 O   0  0  0  0  0  0  0  0  0  0  0  0
    0.2057  -11.3644  -10.2152 N   0  0  0  0  0  0  0  0  0  0  0  0
    0.3594  -12.5335   -9.8001 O   0  0  0  0  0  0  0  0  0  0  0  0
   -2.9042  -10.9171   -9.9279 S   0  0  0  0  0  0  0  0  0  0  0  0
   -3.0799  -10.2517  -11.5326 C   0  0  0  0  0  0  0  0  0  0  0  0
   -3.9613  -10.9586  -12.5097 C   0  0  0  0  0  0  0  0  0  0  0  0
   -4.0959  -10.3688  -13.8778 C   0  0  0  0  0  0  0  0  0  0  0  0
   -3.3520   -9.1144  -14.2090 C   0  0  0  0  0  0  0  0  0  0  0  0
   -2.4798   -8.4480  -13.1969 C   0  0  0  0  0  0  0  0  0  0  0  0
   -2.3489   -9.0155  -11.8704 C   0  0  0  0  0  0  0  0  0  0  0  0
   -4.6354  -12.1896  -12.0637 O   0  0  0  0  0  0  0  0  0  0  0  0
   -6.1167  -12.3436  -12.1540 C   0  0  0  0  0  0  0  0  0  0  0  0
   -6.7365  -11.8143  -10.8320 C   0  0  0  0  0  0  0  0  0  0  0  0
 22 23  2  0  0  0
 23  1  1  0  0  0
 23 24  1  0  0  0
  1  2  2  0  0  0
  1  6  1  0  0  0
  2  3  1  0  0  0
  2 25  1  0  0  0
  3  4  2  0  0  0
  4  5  1  0  0  0
  5  6  2  0  0  0
  5  7  1  0  0  0
  7  8  2  0  0  0
  7 12  1  0  0  0
  8  9  1  0  0  0
  9 10  2  0  0  0
 10 11  1  0  0  0
 11 13  1  0  0  0
 11 12  2  0  0  0
 13 14  1  0  0  0
 13 18  1  0  0  0
 14 15  1  0  0  0
 15 16  1  0  0  0
 16 17  1  0  0  0
 16 19  1  0  0  0
 17 18  1  0  0  0
 19 20  2  0  0  0
 19 21  1  0  0  0
 25 26  1  0  0  0
 26 27  2  0  0  0
 26 31  1  0  0  0
 27 28  1  0  0  0
 27 32  1  0  0  0
 28 29  2  0  0  0
 29 30  1  0  0  0
 30 31  2  0  0  0
 32 33  1  0  0  0
 33 34  1  0  0  0
M  CHG 1  23   1
M  CHG 1  24  -1
M  END
> <minimizedAffinity>
-8.26080

$$$$
1RD4_L08_A_328


 34 37  0  0  0  0  0  0  0  0999 V2000
   -1.9869   -9.4112   -7.7280 C   0  0  0  0  0  0  0  0  0  0  0  0
   -1.6821  -10.0443   -9.0323 C   0  0  0  0  0  0  0  0  0  0  0  0
   -0.3602   -9.7755   -9.6580 C   0  0  0  0  0  0  0  0  0  0  0  0
    0.6174   -8.9311   -9.0460 C   0  0  0  0  0  0  0  0  0  0  0  0
    0.3631   -8.2807   -7.7508 C   0  0  0  0  0  0  0  0  0  0  0  0
   -0.9234   -8.5258   -7.1149 C   0  0  0  0  0  0  0  0  0  0  0  0
    1.4348   -7.3819   -7.1411 C   0  0  0  0  0  0  0  0  0  0  0  0
    1.1405   -6.3260   -6.1697 C   0  0  0  0  0  0  0  0  0  0  0  0
    2.2568   -5.5516   -5.6854 C   0  0  0  0  0  0  0  0  0  0  0  0
    3.6130   -5.7963   -6.1355 N   0  0  0  0  0  0  0  0  0  0  0  0
    3.9266   -6.7209   -6.9967 C   0  0  0  0  0  0  0  0  0  0  0  0
    2.8068   -7.5947   -7.5645 C   0  0  0  0  0  0  0  0  0  0  0  0
    5.2738   -6.9635   -7.4572 N   0  0  0  0  0  0  0  0  0  0  0  0
    6.2523   -7.0046   -6.3824 C   0  0  0  0  0  0  0  0  0  0  0  0
    7.0144   -8.2878   -6.4994 C   0  0  0  0  0  0  0  0  0  0  0  0
    7.5131   -8.4496   -7.9191 N   0  0  0  0  0  0  0  0  0  0  0  0
    6.4426   -8.4313   -9.0098 C   0  0  0  0  0  0  0  0  0  0  0  0
    5.5630   -7.1099   -8.8939 C   0  0  0  0  0  0  0  0  0  0  0  0
    8.2548   -9.6636   -8.0432 C   0  0  0  0  0  0  0  0  0  0  0  0
    9.4701   -9.6575   -8.4063 O   0  0  0  0  0  0  0  0  0  0  0  0
    7.5969  -11.0249   -7.7221 C   0  0  0  0  0  0  0  0  0  0  0  0
   -3.4032  -10.5184   -6.2500 O   0  0  0  0  0  0  0  0  0  0  0  0
   -3.2385   -9.6176   -7.0593 N   0  0  0  0  0  0  0  0  0  0  0  0
   -4.2544   -8.9088   -7.2269 O   0  0  0  0  0  0  0  0  0  0  0  0
   -2.9292  -11.1195   -9.8166 S   0  0  0  0  0  0  0  0  0  0  0  0
   -2.0097  -12.1638  -10.8713 C   0  0  0  0  0  0  0  0  0  0  0  0
   -2.0209  -11.8900  -12.3397 C   0  0  0  0  0  0  0  0  0  0  0  0
   -1.2251  -12.7985  -13.2223 C   0  0  0  0  0  0  0  0  0  0  0  0
   -0.4629  -13.9296  -12.6091 C   0  0  0  0  0  0  0  0  0  0  0  0
   -0.4876  -14.1631  -11.1346 C   0  0  0  0  0  0  0  0  0  0  0  0
   -1.2556  -13.2839  -10.2767 C   0  0  0  0  0  0  0  0  0  0  0  0
   -2.8163  -10.7480  -12.8212 O   0  0  0  0  0  0  0  0  0  0  0  0
   -2.2395   -9.3741  -12.8995 C   0  0  0  0  0  0  0  0  0  0  0  0
   -3.4097   -8.3719  -13.0945 C   0  0  0  0  0  0  0  0  0  0  0  0
 22 23  2  0  0  0
 23  1  1  0  0  0
 23 24  1  0  0  0
  1  2  2  0  0  0
  1  6  1  0  0  0
  2  3  1  0  0  0
  2 25  1  0  0  0
  3  4  2  0  0  0
  4  5  1  0  0  0
  5  6  2  0  0  0
  5  7  1  0  0  0
  7  8  2  0  0  0
  7 12  1  0  0  0
  8  9  1  0  0  0
  9 10  2  0  0  0
 10 11  1  0  0  0
 11 13  1  0  0  0
 11 12  2  0  0  0
 13 14  1  0  0  0
 13 18  1  0  0  0
 14 15  1  0  0  0
 15 16  1  0  0  0
 16 17  1  0  0  0
 16 19  1  0  0  0
 17 18  1  0  0  0
 19 20  2  0  0  0
 19 21  1  0  0  0
 25 26  1  0  0  0
 26 27  2  0  0  0
 26 31  1  0  0  0
 27 28  1  0  0  0
 27 32  1  0  0  0
 28 29  2  0  0  0
 29 30  1  0  0  0
 30 31  2  0  0  0
 32 33  1  0  0  0
 33 34  1  0  0  0
M  CHG 1  23   1
M  CHG 1  24  -1
M  END
> <minimizedAffinity>
-8.11632

$$$$
1RD4_L08_A_328


 34 37  0  0  0  0  0  0  0  0999 V2000
   -1.1162   -8.1297   -8.7764 C   0  0  0  0  0  0  0  0  0  0  0  0
   -0.7034   -9.3743   -9.4661 C   0  0  0  0  0  0  0  0  0  0  0  0
    0.7080   -9.8231   -9.3322 C   0  0  0  0  0  0  0  0  0  0  0  0
    1.6715   -9.0964   -8.5662 C   0  0  0  0  0  0  0  0  0  0  0  0
    1.3106   -7.8559   -7.8616 C   0  0  0  0  0  0  0  0  0  0  0  0
   -0.0648   -7.3924   -7.9754 C   0  0  0  0  0  0  0  0  0  0  0  0
    2.3762   -7.1115   -7.0627 C   0  0  0  0  0  0  0  0  0  0  0  0
    2.0663   -6.0400   -6.1135 C   0  0  0  0  0  0  0  0  0  0  0  0
    3.1799   -5.4228   -5.4357 C   0  0  0  0  0  0  0  0  0  0  0  0
    4.5488   -5.8343   -5.6777 N   0  0  0  0  0  0  0  0  0  0  0  0
    4.8766   -6.7796   -6.5107 C   0  0  0  0  0  0  0  0  0  0  0  0
    3.7604   -7.4936   -7.2749 C   0  0  0  0  0  0  0  0  0  0  0  0
    6.2386   -7.1875   -6.7644 N   0  0  0  0  0  0  0  0  0  0  0  0
    6.9161   -7.7014   -5.5849 C   0  0  0  0  0  0  0  0  0  0  0  0
    7.4714   -9.0503   -5.9211 C   0  0  0  0  0  0  0  0  0  0  0  0
    8.2594   -8.9635   -7.2102 N   0  0  0  0  0  0  0  0  0  0  0  0
    7.4939   -8.4473   -8.4282 C   0  0  0  0  0  0  0  0  0  0  0  0
    6.8323   -7.0366   -8.1037 C   0  0  0  0  0  0  0  0  0  0  0  0
    8.8078  -10.2408   -7.5371 C   0  0  0  0  0  0  0  0  0  0  0  0
   10.0597  -10.4091   -7.6524 O   0  0  0  0  0  0  0  0  0  0  0  0
    7.8857  -11.4637   -7.7459 C   0  0  0  0  0  0  0  0  0  0  0  0
   -3.2946   -7.8694   -8.0000 O   0  0  0  0  0  0  0  0  0  0  0  0
   -2.4570   -7.6278   -8.8565 N   0  0  0  0  0  0  0  0  0  0  0  0
   -2.8867   -6.9046   -9.7812 O   0  0  0  0  0  0  0  0  0  0  0  0
   -1.9303  -10.3013  -10.4468 S   0  0  0  0  0  0  0  0  0  0  0  0
   -1.8338  -11.9361   -9.8412 C   0  0  0  0  0  0  0  0  0  0  0  0
   -2.7036  -12.3277   -8.6917 C   0  0  0  0  0  0  0  0  0  0  0  0
   -2.6029  -13.7338   -8.1912 C   0  0  0  0  0  0  0  0  0  0  0  0
   -1.6480  -14.6773   -8.8503 C   0  0  0  0  0  0  0  0  0  0  0  0
   -0.7970  -14.2349   -9.9946 C   0  0  0  0  0  0  0  0  0  0  0  0
   -0.8936  -12.8744  -10.4831 C   0  0  0  0  0  0  0  0  0  0  0  0
   -3.5985  -11.3044   -8.1253 O   0  0  0  0  0  0  0  0  0  0  0  0
   -3.6949  -11.0817   -6.6532 C   0  0  0  0  0  0  0  0  0  0  0  0
   -2.2826  -10.7016   -6.1310 C   0  0  0  0  0  0  0  0  0  0  0  0
 22 23  2  0  0  0
 23  1  1  0  0  0
 23 24  1  0  0  0
  1  2  2  0  0  0
  1  6  1  0  0  0
  2  3  1  0  0  0
  2 25  1  0  0  0
  3  4  2  0  0  0
  4  5  1  0  0  0
  5  6  2  0  0  0
  5  7  1  0  0  0
  7  8  2  0  0  0
  7 12  1  0  0  0
  8  9  1  0  0  0
  9 10  2  0  0  0
 10 11  1  0  0  0
 11 13  1  0  0  0
 11 12  2  0  0  0
 13 14  1  0  0  0
 13 18  1  0  0  0
 14 15  1  0  0  0
 15 16  1  0  0  0
 16 17  1  0  0  0
 16 19  1  0  0  0
 17 18  1  0  0  0
 19 20  2  0  0  0
 19 21  1  0  0  0
 25 26  1  0  0  0
 26 27  2  0  0  0
 26 31  1  0  0  0
 27 28  1  0  0  0
 27 32  1  0  0  0
 28 29  2  0  0  0
 29 30  1  0  0  0
 30 31  2  0  0  0
 32 33  1  0  0  0
 33 34  1  0  0  0
M  CHG 1  23   1
M  CHG 1  24  -1
M  END
> <minimizedAffinity>
-7.93352

$$$$
1RD4_L08_A_328


 34 37  0  0  0  0  0  0  0  0999 V2000
    2.1194   -7.3239   -7.8131 C   0  0  0  0  0  0  0  0  0  0  0  0
    3.5251   -7.4669   -8.2588 C   0  0  0  0  0  0  0  0  0  0  0  0
    3.9101   -8.6952   -9.0034 C   0  0  0  0  0  0  0  0  0  0  0  0
    2.9744   -9.7346   -9.2989 C   0  0  0  0  0  0  0  0  0  0  0  0
    1.5672   -9.6390   -8.8792 C   0  0  0  0  0  0  0  0  0  0  0  0
    1.1619   -8.4471   -8.1480 C   0  0  0  0  0  0  0  0  0  0  0  0
    0.6078  -10.7779   -9.2114 C   0  0  0  0  0  0  0  0  0  0  0  0
    1.0058  -11.9704   -9.9629 C   0  0  0  0  0  0  0  0  0  0  0  0
   -0.0133  -12.9613  -10.2072 C   0  0  0  0  0  0  0  0  0  0  0  0
   -1.3747  -12.7936   -9.7374 N   0  0  0  0  0  0  0  0  0  0  0  0
   -1.7785  -11.7534   -9.0669 C   0  0  0  0  0  0  0  0  0  0  0  0
   -0.7653  -10.6497   -8.7583 C   0  0  0  0  0  0  0  0  0  0  0  0
   -3.1351  -11.5749   -8.6049 N   0  0  0  0  0  0  0  0  0  0  0  0
   -4.1315  -11.8017   -9.6394 C   0  0  0  0  0  0  0  0  0  0  0  0
   -5.1139  -12.8065   -9.1232 C   0  0  0  0  0  0  0  0  0  0  0  0
   -5.5976  -12.3805   -7.7540 N   0  0  0  0  0  0  0  0  0  0  0  0
   -4.5146  -12.1859   -6.6931 C   0  0  0  0  0  0  0  0  0  0  0  0
   -3.4097  -11.1669   -7.2166 C   0  0  0  0  0  0  0  0  0  0  0  0
   -6.5470  -13.3227   -7.2538 C   0  0  0  0  0  0  0  0  0  0  0  0
   -7.7307  -12.9721   -6.9627 O   0  0  0  0  0  0  0  0  0  0  0  0
   -6.1596  -14.8073   -7.0668 C   0  0  0  0  0  0  0  0  0  0  0  0
    1.2798   -5.1594   -7.6525 O   0  0  0  0  0  0  0  0  0  0  0  0
    1.6675   -6.1719   -7.0886 N   0  0  0  0  0  0  0  0  0  0  0  0
    1.6178   -6.0960   -5.8418 O   0  0  0  0  0  0  0  0  0  0  0  0
    4.7215   -6.1435   -7.8800 S   0  0  0  0  0  0  0  0  0  0  0  0
    5.3858   -6.5819   -6.3260 C   0  0  0  0  0  0  0  0  0  0  0  0
    6.3222   -7.7431   -6.2479 C   0  0  0  0  0  0  0  0  0  0  0  0
    6.8782   -8.0987   -4.9054 C   0  0  0  0  0  0  0  0  0  0  0  0
    6.4787   -7.2910   -3.7119 C   0  0  0  0  0  0  0  0  0  0  0  0
    5.5354   -6.1411   -3.8427 C   0  0  0  0  0  0  0  0  0  0  0  0
    4.9967   -5.7928   -5.1417 C   0  0  0  0  0  0  0  0  0  0  0  0
    6.6327   -8.4624   -7.4948 O   0  0  0  0  0  0  0  0  0  0  0  0
    8.0394   -8.7590   -7.8939 C   0  0  0  0  0  0  0  0  0  0  0  0
    8.1944  -10.3007   -7.9990 C   0  0  0  0  0  0  0  0  0  0  0  0
 22 23  2  0  0  0
 23  1  1  0  0  0
 23 24  1  0  0  0
  1  2  2  0  0  0
  1  6  1  0  0  0
  2  3  1  0  0  0
  2 25  1  0  0  0
  3  4  2  0  0  0
  4  5  1  0  0  0
  5  6  2  0  0  0
  5  7  1  0  0  0
  7  8  2  0  0  0
  7 12  1  0  0  0
  8  9  1  0  0  0
  9 10  2  0  0  0
 10 11  1  0  0  0
 11 13  1  0  0  0
 11 12  2  0  0  0
 13 14  1  0  0  0
 13 18  1  0  0  0
 14 15  1  0  0  0
 15 16  1  0  0  0
 16 17  1  0  0  0
 16 19  1  0  0  0
 17 18  1  0  0  0
 19 20  2  0  0  0
 19 21  1  0  0  0
 25 26  1  0  0  0
 26 27  2  0  0  0
 26 31  1  0  0  0
 27 28  1  0  0  0
 27 32  1  0  0  0
 28 29  2  0  0  0
 29 30  1  0  0  0
 30 31  2  0  0  0
 32 33  1  0  0  0
 33 34  1  0  0  0
M  CHG 1  23   1
M  CHG 1  24  -1
M  END
> <minimizedAffinity>
-7.81991

$$$$
