3N7O_N7O_A_1


 30 32  0  0  0  0  0  0  0  0999 V2000
  -14.0367  -44.9458  -56.4270 C   0  0  0  0  0  0  0  0  0  0  0  0
  -15.1202  -47.0630  -57.4372 C   0  0  0  0  0  0  0  0  0  0  0  0
  -16.4871  -47.7507  -55.4677 C   0  0  0  0  0  0  0  0  0  0  0  0
  -17.4537  -47.7275  -53.2625 C   0  0  0  0  0  0  0  0  0  0  0  0
  -15.7554  -46.5639  -55.2495 C   0  0  0  0  0  0  0  0  0  0  0  0
  -14.9485  -46.1658  -56.4366 C   0  0  0  0  0  0  0  0  0  0  0  0
  -16.1854  -48.3525  -57.0522 S   0  0  0  0  0  0  0  0  0  0  0  0
  -17.3142  -48.3332  -54.5021 C   0  0  0  0  0  0  0  0  0  0  0  0
  -16.7245  -46.5509  -53.0611 C   0  0  0  0  0  0  0  0  0  0  0  0
  -16.8320  -45.8089  -51.5016 Cl  0  0  0  0  0  0  0  0  0  0  0  0
  -15.9099  -45.9669  -54.0005 C   0  0  0  0  0  0  0  0  0  0  0  0
  -15.5630  -43.5787  -58.5754 C   0  0  0  0  0  0  0  0  0  0  0  0
  -14.7946  -43.3698  -56.9839 P   0  0  0  0  0  0  0  0  0  0  0  0
  -15.7757  -42.8986  -55.9694 O   0  0  0  0  0  0  0  0  0  0  0  0
  -13.6768  -42.2910  -57.2299 O   0  0  0  0  0  0  0  0  0  0  0  0
  -14.0863  -41.4622  -57.5237 H   0  0  0  0  0  0  0  0  0  0  0  0
  -12.6523  -45.1412  -57.1475 C   0  0  0  0  0  0  0  0  0  0  0  0
  -12.5367  -45.5811  -58.2649 O   0  0  0  0  0  0  0  0  0  0  0  0
  -11.5646  -45.1443  -56.2263 N   0  0  0  0  0  0  0  0  0  0  0  0
  -11.7668  -45.0106  -55.2721 H   0  0  0  0  0  0  0  0  0  0  0  0
   -9.2729  -45.4565  -55.6417 C   0  0  0  0  0  0  0  0  0  0  0  0
  -10.2010  -45.3292  -56.6022 C   0  0  0  0  0  0  0  0  0  0  0  0
   -5.8815  -45.4802  -57.3678 C   0  0  0  0  0  0  0  0  0  0  0  0
   -7.8146  -45.4069  -55.8829 C   0  0  0  0  0  0  0  0  0  0  0  0
   -7.2522  -45.5403  -57.1631 C   0  0  0  0  0  0  0  0  0  0  0  0
   -5.0618  -45.2561  -56.2664 C   0  0  0  0  0  0  0  0  0  0  0  0
   -3.7461  -45.1897  -56.4293 F   0  0  0  0  0  0  0  0  0  0  0  0
   -5.5963  -45.1253  -54.9882 C   0  0  0  0  0  0  0  0  0  0  0  0
   -4.7630  -44.9280  -53.9554 F   0  0  0  0  0  0  0  0  0  0  0  0
   -6.9699  -45.1892  -54.7861 C   0  0  0  0  0  0  0  0  0  0  0  0
 21 22  2  0  0  0
 21 24  1  0  0  0
 23 25  2  0  0  0
 23 26  1  0  0  0
  2  6  2  0  0  0
  2  7  1  0  0  0
  3  5  2  0  0  0
  3  7  1  0  0  0
  3  8  1  0  0  0
  4  8  2  0  0  0
  4  9  1  0  0  0
  5  6  1  0  0  0
  5 11  1  0  0  0
 12 13  1  0  0  0
 13 14  2  0  0  0
 13 15  1  0  0  0
 13  1  1  0  0  0
  1 17  1  0  0  0
  1  6  1  0  0  0
 17 18  2  0  0  0
 17 19  1  0  0  0
 19 22  1  0  0  0
 24 25  1  0  0  0
 24 30  2  0  0  0
 26 27  1  0  0  0
 26 28  2  0  0  0
 28 29  1  0  0  0
 28 30  1  0  0  0
  9 10  1  0  0  0
  9 11  2  0  0  0
 15 16  1  0  0  0
 19 20  1  0  0  0
M  END
> <minimizedAffinity>
-11.12988

$$$$
3N7O_N7O_A_1


 30 32  0  0  0  0  0  0  0  0999 V2000
  -14.0910  -45.0730  -58.0431 C   0  0  0  0  0  0  0  0  0  0  0  0
  -15.0730  -47.4345  -58.4117 C   0  0  0  0  0  0  0  0  0  0  0  0
  -16.1780  -47.7222  -56.1943 C   0  0  0  0  0  0  0  0  0  0  0  0
  -16.9270  -47.2392  -53.9575 C   0  0  0  0  0  0  0  0  0  0  0  0
  -15.5376  -46.4730  -56.3384 C   0  0  0  0  0  0  0  0  0  0  0  0
  -14.8869  -46.3165  -57.6692 C   0  0  0  0  0  0  0  0  0  0  0  0
  -15.9771  -48.6618  -57.6229 S   0  0  0  0  0  0  0  0  0  0  0  0
  -16.8535  -48.1112  -55.0332 C   0  0  0  0  0  0  0  0  0  0  0  0
  -16.2898  -46.0040  -54.1152 C   0  0  0  0  0  0  0  0  0  0  0  0
  -16.3131  -44.9220  -52.7652 Cl  0  0  0  0  0  0  0  0  0  0  0  0
  -15.6244  -45.6081  -55.2500 C   0  0  0  0  0  0  0  0  0  0  0  0
  -15.4971  -44.7833  -60.6418 C   0  0  0  0  0  0  0  0  0  0  0  0
  -13.9092  -44.7432  -59.8394 P   0  0  0  0  0  0  0  0  0  0  0  0
  -13.2352  -43.4324  -60.0433 O   0  0  0  0  0  0  0  0  0  0  0  0
  -13.0986  -45.9055  -60.5220 O   0  0  0  0  0  0  0  0  0  0  0  0
  -13.0076  -45.7227  -61.4702 H   0  0  0  0  0  0  0  0  0  0  0  0
  -12.6873  -44.9437  -57.3452 C   0  0  0  0  0  0  0  0  0  0  0  0
  -12.5301  -44.4857  -56.2402 O   0  0  0  0  0  0  0  0  0  0  0  0
  -11.6145  -45.0266  -58.2800 N   0  0  0  0  0  0  0  0  0  0  0  0
  -11.8377  -45.1700  -59.2281 H   0  0  0  0  0  0  0  0  0  0  0  0
   -9.7206  -45.7798  -57.0403 C   0  0  0  0  0  0  0  0  0  0  0  0
  -10.2372  -44.9145  -57.9260 C   0  0  0  0  0  0  0  0  0  0  0  0
   -6.0125  -45.1077  -56.5112 C   0  0  0  0  0  0  0  0  0  0  0  0
   -8.3928  -45.6278  -56.4069 C   0  0  0  0  0  0  0  0  0  0  0  0
   -7.2465  -45.2545  -57.1278 C   0  0  0  0  0  0  0  0  0  0  0  0
   -5.9352  -45.3158  -55.1380 C   0  0  0  0  0  0  0  0  0  0  0  0
   -4.7697  -45.1797  -54.5174 F   0  0  0  0  0  0  0  0  0  0  0  0
   -7.0566  -45.6905  -54.4041 C   0  0  0  0  0  0  0  0  0  0  0  0
   -6.9274  -45.8968  -53.0847 F   0  0  0  0  0  0  0  0  0  0  0  0
   -8.2908  -45.8398  -55.0255 C   0  0  0  0  0  0  0  0  0  0  0  0
 21 22  2  0  0  0
 21 24  1  0  0  0
 23 25  2  0  0  0
 23 26  1  0  0  0
  2  6  2  0  0  0
  2  7  1  0  0  0
  3  5  2  0  0  0
  3  7  1  0  0  0
  3  8  1  0  0  0
  4  8  2  0  0  0
  4  9  1  0  0  0
  5  6  1  0  0  0
  5 11  1  0  0  0
 12 13  1  0  0  0
 13 14  2  0  0  0
 13 15  1  0  0  0
 13  1  1  0  0  0
  1 17  1  0  0  0
  1  6  1  0  0  0
 17 18  2  0  0  0
 17 19  1  0  0  0
 19 22  1  0  0  0
 24 25  1  0  0  0
 24 30  2  0  0  0
 26 27  1  0  0  0
 26 28  2  0  0  0
 28 29  1  0  0  0
 28 30  1  0  0  0
  9 10  1  0  0  0
  9 11  2  0  0  0
 15 16  1  0  0  0
 19 20  1  0  0  0
M  END
> <minimizedAffinity>
-9.55617

$$$$
3N7O_N7O_A_1


 30 32  0  0  0  0  0  0  0  0999 V2000
  -12.1992  -45.5612  -57.0963 C   0  0  0  0  0  0  0  0  0  0  0  0
  -10.8690  -44.8523  -59.1952 C   0  0  0  0  0  0  0  0  0  0  0  0
   -8.5748  -44.9355  -58.2205 C   0  0  0  0  0  0  0  0  0  0  0  0
   -6.8046  -45.2485  -56.6185 C   0  0  0  0  0  0  0  0  0  0  0  0
   -9.5820  -45.3045  -57.3036 C   0  0  0  0  0  0  0  0  0  0  0  0
  -10.9446  -45.2533  -57.9032 C   0  0  0  0  0  0  0  0  0  0  0  0
   -9.2736  -44.5332  -59.7416 S   0  0  0  0  0  0  0  0  0  0  0  0
   -7.2151  -44.8968  -57.8955 C   0  0  0  0  0  0  0  0  0  0  0  0
   -7.8133  -45.6142  -55.7211 C   0  0  0  0  0  0  0  0  0  0  0  0
   -7.3342  -45.9974  -54.1032 Cl  0  0  0  0  0  0  0  0  0  0  0  0
   -9.1519  -45.6582  -56.0268 C   0  0  0  0  0  0  0  0  0  0  0  0
  -11.7695  -48.4927  -57.2854 C   0  0  0  0  0  0  0  0  0  0  0  0
  -12.9785  -47.1928  -57.4106 P   0  0  0  0  0  0  0  0  0  0  0  0
  -14.0996  -47.4058  -56.4557 O   0  0  0  0  0  0  0  0  0  0  0  0
  -13.4830  -47.2722  -58.8982 O   0  0  0  0  0  0  0  0  0  0  0  0
  -13.8930  -48.1372  -59.0548 H   0  0  0  0  0  0  0  0  0  0  0  0
  -13.3039  -44.4419  -57.1265 C   0  0  0  0  0  0  0  0  0  0  0  0
  -13.4645  -43.6375  -56.2419 O   0  0  0  0  0  0  0  0  0  0  0  0
  -14.3309  -44.7281  -58.0727 N   0  0  0  0  0  0  0  0  0  0  0  0
  -14.2492  -45.5497  -58.6089 H   0  0  0  0  0  0  0  0  0  0  0  0
  -15.8127  -43.5799  -59.5480 C   0  0  0  0  0  0  0  0  0  0  0  0
  -15.4696  -43.8970  -58.2903 C   0  0  0  0  0  0  0  0  0  0  0  0
  -18.7272  -41.7613  -61.1853 C   0  0  0  0  0  0  0  0  0  0  0  0
  -16.8062  -42.5432  -59.9024 C   0  0  0  0  0  0  0  0  0  0  0  0
  -17.7985  -42.7444  -60.8760 C   0  0  0  0  0  0  0  0  0  0  0  0
  -18.6724  -40.5615  -60.4836 C   0  0  0  0  0  0  0  0  0  0  0  0
  -19.5491  -39.6019  -60.7534 F   0  0  0  0  0  0  0  0  0  0  0  0
  -17.6954  -40.3381  -59.5181 C   0  0  0  0  0  0  0  0  0  0  0  0
  -17.6731  -39.1576  -58.8810 F   0  0  0  0  0  0  0  0  0  0  0  0
  -16.7645  -41.3239  -59.2128 C   0  0  0  0  0  0  0  0  0  0  0  0
 21 22  2  0  0  0
 21 24  1  0  0  0
 23 25  2  0  0  0
 23 26  1  0  0  0
  2  6  2  0  0  0
  2  7  1  0  0  0
  3  5  2  0  0  0
  3  7  1  0  0  0
  3  8  1  0  0  0
  4  8  2  0  0  0
  4  9  1  0  0  0
  5  6  1  0  0  0
  5 11  1  0  0  0
 12 13  1  0  0  0
 13 14  2  0  0  0
 13 15  1  0  0  0
 13  1  1  0  0  0
  1 17  1  0  0  0
  1  6  1  0  0  0
 17 18  2  0  0  0
 17 19  1  0  0  0
 19 22  1  0  0  0
 24 25  1  0  0  0
 24 30  2  0  0  0
 26 27  1  0  0  0
 26 28  2  0  0  0
 28 29  1  0  0  0
 28 30  1  0  0  0
  9 10  1  0  0  0
  9 11  2  0  0  0
 15 16  1  0  0  0
 19 20  1  0  0  0
M  END
> <minimizedAffinity>
-8.61112

$$$$
3N7O_N7O_A_1


 30 32  0  0  0  0  0  0  0  0999 V2000
  -13.3414  -45.4671  -58.3003 C   0  0  0  0  0  0  0  0  0  0  0  0
  -14.6464  -47.6738  -58.6239 C   0  0  0  0  0  0  0  0  0  0  0  0
  -15.9279  -47.6588  -56.4843 C   0  0  0  0  0  0  0  0  0  0  0  0
  -16.7420  -46.9352  -54.3369 C   0  0  0  0  0  0  0  0  0  0  0  0
  -15.0958  -46.5301  -56.6417 C   0  0  0  0  0  0  0  0  0  0  0  0
  -14.3414  -46.5532  -57.9260 C   0  0  0  0  0  0  0  0  0  0  0  0
  -15.7782  -48.7025  -57.8453 S   0  0  0  0  0  0  0  0  0  0  0  0
  -16.7310  -47.8718  -55.3593 C   0  0  0  0  0  0  0  0  0  0  0  0
  -15.9142  -45.8206  -54.5074 C   0  0  0  0  0  0  0  0  0  0  0  0
  -15.8617  -44.6676  -53.2183 Cl  0  0  0  0  0  0  0  0  0  0  0  0
  -15.1217  -45.5977  -55.6072 C   0  0  0  0  0  0  0  0  0  0  0  0
  -11.1996  -47.1644  -57.1402 C   0  0  0  0  0  0  0  0  0  0  0  0
  -11.7488  -45.4900  -57.3884 P   0  0  0  0  0  0  0  0  0  0  0  0
  -10.7340  -44.6944  -58.1308 O   0  0  0  0  0  0  0  0  0  0  0  0
  -11.9518  -44.9271  -55.9338 O   0  0  0  0  0  0  0  0  0  0  0  0
  -11.1056  -44.9431  -55.4600 H   0  0  0  0  0  0  0  0  0  0  0  0
  -13.9168  -44.0032  -58.3069 C   0  0  0  0  0  0  0  0  0  0  0  0
  -13.6285  -43.1682  -57.4852 O   0  0  0  0  0  0  0  0  0  0  0  0
  -15.0939  -43.8937  -59.1032 N   0  0  0  0  0  0  0  0  0  0  0  0
  -15.4128  -44.6999  -59.5697 H   0  0  0  0  0  0  0  0  0  0  0  0
  -17.0018  -42.7262  -59.9324 C   0  0  0  0  0  0  0  0  0  0  0  0
  -15.8382  -42.6877  -59.2657 C   0  0  0  0  0  0  0  0  0  0  0  0
  -17.8810  -39.4254  -61.6098 C   0  0  0  0  0  0  0  0  0  0  0  0
  -17.7428  -41.5276  -60.3813 C   0  0  0  0  0  0  0  0  0  0  0  0
  -17.1640  -40.5369  -61.1916 C   0  0  0  0  0  0  0  0  0  0  0  0
  -19.2141  -39.3209  -61.2263 C   0  0  0  0  0  0  0  0  0  0  0  0
  -19.9287  -38.2712  -61.6130 F   0  0  0  0  0  0  0  0  0  0  0  0
  -19.8074  -40.2878  -60.4202 C   0  0  0  0  0  0  0  0  0  0  0  0
  -21.0911  -40.1333  -60.0624 F   0  0  0  0  0  0  0  0  0  0  0  0
  -19.0852  -41.3987  -60.0004 C   0  0  0  0  0  0  0  0  0  0  0  0
 21 22  2  0  0  0
 21 24  1  0  0  0
 23 25  2  0  0  0
 23 26  1  0  0  0
  2  6  2  0  0  0
  2  7  1  0  0  0
  3  5  2  0  0  0
  3  7  1  0  0  0
  3  8  1  0  0  0
  4  8  2  0  0  0
  4  9  1  0  0  0
  5  6  1  0  0  0
  5 11  1  0  0  0
 12 13  1  0  0  0
 13 14  2  0  0  0
 13 15  1  0  0  0
 13  1  1  0  0  0
  1 17  1  0  0  0
  1  6  1  0  0  0
 17 18  2  0  0  0
 17 19  1  0  0  0
 19 22  1  0  0  0
 24 25  1  0  0  0
 24 30  2  0  0  0
 26 27  1  0  0  0
 26 28  2  0  0  0
 28 29  1  0  0  0
 28 30  1  0  0  0
  9 10  1  0  0  0
  9 11  2  0  0  0
 15 16  1  0  0  0
 19 20  1  0  0  0
M  END
> <minimizedAffinity>
-8.53669

$$$$
3N7O_N7O_A_1


 30 32  0  0  0  0  0  0  0  0999 V2000
  -13.9349  -45.2887  -56.7755 C   0  0  0  0  0  0  0  0  0  0  0  0
  -15.1863  -47.3875  -57.6155 C   0  0  0  0  0  0  0  0  0  0  0  0
  -16.5332  -47.8548  -55.5691 C   0  0  0  0  0  0  0  0  0  0  0  0
  -17.4268  -47.6265  -53.3449 C   0  0  0  0  0  0  0  0  0  0  0  0
  -15.7186  -46.7089  -55.4488 C   0  0  0  0  0  0  0  0  0  0  0  0
  -14.9247  -46.4423  -56.6807 C   0  0  0  0  0  0  0  0  0  0  0  0
  -16.3214  -48.5749  -57.1185 S   0  0  0  0  0  0  0  0  0  0  0  0
  -17.3662  -48.3176  -54.5456 C   0  0  0  0  0  0  0  0  0  0  0  0
  -16.6159  -46.4915  -53.2406 C   0  0  0  0  0  0  0  0  0  0  0  0
  -16.6255  -45.6465  -51.7307 Cl  0  0  0  0  0  0  0  0  0  0  0  0
  -15.7944  -46.0247  -54.2378 C   0  0  0  0  0  0  0  0  0  0  0  0
  -15.5958  -43.8075  -58.7406 C   0  0  0  0  0  0  0  0  0  0  0  0
  -14.6385  -43.6607  -57.2476 P   0  0  0  0  0  0  0  0  0  0  0  0
  -15.4623  -43.1267  -56.1296 O   0  0  0  0  0  0  0  0  0  0  0  0
  -13.4829  -42.6618  -57.6227 O   0  0  0  0  0  0  0  0  0  0  0  0
  -13.8639  -41.8049  -57.8706 H   0  0  0  0  0  0  0  0  0  0  0  0
  -12.6564  -45.5755  -57.6456 C   0  0  0  0  0  0  0  0  0  0  0  0
  -12.5802  -45.3267  -58.8236 O   0  0  0  0  0  0  0  0  0  0  0  0
  -11.7824  -46.5125  -57.0211 N   0  0  0  0  0  0  0  0  0  0  0  0
  -12.0361  -46.8626  -56.1366 H   0  0  0  0  0  0  0  0  0  0  0  0
   -9.4577  -46.2236  -57.4720 C   0  0  0  0  0  0  0  0  0  0  0  0
  -10.5626  -46.9741  -57.5991 C   0  0  0  0  0  0  0  0  0  0  0  0
   -5.9293  -45.8357  -58.8438 C   0  0  0  0  0  0  0  0  0  0  0  0
   -8.2036  -46.4572  -58.2202 C   0  0  0  0  0  0  0  0  0  0  0  0
   -7.1002  -45.5916  -58.1410 C   0  0  0  0  0  0  0  0  0  0  0  0
   -5.8577  -46.9867  -59.6218 C   0  0  0  0  0  0  0  0  0  0  0  0
   -4.7499  -47.2510  -60.3037 F   0  0  0  0  0  0  0  0  0  0  0  0
   -6.9398  -47.8564  -59.7189 C   0  0  0  0  0  0  0  0  0  0  0  0
   -6.8281  -48.9442  -60.4962 F   0  0  0  0  0  0  0  0  0  0  0  0
   -8.1125  -47.6072  -59.0159 C   0  0  0  0  0  0  0  0  0  0  0  0
 21 22  2  0  0  0
 21 24  1  0  0  0
 23 25  2  0  0  0
 23 26  1  0  0  0
  2  6  2  0  0  0
  2  7  1  0  0  0
  3  5  2  0  0  0
  3  7  1  0  0  0
  3  8  1  0  0  0
  4  8  2  0  0  0
  4  9  1  0  0  0
  5  6  1  0  0  0
  5 11  1  0  0  0
 12 13  1  0  0  0
 13 14  2  0  0  0
 13 15  1  0  0  0
 13  1  1  0  0  0
  1 17  1  0  0  0
  1  6  1  0  0  0
 17 18  2  0  0  0
 17 19  1  0  0  0
 19 22  1  0  0  0
 24 25  1  0  0  0
 24 30  2  0  0  0
 26 27  1  0  0  0
 26 28  2  0  0  0
 28 29  1  0  0  0
 28 30  1  0  0  0
  9 10  1  0  0  0
  9 11  2  0  0  0
 15 16  1  0  0  0
 19 20  1  0  0  0
M  END
> <minimizedAffinity>
-8.49424

$$$$
3N7O_N7O_A_1


 30 32  0  0  0  0  0  0  0  0999 V2000
  -13.9905  -45.2109  -56.6766 C   0  0  0  0  0  0  0  0  0  0  0  0
  -15.2087  -47.3176  -57.5454 C   0  0  0  0  0  0  0  0  0  0  0  0
  -16.5518  -47.8310  -55.5075 C   0  0  0  0  0  0  0  0  0  0  0  0
  -17.4524  -47.6443  -53.2822 C   0  0  0  0  0  0  0  0  0  0  0  0
  -15.7548  -46.6745  -55.3712 C   0  0  0  0  0  0  0  0  0  0  0  0
  -14.9630  -46.3805  -56.5982 C   0  0  0  0  0  0  0  0  0  0  0  0
  -16.3266  -48.5282  -57.0654 S   0  0  0  0  0  0  0  0  0  0  0  0
  -17.3795  -48.3192  -54.4914 C   0  0  0  0  0  0  0  0  0  0  0  0
  -16.6589  -46.4986  -53.1622 C   0  0  0  0  0  0  0  0  0  0  0  0
  -16.6838  -45.6730  -51.6417 Cl  0  0  0  0  0  0  0  0  0  0  0  0
  -15.8429  -46.0069  -54.1519 C   0  0  0  0  0  0  0  0  0  0  0  0
  -15.6270  -43.7727  -58.6934 C   0  0  0  0  0  0  0  0  0  0  0  0
  -14.7091  -43.5985  -57.1788 P   0  0  0  0  0  0  0  0  0  0  0  0
  -15.5686  -43.0697  -56.0855 O   0  0  0  0  0  0  0  0  0  0  0  0
  -13.5612  -42.5835  -57.5338 O   0  0  0  0  0  0  0  0  0  0  0  0
  -13.9501  -41.7350  -57.7979 H   0  0  0  0  0  0  0  0  0  0  0  0
  -12.6856  -45.4824  -57.5118 C   0  0  0  0  0  0  0  0  0  0  0  0
  -12.5472  -45.1481  -58.6627 O   0  0  0  0  0  0  0  0  0  0  0  0
  -11.8760  -46.4986  -56.9257 N   0  0  0  0  0  0  0  0  0  0  0  0
  -12.1822  -46.9043  -56.0825 H   0  0  0  0  0  0  0  0  0  0  0  0
  -10.6269  -48.1544  -58.1041 C   0  0  0  0  0  0  0  0  0  0  0  0
  -10.6494  -46.9639  -57.4859 C   0  0  0  0  0  0  0  0  0  0  0  0
   -8.0104  -50.8651  -58.6413 C   0  0  0  0  0  0  0  0  0  0  0  0
   -9.3903  -48.8588  -58.5067 C   0  0  0  0  0  0  0  0  0  0  0  0
   -9.1740  -50.2219  -58.2453 C   0  0  0  0  0  0  0  0  0  0  0  0
   -7.0566  -50.1289  -59.3364 C   0  0  0  0  0  0  0  0  0  0  0  0
   -5.9338  -50.7159  -59.7325 F   0  0  0  0  0  0  0  0  0  0  0  0
   -7.2473  -48.7763  -59.6028 C   0  0  0  0  0  0  0  0  0  0  0  0
   -6.2901  -48.1051  -60.2610 F   0  0  0  0  0  0  0  0  0  0  0  0
   -8.4128  -48.1341  -59.2019 C   0  0  0  0  0  0  0  0  0  0  0  0
 21 22  2  0  0  0
 21 24  1  0  0  0
 23 25  2  0  0  0
 23 26  1  0  0  0
  2  6  2  0  0  0
  2  7  1  0  0  0
  3  5  2  0  0  0
  3  7  1  0  0  0
  3  8  1  0  0  0
  4  8  2  0  0  0
  4  9  1  0  0  0
  5  6  1  0  0  0
  5 11  1  0  0  0
 12 13  1  0  0  0
 13 14  2  0  0  0
 13 15  1  0  0  0
 13  1  1  0  0  0
  1 17  1  0  0  0
  1  6  1  0  0  0
 17 18  2  0  0  0
 17 19  1  0  0  0
 19 22  1  0  0  0
 24 25  1  0  0  0
 24 30  2  0  0  0
 26 27  1  0  0  0
 26 28  2  0  0  0
 28 29  1  0  0  0
 28 30  1  0  0  0
  9 10  1  0  0  0
  9 11  2  0  0  0
 15 16  1  0  0  0
 19 20  1  0  0  0
M  END
> <minimizedAffinity>
-8.18213

$$$$
