3NES_B72_A_1
  RCSB PDB12061709543D
Coordinates from PDB:3NES:A:1 Model:1 without hydrogens
 24 25  0  0  0  0            999 V2000
    3.4620   -1.5490    2.4280   O 0  0  0  0  0  0  0  0  0  0  0  0
    2.2880   -1.1400    2.2930   C 0  0  0  0  0  0  0  0  0  0  0  0
    1.2850   -1.8710    2.4360   O 0  0  0  0  0  0  0  0  0  0  0  0
    2.0650    0.3420    1.9420   C 0  0  0  0  0  0  0  0  0  0  0  0
    0.8060    0.8410    1.3820   O 0  0  0  0  0  0  0  0  0  0  0  0
    0.4620    0.4830    0.0960   C 0  0  0  0  0  0  0  0  0  0  0  0
    1.2160   -0.4380   -0.6190   C 0  0  0  0  0  0  0  0  0  0  0  0
    0.8480   -0.7650   -1.9180   C 0  0  0  0  0  0  0  0  0  0  0  0
    1.6990   -1.7870   -2.6900   C 0  0  0  0  0  0  0  0  0  0  0  0
   -0.2810   -0.1830   -2.5130   C 0  0  0  0  0  0  0  0  0  0  0  0
   -1.0450    0.7160   -1.7840   C 0  0  0  0  0  0  0  0  0  0  0  0
   -0.6670    1.0520   -0.4900   C 0  0  0  0  0  0  0  0  0  0  0  0
   -2.3000    1.3570   -2.4030   C 0  0  0  0  0  0  0  0  0  0  0  0
   -0.7220   -0.5950   -3.9120   C 0  0  0  0  0  0  0  0  0  0  0  0
    0.0290    0.0960   -5.0030   C 0  0  0  0  0  0  0  0  0  0  0  0
   -0.1750   -0.3030   -6.3290   C 0  0  0  0  0  0  0  0  0  0  0  0
    0.5050    0.3500   -7.3270   C 0  0  0  0  0  0  0  0  0  0  0  0
    0.3770   -0.0220   -8.8150   C 0  0  0  0  0  0  0  0  0  0  0  0
   -0.7460   -1.0360   -9.0110   C 0  0  0  0  0  0  0  0  0  0  0  0
    0.0970    1.2460   -9.6070   C 0  0  0  0  0  0  0  0  0  0  0  0
    1.3420    1.3840   -6.9630   C 0  0  0  0  0  0  0  0  0  0  0  0
    2.0020    2.0110   -7.9540   O 0  0  0  0  0  0  0  0  0  0  0  0
    1.5230    1.7870   -5.6400   C 0  0  0  0  0  0  0  0  0  0  0  0
    0.8480    1.1360   -4.6350   C 0  0  0  0  0  0  0  0  0  0  0  0
  2  3  2  0  0  0  0
  2  1  1  0  0  0  0
  4  2  1  0  0  0  0
  5  4  1  0  0  0  0
  6  5  1  0  0  0  0
  7  6  1  0  0  0  0
  8  7  2  0  0  0  0
  9  8  1  0  0  0  0
 10 11  2  0  0  0  0
 10  8  1  0  0  0  0
 11 12  1  0  0  0  0
 12  6  2  0  0  0  0
 13 11  1  0  0  0  0
 14 10  1  0  0  0  0
 15 24  1  0  0  0  0
 15 14  1  0  0  0  0
 16 15  2  0  0  0  0
 17 21  2  0  0  0  0
 17 16  1  0  0  0  0
 18 17  1  0  0  0  0
 18 20  1  0  0  0  0
 19 18  1  0  0  0  0
 21 23  1  0  0  0  0
 22 21  1  0  0  0  0
 23 24  2  0  0  0  0
A    1
O1
A    2
C20
A    3
O2
A    4
C19
A    5
O3
A    6
C1
A    7
C2
A    8
C3
A    9
C17
A   10
C4
A   11
C5
A   12
C6
A   13
C18
A   14
C7
A   15
C8
A   16
C13
A   17
C12
A   18
C14
A   19
C16
A   20
C15
A   21
C11
A   22
O4
A   23
C10
A   24
C9
M  END
>  <InstanceId>
3NES_B72_A_1

>  <ChemCompId>
B72

>  <PdbId>
3NES

>  <ChainId>
A

>  <ResidueNumber>
1

>  <InsertionCode>


>  <Model>
1

>  <AltIds>


>  <MissingHeavyAtoms>
0

>  <ObservedFormula>
C20 O4

>  <Name>
{4-[4-hydroxy-3-(1-methylethyl)benzyl]-3,5-dimethylphenoxy}acetic acid

>  <SystematicName>
2-[4-[(4-hydroxy-3-propan-2-yl-phenyl)methyl]-3,5-dimethyl-phenoxy]ethanoic acid

>  <Synonyms>


>  <Type>
NON-POLYMER

>  <Formula>
C20 H24 O4

>  <MolecularWeight>
328.402

>  <ModifiedDate>
2011-06-04

>  <Parent>


>  <OneLetterCode>


>  <SubcomponentList>


>  <AmbiguousFlag>
N

>  <InChI>
InChI=1S/C20H24O4/c1-12(2)17-9-15(5-6-19(17)21)10-18-13(3)7-16(8-14(18)4)24-11-20(22)23/h5-9,12,21H,10-11H2,1-4H3,(H,22,23)

>  <InChIKey>
QNAZTOHXCZPOSA-UHFFFAOYSA-N

>  <SMILES>
Cc1cc(cc(c1Cc2ccc(c(c2)C(C)C)O)C)OCC(=O)O

$$$$
