3IUE_FG3_A_302


 30 32  0  0  0  0  0  0  0  0999 V2000
   16.0049   10.2670   -0.8246 N   0  0  0  0  0  0  0  0  0  0  0  0
   14.9395    9.9374   -4.3395 C   0  0  0  0  0  0  0  0  0  0  0  0
   15.8199   10.0131   -3.2612 C   0  0  0  0  0  0  0  0  0  0  0  0
   13.1267   10.2519   -2.7955 C   0  0  0  0  0  0  0  0  0  0  0  0
   13.8765   10.4606   -0.4298 C   0  0  0  0  0  0  0  0  0  0  0  0
   13.5712   10.0393   -4.1265 C   0  0  0  0  0  0  0  0  0  0  0  0
   15.0905   10.4209    0.1449 C   0  0  0  0  0  0  0  0  0  0  0  0
   14.0214   10.2944   -1.7677 C   0  0  0  0  0  0  0  0  0  0  0  0
   15.3468   10.1711   -1.9987 C   0  0  0  0  0  0  0  0  0  0  0  0
   16.1679   11.3682    1.9330 O   0  0  0  0  0  0  0  0  0  0  0  0
   14.6849    9.6945    2.2555 N   0  0  0  0  0  0  0  0  0  0  0  0
   15.3494   10.5493    1.4757 C   0  0  0  0  0  0  0  0  0  0  0  0
   14.0781    9.0321    1.8529 H   0  0  0  0  0  0  0  0  0  0  0  0
   13.8367    8.8063    4.5137 O   0  0  0  0  0  0  0  0  0  0  0  0
   14.7269   11.1932    4.3689 O   0  0  0  0  0  0  0  0  0  0  0  0
   14.8789    9.7460    3.8975 S   0  0  0  0  0  0  0  0  0  0  0  0
   20.2153    7.5745    5.4570 C   0  0  0  0  0  0  0  0  0  0  0  0
   18.3660    9.1315    5.8656 C   0  0  0  0  0  0  0  0  0  0  0  0
   17.1086    9.6296    5.5106 C   0  0  0  0  0  0  0  0  0  0  0  0
   18.2827    7.5938    3.9849 C   0  0  0  0  0  0  0  0  0  0  0  0
   17.0343    8.1258    3.6370 N   0  0  0  0  0  0  0  0  0  0  0  0
   18.9508    8.1015    5.1083 C   0  0  0  0  0  0  0  0  0  0  0  0
   16.4681    9.1103    4.3787 C   0  0  0  0  0  0  0  0  0  0  0  0
   11.4152    9.5843   -5.0425 C   0  0  0  0  0  0  0  0  0  0  0  0
   12.7674    9.9848   -5.2461 O   0  0  0  0  0  0  0  0  0  0  0  0
   17.5017   10.0763   -0.7900 C   0  0  0  0  0  0  0  0  0  0  0  0
   18.4553   11.2361   -0.6476 C   0  0  0  0  0  0  0  0  0  0  0  0
   17.9983   12.3846   -0.4917 O   0  0  0  0  0  0  0  0  0  0  0  0
   19.6648   10.9179   -0.7605 O   0  0  0  0  0  0  0  0  0  0  0  0
   17.0734   12.5148   -0.4178 H   0  0  0  0  0  0  0  0  0  0  0  0
 26 27  1  0  0  0
 27 29  2  0  0  0
 27 28  1  0  0  0
  9  1  1  0  0  0
 26  1  1  0  0  0
  1  7  1  0  0  0
 25 24  1  0  0  0
 22 17  1  0  0  0
 12 10  2  0  0  0
 16 14  2  0  0  0
 16 15  2  0  0  0
 19 18  2  0  0  0
 22 18  1  0  0  0
 23 19  1  0  0  0
  2  6  2  0  0  0
  2  3  1  0  0  0
  3  9  2  0  0  0
 21 20  1  0  0  0
 20 22  2  0  0  0
  6  4  1  0  0  0
  4  8  2  0  0  0
  8  5  1  0  0  0
  5  7  2  0  0  0
 21 23  2  0  0  0
 12 11  1  0  0  0
 11 16  1  0  0  0
 25  6  1  0  0  0
  7 12  1  0  0  0
 16 23  1  0  0  0
  9  8  1  0  0  0
 28 30  1  0  0  0
 11 13  1  0  0  0
M  END
> <minimizedAffinity>
-9.99410

$$$$
3IUE_FG3_A_302


 30 32  0  0  0  0  0  0  0  0999 V2000
   16.2753   10.3220   -1.4503 N   0  0  0  0  0  0  0  0  0  0  0  0
   14.6471   10.0005   -4.7434 C   0  0  0  0  0  0  0  0  0  0  0  0
   15.6915   10.1294   -3.8290 C   0  0  0  0  0  0  0  0  0  0  0  0
   13.1109   10.0820   -2.8987 C   0  0  0  0  0  0  0  0  0  0  0  0
   14.2401   10.2886   -0.6886 C   0  0  0  0  0  0  0  0  0  0  0  0
   13.3336    9.9579   -4.2949 C   0  0  0  0  0  0  0  0  0  0  0  0
   15.5342   10.3522   -0.3325 C   0  0  0  0  0  0  0  0  0  0  0  0
   14.1636   10.1808   -2.0381 C   0  0  0  0  0  0  0  0  0  0  0  0
   15.4338   10.1985   -2.4980 C   0  0  0  0  0  0  0  0  0  0  0  0
   16.2037   11.5577    1.4989 O   0  0  0  0  0  0  0  0  0  0  0  0
   16.2913    9.3003    1.5295 N   0  0  0  0  0  0  0  0  0  0  0  0
   16.0088   10.4631    0.9392 C   0  0  0  0  0  0  0  0  0  0  0  0
   16.1643    8.4564    1.0386 H   0  0  0  0  0  0  0  0  0  0  0  0
   16.5519    7.8866    3.6605 O   0  0  0  0  0  0  0  0  0  0  0  0
   16.1873   10.4031    3.8719 O   0  0  0  0  0  0  0  0  0  0  0  0
   16.8547    9.2742    3.0847 S   0  0  0  0  0  0  0  0  0  0  0  0
   22.7827    9.9547    3.2272 C   0  0  0  0  0  0  0  0  0  0  0  0
   20.8043    8.5678    3.6438 C   0  0  0  0  0  0  0  0  0  0  0  0
   19.4167    8.4014    3.5955 C   0  0  0  0  0  0  0  0  0  0  0  0
   20.5626   10.8080    2.7319 C   0  0  0  0  0  0  0  0  0  0  0  0
   19.1738   10.6247    2.7151 N   0  0  0  0  0  0  0  0  0  0  0  0
   21.3814    9.7701    3.1992 C   0  0  0  0  0  0  0  0  0  0  0  0
   18.6225    9.4578    3.1326 C   0  0  0  0  0  0  0  0  0  0  0  0
   11.0639    9.4454   -4.8240 C   0  0  0  0  0  0  0  0  0  0  0  0
   12.3551    9.8593   -5.2620 O   0  0  0  0  0  0  0  0  0  0  0  0
   17.7662   10.2812   -1.6815 C   0  0  0  0  0  0  0  0  0  0  0  0
   18.7187   11.1821   -0.9359 C   0  0  0  0  0  0  0  0  0  0  0  0
   18.3679   12.3457   -0.6617 O   0  0  0  0  0  0  0  0  0  0  0  0
   19.8379   10.6612   -0.7059 O   0  0  0  0  0  0  0  0  0  0  0  0
   17.5040   12.6377   -0.8774 H   0  0  0  0  0  0  0  0  0  0  0  0
 26 27  1  0  0  0
 27 29  2  0  0  0
 27 28  1  0  0  0
  9  1  1  0  0  0
 26  1  1  0  0  0
  1  7  1  0  0  0
 25 24  1  0  0  0
 22 17  1  0  0  0
 12 10  2  0  0  0
 16 14  2  0  0  0
 16 15  2  0  0  0
 19 18  2  0  0  0
 22 18  1  0  0  0
 23 19  1  0  0  0
  2  6  2  0  0  0
  2  3  1  0  0  0
  3  9  2  0  0  0
 21 20  1  0  0  0
 20 22  2  0  0  0
  6  4  1  0  0  0
  4  8  2  0  0  0
  8  5  1  0  0  0
  5  7  2  0  0  0
 21 23  2  0  0  0
 12 11  1  0  0  0
 11 16  1  0  0  0
 25  6  1  0  0  0
  7 12  1  0  0  0
 16 23  1  0  0  0
  9  8  1  0  0  0
 28 30  1  0  0  0
 11 13  1  0  0  0
M  END
> <minimizedAffinity>
-9.90170

$$$$
3IUE_FG3_A_302


 30 32  0  0  0  0  0  0  0  0999 V2000
   16.4885   10.4257   -0.8609 N   0  0  0  0  0  0  0  0  0  0  0  0
   14.9425   10.1690   -4.1990 C   0  0  0  0  0  0  0  0  0  0  0  0
   15.9642   10.2744   -3.2563 C   0  0  0  0  0  0  0  0  0  0  0  0
   13.3602   10.2369   -2.3931 C   0  0  0  0  0  0  0  0  0  0  0  0
   14.4341   10.3996   -0.1519 C   0  0  0  0  0  0  0  0  0  0  0  0
   13.6176   10.1318   -3.7848 C   0  0  0  0  0  0  0  0  0  0  0  0
   15.7192   10.4458    0.2380 C   0  0  0  0  0  0  0  0  0  0  0  0
   14.3914   10.3129   -1.5044 C   0  0  0  0  0  0  0  0  0  0  0  0
   15.6731   10.3258   -1.9315 C   0  0  0  0  0  0  0  0  0  0  0  0
   15.9864   11.5384    2.2356 O   0  0  0  0  0  0  0  0  0  0  0  0
   16.8408    9.4666    1.9496 N   0  0  0  0  0  0  0  0  0  0  0  0
   16.1620   10.5330    1.5229 C   0  0  0  0  0  0  0  0  0  0  0  0
   16.9964    8.7077    1.3420 H   0  0  0  0  0  0  0  0  0  0  0  0
   18.0582   10.7795    3.7942 O   0  0  0  0  0  0  0  0  0  0  0  0
   18.4132    8.2588    3.6179 O   0  0  0  0  0  0  0  0  0  0  0  0
   17.4215    9.4172    3.4978 S   0  0  0  0  0  0  0  0  0  0  0  0
   12.9543    8.7335    7.3966 C   0  0  0  0  0  0  0  0  0  0  0  0
   15.3386    9.0985    6.9578 C   0  0  0  0  0  0  0  0  0  0  0  0
   16.3833    9.2751    6.0451 C   0  0  0  0  0  0  0  0  0  0  0  0
   13.7742    8.8573    5.1130 C   0  0  0  0  0  0  0  0  0  0  0  0
   14.8417    9.0141    4.2196 N   0  0  0  0  0  0  0  0  0  0  0  0
   14.0271    8.9012    6.4915 C   0  0  0  0  0  0  0  0  0  0  0  0
   16.1033    9.2176    4.6742 C   0  0  0  0  0  0  0  0  0  0  0  0
   11.4861    9.3123   -4.4775 C   0  0  0  0  0  0  0  0  0  0  0  0
   12.6634   10.0569   -4.7780 O   0  0  0  0  0  0  0  0  0  0  0  0
   17.9844   10.3745   -1.0545 C   0  0  0  0  0  0  0  0  0  0  0  0
   18.8960   11.4670   -0.5543 C   0  0  0  0  0  0  0  0  0  0  0  0
   18.4215   12.5936   -0.3138 O   0  0  0  0  0  0  0  0  0  0  0  0
   20.1031   11.1291   -0.4804 O   0  0  0  0  0  0  0  0  0  0  0  0
   17.5004   12.7421   -0.3999 H   0  0  0  0  0  0  0  0  0  0  0  0
 26 27  1  0  0  0
 27 29  2  0  0  0
 27 28  1  0  0  0
  9  1  1  0  0  0
 26  1  1  0  0  0
  1  7  1  0  0  0
 25 24  1  0  0  0
 22 17  1  0  0  0
 12 10  2  0  0  0
 16 14  2  0  0  0
 16 15  2  0  0  0
 19 18  2  0  0  0
 22 18  1  0  0  0
 23 19  1  0  0  0
  2  6  2  0  0  0
  2  3  1  0  0  0
  3  9  2  0  0  0
 21 20  1  0  0  0
 20 22  2  0  0  0
  6  4  1  0  0  0
  4  8  2  0  0  0
  8  5  1  0  0  0
  5  7  2  0  0  0
 21 23  2  0  0  0
 12 11  1  0  0  0
 11 16  1  0  0  0
 25  6  1  0  0  0
  7 12  1  0  0  0
 16 23  1  0  0  0
  9  8  1  0  0  0
 28 30  1  0  0  0
 11 13  1  0  0  0
M  END
> <minimizedAffinity>
-9.75406

$$$$
3IUE_FG3_A_302


 30 32  0  0  0  0  0  0  0  0999 V2000
   16.7331   10.7436    0.3616 N   0  0  0  0  0  0  0  0  0  0  0  0
   13.4504   10.2776   -1.2525 C   0  0  0  0  0  0  0  0  0  0  0  0
   14.3577   10.5076   -0.2193 C   0  0  0  0  0  0  0  0  0  0  0  0
   15.3147   10.0600   -2.7513 C   0  0  0  0  0  0  0  0  0  0  0  0
   17.5163   10.3902   -1.6348 C   0  0  0  0  0  0  0  0  0  0  0  0
   13.9105   10.0646   -2.5452 C   0  0  0  0  0  0  0  0  0  0  0  0
   17.8577   10.6748   -0.3667 C   0  0  0  0  0  0  0  0  0  0  0  0
   16.1649   10.3146   -1.7163 C   0  0  0  0  0  0  0  0  0  0  0  0
   15.6911   10.5401   -0.4713 C   0  0  0  0  0  0  0  0  0  0  0  0
   19.8227   11.8338   -0.1408 O   0  0  0  0  0  0  0  0  0  0  0  0
   19.5847    9.8016    0.8172 N   0  0  0  0  0  0  0  0  0  0  0  0
   19.1261   10.8315    0.1036 C   0  0  0  0  0  0  0  0  0  0  0  0
   19.0191    9.0073    0.9530 H   0  0  0  0  0  0  0  0  0  0  0  0
   21.0790   10.8991    2.5977 O   0  0  0  0  0  0  0  0  0  0  0  0
   22.1069   10.1935    0.3714 O   0  0  0  0  0  0  0  0  0  0  0  0
   21.1019    9.8569    1.4742 S   0  0  0  0  0  0  0  0  0  0  0  0
   22.4858    4.6712    4.0852 C   0  0  0  0  0  0  0  0  0  0  0  0
   22.8609    6.3005    2.2920 C   0  0  0  0  0  0  0  0  0  0  0  0
   22.5486    7.5229    1.6890 C   0  0  0  0  0  0  0  0  0  0  0  0
   21.1672    6.7094    3.9870 C   0  0  0  0  0  0  0  0  0  0  0  0
   20.8577    7.9185    3.3508 N   0  0  0  0  0  0  0  0  0  0  0  0
   22.1771    5.8969    3.4522 C   0  0  0  0  0  0  0  0  0  0  0  0
   21.5294    8.3100    2.2394 C   0  0  0  0  0  0  0  0  0  0  0  0
   13.3446   10.0101   -4.8628 C   0  0  0  0  0  0  0  0  0  0  0  0
   12.9536    9.8146   -3.5065 O   0  0  0  0  0  0  0  0  0  0  0  0
   16.4761   11.1048    1.8043 C   0  0  0  0  0  0  0  0  0  0  0  0
   17.4962   11.8333    2.6430 C   0  0  0  0  0  0  0  0  0  0  0  0
   18.2626   11.1783    3.3750 O   0  0  0  0  0  0  0  0  0  0  0  0
   17.4287   13.0841    2.5546 O   0  0  0  0  0  0  0  0  0  0  0  0
   18.2327   10.2418    3.3657 H   0  0  0  0  0  0  0  0  0  0  0  0
 26 27  1  0  0  0
 27 29  2  0  0  0
 27 28  1  0  0  0
  9  1  1  0  0  0
 26  1  1  0  0  0
  1  7  1  0  0  0
 25 24  1  0  0  0
 22 17  1  0  0  0
 12 10  2  0  0  0
 16 14  2  0  0  0
 16 15  2  0  0  0
 19 18  2  0  0  0
 22 18  1  0  0  0
 23 19  1  0  0  0
  2  6  2  0  0  0
  2  3  1  0  0  0
  3  9  2  0  0  0
 21 20  1  0  0  0
 20 22  2  0  0  0
  6  4  1  0  0  0
  4  8  2  0  0  0
  8  5  1  0  0  0
  5  7  2  0  0  0
 21 23  2  0  0  0
 12 11  1  0  0  0
 11 16  1  0  0  0
 25  6  1  0  0  0
  7 12  1  0  0  0
 16 23  1  0  0  0
  9  8  1  0  0  0
 28 30  1  0  0  0
 11 13  1  0  0  0
M  END
> <minimizedAffinity>
-9.64069

$$$$
3IUE_FG3_A_302


 30 32  0  0  0  0  0  0  0  0999 V2000
   17.3621    9.9996    4.4663 N   0  0  0  0  0  0  0  0  0  0  0  0
   16.1255    8.6531    7.6688 C   0  0  0  0  0  0  0  0  0  0  0  0
   17.0228    8.8788    6.6260 C   0  0  0  0  0  0  0  0  0  0  0  0
   14.5096    9.9687    6.4741 C   0  0  0  0  0  0  0  0  0  0  0  0
   15.3769   10.8725    4.3216 C   0  0  0  0  0  0  0  0  0  0  0  0
   14.8534    9.2078    7.6217 C   0  0  0  0  0  0  0  0  0  0  0  0
   16.5696   10.7745    3.7104 C   0  0  0  0  0  0  0  0  0  0  0  0
   15.4272   10.1851    5.4893 C   0  0  0  0  0  0  0  0  0  0  0  0
   16.6660    9.6519    5.5687 C   0  0  0  0  0  0  0  0  0  0  0  0
   17.1539   12.5473    2.3795 O   0  0  0  0  0  0  0  0  0  0  0  0
   16.9017   10.4882    1.4846 N   0  0  0  0  0  0  0  0  0  0  0  0
   16.9038   11.3354    2.5153 C   0  0  0  0  0  0  0  0  0  0  0  0
   16.6565    9.5450    1.6243 H   0  0  0  0  0  0  0  0  0  0  0  0
   18.5118   10.1923   -0.4973 O   0  0  0  0  0  0  0  0  0  0  0  0
   17.6100   12.5183    0.0384 O   0  0  0  0  0  0  0  0  0  0  0  0
   17.3103   11.0198   -0.0277 S   0  0  0  0  0  0  0  0  0  0  0  0
   12.8882   10.0125   -3.9078 C   0  0  0  0  0  0  0  0  0  0  0  0
   15.2474    9.7747   -3.2843 C   0  0  0  0  0  0  0  0  0  0  0  0
   16.2805    9.9959   -2.3682 C   0  0  0  0  0  0  0  0  0  0  0  0
   13.7010   10.9392   -1.8142 C   0  0  0  0  0  0  0  0  0  0  0  0
   14.7581   11.1677   -0.9238 N   0  0  0  0  0  0  0  0  0  0  0  0
   13.9500   10.2365   -3.0018 C   0  0  0  0  0  0  0  0  0  0  0  0
   16.0053   10.7084   -1.1945 C   0  0  0  0  0  0  0  0  0  0  0  0
   12.9203    9.8033    8.8879 C   0  0  0  0  0  0  0  0  0  0  0  0
   14.0138    8.9145    8.6760 O   0  0  0  0  0  0  0  0  0  0  0  0
   18.8129    9.6024    4.3433 C   0  0  0  0  0  0  0  0  0  0  0  0
   19.2777    8.5548    3.3628 C   0  0  0  0  0  0  0  0  0  0  0  0
   19.4095    8.8603    2.1621 O   0  0  0  0  0  0  0  0  0  0  0  0
   19.4388    7.4177    3.8705 O   0  0  0  0  0  0  0  0  0  0  0  0
   19.2651    9.7436    1.8848 H   0  0  0  0  0  0  0  0  0  0  0  0
 26 27  1  0  0  0
 27 29  2  0  0  0
 27 28  1  0  0  0
  9  1  1  0  0  0
 26  1  1  0  0  0
  1  7  1  0  0  0
 25 24  1  0  0  0
 22 17  1  0  0  0
 12 10  2  0  0  0
 16 14  2  0  0  0
 16 15  2  0  0  0
 19 18  2  0  0  0
 22 18  1  0  0  0
 23 19  1  0  0  0
  2  6  2  0  0  0
  2  3  1  0  0  0
  3  9  2  0  0  0
 21 20  1  0  0  0
 20 22  2  0  0  0
  6  4  1  0  0  0
  4  8  2  0  0  0
  8  5  1  0  0  0
  5  7  2  0  0  0
 21 23  2  0  0  0
 12 11  1  0  0  0
 11 16  1  0  0  0
 25  6  1  0  0  0
  7 12  1  0  0  0
 16 23  1  0  0  0
  9  8  1  0  0  0
 28 30  1  0  0  0
 11 13  1  0  0  0
M  END
> <minimizedAffinity>
-9.41192

$$$$
3IUE_FG3_A_302


 30 32  0  0  0  0  0  0  0  0999 V2000
   18.5595    9.9958    1.8885 N   0  0  0  0  0  0  0  0  0  0  0  0
   21.7460    9.7564    3.7290 C   0  0  0  0  0  0  0  0  0  0  0  0
   20.8994    9.8795    2.6283 C   0  0  0  0  0  0  0  0  0  0  0  0
   19.7981    9.5924    5.1247 C   0  0  0  0  0  0  0  0  0  0  0  0
   17.6627    9.7680    3.8551 C   0  0  0  0  0  0  0  0  0  0  0  0
   21.2118    9.6262    5.0041 C   0  0  0  0  0  0  0  0  0  0  0  0
   17.3938    9.9460    2.5506 C   0  0  0  0  0  0  0  0  0  0  0  0
   19.0078    9.7417    4.0237 C   0  0  0  0  0  0  0  0  0  0  0  0
   19.5524    9.8883    2.7961 C   0  0  0  0  0  0  0  0  0  0  0  0
   15.6369   11.1018    1.6381 O   0  0  0  0  0  0  0  0  0  0  0  0
   15.5118    8.8609    1.8968 N   0  0  0  0  0  0  0  0  0  0  0  0
   16.1536   10.0266    1.9939 C   0  0  0  0  0  0  0  0  0  0  0  0
   15.9365    8.0371    2.2290 H   0  0  0  0  0  0  0  0  0  0  0  0
   13.1384    9.8479    1.9237 O   0  0  0  0  0  0  0  0  0  0  0  0
   13.4541    7.3777    1.3676 O   0  0  0  0  0  0  0  0  0  0  0  0
   14.0040    8.7973    1.2194 S   0  0  0  0  0  0  0  0  0  0  0  0
   14.1929   10.2943   -4.5553 C   0  0  0  0  0  0  0  0  0  0  0  0
   13.3115   10.6799   -2.3002 C   0  0  0  0  0  0  0  0  0  0  0  0
   13.2792   10.3402   -0.9441 C   0  0  0  0  0  0  0  0  0  0  0  0
   14.9024    8.8874   -2.7061 C   0  0  0  0  0  0  0  0  0  0  0  0
   14.8346    8.5528   -1.3475 N   0  0  0  0  0  0  0  0  0  0  0  0
   14.1351    9.9597   -3.1831 C   0  0  0  0  0  0  0  0  0  0  0  0
   14.0489    9.2592   -0.4970 C   0  0  0  0  0  0  0  0  0  0  0  0
   23.4713    9.8011    5.7512 C   0  0  0  0  0  0  0  0  0  0  0  0
   22.1130    9.4793    6.0378 O   0  0  0  0  0  0  0  0  0  0  0  0
   18.8965   10.2560    0.4406 C   0  0  0  0  0  0  0  0  0  0  0  0
   19.1831   11.6423   -0.0800 C   0  0  0  0  0  0  0  0  0  0  0  0
   18.2356   12.3613   -0.4510 O   0  0  0  0  0  0  0  0  0  0  0  0
   20.4059   11.9212   -0.1397 O   0  0  0  0  0  0  0  0  0  0  0  0
   17.3539   12.0572   -0.3620 H   0  0  0  0  0  0  0  0  0  0  0  0
 26 27  1  0  0  0
 27 29  2  0  0  0
 27 28  1  0  0  0
  9  1  1  0  0  0
 26  1  1  0  0  0
  1  7  1  0  0  0
 25 24  1  0  0  0
 22 17  1  0  0  0
 12 10  2  0  0  0
 16 14  2  0  0  0
 16 15  2  0  0  0
 19 18  2  0  0  0
 22 18  1  0  0  0
 23 19  1  0  0  0
  2  6  2  0  0  0
  2  3  1  0  0  0
  3  9  2  0  0  0
 21 20  1  0  0  0
 20 22  2  0  0  0
  6  4  1  0  0  0
  4  8  2  0  0  0
  8  5  1  0  0  0
  5  7  2  0  0  0
 21 23  2  0  0  0
 12 11  1  0  0  0
 11 16  1  0  0  0
 25  6  1  0  0  0
  7 12  1  0  0  0
 16 23  1  0  0  0
  9  8  1  0  0  0
 28 30  1  0  0  0
 11 13  1  0  0  0
M  END
> <minimizedAffinity>
-9.18632

$$$$
3IUE_FG3_A_302


 30 32  0  0  0  0  0  0  0  0999 V2000
   19.9319    8.8168    3.5089 N   0  0  0  0  0  0  0  0  0  0  0  0
   21.8322    5.8810    4.6787 C   0  0  0  0  0  0  0  0  0  0  0  0
   20.8108    6.8296    4.6553 C   0  0  0  0  0  0  0  0  0  0  0  0
   22.8387    7.0165    2.8168 C   0  0  0  0  0  0  0  0  0  0  0  0
   21.5276    8.9876    2.0431 C   0  0  0  0  0  0  0  0  0  0  0  0
   22.8606    5.9457    3.7479 C   0  0  0  0  0  0  0  0  0  0  0  0
   20.3688    9.5270    2.4579 C   0  0  0  0  0  0  0  0  0  0  0  0
   21.8066    7.9074    2.8138 C   0  0  0  0  0  0  0  0  0  0  0  0
   20.8063    7.8103    3.7167 C   0  0  0  0  0  0  0  0  0  0  0  0
   20.1443   11.7875    2.1493 O   0  0  0  0  0  0  0  0  0  0  0  0
   18.6923   10.3571    1.1747 N   0  0  0  0  0  0  0  0  0  0  0  0
   19.7622   10.6241    1.9259 C   0  0  0  0  0  0  0  0  0  0  0  0
   18.3950    9.4260    1.0561 H   0  0  0  0  0  0  0  0  0  0  0  0
   18.8740   12.3954   -0.3811 O   0  0  0  0  0  0  0  0  0  0  0  0
   17.1685   12.4247    1.5166 O   0  0  0  0  0  0  0  0  0  0  0  0
   17.8644   11.5878    0.4420 S   0  0  0  0  0  0  0  0  0  0  0  0
   13.8002    9.5141   -3.4059 C   0  0  0  0  0  0  0  0  0  0  0  0
   16.1473    9.7700   -2.7452 C   0  0  0  0  0  0  0  0  0  0  0  0
   17.0993   10.2413   -1.8358 C   0  0  0  0  0  0  0  0  0  0  0  0
   14.3761   10.7085   -1.3701 C   0  0  0  0  0  0  0  0  0  0  0  0
   15.3508   11.1898   -0.4866 N   0  0  0  0  0  0  0  0  0  0  0  0
   14.7800    9.9929   -2.5064 C   0  0  0  0  0  0  0  0  0  0  0  0
   16.6682   10.9606   -0.7142 C   0  0  0  0  0  0  0  0  0  0  0  0
   24.1407    4.5163    5.1665 C   0  0  0  0  0  0  0  0  0  0  0  0
   23.8492    4.9898    3.8545 O   0  0  0  0  0  0  0  0  0  0  0  0
   18.6691    8.8906    4.3321 C   0  0  0  0  0  0  0  0  0  0  0  0
   17.3091    8.6138    3.7417 C   0  0  0  0  0  0  0  0  0  0  0  0
   16.9743    7.4365    3.5090 O   0  0  0  0  0  0  0  0  0  0  0  0
   16.6459    9.6483    3.4832 O   0  0  0  0  0  0  0  0  0  0  0  0
   17.5460    6.7319    3.7431 H   0  0  0  0  0  0  0  0  0  0  0  0
 26 27  1  0  0  0
 27 29  2  0  0  0
 27 28  1  0  0  0
  9  1  1  0  0  0
 26  1  1  0  0  0
  1  7  1  0  0  0
 25 24  1  0  0  0
 22 17  1  0  0  0
 12 10  2  0  0  0
 16 14  2  0  0  0
 16 15  2  0  0  0
 19 18  2  0  0  0
 22 18  1  0  0  0
 23 19  1  0  0  0
  2  6  2  0  0  0
  2  3  1  0  0  0
  3  9  2  0  0  0
 21 20  1  0  0  0
 20 22  2  0  0  0
  6  4  1  0  0  0
  4  8  2  0  0  0
  8  5  1  0  0  0
  5  7  2  0  0  0
 21 23  2  0  0  0
 12 11  1  0  0  0
 11 16  1  0  0  0
 25  6  1  0  0  0
  7 12  1  0  0  0
 16 23  1  0  0  0
  9  8  1  0  0  0
 28 30  1  0  0  0
 11 13  1  0  0  0
M  END
> <minimizedAffinity>
-8.90532

$$$$
3IUE_FG3_A_302


 30 32  0  0  0  0  0  0  0  0999 V2000
   18.1844   10.1333    3.3354 N   0  0  0  0  0  0  0  0  0  0  0  0
   21.6440    9.5640    4.4781 C   0  0  0  0  0  0  0  0  0  0  0  0
   20.2721    9.7878    4.5837 C   0  0  0  0  0  0  0  0  0  0  0  0
   21.4108    9.6758    2.0901 C   0  0  0  0  0  0  0  0  0  0  0  0
   19.0627   10.0504    1.3491 C   0  0  0  0  0  0  0  0  0  0  0  0
   22.2401    9.4872    3.2263 C   0  0  0  0  0  0  0  0  0  0  0  0
   17.9090   10.1903    2.0237 C   0  0  0  0  0  0  0  0  0  0  0  0
   20.0691    9.8672    2.2392 C   0  0  0  0  0  0  0  0  0  0  0  0
   19.5097    9.9166    3.4680 C   0  0  0  0  0  0  0  0  0  0  0  0
   16.2409   11.5178    1.1807 O   0  0  0  0  0  0  0  0  0  0  0  0
   15.9591    9.2796    1.3060 N   0  0  0  0  0  0  0  0  0  0  0  0
   16.6799   10.3900    1.4723 C   0  0  0  0  0  0  0  0  0  0  0  0
   16.3240    8.4100    1.5888 H   0  0  0  0  0  0  0  0  0  0  0  0
   13.7360   10.5684    1.2396 O   0  0  0  0  0  0  0  0  0  0  0  0
   13.7226    8.0422    0.8806 O   0  0  0  0  0  0  0  0  0  0  0  0
   14.4535    9.3614    0.6255 S   0  0  0  0  0  0  0  0  0  0  0  0
   14.7240   10.4479   -5.2372 C   0  0  0  0  0  0  0  0  0  0  0  0
   15.8199    9.7085   -3.1723 C   0  0  0  0  0  0  0  0  0  0  0  0
   15.7527    9.4382   -1.8020 C   0  0  0  0  0  0  0  0  0  0  0  0
   13.4904   10.4023   -3.1447 C   0  0  0  0  0  0  0  0  0  0  0  0
   13.4558   10.1454   -1.7680 N   0  0  0  0  0  0  0  0  0  0  0  0
   14.6820   10.1805   -3.8497 C   0  0  0  0  0  0  0  0  0  0  0  0
   14.5525    9.6774   -1.1214 C   0  0  0  0  0  0  0  0  0  0  0  0
   24.1442    8.6732    2.0405 C   0  0  0  0  0  0  0  0  0  0  0  0
   23.6055    9.2936    3.2048 O   0  0  0  0  0  0  0  0  0  0  0  0
   17.3039   10.1463    4.5611 C   0  0  0  0  0  0  0  0  0  0  0  0
   16.5609    8.9197    5.0284 C   0  0  0  0  0  0  0  0  0  0  0  0
   16.9260    8.3478    6.0734 O   0  0  0  0  0  0  0  0  0  0  0  0
   15.6443    8.5529    4.2525 O   0  0  0  0  0  0  0  0  0  0  0  0
   17.6250    8.7065    6.5841 H   0  0  0  0  0  0  0  0  0  0  0  0
 26 27  1  0  0  0
 27 29  2  0  0  0
 27 28  1  0  0  0
  9  1  1  0  0  0
 26  1  1  0  0  0
  1  7  1  0  0  0
 25 24  1  0  0  0
 22 17  1  0  0  0
 12 10  2  0  0  0
 16 14  2  0  0  0
 16 15  2  0  0  0
 19 18  2  0  0  0
 22 18  1  0  0  0
 23 19  1  0  0  0
  2  6  2  0  0  0
  2  3  1  0  0  0
  3  9  2  0  0  0
 21 20  1  0  0  0
 20 22  2  0  0  0
  6  4  1  0  0  0
  4  8  2  0  0  0
  8  5  1  0  0  0
  5  7  2  0  0  0
 21 23  2  0  0  0
 12 11  1  0  0  0
 11 16  1  0  0  0
 25  6  1  0  0  0
  7 12  1  0  0  0
 16 23  1  0  0  0
  9  8  1  0  0  0
 28 30  1  0  0  0
 11 13  1  0  0  0
M  END
> <minimizedAffinity>
-8.86308

$$$$
3IUE_FG3_A_302


 30 32  0  0  0  0  0  0  0  0999 V2000
   16.9303   10.7242    0.9711 N   0  0  0  0  0  0  0  0  0  0  0  0
   13.4201   10.2362   -0.0481 C   0  0  0  0  0  0  0  0  0  0  0  0
   14.5038   10.3709    0.8185 C   0  0  0  0  0  0  0  0  0  0  0  0
   14.9499   10.4491   -1.8875 C   0  0  0  0  0  0  0  0  0  0  0  0
   17.3100   10.7879   -1.1679 C   0  0  0  0  0  0  0  0  0  0  0  0
   13.6191   10.2887   -1.4213 C   0  0  0  0  0  0  0  0  0  0  0  0
   17.8853   10.8841    0.0426 C   0  0  0  0  0  0  0  0  0  0  0  0
   15.9768   10.6024   -1.0039 C   0  0  0  0  0  0  0  0  0  0  0  0
   15.7541   10.5689    0.3282 C   0  0  0  0  0  0  0  0  0  0  0  0
   19.8867   11.9529   -0.2855 O   0  0  0  0  0  0  0  0  0  0  0  0
   19.7472   10.2171    1.1539 N   0  0  0  0  0  0  0  0  0  0  0  0
   19.2118   11.0757    0.2842 C   0  0  0  0  0  0  0  0  0  0  0  0
   19.1905    9.5091    1.5515 H   0  0  0  0  0  0  0  0  0  0  0  0
   21.7473   11.8110    1.4126 O   0  0  0  0  0  0  0  0  0  0  0  0
   22.1598    9.4048    0.6706 O   0  0  0  0  0  0  0  0  0  0  0  0
   21.3448   10.3401    1.5653 S   0  0  0  0  0  0  0  0  0  0  0  0
   22.2756    8.9787    7.3015 C   0  0  0  0  0  0  0  0  0  0  0  0
   20.7351    9.2154    5.4090 C   0  0  0  0  0  0  0  0  0  0  0  0
   20.5188    9.5184    4.0611 C   0  0  0  0  0  0  0  0  0  0  0  0
   23.1014    9.6978    5.1328 C   0  0  0  0  0  0  0  0  0  0  0  0
   22.8544   10.0179    3.7915 N   0  0  0  0  0  0  0  0  0  0  0  0
   22.0324    9.2930    5.9449 C   0  0  0  0  0  0  0  0  0  0  0  0
   21.6031    9.9286    3.2756 C   0  0  0  0  0  0  0  0  0  0  0  0
   12.7283    9.9677   -3.6118 C   0  0  0  0  0  0  0  0  0  0  0  0
   12.5025   10.1175   -2.2128 O   0  0  0  0  0  0  0  0  0  0  0  0
   16.9518   10.8104    2.4777 C   0  0  0  0  0  0  0  0  0  0  0  0
   16.8445   12.1258    3.2078 C   0  0  0  0  0  0  0  0  0  0  0  0
   16.1603   12.1915    4.2470 O   0  0  0  0  0  0  0  0  0  0  0  0
   17.4376   13.0746    2.6378 O   0  0  0  0  0  0  0  0  0  0  0  0
   15.7574   11.4193    4.5922 H   0  0  0  0  0  0  0  0  0  0  0  0
 26 27  1  0  0  0
 27 29  2  0  0  0
 27 28  1  0  0  0
  9  1  1  0  0  0
 26  1  1  0  0  0
  1  7  1  0  0  0
 25 24  1  0  0  0
 22 17  1  0  0  0
 12 10  2  0  0  0
 16 14  2  0  0  0
 16 15  2  0  0  0
 19 18  2  0  0  0
 22 18  1  0  0  0
 23 19  1  0  0  0
  2  6  2  0  0  0
  2  3  1  0  0  0
  3  9  2  0  0  0
 21 20  1  0  0  0
 20 22  2  0  0  0
  6  4  1  0  0  0
  4  8  2  0  0  0
  8  5  1  0  0  0
  5  7  2  0  0  0
 21 23  2  0  0  0
 12 11  1  0  0  0
 11 16  1  0  0  0
 25  6  1  0  0  0
  7 12  1  0  0  0
 16 23  1  0  0  0
  9  8  1  0  0  0
 28 30  1  0  0  0
 11 13  1  0  0  0
M  END
> <minimizedAffinity>
-8.52695

$$$$
3IUE_FG3_A_302


 30 32  0  0  0  0  0  0  0  0999 V2000
   15.6530   10.3029    0.8777 N   0  0  0  0  0  0  0  0  0  0  0  0
   13.3097   10.3160   -1.9696 C   0  0  0  0  0  0  0  0  0  0  0  0
   13.7186   10.3023   -0.6369 C   0  0  0  0  0  0  0  0  0  0  0  0
   15.6243   10.2853   -2.6106 C   0  0  0  0  0  0  0  0  0  0  0  0
   17.1817   10.2875   -0.6671 C   0  0  0  0  0  0  0  0  0  0  0  0
   14.2561   10.3240   -2.9857 C   0  0  0  0  0  0  0  0  0  0  0  0
   16.9768   10.3129    0.6607 C   0  0  0  0  0  0  0  0  0  0  0  0
   15.9796   10.2983   -1.2944 C   0  0  0  0  0  0  0  0  0  0  0  0
   15.0395   10.3121   -0.3242 C   0  0  0  0  0  0  0  0  0  0  0  0
   18.7674   11.2377    1.7533 O   0  0  0  0  0  0  0  0  0  0  0  0
   17.9706    9.2193    2.3821 N   0  0  0  0  0  0  0  0  0  0  0  0
   17.9445   10.3134    1.6189 C   0  0  0  0  0  0  0  0  0  0  0  0
   17.3302    8.4899    2.2173 H   0  0  0  0  0  0  0  0  0  0  0  0
   18.4986    8.1213    4.6456 O   0  0  0  0  0  0  0  0  0  0  0  0
   19.3552   10.4782    4.1743 O   0  0  0  0  0  0  0  0  0  0  0  0
   19.0770    9.0862    3.6047 S   0  0  0  0  0  0  0  0  0  0  0  0
   24.1436    6.6412    1.6107 C   0  0  0  0  0  0  0  0  0  0  0  0
   22.5627    7.0282    3.4443 C   0  0  0  0  0  0  0  0  0  0  0  0
   21.3676    7.5870    3.9080 C   0  0  0  0  0  0  0  0  0  0  0  0
   22.1418    7.9677    1.2423 C   0  0  0  0  0  0  0  0  0  0  0  0
   20.9610    8.5360    1.7375 N   0  0  0  0  0  0  0  0  0  0  0  0
   22.9461    7.2080    2.1038 C   0  0  0  0  0  0  0  0  0  0  0  0
   20.5885    8.3485    3.0282 C   0  0  0  0  0  0  0  0  0  0  0  0
   14.7377   10.4160   -5.3211 C   0  0  0  0  0  0  0  0  0  0  0  0
   13.7734   10.3072   -4.2776 O   0  0  0  0  0  0  0  0  0  0  0  0
   14.8281   10.4017    2.1377 C   0  0  0  0  0  0  0  0  0  0  0  0
   14.3540    9.1800    2.8843 C   0  0  0  0  0  0  0  0  0  0  0  0
   13.2648    8.6609    2.5737 O   0  0  0  0  0  0  0  0  0  0  0  0
   15.1138    8.8283    3.8202 O   0  0  0  0  0  0  0  0  0  0  0  0
   12.7720    9.0017    1.8532 H   0  0  0  0  0  0  0  0  0  0  0  0
 26 27  1  0  0  0
 27 29  2  0  0  0
 27 28  1  0  0  0
  9  1  1  0  0  0
 26  1  1  0  0  0
  1  7  1  0  0  0
 25 24  1  0  0  0
 22 17  1  0  0  0
 12 10  2  0  0  0
 16 14  2  0  0  0
 16 15  2  0  0  0
 19 18  2  0  0  0
 22 18  1  0  0  0
 23 19  1  0  0  0
  2  6  2  0  0  0
  2  3  1  0  0  0
  3  9  2  0  0  0
 21 20  1  0  0  0
 20 22  2  0  0  0
  6  4  1  0  0  0
  4  8  2  0  0  0
  8  5  1  0  0  0
  5  7  2  0  0  0
 21 23  2  0  0  0
 12 11  1  0  0  0
 11 16  1  0  0  0
 25  6  1  0  0  0
  7 12  1  0  0  0
 16 23  1  0  0  0
  9  8  1  0  0  0
 28 30  1  0  0  0
 11 13  1  0  0  0
M  END
> <minimizedAffinity>
-8.48742

$$$$
