5ETJ_IM5_A_301
  RCSB PDB12061717323D
Coordinates from PDB:5ETJ:A:301 Model:1 without hydrogens
 20 22  0  0  0  0            999 V2000
   39.5800   -9.3230   61.3270   N 0  0  0  0  0  0  0  0  0  0  0  0
   39.4050   -8.3940   60.3270   C 0  0  0  0  0  0  0  0  0  0  0  0
   38.1950   -8.2200   59.7320   N 0  0  0  0  0  0  0  0  0  0  0  0
   40.4270   -7.6250   59.8670   N 0  0  0  0  0  0  0  0  0  0  0  0
   41.6350   -7.7840   60.4050   C 0  0  0  0  0  0  0  0  0  0  0  0
   41.9070   -8.7310   61.4830   C 0  0  0  0  0  0  0  0  0  0  0  0
   40.7620   -9.5300   61.9380   C 0  0  0  0  0  0  0  0  0  0  0  0
   40.9070  -10.3720   62.8460   O 0  0  0  0  0  0  0  0  0  0  0  0
   43.2080   -8.6170   61.7910   N 0  0  0  0  0  0  0  0  0  0  0  0
   43.7970   -7.6630   61.0160   C 0  0  0  0  0  0  0  0  0  0  0  0
   42.8870   -7.0840   60.1400   C 0  0  0  0  0  0  0  0  0  0  0  0
   43.0010   -4.6470   59.4540   N 0  0  0  0  0  0  0  0  0  0  0  0
   43.1780   -6.0530   59.1040   C 0  0  0  0  0  0  0  0  0  0  0  0
   41.5880   -4.2630   59.6380   C 0  0  0  0  0  0  0  0  0  0  0  0
   41.7820   -2.8670   60.1620   C 0  0  0  0  0  0  0  0  0  0  0  0
   42.1600   -1.9410   59.1100   O 0  0  0  0  0  0  0  0  0  0  0  0
   42.8880   -3.0720   61.1860   C 0  0  0  0  0  0  0  0  0  0  0  0
   42.3680   -3.4650   62.5710   C 0  0  0  0  0  0  0  0  0  0  0  0
   43.4980   -3.7000   63.4320   O 0  0  0  0  0  0  0  0  0  0  0  0
   43.7330   -4.2060   60.6620   C 0  0  0  0  0  0  0  0  0  0  0  0
  2  1  1  0  0  0  0
  1  7  1  0  0  0  0
  3  2  1  0  0  0  0
  4  2  2  0  0  0  0
  4  5  1  0  0  0  0
 11  5  1  0  0  0  0
  5  6  2  0  0  0  0
  6  9  1  0  0  0  0
  6  7  1  0  0  0  0
  7  8  2  0  0  0  0
 10  9  1  0  0  0  0
 11 10  2  0  0  0  0
 13 11  1  0  0  0  0
 13 12  1  0  0  0  0
 12 14  1  0  0  0  0
 12 20  1  0  0  0  0
 14 15  1  0  0  0  0
 16 15  1  0  0  0  0
 15 17  1  0  0  0  0
 20 17  1  0  0  0  0
 17 18  1  0  0  0  0
 18 19  1  0  0  0  0
A    1
N1
A    2
C2
A    3
N2
A    4
N3
A    5
C4
A    6
C5
A    7
C6
A    8
O6
A    9
N7
A   10
C8
A   11
C9
A   12
N1'
A   13
C10
A   14
C2'
A   15
C3'
A   16
O3'
A   17
C4'
A   18
C5'
A   19
O5'
A   20
C6'
M  END
>  <InstanceId>
5ETJ_IM5_A_301

>  <ChemCompId>
IM5

>  <PdbId>
5ETJ

>  <ChainId>
A

>  <ResidueNumber>
301

>  <InsertionCode>


>  <Model>
1

>  <AltIds>


>  <MissingHeavyAtoms>
0

>  <ObservedFormula>
C12 N5 O3

>  <Name>
2-amino-7-{[(3R,4R)-3-hydroxy-4-(hydroxymethyl)pyrrolidin-1-yl]methyl}-3,5-dihydro-4H-pyrrolo[3,2-d]pyrimidin-4-one

>  <SystematicName>
2-azanyl-7-[[(3R,4R)-3-(hydroxymethyl)-4-oxidanyl-pyrrolidin-1-yl]methyl]-3,5-dihydropyrrolo[3,2-d]pyrimidin-4-one

>  <Synonyms>
DADMe-ImmG

>  <Type>
NON-POLYMER

>  <Formula>
C12 H17 N5 O3

>  <MolecularWeight>
279.295

>  <ModifiedDate>
2011-12-05

>  <Parent>


>  <OneLetterCode>


>  <SubcomponentList>


>  <AmbiguousFlag>
N

>  <InChI>
InChI=1S/C12H17N5O3/c13-12-15-9-6(1-14-10(9)11(20)16-12)2-17-3-7(5-18)8(19)4-17/h1,7-8,14,18-19H,2-5H2,(H3,13,15,16,20)/t7-,8+/m1/s1

>  <InChIKey>
GSPTUGDLYPMLCQ-SFYZADRCSA-N

>  <SMILES>
c1c(c2c([nH]1)C(=O)NC(=N2)N)CN3C[C@@H]([C@H](C3)O)CO

$$$$
