5ETJ_IM5_A_301


 26 28  0  0  0  0  0  0  0  0999 V2000
   39.7439   -9.3200   61.1508 N   0  0  0  0  0  0  0  0  0  0  0  0
   39.6065   -8.3770   60.1581 C   0  0  0  0  0  0  0  0  0  0  0  0
   38.4248   -8.2072   59.5074 N   0  0  0  0  0  0  0  0  0  0  0  0
   40.6402   -7.5891   59.7606 N   0  0  0  0  0  0  0  0  0  0  0  0
   41.8224   -7.7430   60.3545 C   0  0  0  0  0  0  0  0  0  0  0  0
   42.0531   -8.7041   61.4296 C   0  0  0  0  0  0  0  0  0  0  0  0
   40.8972   -9.5234   61.8156 C   0  0  0  0  0  0  0  0  0  0  0  0
   41.0080  -10.3782   62.7163 O   0  0  0  0  0  0  0  0  0  0  0  0
   43.3361   -8.5802   61.8025 N   0  0  0  0  0  0  0  0  0  0  0  0
   43.9505   -7.6072   61.0722 C   0  0  0  0  0  0  0  0  0  0  0  0
   43.0772   -7.0245   60.1619 C   0  0  0  0  0  0  0  0  0  0  0  0
   38.9629   -9.8715   61.3859 H   0  0  0  0  0  0  0  0  0  0  0  0
   37.6435   -8.7523   59.7557 H   0  0  0  0  0  0  0  0  0  0  0  0
   38.3506   -7.5393   58.7880 H   0  0  0  0  0  0  0  0  0  0  0  0
   43.7718   -9.1162   62.5041 H   0  0  0  0  0  0  0  0  0  0  0  0
   43.4057   -5.9736   59.1576 C   0  0  0  0  0  0  0  0  0  0  0  0
   43.3499   -4.5750   59.5717 N   0  0  0  0  0  0  0  0  0  0  0  0
   41.9882   -4.0073   59.5338 C   0  0  0  0  0  0  0  0  0  0  0  0
   42.2610   -2.6786   60.1827 C   0  0  0  0  0  0  0  0  0  0  0  0
   42.9403   -1.7650   59.2822 O   0  0  0  0  0  0  0  0  0  0  0  0
   43.1260   -3.0843   61.3664 C   0  0  0  0  0  0  0  0  0  0  0  0
   43.8997   -4.2986   60.9174 C   0  0  0  0  0  0  0  0  0  0  0  0
   43.7637   -2.1715   58.9697 H   0  0  0  0  0  0  0  0  0  0  0  0
   42.3160   -3.4668   62.6076 C   0  0  0  0  0  0  0  0  0  0  0  0
   43.2326   -3.8574   63.6471 O   0  0  0  0  0  0  0  0  0  0  0  0
   43.7626   -4.6113   63.3444 H   0  0  0  0  0  0  0  0  0  0  0  0
  2  1  1  0  0  0
  1  7  1  0  0  0
  3  2  1  0  0  0
  4  2  2  0  0  0
  4  5  1  0  0  0
 11  5  1  0  0  0
  5  6  2  0  0  0
  6  9  1  0  0  0
  6  7  1  0  0  0
  7  8  2  0  0  0
 10  9  1  0  0  0
 11 10  2  0  0  0
 16 11  1  0  0  0
 16 17  1  0  0  0
 17 18  1  0  0  0
 17 22  1  0  0  0
 18 19  1  0  0  0
 20 19  1  0  0  0
 19 21  1  0  0  0
 22 21  1  0  0  0
 21 24  1  0  0  0
 24 25  1  0  0  0
  1 12  1  0  0  0
  3 13  1  0  0  0
  3 14  1  0  0  0
  9 15  1  0  0  0
 20 23  1  0  0  0
 25 26  1  0  0  0
M  END
> <minimizedAffinity>
-10.11922

$$$$
5ETJ_IM5_A_301


 26 28  0  0  0  0  0  0  0  0999 V2000
   39.7278   -9.4529   60.8632 N   0  0  0  0  0  0  0  0  0  0  0  0
   39.4679   -8.3185   60.1290 C   0  0  0  0  0  0  0  0  0  0  0  0
   38.2954   -8.1682   59.4574 N   0  0  0  0  0  0  0  0  0  0  0  0
   40.3695   -7.3076   60.0158 N   0  0  0  0  0  0  0  0  0  0  0  0
   41.5417   -7.4280   60.6366 C   0  0  0  0  0  0  0  0  0  0  0  0
   41.8940   -8.5869   61.4526 C   0  0  0  0  0  0  0  0  0  0  0  0
   40.8775   -9.6432   61.5381 C   0  0  0  0  0  0  0  0  0  0  0  0
   41.0996  -10.6739   62.2035 O   0  0  0  0  0  0  0  0  0  0  0  0
   43.1267   -8.3701   61.9364 N   0  0  0  0  0  0  0  0  0  0  0  0
   43.5947   -7.1606   61.5174 C   0  0  0  0  0  0  0  0  0  0  0  0
   42.6662   -6.5027   60.7200 C   0  0  0  0  0  0  0  0  0  0  0  0
   39.0416  -10.1580   60.8967 H   0  0  0  0  0  0  0  0  0  0  0  0
   37.6073   -8.8706   59.5051 H   0  0  0  0  0  0  0  0  0  0  0  0
   38.1346   -7.3569   58.9233 H   0  0  0  0  0  0  0  0  0  0  0  0
   43.6226   -8.9960   62.5122 H   0  0  0  0  0  0  0  0  0  0  0  0
   42.8482   -5.1917   60.0350 C   0  0  0  0  0  0  0  0  0  0  0  0
   43.2119   -5.1909   58.6214 N   0  0  0  0  0  0  0  0  0  0  0  0
   42.1701   -4.6150   57.7492 C   0  0  0  0  0  0  0  0  0  0  0  0
   42.9267   -4.5914   56.4500 C   0  0  0  0  0  0  0  0  0  0  0  0
   43.0414   -5.9152   55.8656 O   0  0  0  0  0  0  0  0  0  0  0  0
   44.2701   -4.0256   56.8849 C   0  0  0  0  0  0  0  0  0  0  0  0
   44.4795   -4.4976   58.3019 C   0  0  0  0  0  0  0  0  0  0  0  0
   43.4653   -6.5134   56.5007 H   0  0  0  0  0  0  0  0  0  0  0  0
   44.3149   -2.4956   56.8801 C   0  0  0  0  0  0  0  0  0  0  0  0
   45.5485   -2.0779   56.2659 O   0  0  0  0  0  0  0  0  0  0  0  0
   46.2971   -2.4360   56.7681 H   0  0  0  0  0  0  0  0  0  0  0  0
  2  1  1  0  0  0
  1  7  1  0  0  0
  3  2  1  0  0  0
  4  2  2  0  0  0
  4  5  1  0  0  0
 11  5  1  0  0  0
  5  6  2  0  0  0
  6  9  1  0  0  0
  6  7  1  0  0  0
  7  8  2  0  0  0
 10  9  1  0  0  0
 11 10  2  0  0  0
 16 11  1  0  0  0
 16 17  1  0  0  0
 17 18  1  0  0  0
 17 22  1  0  0  0
 18 19  1  0  0  0
 20 19  1  0  0  0
 19 21  1  0  0  0
 22 21  1  0  0  0
 21 24  1  0  0  0
 24 25  1  0  0  0
  1 12  1  0  0  0
  3 13  1  0  0  0
  3 14  1  0  0  0
  9 15  1  0  0  0
 20 23  1  0  0  0
 25 26  1  0  0  0
M  END
> <minimizedAffinity>
-9.82232

$$$$
5ETJ_IM5_A_301


 26 28  0  0  0  0  0  0  0  0999 V2000
   39.5534   -9.4705   61.1779 N   0  0  0  0  0  0  0  0  0  0  0  0
   39.5681   -8.5529   60.1525 C   0  0  0  0  0  0  0  0  0  0  0  0
   38.4747   -8.3559   59.3688 N   0  0  0  0  0  0  0  0  0  0  0  0
   40.6725   -7.8189   59.8542 N   0  0  0  0  0  0  0  0  0  0  0  0
   41.7734   -8.0018   60.5812 C   0  0  0  0  0  0  0  0  0  0  0  0
   41.8414   -8.9387   61.6994 C   0  0  0  0  0  0  0  0  0  0  0  0
   40.6156   -9.6995   61.9733 C   0  0  0  0  0  0  0  0  0  0  0  0
   40.5886  -10.5307   62.9022 O   0  0  0  0  0  0  0  0  0  0  0  0
   43.0789   -8.8548   62.2113 N   0  0  0  0  0  0  0  0  0  0  0  0
   43.8120   -7.9292   61.5305 C   0  0  0  0  0  0  0  0  0  0  0  0
   43.0714   -7.3398   60.5131 C   0  0  0  0  0  0  0  0  0  0  0  0
   38.7282   -9.9832   61.3374 H   0  0  0  0  0  0  0  0  0  0  0  0
   37.6479   -8.8618   59.5411 H   0  0  0  0  0  0  0  0  0  0  0  0
   38.5098   -7.7074   58.6289 H   0  0  0  0  0  0  0  0  0  0  0  0
   43.4103   -9.3863   62.9708 H   0  0  0  0  0  0  0  0  0  0  0  0
   43.5546   -6.3334   59.5259 C   0  0  0  0  0  0  0  0  0  0  0  0
   42.8545   -5.0557   59.4370 N   0  0  0  0  0  0  0  0  0  0  0  0
   43.7584   -3.9049   59.2459 C   0  0  0  0  0  0  0  0  0  0  0  0
   42.7352   -2.8295   59.0062 C   0  0  0  0  0  0  0  0  0  0  0  0
   42.0728   -2.4285   60.2341 O   0  0  0  0  0  0  0  0  0  0  0  0
   41.7912   -3.5131   58.0287 C   0  0  0  0  0  0  0  0  0  0  0  0
   41.8231   -4.9797   58.3787 C   0  0  0  0  0  0  0  0  0  0  0  0
   41.6663   -3.2046   60.6504 H   0  0  0  0  0  0  0  0  0  0  0  0
   42.2178   -3.3622   56.5664 C   0  0  0  0  0  0  0  0  0  0  0  0
   42.5007   -4.6711   56.0371 O   0  0  0  0  0  0  0  0  0  0  0  0
   43.2101   -5.0828   56.5549 H   0  0  0  0  0  0  0  0  0  0  0  0
  2  1  1  0  0  0
  1  7  1  0  0  0
  3  2  1  0  0  0
  4  2  2  0  0  0
  4  5  1  0  0  0
 11  5  1  0  0  0
  5  6  2  0  0  0
  6  9  1  0  0  0
  6  7  1  0  0  0
  7  8  2  0  0  0
 10  9  1  0  0  0
 11 10  2  0  0  0
 16 11  1  0  0  0
 16 17  1  0  0  0
 17 18  1  0  0  0
 17 22  1  0  0  0
 18 19  1  0  0  0
 20 19  1  0  0  0
 19 21  1  0  0  0
 22 21  1  0  0  0
 21 24  1  0  0  0
 24 25  1  0  0  0
  1 12  1  0  0  0
  3 13  1  0  0  0
  3 14  1  0  0  0
  9 15  1  0  0  0
 20 23  1  0  0  0
 25 26  1  0  0  0
M  END
> <minimizedAffinity>
-9.12353

$$$$
5ETJ_IM5_A_301


 26 28  0  0  0  0  0  0  0  0999 V2000
   44.0255   -3.9589   55.9660 N   0  0  0  0  0  0  0  0  0  0  0  0
   43.3924   -5.1385   56.2847 C   0  0  0  0  0  0  0  0  0  0  0  0
   43.3208   -6.1620   55.3927 N   0  0  0  0  0  0  0  0  0  0  0  0
   42.7887   -5.3337   57.4867 N   0  0  0  0  0  0  0  0  0  0  0  0
   42.8127   -4.3450   58.3788 C   0  0  0  0  0  0  0  0  0  0  0  0
   43.4782   -3.0684   58.1332 C   0  0  0  0  0  0  0  0  0  0  0  0
   44.1140   -2.9198   56.8179 C   0  0  0  0  0  0  0  0  0  0  0  0
   44.6941   -1.8575   56.5189 O   0  0  0  0  0  0  0  0  0  0  0  0
   43.3229   -2.3223   59.2376 N   0  0  0  0  0  0  0  0  0  0  0  0
   42.6291   -3.0151   60.1843 C   0  0  0  0  0  0  0  0  0  0  0  0
   42.2888   -4.2865   59.7389 C   0  0  0  0  0  0  0  0  0  0  0  0
   44.4326   -3.8707   55.0739 H   0  0  0  0  0  0  0  0  0  0  0  0
   43.7411   -6.0733   54.5069 H   0  0  0  0  0  0  0  0  0  0  0  0
   42.8486   -6.9919   55.6327 H   0  0  0  0  0  0  0  0  0  0  0  0
   43.6621   -1.4047   59.3484 H   0  0  0  0  0  0  0  0  0  0  0  0
   41.4813   -5.3022   60.4719 C   0  0  0  0  0  0  0  0  0  0  0  0
   42.0170   -6.6538   60.6018 N   0  0  0  0  0  0  0  0  0  0  0  0
   42.2850   -7.0454   61.9992 C   0  0  0  0  0  0  0  0  0  0  0  0
   42.6210   -8.4953   61.7848 C   0  0  0  0  0  0  0  0  0  0  0  0
   43.9458   -8.6663   61.2166 O   0  0  0  0  0  0  0  0  0  0  0  0
   41.5163   -8.9316   60.8346 C   0  0  0  0  0  0  0  0  0  0  0  0
   41.1810   -7.7183   60.0038 C   0  0  0  0  0  0  0  0  0  0  0  0
   44.0070   -8.1715   60.3845 H   0  0  0  0  0  0  0  0  0  0  0  0
   40.2425   -9.3854   61.5519 C   0  0  0  0  0  0  0  0  0  0  0  0
   39.1084   -9.0085   60.7486 O   0  0  0  0  0  0  0  0  0  0  0  0
   39.1032   -8.0461   60.6279 H   0  0  0  0  0  0  0  0  0  0  0  0
  2  1  1  0  0  0
  1  7  1  0  0  0
  3  2  1  0  0  0
  4  2  2  0  0  0
  4  5  1  0  0  0
 11  5  1  0  0  0
  5  6  2  0  0  0
  6  9  1  0  0  0
  6  7  1  0  0  0
  7  8  2  0  0  0
 10  9  1  0  0  0
 11 10  2  0  0  0
 16 11  1  0  0  0
 16 17  1  0  0  0
 17 18  1  0  0  0
 17 22  1  0  0  0
 18 19  1  0  0  0
 20 19  1  0  0  0
 19 21  1  0  0  0
 22 21  1  0  0  0
 21 24  1  0  0  0
 24 25  1  0  0  0
  1 12  1  0  0  0
  3 13  1  0  0  0
  3 14  1  0  0  0
  9 15  1  0  0  0
 20 23  1  0  0  0
 25 26  1  0  0  0
M  END
> <minimizedAffinity>
-8.11724

$$$$
5ETJ_IM5_A_301


 26 28  0  0  0  0  0  0  0  0999 V2000
   43.4296   -3.1258   58.3295 N   0  0  0  0  0  0  0  0  0  0  0  0
   43.8852   -4.3563   57.9147 C   0  0  0  0  0  0  0  0  0  0  0  0
   44.2713   -4.5667   56.6281 N   0  0  0  0  0  0  0  0  0  0  0  0
   43.9500   -5.4241   58.7532 N   0  0  0  0  0  0  0  0  0  0  0  0
   43.5551   -5.2668   60.0154 C   0  0  0  0  0  0  0  0  0  0  0  0
   43.0770   -3.9929   60.5461 C   0  0  0  0  0  0  0  0  0  0  0  0
   43.0332   -2.8774   59.5922 C   0  0  0  0  0  0  0  0  0  0  0  0
   42.6262   -1.7568   59.9570 O   0  0  0  0  0  0  0  0  0  0  0  0
   42.7844   -4.1885   61.8410 N   0  0  0  0  0  0  0  0  0  0  0  0
   43.0503   -5.4768   62.1979 C   0  0  0  0  0  0  0  0  0  0  0  0
   43.5484   -6.2101   61.1280 C   0  0  0  0  0  0  0  0  0  0  0  0
   43.3919   -2.3933   57.6728 H   0  0  0  0  0  0  0  0  0  0  0  0
   44.2440   -3.8271   55.9788 H   0  0  0  0  0  0  0  0  0  0  0  0
   44.5781   -5.4585   56.3458 H   0  0  0  0  0  0  0  0  0  0  0  0
   42.4283   -3.4993   62.4471 H   0  0  0  0  0  0  0  0  0  0  0  0
   43.8933   -7.6599   61.1236 C   0  0  0  0  0  0  0  0  0  0  0  0
   42.8053   -8.6330   61.1220 N   0  0  0  0  0  0  0  0  0  0  0  0
   42.0137   -8.6280   62.3674 C   0  0  0  0  0  0  0  0  0  0  0  0
   40.9107   -9.5643   61.9578 C   0  0  0  0  0  0  0  0  0  0  0  0
   41.3510  -10.9474   61.9445 O   0  0  0  0  0  0  0  0  0  0  0  0
   40.5655   -9.0470   60.5696 C   0  0  0  0  0  0  0  0  0  0  0  0
   41.8509   -8.5026   59.9987 C   0  0  0  0  0  0  0  0  0  0  0  0
   42.1163  -11.0375   61.3553 H   0  0  0  0  0  0  0  0  0  0  0  0
   39.5328   -7.9173   60.5820 C   0  0  0  0  0  0  0  0  0  0  0  0
   38.4974   -8.2362   59.6335 O   0  0  0  0  0  0  0  0  0  0  0  0
   38.8860   -8.3286   58.7495 H   0  0  0  0  0  0  0  0  0  0  0  0
  2  1  1  0  0  0
  1  7  1  0  0  0
  3  2  1  0  0  0
  4  2  2  0  0  0
  4  5  1  0  0  0
 11  5  1  0  0  0
  5  6  2  0  0  0
  6  9  1  0  0  0
  6  7  1  0  0  0
  7  8  2  0  0  0
 10  9  1  0  0  0
 11 10  2  0  0  0
 16 11  1  0  0  0
 16 17  1  0  0  0
 17 18  1  0  0  0
 17 22  1  0  0  0
 18 19  1  0  0  0
 20 19  1  0  0  0
 19 21  1  0  0  0
 22 21  1  0  0  0
 21 24  1  0  0  0
 24 25  1  0  0  0
  1 12  1  0  0  0
  3 13  1  0  0  0
  3 14  1  0  0  0
  9 15  1  0  0  0
 20 23  1  0  0  0
 25 26  1  0  0  0
M  END
> <minimizedAffinity>
-8.04426

$$$$
5ETJ_IM5_A_301


 26 28  0  0  0  0  0  0  0  0999 V2000
   44.1954   -4.0725   56.0746 N   0  0  0  0  0  0  0  0  0  0  0  0
   43.3654   -5.1409   56.3262 C   0  0  0  0  0  0  0  0  0  0  0  0
   43.2633   -6.1745   55.4489 N   0  0  0  0  0  0  0  0  0  0  0  0
   42.5916   -5.2090   57.4416 N   0  0  0  0  0  0  0  0  0  0  0  0
   42.6420   -4.2032   58.3133 C   0  0  0  0  0  0  0  0  0  0  0  0
   43.5082   -3.0407   58.1369 C   0  0  0  0  0  0  0  0  0  0  0  0
   44.3214   -3.0272   56.9141 C   0  0  0  0  0  0  0  0  0  0  0  0
   45.0802   -2.0668   56.6770 O   0  0  0  0  0  0  0  0  0  0  0  0
   43.3211   -2.2429   59.1994 N   0  0  0  0  0  0  0  0  0  0  0  0
   42.4205   -2.7996   60.0577 C   0  0  0  0  0  0  0  0  0  0  0  0
   41.9624   -4.0259   59.5917 C   0  0  0  0  0  0  0  0  0  0  0  0
   44.7214   -4.0724   55.2424 H   0  0  0  0  0  0  0  0  0  0  0  0
   43.8016   -6.1756   54.6246 H   0  0  0  0  0  0  0  0  0  0  0  0
   42.6511   -6.9220   55.6380 H   0  0  0  0  0  0  0  0  0  0  0  0
   43.7704   -1.3781   59.3391 H   0  0  0  0  0  0  0  0  0  0  0  0
   40.9317   -4.8937   60.2284 C   0  0  0  0  0  0  0  0  0  0  0  0
   41.3613   -6.1458   60.8437 N   0  0  0  0  0  0  0  0  0  0  0  0
   41.4626   -7.2640   59.8860 C   0  0  0  0  0  0  0  0  0  0  0  0
   42.0929   -8.2944   60.7816 C   0  0  0  0  0  0  0  0  0  0  0  0
   41.1377   -8.8528   61.7212 O   0  0  0  0  0  0  0  0  0  0  0  0
   43.1820   -7.4834   61.4673 C   0  0  0  0  0  0  0  0  0  0  0  0
   42.6486   -6.0765   61.5701 C   0  0  0  0  0  0  0  0  0  0  0  0
   40.7420   -8.1376   62.2435 H   0  0  0  0  0  0  0  0  0  0  0  0
   44.4937   -7.4399   60.6794 C   0  0  0  0  0  0  0  0  0  0  0  0
   44.5280   -6.2174   59.9192 O   0  0  0  0  0  0  0  0  0  0  0  0
   43.7700   -6.1913   59.3146 H   0  0  0  0  0  0  0  0  0  0  0  0
  2  1  1  0  0  0
  1  7  1  0  0  0
  3  2  1  0  0  0
  4  2  2  0  0  0
  4  5  1  0  0  0
 11  5  1  0  0  0
  5  6  2  0  0  0
  6  9  1  0  0  0
  6  7  1  0  0  0
  7  8  2  0  0  0
 10  9  1  0  0  0
 11 10  2  0  0  0
 16 11  1  0  0  0
 16 17  1  0  0  0
 17 18  1  0  0  0
 17 22  1  0  0  0
 18 19  1  0  0  0
 20 19  1  0  0  0
 19 21  1  0  0  0
 22 21  1  0  0  0
 21 24  1  0  0  0
 24 25  1  0  0  0
  1 12  1  0  0  0
  3 13  1  0  0  0
  3 14  1  0  0  0
  9 15  1  0  0  0
 20 23  1  0  0  0
 25 26  1  0  0  0
M  END
> <minimizedAffinity>
-7.86961

$$$$
5ETJ_IM5_A_301


 26 28  0  0  0  0  0  0  0  0999 V2000
   40.6635   -8.8989   60.6179 N   0  0  0  0  0  0  0  0  0  0  0  0
   40.0037   -7.8953   59.9462 C   0  0  0  0  0  0  0  0  0  0  0  0
   38.8616   -8.1455   59.2524 N   0  0  0  0  0  0  0  0  0  0  0  0
   40.4661   -6.6174   59.9192 N   0  0  0  0  0  0  0  0  0  0  0  0
   41.5971   -6.3362   60.5640 C   0  0  0  0  0  0  0  0  0  0  0  0
   42.3514   -7.3336   61.3184 C   0  0  0  0  0  0  0  0  0  0  0  0
   41.7992   -8.6943   61.3119 C   0  0  0  0  0  0  0  0  0  0  0  0
   42.3856   -9.6112   61.9201 O   0  0  0  0  0  0  0  0  0  0  0  0
   43.4138   -6.7086   61.8485 N   0  0  0  0  0  0  0  0  0  0  0  0
   43.4010   -5.3868   61.5162 C   0  0  0  0  0  0  0  0  0  0  0  0
   42.2975   -5.0681   60.7342 C   0  0  0  0  0  0  0  0  0  0  0  0
   40.2878   -9.8084   60.5898 H   0  0  0  0  0  0  0  0  0  0  0  0
   38.4831   -9.0543   59.2386 H   0  0  0  0  0  0  0  0  0  0  0  0
   38.4130   -7.4180   58.7638 H   0  0  0  0  0  0  0  0  0  0  0  0
   44.1046   -7.1431   62.3993 H   0  0  0  0  0  0  0  0  0  0  0  0
   41.9824   -3.7407   60.1346 C   0  0  0  0  0  0  0  0  0  0  0  0
   42.6246   -3.3770   58.8753 N   0  0  0  0  0  0  0  0  0  0  0  0
   43.9953   -3.9076   58.7425 C   0  0  0  0  0  0  0  0  0  0  0  0
   44.2650   -3.5284   57.3127 C   0  0  0  0  0  0  0  0  0  0  0  0
   44.5294   -2.1084   57.1693 O   0  0  0  0  0  0  0  0  0  0  0  0
   42.9738   -3.9548   56.6309 C   0  0  0  0  0  0  0  0  0  0  0  0
   41.8839   -3.7746   57.6575 C   0  0  0  0  0  0  0  0  0  0  0  0
   43.7818   -1.6028   57.5249 H   0  0  0  0  0  0  0  0  0  0  0  0
   42.9756   -5.4204   56.1893 C   0  0  0  0  0  0  0  0  0  0  0  0
   42.6286   -6.2381   57.3226 O   0  0  0  0  0  0  0  0  0  0  0  0
   43.2752   -6.0985   58.0321 H   0  0  0  0  0  0  0  0  0  0  0  0
  2  1  1  0  0  0
  1  7  1  0  0  0
  3  2  1  0  0  0
  4  2  2  0  0  0
  4  5  1  0  0  0
 11  5  1  0  0  0
  5  6  2  0  0  0
  6  9  1  0  0  0
  6  7  1  0  0  0
  7  8  2  0  0  0
 10  9  1  0  0  0
 11 10  2  0  0  0
 16 11  1  0  0  0
 16 17  1  0  0  0
 17 18  1  0  0  0
 17 22  1  0  0  0
 18 19  1  0  0  0
 20 19  1  0  0  0
 19 21  1  0  0  0
 22 21  1  0  0  0
 21 24  1  0  0  0
 24 25  1  0  0  0
  1 12  1  0  0  0
  3 13  1  0  0  0
  3 14  1  0  0  0
  9 15  1  0  0  0
 20 23  1  0  0  0
 25 26  1  0  0  0
M  END
> <minimizedAffinity>
-7.61756

$$$$
5ETJ_IM5_A_301


 26 28  0  0  0  0  0  0  0  0999 V2000
   43.8209   -2.4007   57.6511 N   0  0  0  0  0  0  0  0  0  0  0  0
   43.5594   -3.6634   57.1704 C   0  0  0  0  0  0  0  0  0  0  0  0
   44.0016   -4.0558   55.9461 N   0  0  0  0  0  0  0  0  0  0  0  0
   42.8314   -4.5693   57.8751 N   0  0  0  0  0  0  0  0  0  0  0  0
   42.3566   -4.2146   59.0679 C   0  0  0  0  0  0  0  0  0  0  0  0
   42.6019   -2.9040   59.6637 C   0  0  0  0  0  0  0  0  0  0  0  0
   43.3971   -1.9712   58.8549 C   0  0  0  0  0  0  0  0  0  0  0  0
   43.6441   -0.8259   59.2813 O   0  0  0  0  0  0  0  0  0  0  0  0
   41.9995   -2.8953   60.8626 N   0  0  0  0  0  0  0  0  0  0  0  0
   41.4005   -4.0961   61.1011 C   0  0  0  0  0  0  0  0  0  0  0  0
   41.5885   -4.9787   60.0445 C   0  0  0  0  0  0  0  0  0  0  0  0
   44.3419   -1.7829   57.0889 H   0  0  0  0  0  0  0  0  0  0  0  0
   44.5335   -3.4385   55.3937 H   0  0  0  0  0  0  0  0  0  0  0  0
   43.7899   -4.9574   55.6120 H   0  0  0  0  0  0  0  0  0  0  0  0
   41.9913   -2.1301   61.4821 H   0  0  0  0  0  0  0  0  0  0  0  0
   41.0316   -6.3556   59.9224 C   0  0  0  0  0  0  0  0  0  0  0  0
   41.8161   -7.4711   60.4427 N   0  0  0  0  0  0  0  0  0  0  0  0
   42.3406   -7.2342   61.8017 C   0  0  0  0  0  0  0  0  0  0  0  0
   42.9011   -8.6000   62.0871 C   0  0  0  0  0  0  0  0  0  0  0  0
   44.1437   -8.8355   61.3747 O   0  0  0  0  0  0  0  0  0  0  0  0
   41.7735   -9.5029   61.6105 C   0  0  0  0  0  0  0  0  0  0  0  0
   41.1126   -8.7727   60.4682 C   0  0  0  0  0  0  0  0  0  0  0  0
   43.9990   -8.7142   60.4233 H   0  0  0  0  0  0  0  0  0  0  0  0
   40.7143   -9.7692   62.6829 C   0  0  0  0  0  0  0  0  0  0  0  0
   39.9834  -10.9546   62.3168 O   0  0  0  0  0  0  0  0  0  0  0  0
   39.5630  -10.8213   61.4528 H   0  0  0  0  0  0  0  0  0  0  0  0
  2  1  1  0  0  0
  1  7  1  0  0  0
  3  2  1  0  0  0
  4  2  2  0  0  0
  4  5  1  0  0  0
 11  5  1  0  0  0
  5  6  2  0  0  0
  6  9  1  0  0  0
  6  7  1  0  0  0
  7  8  2  0  0  0
 10  9  1  0  0  0
 11 10  2  0  0  0
 16 11  1  0  0  0
 16 17  1  0  0  0
 17 18  1  0  0  0
 17 22  1  0  0  0
 18 19  1  0  0  0
 20 19  1  0  0  0
 19 21  1  0  0  0
 22 21  1  0  0  0
 21 24  1  0  0  0
 24 25  1  0  0  0
  1 12  1  0  0  0
  3 13  1  0  0  0
  3 14  1  0  0  0
  9 15  1  0  0  0
 20 23  1  0  0  0
 25 26  1  0  0  0
M  END
> <minimizedAffinity>
-7.38892

$$$$
