4I7K_MBN_A_202


  7  7  0  0  0  0  0  0  0  0999 V2000
    4.9527   10.9258    0.6735 C   0  0  0  0  0  0  0  0  0  0  0  0
    3.7512   10.1079    1.0829 C   0  0  0  0  0  0  0  0  0  0  0  0
    3.5050    8.8881    0.4685 C   0  0  0  0  0  0  0  0  0  0  0  0
    2.3959    8.1446    0.8369 C   0  0  0  0  0  0  0  0  0  0  0  0
    1.5162    8.6145    1.8050 C   0  0  0  0  0  0  0  0  0  0  0  0
    1.7619    9.8345    2.4243 C   0  0  0  0  0  0  0  0  0  0  0  0
    2.8737   10.5929    2.0644 C   0  0  0  0  0  0  0  0  0  0  0  0
  1  2  1  0  0  0
  2  3  2  0  0  0
  2  7  1  0  0  0
  3  4  1  0  0  0
  4  5  2  0  0  0
  5  6  1  0  0  0
  6  7  2  0  0  0
M  END
> <minimizedAffinity>
-6.49035

$$$$
4I7K_MBN_A_202


  7  7  0  0  0  0  0  0  0  0999 V2000
    4.9604   10.9188    0.6865 C   0  0  0  0  0  0  0  0  0  0  0  0
    3.7424   10.1122    1.0687 C   0  0  0  0  0  0  0  0  0  0  0  0
    2.8770   10.5889    2.0433 C   0  0  0  0  0  0  0  0  0  0  0  0
    1.7666    9.8422    2.4010 C   0  0  0  0  0  0  0  0  0  0  0  0
    1.5175    8.6112    1.8058 C   0  0  0  0  0  0  0  0  0  0  0  0
    2.3809    8.1324    0.8272 C   0  0  0  0  0  0  0  0  0  0  0  0
    3.5014    8.8728    0.4568 C   0  0  0  0  0  0  0  0  0  0  0  0
  1  2  1  0  0  0
  2  3  2  0  0  0
  2  7  1  0  0  0
  3  4  1  0  0  0
  4  5  2  0  0  0
  5  6  1  0  0  0
  6  7  2  0  0  0
M  END
> <minimizedAffinity>
-6.47206

$$$$
4I7K_MBN_A_202


  7  7  0  0  0  0  0  0  0  0999 V2000
    4.8843    8.6204   -0.0425 C   0  0  0  0  0  0  0  0  0  0  0  0
    3.6922    9.0080    0.7994 C   0  0  0  0  0  0  0  0  0  0  0  0
    2.6108    8.1445    0.9034 C   0  0  0  0  0  0  0  0  0  0  0  0
    1.5132    8.5066    1.6667 C   0  0  0  0  0  0  0  0  0  0  0  0
    1.4752    9.7341    2.3175 C   0  0  0  0  0  0  0  0  0  0  0  0
    2.5582   10.5999    2.2177 C   0  0  0  0  0  0  0  0  0  0  0  0
    3.6693   10.2488    1.4540 C   0  0  0  0  0  0  0  0  0  0  0  0
  1  2  1  0  0  0
  2  3  2  0  0  0
  2  7  1  0  0  0
  3  4  1  0  0  0
  4  5  2  0  0  0
  5  6  1  0  0  0
  6  7  2  0  0  0
M  END
> <minimizedAffinity>
-5.92625

$$$$
4I7K_MBN_A_202


  7  7  0  0  0  0  0  0  0  0999 V2000
    4.9080    8.6686    0.0018 C   0  0  0  0  0  0  0  0  0  0  0  0
    3.6737    9.0075    0.8030 C   0  0  0  0  0  0  0  0  0  0  0  0
    3.6044   10.2131    1.4868 C   0  0  0  0  0  0  0  0  0  0  0  0
    2.4764   10.5173    2.2308 C   0  0  0  0  0  0  0  0  0  0  0  0
    1.4179    9.6203    2.3139 C   0  0  0  0  0  0  0  0  0  0  0  0
    1.4832    8.4131    1.6276 C   0  0  0  0  0  0  0  0  0  0  0  0
    2.6112    8.0940    0.8749 C   0  0  0  0  0  0  0  0  0  0  0  0
  1  2  1  0  0  0
  2  3  2  0  0  0
  2  7  1  0  0  0
  3  4  1  0  0  0
  4  5  2  0  0  0
  5  6  1  0  0  0
  6  7  2  0  0  0
M  END
> <minimizedAffinity>
-5.92528

$$$$
4I7K_MBN_A_202


  7  7  0  0  0  0  0  0  0  0999 V2000
    1.1371    8.6174    1.9346 C   0  0  0  0  0  0  0  0  0  0  0  0
    2.4859    9.1420    1.5037 C   0  0  0  0  0  0  0  0  0  0  0  0
    3.2655    8.4025    0.6255 C   0  0  0  0  0  0  0  0  0  0  0  0
    4.5075    8.8796    0.2404 C   0  0  0  0  0  0  0  0  0  0  0  0
    4.9899   10.0848    0.7370 C   0  0  0  0  0  0  0  0  0  0  0  0
    4.2100   10.8293    1.6145 C   0  0  0  0  0  0  0  0  0  0  0  0
    2.9585   10.3621    2.0102 C   0  0  0  0  0  0  0  0  0  0  0  0
  1  2  1  0  0  0
  2  3  2  0  0  0
  2  7  1  0  0  0
  3  4  1  0  0  0
  4  5  2  0  0  0
  5  6  1  0  0  0
  6  7  2  0  0  0
M  END
> <minimizedAffinity>
-5.79678

$$$$
4I7K_MBN_A_202


  7  7  0  0  0  0  0  0  0  0999 V2000
    1.1442    8.6189    1.9413 C   0  0  0  0  0  0  0  0  0  0  0  0
    2.4867    9.1787    1.5361 C   0  0  0  0  0  0  0  0  0  0  0  0
    2.9189   10.3866    2.0652 C   0  0  0  0  0  0  0  0  0  0  0  0
    4.1455   10.9045    1.6834 C   0  0  0  0  0  0  0  0  0  0  0  0
    4.9427   10.2352    0.7624 C   0  0  0  0  0  0  0  0  0  0  0  0
    4.5139    9.0235    0.2329 C   0  0  0  0  0  0  0  0  0  0  0  0
    3.2827    8.4902    0.6081 C   0  0  0  0  0  0  0  0  0  0  0  0
  1  2  1  0  0  0
  2  3  2  0  0  0
  2  7  1  0  0  0
  3  4  1  0  0  0
  4  5  2  0  0  0
  5  6  1  0  0  0
  6  7  2  0  0  0
M  END
> <minimizedAffinity>
-5.78747

$$$$
4I7K_MBN_A_202


  7  7  0  0  0  0  0  0  0  0999 V2000
    1.4512   10.4938    2.4857 C   0  0  0  0  0  0  0  0  0  0  0  0
    2.5579    9.8055    1.7231 C   0  0  0  0  0  0  0  0  0  0  0  0
    3.7556   10.4688    1.4962 C   0  0  0  0  0  0  0  0  0  0  0  0
    4.7654    9.8403    0.7865 C   0  0  0  0  0  0  0  0  0  0  0  0
    4.5867    8.5569    0.2837 C   0  0  0  0  0  0  0  0  0  0  0  0
    3.3892    7.8888    0.5119 C   0  0  0  0  0  0  0  0  0  0  0  0
    2.3648    8.5082    1.2247 C   0  0  0  0  0  0  0  0  0  0  0  0
  1  2  1  0  0  0
  2  3  2  0  0  0
  2  7  1  0  0  0
  3  4  1  0  0  0
  4  5  2  0  0  0
  5  6  1  0  0  0
  6  7  2  0  0  0
M  END
> <minimizedAffinity>
-5.49658

$$$$
