4I7K_MBN_A_202
  RCSB PDB12061712583D
Coordinates from PDB:4I7K:A:202 Model:1 without hydrogens
  7  7  0  0  0  0            999 V2000
    5.3240   11.1740    0.4770   C 0  0  0  0  0  0  0  0  0  0  0  0
    4.1140   10.4210    0.9760   C 0  0  0  0  0  0  0  0  0  0  0  0
    3.6980    9.2710    0.3200   C 0  0  0  0  0  0  0  0  0  0  0  0
    2.5810    8.5880    0.7720   C 0  0  0  0  0  0  0  0  0  0  0  0
    1.8610    9.0510    1.8670   C 0  0  0  0  0  0  0  0  0  0  0  0
    2.2770   10.2010    2.5280   C 0  0  0  0  0  0  0  0  0  0  0  0
    3.3990   10.8980    2.0850   C 0  0  0  0  0  0  0  0  0  0  0  0
  1  2  1  0  0  0  0
  2  3  2  0  0  0  0
  2  7  1  0  0  0  0
  3  4  1  0  0  0  0
  4  5  2  0  0  0  0
  5  6  1  0  0  0  0
  6  7  2  0  0  0  0
A    1
C
A    2
C1
A    3
C2
A    4
C3
A    5
C4
A    6
C5
A    7
C6
M  END
>  <InstanceId>
4I7K_MBN_A_202

>  <ChemCompId>
MBN

>  <PdbId>
4I7K

>  <ChainId>
A

>  <ResidueNumber>
202

>  <InsertionCode>


>  <Model>
1

>  <AltIds>


>  <MissingHeavyAtoms>
0

>  <ObservedFormula>
C7

>  <Name>
TOLUENE

>  <SystematicName>
methylbenzene

>  <Synonyms>


>  <Type>
NON-POLYMER

>  <Formula>
C7 H8

>  <MolecularWeight>
92.138

>  <ModifiedDate>
2011-06-04

>  <Parent>


>  <OneLetterCode>


>  <SubcomponentList>


>  <AmbiguousFlag>
N

>  <InChI>
InChI=1S/C7H8/c1-7-5-3-2-4-6-7/h2-6H,1H3

>  <InChIKey>
YXFVVABEGXRONW-UHFFFAOYSA-N

>  <SMILES>
Cc1ccccc1

$$$$
