3A2O_KNJ_B_999


 45 47  0  0  0  0  0  0  0  0999 V2000
   15.3864   22.4264   17.4234 C   0  0  0  0  0  0  0  0  0  0  0  0
   15.2088   20.1270   18.1821 C   0  0  0  0  0  0  0  0  0  0  0  0
   16.4303   19.9222   18.0937 O   0  0  0  0  0  0  0  0  0  0  0  0
   14.6317   21.2943   17.9086 N   0  0  0  0  0  0  0  0  0  0  0  0
   13.6607   21.3893   18.0409 H   0  0  0  0  0  0  0  0  0  0  0  0
   14.3284   18.9559   18.6388 C   0  0  0  0  0  0  0  0  0  0  0  0
   13.0980   19.4565   19.1225 O   0  0  0  0  0  0  0  0  0  0  0  0
   11.5091   18.9727   16.8068 C   0  0  0  0  0  0  0  0  0  0  0  0
   11.3381   18.2022   18.0789 C   0  0  0  0  0  0  0  0  0  0  0  0
   10.3711   17.1955   18.1974 C   0  0  0  0  0  0  0  0  0  0  0  0
   10.1749   16.4665   19.3515 C   0  0  0  0  0  0  0  0  0  0  0  0
   11.9711   17.7823   20.3774 C   0  0  0  0  0  0  0  0  0  0  0  0
    9.2324   15.4952   19.4305 N   0  0  0  0  0  0  0  0  0  0  0  0
   10.9946   16.7863   20.4298 C   0  0  0  0  0  0  0  0  0  0  0  0
   12.8179   18.0507   21.5885 C   0  0  0  0  0  0  0  0  0  0  0  0
   12.1324   18.4826   19.1650 C   0  0  0  0  0  0  0  0  0  0  0  0
    9.1145   14.9906   20.2676 H   0  0  0  0  0  0  0  0  0  0  0  0
    8.6660   15.2943   18.6507 H   0  0  0  0  0  0  0  0  0  0  0  0
   15.6094   23.4520   18.5655 C   0  0  0  0  0  0  0  0  0  0  0  0
   14.5447   24.3508   18.5822 O   0  0  0  0  0  0  0  0  0  0  0  0
   14.4970   24.8114   17.7299 H   0  0  0  0  0  0  0  0  0  0  0  0
   16.9394   24.1554   18.3690 C   0  0  0  0  0  0  0  0  0  0  0  0
   17.0316   25.1585   17.6468 O   0  0  0  0  0  0  0  0  0  0  0  0
   18.0214   23.6335   18.9531 N   0  0  0  0  0  0  0  0  0  0  0  0
   19.3290   24.2744   18.7648 C   0  0  0  0  0  0  0  0  0  0  0  0
   20.2033   23.7736   19.9451 C   0  0  0  0  0  0  0  0  0  0  0  0
   18.0058   22.4658   19.8558 C   0  0  0  0  0  0  0  0  0  0  0  0
   21.6844   23.8753   19.6611 C   0  0  0  0  0  0  0  0  0  0  0  0
   19.8299   24.5773   21.2024 C   0  0  0  0  0  0  0  0  0  0  0  0
   19.7184   22.0368   20.1365 S   0  0  0  0  0  0  0  0  0  0  0  0
   19.8583   23.9572   17.3691 C   0  0  0  0  0  0  0  0  0  0  0  0
   19.8153   22.8181   16.9046 O   0  0  0  0  0  0  0  0  0  0  0  0
   20.3237   25.0044   16.6946 N   0  0  0  0  0  0  0  0  0  0  0  0
   20.3254   25.8854   17.1340 H   0  0  0  0  0  0  0  0  0  0  0  0
   20.8364   24.9019   15.3189 C   0  0  0  0  0  0  0  0  0  0  0  0
   20.0683   25.8332   14.4058 C   0  0  0  0  0  0  0  0  0  0  0  0
   20.6657   27.1748   14.1579 C   0  0  0  0  0  0  0  0  0  0  0  0
   18.8933   25.4125   13.8689 C   0  0  0  0  0  0  0  0  0  0  0  0
   14.7067   23.0549   16.2075 C   0  0  0  0  0  0  0  0  0  0  0  0
   14.4935   22.0596   15.1114 C   0  0  0  0  0  0  0  0  0  0  0  0
   14.0906   20.3535   12.9432 C   0  0  0  0  0  0  0  0  0  0  0  0
   13.2021   21.5699   14.8009 C   0  0  0  0  0  0  0  0  0  0  0  0
   15.5725   21.6473   14.3394 C   0  0  0  0  0  0  0  0  0  0  0  0
   13.0294   20.7135   13.7250 C   0  0  0  0  0  0  0  0  0  0  0  0
   15.3330   20.7876   13.2430 C   0  0  0  0  0  0  0  0  0  0  0  0
 15 12  1  0  0  0
 12 14  2  0  0  0
 12 16  1  0  0  0
 14 11  1  0  0  0
 11 13  1  0  0  0
 11 10  2  0  0  0
  9 10  1  0  0  0
  9  8  1  0  0  0
  9 16  2  0  0  0
 16  7  1  0  0  0
  7  6  1  0  0  0
  6  2  1  0  0  0
  2  3  2  0  0  0
  2  4  1  0  0  0
  4  1  1  0  0  0
  1 39  1  0  0  0
  1 19  1  0  0  0
 39 40  1  0  0  0
 40 42  2  0  0  0
 40 43  1  0  0  0
 42 44  1  0  0  0
 44 41  2  0  0  0
 41 45  1  0  0  0
 45 43  2  0  0  0
 19 20  1  0  0  0
 19 22  1  0  0  0
 22 23  2  0  0  0
 22 24  1  0  0  0
 24 27  1  0  0  0
 24 25  1  0  0  0
 27 30  1  0  0  0
 30 26  1  0  0  0
 26 29  1  0  0  0
 26 28  1  0  0  0
 26 25  1  0  0  0
 25 31  1  0  0  0
 31 32  2  0  0  0
 31 33  1  0  0  0
 33 35  1  0  0  0
 35 36  1  0  0  0
 36 37  1  0  0  0
 36 38  2  0  0  0
 13 17  1  0  0  0
 13 18  1  0  0  0
  4  5  1  0  0  0
 20 21  1  0  0  0
 33 34  1  0  0  0
M  END
> <minimizedAffinity>
-10.81839

$$$$
3A2O_KNJ_B_999


 45 47  0  0  0  0  0  0  0  0999 V2000
   14.9868   22.1562   17.3382 C   0  0  0  0  0  0  0  0  0  0  0  0
   14.8918   19.8978   18.2242 C   0  0  0  0  0  0  0  0  0  0  0  0
   16.1251   19.7552   18.2039 O   0  0  0  0  0  0  0  0  0  0  0  0
   14.2690   21.0143   17.8554 N   0  0  0  0  0  0  0  0  0  0  0  0
   13.2892   21.0636   17.9374 H   0  0  0  0  0  0  0  0  0  0  0  0
   14.0520   18.7085   18.7097 C   0  0  0  0  0  0  0  0  0  0  0  0
   12.8366   19.1846   19.2524 O   0  0  0  0  0  0  0  0  0  0  0  0
   12.4857   17.6466   21.6257 C   0  0  0  0  0  0  0  0  0  0  0  0
   11.6558   17.4370   20.3974 C   0  0  0  0  0  0  0  0  0  0  0  0
   10.6560   16.4568   20.3513 C   0  0  0  0  0  0  0  0  0  0  0  0
    9.8738   16.2252   19.2395 C   0  0  0  0  0  0  0  0  0  0  0  0
   11.1164   18.0102   18.1082 C   0  0  0  0  0  0  0  0  0  0  0  0
    8.9109   15.2708   19.2305 N   0  0  0  0  0  0  0  0  0  0  0  0
   10.1306   17.0222   18.1278 C   0  0  0  0  0  0  0  0  0  0  0  0
   11.3150   18.8306   16.8659 C   0  0  0  0  0  0  0  0  0  0  0  0
   11.8733   18.2080   19.2805 C   0  0  0  0  0  0  0  0  0  0  0  0
    8.3674   15.1275   18.4223 H   0  0  0  0  0  0  0  0  0  0  0  0
    8.7552   14.7211   20.0323 H   0  0  0  0  0  0  0  0  0  0  0  0
   15.2103   23.2031   18.4607 C   0  0  0  0  0  0  0  0  0  0  0  0
   14.1479   24.1048   18.4579 O   0  0  0  0  0  0  0  0  0  0  0  0
   14.1031   24.5489   17.5968 H   0  0  0  0  0  0  0  0  0  0  0  0
   16.5425   23.8991   18.2533 C   0  0  0  0  0  0  0  0  0  0  0  0
   16.6409   24.8813   17.5037 O   0  0  0  0  0  0  0  0  0  0  0  0
   17.6199   23.3927   18.8593 N   0  0  0  0  0  0  0  0  0  0  0  0
   18.9295   24.0264   18.6618 C   0  0  0  0  0  0  0  0  0  0  0  0
   19.7952   23.5581   19.8616 C   0  0  0  0  0  0  0  0  0  0  0  0
   17.5966   22.2509   19.7945 C   0  0  0  0  0  0  0  0  0  0  0  0
   21.2783   23.6501   19.5848 C   0  0  0  0  0  0  0  0  0  0  0  0
   19.4145   24.3975   21.0931 C   0  0  0  0  0  0  0  0  0  0  0  0
   19.3068   21.8281   20.0987 S   0  0  0  0  0  0  0  0  0  0  0  0
   19.4677   23.6692   17.2792 C   0  0  0  0  0  0  0  0  0  0  0  0
   19.3753   22.5294   16.8238 O   0  0  0  0  0  0  0  0  0  0  0  0
   19.9985   24.6849   16.6046 N   0  0  0  0  0  0  0  0  0  0  0  0
   20.0370   25.5689   17.0362 H   0  0  0  0  0  0  0  0  0  0  0  0
   20.5307   24.5432   15.2399 C   0  0  0  0  0  0  0  0  0  0  0  0
   19.9974   25.6495   14.3551 C   0  0  0  0  0  0  0  0  0  0  0  0
   18.6530   25.4368   13.7501 C   0  0  0  0  0  0  0  0  0  0  0  0
   20.7545   26.7598   14.1555 C   0  0  0  0  0  0  0  0  0  0  0  0
   14.2670   22.7513   16.1286 C   0  0  0  0  0  0  0  0  0  0  0  0
   14.1348   21.7608   15.0155 C   0  0  0  0  0  0  0  0  0  0  0  0
   13.9336   19.7752   13.0685 C   0  0  0  0  0  0  0  0  0  0  0  0
   15.2101   21.4941   14.1343 C   0  0  0  0  0  0  0  0  0  0  0  0
   12.9548   21.0413   14.8736 C   0  0  0  0  0  0  0  0  0  0  0  0
   15.0813   20.5099   13.1670 C   0  0  0  0  0  0  0  0  0  0  0  0
   12.8880   20.0367   13.8812 C   0  0  0  0  0  0  0  0  0  0  0  0
 15 12  1  0  0  0
 12 14  2  0  0  0
 12 16  1  0  0  0
 14 11  1  0  0  0
 11 13  1  0  0  0
 11 10  2  0  0  0
  9 10  1  0  0  0
  9  8  1  0  0  0
  9 16  2  0  0  0
 16  7  1  0  0  0
  7  6  1  0  0  0
  6  2  1  0  0  0
  2  3  2  0  0  0
  2  4  1  0  0  0
  4  1  1  0  0  0
  1 39  1  0  0  0
  1 19  1  0  0  0
 39 40  1  0  0  0
 40 42  2  0  0  0
 40 43  1  0  0  0
 42 44  1  0  0  0
 44 41  2  0  0  0
 41 45  1  0  0  0
 45 43  2  0  0  0
 19 20  1  0  0  0
 19 22  1  0  0  0
 22 23  2  0  0  0
 22 24  1  0  0  0
 24 27  1  0  0  0
 24 25  1  0  0  0
 27 30  1  0  0  0
 30 26  1  0  0  0
 26 29  1  0  0  0
 26 28  1  0  0  0
 26 25  1  0  0  0
 25 31  1  0  0  0
 31 32  2  0  0  0
 31 33  1  0  0  0
 33 35  1  0  0  0
 35 36  1  0  0  0
 36 37  1  0  0  0
 36 38  2  0  0  0
 13 17  1  0  0  0
 13 18  1  0  0  0
  4  5  1  0  0  0
 20 21  1  0  0  0
 33 34  1  0  0  0
M  END
> <minimizedAffinity>
-10.27840

$$$$
3A2O_KNJ_B_999


 45 47  0  0  0  0  0  0  0  0999 V2000
   17.1199   22.8657   16.8745 C   0  0  0  0  0  0  0  0  0  0  0  0
   16.7791   20.7173   17.9528 C   0  0  0  0  0  0  0  0  0  0  0  0
   17.9873   20.4314   17.9385 O   0  0  0  0  0  0  0  0  0  0  0  0
   16.2834   21.8630   17.4921 N   0  0  0  0  0  0  0  0  0  0  0  0
   15.3171   22.0324   17.5746 H   0  0  0  0  0  0  0  0  0  0  0  0
   15.8155   19.6791   18.5435 C   0  0  0  0  0  0  0  0  0  0  0  0
   14.6960   20.3416   19.0970 O   0  0  0  0  0  0  0  0  0  0  0  0
   14.6813   19.3109   21.7538 C   0  0  0  0  0  0  0  0  0  0  0  0
   13.6523   18.9317   20.7347 C   0  0  0  0  0  0  0  0  0  0  0  0
   12.6204   18.0343   21.0391 C   0  0  0  0  0  0  0  0  0  0  0  0
   11.6567   17.6523   20.1298 C   0  0  0  0  0  0  0  0  0  0  0  0
   12.7651   19.0971   18.4884 C   0  0  0  0  0  0  0  0  0  0  0  0
   10.6684   16.7847   20.4594 N   0  0  0  0  0  0  0  0  0  0  0  0
   11.7577   18.2036   18.8559 C   0  0  0  0  0  0  0  0  0  0  0  0
   12.7881   19.6505   17.0924 C   0  0  0  0  0  0  0  0  0  0  0  0
   13.7126   19.4593   19.4669 C   0  0  0  0  0  0  0  0  0  0  0  0
    9.9936   16.5297   19.7896 H   0  0  0  0  0  0  0  0  0  0  0  0
   10.6257   16.4097   21.3687 H   0  0  0  0  0  0  0  0  0  0  0  0
   17.5512   23.9246   17.9226 C   0  0  0  0  0  0  0  0  0  0  0  0
   16.8692   25.1138   17.6728 O   0  0  0  0  0  0  0  0  0  0  0  0
   17.0824   25.4274   16.7800 H   0  0  0  0  0  0  0  0  0  0  0  0
   19.0557   24.1143   17.8691 C   0  0  0  0  0  0  0  0  0  0  0  0
   19.7999   23.5569   18.6887 O   0  0  0  0  0  0  0  0  0  0  0  0
   19.5548   24.9416   16.9468 N   0  0  0  0  0  0  0  0  0  0  0  0
   21.0042   25.1674   16.8816 C   0  0  0  0  0  0  0  0  0  0  0  0
   21.2703   25.7032   15.4497 C   0  0  0  0  0  0  0  0  0  0  0  0
   18.7546   25.6216   15.9095 C   0  0  0  0  0  0  0  0  0  0  0  0
   22.5627   26.4801   15.3460 C   0  0  0  0  0  0  0  0  0  0  0  0
   21.2673   24.5122   14.4763 C   0  0  0  0  0  0  0  0  0  0  0  0
   19.8561   26.7905   15.1246 S   0  0  0  0  0  0  0  0  0  0  0  0
   21.4306   26.0879   18.0216 C   0  0  0  0  0  0  0  0  0  0  0  0
   20.9422   27.2087   18.1650 O   0  0  0  0  0  0  0  0  0  0  0  0
   22.3280   25.5697   18.8549 N   0  0  0  0  0  0  0  0  0  0  0  0
   22.6726   24.6654   18.6740 H   0  0  0  0  0  0  0  0  0  0  0  0
   22.8278   26.2911   20.0363 C   0  0  0  0  0  0  0  0  0  0  0  0
   22.3813   25.5910   21.3018 C   0  0  0  0  0  0  0  0  0  0  0  0
   22.1957   26.4416   22.5104 C   0  0  0  0  0  0  0  0  0  0  0  0
   22.1779   24.2479   21.2781 C   0  0  0  0  0  0  0  0  0  0  0  0
   16.4190   23.4958   15.6716 C   0  0  0  0  0  0  0  0  0  0  0  0
   15.4021   22.5760   15.0738 C   0  0  0  0  0  0  0  0  0  0  0  0
   13.5202   20.9645   13.7951 C   0  0  0  0  0  0  0  0  0  0  0  0
   14.0151   22.7907   15.2580 C   0  0  0  0  0  0  0  0  0  0  0  0
   15.8186   21.5210   14.2715 C   0  0  0  0  0  0  0  0  0  0  0  0
   13.0993   21.9685   14.6207 C   0  0  0  0  0  0  0  0  0  0  0  0
   14.8389   20.7273   13.6319 C   0  0  0  0  0  0  0  0  0  0  0  0
 15 12  1  0  0  0
 12 14  2  0  0  0
 12 16  1  0  0  0
 14 11  1  0  0  0
 11 13  1  0  0  0
 11 10  2  0  0  0
  9 10  1  0  0  0
  9  8  1  0  0  0
  9 16  2  0  0  0
 16  7  1  0  0  0
  7  6  1  0  0  0
  6  2  1  0  0  0
  2  3  2  0  0  0
  2  4  1  0  0  0
  4  1  1  0  0  0
  1 39  1  0  0  0
  1 19  1  0  0  0
 39 40  1  0  0  0
 40 42  2  0  0  0
 40 43  1  0  0  0
 42 44  1  0  0  0
 44 41  2  0  0  0
 41 45  1  0  0  0
 45 43  2  0  0  0
 19 20  1  0  0  0
 19 22  1  0  0  0
 22 23  2  0  0  0
 22 24  1  0  0  0
 24 27  1  0  0  0
 24 25  1  0  0  0
 27 30  1  0  0  0
 30 26  1  0  0  0
 26 29  1  0  0  0
 26 28  1  0  0  0
 26 25  1  0  0  0
 25 31  1  0  0  0
 31 32  2  0  0  0
 31 33  1  0  0  0
 33 35  1  0  0  0
 35 36  1  0  0  0
 36 37  1  0  0  0
 36 38  2  0  0  0
 13 17  1  0  0  0
 13 18  1  0  0  0
  4  5  1  0  0  0
 20 21  1  0  0  0
 33 34  1  0  0  0
M  END
> <minimizedAffinity>
-9.01091

$$$$
3A2O_KNJ_B_999


 45 47  0  0  0  0  0  0  0  0999 V2000
   17.2349   23.4000   18.0382 C   0  0  0  0  0  0  0  0  0  0  0  0
   18.6549   24.8103   16.6638 C   0  0  0  0  0  0  0  0  0  0  0  0
   18.2538   24.3104   15.6004 O   0  0  0  0  0  0  0  0  0  0  0  0
   18.2056   24.4557   17.8650 N   0  0  0  0  0  0  0  0  0  0  0  0
   18.5450   24.9271   18.6598 H   0  0  0  0  0  0  0  0  0  0  0  0
   19.7287   25.9026   16.5689 C   0  0  0  0  0  0  0  0  0  0  0  0
   20.8769   25.4933   17.2848 O   0  0  0  0  0  0  0  0  0  0  0  0
   21.7601   25.3085   14.5816 C   0  0  0  0  0  0  0  0  0  0  0  0
   22.4658   26.1406   15.6067 C   0  0  0  0  0  0  0  0  0  0  0  0
   23.6146   26.8750   15.2848 C   0  0  0  0  0  0  0  0  0  0  0  0
   24.2994   27.6482   16.1985 C   0  0  0  0  0  0  0  0  0  0  0  0
   22.6583   26.9492   17.8803 C   0  0  0  0  0  0  0  0  0  0  0  0
   25.4059   28.3507   15.8519 N   0  0  0  0  0  0  0  0  0  0  0  0
   23.7937   27.6638   17.4951 C   0  0  0  0  0  0  0  0  0  0  0  0
   22.1784   27.0352   19.3009 C   0  0  0  0  0  0  0  0  0  0  0  0
   21.9945   26.1883   16.8970 C   0  0  0  0  0  0  0  0  0  0  0  0
   25.8748   28.8945   16.5254 H   0  0  0  0  0  0  0  0  0  0  0  0
   25.7406   28.3169   14.9266 H   0  0  0  0  0  0  0  0  0  0  0  0
   15.7972   23.9806   17.9961 C   0  0  0  0  0  0  0  0  0  0  0  0
   15.6353   24.8682   19.0579 O   0  0  0  0  0  0  0  0  0  0  0  0
   15.7775   24.3999   19.8954 H   0  0  0  0  0  0  0  0  0  0  0  0
   14.7870   22.8495   18.0462 C   0  0  0  0  0  0  0  0  0  0  0  0
   14.1790   22.5811   19.0924 O   0  0  0  0  0  0  0  0  0  0  0  0
   14.6080   22.1143   16.9453 N   0  0  0  0  0  0  0  0  0  0  0  0
   13.6560   20.9967   16.9651 C   0  0  0  0  0  0  0  0  0  0  0  0
   13.3076   20.7304   15.4764 C   0  0  0  0  0  0  0  0  0  0  0  0
   15.2584   22.3774   15.6466 C   0  0  0  0  0  0  0  0  0  0  0  0
   12.7852   19.3322   15.2384 C   0  0  0  0  0  0  0  0  0  0  0  0
   12.2828   21.7831   15.0208 C   0  0  0  0  0  0  0  0  0  0  0  0
   14.8848   20.9669   14.6137 S   0  0  0  0  0  0  0  0  0  0  0  0
   14.2640   19.8196   17.7224 C   0  0  0  0  0  0  0  0  0  0  0  0
   15.4718   19.5845   17.6905 O   0  0  0  0  0  0  0  0  0  0  0  0
   13.3995   19.1073   18.4391 N   0  0  0  0  0  0  0  0  0  0  0  0
   12.4475   19.3572   18.4141 H   0  0  0  0  0  0  0  0  0  0  0  0
   13.8058   17.9613   19.2681 C   0  0  0  0  0  0  0  0  0  0  0  0
   13.4448   18.2120   20.7165 C   0  0  0  0  0  0  0  0  0  0  0  0
   14.2862   19.1915   21.4588 C   0  0  0  0  0  0  0  0  0  0  0  0
   12.3948   17.5440   21.2616 C   0  0  0  0  0  0  0  0  0  0  0  0
   17.5039   22.6166   19.3225 C   0  0  0  0  0  0  0  0  0  0  0  0
   18.7417   23.0906   20.0159 C   0  0  0  0  0  0  0  0  0  0  0  0
   21.0536   24.1230   21.1833 C   0  0  0  0  0  0  0  0  0  0  0  0
   20.0182   22.5822   19.6754 C   0  0  0  0  0  0  0  0  0  0  0  0
   18.6506   24.0927   20.9739 C   0  0  0  0  0  0  0  0  0  0  0  0
   21.1517   23.1040   20.2785 C   0  0  0  0  0  0  0  0  0  0  0  0
   19.8424   24.5991   21.5413 C   0  0  0  0  0  0  0  0  0  0  0  0
 15 12  1  0  0  0
 12 14  2  0  0  0
 12 16  1  0  0  0
 14 11  1  0  0  0
 11 13  1  0  0  0
 11 10  2  0  0  0
  9 10  1  0  0  0
  9  8  1  0  0  0
  9 16  2  0  0  0
 16  7  1  0  0  0
  7  6  1  0  0  0
  6  2  1  0  0  0
  2  3  2  0  0  0
  2  4  1  0  0  0
  4  1  1  0  0  0
  1 39  1  0  0  0
  1 19  1  0  0  0
 39 40  1  0  0  0
 40 42  2  0  0  0
 40 43  1  0  0  0
 42 44  1  0  0  0
 44 41  2  0  0  0
 41 45  1  0  0  0
 45 43  2  0  0  0
 19 20  1  0  0  0
 19 22  1  0  0  0
 22 23  2  0  0  0
 22 24  1  0  0  0
 24 27  1  0  0  0
 24 25  1  0  0  0
 27 30  1  0  0  0
 30 26  1  0  0  0
 26 29  1  0  0  0
 26 28  1  0  0  0
 26 25  1  0  0  0
 25 31  1  0  0  0
 31 32  2  0  0  0
 31 33  1  0  0  0
 33 35  1  0  0  0
 35 36  1  0  0  0
 36 37  1  0  0  0
 36 38  2  0  0  0
 13 17  1  0  0  0
 13 18  1  0  0  0
  4  5  1  0  0  0
 20 21  1  0  0  0
 33 34  1  0  0  0
M  END
> <minimizedAffinity>
-8.87610

$$$$
3A2O_KNJ_B_999


 45 47  0  0  0  0  0  0  0  0999 V2000
   19.5611   23.7781   18.4564 C   0  0  0  0  0  0  0  0  0  0  0  0
   17.6716   22.3038   18.8440 C   0  0  0  0  0  0  0  0  0  0  0  0
   16.9140   23.2328   19.1672 O   0  0  0  0  0  0  0  0  0  0  0  0
   18.9361   22.4759   18.4674 N   0  0  0  0  0  0  0  0  0  0  0  0
   19.4618   21.6918   18.1878 H   0  0  0  0  0  0  0  0  0  0  0  0
   17.0988   20.8805   18.8826 C   0  0  0  0  0  0  0  0  0  0  0  0
   16.9892   20.3843   17.5634 O   0  0  0  0  0  0  0  0  0  0  0  0
   14.8419   18.8506   18.6396 C   0  0  0  0  0  0  0  0  0  0  0  0
   14.6504   19.8467   17.5385 C   0  0  0  0  0  0  0  0  0  0  0  0
   13.3899   20.0729   16.9707 C   0  0  0  0  0  0  0  0  0  0  0  0
   13.1698   20.9748   15.9511 C   0  0  0  0  0  0  0  0  0  0  0  0
   15.5678   21.4815   16.0068 C   0  0  0  0  0  0  0  0  0  0  0  0
   11.9350   21.1727   15.4274 N   0  0  0  0  0  0  0  0  0  0  0  0
   14.2852   21.6665   15.4880 C   0  0  0  0  0  0  0  0  0  0  0  0
   16.7113   22.2815   15.4517 C   0  0  0  0  0  0  0  0  0  0  0  0
   15.7254   20.5554   17.0575 C   0  0  0  0  0  0  0  0  0  0  0  0
   11.8074   21.8233   14.6997 H   0  0  0  0  0  0  0  0  0  0  0  0
   11.1659   20.6657   15.7749 H   0  0  0  0  0  0  0  0  0  0  0  0
   19.9209   24.2130   19.9012 C   0  0  0  0  0  0  0  0  0  0  0  0
   18.8095   24.8207   20.4819 O   0  0  0  0  0  0  0  0  0  0  0  0
   18.5543   25.5961   19.9579 H   0  0  0  0  0  0  0  0  0  0  0  0
   21.1213   25.1406   19.8724 C   0  0  0  0  0  0  0  0  0  0  0  0
   21.1895   26.0729   19.0584 O   0  0  0  0  0  0  0  0  0  0  0  0
   22.1293   24.8941   20.7134 N   0  0  0  0  0  0  0  0  0  0  0  0
   23.3172   25.7570   20.6964 C   0  0  0  0  0  0  0  0  0  0  0  0
   23.9963   25.5447   22.0755 C   0  0  0  0  0  0  0  0  0  0  0  0
   22.1251   23.8323   21.7388 C   0  0  0  0  0  0  0  0  0  0  0  0
   25.4640   25.9061   22.0673 C   0  0  0  0  0  0  0  0  0  0  0  0
   23.2343   26.3712   23.1254 C   0  0  0  0  0  0  0  0  0  0  0  0
   23.7880   23.7715   22.3922 S   0  0  0  0  0  0  0  0  0  0  0  0
   24.1748   25.4234   19.4790 C   0  0  0  0  0  0  0  0  0  0  0  0
   24.5891   24.2828   19.2727 O   0  0  0  0  0  0  0  0  0  0  0  0
   24.3978   26.4423   18.6541 N   0  0  0  0  0  0  0  0  0  0  0  0
   24.0329   27.3265   18.8874 H   0  0  0  0  0  0  0  0  0  0  0  0
   25.1672   26.3040   17.4072 C   0  0  0  0  0  0  0  0  0  0  0  0
   24.5898   27.2042   16.3361 C   0  0  0  0  0  0  0  0  0  0  0  0
   23.1363   27.5151   16.4315 C   0  0  0  0  0  0  0  0  0  0  0  0
   25.4058   27.6743   15.3567 C   0  0  0  0  0  0  0  0  0  0  0  0
   18.6753   24.8027   17.7486 C   0  0  0  0  0  0  0  0  0  0  0  0
   19.0577   24.9729   16.3125 C   0  0  0  0  0  0  0  0  0  0  0  0
   19.8427   25.4645   13.6827 C   0  0  0  0  0  0  0  0  0  0  0  0
   18.1343   25.4600   15.3565 C   0  0  0  0  0  0  0  0  0  0  0  0
   20.3610   24.7050   15.9130 C   0  0  0  0  0  0  0  0  0  0  0  0
   18.5460   25.6853   14.0524 C   0  0  0  0  0  0  0  0  0  0  0  0
   20.7286   24.9720   14.5742 C   0  0  0  0  0  0  0  0  0  0  0  0
 15 12  1  0  0  0
 12 14  2  0  0  0
 12 16  1  0  0  0
 14 11  1  0  0  0
 11 13  1  0  0  0
 11 10  2  0  0  0
  9 10  1  0  0  0
  9  8  1  0  0  0
  9 16  2  0  0  0
 16  7  1  0  0  0
  7  6  1  0  0  0
  6  2  1  0  0  0
  2  3  2  0  0  0
  2  4  1  0  0  0
  4  1  1  0  0  0
  1 39  1  0  0  0
  1 19  1  0  0  0
 39 40  1  0  0  0
 40 42  2  0  0  0
 40 43  1  0  0  0
 42 44  1  0  0  0
 44 41  2  0  0  0
 41 45  1  0  0  0
 45 43  2  0  0  0
 19 20  1  0  0  0
 19 22  1  0  0  0
 22 23  2  0  0  0
 22 24  1  0  0  0
 24 27  1  0  0  0
 24 25  1  0  0  0
 27 30  1  0  0  0
 30 26  1  0  0  0
 26 29  1  0  0  0
 26 28  1  0  0  0
 26 25  1  0  0  0
 25 31  1  0  0  0
 31 32  2  0  0  0
 31 33  1  0  0  0
 33 35  1  0  0  0
 35 36  1  0  0  0
 36 37  1  0  0  0
 36 38  2  0  0  0
 13 17  1  0  0  0
 13 18  1  0  0  0
  4  5  1  0  0  0
 20 21  1  0  0  0
 33 34  1  0  0  0
M  END
> <minimizedAffinity>
-8.80596

$$$$
3A2O_KNJ_B_999


 45 47  0  0  0  0  0  0  0  0999 V2000
   17.1685   22.5061   17.7853 C   0  0  0  0  0  0  0  0  0  0  0  0
   18.5310   23.6783   16.1532 C   0  0  0  0  0  0  0  0  0  0  0  0
   17.8143   23.3401   15.1974 O   0  0  0  0  0  0  0  0  0  0  0  0
   18.2832   23.3483   17.4182 N   0  0  0  0  0  0  0  0  0  0  0  0
   18.8777   23.6884   18.1254 H   0  0  0  0  0  0  0  0  0  0  0  0
   19.7687   24.5301   15.8401 C   0  0  0  0  0  0  0  0  0  0  0  0
   19.5823   25.8332   16.3555 O   0  0  0  0  0  0  0  0  0  0  0  0
   21.1151   25.6803   18.7530 C   0  0  0  0  0  0  0  0  0  0  0  0
   21.5488   26.4846   17.5671 C   0  0  0  0  0  0  0  0  0  0  0  0
   22.7430   27.2169   17.5798 C   0  0  0  0  0  0  0  0  0  0  0  0
   23.1767   27.9761   16.5134 C   0  0  0  0  0  0  0  0  0  0  0  0
   21.1471   27.2919   15.3205 C   0  0  0  0  0  0  0  0  0  0  0  0
   24.3410   28.6692   16.5576 N   0  0  0  0  0  0  0  0  0  0  0  0
   22.3515   27.9938   15.3929 C   0  0  0  0  0  0  0  0  0  0  0  0
   20.3265   27.3609   14.0645 C   0  0  0  0  0  0  0  0  0  0  0  0
   20.7655   26.5230   16.4384 C   0  0  0  0  0  0  0  0  0  0  0  0
   24.6258   29.2031   15.7810 H   0  0  0  0  0  0  0  0  0  0  0  0
   24.9017   28.6387   17.3662 H   0  0  0  0  0  0  0  0  0  0  0  0
   15.8355   23.2855   17.6377 C   0  0  0  0  0  0  0  0  0  0  0  0
   15.8011   24.3082   18.5834 O   0  0  0  0  0  0  0  0  0  0  0  0
   15.8640   23.9279   19.4734 H   0  0  0  0  0  0  0  0  0  0  0  0
   14.6655   22.3321   17.7938 C   0  0  0  0  0  0  0  0  0  0  0  0
   14.0752   22.2163   18.8775 O   0  0  0  0  0  0  0  0  0  0  0  0
   14.3205   21.5798   16.7453 N   0  0  0  0  0  0  0  0  0  0  0  0
   13.2084   20.6290   16.8679 C   0  0  0  0  0  0  0  0  0  0  0  0
   12.7501   20.3462   15.4125 C   0  0  0  0  0  0  0  0  0  0  0  0
   14.9393   21.6709   15.4083 C   0  0  0  0  0  0  0  0  0  0  0  0
   12.0057   19.0378   15.2767 C   0  0  0  0  0  0  0  0  0  0  0  0
   11.8804   21.5232   14.9389 C   0  0  0  0  0  0  0  0  0  0  0  0
   14.3007   20.2868   14.4743 S   0  0  0  0  0  0  0  0  0  0  0  0
   13.6624   19.4104   17.6665 C   0  0  0  0  0  0  0  0  0  0  0  0
   14.8544   19.1701   17.8580 O   0  0  0  0  0  0  0  0  0  0  0  0
   12.6780   18.6669   18.1630 N   0  0  0  0  0  0  0  0  0  0  0  0
   11.7481   18.9233   17.9662 H   0  0  0  0  0  0  0  0  0  0  0  0
   12.9202   17.4768   18.9941 C   0  0  0  0  0  0  0  0  0  0  0  0
   12.0181   17.4976   20.2094 C   0  0  0  0  0  0  0  0  0  0  0  0
   10.6594   16.9091   20.0477 C   0  0  0  0  0  0  0  0  0  0  0  0
   12.4782   18.0433   21.3654 C   0  0  0  0  0  0  0  0  0  0  0  0
   17.3530   21.9390   19.1923 C   0  0  0  0  0  0  0  0  0  0  0  0
   18.4800   22.6032   19.9178 C   0  0  0  0  0  0  0  0  0  0  0  0
   20.5503   23.7170   21.4169 C   0  0  0  0  0  0  0  0  0  0  0  0
   18.2743   23.7754   20.6844 C   0  0  0  0  0  0  0  0  0  0  0  0
   19.7455   22.0306   19.8912 C   0  0  0  0  0  0  0  0  0  0  0  0
   19.3226   24.3166   21.4118 C   0  0  0  0  0  0  0  0  0  0  0  0
   20.7714   22.6159   20.6681 C   0  0  0  0  0  0  0  0  0  0  0  0
 15 12  1  0  0  0
 12 14  2  0  0  0
 12 16  1  0  0  0
 14 11  1  0  0  0
 11 13  1  0  0  0
 11 10  2  0  0  0
  9 10  1  0  0  0
  9  8  1  0  0  0
  9 16  2  0  0  0
 16  7  1  0  0  0
  7  6  1  0  0  0
  6  2  1  0  0  0
  2  3  2  0  0  0
  2  4  1  0  0  0
  4  1  1  0  0  0
  1 39  1  0  0  0
  1 19  1  0  0  0
 39 40  1  0  0  0
 40 42  2  0  0  0
 40 43  1  0  0  0
 42 44  1  0  0  0
 44 41  2  0  0  0
 41 45  1  0  0  0
 45 43  2  0  0  0
 19 20  1  0  0  0
 19 22  1  0  0  0
 22 23  2  0  0  0
 22 24  1  0  0  0
 24 27  1  0  0  0
 24 25  1  0  0  0
 27 30  1  0  0  0
 30 26  1  0  0  0
 26 29  1  0  0  0
 26 28  1  0  0  0
 26 25  1  0  0  0
 25 31  1  0  0  0
 31 32  2  0  0  0
 31 33  1  0  0  0
 33 35  1  0  0  0
 35 36  1  0  0  0
 36 37  1  0  0  0
 36 38  2  0  0  0
 13 17  1  0  0  0
 13 18  1  0  0  0
  4  5  1  0  0  0
 20 21  1  0  0  0
 33 34  1  0  0  0
M  END
> <minimizedAffinity>
-8.80035

$$$$
3A2O_KNJ_B_999


 45 47  0  0  0  0  0  0  0  0999 V2000
   13.2996   19.9002   16.2475 C   0  0  0  0  0  0  0  0  0  0  0  0
   14.8337   21.6899   15.6666 C   0  0  0  0  0  0  0  0  0  0  0  0
   14.1423   22.5645   16.2132 O   0  0  0  0  0  0  0  0  0  0  0  0
   14.5213   20.3966   15.6579 N   0  0  0  0  0  0  0  0  0  0  0  0
   15.1416   19.7585   15.2368 H   0  0  0  0  0  0  0  0  0  0  0  0
   16.1228   22.1439   14.9683 C   0  0  0  0  0  0  0  0  0  0  0  0
   17.2395   21.6970   15.7110 O   0  0  0  0  0  0  0  0  0  0  0  0
   17.8260   24.4789   15.5153 C   0  0  0  0  0  0  0  0  0  0  0  0
   17.6942   23.7717   16.8283 C   0  0  0  0  0  0  0  0  0  0  0  0
   17.8610   24.4507   18.0423 C   0  0  0  0  0  0  0  0  0  0  0  0
   17.7555   23.8377   19.2730 C   0  0  0  0  0  0  0  0  0  0  0  0
   17.3067   21.7400   18.0861 C   0  0  0  0  0  0  0  0  0  0  0  0
   17.9182   24.5262   20.4295 N   0  0  0  0  0  0  0  0  0  0  0  0
   17.4770   22.4741   19.2611 C   0  0  0  0  0  0  0  0  0  0  0  0
   16.9968   20.2728   18.1705 C   0  0  0  0  0  0  0  0  0  0  0  0
   17.4131   22.4267   16.8599 C   0  0  0  0  0  0  0  0  0  0  0  0
   17.8373   24.0623   21.2941 H   0  0  0  0  0  0  0  0  0  0  0  0
   18.1174   25.4900   20.4048 H   0  0  0  0  0  0  0  0  0  0  0  0
   12.0969   20.1854   15.3105 C   0  0  0  0  0  0  0  0  0  0  0  0
   11.6198   21.4700   15.5631 O   0  0  0  0  0  0  0  0  0  0  0  0
   11.3389   21.5343   16.4893 H   0  0  0  0  0  0  0  0  0  0  0  0
   11.0241   19.1330   15.5202 C   0  0  0  0  0  0  0  0  0  0  0  0
   10.1514   19.2739   16.3892 O   0  0  0  0  0  0  0  0  0  0  0  0
   11.0755   18.0232   14.7786 N   0  0  0  0  0  0  0  0  0  0  0  0
   10.0675   16.9732   14.9716 C   0  0  0  0  0  0  0  0  0  0  0  0
   10.0898   16.1398   13.6627 C   0  0  0  0  0  0  0  0  0  0  0  0
   12.0527   17.7807   13.6992 C   0  0  0  0  0  0  0  0  0  0  0  0
    9.5403   14.7439   13.8479 C   0  0  0  0  0  0  0  0  0  0  0  0
    9.2977   16.9022   12.5869 C   0  0  0  0  0  0  0  0  0  0  0  0
   11.8478   16.0695   13.2242 S   0  0  0  0  0  0  0  0  0  0  0  0
   10.3716   16.2009   16.2522 C   0  0  0  0  0  0  0  0  0  0  0  0
   11.4083   15.5507   16.3845 O   0  0  0  0  0  0  0  0  0  0  0  0
    9.4572   16.3214   17.2101 N   0  0  0  0  0  0  0  0  0  0  0  0
    8.6528   16.8595   17.0292 H   0  0  0  0  0  0  0  0  0  0  0  0
    9.5970   15.6843   18.5293 C   0  0  0  0  0  0  0  0  0  0  0  0
    8.7222   14.4515   18.6079 C   0  0  0  0  0  0  0  0  0  0  0  0
    9.3382   13.1626   18.1863 C   0  0  0  0  0  0  0  0  0  0  0  0
    7.4424   14.5756   19.0468 C   0  0  0  0  0  0  0  0  0  0  0  0
   13.0929   20.4814   17.6456 C   0  0  0  0  0  0  0  0  0  0  0  0
   13.2430   19.4411   18.7099 C   0  0  0  0  0  0  0  0  0  0  0  0
   13.3528   17.5618   20.7666 C   0  0  0  0  0  0  0  0  0  0  0  0
   13.9930   19.6905   19.8843 C   0  0  0  0  0  0  0  0  0  0  0  0
   12.5872   18.2236   18.5768 C   0  0  0  0  0  0  0  0  0  0  0  0
   14.0417   18.7355   20.8875 C   0  0  0  0  0  0  0  0  0  0  0  0
   12.6570   17.2955   19.6410 C   0  0  0  0  0  0  0  0  0  0  0  0
 15 12  1  0  0  0
 12 14  2  0  0  0
 12 16  1  0  0  0
 14 11  1  0  0  0
 11 13  1  0  0  0
 11 10  2  0  0  0
  9 10  1  0  0  0
  9  8  1  0  0  0
  9 16  2  0  0  0
 16  7  1  0  0  0
  7  6  1  0  0  0
  6  2  1  0  0  0
  2  3  2  0  0  0
  2  4  1  0  0  0
  4  1  1  0  0  0
  1 39  1  0  0  0
  1 19  1  0  0  0
 39 40  1  0  0  0
 40 42  2  0  0  0
 40 43  1  0  0  0
 42 44  1  0  0  0
 44 41  2  0  0  0
 41 45  1  0  0  0
 45 43  2  0  0  0
 19 20  1  0  0  0
 19 22  1  0  0  0
 22 23  2  0  0  0
 22 24  1  0  0  0
 24 27  1  0  0  0
 24 25  1  0  0  0
 27 30  1  0  0  0
 30 26  1  0  0  0
 26 29  1  0  0  0
 26 28  1  0  0  0
 26 25  1  0  0  0
 25 31  1  0  0  0
 31 32  2  0  0  0
 31 33  1  0  0  0
 33 35  1  0  0  0
 35 36  1  0  0  0
 36 37  1  0  0  0
 36 38  2  0  0  0
 13 17  1  0  0  0
 13 18  1  0  0  0
  4  5  1  0  0  0
 20 21  1  0  0  0
 33 34  1  0  0  0
M  END
> <minimizedAffinity>
-8.79336

$$$$
3A2O_KNJ_B_999


 45 47  0  0  0  0  0  0  0  0999 V2000
   12.9481   19.5681   16.3766 C   0  0  0  0  0  0  0  0  0  0  0  0
   14.4753   21.3408   15.7290 C   0  0  0  0  0  0  0  0  0  0  0  0
   13.7584   22.2371   16.2028 O   0  0  0  0  0  0  0  0  0  0  0  0
   14.1793   20.0451   15.7907 N   0  0  0  0  0  0  0  0  0  0  0  0
   14.8188   19.3915   15.4259 H   0  0  0  0  0  0  0  0  0  0  0  0
   15.7774   21.7698   15.0391 C   0  0  0  0  0  0  0  0  0  0  0  0
   16.8804   21.2913   15.7826 O   0  0  0  0  0  0  0  0  0  0  0  0
   16.5486   20.1334   18.3654 C   0  0  0  0  0  0  0  0  0  0  0  0
   16.9768   21.5541   18.1661 C   0  0  0  0  0  0  0  0  0  0  0  0
   17.2333   22.3979   19.2545 C   0  0  0  0  0  0  0  0  0  0  0  0
   17.6226   23.7137   19.1169 C   0  0  0  0  0  0  0  0  0  0  0  0
   17.4984   23.3995   16.6887 C   0  0  0  0  0  0  0  0  0  0  0  0
   17.8676   24.5017   20.1926 N   0  0  0  0  0  0  0  0  0  0  0  0
   17.7460   24.1873   17.8141 C   0  0  0  0  0  0  0  0  0  0  0  0
   17.6685   23.9932   15.3197 C   0  0  0  0  0  0  0  0  0  0  0  0
   17.1170   22.0585   16.8952 C   0  0  0  0  0  0  0  0  0  0  0  0
   18.1442   25.4377   20.0643 H   0  0  0  0  0  0  0  0  0  0  0  0
   17.7687   24.1379   21.1020 H   0  0  0  0  0  0  0  0  0  0  0  0
   11.7557   19.8534   15.4265 C   0  0  0  0  0  0  0  0  0  0  0  0
   11.1506   21.0503   15.8048 O   0  0  0  0  0  0  0  0  0  0  0  0
   10.8341   20.9777   16.7188 H   0  0  0  0  0  0  0  0  0  0  0  0
   10.7813   18.6910   15.4650 C   0  0  0  0  0  0  0  0  0  0  0  0
    9.8623   18.6542   16.2959 O   0  0  0  0  0  0  0  0  0  0  0  0
   10.9715   17.6799   14.6130 N   0  0  0  0  0  0  0  0  0  0  0  0
   10.0620   16.5275   14.6386 C   0  0  0  0  0  0  0  0  0  0  0  0
   10.2212   15.8504   13.2513 C   0  0  0  0  0  0  0  0  0  0  0  0
   12.0134   17.6490   13.5678 C   0  0  0  0  0  0  0  0  0  0  0  0
    9.8014   14.3984   13.2568 C   0  0  0  0  0  0  0  0  0  0  0  0
    9.4067   16.6524   12.2221 C   0  0  0  0  0  0  0  0  0  0  0  0
   11.9952   15.9898   12.9026 S   0  0  0  0  0  0  0  0  0  0  0  0
   10.3834   15.6485   15.8439 C   0  0  0  0  0  0  0  0  0  0  0  0
   11.4521   15.0449   15.9376 O   0  0  0  0  0  0  0  0  0  0  0  0
    9.4448   15.6233   16.7856 N   0  0  0  0  0  0  0  0  0  0  0  0
    8.6154   16.1328   16.6385 H   0  0  0  0  0  0  0  0  0  0  0  0
    9.5939   14.8659   18.0386 C   0  0  0  0  0  0  0  0  0  0  0  0
    8.4016   13.9558   18.2422 C   0  0  0  0  0  0  0  0  0  0  0  0
    8.5257   12.5617   17.7328 C   0  0  0  0  0  0  0  0  0  0  0  0
    7.2962   14.4432   18.8640 C   0  0  0  0  0  0  0  0  0  0  0  0
   12.7361   20.1688   17.7657 C   0  0  0  0  0  0  0  0  0  0  0  0
   12.6865   19.1159   18.8270 C   0  0  0  0  0  0  0  0  0  0  0  0
   12.4872   17.2757   20.9121 C   0  0  0  0  0  0  0  0  0  0  0  0
   13.7276   18.9758   19.7759 C   0  0  0  0  0  0  0  0  0  0  0  0
   11.5715   18.2930   18.9258 C   0  0  0  0  0  0  0  0  0  0  0  0
   13.6101   18.0455   20.7964 C   0  0  0  0  0  0  0  0  0  0  0  0
   11.4983   17.3756   19.9989 C   0  0  0  0  0  0  0  0  0  0  0  0
 15 12  1  0  0  0
 12 14  2  0  0  0
 12 16  1  0  0  0
 14 11  1  0  0  0
 11 13  1  0  0  0
 11 10  2  0  0  0
  9 10  1  0  0  0
  9  8  1  0  0  0
  9 16  2  0  0  0
 16  7  1  0  0  0
  7  6  1  0  0  0
  6  2  1  0  0  0
  2  3  2  0  0  0
  2  4  1  0  0  0
  4  1  1  0  0  0
  1 39  1  0  0  0
  1 19  1  0  0  0
 39 40  1  0  0  0
 40 42  2  0  0  0
 40 43  1  0  0  0
 42 44  1  0  0  0
 44 41  2  0  0  0
 41 45  1  0  0  0
 45 43  2  0  0  0
 19 20  1  0  0  0
 19 22  1  0  0  0
 22 23  2  0  0  0
 22 24  1  0  0  0
 24 27  1  0  0  0
 24 25  1  0  0  0
 27 30  1  0  0  0
 30 26  1  0  0  0
 26 29  1  0  0  0
 26 28  1  0  0  0
 26 25  1  0  0  0
 25 31  1  0  0  0
 31 32  2  0  0  0
 31 33  1  0  0  0
 33 35  1  0  0  0
 35 36  1  0  0  0
 36 37  1  0  0  0
 36 38  2  0  0  0
 13 17  1  0  0  0
 13 18  1  0  0  0
  4  5  1  0  0  0
 20 21  1  0  0  0
 33 34  1  0  0  0
M  END
> <minimizedAffinity>
-8.66888

$$$$
3A2O_KNJ_B_999


 45 47  0  0  0  0  0  0  0  0999 V2000
   11.5868   17.2159   13.1193 C   0  0  0  0  0  0  0  0  0  0  0  0
   13.2422   18.9558   13.4753 C   0  0  0  0  0  0  0  0  0  0  0  0
   13.3927   19.1685   12.2613 O   0  0  0  0  0  0  0  0  0  0  0  0
   12.3869   18.0651   13.9710 N   0  0  0  0  0  0  0  0  0  0  0  0
   12.2967   17.9824   14.9478 H   0  0  0  0  0  0  0  0  0  0  0  0
   14.0975   19.7800   14.4472 C   0  0  0  0  0  0  0  0  0  0  0  0
   13.3924   19.9522   15.6604 O   0  0  0  0  0  0  0  0  0  0  0  0
   14.8705   19.3957   18.0324 C   0  0  0  0  0  0  0  0  0  0  0  0
   14.6156   20.7891   17.5479 C   0  0  0  0  0  0  0  0  0  0  0  0
   15.0926   21.9039   18.2495 C   0  0  0  0  0  0  0  0  0  0  0  0
   14.8751   23.2037   17.8434 C   0  0  0  0  0  0  0  0  0  0  0  0
   13.6245   22.3009   15.9379 C   0  0  0  0  0  0  0  0  0  0  0  0
   15.3555   24.2601   18.5442 N   0  0  0  0  0  0  0  0  0  0  0  0
   14.1329   23.3697   16.6779 C   0  0  0  0  0  0  0  0  0  0  0  0
   12.8433   22.5757   14.6849 C   0  0  0  0  0  0  0  0  0  0  0  0
   13.8926   20.9958   16.3974 C   0  0  0  0  0  0  0  0  0  0  0  0
   15.1848   25.1776   18.2305 H   0  0  0  0  0  0  0  0  0  0  0  0
   15.8751   24.1099   19.3669 H   0  0  0  0  0  0  0  0  0  0  0  0
   10.1016   17.2555   13.5648 C   0  0  0  0  0  0  0  0  0  0  0  0
    9.4986   18.3932   13.0323 O   0  0  0  0  0  0  0  0  0  0  0  0
    9.9603   19.1839   13.3526 H   0  0  0  0  0  0  0  0  0  0  0  0
   10.0210   17.2301   15.0798 C   0  0  0  0  0  0  0  0  0  0  0  0
   10.2401   18.2502   15.7490 O   0  0  0  0  0  0  0  0  0  0  0  0
    9.7593   16.0649   15.6782 N   0  0  0  0  0  0  0  0  0  0  0  0
    9.6976   15.9985   17.1436 C   0  0  0  0  0  0  0  0  0  0  0  0
    8.8826   14.7165   17.4607 C   0  0  0  0  0  0  0  0  0  0  0  0
    9.4516   14.8081   14.9678 C   0  0  0  0  0  0  0  0  0  0  0  0
    9.1468   14.1834   18.8502 C   0  0  0  0  0  0  0  0  0  0  0  0
    7.3889   15.0298   17.2688 C   0  0  0  0  0  0  0  0  0  0  0  0
    9.4454   13.5263   16.2139 S   0  0  0  0  0  0  0  0  0  0  0  0
   11.1108   16.0422   17.7180 C   0  0  0  0  0  0  0  0  0  0  0  0
   11.9703   15.2271   17.3835 O   0  0  0  0  0  0  0  0  0  0  0  0
   11.3416   17.0421   18.5638 N   0  0  0  0  0  0  0  0  0  0  0  0
   10.6025   17.6546   18.7828 H   0  0  0  0  0  0  0  0  0  0  0  0
   12.6552   17.2717   19.1862 C   0  0  0  0  0  0  0  0  0  0  0  0
   12.4961   17.4805   20.6769 C   0  0  0  0  0  0  0  0  0  0  0  0
   13.3216   18.5541   21.2968 C   0  0  0  0  0  0  0  0  0  0  0  0
   11.6289   16.6938   21.3661 C   0  0  0  0  0  0  0  0  0  0  0  0
   12.1431   15.7929   13.0900 C   0  0  0  0  0  0  0  0  0  0  0  0
   13.0134   15.5589   11.8961 C   0  0  0  0  0  0  0  0  0  0  0  0
   14.6241   14.9322    9.7082 C   0  0  0  0  0  0  0  0  0  0  0  0
   14.4242   15.6325   11.9863 C   0  0  0  0  0  0  0  0  0  0  0  0
   12.4347   15.2039   10.6840 C   0  0  0  0  0  0  0  0  0  0  0  0
   15.2029   15.3275   10.8810 C   0  0  0  0  0  0  0  0  0  0  0  0
   13.2797   14.8853    9.5963 C   0  0  0  0  0  0  0  0  0  0  0  0
 15 12  1  0  0  0
 12 14  2  0  0  0
 12 16  1  0  0  0
 14 11  1  0  0  0
 11 13  1  0  0  0
 11 10  2  0  0  0
  9 10  1  0  0  0
  9  8  1  0  0  0
  9 16  2  0  0  0
 16  7  1  0  0  0
  7  6  1  0  0  0
  6  2  1  0  0  0
  2  3  2  0  0  0
  2  4  1  0  0  0
  4  1  1  0  0  0
  1 39  1  0  0  0
  1 19  1  0  0  0
 39 40  1  0  0  0
 40 42  2  0  0  0
 40 43  1  0  0  0
 42 44  1  0  0  0
 44 41  2  0  0  0
 41 45  1  0  0  0
 45 43  2  0  0  0
 19 20  1  0  0  0
 19 22  1  0  0  0
 22 23  2  0  0  0
 22 24  1  0  0  0
 24 27  1  0  0  0
 24 25  1  0  0  0
 27 30  1  0  0  0
 30 26  1  0  0  0
 26 29  1  0  0  0
 26 28  1  0  0  0
 26 25  1  0  0  0
 25 31  1  0  0  0
 31 32  2  0  0  0
 31 33  1  0  0  0
 33 35  1  0  0  0
 35 36  1  0  0  0
 36 37  1  0  0  0
 36 38  2  0  0  0
 13 17  1  0  0  0
 13 18  1  0  0  0
  4  5  1  0  0  0
 20 21  1  0  0  0
 33 34  1  0  0  0
M  END
> <minimizedAffinity>
-8.35006

$$$$
3A2O_KNJ_B_999


 45 47  0  0  0  0  0  0  0  0999 V2000
   12.1184   17.2381   12.5932 C   0  0  0  0  0  0  0  0  0  0  0  0
   13.0257   19.1571   13.7715 C   0  0  0  0  0  0  0  0  0  0  0  0
   13.8224   19.4368   12.8611 O   0  0  0  0  0  0  0  0  0  0  0  0
   12.1627   18.1459   13.7160 N   0  0  0  0  0  0  0  0  0  0  0  0
   11.5353   18.0123   14.4628 H   0  0  0  0  0  0  0  0  0  0  0  0
   13.0481   20.0421   15.0252 C   0  0  0  0  0  0  0  0  0  0  0  0
   14.2801   19.8705   15.6970 O   0  0  0  0  0  0  0  0  0  0  0  0
   15.8240   21.8888   14.4070 C   0  0  0  0  0  0  0  0  0  0  0  0
   15.3782   22.0001   15.8319 C   0  0  0  0  0  0  0  0  0  0  0  0
   15.7076   23.1146   16.6141 C   0  0  0  0  0  0  0  0  0  0  0  0
   15.3242   23.2549   17.9313 C   0  0  0  0  0  0  0  0  0  0  0  0
   14.2273   21.0701   17.7478 C   0  0  0  0  0  0  0  0  0  0  0  0
   15.6565   24.3497   18.6586 N   0  0  0  0  0  0  0  0  0  0  0  0
   14.5818   22.2094   18.4722 C   0  0  0  0  0  0  0  0  0  0  0  0
   13.4136   19.9964   18.4116 C   0  0  0  0  0  0  0  0  0  0  0  0
   14.6374   20.9922   16.4016 C   0  0  0  0  0  0  0  0  0  0  0  0
   15.3689   24.4229   19.5973 H   0  0  0  0  0  0  0  0  0  0  0  0
   16.1853   25.0715   18.2480 H   0  0  0  0  0  0  0  0  0  0  0  0
   10.6494   16.8671   12.2607 C   0  0  0  0  0  0  0  0  0  0  0  0
   10.0039   17.9892   11.7452 O   0  0  0  0  0  0  0  0  0  0  0  0
   10.0233   18.7033   12.4013 H   0  0  0  0  0  0  0  0  0  0  0  0
    9.9601   16.3411   13.5058 C   0  0  0  0  0  0  0  0  0  0  0  0
    9.6674   17.0980   14.4427 O   0  0  0  0  0  0  0  0  0  0  0  0
    9.7239   15.0290   13.5895 N   0  0  0  0  0  0  0  0  0  0  0  0
    9.0802   14.4820   14.7904 C   0  0  0  0  0  0  0  0  0  0  0  0
    8.4929   13.1140   14.3521 C   0  0  0  0  0  0  0  0  0  0  0  0
   10.0042   14.0565   12.5151 C   0  0  0  0  0  0  0  0  0  0  0  0
    8.2667   12.1744   15.5142 C   0  0  0  0  0  0  0  0  0  0  0  0
    7.1811   13.3694   13.5906 C   0  0  0  0  0  0  0  0  0  0  0  0
    9.7525   12.4399   13.2355 S   0  0  0  0  0  0  0  0  0  0  0  0
   10.0891   14.4320   15.9343 C   0  0  0  0  0  0  0  0  0  0  0  0
   11.0808   13.7041   15.8907 O   0  0  0  0  0  0  0  0  0  0  0  0
    9.8319   15.2569   16.9452 N   0  0  0  0  0  0  0  0  0  0  0  0
    9.0176   15.8089   16.9079 H   0  0  0  0  0  0  0  0  0  0  0  0
   10.7133   15.3793   18.1173 C   0  0  0  0  0  0  0  0  0  0  0  0
   10.6313   16.7793   18.6869 C   0  0  0  0  0  0  0  0  0  0  0  0
   10.7144   16.9077   20.1685 C   0  0  0  0  0  0  0  0  0  0  0  0
   10.4857   17.8308   17.8390 C   0  0  0  0  0  0  0  0  0  0  0  0
   12.9806   16.0038   12.8549 C   0  0  0  0  0  0  0  0  0  0  0  0
   13.8000   15.6324   11.6598 C   0  0  0  0  0  0  0  0  0  0  0  0
   15.2989   14.7536    9.4792 C   0  0  0  0  0  0  0  0  0  0  0  0
   15.2131   15.5773   11.7229 C   0  0  0  0  0  0  0  0  0  0  0  0
   13.1653   15.2761   10.4764 C   0  0  0  0  0  0  0  0  0  0  0  0
   15.9365   15.1481   10.6214 C   0  0  0  0  0  0  0  0  0  0  0  0
   13.9539   14.8281    9.3920 C   0  0  0  0  0  0  0  0  0  0  0  0
 15 12  1  0  0  0
 12 14  2  0  0  0
 12 16  1  0  0  0
 14 11  1  0  0  0
 11 13  1  0  0  0
 11 10  2  0  0  0
  9 10  1  0  0  0
  9  8  1  0  0  0
  9 16  2  0  0  0
 16  7  1  0  0  0
  7  6  1  0  0  0
  6  2  1  0  0  0
  2  3  2  0  0  0
  2  4  1  0  0  0
  4  1  1  0  0  0
  1 39  1  0  0  0
  1 19  1  0  0  0
 39 40  1  0  0  0
 40 42  2  0  0  0
 40 43  1  0  0  0
 42 44  1  0  0  0
 44 41  2  0  0  0
 41 45  1  0  0  0
 45 43  2  0  0  0
 19 20  1  0  0  0
 19 22  1  0  0  0
 22 23  2  0  0  0
 22 24  1  0  0  0
 24 27  1  0  0  0
 24 25  1  0  0  0
 27 30  1  0  0  0
 30 26  1  0  0  0
 26 29  1  0  0  0
 26 28  1  0  0  0
 26 25  1  0  0  0
 25 31  1  0  0  0
 31 32  2  0  0  0
 31 33  1  0  0  0
 33 35  1  0  0  0
 35 36  1  0  0  0
 36 37  1  0  0  0
 36 38  2  0  0  0
 13 17  1  0  0  0
 13 18  1  0  0  0
  4  5  1  0  0  0
 20 21  1  0  0  0
 33 34  1  0  0  0
M  END
> <minimizedAffinity>
-8.28135

$$$$
