5F60_5VZ_A_201


 40 43  0  0  0  0  0  0  0  0999 V2000
   12.8068   39.2359   79.1986 C   0  0  0  0  0  0  0  0  0  0  0  0
   14.9521   40.2899   79.1544 C   0  0  0  0  0  0  0  0  0  0  0  0
   14.4947   38.4922   77.7068 C   0  0  0  0  0  0  0  0  0  0  0  0
   13.6654   40.2275   79.7196 C   0  0  0  0  0  0  0  0  0  0  0  0
   13.2380   41.1791   80.7819 C   0  0  0  0  0  0  0  0  0  0  0  0
   15.3254   39.4471   78.1717 N   0  0  0  0  0  0  0  0  0  0  0  0
   13.2590   38.3913   78.2406 N   0  0  0  0  0  0  0  0  0  0  0  0
   11.5441   39.0896   79.6785 N   0  0  0  0  0  0  0  0  0  0  0  0
   11.3174   39.6182   80.4775 H   0  0  0  0  0  0  0  0  0  0  0  0
    9.2569   37.5558   77.2603 C   0  0  0  0  0  0  0  0  0  0  0  0
   10.5507   38.2908   79.1778 C   0  0  0  0  0  0  0  0  0  0  0  0
    7.3829   35.6329   77.3671 Cl  0  0  0  0  0  0  0  0  0  0  0  0
    8.5697   36.6347   78.0616 C   0  0  0  0  0  0  0  0  0  0  0  0
    8.8777   36.5107   79.4308 C   0  0  0  0  0  0  0  0  0  0  0  0
    9.8678   37.3441   79.9578 C   0  0  0  0  0  0  0  0  0  0  0  0
   10.2477   38.3847   77.8121 C   0  0  0  0  0  0  0  0  0  0  0  0
    8.1943   35.6079   80.2104 N   0  0  0  0  0  0  0  0  0  0  0  0
    8.2820   34.6586   79.9647 H   0  0  0  0  0  0  0  0  0  0  0  0
    7.2176   35.9570   81.5486 S   0  0  0  0  0  0  0  0  0  0  0  0
    6.1626   36.9843   81.0687 O   0  0  0  0  0  0  0  0  0  0  0  0
    8.1094   36.4672   82.7180 O   0  0  0  0  0  0  0  0  0  0  0  0
    6.3870   34.4190   82.0536 C   0  0  0  0  0  0  0  0  0  0  0  0
    7.2693   33.2615   81.5442 C   0  0  0  0  0  0  0  0  0  0  0  0
    6.2869   34.3922   83.5964 C   0  0  0  0  0  0  0  0  0  0  0  0
    4.9775   34.3405   81.4162 C   0  0  0  0  0  0  0  0  0  0  0  0
   14.9195   37.6609   76.7290 N   0  0  0  0  0  0  0  0  0  0  0  0
   15.7872   37.9159   76.3400 H   0  0  0  0  0  0  0  0  0  0  0  0
   14.3803   36.5418   76.1796 C   0  0  0  0  0  0  0  0  0  0  0  0
   12.7272   34.7669   75.8934 C   0  0  0  0  0  0  0  0  0  0  0  0
   13.1735   35.9429   76.5546 C   0  0  0  0  0  0  0  0  0  0  0  0
   13.4984   34.1463   74.8828 C   0  0  0  0  0  0  0  0  0  0  0  0
   14.7169   34.7459   74.5325 C   0  0  0  0  0  0  0  0  0  0  0  0
   15.1545   35.9118   75.1740 C   0  0  0  0  0  0  0  0  0  0  0  0
   13.0603   33.0004   74.2408 N   0  0  0  0  0  0  0  0  0  0  0  0
   11.8629   32.3398   74.7365 C   0  0  0  0  0  0  0  0  0  0  0  0
   11.4144   31.0831   73.9438 C   0  0  0  0  0  0  0  0  0  0  0  0
   12.3923   30.7269   72.8811 N   0  0  0  0  0  0  0  0  0  0  0  0
   12.0750   29.4446   72.2016 C   0  0  0  0  0  0  0  0  0  0  0  0
   13.7661   30.7265   73.4320 C   0  0  0  0  0  0  0  0  0  0  0  0
   14.1503   32.1788   73.7645 C   0  0  0  0  0  0  0  0  0  0  0  0
 10 13  2  0  0  0
 10 16  1  0  0  0
 11 15  1  0  0  0
 11 16  2  0  0  0
 11  8  1  0  0  0
  1  8  1  0  0  0
  1  4  2  0  0  0
  1  7  1  0  0  0
  2  4  1  0  0  0
  2  6  2  0  0  0
  3  6  1  0  0  0
  3 26  1  0  0  0
  3  7  2  0  0  0
 28 26  1  0  0  0
 28 30  2  0  0  0
 28 33  1  0  0  0
 29 30  1  0  0  0
 29 31  2  0  0  0
 12 13  1  0  0  0
 13 14  1  0  0  0
 14 17  1  0  0  0
 14 15  2  0  0  0
 17 19  1  0  0  0
 19 22  1  0  0  0
 19 20  2  0  0  0
 19 21  2  0  0  0
 22 23  1  0  0  0
 22 24  1  0  0  0
 22 25  1  0  0  0
  4  5  1  0  0  0
 31 34  1  0  0  0
 31 32  1  0  0  0
 34 35  1  0  0  0
 34 40  1  0  0  0
 35 36  1  0  0  0
 36 37  1  0  0  0
 37 38  1  0  0  0
 37 39  1  0  0  0
 39 40  1  0  0  0
 32 33  2  0  0  0
 17 18  1  0  0  0
  8  9  1  0  0  0
 26 27  1  0  0  0
M  END
> <minimizedAffinity>
-9.01565

$$$$
5F60_5VZ_A_201


 40 43  0  0  0  0  0  0  0  0999 V2000
   12.7579   38.9659   79.0400 C   0  0  0  0  0  0  0  0  0  0  0  0
   15.0398   39.6776   79.0812 C   0  0  0  0  0  0  0  0  0  0  0  0
   14.4091   37.8239   77.7762 C   0  0  0  0  0  0  0  0  0  0  0  0
   13.7226   39.8684   79.5368 C   0  0  0  0  0  0  0  0  0  0  0  0
   13.3759   40.9809   80.4635 C   0  0  0  0  0  0  0  0  0  0  0  0
   15.3445   38.6886   78.2185 N   0  0  0  0  0  0  0  0  0  0  0  0
   13.1384   37.9659   78.2088 N   0  0  0  0  0  0  0  0  0  0  0  0
   11.4572   39.0614   79.4211 N   0  0  0  0  0  0  0  0  0  0  0  0
   11.2330   39.8073   80.0232 H   0  0  0  0  0  0  0  0  0  0  0  0
    9.1916   37.1097   77.3023 C   0  0  0  0  0  0  0  0  0  0  0  0
   10.4225   38.2386   79.0634 C   0  0  0  0  0  0  0  0  0  0  0  0
    7.1258   35.4498   77.7472 Cl  0  0  0  0  0  0  0  0  0  0  0  0
    8.3604   36.5048   78.2541 C   0  0  0  0  0  0  0  0  0  0  0  0
    8.5611   36.7395   79.6288 C   0  0  0  0  0  0  0  0  0  0  0  0
    9.5944   37.6029   80.0021 C   0  0  0  0  0  0  0  0  0  0  0  0
   10.2234   37.9757   77.7006 C   0  0  0  0  0  0  0  0  0  0  0  0
    7.7371   36.1457   80.5553 N   0  0  0  0  0  0  0  0  0  0  0  0
    6.7986   36.0130   80.2892 H   0  0  0  0  0  0  0  0  0  0  0  0
    8.1668   35.6187   82.1059 S   0  0  0  0  0  0  0  0  0  0  0  0
    8.5217   36.8873   82.9203 O   0  0  0  0  0  0  0  0  0  0  0  0
    9.3318   34.5921   81.9965 O   0  0  0  0  0  0  0  0  0  0  0  0
    6.7164   34.8049   82.8438 C   0  0  0  0  0  0  0  0  0  0  0  0
    5.5112   35.7237   82.5591 C   0  0  0  0  0  0  0  0  0  0  0  0
    6.5243   33.4264   82.1702 C   0  0  0  0  0  0  0  0  0  0  0  0
    6.9172   34.6403   84.3709 C   0  0  0  0  0  0  0  0  0  0  0  0
   14.7661   36.8391   76.9218 N   0  0  0  0  0  0  0  0  0  0  0  0
   14.9561   35.9798   77.3631 H   0  0  0  0  0  0  0  0  0  0  0  0
   14.9132   36.8062   75.5719 C   0  0  0  0  0  0  0  0  0  0  0  0
   14.4770   37.4623   73.2601 C   0  0  0  0  0  0  0  0  0  0  0  0
   14.2256   37.6036   74.6515 C   0  0  0  0  0  0  0  0  0  0  0  0
   15.3814   36.4939   72.7645 C   0  0  0  0  0  0  0  0  0  0  0  0
   16.0473   35.6863   73.6980 C   0  0  0  0  0  0  0  0  0  0  0  0
   15.8108   35.8309   75.0712 C   0  0  0  0  0  0  0  0  0  0  0  0
   15.6238   36.3590   71.4080 N   0  0  0  0  0  0  0  0  0  0  0  0
   17.0033   36.3106   70.9491 C   0  0  0  0  0  0  0  0  0  0  0  0
   17.1945   36.1223   69.4205 C   0  0  0  0  0  0  0  0  0  0  0  0
   15.8949   36.1504   68.6974 N   0  0  0  0  0  0  0  0  0  0  0  0
   16.0479   36.1253   67.2201 C   0  0  0  0  0  0  0  0  0  0  0  0
   15.0892   37.3097   69.1423 C   0  0  0  0  0  0  0  0  0  0  0  0
   14.6551   37.0623   70.5975 C   0  0  0  0  0  0  0  0  0  0  0  0
 10 13  2  0  0  0
 10 16  1  0  0  0
 11 15  1  0  0  0
 11 16  2  0  0  0
 11  8  1  0  0  0
  1  8  1  0  0  0
  1  4  2  0  0  0
  1  7  1  0  0  0
  2  4  1  0  0  0
  2  6  2  0  0  0
  3  6  1  0  0  0
  3 26  1  0  0  0
  3  7  2  0  0  0
 28 26  1  0  0  0
 28 30  2  0  0  0
 28 33  1  0  0  0
 29 30  1  0  0  0
 29 31  2  0  0  0
 12 13  1  0  0  0
 13 14  1  0  0  0
 14 17  1  0  0  0
 14 15  2  0  0  0
 17 19  1  0  0  0
 19 22  1  0  0  0
 19 20  2  0  0  0
 19 21  2  0  0  0
 22 23  1  0  0  0
 22 24  1  0  0  0
 22 25  1  0  0  0
  4  5  1  0  0  0
 31 34  1  0  0  0
 31 32  1  0  0  0
 34 35  1  0  0  0
 34 40  1  0  0  0
 35 36  1  0  0  0
 36 37  1  0  0  0
 37 38  1  0  0  0
 37 39  1  0  0  0
 39 40  1  0  0  0
 32 33  2  0  0  0
 17 18  1  0  0  0
  8  9  1  0  0  0
 26 27  1  0  0  0
M  END
> <minimizedAffinity>
-8.95660

$$$$
5F60_5VZ_A_201


 40 43  0  0  0  0  0  0  0  0999 V2000
   12.7241   38.9050   79.2115 C   0  0  0  0  0  0  0  0  0  0  0  0
   14.9164   39.8397   79.0240 C   0  0  0  0  0  0  0  0  0  0  0  0
   14.4040   37.8154   77.9394 C   0  0  0  0  0  0  0  0  0  0  0  0
   13.6175   39.9422   79.5545 C   0  0  0  0  0  0  0  0  0  0  0  0
   13.2143   41.0993   80.4003 C   0  0  0  0  0  0  0  0  0  0  0  0
   15.2690   38.8070   78.2338 N   0  0  0  0  0  0  0  0  0  0  0  0
   13.1549   37.8720   78.4481 N   0  0  0  0  0  0  0  0  0  0  0  0
   11.4470   38.9076   79.6753 N   0  0  0  0  0  0  0  0  0  0  0  0
   11.2285   39.5934   80.3471 H   0  0  0  0  0  0  0  0  0  0  0  0
    8.6761   36.5304   79.9951 C   0  0  0  0  0  0  0  0  0  0  0  0
   10.4288   38.0655   79.3151 C   0  0  0  0  0  0  0  0  0  0  0  0
    6.9740   35.3492   78.2839 Cl  0  0  0  0  0  0  0  0  0  0  0  0
    8.2820   36.3697   78.6603 C   0  0  0  0  0  0  0  0  0  0  0  0
    8.9412   37.0722   77.6322 C   0  0  0  0  0  0  0  0  0  0  0  0
   10.0022   37.9095   77.9866 C   0  0  0  0  0  0  0  0  0  0  0  0
    9.7468   37.3765   80.3280 C   0  0  0  0  0  0  0  0  0  0  0  0
    8.5511   36.9041   76.3248 N   0  0  0  0  0  0  0  0  0  0  0  0
    7.6547   37.2341   76.0866 H   0  0  0  0  0  0  0  0  0  0  0  0
    9.4503   36.1891   75.0811 S   0  0  0  0  0  0  0  0  0  0  0  0
    8.5520   35.0891   74.4635 O   0  0  0  0  0  0  0  0  0  0  0  0
   10.7944   35.6565   75.6580 O   0  0  0  0  0  0  0  0  0  0  0  0
    9.7968   37.4669   73.8330 C   0  0  0  0  0  0  0  0  0  0  0  0
   10.6074   36.7762   72.7177 C   0  0  0  0  0  0  0  0  0  0  0  0
    8.4538   38.0004   73.2826 C   0  0  0  0  0  0  0  0  0  0  0  0
   10.6214   38.6171   74.4626 C   0  0  0  0  0  0  0  0  0  0  0  0
   14.8085   36.7928   77.1532 N   0  0  0  0  0  0  0  0  0  0  0  0
   15.0284   35.9722   77.6507 H   0  0  0  0  0  0  0  0  0  0  0  0
   14.9702   36.6790   75.8094 C   0  0  0  0  0  0  0  0  0  0  0  0
   15.9491   35.8255   73.7410 C   0  0  0  0  0  0  0  0  0  0  0  0
   15.8845   35.8432   75.1604 C   0  0  0  0  0  0  0  0  0  0  0  0
   15.1372   36.6730   72.9511 C   0  0  0  0  0  0  0  0  0  0  0  0
   14.2406   37.5217   73.6164 C   0  0  0  0  0  0  0  0  0  0  0  0
   14.1658   37.5333   75.0152 C   0  0  0  0  0  0  0  0  0  0  0  0
   15.2030   36.6531   71.5681 N   0  0  0  0  0  0  0  0  0  0  0  0
   16.5057   36.5165   70.9355 C   0  0  0  0  0  0  0  0  0  0  0  0
   16.4949   36.4661   69.3843 C   0  0  0  0  0  0  0  0  0  0  0  0
   15.1307   36.6945   68.8374 N   0  0  0  0  0  0  0  0  0  0  0  0
   15.1062   36.8041   67.3562 C   0  0  0  0  0  0  0  0  0  0  0  0
   14.5146   37.8761   69.4817 C   0  0  0  0  0  0  0  0  0  0  0  0
   14.2291   37.5264   70.9526 C   0  0  0  0  0  0  0  0  0  0  0  0
 10 13  2  0  0  0
 10 16  1  0  0  0
 11 15  1  0  0  0
 11 16  2  0  0  0
 11  8  1  0  0  0
  1  8  1  0  0  0
  1  4  2  0  0  0
  1  7  1  0  0  0
  2  4  1  0  0  0
  2  6  2  0  0  0
  3  6  1  0  0  0
  3 26  1  0  0  0
  3  7  2  0  0  0
 28 26  1  0  0  0
 28 30  2  0  0  0
 28 33  1  0  0  0
 29 30  1  0  0  0
 29 31  2  0  0  0
 12 13  1  0  0  0
 13 14  1  0  0  0
 14 17  1  0  0  0
 14 15  2  0  0  0
 17 19  1  0  0  0
 19 22  1  0  0  0
 19 20  2  0  0  0
 19 21  2  0  0  0
 22 23  1  0  0  0
 22 24  1  0  0  0
 22 25  1  0  0  0
  4  5  1  0  0  0
 31 34  1  0  0  0
 31 32  1  0  0  0
 34 35  1  0  0  0
 34 40  1  0  0  0
 35 36  1  0  0  0
 36 37  1  0  0  0
 37 38  1  0  0  0
 37 39  1  0  0  0
 39 40  1  0  0  0
 32 33  2  0  0  0
 17 18  1  0  0  0
  8  9  1  0  0  0
 26 27  1  0  0  0
M  END
> <minimizedAffinity>
-8.81990

$$$$
5F60_5VZ_A_201


 40 43  0  0  0  0  0  0  0  0999 V2000
   12.7239   38.8893   79.0644 C   0  0  0  0  0  0  0  0  0  0  0  0
   14.8571   39.9654   79.1456 C   0  0  0  0  0  0  0  0  0  0  0  0
   14.6021   37.9469   77.9635 C   0  0  0  0  0  0  0  0  0  0  0  0
   13.5037   39.9698   79.5294 C   0  0  0  0  0  0  0  0  0  0  0  0
   12.9343   41.0728   80.3515 C   0  0  0  0  0  0  0  0  0  0  0  0
   15.3620   38.9816   78.3760 N   0  0  0  0  0  0  0  0  0  0  0  0
   13.3035   37.9093   78.3302 N   0  0  0  0  0  0  0  0  0  0  0  0
   11.4060   38.7974   79.3821 N   0  0  0  0  0  0  0  0  0  0  0  0
   11.1155   39.2895   80.1838 H   0  0  0  0  0  0  0  0  0  0  0  0
    9.4126   37.4849   76.6010 C   0  0  0  0  0  0  0  0  0  0  0  0
   10.4356   38.0985   78.7147 C   0  0  0  0  0  0  0  0  0  0  0  0
    7.3659   35.7585   76.3740 Cl  0  0  0  0  0  0  0  0  0  0  0  0
    8.5138   36.6413   77.2668 C   0  0  0  0  0  0  0  0  0  0  0  0
    8.5759   36.4951   78.6668 C   0  0  0  0  0  0  0  0  0  0  0  0
    9.5421   37.2289   79.3600 C   0  0  0  0  0  0  0  0  0  0  0  0
   10.3749   38.2143   77.3187 C   0  0  0  0  0  0  0  0  0  0  0  0
    7.6864   35.6692   79.3121 N   0  0  0  0  0  0  0  0  0  0  0  0
    7.6588   34.7317   79.0127 H   0  0  0  0  0  0  0  0  0  0  0  0
    6.6333   36.0948   80.5676 S   0  0  0  0  0  0  0  0  0  0  0  0
    5.2460   35.5158   80.1950 O   0  0  0  0  0  0  0  0  0  0  0  0
    6.6446   37.6409   80.7475 O   0  0  0  0  0  0  0  0  0  0  0  0
    7.2335   35.3080   82.0945 C   0  0  0  0  0  0  0  0  0  0  0  0
    7.6993   33.8921   81.6992 C   0  0  0  0  0  0  0  0  0  0  0  0
    8.4148   36.1374   82.6491 C   0  0  0  0  0  0  0  0  0  0  0  0
    6.0905   35.2259   83.1366 C   0  0  0  0  0  0  0  0  0  0  0  0
   15.1574   36.9762   77.2040 N   0  0  0  0  0  0  0  0  0  0  0  0
   15.6996   36.3330   77.7154 H   0  0  0  0  0  0  0  0  0  0  0  0
   15.1117   36.7171   75.8714 C   0  0  0  0  0  0  0  0  0  0  0  0
   15.7016   35.5722   73.7963 C   0  0  0  0  0  0  0  0  0  0  0  0
   15.8456   35.7336   75.2008 C   0  0  0  0  0  0  0  0  0  0  0  0
   14.8610   36.4178   73.0350 C   0  0  0  0  0  0  0  0  0  0  0  0
   14.1481   37.4139   73.7179 C   0  0  0  0  0  0  0  0  0  0  0  0
   14.2784   37.5683   75.1041 C   0  0  0  0  0  0  0  0  0  0  0  0
   14.7234   36.2576   71.6665 N   0  0  0  0  0  0  0  0  0  0  0  0
   15.5041   37.1107   70.7842 C   0  0  0  0  0  0  0  0  0  0  0  0
   15.3229   36.8477   69.2654 C   0  0  0  0  0  0  0  0  0  0  0  0
   14.2691   35.8303   69.0066 N   0  0  0  0  0  0  0  0  0  0  0  0
   13.9614   35.6623   67.5631 C   0  0  0  0  0  0  0  0  0  0  0  0
   13.0534   36.1454   69.7900 C   0  0  0  0  0  0  0  0  0  0  0  0
   13.3711   35.9240   71.2791 C   0  0  0  0  0  0  0  0  0  0  0  0
 10 13  2  0  0  0
 10 16  1  0  0  0
 11 15  1  0  0  0
 11 16  2  0  0  0
 11  8  1  0  0  0
  1  8  1  0  0  0
  1  4  2  0  0  0
  1  7  1  0  0  0
  2  4  1  0  0  0
  2  6  2  0  0  0
  3  6  1  0  0  0
  3 26  1  0  0  0
  3  7  2  0  0  0
 28 26  1  0  0  0
 28 30  2  0  0  0
 28 33  1  0  0  0
 29 30  1  0  0  0
 29 31  2  0  0  0
 12 13  1  0  0  0
 13 14  1  0  0  0
 14 17  1  0  0  0
 14 15  2  0  0  0
 17 19  1  0  0  0
 19 22  1  0  0  0
 19 20  2  0  0  0
 19 21  2  0  0  0
 22 23  1  0  0  0
 22 24  1  0  0  0
 22 25  1  0  0  0
  4  5  1  0  0  0
 31 34  1  0  0  0
 31 32  1  0  0  0
 34 35  1  0  0  0
 34 40  1  0  0  0
 35 36  1  0  0  0
 36 37  1  0  0  0
 37 38  1  0  0  0
 37 39  1  0  0  0
 39 40  1  0  0  0
 32 33  2  0  0  0
 17 18  1  0  0  0
  8  9  1  0  0  0
 26 27  1  0  0  0
M  END
> <minimizedAffinity>
-8.81943

$$$$
5F60_5VZ_A_201


 40 43  0  0  0  0  0  0  0  0999 V2000
    8.3808   35.4971   74.6398 C   0  0  0  0  0  0  0  0  0  0  0  0
    9.0146   37.5214   73.5372 C   0  0  0  0  0  0  0  0  0  0  0  0
   10.5300   36.4427   74.9784 C   0  0  0  0  0  0  0  0  0  0  0  0
    8.0269   36.5458   73.7641 C   0  0  0  0  0  0  0  0  0  0  0  0
    6.7020   36.6117   73.0881 C   0  0  0  0  0  0  0  0  0  0  0  0
   10.2236   37.4421   74.1266 N   0  0  0  0  0  0  0  0  0  0  0  0
    9.5983   35.5001   75.2342 N   0  0  0  0  0  0  0  0  0  0  0  0
    7.4971   34.5063   74.9287 N   0  0  0  0  0  0  0  0  0  0  0  0
    7.2399   33.9198   74.1810 H   0  0  0  0  0  0  0  0  0  0  0  0
    5.9003   32.6021   77.6224 C   0  0  0  0  0  0  0  0  0  0  0  0
    6.9233   34.2302   76.1412 C   0  0  0  0  0  0  0  0  0  0  0  0
    5.1201   33.1471   80.1353 Cl  0  0  0  0  0  0  0  0  0  0  0  0
    5.7947   33.5682   78.6314 C   0  0  0  0  0  0  0  0  0  0  0  0
    6.2725   34.8766   78.4194 C   0  0  0  0  0  0  0  0  0  0  0  0
    6.8307   35.1766   77.1741 C   0  0  0  0  0  0  0  0  0  0  0  0
    6.4638   32.9267   76.3773 C   0  0  0  0  0  0  0  0  0  0  0  0
    6.1596   35.8194   79.4135 N   0  0  0  0  0  0  0  0  0  0  0  0
    5.2460   36.0762   79.6754 H   0  0  0  0  0  0  0  0  0  0  0  0
    7.4268   36.5854   80.2347 S   0  0  0  0  0  0  0  0  0  0  0  0
    6.9263   38.0073   80.5899 O   0  0  0  0  0  0  0  0  0  0  0  0
    8.7025   36.5694   79.3429 O   0  0  0  0  0  0  0  0  0  0  0  0
    7.7503   35.6522   81.7628 C   0  0  0  0  0  0  0  0  0  0  0  0
    8.8248   36.4435   82.5356 C   0  0  0  0  0  0  0  0  0  0  0  0
    6.4402   35.5675   82.5797 C   0  0  0  0  0  0  0  0  0  0  0  0
    8.2702   34.2337   81.4209 C   0  0  0  0  0  0  0  0  0  0  0  0
   11.7517   36.4137   75.5562 N   0  0  0  0  0  0  0  0  0  0  0  0
   12.3181   35.6686   75.2506 H   0  0  0  0  0  0  0  0  0  0  0  0
   12.3489   37.2140   76.4770 C   0  0  0  0  0  0  0  0  0  0  0  0
   14.1753   38.4847   77.4842 C   0  0  0  0  0  0  0  0  0  0  0  0
   13.6782   37.6473   76.4493 C   0  0  0  0  0  0  0  0  0  0  0  0
   13.3693   38.8630   78.5835 C   0  0  0  0  0  0  0  0  0  0  0  0
   12.0447   38.4028   78.6092 C   0  0  0  0  0  0  0  0  0  0  0  0
   11.5477   37.5869   77.5846 C   0  0  0  0  0  0  0  0  0  0  0  0
   13.8572   39.6790   79.5902 N   0  0  0  0  0  0  0  0  0  0  0  0
   12.9536   40.6358   80.2096 C   0  0  0  0  0  0  0  0  0  0  0  0
   13.5632   41.4893   81.3536 C   0  0  0  0  0  0  0  0  0  0  0  0
   15.0205   41.2356   81.5105 N   0  0  0  0  0  0  0  0  0  0  0  0
   15.6687   42.1426   82.4922 C   0  0  0  0  0  0  0  0  0  0  0  0
   15.6919   41.2896   80.1925 C   0  0  0  0  0  0  0  0  0  0  0  0
   15.2297   40.0753   79.3683 C   0  0  0  0  0  0  0  0  0  0  0  0
 10 13  2  0  0  0
 10 16  1  0  0  0
 11 15  1  0  0  0
 11 16  2  0  0  0
 11  8  1  0  0  0
  1  8  1  0  0  0
  1  4  2  0  0  0
  1  7  1  0  0  0
  2  4  1  0  0  0
  2  6  2  0  0  0
  3  6  1  0  0  0
  3 26  1  0  0  0
  3  7  2  0  0  0
 28 26  1  0  0  0
 28 30  2  0  0  0
 28 33  1  0  0  0
 29 30  1  0  0  0
 29 31  2  0  0  0
 12 13  1  0  0  0
 13 14  1  0  0  0
 14 17  1  0  0  0
 14 15  2  0  0  0
 17 19  1  0  0  0
 19 22  1  0  0  0
 19 20  2  0  0  0
 19 21  2  0  0  0
 22 23  1  0  0  0
 22 24  1  0  0  0
 22 25  1  0  0  0
  4  5  1  0  0  0
 31 34  1  0  0  0
 31 32  1  0  0  0
 34 35  1  0  0  0
 34 40  1  0  0  0
 35 36  1  0  0  0
 36 37  1  0  0  0
 37 38  1  0  0  0
 37 39  1  0  0  0
 39 40  1  0  0  0
 32 33  2  0  0  0
 17 18  1  0  0  0
  8  9  1  0  0  0
 26 27  1  0  0  0
M  END
> <minimizedAffinity>
-8.77485

$$$$
5F60_5VZ_A_201


 40 43  0  0  0  0  0  0  0  0999 V2000
   12.7455   39.1872   79.1188 C   0  0  0  0  0  0  0  0  0  0  0  0
   14.8871   40.2474   79.1870 C   0  0  0  0  0  0  0  0  0  0  0  0
   14.4999   38.4735   77.6903 C   0  0  0  0  0  0  0  0  0  0  0  0
   13.5771   40.1719   79.6938 C   0  0  0  0  0  0  0  0  0  0  0  0
   13.1001   41.1041   80.7523 C   0  0  0  0  0  0  0  0  0  0  0  0
   15.3061   39.4226   78.2075 N   0  0  0  0  0  0  0  0  0  0  0  0
   13.2422   38.3603   78.1675 N   0  0  0  0  0  0  0  0  0  0  0  0
   11.4635   39.0293   79.5401 N   0  0  0  0  0  0  0  0  0  0  0  0
   11.1841   39.5842   80.3039 H   0  0  0  0  0  0  0  0  0  0  0  0
    8.5205   36.8510   79.3811 C   0  0  0  0  0  0  0  0  0  0  0  0
   10.5154   38.1865   79.0239 C   0  0  0  0  0  0  0  0  0  0  0  0
    7.2581   35.4956   77.4343 Cl  0  0  0  0  0  0  0  0  0  0  0  0
    8.4946   36.5045   78.0239 C   0  0  0  0  0  0  0  0  0  0  0  0
    9.4667   37.0118   77.1393 C   0  0  0  0  0  0  0  0  0  0  0  0
   10.4570   37.8470   77.6628 C   0  0  0  0  0  0  0  0  0  0  0  0
    9.5267   37.6913   79.8858 C   0  0  0  0  0  0  0  0  0  0  0  0
    9.4364   36.6619   75.8101 N   0  0  0  0  0  0  0  0  0  0  0  0
    9.6247   35.7190   75.5984 H   0  0  0  0  0  0  0  0  0  0  0  0
    9.1094   37.6821   74.4991 S   0  0  0  0  0  0  0  0  0  0  0  0
    8.9135   39.1027   75.0838 O   0  0  0  0  0  0  0  0  0  0  0  0
    7.8727   37.1427   73.7228 O   0  0  0  0  0  0  0  0  0  0  0  0
   10.5605   37.6680   73.4015 C   0  0  0  0  0  0  0  0  0  0  0  0
   10.8158   36.1913   73.0381 C   0  0  0  0  0  0  0  0  0  0  0  0
   10.2337   38.4940   72.1358 C   0  0  0  0  0  0  0  0  0  0  0  0
   11.7893   38.2607   74.1350 C   0  0  0  0  0  0  0  0  0  0  0  0
   14.9700   37.6602   76.7182 N   0  0  0  0  0  0  0  0  0  0  0  0
   15.8469   37.9320   76.3625 H   0  0  0  0  0  0  0  0  0  0  0  0
   14.4662   36.5405   76.1374 C   0  0  0  0  0  0  0  0  0  0  0  0
   12.8612   34.7327   75.7894 C   0  0  0  0  0  0  0  0  0  0  0  0
   13.2692   35.9046   76.4819 C   0  0  0  0  0  0  0  0  0  0  0  0
   13.6617   34.1527   74.7775 C   0  0  0  0  0  0  0  0  0  0  0  0
   14.8701   34.7889   74.4579 C   0  0  0  0  0  0  0  0  0  0  0  0
   15.2698   35.9511   75.1302 C   0  0  0  0  0  0  0  0  0  0  0  0
   13.2610   33.0106   74.1050 N   0  0  0  0  0  0  0  0  0  0  0  0
   12.1009   32.2842   74.5975 C   0  0  0  0  0  0  0  0  0  0  0  0
   11.6918   31.0359   73.7710 C   0  0  0  0  0  0  0  0  0  0  0  0
   12.6653   30.7559   72.6818 N   0  0  0  0  0  0  0  0  0  0  0  0
   12.3903   29.4840   71.9655 C   0  0  0  0  0  0  0  0  0  0  0  0
   14.0472   30.7959   73.2107 C   0  0  0  0  0  0  0  0  0  0  0  0
   14.3760   32.2517   73.5847 C   0  0  0  0  0  0  0  0  0  0  0  0
 10 13  2  0  0  0
 10 16  1  0  0  0
 11 15  1  0  0  0
 11 16  2  0  0  0
 11  8  1  0  0  0
  1  8  1  0  0  0
  1  4  2  0  0  0
  1  7  1  0  0  0
  2  4  1  0  0  0
  2  6  2  0  0  0
  3  6  1  0  0  0
  3 26  1  0  0  0
  3  7  2  0  0  0
 28 26  1  0  0  0
 28 30  2  0  0  0
 28 33  1  0  0  0
 29 30  1  0  0  0
 29 31  2  0  0  0
 12 13  1  0  0  0
 13 14  1  0  0  0
 14 17  1  0  0  0
 14 15  2  0  0  0
 17 19  1  0  0  0
 19 22  1  0  0  0
 19 20  2  0  0  0
 19 21  2  0  0  0
 22 23  1  0  0  0
 22 24  1  0  0  0
 22 25  1  0  0  0
  4  5  1  0  0  0
 31 34  1  0  0  0
 31 32  1  0  0  0
 34 35  1  0  0  0
 34 40  1  0  0  0
 35 36  1  0  0  0
 36 37  1  0  0  0
 37 38  1  0  0  0
 37 39  1  0  0  0
 39 40  1  0  0  0
 32 33  2  0  0  0
 17 18  1  0  0  0
  8  9  1  0  0  0
 26 27  1  0  0  0
M  END
> <minimizedAffinity>
-8.72337

$$$$
5F60_5VZ_A_201


 40 43  0  0  0  0  0  0  0  0999 V2000
   13.8976   38.7348   78.3209 C   0  0  0  0  0  0  0  0  0  0  0  0
   13.2253   40.2908   80.0067 C   0  0  0  0  0  0  0  0  0  0  0  0
   11.6518   38.8055   79.0820 C   0  0  0  0  0  0  0  0  0  0  0  0
   14.2561   39.7831   79.1952 C   0  0  0  0  0  0  0  0  0  0  0  0
   15.6460   40.3089   79.2872 C   0  0  0  0  0  0  0  0  0  0  0  0
   11.9755   39.7917   79.9428 N   0  0  0  0  0  0  0  0  0  0  0  0
   12.6124   38.3085   78.2743 N   0  0  0  0  0  0  0  0  0  0  0  0
   14.8184   38.1771   77.4919 N   0  0  0  0  0  0  0  0  0  0  0  0
   15.7608   38.2720   77.7603 H   0  0  0  0  0  0  0  0  0  0  0  0
   15.1044   35.6083   74.8936 C   0  0  0  0  0  0  0  0  0  0  0  0
   14.5854   37.4981   76.3256 C   0  0  0  0  0  0  0  0  0  0  0  0
   13.8413   35.0933   72.5785 Cl  0  0  0  0  0  0  0  0  0  0  0  0
   14.1182   36.0113   73.9838 C   0  0  0  0  0  0  0  0  0  0  0  0
   13.3335   37.1528   74.2412 C   0  0  0  0  0  0  0  0  0  0  0  0
   13.5855   37.8705   75.4132 C   0  0  0  0  0  0  0  0  0  0  0  0
   15.3414   36.3463   76.0651 C   0  0  0  0  0  0  0  0  0  0  0  0
   12.3718   37.5436   73.3399 N   0  0  0  0  0  0  0  0  0  0  0  0
   12.6581   38.1645   72.6316 H   0  0  0  0  0  0  0  0  0  0  0  0
   10.7465   37.0693   73.3201 S   0  0  0  0  0  0  0  0  0  0  0  0
   10.6025   35.9443   74.3746 O   0  0  0  0  0  0  0  0  0  0  0  0
   10.3539   36.6364   71.8773 O   0  0  0  0  0  0  0  0  0  0  0  0
    9.7380   38.5014   73.8129 C   0  0  0  0  0  0  0  0  0  0  0  0
    9.8167   38.5792   75.3509 C   0  0  0  0  0  0  0  0  0  0  0  0
   10.3355   39.7743   73.1697 C   0  0  0  0  0  0  0  0  0  0  0  0
    8.2705   38.3009   73.3596 C   0  0  0  0  0  0  0  0  0  0  0  0
   10.3807   38.3470   79.0449 N   0  0  0  0  0  0  0  0  0  0  0  0
    9.9122   38.5431   78.2015 H   0  0  0  0  0  0  0  0  0  0  0  0
    9.6251   37.6680   79.9465 C   0  0  0  0  0  0  0  0  0  0  0  0
    9.1386   36.5493   82.0623 C   0  0  0  0  0  0  0  0  0  0  0  0
   10.0360   37.2581   81.2188 C   0  0  0  0  0  0  0  0  0  0  0  0
    7.8371   36.1989   81.6325 C   0  0  0  0  0  0  0  0  0  0  0  0
    7.4466   36.5974   80.3458 C   0  0  0  0  0  0  0  0  0  0  0  0
    8.3244   37.3067   79.5160 C   0  0  0  0  0  0  0  0  0  0  0  0
    6.9655   35.5080   82.4572 N   0  0  0  0  0  0  0  0  0  0  0  0
    7.4450   35.0568   83.7543 C   0  0  0  0  0  0  0  0  0  0  0  0
    6.4005   34.3216   84.6359 C   0  0  0  0  0  0  0  0  0  0  0  0
    5.1188   34.1141   83.9102 N   0  0  0  0  0  0  0  0  0  0  0  0
    4.1480   33.2817   84.6659 C   0  0  0  0  0  0  0  0  0  0  0  0
    5.3800   33.5591   82.5631 C   0  0  0  0  0  0  0  0  0  0  0  0
    6.0671   34.6478   81.7204 C   0  0  0  0  0  0  0  0  0  0  0  0
 10 13  2  0  0  0
 10 16  1  0  0  0
 11 15  1  0  0  0
 11 16  2  0  0  0
 11  8  1  0  0  0
  1  8  1  0  0  0
  1  4  2  0  0  0
  1  7  1  0  0  0
  2  4  1  0  0  0
  2  6  2  0  0  0
  3  6  1  0  0  0
  3 26  1  0  0  0
  3  7  2  0  0  0
 28 26  1  0  0  0
 28 30  2  0  0  0
 28 33  1  0  0  0
 29 30  1  0  0  0
 29 31  2  0  0  0
 12 13  1  0  0  0
 13 14  1  0  0  0
 14 17  1  0  0  0
 14 15  2  0  0  0
 17 19  1  0  0  0
 19 22  1  0  0  0
 19 20  2  0  0  0
 19 21  2  0  0  0
 22 23  1  0  0  0
 22 24  1  0  0  0
 22 25  1  0  0  0
  4  5  1  0  0  0
 31 34  1  0  0  0
 31 32  1  0  0  0
 34 35  1  0  0  0
 34 40  1  0  0  0
 35 36  1  0  0  0
 36 37  1  0  0  0
 37 38  1  0  0  0
 37 39  1  0  0  0
 39 40  1  0  0  0
 32 33  2  0  0  0
 17 18  1  0  0  0
  8  9  1  0  0  0
 26 27  1  0  0  0
M  END
> <minimizedAffinity>
-8.70084

$$$$
5F60_5VZ_A_201


 40 43  0  0  0  0  0  0  0  0999 V2000
   11.8065   38.1893   72.5386 C   0  0  0  0  0  0  0  0  0  0  0  0
    9.7811   37.2340   73.3753 C   0  0  0  0  0  0  0  0  0  0  0  0
   11.7139   37.2548   74.7171 C   0  0  0  0  0  0  0  0  0  0  0  0
   10.4507   37.8683   72.3132 C   0  0  0  0  0  0  0  0  0  0  0  0
    9.7488   38.2038   71.0438 C   0  0  0  0  0  0  0  0  0  0  0  0
   10.4110   36.9596   74.5342 N   0  0  0  0  0  0  0  0  0  0  0  0
   12.3923   37.8462   73.7109 N   0  0  0  0  0  0  0  0  0  0  0  0
   12.5444   38.8000   71.5749 N   0  0  0  0  0  0  0  0  0  0  0  0
   12.3771   39.7609   71.4410 H   0  0  0  0  0  0  0  0  0  0  0  0
   14.6281   38.1872   68.6229 C   0  0  0  0  0  0  0  0  0  0  0  0
   13.4943   38.2316   70.7685 C   0  0  0  0  0  0  0  0  0  0  0  0
   16.6655   36.5348   68.0405 Cl  0  0  0  0  0  0  0  0  0  0  0  0
   15.4690   37.1617   69.0747 C   0  0  0  0  0  0  0  0  0  0  0  0
   15.3510   36.6694   70.3895 C   0  0  0  0  0  0  0  0  0  0  0  0
   14.3633   37.2210   71.2096 C   0  0  0  0  0  0  0  0  0  0  0  0
   13.6408   38.7258   69.4646 C   0  0  0  0  0  0  0  0  0  0  0  0
   16.1770   35.6593   70.8222 N   0  0  0  0  0  0  0  0  0  0  0  0
   16.0403   34.7735   70.4149 H   0  0  0  0  0  0  0  0  0  0  0  0
   17.4045   35.7785   71.9822 S   0  0  0  0  0  0  0  0  0  0  0  0
   17.5574   37.2845   72.3095 O   0  0  0  0  0  0  0  0  0  0  0  0
   18.7011   35.1176   71.4298 O   0  0  0  0  0  0  0  0  0  0  0  0
   16.8603   34.8824   73.4693 C   0  0  0  0  0  0  0  0  0  0  0  0
   15.9453   33.7422   72.9787 C   0  0  0  0  0  0  0  0  0  0  0  0
   18.1048   34.3134   74.1894 C   0  0  0  0  0  0  0  0  0  0  0  0
   16.0769   35.8336   74.4078 C   0  0  0  0  0  0  0  0  0  0  0  0
   12.3060   36.9473   75.8928 N   0  0  0  0  0  0  0  0  0  0  0  0
   12.3550   35.9805   76.0720 H   0  0  0  0  0  0  0  0  0  0  0  0
   12.8462   37.7148   76.8747 C   0  0  0  0  0  0  0  0  0  0  0  0
   14.6115   38.9359   78.0399 C   0  0  0  0  0  0  0  0  0  0  0  0
   14.1784   38.1335   76.9500 C   0  0  0  0  0  0  0  0  0  0  0  0
   13.7357   39.2928   79.0920 C   0  0  0  0  0  0  0  0  0  0  0  0
   12.4082   38.8473   79.0141 C   0  0  0  0  0  0  0  0  0  0  0  0
   11.9747   38.0660   77.9352 C   0  0  0  0  0  0  0  0  0  0  0  0
   14.1613   40.0748   80.1525 N   0  0  0  0  0  0  0  0  0  0  0  0
   13.1917   40.9293   80.8200 C   0  0  0  0  0  0  0  0  0  0  0  0
   13.7354   41.7481   82.0211 C   0  0  0  0  0  0  0  0  0  0  0  0
   15.2051   41.5820   82.1780 N   0  0  0  0  0  0  0  0  0  0  0  0
   15.7848   42.4668   83.2209 C   0  0  0  0  0  0  0  0  0  0  0  0
   15.8805   41.7623   80.8733 C   0  0  0  0  0  0  0  0  0  0  0  0
   15.5058   40.5739   79.9706 C   0  0  0  0  0  0  0  0  0  0  0  0
 10 13  2  0  0  0
 10 16  1  0  0  0
 11 15  1  0  0  0
 11 16  2  0  0  0
 11  8  1  0  0  0
  1  8  1  0  0  0
  1  4  2  0  0  0
  1  7  1  0  0  0
  2  4  1  0  0  0
  2  6  2  0  0  0
  3  6  1  0  0  0
  3 26  1  0  0  0
  3  7  2  0  0  0
 28 26  1  0  0  0
 28 30  2  0  0  0
 28 33  1  0  0  0
 29 30  1  0  0  0
 29 31  2  0  0  0
 12 13  1  0  0  0
 13 14  1  0  0  0
 14 17  1  0  0  0
 14 15  2  0  0  0
 17 19  1  0  0  0
 19 22  1  0  0  0
 19 20  2  0  0  0
 19 21  2  0  0  0
 22 23  1  0  0  0
 22 24  1  0  0  0
 22 25  1  0  0  0
  4  5  1  0  0  0
 31 34  1  0  0  0
 31 32  1  0  0  0
 34 35  1  0  0  0
 34 40  1  0  0  0
 35 36  1  0  0  0
 36 37  1  0  0  0
 37 38  1  0  0  0
 37 39  1  0  0  0
 39 40  1  0  0  0
 32 33  2  0  0  0
 17 18  1  0  0  0
  8  9  1  0  0  0
 26 27  1  0  0  0
M  END
> <minimizedAffinity>
-8.66594

$$$$
5F60_5VZ_A_201


 40 43  0  0  0  0  0  0  0  0999 V2000
   13.0540   37.2826   77.1603 C   0  0  0  0  0  0  0  0  0  0  0  0
   13.9290   38.3153   79.1309 C   0  0  0  0  0  0  0  0  0  0  0  0
   11.6022   38.1800   78.8079 C   0  0  0  0  0  0  0  0  0  0  0  0
   14.1868   37.6703   77.9076 C   0  0  0  0  0  0  0  0  0  0  0  0
   15.5778   37.3913   77.4559 C   0  0  0  0  0  0  0  0  0  0  0  0
   12.6686   38.5387   79.5511 N   0  0  0  0  0  0  0  0  0  0  0  0
   11.8136   37.5765   77.6191 N   0  0  0  0  0  0  0  0  0  0  0  0
   13.1939   36.6563   75.9627 N   0  0  0  0  0  0  0  0  0  0  0  0
   13.2765   35.6757   75.9906 H   0  0  0  0  0  0  0  0  0  0  0  0
   14.4998   37.7327   72.7119 C   0  0  0  0  0  0  0  0  0  0  0  0
   13.2332   37.2332   74.7212 C   0  0  0  0  0  0  0  0  0  0  0  0
   13.4733   38.9871   70.5686 Cl  0  0  0  0  0  0  0  0  0  0  0  0
   13.3735   38.3359   72.1371 C   0  0  0  0  0  0  0  0  0  0  0  0
   12.1513   38.3777   72.8368 C   0  0  0  0  0  0  0  0  0  0  0  0
   12.1098   37.8200   74.1173 C   0  0  0  0  0  0  0  0  0  0  0  0
   14.4354   37.1797   74.0016 C   0  0  0  0  0  0  0  0  0  0  0  0
   11.0528   38.9765   72.2669 N   0  0  0  0  0  0  0  0  0  0  0  0
   11.0763   39.9577   72.1898 H   0  0  0  0  0  0  0  0  0  0  0  0
    9.6637   38.2038   71.6839 S   0  0  0  0  0  0  0  0  0  0  0  0
   10.0368   36.7133   71.4895 O   0  0  0  0  0  0  0  0  0  0  0  0
    9.1894   38.9111   70.3808 O   0  0  0  0  0  0  0  0  0  0  0  0
    8.3669   38.3485   72.9520 C   0  0  0  0  0  0  0  0  0  0  0  0
    8.4038   37.0372   73.7625 C   0  0  0  0  0  0  0  0  0  0  0  0
    8.6904   39.5599   73.8568 C   0  0  0  0  0  0  0  0  0  0  0  0
    6.9824   38.5261   72.2805 C   0  0  0  0  0  0  0  0  0  0  0  0
   10.3566   38.4379   79.2656 N   0  0  0  0  0  0  0  0  0  0  0  0
   10.0345   39.3434   79.0521 H   0  0  0  0  0  0  0  0  0  0  0  0
    9.4637   37.6889   79.9632 C   0  0  0  0  0  0  0  0  0  0  0  0
    7.3688   36.4944   80.3499 C   0  0  0  0  0  0  0  0  0  0  0  0
    8.2064   37.2771   79.5102 C   0  0  0  0  0  0  0  0  0  0  0  0
    7.7525   36.1512   81.6676 C   0  0  0  0  0  0  0  0  0  0  0  0
    9.0068   36.5898   82.1161 C   0  0  0  0  0  0  0  0  0  0  0  0
    9.8402   37.3515   81.2869 C   0  0  0  0  0  0  0  0  0  0  0  0
    6.9335   35.3885   82.4830 N   0  0  0  0  0  0  0  0  0  0  0  0
    7.4246   35.0026   83.7967 C   0  0  0  0  0  0  0  0  0  0  0  0
    6.4367   34.1795   84.6659 C   0  0  0  0  0  0  0  0  0  0  0  0
    5.1986   33.8385   83.9154 N   0  0  0  0  0  0  0  0  0  0  0  0
    4.2964   32.9244   84.6618 C   0  0  0  0  0  0  0  0  0  0  0  0
    5.5441   33.2951   82.5826 C   0  0  0  0  0  0  0  0  0  0  0  0
    6.1408   34.4353   81.7393 C   0  0  0  0  0  0  0  0  0  0  0  0
 10 13  2  0  0  0
 10 16  1  0  0  0
 11 15  1  0  0  0
 11 16  2  0  0  0
 11  8  1  0  0  0
  1  8  1  0  0  0
  1  4  2  0  0  0
  1  7  1  0  0  0
  2  4  1  0  0  0
  2  6  2  0  0  0
  3  6  1  0  0  0
  3 26  1  0  0  0
  3  7  2  0  0  0
 28 26  1  0  0  0
 28 30  2  0  0  0
 28 33  1  0  0  0
 29 30  1  0  0  0
 29 31  2  0  0  0
 12 13  1  0  0  0
 13 14  1  0  0  0
 14 17  1  0  0  0
 14 15  2  0  0  0
 17 19  1  0  0  0
 19 22  1  0  0  0
 19 20  2  0  0  0
 19 21  2  0  0  0
 22 23  1  0  0  0
 22 24  1  0  0  0
 22 25  1  0  0  0
  4  5  1  0  0  0
 31 34  1  0  0  0
 31 32  1  0  0  0
 34 35  1  0  0  0
 34 40  1  0  0  0
 35 36  1  0  0  0
 36 37  1  0  0  0
 37 38  1  0  0  0
 37 39  1  0  0  0
 39 40  1  0  0  0
 32 33  2  0  0  0
 17 18  1  0  0  0
  8  9  1  0  0  0
 26 27  1  0  0  0
M  END
> <minimizedAffinity>
-8.56645

$$$$
5F60_5VZ_A_201


 40 43  0  0  0  0  0  0  0  0999 V2000
   10.0884   37.5216   73.0104 C   0  0  0  0  0  0  0  0  0  0  0  0
    8.9005   39.0177   74.4477 C   0  0  0  0  0  0  0  0  0  0  0  0
   10.6236   37.6714   75.3167 C   0  0  0  0  0  0  0  0  0  0  0  0
    9.0713   38.4893   73.1552 C   0  0  0  0  0  0  0  0  0  0  0  0
    8.2417   38.9564   72.0105 C   0  0  0  0  0  0  0  0  0  0  0  0
    9.6736   38.6151   75.4751 N   0  0  0  0  0  0  0  0  0  0  0  0
   10.8011   37.1286   74.0935 N   0  0  0  0  0  0  0  0  0  0  0  0
   10.3320   36.9462   71.8039 N   0  0  0  0  0  0  0  0  0  0  0  0
    9.6560   36.3073   71.4812 H   0  0  0  0  0  0  0  0  0  0  0  0
   12.3375   38.2346   69.0202 C   0  0  0  0  0  0  0  0  0  0  0  0
   11.4102   37.1534   70.9854 C   0  0  0  0  0  0  0  0  0  0  0  0
   14.9079   38.0209   68.2667 Cl  0  0  0  0  0  0  0  0  0  0  0  0
   13.5951   37.6813   69.2940 C   0  0  0  0  0  0  0  0  0  0  0  0
   13.7863   36.8723   70.4315 C   0  0  0  0  0  0  0  0  0  0  0  0
   12.6843   36.6290   71.2554 C   0  0  0  0  0  0  0  0  0  0  0  0
   11.2431   37.9752   69.8617 C   0  0  0  0  0  0  0  0  0  0  0  0
   15.0227   36.3292   70.6892 N   0  0  0  0  0  0  0  0  0  0  0  0
   15.2940   35.5662   70.1293 H   0  0  0  0  0  0  0  0  0  0  0  0
   16.1278   36.8347   71.8681 S   0  0  0  0  0  0  0  0  0  0  0  0
   15.7043   38.2649   72.2852 O   0  0  0  0  0  0  0  0  0  0  0  0
   17.5714   36.7462   71.2926 O   0  0  0  0  0  0  0  0  0  0  0  0
   15.9796   35.7136   73.2935 C   0  0  0  0  0  0  0  0  0  0  0  0
   15.4982   34.3600   72.7332 C   0  0  0  0  0  0  0  0  0  0  0  0
   17.3687   35.5679   73.9570 C   0  0  0  0  0  0  0  0  0  0  0  0
   14.9496   36.2725   74.3063 C   0  0  0  0  0  0  0  0  0  0  0  0
   11.3650   37.2901   76.3808 N   0  0  0  0  0  0  0  0  0  0  0  0
   11.4122   36.3144   76.5029 H   0  0  0  0  0  0  0  0  0  0  0  0
   12.0573   37.9934   77.3141 C   0  0  0  0  0  0  0  0  0  0  0  0
   14.0383   38.9460   78.3787 C   0  0  0  0  0  0  0  0  0  0  0  0
   13.4422   38.1862   77.3362 C   0  0  0  0  0  0  0  0  0  0  0  0
   13.2692   39.4841   79.4372 C   0  0  0  0  0  0  0  0  0  0  0  0
   11.8843   39.2640   79.4135 C   0  0  0  0  0  0  0  0  0  0  0  0
   11.2917   38.5255   78.3811 C   0  0  0  0  0  0  0  0  0  0  0  0
   13.8535   40.2238   80.4513 N   0  0  0  0  0  0  0  0  0  0  0  0
   13.0031   41.0693   81.2746 C   0  0  0  0  0  0  0  0  0  0  0  0
   13.7246   41.8394   82.4126 C   0  0  0  0  0  0  0  0  0  0  0  0
   15.1985   41.6470   82.3565 N   0  0  0  0  0  0  0  0  0  0  0  0
   15.9348   42.4879   83.3349 C   0  0  0  0  0  0  0  0  0  0  0  0
   15.6882   41.8613   80.9762 C   0  0  0  0  0  0  0  0  0  0  0  0
   15.1686   40.7095   80.0983 C   0  0  0  0  0  0  0  0  0  0  0  0
 10 13  2  0  0  0
 10 16  1  0  0  0
 11 15  1  0  0  0
 11 16  2  0  0  0
 11  8  1  0  0  0
  1  8  1  0  0  0
  1  4  2  0  0  0
  1  7  1  0  0  0
  2  4  1  0  0  0
  2  6  2  0  0  0
  3  6  1  0  0  0
  3 26  1  0  0  0
  3  7  2  0  0  0
 28 26  1  0  0  0
 28 30  2  0  0  0
 28 33  1  0  0  0
 29 30  1  0  0  0
 29 31  2  0  0  0
 12 13  1  0  0  0
 13 14  1  0  0  0
 14 17  1  0  0  0
 14 15  2  0  0  0
 17 19  1  0  0  0
 19 22  1  0  0  0
 19 20  2  0  0  0
 19 21  2  0  0  0
 22 23  1  0  0  0
 22 24  1  0  0  0
 22 25  1  0  0  0
  4  5  1  0  0  0
 31 34  1  0  0  0
 31 32  1  0  0  0
 34 35  1  0  0  0
 34 40  1  0  0  0
 35 36  1  0  0  0
 36 37  1  0  0  0
 37 38  1  0  0  0
 37 39  1  0  0  0
 39 40  1  0  0  0
 32 33  2  0  0  0
 17 18  1  0  0  0
  8  9  1  0  0  0
 26 27  1  0  0  0
M  END
> <minimizedAffinity>
-8.34069

$$$$
