5VD0_8X7_A_401


 39 43  0  0  0  0  0  0  0  0999 V2000
  -14.4503    0.4245    2.2425 C   0  0  0  0  0  0  0  0  0  0  0  0
  -14.7802   -0.8893    2.1557 N   0  0  0  0  0  0  0  0  0  0  0  0
  -16.0557   -1.3395    2.2995 C   0  0  0  0  0  0  0  0  0  0  0  0
  -17.0575   -0.3928    2.5493 C   0  0  0  0  0  0  0  0  0  0  0  0
  -18.4574   -0.4671    2.7434 C   0  0  0  0  0  0  0  0  0  0  0  0
  -19.2594   -1.4633    2.7568 O   0  0  0  0  0  0  0  0  0  0  0  0
  -18.8702    0.8193    2.9354 N   0  0  0  0  0  0  0  0  0  0  0  0
  -17.8376    1.6536    2.8918 N   0  0  0  0  0  0  0  0  0  0  0  0
  -16.7260    0.9365    2.6432 C   0  0  0  0  0  0  0  0  0  0  0  0
  -15.4437    1.3206    2.4885 N   0  0  0  0  0  0  0  0  0  0  0  0
  -17.8011    3.0176    2.9903 C   0  0  0  0  0  0  0  0  0  0  0  0
  -18.9003    3.6768    2.5776 N   0  0  0  0  0  0  0  0  0  0  0  0
  -19.0623    5.0215    2.5629 C   0  0  0  0  0  0  0  0  0  0  0  0
  -17.9859    5.8162    3.0100 C   0  0  0  0  0  0  0  0  0  0  0  0
  -16.8038    5.1882    3.4374 C   0  0  0  0  0  0  0  0  0  0  0  0
  -16.6955    3.7854    3.4201 C   0  0  0  0  0  0  0  0  0  0  0  0
  -20.3645    5.5789    2.0996 C   0  0  0  0  0  0  0  0  0  0  0  0
  -21.5414    5.0393    2.9595 C   0  0  0  0  0  0  0  0  0  0  0  0
  -20.5939    5.1827    0.6129 C   0  0  0  0  0  0  0  0  0  0  0  0
  -20.3685    7.0084    2.1860 O   0  0  0  0  0  0  0  0  0  0  0  0
  -20.2266    7.2771    3.1072 H   0  0  0  0  0  0  0  0  0  0  0  0
  -13.1428    0.7657    2.0795 N   0  0  0  0  0  0  0  0  0  0  0  0
  -12.5041    0.0173    2.0451 H   0  0  0  0  0  0  0  0  0  0  0  0
  -11.2357    4.5515    1.7422 C   0  0  0  0  0  0  0  0  0  0  0  0
  -12.6494    4.4422    1.6264 C   0  0  0  0  0  0  0  0  0  0  0  0
  -13.3141    3.2142    1.7301 C   0  0  0  0  0  0  0  0  0  0  0  0
  -12.6038    2.0179    1.9574 C   0  0  0  0  0  0  0  0  0  0  0  0
  -11.2070    2.1016    2.0775 C   0  0  0  0  0  0  0  0  0  0  0  0
  -10.5436    3.3335    1.9717 C   0  0  0  0  0  0  0  0  0  0  0  0
   -8.7315    9.3287    3.2231 C   0  0  0  0  0  0  0  0  0  0  0  0
   -9.2673    8.2579    2.3419 N   0  0  0  0  0  0  0  0  0  0  0  0
  -10.7398    8.0856    2.4918 C   0  0  0  0  0  0  0  0  0  0  0  0
  -11.2528    7.0491    1.4637 C   0  0  0  0  0  0  0  0  0  0  0  0
  -10.5620    5.7800    1.6413 N   0  0  0  0  0  0  0  0  0  0  0  0
   -9.1212    5.9192    1.4602 C   0  0  0  0  0  0  0  0  0  0  0  0
   -8.5414    6.9560    2.4641 C   0  0  0  0  0  0  0  0  0  0  0  0
  -20.2550    1.1420    3.1925 C   0  0  0  0  0  0  0  0  0  0  0  0
  -20.4537    1.0321    4.6251 C   0  0  0  0  0  0  0  0  0  0  0  0
  -21.1965    0.0787    5.2000 C   0  0  0  0  0  0  0  0  0  0  0  0
 30 31  1  0  0  0
 31 32  1  0  0  0
 31 36  1  0  0  0
 32 33  1  0  0  0
 36 35  1  0  0  0
 33 34  1  0  0  0
 35 34  1  0  0  0
 34 24  1  0  0  0
 24 29  2  0  0  0
 24 25  1  0  0  0
 29 28  1  0  0  0
 25 26  2  0  0  0
 28 27  2  0  0  0
 26 27  1  0  0  0
 27 22  1  0  0  0
 22  1  1  0  0  0
 15 14  2  0  0  0
 15 16  1  0  0  0
 14 13  1  0  0  0
 18 17  1  0  0  0
  1 10  2  0  0  0
  1  2  1  0  0  0
 16 11  2  0  0  0
 10  9  1  0  0  0
 13 17  1  0  0  0
 13 12  2  0  0  0
 20 17  1  0  0  0
 17 19  1  0  0  0
  2  3  2  0  0  0
 11 12  1  0  0  0
 11  8  1  0  0  0
  9  8  1  0  0  0
  9  4  2  0  0  0
  8  7  1  0  0  0
  3  4  1  0  0  0
  4  5  1  0  0  0
  7  5  1  0  0  0
  7 37  1  0  0  0
  5  6  2  0  0  0
 37 38  1  0  0  0
 38 39  2  0  0  0
 22 23  1  0  0  0
 20 21  1  0  0  0
M  END
> <minimizedAffinity>
-11.69595

$$$$
5VD0_8X7_A_401


 39 43  0  0  0  0  0  0  0  0999 V2000
  -16.3811    5.4836    2.4186 C   0  0  0  0  0  0  0  0  0  0  0  0
  -15.0577    5.4352    2.1210 N   0  0  0  0  0  0  0  0  0  0  0  0
  -14.3471    4.2754    2.1097 C   0  0  0  0  0  0  0  0  0  0  0  0
  -15.0265    3.0910    2.4230 C   0  0  0  0  0  0  0  0  0  0  0  0
  -14.6475    1.7301    2.5068 C   0  0  0  0  0  0  0  0  0  0  0  0
  -13.5224    1.1507    2.3210 O   0  0  0  0  0  0  0  0  0  0  0  0
  -15.7811    1.0539    2.8528 N   0  0  0  0  0  0  0  0  0  0  0  0
  -16.7997    1.8932    3.0014 N   0  0  0  0  0  0  0  0  0  0  0  0
  -16.3642    3.1375    2.7300 C   0  0  0  0  0  0  0  0  0  0  0  0
  -17.0137    4.3181    2.7215 N   0  0  0  0  0  0  0  0  0  0  0  0
  -18.1118    1.6439    3.2975 C   0  0  0  0  0  0  0  0  0  0  0  0
  -19.0129    2.5114    2.7989 N   0  0  0  0  0  0  0  0  0  0  0  0
  -20.3526    2.4659    2.9938 C   0  0  0  0  0  0  0  0  0  0  0  0
  -20.8630    1.4249    3.7975 C   0  0  0  0  0  0  0  0  0  0  0  0
  -19.9713    0.4969    4.3618 C   0  0  0  0  0  0  0  0  0  0  0  0
  -18.5880    0.6045    4.1279 C   0  0  0  0  0  0  0  0  0  0  0  0
  -21.2053    3.4963    2.3364 C   0  0  0  0  0  0  0  0  0  0  0  0
  -20.9261    3.5615    0.8088 C   0  0  0  0  0  0  0  0  0  0  0  0
  -20.9122    4.8867    2.9694 C   0  0  0  0  0  0  0  0  0  0  0  0
  -22.5950    3.2050    2.5232 O   0  0  0  0  0  0  0  0  0  0  0  0
  -22.7991    2.3400    2.1347 H   0  0  0  0  0  0  0  0  0  0  0  0
  -16.9954    6.6980    2.3975 N   0  0  0  0  0  0  0  0  0  0  0  0
  -16.5970    7.3915    2.9715 H   0  0  0  0  0  0  0  0  0  0  0  0
  -20.4700    8.0474    0.3509 C   0  0  0  0  0  0  0  0  0  0  0  0
  -19.6818    6.9908   -0.1838 C   0  0  0  0  0  0  0  0  0  0  0  0
  -18.5306    6.5194    0.4591 C   0  0  0  0  0  0  0  0  0  0  0  0
  -18.0972    7.0768    1.6792 C   0  0  0  0  0  0  0  0  0  0  0  0
  -18.8612    8.1199    2.2275 C   0  0  0  0  0  0  0  0  0  0  0  0
  -20.0136    8.5911    1.5802 C   0  0  0  0  0  0  0  0  0  0  0  0
  -25.0980   11.0300   -0.6351 C   0  0  0  0  0  0  0  0  0  0  0  0
  -24.0237   10.0244   -0.8470 N   0  0  0  0  0  0  0  0  0  0  0  0
  -23.9887    8.9978    0.2325 C   0  0  0  0  0  0  0  0  0  0  0  0
  -22.9373    7.9150   -0.1090 C   0  0  0  0  0  0  0  0  0  0  0  0
  -21.6271    8.5244   -0.2871 N   0  0  0  0  0  0  0  0  0  0  0  0
  -21.6301    9.5058   -1.3663 C   0  0  0  0  0  0  0  0  0  0  0  0
  -22.6745   10.6237   -1.0863 C   0  0  0  0  0  0  0  0  0  0  0  0
  -15.7795   -0.3767    3.0569 C   0  0  0  0  0  0  0  0  0  0  0  0
  -16.0125   -0.9867    1.7617 C   0  0  0  0  0  0  0  0  0  0  0  0
  -17.1445   -1.6204    1.4331 C   0  0  0  0  0  0  0  0  0  0  0  0
 30 31  1  0  0  0
 31 32  1  0  0  0
 31 36  1  0  0  0
 32 33  1  0  0  0
 36 35  1  0  0  0
 33 34  1  0  0  0
 35 34  1  0  0  0
 34 24  1  0  0  0
 24 29  2  0  0  0
 24 25  1  0  0  0
 29 28  1  0  0  0
 25 26  2  0  0  0
 28 27  2  0  0  0
 26 27  1  0  0  0
 27 22  1  0  0  0
 22  1  1  0  0  0
 15 14  2  0  0  0
 15 16  1  0  0  0
 14 13  1  0  0  0
 18 17  1  0  0  0
  1 10  2  0  0  0
  1  2  1  0  0  0
 16 11  2  0  0  0
 10  9  1  0  0  0
 13 17  1  0  0  0
 13 12  2  0  0  0
 20 17  1  0  0  0
 17 19  1  0  0  0
  2  3  2  0  0  0
 11 12  1  0  0  0
 11  8  1  0  0  0
  9  8  1  0  0  0
  9  4  2  0  0  0
  8  7  1  0  0  0
  3  4  1  0  0  0
  4  5  1  0  0  0
  7  5  1  0  0  0
  7 37  1  0  0  0
  5  6  2  0  0  0
 37 38  1  0  0  0
 38 39  2  0  0  0
 22 23  1  0  0  0
 20 21  1  0  0  0
M  END
> <minimizedAffinity>
-11.32045

$$$$
5VD0_8X7_A_401


 39 43  0  0  0  0  0  0  0  0999 V2000
  -16.8424    2.2501    3.0866 C   0  0  0  0  0  0  0  0  0  0  0  0
  -16.4610    0.9476    3.1092 N   0  0  0  0  0  0  0  0  0  0  0  0
  -17.3433   -0.0806    2.9886 C   0  0  0  0  0  0  0  0  0  0  0  0
  -18.6991    0.2376    2.8377 C   0  0  0  0  0  0  0  0  0  0  0  0
  -19.8793   -0.5274    2.6797 C   0  0  0  0  0  0  0  0  0  0  0  0
  -20.0700   -1.7913    2.6329 O   0  0  0  0  0  0  0  0  0  0  0  0
  -20.8933    0.3795    2.5738 N   0  0  0  0  0  0  0  0  0  0  0  0
  -20.4252    1.6186    2.6734 N   0  0  0  0  0  0  0  0  0  0  0  0
  -19.0888    1.5542    2.8202 C   0  0  0  0  0  0  0  0  0  0  0  0
  -18.1660    2.5285    2.9414 N   0  0  0  0  0  0  0  0  0  0  0  0
  -21.0772    2.8177    2.5806 C   0  0  0  0  0  0  0  0  0  0  0  0
  -20.6032    3.6873    1.6684 N   0  0  0  0  0  0  0  0  0  0  0  0
  -21.0808    4.9331    1.4343 C   0  0  0  0  0  0  0  0  0  0  0  0
  -22.1682    5.3757    2.2163 C   0  0  0  0  0  0  0  0  0  0  0  0
  -22.6971    4.5207    3.1980 C   0  0  0  0  0  0  0  0  0  0  0  0
  -22.1497    3.2401    3.3979 C   0  0  0  0  0  0  0  0  0  0  0  0
  -20.4496    5.7495    0.3591 C   0  0  0  0  0  0  0  0  0  0  0  0
  -20.2532    7.2217    0.8172 C   0  0  0  0  0  0  0  0  0  0  0  0
  -21.3556    5.7241   -0.9051 C   0  0  0  0  0  0  0  0  0  0  0  0
  -19.1682    5.2200    0.0004 O   0  0  0  0  0  0  0  0  0  0  0  0
  -18.5866    5.2270    0.7767 H   0  0  0  0  0  0  0  0  0  0  0  0
  -15.8758    3.1999    3.2125 N   0  0  0  0  0  0  0  0  0  0  0  0
  -15.1767    3.0160    3.8809 H   0  0  0  0  0  0  0  0  0  0  0  0
  -15.7046    6.9459    1.2074 C   0  0  0  0  0  0  0  0  0  0  0  0
  -14.7500    5.9303    0.9229 C   0  0  0  0  0  0  0  0  0  0  0  0
  -14.7719    4.6850    1.5626 C   0  0  0  0  0  0  0  0  0  0  0  0
  -15.7529    4.3785    2.5274 C   0  0  0  0  0  0  0  0  0  0  0  0
  -16.7075    5.3652    2.8231 C   0  0  0  0  0  0  0  0  0  0  0  0
  -16.6821    6.6128    2.1814 C   0  0  0  0  0  0  0  0  0  0  0  0
  -17.3469   12.0117   -0.5034 C   0  0  0  0  0  0  0  0  0  0  0  0
  -16.4841   10.8107   -0.3509 N   0  0  0  0  0  0  0  0  0  0  0  0
  -17.1346    9.5765   -0.8743 C   0  0  0  0  0  0  0  0  0  0  0  0
  -16.1426    8.3910   -0.8016 C   0  0  0  0  0  0  0  0  0  0  0  0
  -15.6902    8.1969    0.5685 N   0  0  0  0  0  0  0  0  0  0  0  0
  -15.0155    9.3815    1.0875 C   0  0  0  0  0  0  0  0  0  0  0  0
  -15.9605   10.6158    1.0364 C   0  0  0  0  0  0  0  0  0  0  0  0
  -22.2695   -0.0343    2.4227 C   0  0  0  0  0  0  0  0  0  0  0  0
  -22.6366   -0.7280    3.6424 C   0  0  0  0  0  0  0  0  0  0  0  0
  -22.6759   -0.1430    4.8455 C   0  0  0  0  0  0  0  0  0  0  0  0
 30 31  1  0  0  0
 31 32  1  0  0  0
 31 36  1  0  0  0
 32 33  1  0  0  0
 36 35  1  0  0  0
 33 34  1  0  0  0
 35 34  1  0  0  0
 34 24  1  0  0  0
 24 29  2  0  0  0
 24 25  1  0  0  0
 29 28  1  0  0  0
 25 26  2  0  0  0
 28 27  2  0  0  0
 26 27  1  0  0  0
 27 22  1  0  0  0
 22  1  1  0  0  0
 15 14  2  0  0  0
 15 16  1  0  0  0
 14 13  1  0  0  0
 18 17  1  0  0  0
  1 10  2  0  0  0
  1  2  1  0  0  0
 16 11  2  0  0  0
 10  9  1  0  0  0
 13 17  1  0  0  0
 13 12  2  0  0  0
 20 17  1  0  0  0
 17 19  1  0  0  0
  2  3  2  0  0  0
 11 12  1  0  0  0
 11  8  1  0  0  0
  9  8  1  0  0  0
  9  4  2  0  0  0
  8  7  1  0  0  0
  3  4  1  0  0  0
  4  5  1  0  0  0
  7  5  1  0  0  0
  7 37  1  0  0  0
  5  6  2  0  0  0
 37 38  1  0  0  0
 38 39  2  0  0  0
 22 23  1  0  0  0
 20 21  1  0  0  0
M  END
> <minimizedAffinity>
-10.65340

$$$$
5VD0_8X7_A_401


 39 43  0  0  0  0  0  0  0  0999 V2000
  -17.2176    5.0596    3.0232 C   0  0  0  0  0  0  0  0  0  0  0  0
  -15.9891    5.2931    2.4953 N   0  0  0  0  0  0  0  0  0  0  0  0
  -15.0957    4.2995    2.2407 C   0  0  0  0  0  0  0  0  0  0  0  0
  -15.4765    2.9861    2.5448 C   0  0  0  0  0  0  0  0  0  0  0  0
  -14.8483    1.7240    2.4208 C   0  0  0  0  0  0  0  0  0  0  0  0
  -13.6936    1.3916    1.9825 O   0  0  0  0  0  0  0  0  0  0  0  0
  -15.7531    0.8160    2.8885 N   0  0  0  0  0  0  0  0  0  0  0  0
  -16.8594    1.4262    3.2985 N   0  0  0  0  0  0  0  0  0  0  0  0
  -16.7166    2.7473    3.0842 C   0  0  0  0  0  0  0  0  0  0  0  0
  -17.5587    3.7746    3.3107 N   0  0  0  0  0  0  0  0  0  0  0  0
  -18.0233    0.9038    3.7924 C   0  0  0  0  0  0  0  0  0  0  0  0
  -18.9859    0.6302    2.8915 N   0  0  0  0  0  0  0  0  0  0  0  0
  -20.2170    0.1376    3.1682 C   0  0  0  0  0  0  0  0  0  0  0  0
  -20.5360   -0.1075    4.5203 C   0  0  0  0  0  0  0  0  0  0  0  0
  -19.5796    0.1743    5.5104 C   0  0  0  0  0  0  0  0  0  0  0  0
  -18.3203    0.6936    5.1578 C   0  0  0  0  0  0  0  0  0  0  0  0
  -21.1480   -0.1349    2.0369 C   0  0  0  0  0  0  0  0  0  0  0  0
  -22.5628   -0.5151    2.5562 C   0  0  0  0  0  0  0  0  0  0  0  0
  -20.5868   -1.3051    1.1792 C   0  0  0  0  0  0  0  0  0  0  0  0
  -21.2774    1.0148    1.1929 O   0  0  0  0  0  0  0  0  0  0  0  0
  -21.6268    1.7576    1.7097 H   0  0  0  0  0  0  0  0  0  0  0  0
  -18.0342    6.1277    3.2347 N   0  0  0  0  0  0  0  0  0  0  0  0
  -18.1110    6.4322    4.1678 H   0  0  0  0  0  0  0  0  0  0  0  0
  -20.1079    8.4927    0.3731 C   0  0  0  0  0  0  0  0  0  0  0  0
  -20.6803    7.2864    0.8639 C   0  0  0  0  0  0  0  0  0  0  0  0
  -20.0287    6.4799    1.8049 C   0  0  0  0  0  0  0  0  0  0  0  0
  -18.7622    6.8319    2.3141 C   0  0  0  0  0  0  0  0  0  0  0  0
  -18.1783    8.0203    1.8458 C   0  0  0  0  0  0  0  0  0  0  0  0
  -18.8332    8.8258    0.9017 C   0  0  0  0  0  0  0  0  0  0  0  0
  -23.2309   12.6024   -1.7820 C   0  0  0  0  0  0  0  0  0  0  0  0
  -22.3586   11.3992   -1.7384 N   0  0  0  0  0  0  0  0  0  0  0  0
  -22.9841   10.2737   -0.9886 C   0  0  0  0  0  0  0  0  0  0  0  0
  -22.0861    9.0172   -1.0857 C   0  0  0  0  0  0  0  0  0  0  0  0
  -20.7563    9.3081   -0.5693 N   0  0  0  0  0  0  0  0  0  0  0  0
  -20.1103   10.3823   -1.3153 C   0  0  0  0  0  0  0  0  0  0  0  0
  -20.9686   11.6782   -1.2622 C   0  0  0  0  0  0  0  0  0  0  0  0
  -15.4533   -0.5966    2.9412 C   0  0  0  0  0  0  0  0  0  0  0  0
  -15.7954   -1.1479    1.6440 C   0  0  0  0  0  0  0  0  0  0  0  0
  -16.9262   -1.8203    1.3983 C   0  0  0  0  0  0  0  0  0  0  0  0
 30 31  1  0  0  0
 31 32  1  0  0  0
 31 36  1  0  0  0
 32 33  1  0  0  0
 36 35  1  0  0  0
 33 34  1  0  0  0
 35 34  1  0  0  0
 34 24  1  0  0  0
 24 29  2  0  0  0
 24 25  1  0  0  0
 29 28  1  0  0  0
 25 26  2  0  0  0
 28 27  2  0  0  0
 26 27  1  0  0  0
 27 22  1  0  0  0
 22  1  1  0  0  0
 15 14  2  0  0  0
 15 16  1  0  0  0
 14 13  1  0  0  0
 18 17  1  0  0  0
  1 10  2  0  0  0
  1  2  1  0  0  0
 16 11  2  0  0  0
 10  9  1  0  0  0
 13 17  1  0  0  0
 13 12  2  0  0  0
 20 17  1  0  0  0
 17 19  1  0  0  0
  2  3  2  0  0  0
 11 12  1  0  0  0
 11  8  1  0  0  0
  9  8  1  0  0  0
  9  4  2  0  0  0
  8  7  1  0  0  0
  3  4  1  0  0  0
  4  5  1  0  0  0
  7  5  1  0  0  0
  7 37  1  0  0  0
  5  6  2  0  0  0
 37 38  1  0  0  0
 38 39  2  0  0  0
 22 23  1  0  0  0
 20 21  1  0  0  0
M  END
> <minimizedAffinity>
-10.48283

$$$$
5VD0_8X7_A_401


 39 43  0  0  0  0  0  0  0  0999 V2000
  -15.9095    5.8953    0.3965 C   0  0  0  0  0  0  0  0  0  0  0  0
  -16.4184    7.1366    0.1901 N   0  0  0  0  0  0  0  0  0  0  0  0
  -17.6419    7.5165    0.6470 C   0  0  0  0  0  0  0  0  0  0  0  0
  -18.3953    6.5725    1.3567 C   0  0  0  0  0  0  0  0  0  0  0  0
  -19.6670    6.5915    1.9773 C   0  0  0  0  0  0  0  0  0  0  0  0
  -20.5493    7.5124    2.0736 O   0  0  0  0  0  0  0  0  0  0  0  0
  -19.8316    5.3484    2.5154 N   0  0  0  0  0  0  0  0  0  0  0  0
  -18.7781    4.5825    2.2549 N   0  0  0  0  0  0  0  0  0  0  0  0
  -17.8856    5.3140    1.5623 C   0  0  0  0  0  0  0  0  0  0  0  0
  -16.6648    4.9989    1.0867 N   0  0  0  0  0  0  0  0  0  0  0  0
  -18.5066    3.2969    2.6360 C   0  0  0  0  0  0  0  0  0  0  0  0
  -19.5310    2.4252    2.5725 N   0  0  0  0  0  0  0  0  0  0  0  0
  -19.4863    1.1189    2.9279 C   0  0  0  0  0  0  0  0  0  0  0  0
  -18.2638    0.6147    3.4190 C   0  0  0  0  0  0  0  0  0  0  0  0
  -17.1613    1.4793    3.5259 C   0  0  0  0  0  0  0  0  0  0  0  0
  -17.2752    2.8298    3.1478 C   0  0  0  0  0  0  0  0  0  0  0  0
  -20.7143    0.2911    2.7611 C   0  0  0  0  0  0  0  0  0  0  0  0
  -20.5690   -0.6901    1.5644 C   0  0  0  0  0  0  0  0  0  0  0  0
  -21.9338    1.2242    2.5119 C   0  0  0  0  0  0  0  0  0  0  0  0
  -20.9755   -0.4794    3.9397 O   0  0  0  0  0  0  0  0  0  0  0  0
  -20.2253   -1.0693    4.1132 H   0  0  0  0  0  0  0  0  0  0  0  0
  -14.6729    5.6221   -0.1020 N   0  0  0  0  0  0  0  0  0  0  0  0
  -14.4889    5.9635   -1.0069 H   0  0  0  0  0  0  0  0  0  0  0  0
  -11.3549    3.6889    1.7244 C   0  0  0  0  0  0  0  0  0  0  0  0
  -12.5856    2.9977    1.5475 C   0  0  0  0  0  0  0  0  0  0  0  0
  -13.7009    3.5997    0.9522 C   0  0  0  0  0  0  0  0  0  0  0  0
  -13.6527    4.9325    0.4957 C   0  0  0  0  0  0  0  0  0  0  0  0
  -12.4470    5.6342    0.6576 C   0  0  0  0  0  0  0  0  0  0  0  0
  -11.3315    5.0287    1.2558 C   0  0  0  0  0  0  0  0  0  0  0  0
   -6.4143    1.1226    2.2647 C   0  0  0  0  0  0  0  0  0  0  0  0
   -7.6957    1.7639    2.6610 N   0  0  0  0  0  0  0  0  0  0  0  0
   -8.8814    1.0391    2.1231 C   0  0  0  0  0  0  0  0  0  0  0  0
  -10.1792    1.6795    2.6711 C   0  0  0  0  0  0  0  0  0  0  0  0
  -10.2312    3.0912    2.3190 N   0  0  0  0  0  0  0  0  0  0  0  0
   -9.0984    3.8273    2.8692 C   0  0  0  0  0  0  0  0  0  0  0  0
   -7.7568    3.2275    2.3597 C   0  0  0  0  0  0  0  0  0  0  0  0
  -21.0386    4.9791    3.2188 C   0  0  0  0  0  0  0  0  0  0  0  0
  -22.1105    4.9753    2.2417 C   0  0  0  0  0  0  0  0  0  0  0  0
  -23.3353    5.4580    2.4822 C   0  0  0  0  0  0  0  0  0  0  0  0
 30 31  1  0  0  0
 31 32  1  0  0  0
 31 36  1  0  0  0
 32 33  1  0  0  0
 36 35  1  0  0  0
 33 34  1  0  0  0
 35 34  1  0  0  0
 34 24  1  0  0  0
 24 29  2  0  0  0
 24 25  1  0  0  0
 29 28  1  0  0  0
 25 26  2  0  0  0
 28 27  2  0  0  0
 26 27  1  0  0  0
 27 22  1  0  0  0
 22  1  1  0  0  0
 15 14  2  0  0  0
 15 16  1  0  0  0
 14 13  1  0  0  0
 18 17  1  0  0  0
  1 10  2  0  0  0
  1  2  1  0  0  0
 16 11  2  0  0  0
 10  9  1  0  0  0
 13 17  1  0  0  0
 13 12  2  0  0  0
 20 17  1  0  0  0
 17 19  1  0  0  0
  2  3  2  0  0  0
 11 12  1  0  0  0
 11  8  1  0  0  0
  9  8  1  0  0  0
  9  4  2  0  0  0
  8  7  1  0  0  0
  3  4  1  0  0  0
  4  5  1  0  0  0
  7  5  1  0  0  0
  7 37  1  0  0  0
  5  6  2  0  0  0
 37 38  1  0  0  0
 38 39  2  0  0  0
 22 23  1  0  0  0
 20 21  1  0  0  0
M  END
> <minimizedAffinity>
-10.44515

$$$$
5VD0_8X7_A_401


 39 43  0  0  0  0  0  0  0  0999 V2000
  -12.6822    1.6893    1.9115 C   0  0  0  0  0  0  0  0  0  0  0  0
  -11.3763    1.6334    2.2775 N   0  0  0  0  0  0  0  0  0  0  0  0
  -10.5926    2.7402    2.3819 C   0  0  0  0  0  0  0  0  0  0  0  0
  -11.1747    3.9814    2.0935 C   0  0  0  0  0  0  0  0  0  0  0  0
  -10.7029    5.3156    2.0962 C   0  0  0  0  0  0  0  0  0  0  0  0
   -9.5537    5.8076    2.3668 O   0  0  0  0  0  0  0  0  0  0  0  0
  -11.7693    6.0829    1.7272 N   0  0  0  0  0  0  0  0  0  0  0  0
  -12.8316    5.3228    1.4862 N   0  0  0  0  0  0  0  0  0  0  0  0
  -12.4941    4.0405    1.7175 C   0  0  0  0  0  0  0  0  0  0  0  0
  -13.2195    2.9080    1.6350 N   0  0  0  0  0  0  0  0  0  0  0  0
  -14.1066    5.6746    1.1369 C   0  0  0  0  0  0  0  0  0  0  0  0
  -15.0828    5.3093    1.9895 N   0  0  0  0  0  0  0  0  0  0  0  0
  -16.4084    5.5316    1.8226 C   0  0  0  0  0  0  0  0  0  0  0  0
  -16.8185    6.1979    0.6487 C   0  0  0  0  0  0  0  0  0  0  0  0
  -15.8485    6.5895   -0.2895 C   0  0  0  0  0  0  0  0  0  0  0  0
  -14.4864    6.3210   -0.0608 C   0  0  0  0  0  0  0  0  0  0  0  0
  -17.3477    5.0827    2.8890 C   0  0  0  0  0  0  0  0  0  0  0  0
  -18.3169    3.9903    2.3569 C   0  0  0  0  0  0  0  0  0  0  0  0
  -18.1756    6.3001    3.3912 C   0  0  0  0  0  0  0  0  0  0  0  0
  -16.6327    4.5387    4.0043 O   0  0  0  0  0  0  0  0  0  0  0  0
  -16.1087    3.7766    3.7119 H   0  0  0  0  0  0  0  0  0  0  0  0
  -13.3754    0.5201    1.8416 N   0  0  0  0  0  0  0  0  0  0  0  0
  -12.8569   -0.2718    1.5708 H   0  0  0  0  0  0  0  0  0  0  0  0
  -17.4968    0.0707    2.7877 C   0  0  0  0  0  0  0  0  0  0  0  0
  -16.8310   -0.8957    1.9837 C   0  0  0  0  0  0  0  0  0  0  0  0
  -15.4760   -0.7826    1.6492 C   0  0  0  0  0  0  0  0  0  0  0  0
  -14.7023    0.3061    2.1003 C   0  0  0  0  0  0  0  0  0  0  0  0
  -15.3379    1.2717    2.8977 C   0  0  0  0  0  0  0  0  0  0  0  0
  -16.6963    1.1564    3.2301 C   0  0  0  0  0  0  0  0  0  0  0  0
  -22.9639    1.2134    3.0893 C   0  0  0  0  0  0  0  0  0  0  0  0
  -21.6792    0.5041    3.3275 N   0  0  0  0  0  0  0  0  0  0  0  0
  -20.6769    1.3649    4.0166 C   0  0  0  0  0  0  0  0  0  0  0  0
  -19.4130    0.5352    4.3462 C   0  0  0  0  0  0  0  0  0  0  0  0
  -18.8552   -0.0368    3.1290 N   0  0  0  0  0  0  0  0  0  0  0  0
  -19.8082   -0.9145    2.4586 C   0  0  0  0  0  0  0  0  0  0  0  0
  -21.1093   -0.1398    2.1038 C   0  0  0  0  0  0  0  0  0  0  0  0
  -11.6625    7.5178    1.5943 C   0  0  0  0  0  0  0  0  0  0  0  0
  -11.3420    8.0394    2.9092 C   0  0  0  0  0  0  0  0  0  0  0  0
  -10.6350    9.1576    3.1117 C   0  0  0  0  0  0  0  0  0  0  0  0
 30 31  1  0  0  0
 31 32  1  0  0  0
 31 36  1  0  0  0
 32 33  1  0  0  0
 36 35  1  0  0  0
 33 34  1  0  0  0
 35 34  1  0  0  0
 34 24  1  0  0  0
 24 29  2  0  0  0
 24 25  1  0  0  0
 29 28  1  0  0  0
 25 26  2  0  0  0
 28 27  2  0  0  0
 26 27  1  0  0  0
 27 22  1  0  0  0
 22  1  1  0  0  0
 15 14  2  0  0  0
 15 16  1  0  0  0
 14 13  1  0  0  0
 18 17  1  0  0  0
  1 10  2  0  0  0
  1  2  1  0  0  0
 16 11  2  0  0  0
 10  9  1  0  0  0
 13 17  1  0  0  0
 13 12  2  0  0  0
 20 17  1  0  0  0
 17 19  1  0  0  0
  2  3  2  0  0  0
 11 12  1  0  0  0
 11  8  1  0  0  0
  9  8  1  0  0  0
  9  4  2  0  0  0
  8  7  1  0  0  0
  3  4  1  0  0  0
  4  5  1  0  0  0
  7  5  1  0  0  0
  7 37  1  0  0  0
  5  6  2  0  0  0
 37 38  1  0  0  0
 38 39  2  0  0  0
 22 23  1  0  0  0
 20 21  1  0  0  0
M  END
> <minimizedAffinity>
-10.35646

$$$$
5VD0_8X7_A_401


 39 43  0  0  0  0  0  0  0  0999 V2000
  -13.1069    1.4780    2.0915 C   0  0  0  0  0  0  0  0  0  0  0  0
  -13.7422    2.5943    1.6526 N   0  0  0  0  0  0  0  0  0  0  0  0
  -13.0947    3.7681    1.4225 C   0  0  0  0  0  0  0  0  0  0  0  0
  -11.7140    3.8082    1.6559 C   0  0  0  0  0  0  0  0  0  0  0  0
  -10.7217    4.8093    1.5296 C   0  0  0  0  0  0  0  0  0  0  0  0
  -10.7927    6.0305    1.1560 O   0  0  0  0  0  0  0  0  0  0  0  0
   -9.5519    4.2164    1.9063 N   0  0  0  0  0  0  0  0  0  0  0  0
   -9.7609    2.9545    2.2644 N   0  0  0  0  0  0  0  0  0  0  0  0
  -11.0693    2.6820    2.1054 C   0  0  0  0  0  0  0  0  0  0  0  0
  -11.7664    1.5475    2.3120 N   0  0  0  0  0  0  0  0  0  0  0  0
   -8.8738    1.9927    2.6636 C   0  0  0  0  0  0  0  0  0  0  0  0
   -8.0038    1.5576    1.7324 N   0  0  0  0  0  0  0  0  0  0  0  0
   -7.0660    0.5962    1.9080 C   0  0  0  0  0  0  0  0  0  0  0  0
   -6.9884   -0.0200    3.1746 C   0  0  0  0  0  0  0  0  0  0  0  0
   -7.8811    0.3778    4.1843 C   0  0  0  0  0  0  0  0  0  0  0  0
   -8.8392    1.3777    3.9353 C   0  0  0  0  0  0  0  0  0  0  0  0
   -6.1638    0.2623    0.7699 C   0  0  0  0  0  0  0  0  0  0  0  0
   -4.8987   -0.4945    1.2626 C   0  0  0  0  0  0  0  0  0  0  0  0
   -5.7290    1.5742    0.0560 C   0  0  0  0  0  0  0  0  0  0  0  0
   -6.8335   -0.5659   -0.1876 O   0  0  0  0  0  0  0  0  0  0  0  0
   -7.1134   -1.3911    0.2384 H   0  0  0  0  0  0  0  0  0  0  0  0
  -13.8514    0.3555    2.2862 N   0  0  0  0  0  0  0  0  0  0  0  0
  -13.3478   -0.4873    2.3597 H   0  0  0  0  0  0  0  0  0  0  0  0
  -18.0771    0.2501    2.7499 C   0  0  0  0  0  0  0  0  0  0  0  0
  -17.3986   -0.8012    2.0731 C   0  0  0  0  0  0  0  0  0  0  0  0
  -16.0092   -0.8022    1.8988 C   0  0  0  0  0  0  0  0  0  0  0  0
  -15.2119    0.2501    2.3929 C   0  0  0  0  0  0  0  0  0  0  0  0
  -15.8599    1.2981    3.0669 C   0  0  0  0  0  0  0  0  0  0  0  0
  -17.2525    1.2971    3.2387 C   0  0  0  0  0  0  0  0  0  0  0  0
  -23.1980   -1.3566    4.3252 C   0  0  0  0  0  0  0  0  0  0  0  0
  -22.1339   -0.5210    3.7090 N   0  0  0  0  0  0  0  0  0  0  0  0
  -21.4026   -1.2417    2.6292 C   0  0  0  0  0  0  0  0  0  0  0  0
  -20.3984   -0.2822    1.9468 C   0  0  0  0  0  0  0  0  0  0  0  0
  -19.4703    0.2572    2.9303 N   0  0  0  0  0  0  0  0  0  0  0  0
  -20.1636    1.0004    3.9767 C   0  0  0  0  0  0  0  0  0  0  0  0
  -21.1965    0.0907    4.7010 C   0  0  0  0  0  0  0  0  0  0  0  0
   -8.3043    4.9452    1.9297 C   0  0  0  0  0  0  0  0  0  0  0  0
   -8.1872    5.5364    3.2490 C   0  0  0  0  0  0  0  0  0  0  0  0
   -7.4846    4.9886    4.2477 C   0  0  0  0  0  0  0  0  0  0  0  0
 30 31  1  0  0  0
 31 32  1  0  0  0
 31 36  1  0  0  0
 32 33  1  0  0  0
 36 35  1  0  0  0
 33 34  1  0  0  0
 35 34  1  0  0  0
 34 24  1  0  0  0
 24 29  2  0  0  0
 24 25  1  0  0  0
 29 28  1  0  0  0
 25 26  2  0  0  0
 28 27  2  0  0  0
 26 27  1  0  0  0
 27 22  1  0  0  0
 22  1  1  0  0  0
 15 14  2  0  0  0
 15 16  1  0  0  0
 14 13  1  0  0  0
 18 17  1  0  0  0
  1 10  2  0  0  0
  1  2  1  0  0  0
 16 11  2  0  0  0
 10  9  1  0  0  0
 13 17  1  0  0  0
 13 12  2  0  0  0
 20 17  1  0  0  0
 17 19  1  0  0  0
  2  3  2  0  0  0
 11 12  1  0  0  0
 11  8  1  0  0  0
  9  8  1  0  0  0
  9  4  2  0  0  0
  8  7  1  0  0  0
  3  4  1  0  0  0
  4  5  1  0  0  0
  7  5  1  0  0  0
  7 37  1  0  0  0
  5  6  2  0  0  0
 37 38  1  0  0  0
 38 39  2  0  0  0
 22 23  1  0  0  0
 20 21  1  0  0  0
M  END
> <minimizedAffinity>
-10.06431

$$$$
5VD0_8X7_A_401


 39 43  0  0  0  0  0  0  0  0999 V2000
  -12.6109    1.7737    1.9655 C   0  0  0  0  0  0  0  0  0  0  0  0
  -11.3113    1.6427    2.3345 N   0  0  0  0  0  0  0  0  0  0  0  0
  -10.4437    2.6900    2.3603 C   0  0  0  0  0  0  0  0  0  0  0  0
  -10.9296    3.9491    1.9848 C   0  0  0  0  0  0  0  0  0  0  0  0
  -10.3560    5.2396    1.8930 C   0  0  0  0  0  0  0  0  0  0  0  0
   -9.1707    5.6588    2.1282 O   0  0  0  0  0  0  0  0  0  0  0  0
  -11.3618    6.0593    1.4706 N   0  0  0  0  0  0  0  0  0  0  0  0
  -12.4810    5.3688    1.2840 N   0  0  0  0  0  0  0  0  0  0  0  0
  -12.2425    4.0837    1.6056 C   0  0  0  0  0  0  0  0  0  0  0  0
  -13.0538    3.0079    1.6034 N   0  0  0  0  0  0  0  0  0  0  0  0
  -13.7269    5.7928    0.9107 C   0  0  0  0  0  0  0  0  0  0  0  0
  -14.0099    7.0898    1.1363 N   0  0  0  0  0  0  0  0  0  0  0  0
  -15.1871    7.7047    0.8699 C   0  0  0  0  0  0  0  0  0  0  0  0
  -16.2225    6.9250    0.3131 C   0  0  0  0  0  0  0  0  0  0  0  0
  -15.9952    5.5598    0.0701 C   0  0  0  0  0  0  0  0  0  0  0  0
  -14.7513    4.9784    0.3776 C   0  0  0  0  0  0  0  0  0  0  0  0
  -15.3130    9.1615    1.1576 C   0  0  0  0  0  0  0  0  0  0  0  0
  -14.0137    9.7182    1.8041 C   0  0  0  0  0  0  0  0  0  0  0  0
  -16.5065    9.3929    2.1281 C   0  0  0  0  0  0  0  0  0  0  0  0
  -15.5647    9.9001   -0.0433 O   0  0  0  0  0  0  0  0  0  0  0  0
  -14.8304    9.7690   -0.6634 H   0  0  0  0  0  0  0  0  0  0  0  0
  -13.3929    0.6598    1.9786 N   0  0  0  0  0  0  0  0  0  0  0  0
  -12.9450   -0.1829    1.7367 H   0  0  0  0  0  0  0  0  0  0  0  0
  -17.5268    0.1266    2.8205 C   0  0  0  0  0  0  0  0  0  0  0  0
  -16.8645    1.3306    3.1882 C   0  0  0  0  0  0  0  0  0  0  0  0
  -15.5049    1.5435    2.9298 C   0  0  0  0  0  0  0  0  0  0  0  0
  -14.7232    0.5631    2.2855 C   0  0  0  0  0  0  0  0  0  0  0  0
  -15.3564   -0.6332    1.9110 C   0  0  0  0  0  0  0  0  0  0  0  0
  -16.7188   -0.8443    2.1726 C   0  0  0  0  0  0  0  0  0  0  0  0
  -23.0360    1.0260    3.1767 C   0  0  0  0  0  0  0  0  0  0  0  0
  -21.7362    0.3130    3.2883 N   0  0  0  0  0  0  0  0  0  0  0  0
  -20.7851    1.0095    4.1997 C   0  0  0  0  0  0  0  0  0  0  0  0
  -19.5048    0.1573    4.3706 C   0  0  0  0  0  0  0  0  0  0  0  0
  -18.8908   -0.0936    3.0746 N   0  0  0  0  0  0  0  0  0  0  0  0
  -19.7925   -0.8097    2.1792 C   0  0  0  0  0  0  0  0  0  0  0  0
  -21.1074   -0.0058    1.9693 C   0  0  0  0  0  0  0  0  0  0  0  0
  -11.1451    7.4686    1.2365 C   0  0  0  0  0  0  0  0  0  0  0  0
  -10.9407    8.0841    2.5338 C   0  0  0  0  0  0  0  0  0  0  0  0
  -10.0682    9.0743    2.7560 C   0  0  0  0  0  0  0  0  0  0  0  0
 30 31  1  0  0  0
 31 32  1  0  0  0
 31 36  1  0  0  0
 32 33  1  0  0  0
 36 35  1  0  0  0
 33 34  1  0  0  0
 35 34  1  0  0  0
 34 24  1  0  0  0
 24 29  2  0  0  0
 24 25  1  0  0  0
 29 28  1  0  0  0
 25 26  2  0  0  0
 28 27  2  0  0  0
 26 27  1  0  0  0
 27 22  1  0  0  0
 22  1  1  0  0  0
 15 14  2  0  0  0
 15 16  1  0  0  0
 14 13  1  0  0  0
 18 17  1  0  0  0
  1 10  2  0  0  0
  1  2  1  0  0  0
 16 11  2  0  0  0
 10  9  1  0  0  0
 13 17  1  0  0  0
 13 12  2  0  0  0
 20 17  1  0  0  0
 17 19  1  0  0  0
  2  3  2  0  0  0
 11 12  1  0  0  0
 11  8  1  0  0  0
  9  8  1  0  0  0
  9  4  2  0  0  0
  8  7  1  0  0  0
  3  4  1  0  0  0
  4  5  1  0  0  0
  7  5  1  0  0  0
  7 37  1  0  0  0
  5  6  2  0  0  0
 37 38  1  0  0  0
 38 39  2  0  0  0
 22 23  1  0  0  0
 20 21  1  0  0  0
M  END
> <minimizedAffinity>
-10.04757

$$$$
5VD0_8X7_A_401


 39 43  0  0  0  0  0  0  0  0999 V2000
  -16.6067    5.8941    2.3098 C   0  0  0  0  0  0  0  0  0  0  0  0
  -15.6165    4.9931    2.5337 N   0  0  0  0  0  0  0  0  0  0  0  0
  -15.8602    3.6820    2.8014 C   0  0  0  0  0  0  0  0  0  0  0  0
  -17.1961    3.2626    2.8460 C   0  0  0  0  0  0  0  0  0  0  0  0
  -17.8316    2.0197    3.0786 C   0  0  0  0  0  0  0  0  0  0  0  0
  -17.3569    0.8602    3.3360 O   0  0  0  0  0  0  0  0  0  0  0  0
  -19.1698    2.2670    2.9777 N   0  0  0  0  0  0  0  0  0  0  0  0
  -19.3904    3.5519    2.7237 N   0  0  0  0  0  0  0  0  0  0  0  0
  -18.2003    4.1729    2.6255 C   0  0  0  0  0  0  0  0  0  0  0  0
  -17.8943    5.4585    2.3622 N   0  0  0  0  0  0  0  0  0  0  0  0
  -20.5648    4.2187    2.5054 C   0  0  0  0  0  0  0  0  0  0  0  0
  -20.6522    4.9161    1.3569 N   0  0  0  0  0  0  0  0  0  0  0  0
  -21.7086    5.6652    0.9601 C   0  0  0  0  0  0  0  0  0  0  0  0
  -22.8221    5.7371    1.8232 C   0  0  0  0  0  0  0  0  0  0  0  0
  -22.7853    5.0453    3.0458 C   0  0  0  0  0  0  0  0  0  0  0  0
  -21.6530    4.2906    3.4039 C   0  0  0  0  0  0  0  0  0  0  0  0
  -21.6435    6.3473   -0.3634 C   0  0  0  0  0  0  0  0  0  0  0  0
  -20.2979    7.1058   -0.5359 C   0  0  0  0  0  0  0  0  0  0  0  0
  -22.8193    7.3592   -0.4790 C   0  0  0  0  0  0  0  0  0  0  0  0
  -21.7620    5.4016   -1.4323 O   0  0  0  0  0  0  0  0  0  0  0  0
  -21.0365    4.7600   -1.3783 H   0  0  0  0  0  0  0  0  0  0  0  0
  -16.2504    7.1813    2.0479 N   0  0  0  0  0  0  0  0  0  0  0  0
  -15.3965    7.4789    2.4372 H   0  0  0  0  0  0  0  0  0  0  0  0
  -18.4892   10.1429   -0.0256 C   0  0  0  0  0  0  0  0  0  0  0  0
  -17.5335    9.3459   -0.7150 C   0  0  0  0  0  0  0  0  0  0  0  0
  -16.7760    8.3621   -0.0677 C   0  0  0  0  0  0  0  0  0  0  0  0
  -16.9292    8.1142    1.3115 C   0  0  0  0  0  0  0  0  0  0  0  0
  -17.8689    8.8874    2.0126 C   0  0  0  0  0  0  0  0  0  0  0  0
  -18.6256    9.8736    1.3615 C   0  0  0  0  0  0  0  0  0  0  0  0
  -22.8781   13.2748   -1.5139 C   0  0  0  0  0  0  0  0  0  0  0  0
  -21.4791   12.7727   -1.4803 N   0  0  0  0  0  0  0  0  0  0  0  0
  -21.3802   11.3450   -1.8952 C   0  0  0  0  0  0  0  0  0  0  0  0
  -19.8935   10.9204   -1.9594 C   0  0  0  0  0  0  0  0  0  0  0  0
  -19.2542   11.1303   -0.6684 N   0  0  0  0  0  0  0  0  0  0  0  0
  -19.3059   12.5301   -0.2612 C   0  0  0  0  0  0  0  0  0  0  0  0
  -20.7790   13.0229   -0.1827 C   0  0  0  0  0  0  0  0  0  0  0  0
  -20.1516    1.2263    3.1801 C   0  0  0  0  0  0  0  0  0  0  0  0
  -20.4396    1.1901    4.6012 C   0  0  0  0  0  0  0  0  0  0  0  0
  -19.9960    0.2323    5.4239 C   0  0  0  0  0  0  0  0  0  0  0  0
 30 31  1  0  0  0
 31 32  1  0  0  0
 31 36  1  0  0  0
 32 33  1  0  0  0
 36 35  1  0  0  0
 33 34  1  0  0  0
 35 34  1  0  0  0
 34 24  1  0  0  0
 24 29  2  0  0  0
 24 25  1  0  0  0
 29 28  1  0  0  0
 25 26  2  0  0  0
 28 27  2  0  0  0
 26 27  1  0  0  0
 27 22  1  0  0  0
 22  1  1  0  0  0
 15 14  2  0  0  0
 15 16  1  0  0  0
 14 13  1  0  0  0
 18 17  1  0  0  0
  1 10  2  0  0  0
  1  2  1  0  0  0
 16 11  2  0  0  0
 10  9  1  0  0  0
 13 17  1  0  0  0
 13 12  2  0  0  0
 20 17  1  0  0  0
 17 19  1  0  0  0
  2  3  2  0  0  0
 11 12  1  0  0  0
 11  8  1  0  0  0
  9  8  1  0  0  0
  9  4  2  0  0  0
  8  7  1  0  0  0
  3  4  1  0  0  0
  4  5  1  0  0  0
  7  5  1  0  0  0
  7 37  1  0  0  0
  5  6  2  0  0  0
 37 38  1  0  0  0
 38 39  2  0  0  0
 22 23  1  0  0  0
 20 21  1  0  0  0
M  END
> <minimizedAffinity>
-9.97763

$$$$
5VD0_8X7_A_401


 39 43  0  0  0  0  0  0  0  0999 V2000
  -16.4388    8.7817   -0.0859 C   0  0  0  0  0  0  0  0  0  0  0  0
  -16.2038   10.1064   -0.2657 N   0  0  0  0  0  0  0  0  0  0  0  0
  -17.1926   10.9996   -0.5389 C   0  0  0  0  0  0  0  0  0  0  0  0
  -18.5025   10.5128   -0.6371 C   0  0  0  0  0  0  0  0  0  0  0  0
  -19.7597   11.1109   -0.8917 C   0  0  0  0  0  0  0  0  0  0  0  0
  -20.0890   12.3245   -1.1253 O   0  0  0  0  0  0  0  0  0  0  0  0
  -20.6666   10.0924   -0.8468 N   0  0  0  0  0  0  0  0  0  0  0  0
  -20.0598    8.9356   -0.6065 N   0  0  0  0  0  0  0  0  0  0  0  0
  -18.7428    9.1723   -0.4613 C   0  0  0  0  0  0  0  0  0  0  0  0
  -17.7204    8.3376   -0.1899 N   0  0  0  0  0  0  0  0  0  0  0  0
  -20.5837    7.6830   -0.4391 C   0  0  0  0  0  0  0  0  0  0  0  0
  -20.2724    7.0530    0.7096 N   0  0  0  0  0  0  0  0  0  0  0  0
  -20.6604    5.8039    1.0616 C   0  0  0  0  0  0  0  0  0  0  0  0
  -21.4562    5.0826    0.1470 C   0  0  0  0  0  0  0  0  0  0  0  0
  -21.8007    5.6789   -1.0779 C   0  0  0  0  0  0  0  0  0  0  0  0
  -21.3581    6.9781   -1.3877 C   0  0  0  0  0  0  0  0  0  0  0  0
  -20.2459    5.2757    2.3921 C   0  0  0  0  0  0  0  0  0  0  0  0
  -19.3858    3.9901    2.2402 C   0  0  0  0  0  0  0  0  0  0  0  0
  -21.5130    4.9467    3.2324 C   0  0  0  0  0  0  0  0  0  0  0  0
  -19.4742    6.2457    3.1095 O   0  0  0  0  0  0  0  0  0  0  0  0
  -18.6777    6.4652    2.6014 H   0  0  0  0  0  0  0  0  0  0  0  0
  -15.3757    7.9767    0.1862 N   0  0  0  0  0  0  0  0  0  0  0  0
  -14.4973    8.3103   -0.1075 H   0  0  0  0  0  0  0  0  0  0  0  0
  -15.2217    4.1118    1.9530 C   0  0  0  0  0  0  0  0  0  0  0  0
  -15.9702    5.1557    2.5641 C   0  0  0  0  0  0  0  0  0  0  0  0
  -16.0444    6.4414    2.0144 C   0  0  0  0  0  0  0  0  0  0  0  0
  -15.3735    6.7618    0.8167 C   0  0  0  0  0  0  0  0  0  0  0  0
  -14.6299    5.7461    0.1940 C   0  0  0  0  0  0  0  0  0  0  0  0
  -14.5563    4.4590    0.7480 C   0  0  0  0  0  0  0  0  0  0  0  0
  -15.8644   -1.4149    2.5266 C   0  0  0  0  0  0  0  0  0  0  0  0
  -15.4501   -0.0248    2.8523 N   0  0  0  0  0  0  0  0  0  0  0  0
  -16.6132    0.8989    2.9725 C   0  0  0  0  0  0  0  0  0  0  0  0
  -16.1280    2.2942    3.4333 C   0  0  0  0  0  0  0  0  0  0  0  0
  -15.1441    2.8191    2.4973 N   0  0  0  0  0  0  0  0  0  0  0  0
  -13.9785    1.9481    2.3940 C   0  0  0  0  0  0  0  0  0  0  0  0
  -14.3999    0.5219    1.9386 C   0  0  0  0  0  0  0  0  0  0  0  0
  -22.0738   10.3176   -1.0861 C   0  0  0  0  0  0  0  0  0  0  0  0
  -22.6906   10.5377    0.2081 C   0  0  0  0  0  0  0  0  0  0  0  0
  -23.3290    9.5846    0.8974 C   0  0  0  0  0  0  0  0  0  0  0  0
 30 31  1  0  0  0
 31 32  1  0  0  0
 31 36  1  0  0  0
 32 33  1  0  0  0
 36 35  1  0  0  0
 33 34  1  0  0  0
 35 34  1  0  0  0
 34 24  1  0  0  0
 24 29  2  0  0  0
 24 25  1  0  0  0
 29 28  1  0  0  0
 25 26  2  0  0  0
 28 27  2  0  0  0
 26 27  1  0  0  0
 27 22  1  0  0  0
 22  1  1  0  0  0
 15 14  2  0  0  0
 15 16  1  0  0  0
 14 13  1  0  0  0
 18 17  1  0  0  0
  1 10  2  0  0  0
  1  2  1  0  0  0
 16 11  2  0  0  0
 10  9  1  0  0  0
 13 17  1  0  0  0
 13 12  2  0  0  0
 20 17  1  0  0  0
 17 19  1  0  0  0
  2  3  2  0  0  0
 11 12  1  0  0  0
 11  8  1  0  0  0
  9  8  1  0  0  0
  9  4  2  0  0  0
  8  7  1  0  0  0
  3  4  1  0  0  0
  4  5  1  0  0  0
  7  5  1  0  0  0
  7 37  1  0  0  0
  5  6  2  0  0  0
 37 38  1  0  0  0
 38 39  2  0  0  0
 22 23  1  0  0  0
 20 21  1  0  0  0
M  END
> <minimizedAffinity>
-9.83601

$$$$
