4Q3T_HAR_A_405
  RCSB PDB12061714203D
Coordinates from PDB:4Q3T:A:405 Model:1 without hydrogens
 13 12  0  0  0  0            999 V2000
  -44.4580  -17.2020   51.0330   N 0  0  0  0  0  0  0  0  0  0  0  0
  -43.5320  -18.2650   51.3930   C 0  0  0  0  0  0  0  0  0  0  0  0
  -42.2220  -17.6960   51.9440   C 0  0  0  0  0  0  0  0  0  0  0  0
  -42.2690  -16.3390   52.0800   O 0  0  0  0  0  0  0  0  0  0  0  0
  -43.1970  -19.2780   50.2790   C 0  0  0  0  0  0  0  0  0  0  0  0
  -42.0020  -18.8850   49.4340   C 0  0  0  0  0  0  0  0  0  0  0  0
  -41.6500  -20.1170   48.5950   C 0  0  0  0  0  0  0  0  0  0  0  0
  -40.3420  -20.0700   47.9670   N 0  0  0  0  0  0  0  0  0  0  0  0
  -40.1690  -20.1210   46.5440   C 0  0  0  0  0  0  0  0  0  0  0  0
  -41.4840  -20.1840   45.8320   N 0  0  0  0  0  0  0  0  0  0  0  0
  -38.9780  -20.0970   45.9860   N 0  0  0  0  0  0  0  0  0  0  0  0
  -41.5740  -20.2350   44.5020   O 0  0  0  0  0  0  0  0  0  0  0  0
  -41.1730  -18.2740   52.2870   O 0  0  0  0  0  0  0  0  0  0  0  0
  1  2  1  0  0  0  0
  2  3  1  0  0  0  0
  2  5  1  0  0  0  0
  3  4  2  0  0  0  0
  3 13  1  0  0  0  0
  5  6  1  0  0  0  0
  6  7  1  0  0  0  0
  7  8  1  0  0  0  0
  8  9  1  0  0  0  0
  9 10  1  0  0  0  0
  9 11  2  0  0  0  0
 10 12  1  0  0  0  0
A    1
N
A    2
CA
A    3
C
A    4
O
A    5
CB
A    6
CG
A    7
CD
A    8
NE
A    9
CZ
A   10
NH1
A   11
NH2
A   12
OH1
A   13
OXT
M  END
>  <InstanceId>
4Q3T_HAR_A_405

>  <ChemCompId>
HAR

>  <PdbId>
4Q3T

>  <ChainId>
A

>  <ResidueNumber>
405

>  <InsertionCode>


>  <Model>
1

>  <AltIds>


>  <MissingHeavyAtoms>
0

>  <ObservedFormula>
C6 N4 O3

>  <Name>
N-OMEGA-HYDROXY-L-ARGININE

>  <SystematicName>
(2S)-2-amino-5-[(N-hydroxycarbamimidoyl)amino]pentanoic acid

>  <Synonyms>


>  <Type>
L-PEPTIDE LINKING

>  <Formula>
C6 H14 N4 O3

>  <MolecularWeight>
190.2

>  <ModifiedDate>
2011-06-04

>  <Parent>
ARG

>  <OneLetterCode>
R

>  <SubcomponentList>


>  <AmbiguousFlag>
N

>  <InChI>
InChI=1S/C6H14N4O3/c7-4(5(11)12)2-1-3-9-6(8)10-13/h4,13H,1-3,7H2,(H,11,12)(H3,8,9,10)/t4-/m0/s1

>  <InChIKey>
FQWRAVYMZULPNK-BYPYZUCNSA-N

>  <SMILES>
C(C[C@@H](C(=O)O)N)CNC(=N)NO

$$$$
