4Q3T_HAR_A_405


 20 19  0  0  0  0  0  0  0  0999 V2000
  -42.0433  -19.8796   49.8763 C   0  0  0  0  0  0  0  0  0  0  0  0
  -43.3222  -19.1150   50.1521 C   0  0  0  0  0  0  0  0  0  0  0  0
  -43.5738  -17.1486   51.7454 N   0  0  0  0  0  0  0  0  0  0  0  0
  -43.1004  -17.6183   50.4522 C   0  0  0  0  0  0  0  0  0  0  0  0
  -43.3774  -16.1520   51.8378 H   0  0  0  0  0  0  0  0  0  0  0  0
  -43.0966  -17.6595   52.4881 H   0  0  0  0  0  0  0  0  0  0  0  0
  -43.7041  -16.7977   49.3095 C   0  0  0  0  0  0  0  0  0  0  0  0
  -44.9776  -17.1888   49.0140 O   0  0  0  0  0  0  0  0  0  0  0  0
  -43.2238  -15.8537   48.6534 O   0  0  0  0  0  0  0  0  0  0  0  0
  -42.3522  -15.5575   48.8281 H   0  0  0  0  0  0  0  0  0  0  0  0
  -41.8068  -19.7835   48.3662 C   0  0  0  0  0  0  0  0  0  0  0  0
  -41.3807  -21.0212   47.7386 N   0  0  0  0  0  0  0  0  0  0  0  0
  -41.7273  -21.8737   48.0885 H   0  0  0  0  0  0  0  0  0  0  0  0
  -40.4736  -21.0486   46.6278 C   0  0  0  0  0  0  0  0  0  0  0  0
  -40.2865  -22.1337   45.9081 N   0  0  0  0  0  0  0  0  0  0  0  0
  -40.7855  -22.9560   46.1184 H   0  0  0  0  0  0  0  0  0  0  0  0
  -39.7969  -19.7272   46.4376 N   0  0  0  0  0  0  0  0  0  0  0  0
  -38.7346  -19.5767   45.6449 O   0  0  0  0  0  0  0  0  0  0  0  0
  -40.1485  -18.9410   46.9145 H   0  0  0  0  0  0  0  0  0  0  0  0
  -38.5051  -20.4307   45.2461 H   0  0  0  0  0  0  0  0  0  0  0  0
  3  4  1  0  0  0
  4  7  1  0  0  0
  4  2  1  0  0  0
  7  8  2  0  0  0
  7  9  1  0  0  0
  2  1  1  0  0  0
  1 11  1  0  0  0
 11 12  1  0  0  0
 12 14  1  0  0  0
 14 17  1  0  0  0
 14 15  2  0  0  0
 17 18  1  0  0  0
  3  5  1  0  0  0
  3  6  1  0  0  0
 12 13  1  0  0  0
 17 19  1  0  0  0
 15 16  1  0  0  0
 18 20  1  0  0  0
  9 10  1  0  0  0
M  END
> <minimizedAffinity>
-7.77745

$$$$
4Q3T_HAR_A_405


 20 19  0  0  0  0  0  0  0  0999 V2000
  -42.1738  -19.7672   50.0561 C   0  0  0  0  0  0  0  0  0  0  0  0
  -41.5489  -18.6462   50.8621 C   0  0  0  0  0  0  0  0  0  0  0  0
  -43.5032  -17.0336   50.6415 N   0  0  0  0  0  0  0  0  0  0  0  0
  -42.5779  -17.7144   51.5345 C   0  0  0  0  0  0  0  0  0  0  0  0
  -44.1344  -16.4478   51.1881 H   0  0  0  0  0  0  0  0  0  0  0  0
  -44.0447  -17.7245   50.1220 H   0  0  0  0  0  0  0  0  0  0  0  0
  -41.8263  -16.7167   52.4195 C   0  0  0  0  0  0  0  0  0  0  0  0
  -40.4729  -16.8339   52.2898 O   0  0  0  0  0  0  0  0  0  0  0  0
  -42.2578  -15.8403   53.1928 O   0  0  0  0  0  0  0  0  0  0  0  0
  -43.1812  -15.7302   53.3075 H   0  0  0  0  0  0  0  0  0  0  0  0
  -41.6520  -19.6050   48.6253 C   0  0  0  0  0  0  0  0  0  0  0  0
  -41.4527  -20.8508   47.9073 N   0  0  0  0  0  0  0  0  0  0  0  0
  -41.9269  -21.6566   48.2156 H   0  0  0  0  0  0  0  0  0  0  0  0
  -40.5906  -20.9517   46.7653 C   0  0  0  0  0  0  0  0  0  0  0  0
  -40.4679  -22.0690   46.0819 N   0  0  0  0  0  0  0  0  0  0  0  0
  -40.9856  -22.8648   46.3426 H   0  0  0  0  0  0  0  0  0  0  0  0
  -39.8779  -19.6628   46.4986 N   0  0  0  0  0  0  0  0  0  0  0  0
  -38.8004  -19.5917   45.7153 O   0  0  0  0  0  0  0  0  0  0  0  0
  -40.2165  -18.8381   46.9162 H   0  0  0  0  0  0  0  0  0  0  0  0
  -38.5868  -20.4757   45.3782 H   0  0  0  0  0  0  0  0  0  0  0  0
  3  4  1  0  0  0
  4  7  1  0  0  0
  4  2  1  0  0  0
  7  8  2  0  0  0
  7  9  1  0  0  0
  2  1  1  0  0  0
  1 11  1  0  0  0
 11 12  1  0  0  0
 12 14  1  0  0  0
 14 17  1  0  0  0
 14 15  2  0  0  0
 17 18  1  0  0  0
  3  5  1  0  0  0
  3  6  1  0  0  0
 12 13  1  0  0  0
 17 19  1  0  0  0
 15 16  1  0  0  0
 18 20  1  0  0  0
  9 10  1  0  0  0
M  END
> <minimizedAffinity>
-7.38041

$$$$
4Q3T_HAR_A_405


 20 19  0  0  0  0  0  0  0  0999 V2000
  -41.8671  -20.6005   49.4955 C   0  0  0  0  0  0  0  0  0  0  0  0
  -42.3226  -19.7933   50.6944 C   0  0  0  0  0  0  0  0  0  0  0  0
  -40.3645  -19.2432   52.2214 N   0  0  0  0  0  0  0  0  0  0  0  0
  -41.2780  -18.7728   51.1912 C   0  0  0  0  0  0  0  0  0  0  0  0
  -39.7213  -18.4929   52.4739 H   0  0  0  0  0  0  0  0  0  0  0  0
  -39.8351  -20.0403   51.8681 H   0  0  0  0  0  0  0  0  0  0  0  0
  -42.0099  -17.5041   51.6366 C   0  0  0  0  0  0  0  0  0  0  0  0
  -41.2580  -16.7511   52.4909 O   0  0  0  0  0  0  0  0  0  0  0  0
  -43.1375  -17.0735   51.3282 O   0  0  0  0  0  0  0  0  0  0  0  0
  -43.6824  -17.5632   50.7440 H   0  0  0  0  0  0  0  0  0  0  0  0
  -41.8168  -19.6227   48.3179 C   0  0  0  0  0  0  0  0  0  0  0  0
  -40.4936  -19.4144   47.7582 N   0  0  0  0  0  0  0  0  0  0  0  0
  -39.8927  -18.7658   48.1911 H   0  0  0  0  0  0  0  0  0  0  0  0
  -40.0291  -20.1183   46.5979 C   0  0  0  0  0  0  0  0  0  0  0  0
  -39.1234  -19.6094   45.7910 N   0  0  0  0  0  0  0  0  0  0  0  0
  -38.7348  -18.7253   45.9822 H   0  0  0  0  0  0  0  0  0  0  0  0
  -40.7118  -21.4417   46.4475 N   0  0  0  0  0  0  0  0  0  0  0  0
  -40.0673  -22.5348   46.0359 O   0  0  0  0  0  0  0  0  0  0  0  0
  -41.6708  -21.5079   46.6599 H   0  0  0  0  0  0  0  0  0  0  0  0
  -39.1374  -22.3172   45.8662 H   0  0  0  0  0  0  0  0  0  0  0  0
  3  4  1  0  0  0
  4  7  1  0  0  0
  4  2  1  0  0  0
  7  8  2  0  0  0
  7  9  1  0  0  0
  2  1  1  0  0  0
  1 11  1  0  0  0
 11 12  1  0  0  0
 12 14  1  0  0  0
 14 17  1  0  0  0
 14 15  2  0  0  0
 17 18  1  0  0  0
  3  5  1  0  0  0
  3  6  1  0  0  0
 12 13  1  0  0  0
 17 19  1  0  0  0
 15 16  1  0  0  0
 18 20  1  0  0  0
  9 10  1  0  0  0
M  END
> <minimizedAffinity>
-7.32131

$$$$
4Q3T_HAR_A_405


 20 19  0  0  0  0  0  0  0  0999 V2000
  -42.6932  -19.8009   49.0410 C   0  0  0  0  0  0  0  0  0  0  0  0
  -42.3165  -18.3350   48.9654 C   0  0  0  0  0  0  0  0  0  0  0  0
  -43.2147  -15.9726   48.6814 N   0  0  0  0  0  0  0  0  0  0  0  0
  -43.5236  -17.3899   48.7952 C   0  0  0  0  0  0  0  0  0  0  0  0
  -44.0800  -15.4436   48.5735 H   0  0  0  0  0  0  0  0  0  0  0  0
  -42.6184  -15.8187   47.8683 H   0  0  0  0  0  0  0  0  0  0  0  0
  -44.5120  -17.6521   49.9343 C   0  0  0  0  0  0  0  0  0  0  0  0
  -45.7802  -17.8604   49.4755 O   0  0  0  0  0  0  0  0  0  0  0  0
  -44.3259  -17.7169   51.1645 O   0  0  0  0  0  0  0  0  0  0  0  0
  -43.4684  -17.5795   51.5164 H   0  0  0  0  0  0  0  0  0  0  0  0
  -41.5394  -20.5712   48.3922 C   0  0  0  0  0  0  0  0  0  0  0  0
  -40.8443  -19.8509   47.3408 N   0  0  0  0  0  0  0  0  0  0  0  0
  -40.9070  -18.8687   47.3179 H   0  0  0  0  0  0  0  0  0  0  0  0
  -40.0694  -20.5168   46.3340 C   0  0  0  0  0  0  0  0  0  0  0  0
  -39.0900  -19.9130   45.6963 N   0  0  0  0  0  0  0  0  0  0  0  0
  -38.8623  -18.9802   45.9138 H   0  0  0  0  0  0  0  0  0  0  0  0
  -40.5358  -21.9230   46.1215 N   0  0  0  0  0  0  0  0  0  0  0  0
  -39.7593  -22.9784   46.3723 O   0  0  0  0  0  0  0  0  0  0  0  0
  -41.4484  -22.0746   45.7846 H   0  0  0  0  0  0  0  0  0  0  0  0
  -38.8965  -22.6753   46.6957 H   0  0  0  0  0  0  0  0  0  0  0  0
  3  4  1  0  0  0
  4  7  1  0  0  0
  4  2  1  0  0  0
  7  8  2  0  0  0
  7  9  1  0  0  0
  2  1  1  0  0  0
  1 11  1  0  0  0
 11 12  1  0  0  0
 12 14  1  0  0  0
 14 17  1  0  0  0
 14 15  2  0  0  0
 17 18  1  0  0  0
  3  5  1  0  0  0
  3  6  1  0  0  0
 12 13  1  0  0  0
 17 19  1  0  0  0
 15 16  1  0  0  0
 18 20  1  0  0  0
  9 10  1  0  0  0
M  END
> <minimizedAffinity>
-7.26847

$$$$
4Q3T_HAR_A_405


 20 19  0  0  0  0  0  0  0  0999 V2000
  -42.0153  -20.6775   50.2164 C   0  0  0  0  0  0  0  0  0  0  0  0
  -42.0236  -20.8518   48.7110 C   0  0  0  0  0  0  0  0  0  0  0  0
  -40.8852  -18.6860   48.0167 N   0  0  0  0  0  0  0  0  0  0  0  0
  -40.8567  -20.1406   47.9955 C   0  0  0  0  0  0  0  0  0  0  0  0
  -40.0728  -18.3227   47.5182 H   0  0  0  0  0  0  0  0  0  0  0  0
  -40.8652  -18.3596   48.9829 H   0  0  0  0  0  0  0  0  0  0  0  0
  -40.7672  -20.6724   46.5628 C   0  0  0  0  0  0  0  0  0  0  0  0
  -40.1836  -21.9048   46.5084 O   0  0  0  0  0  0  0  0  0  0  0  0
  -41.1514  -20.1684   45.4902 O   0  0  0  0  0  0  0  0  0  0  0  0
  -41.5567  -19.3236   45.4881 H   0  0  0  0  0  0  0  0  0  0  0  0
  -43.3507  -20.0196   50.5763 C   0  0  0  0  0  0  0  0  0  0  0  0
  -43.6716  -18.8346   49.8016 N   0  0  0  0  0  0  0  0  0  0  0  0
  -43.8869  -18.9369   48.8464 H   0  0  0  0  0  0  0  0  0  0  0  0
  -43.6868  -17.5202   50.3758 C   0  0  0  0  0  0  0  0  0  0  0  0
  -43.3667  -17.3061   51.6336 N   0  0  0  0  0  0  0  0  0  0  0  0
  -43.0951  -18.0586   52.2074 H   0  0  0  0  0  0  0  0  0  0  0  0
  -44.1177  -16.4897   49.3795 N   0  0  0  0  0  0  0  0  0  0  0  0
  -43.2440  -15.7644   48.6794 O   0  0  0  0  0  0  0  0  0  0  0  0
  -45.0803  -16.3419   49.2357 H   0  0  0  0  0  0  0  0  0  0  0  0
  -42.3411  -16.0190   48.9263 H   0  0  0  0  0  0  0  0  0  0  0  0
  3  4  1  0  0  0
  4  7  1  0  0  0
  4  2  1  0  0  0
  7  8  2  0  0  0
  7  9  1  0  0  0
  2  1  1  0  0  0
  1 11  1  0  0  0
 11 12  1  0  0  0
 12 14  1  0  0  0
 14 17  1  0  0  0
 14 15  2  0  0  0
 17 18  1  0  0  0
  3  5  1  0  0  0
  3  6  1  0  0  0
 12 13  1  0  0  0
 17 19  1  0  0  0
 15 16  1  0  0  0
 18 20  1  0  0  0
  9 10  1  0  0  0
M  END
> <minimizedAffinity>
-7.17164

$$$$
4Q3T_HAR_A_405


 20 19  0  0  0  0  0  0  0  0999 V2000
  -41.6415  -19.1679   50.1281 C   0  0  0  0  0  0  0  0  0  0  0  0
  -43.0396  -19.6773   50.4154 C   0  0  0  0  0  0  0  0  0  0  0  0
  -43.6638  -17.2175   50.5839 N   0  0  0  0  0  0  0  0  0  0  0  0
  -44.1237  -18.5810   50.3681 C   0  0  0  0  0  0  0  0  0  0  0  0
  -44.4573  -16.5788   50.5317 H   0  0  0  0  0  0  0  0  0  0  0  0
  -42.9814  -16.9714   49.8668 H   0  0  0  0  0  0  0  0  0  0  0  0
  -45.2359  -18.9530   51.3519 C   0  0  0  0  0  0  0  0  0  0  0  0
  -46.3188  -19.4936   50.7216 O   0  0  0  0  0  0  0  0  0  0  0  0
  -45.2816  -18.8526   52.5929 O   0  0  0  0  0  0  0  0  0  0  0  0
  -44.5568  -18.4863   53.0603 H   0  0  0  0  0  0  0  0  0  0  0  0
  -41.5048  -19.1366   48.6030 C   0  0  0  0  0  0  0  0  0  0  0  0
  -41.5074  -20.4413   47.9665 N   0  0  0  0  0  0  0  0  0  0  0  0
  -42.1095  -21.1376   48.3156 H   0  0  0  0  0  0  0  0  0  0  0  0
  -40.6656  -20.7539   46.8480 C   0  0  0  0  0  0  0  0  0  0  0  0
  -40.6811  -21.9375   46.2741 N   0  0  0  0  0  0  0  0  0  0  0  0
  -41.2917  -22.6361   46.6032 H   0  0  0  0  0  0  0  0  0  0  0  0
  -39.8014  -19.5923   46.4685 N   0  0  0  0  0  0  0  0  0  0  0  0
  -38.7605  -19.7165   45.6434 O   0  0  0  0  0  0  0  0  0  0  0  0
  -40.0085  -18.7049   46.8411 H   0  0  0  0  0  0  0  0  0  0  0  0
  -38.6813  -20.6406   45.3597 H   0  0  0  0  0  0  0  0  0  0  0  0
  3  4  1  0  0  0
  4  7  1  0  0  0
  4  2  1  0  0  0
  7  8  2  0  0  0
  7  9  1  0  0  0
  2  1  1  0  0  0
  1 11  1  0  0  0
 11 12  1  0  0  0
 12 14  1  0  0  0
 14 17  1  0  0  0
 14 15  2  0  0  0
 17 18  1  0  0  0
  3  5  1  0  0  0
  3  6  1  0  0  0
 12 13  1  0  0  0
 17 19  1  0  0  0
 15 16  1  0  0  0
 18 20  1  0  0  0
  9 10  1  0  0  0
M  END
> <minimizedAffinity>
-6.72696

$$$$
4Q3T_HAR_A_405


 20 19  0  0  0  0  0  0  0  0999 V2000
  -42.1214  -19.5007   50.7306 C   0  0  0  0  0  0  0  0  0  0  0  0
  -41.7476  -18.1453   51.2960 C   0  0  0  0  0  0  0  0  0  0  0  0
  -43.9250  -17.9063   52.5885 N   0  0  0  0  0  0  0  0  0  0  0  0
  -42.4742  -17.7975   52.6115 C   0  0  0  0  0  0  0  0  0  0  0  0
  -44.2993  -17.6552   53.5034 H   0  0  0  0  0  0  0  0  0  0  0  0
  -44.1905  -18.8652   52.3640 H   0  0  0  0  0  0  0  0  0  0  0  0
  -42.0300  -16.4026   53.0592 C   0  0  0  0  0  0  0  0  0  0  0  0
  -42.3552  -16.1538   54.3609 O   0  0  0  0  0  0  0  0  0  0  0  0
  -41.4247  -15.5102   52.4352 O   0  0  0  0  0  0  0  0  0  0  0  0
  -41.1849  -15.6451   51.5395 H   0  0  0  0  0  0  0  0  0  0  0  0
  -43.0126  -19.2245   49.5160 C   0  0  0  0  0  0  0  0  0  0  0  0
  -44.3680  -18.8163   49.8381 N   0  0  0  0  0  0  0  0  0  0  0  0
  -44.8985  -19.3758   50.4502 H   0  0  0  0  0  0  0  0  0  0  0  0
  -44.9631  -17.6283   49.2977 C   0  0  0  0  0  0  0  0  0  0  0  0
  -46.1006  -17.6576   48.6375 N   0  0  0  0  0  0  0  0  0  0  0  0
  -46.5754  -18.5110   48.5127 H   0  0  0  0  0  0  0  0  0  0  0  0
  -44.1244  -16.4194   49.5718 N   0  0  0  0  0  0  0  0  0  0  0  0
  -43.2941  -15.9056   48.6628 O   0  0  0  0  0  0  0  0  0  0  0  0
  -44.1877  -15.9880   50.4544 H   0  0  0  0  0  0  0  0  0  0  0  0
  -43.3389  -16.4323   47.8496 H   0  0  0  0  0  0  0  0  0  0  0  0
  3  4  1  0  0  0
  4  7  1  0  0  0
  4  2  1  0  0  0
  7  8  2  0  0  0
  7  9  1  0  0  0
  2  1  1  0  0  0
  1 11  1  0  0  0
 11 12  1  0  0  0
 12 14  1  0  0  0
 14 17  1  0  0  0
 14 15  2  0  0  0
 17 18  1  0  0  0
  3  5  1  0  0  0
  3  6  1  0  0  0
 12 13  1  0  0  0
 17 19  1  0  0  0
 15 16  1  0  0  0
 18 20  1  0  0  0
  9 10  1  0  0  0
M  END
> <minimizedAffinity>
-6.70996

$$$$
4Q3T_HAR_A_405


 20 19  0  0  0  0  0  0  0  0999 V2000
  -43.9178  -19.6541   51.9739 C   0  0  0  0  0  0  0  0  0  0  0  0
  -43.3065  -19.1494   50.6824 C   0  0  0  0  0  0  0  0  0  0  0  0
  -40.8222  -18.7360   51.0372 N   0  0  0  0  0  0  0  0  0  0  0  0
  -41.8464  -19.5983   50.4675 C   0  0  0  0  0  0  0  0  0  0  0  0
  -39.9006  -19.1247   50.8371 H   0  0  0  0  0  0  0  0  0  0  0  0
  -40.9531  -18.6738   52.0468 H   0  0  0  0  0  0  0  0  0  0  0  0
  -41.6187  -19.8144   48.9692 C   0  0  0  0  0  0  0  0  0  0  0  0
  -41.9665  -21.0732   48.5737 O   0  0  0  0  0  0  0  0  0  0  0  0
  -41.1964  -19.0317   48.0967 O   0  0  0  0  0  0  0  0  0  0  0  0
  -40.9479  -18.1591   48.3308 H   0  0  0  0  0  0  0  0  0  0  0  0
  -44.1058  -18.4231   52.8656 C   0  0  0  0  0  0  0  0  0  0  0  0
  -43.4127  -17.2319   52.4096 N   0  0  0  0  0  0  0  0  0  0  0  0
  -43.5905  -16.8990   51.5003 H   0  0  0  0  0  0  0  0  0  0  0  0
  -42.4784  -16.5218   53.2343 C   0  0  0  0  0  0  0  0  0  0  0  0
  -42.6303  -16.4289   54.5377 N   0  0  0  0  0  0  0  0  0  0  0  0
  -43.3967  -16.8644   54.9762 H   0  0  0  0  0  0  0  0  0  0  0  0
  -41.3740  -15.9207   52.4223 N   0  0  0  0  0  0  0  0  0  0  0  0
  -40.0877  -16.1753   52.6674 O   0  0  0  0  0  0  0  0  0  0  0  0
  -41.6053  -15.3159   51.6807 H   0  0  0  0  0  0  0  0  0  0  0  0
  -40.0160  -16.7822   53.4207 H   0  0  0  0  0  0  0  0  0  0  0  0
  3  4  1  0  0  0
  4  7  1  0  0  0
  4  2  1  0  0  0
  7  8  2  0  0  0
  7  9  1  0  0  0
  2  1  1  0  0  0
  1 11  1  0  0  0
 11 12  1  0  0  0
 12 14  1  0  0  0
 14 17  1  0  0  0
 14 15  2  0  0  0
 17 18  1  0  0  0
  3  5  1  0  0  0
  3  6  1  0  0  0
 12 13  1  0  0  0
 17 19  1  0  0  0
 15 16  1  0  0  0
 18 20  1  0  0  0
  9 10  1  0  0  0
M  END
> <minimizedAffinity>
-6.59308

$$$$
4Q3T_HAR_A_405


 20 19  0  0  0  0  0  0  0  0999 V2000
  -41.2692  -19.8147   51.9098 C   0  0  0  0  0  0  0  0  0  0  0  0
  -41.1789  -18.3134   51.7237 C   0  0  0  0  0  0  0  0  0  0  0  0
  -43.4377  -17.2687   51.1996 N   0  0  0  0  0  0  0  0  0  0  0  0
  -42.4281  -17.5496   52.2089 C   0  0  0  0  0  0  0  0  0  0  0  0
  -44.2143  -16.7638   51.6267 H   0  0  0  0  0  0  0  0  0  0  0  0
  -43.7781  -18.1459   50.8058 H   0  0  0  0  0  0  0  0  0  0  0  0
  -41.9731  -16.2670   52.9098 C   0  0  0  0  0  0  0  0  0  0  0  0
  -42.2671  -16.2784   54.2423 O   0  0  0  0  0  0  0  0  0  0  0  0
  -41.3826  -15.2673   52.4580 O   0  0  0  0  0  0  0  0  0  0  0  0
  -41.1642  -15.2237   51.5479 H   0  0  0  0  0  0  0  0  0  0  0  0
  -42.1655  -20.3307   50.7802 C   0  0  0  0  0  0  0  0  0  0  0  0
  -41.4937  -20.5085   49.5057 N   0  0  0  0  0  0  0  0  0  0  0  0
  -41.0518  -21.3682   49.3188 H   0  0  0  0  0  0  0  0  0  0  0  0
  -41.4497  -19.4785   48.5084 C   0  0  0  0  0  0  0  0  0  0  0  0
  -40.4275  -19.3433   47.6916 N   0  0  0  0  0  0  0  0  0  0  0  0
  -39.6678  -19.9672   47.7462 H   0  0  0  0  0  0  0  0  0  0  0  0
  -42.6734  -18.6179   48.5523 N   0  0  0  0  0  0  0  0  0  0  0  0
  -42.6382  -17.3124   48.2799 O   0  0  0  0  0  0  0  0  0  0  0  0
  -43.5351  -19.0299   48.7907 H   0  0  0  0  0  0  0  0  0  0  0  0
  -41.7293  -17.0516   48.0638 H   0  0  0  0  0  0  0  0  0  0  0  0
  3  4  1  0  0  0
  4  7  1  0  0  0
  4  2  1  0  0  0
  7  8  2  0  0  0
  7  9  1  0  0  0
  2  1  1  0  0  0
  1 11  1  0  0  0
 11 12  1  0  0  0
 12 14  1  0  0  0
 14 17  1  0  0  0
 14 15  2  0  0  0
 17 18  1  0  0  0
  3  5  1  0  0  0
  3  6  1  0  0  0
 12 13  1  0  0  0
 17 19  1  0  0  0
 15 16  1  0  0  0
 18 20  1  0  0  0
  9 10  1  0  0  0
M  END
> <minimizedAffinity>
-6.48570

$$$$
4Q3T_HAR_A_405


 20 19  0  0  0  0  0  0  0  0999 V2000
  -41.9241  -20.0191   50.5374 C   0  0  0  0  0  0  0  0  0  0  0  0
  -41.5439  -19.3302   51.8325 C   0  0  0  0  0  0  0  0  0  0  0  0
  -39.9108  -17.3878   52.0008 N   0  0  0  0  0  0  0  0  0  0  0  0
  -41.2609  -17.8220   51.6757 C   0  0  0  0  0  0  0  0  0  0  0  0
  -39.8353  -16.3800   51.8629 H   0  0  0  0  0  0  0  0  0  0  0  0
  -39.2447  -17.8649   51.3933 H   0  0  0  0  0  0  0  0  0  0  0  0
  -42.3030  -17.0443   52.4836 C   0  0  0  0  0  0  0  0  0  0  0  0
  -41.7274  -16.2375   53.4217 O   0  0  0  0  0  0  0  0  0  0  0  0
  -43.5457  -17.0318   52.3965 O   0  0  0  0  0  0  0  0  0  0  0  0
  -43.9765  -17.5726   51.7640 H   0  0  0  0  0  0  0  0  0  0  0  0
  -41.9519  -18.9255   49.4655 C   0  0  0  0  0  0  0  0  0  0  0  0
  -43.2798  -18.5551   49.0107 N   0  0  0  0  0  0  0  0  0  0  0  0
  -43.9066  -19.2674   48.7481 H   0  0  0  0  0  0  0  0  0  0  0  0
  -43.7128  -17.1900   48.9297 C   0  0  0  0  0  0  0  0  0  0  0  0
  -43.0467  -16.2878   48.2423 N   0  0  0  0  0  0  0  0  0  0  0  0
  -42.2313  -16.5443   47.7538 H   0  0  0  0  0  0  0  0  0  0  0  0
  -44.9625  -16.9615   49.7212 N   0  0  0  0  0  0  0  0  0  0  0  0
  -46.0976  -17.6149   49.4676 O   0  0  0  0  0  0  0  0  0  0  0  0
  -44.9462  -16.3056   50.4552 H   0  0  0  0  0  0  0  0  0  0  0  0
  -45.9618  -18.2222   48.7236 H   0  0  0  0  0  0  0  0  0  0  0  0
  3  4  1  0  0  0
  4  7  1  0  0  0
  4  2  1  0  0  0
  7  8  2  0  0  0
  7  9  1  0  0  0
  2  1  1  0  0  0
  1 11  1  0  0  0
 11 12  1  0  0  0
 12 14  1  0  0  0
 14 17  1  0  0  0
 14 15  2  0  0  0
 17 18  1  0  0  0
  3  5  1  0  0  0
  3  6  1  0  0  0
 12 13  1  0  0  0
 17 19  1  0  0  0
 15 16  1  0  0  0
 18 20  1  0  0  0
  9 10  1  0  0  0
M  END
> <minimizedAffinity>
-6.41776

$$$$
