2C3L_IDZ_A_1274


 20 23  0  0  0  0  0  0  0  0999 V2000
   19.6853   -1.5422    8.7470 C   0  0  0  0  0  0  0  0  0  0  0  0
   20.3245   -2.6759    9.2704 C   0  0  0  0  0  0  0  0  0  0  0  0
   19.6089   -3.5911   10.0520 C   0  0  0  0  0  0  0  0  0  0  0  0
   18.2515   -3.3940   10.3037 C   0  0  0  0  0  0  0  0  0  0  0  0
   17.6242   -2.2968    9.7562 C   0  0  0  0  0  0  0  0  0  0  0  0
   16.3340   -1.7632    9.8138 C   0  0  0  0  0  0  0  0  0  0  0  0
   17.4448   -0.4102    8.6562 N   0  0  0  0  0  0  0  0  0  0  0  0
   18.3296   -1.3668    9.0054 C   0  0  0  0  0  0  0  0  0  0  0  0
   16.2915   -0.6234    9.1103 N   0  0  0  0  0  0  0  0  0  0  0  0
   17.6772    0.3715    8.1046 H   0  0  0  0  0  0  0  0  0  0  0  0
   15.2610   -2.3370   10.4838 C   0  0  0  0  0  0  0  0  0  0  0  0
   15.4089   -3.1475   11.5505 N   0  0  0  0  0  0  0  0  0  0  0  0
   14.2063   -3.5026   11.9437 C   0  0  0  0  0  0  0  0  0  0  0  0
   13.7715   -4.3458   12.9672 C   0  0  0  0  0  0  0  0  0  0  0  0
   12.3906   -4.5458   13.1538 C   0  0  0  0  0  0  0  0  0  0  0  0
   11.4808   -3.9250   12.2905 C   0  0  0  0  0  0  0  0  0  0  0  0
   11.9224   -3.0727   11.2614 C   0  0  0  0  0  0  0  0  0  0  0  0
   13.2946   -2.8558   11.0964 C   0  0  0  0  0  0  0  0  0  0  0  0
   13.9836   -2.1547   10.1928 N   0  0  0  0  0  0  0  0  0  0  0  0
   16.2610   -3.4229   11.9597 H   0  0  0  0  0  0  0  0  0  0  0  0
  1  2  2  0  0  0
  1  8  1  0  0  0
  2  3  1  0  0  0
  3  4  2  0  0  0
  4  5  1  0  0  0
  5  6  1  0  0  0
  5  8  2  0  0  0
  6 11  1  0  0  0
  6  9  2  0  0  0
 11 12  1  0  0  0
 11 19  2  0  0  0
 12 13  1  0  0  0
 13 14  2  0  0  0
 13 18  1  0  0  0
 14 15  1  0  0  0
 15 16  2  0  0  0
 16 17  1  0  0  0
 17 18  2  0  0  0
 18 19  1  0  0  0
  7  8  1  0  0  0
  7  9  1  0  0  0
 12 20  1  0  0  0
  7 10  1  0  0  0
M  END
> <minimizedAffinity>
-8.11914

$$$$
2C3L_IDZ_A_1274


 20 23  0  0  0  0  0  0  0  0999 V2000
   19.6038   -2.7625    9.4649 C   0  0  0  0  0  0  0  0  0  0  0  0
   19.2106   -1.5943    8.7951 C   0  0  0  0  0  0  0  0  0  0  0  0
   17.8999   -1.1174    8.9192 C   0  0  0  0  0  0  0  0  0  0  0  0
   16.9782   -1.7885    9.7221 C   0  0  0  0  0  0  0  0  0  0  0  0
   17.3832   -2.9146   10.4040 C   0  0  0  0  0  0  0  0  0  0  0  0
   16.7591   -3.8416   11.2431 C   0  0  0  0  0  0  0  0  0  0  0  0
   18.7298   -4.5289   11.0221 N   0  0  0  0  0  0  0  0  0  0  0  0
   18.6706   -3.4140   10.2650 C   0  0  0  0  0  0  0  0  0  0  0  0
   17.6401   -4.7885   11.5940 N   0  0  0  0  0  0  0  0  0  0  0  0
   19.5396   -5.0807   11.1169 H   0  0  0  0  0  0  0  0  0  0  0  0
   15.4354   -3.7785   11.6592 C   0  0  0  0  0  0  0  0  0  0  0  0
   15.0209   -4.2236   12.8620 N   0  0  0  0  0  0  0  0  0  0  0  0
   13.7270   -4.0063   12.9366 C   0  0  0  0  0  0  0  0  0  0  0  0
   12.7895   -4.2936   13.9296 C   0  0  0  0  0  0  0  0  0  0  0  0
   11.4420   -3.9406   13.7264 C   0  0  0  0  0  0  0  0  0  0  0  0
   11.0604   -3.3406   12.5211 C   0  0  0  0  0  0  0  0  0  0  0  0
   12.0087   -3.0492   11.5231 C   0  0  0  0  0  0  0  0  0  0  0  0
   13.3512   -3.3778   11.7403 C   0  0  0  0  0  0  0  0  0  0  0  0
   14.4324   -3.2672   10.9647 N   0  0  0  0  0  0  0  0  0  0  0  0
   15.5838   -4.6355   13.5568 H   0  0  0  0  0  0  0  0  0  0  0  0
  1  2  2  0  0  0
  1  8  1  0  0  0
  2  3  1  0  0  0
  3  4  2  0  0  0
  4  5  1  0  0  0
  5  6  1  0  0  0
  5  8  2  0  0  0
  6 11  1  0  0  0
  6  9  2  0  0  0
 11 12  1  0  0  0
 11 19  2  0  0  0
 12 13  1  0  0  0
 13 14  2  0  0  0
 13 18  1  0  0  0
 14 15  1  0  0  0
 15 16  2  0  0  0
 16 17  1  0  0  0
 17 18  2  0  0  0
 18 19  1  0  0  0
  7  8  1  0  0  0
  7  9  1  0  0  0
 12 20  1  0  0  0
  7 10  1  0  0  0
M  END
> <minimizedAffinity>
-7.98562

$$$$
2C3L_IDZ_A_1274


 20 23  0  0  0  0  0  0  0  0999 V2000
   13.5241   -1.3461   10.1992 C   0  0  0  0  0  0  0  0  0  0  0  0
   13.4171   -2.5897   10.8395 C   0  0  0  0  0  0  0  0  0  0  0  0
   14.5384   -3.4196   10.9603 C   0  0  0  0  0  0  0  0  0  0  0  0
   15.7749   -3.0116   10.4609 C   0  0  0  0  0  0  0  0  0  0  0  0
   15.8782   -1.7740    9.8654 C   0  0  0  0  0  0  0  0  0  0  0  0
   16.9019   -1.0607    9.2362 C   0  0  0  0  0  0  0  0  0  0  0  0
   15.1950    0.1486    9.0664 N   0  0  0  0  0  0  0  0  0  0  0  0
   14.7676   -0.9557    9.7127 C   0  0  0  0  0  0  0  0  0  0  0  0
   16.4205    0.1065    8.7869 N   0  0  0  0  0  0  0  0  0  0  0  0
   14.6099    0.9067    8.8380 H   0  0  0  0  0  0  0  0  0  0  0  0
   18.2167   -1.4912    9.1124 C   0  0  0  0  0  0  0  0  0  0  0  0
   19.0616   -1.0138    8.1770 N   0  0  0  0  0  0  0  0  0  0  0  0
   20.2156   -1.6200    8.3440 C   0  0  0  0  0  0  0  0  0  0  0  0
   21.4213   -1.5371    7.6463 C   0  0  0  0  0  0  0  0  0  0  0  0
   22.5109   -2.3269    8.0596 C   0  0  0  0  0  0  0  0  0  0  0  0
   22.3566   -3.2048    9.1384 C   0  0  0  0  0  0  0  0  0  0  0  0
   21.1403   -3.2836    9.8420 C   0  0  0  0  0  0  0  0  0  0  0  0
   20.0683   -2.4774    9.4443 C   0  0  0  0  0  0  0  0  0  0  0  0
   18.8116   -2.3843    9.8858 N   0  0  0  0  0  0  0  0  0  0  0  0
   18.8527   -0.3358    7.4944 H   0  0  0  0  0  0  0  0  0  0  0  0
  1  2  2  0  0  0
  1  8  1  0  0  0
  2  3  1  0  0  0
  3  4  2  0  0  0
  4  5  1  0  0  0
  5  6  1  0  0  0
  5  8  2  0  0  0
  6 11  1  0  0  0
  6  9  2  0  0  0
 11 12  1  0  0  0
 11 19  2  0  0  0
 12 13  1  0  0  0
 13 14  2  0  0  0
 13 18  1  0  0  0
 14 15  1  0  0  0
 15 16  2  0  0  0
 16 17  1  0  0  0
 17 18  2  0  0  0
 18 19  1  0  0  0
  7  8  1  0  0  0
  7  9  1  0  0  0
 12 20  1  0  0  0
  7 10  1  0  0  0
M  END
> <minimizedAffinity>
-7.93089

$$$$
2C3L_IDZ_A_1274


 20 23  0  0  0  0  0  0  0  0999 V2000
   13.1075   -6.9353   14.1691 C   0  0  0  0  0  0  0  0  0  0  0  0
   12.1053   -6.0226   14.5303 C   0  0  0  0  0  0  0  0  0  0  0  0
   12.1156   -4.7220   14.0117 C   0  0  0  0  0  0  0  0  0  0  0  0
   13.1113   -4.3265   13.1190 C   0  0  0  0  0  0  0  0  0  0  0  0
   14.0708   -5.2402   12.7426 C   0  0  0  0  0  0  0  0  0  0  0  0
   15.2065   -5.2045   11.9292 C   0  0  0  0  0  0  0  0  0  0  0  0
   15.1610   -7.1410   12.7372 N   0  0  0  0  0  0  0  0  0  0  0  0
   14.0886   -6.5225   13.2732 C   0  0  0  0  0  0  0  0  0  0  0  0
   15.8140   -6.3987   11.9598 N   0  0  0  0  0  0  0  0  0  0  0  0
   15.4063   -8.0740   12.9336 H   0  0  0  0  0  0  0  0  0  0  0  0
   15.6276   -4.1049   11.1924 C   0  0  0  0  0  0  0  0  0  0  0  0
   16.9225   -3.8638   10.9065 N   0  0  0  0  0  0  0  0  0  0  0  0
   16.9686   -2.7607   10.1937 C   0  0  0  0  0  0  0  0  0  0  0  0
   18.0378   -2.0398    9.6602 C   0  0  0  0  0  0  0  0  0  0  0  0
   17.7787   -0.8656    8.9283 C   0  0  0  0  0  0  0  0  0  0  0  0
   16.4595   -0.4234    8.7778 C   0  0  0  0  0  0  0  0  0  0  0  0
   15.3833   -1.1545    9.3142 C   0  0  0  0  0  0  0  0  0  0  0  0
   15.6436   -2.3350   10.0183 C   0  0  0  0  0  0  0  0  0  0  0  0
   14.8396   -3.1828   10.6647 N   0  0  0  0  0  0  0  0  0  0  0  0
   17.6922   -4.4129   11.1811 H   0  0  0  0  0  0  0  0  0  0  0  0
  1  2  2  0  0  0
  1  8  1  0  0  0
  2  3  1  0  0  0
  3  4  2  0  0  0
  4  5  1  0  0  0
  5  6  1  0  0  0
  5  8  2  0  0  0
  6 11  1  0  0  0
  6  9  2  0  0  0
 11 12  1  0  0  0
 11 19  2  0  0  0
 12 13  1  0  0  0
 13 14  2  0  0  0
 13 18  1  0  0  0
 14 15  1  0  0  0
 15 16  2  0  0  0
 16 17  1  0  0  0
 17 18  2  0  0  0
 18 19  1  0  0  0
  7  8  1  0  0  0
  7  9  1  0  0  0
 12 20  1  0  0  0
  7 10  1  0  0  0
M  END
> <minimizedAffinity>
-7.86994

$$$$
2C3L_IDZ_A_1274


 20 23  0  0  0  0  0  0  0  0999 V2000
   11.8380   -5.2807   13.8989 C   0  0  0  0  0  0  0  0  0  0  0  0
   12.5002   -6.5108   14.0271 C   0  0  0  0  0  0  0  0  0  0  0  0
   13.7932   -6.6725   13.5146 C   0  0  0  0  0  0  0  0  0  0  0  0
   14.4413   -5.6090   12.8873 C   0  0  0  0  0  0  0  0  0  0  0  0
   13.7972   -4.3949   12.7975 C   0  0  0  0  0  0  0  0  0  0  0  0
   14.0980   -3.1545   12.2285 C   0  0  0  0  0  0  0  0  0  0  0  0
   12.1566   -2.9566   13.0008 N   0  0  0  0  0  0  0  0  0  0  0  0
   12.5042   -4.2310   13.2745 C   0  0  0  0  0  0  0  0  0  0  0  0
   13.0623   -2.3220   12.4018 N   0  0  0  0  0  0  0  0  0  0  0  0
   11.2867   -2.5651   13.2441 H   0  0  0  0  0  0  0  0  0  0  0  0
   15.2926   -2.8337   11.5966 C   0  0  0  0  0  0  0  0  0  0  0  0
   16.5011   -3.1306   12.1146 N   0  0  0  0  0  0  0  0  0  0  0  0
   17.4082   -2.7011   11.2663 C   0  0  0  0  0  0  0  0  0  0  0  0
   18.8031   -2.7146   11.3074 C   0  0  0  0  0  0  0  0  0  0  0  0
   19.5283   -2.1664   10.2326 C   0  0  0  0  0  0  0  0  0  0  0  0
   18.8404   -1.5875    9.1602 C   0  0  0  0  0  0  0  0  0  0  0  0
   17.4337   -1.5784    9.1202 C   0  0  0  0  0  0  0  0  0  0  0  0
   16.7171   -2.1482   10.1781 C   0  0  0  0  0  0  0  0  0  0  0  0
   15.4074   -2.2324   10.4240 N   0  0  0  0  0  0  0  0  0  0  0  0
   16.6726   -3.5854   12.9707 H   0  0  0  0  0  0  0  0  0  0  0  0
  1  2  2  0  0  0
  1  8  1  0  0  0
  2  3  1  0  0  0
  3  4  2  0  0  0
  4  5  1  0  0  0
  5  6  1  0  0  0
  5  8  2  0  0  0
  6 11  1  0  0  0
  6  9  2  0  0  0
 11 12  1  0  0  0
 11 19  2  0  0  0
 12 13  1  0  0  0
 13 14  2  0  0  0
 13 18  1  0  0  0
 14 15  1  0  0  0
 15 16  2  0  0  0
 16 17  1  0  0  0
 17 18  2  0  0  0
 18 19  1  0  0  0
  7  8  1  0  0  0
  7  9  1  0  0  0
 12 20  1  0  0  0
  7 10  1  0  0  0
M  END
> <minimizedAffinity>
-7.76305

$$$$
2C3L_IDZ_A_1274


 20 23  0  0  0  0  0  0  0  0999 V2000
   17.7795   -1.1457    8.9805 C   0  0  0  0  0  0  0  0  0  0  0  0
   18.9469   -1.8161    9.3750 C   0  0  0  0  0  0  0  0  0  0  0  0
   18.8786   -2.8690   10.2955 C   0  0  0  0  0  0  0  0  0  0  0  0
   17.6493   -3.2723   10.8159 C   0  0  0  0  0  0  0  0  0  0  0  0
   16.5047   -2.6315   10.3959 C   0  0  0  0  0  0  0  0  0  0  0  0
   15.1461   -2.7255   10.7090 C   0  0  0  0  0  0  0  0  0  0  0  0
   15.2928   -1.1456    9.3353 N   0  0  0  0  0  0  0  0  0  0  0  0
   16.5627   -1.5669    9.5074 C   0  0  0  0  0  0  0  0  0  0  0  0
   14.4645   -1.8024   10.0168 N   0  0  0  0  0  0  0  0  0  0  0  0
   15.0412   -0.4031    8.7398 H   0  0  0  0  0  0  0  0  0  0  0  0
   14.5906   -3.6451   11.5894 C   0  0  0  0  0  0  0  0  0  0  0  0
   13.4276   -3.4332   12.2369 N   0  0  0  0  0  0  0  0  0  0  0  0
   13.1893   -4.4949   12.9738 C   0  0  0  0  0  0  0  0  0  0  0  0
   12.1561   -4.8009   13.8606 C   0  0  0  0  0  0  0  0  0  0  0  0
   12.1663   -6.0408   14.5271 C   0  0  0  0  0  0  0  0  0  0  0  0
   13.2272   -6.9288   14.3161 C   0  0  0  0  0  0  0  0  0  0  0  0
   14.2658   -6.6185   13.4186 C   0  0  0  0  0  0  0  0  0  0  0  0
   14.2378   -5.3963   12.7384 C   0  0  0  0  0  0  0  0  0  0  0  0
   15.0972   -4.8301   11.8877 N   0  0  0  0  0  0  0  0  0  0  0  0
   12.8610   -2.6309   12.1700 H   0  0  0  0  0  0  0  0  0  0  0  0
  1  2  2  0  0  0
  1  8  1  0  0  0
  2  3  1  0  0  0
  3  4  2  0  0  0
  4  5  1  0  0  0
  5  6  1  0  0  0
  5  8  2  0  0  0
  6 11  1  0  0  0
  6  9  2  0  0  0
 11 12  1  0  0  0
 11 19  2  0  0  0
 12 13  1  0  0  0
 13 14  2  0  0  0
 13 18  1  0  0  0
 14 15  1  0  0  0
 15 16  2  0  0  0
 16 17  1  0  0  0
 17 18  2  0  0  0
 18 19  1  0  0  0
  7  8  1  0  0  0
  7  9  1  0  0  0
 12 20  1  0  0  0
  7 10  1  0  0  0
M  END
> <minimizedAffinity>
-7.71428

$$$$
2C3L_IDZ_A_1274


 20 23  0  0  0  0  0  0  0  0999 V2000
   12.2720   -4.1683   12.8257 C   0  0  0  0  0  0  0  0  0  0  0  0
   11.5371   -3.4290   11.8868 C   0  0  0  0  0  0  0  0  0  0  0  0
   12.1946   -2.7447   10.8572 C   0  0  0  0  0  0  0  0  0  0  0  0
   13.5833   -2.8049   10.7448 C   0  0  0  0  0  0  0  0  0  0  0  0
   14.2935   -3.5620   11.6501 C   0  0  0  0  0  0  0  0  0  0  0  0
   15.6476   -3.8246   11.8740 C   0  0  0  0  0  0  0  0  0  0  0  0
   14.6249   -4.8269   13.4083 N   0  0  0  0  0  0  0  0  0  0  0  0
   13.6559   -4.2197   12.6927 C   0  0  0  0  0  0  0  0  0  0  0  0
   15.7764   -4.6126   12.9503 N   0  0  0  0  0  0  0  0  0  0  0  0
   14.4493   -5.3790   14.2043 H   0  0  0  0  0  0  0  0  0  0  0  0
   16.6933   -3.3532   11.0908 C   0  0  0  0  0  0  0  0  0  0  0  0
   17.8934   -3.9630   11.0222 N   0  0  0  0  0  0  0  0  0  0  0  0
   18.6395   -3.2695   10.1919 C   0  0  0  0  0  0  0  0  0  0  0  0
   19.9629   -3.4240    9.7771 C   0  0  0  0  0  0  0  0  0  0  0  0
   20.5088   -2.5042    8.8619 C   0  0  0  0  0  0  0  0  0  0  0  0
   19.7284   -1.4336    8.4113 C   0  0  0  0  0  0  0  0  0  0  0  0
   18.3930   -1.2825    8.8289 C   0  0  0  0  0  0  0  0  0  0  0  0
   17.8464   -2.2141    9.7181 C   0  0  0  0  0  0  0  0  0  0  0  0
   16.6512   -2.2870   10.3088 N   0  0  0  0  0  0  0  0  0  0  0  0
   18.1616   -4.7779   11.5052 H   0  0  0  0  0  0  0  0  0  0  0  0
  1  2  2  0  0  0
  1  8  1  0  0  0
  2  3  1  0  0  0
  3  4  2  0  0  0
  4  5  1  0  0  0
  5  6  1  0  0  0
  5  8  2  0  0  0
  6 11  1  0  0  0
  6  9  2  0  0  0
 11 12  1  0  0  0
 11 19  2  0  0  0
 12 13  1  0  0  0
 13 14  2  0  0  0
 13 18  1  0  0  0
 14 15  1  0  0  0
 15 16  2  0  0  0
 16 17  1  0  0  0
 17 18  2  0  0  0
 18 19  1  0  0  0
  7  8  1  0  0  0
  7  9  1  0  0  0
 12 20  1  0  0  0
  7 10  1  0  0  0
M  END
> <minimizedAffinity>
-7.56181

$$$$
2C3L_IDZ_A_1274


 20 23  0  0  0  0  0  0  0  0999 V2000
   17.9563   -1.1427    9.1721 C   0  0  0  0  0  0  0  0  0  0  0  0
   16.8362   -0.4921    8.6336 C   0  0  0  0  0  0  0  0  0  0  0  0
   15.5449   -0.8968    8.9934 C   0  0  0  0  0  0  0  0  0  0  0  0
   15.3597   -1.9381    9.9023 C   0  0  0  0  0  0  0  0  0  0  0  0
   16.4655   -2.5475   10.4527 C   0  0  0  0  0  0  0  0  0  0  0  0
   16.6730   -3.6103   11.3360 C   0  0  0  0  0  0  0  0  0  0  0  0
   18.5911   -2.9803   10.7626 N   0  0  0  0  0  0  0  0  0  0  0  0
   17.7499   -2.1756   10.0809 C   0  0  0  0  0  0  0  0  0  0  0  0
   17.9890   -3.8099   11.4914 N   0  0  0  0  0  0  0  0  0  0  0  0
   19.5718   -2.9241   10.6966 H   0  0  0  0  0  0  0  0  0  0  0  0
   15.6684   -4.3342   11.9653 C   0  0  0  0  0  0  0  0  0  0  0  0
   14.5899   -3.7565   12.5307 N   0  0  0  0  0  0  0  0  0  0  0  0
   13.8413   -4.7185   13.0219 C   0  0  0  0  0  0  0  0  0  0  0  0
   12.6404   -4.6943   13.7324 C   0  0  0  0  0  0  0  0  0  0  0  0
   12.0596   -5.9090   14.1432 C   0  0  0  0  0  0  0  0  0  0  0  0
   12.7119   -7.1150   13.8631 C   0  0  0  0  0  0  0  0  0  0  0  0
   13.9211   -7.1362   13.1436 C   0  0  0  0  0  0  0  0  0  0  0  0
   14.4811   -5.9282   12.7143 C   0  0  0  0  0  0  0  0  0  0  0  0
   15.6194   -5.6516   12.0734 N   0  0  0  0  0  0  0  0  0  0  0  0
   14.3982   -2.7916   12.5688 H   0  0  0  0  0  0  0  0  0  0  0  0
  1  2  2  0  0  0
  1  8  1  0  0  0
  2  3  1  0  0  0
  3  4  2  0  0  0
  4  5  1  0  0  0
  5  6  1  0  0  0
  5  8  2  0  0  0
  6 11  1  0  0  0
  6  9  2  0  0  0
 11 12  1  0  0  0
 11 19  2  0  0  0
 12 13  1  0  0  0
 13 14  2  0  0  0
 13 18  1  0  0  0
 14 15  1  0  0  0
 15 16  2  0  0  0
 16 17  1  0  0  0
 17 18  2  0  0  0
 18 19  1  0  0  0
  7  8  1  0  0  0
  7  9  1  0  0  0
 12 20  1  0  0  0
  7 10  1  0  0  0
M  END
> <minimizedAffinity>
-7.53885

$$$$
2C3L_IDZ_A_1274


 20 23  0  0  0  0  0  0  0  0999 V2000
   14.3536   -2.8903   12.2265 C   0  0  0  0  0  0  0  0  0  0  0  0
   13.5830   -2.4237   11.1512 C   0  0  0  0  0  0  0  0  0  0  0  0
   14.1959   -2.0867    9.9382 C   0  0  0  0  0  0  0  0  0  0  0  0
   15.5744   -2.2272    9.7815 C   0  0  0  0  0  0  0  0  0  0  0  0
   16.3182   -2.7196   10.8310 C   0  0  0  0  0  0  0  0  0  0  0  0
   17.6769   -2.9566   11.0559 C   0  0  0  0  0  0  0  0  0  0  0  0
   16.7210   -3.4408   12.8606 N   0  0  0  0  0  0  0  0  0  0  0  0
   15.7264   -3.0282   12.0479 C   0  0  0  0  0  0  0  0  0  0  0  0
   17.8492   -3.4086   12.3057 N   0  0  0  0  0  0  0  0  0  0  0  0
   16.5788   -3.7356   13.7891 H   0  0  0  0  0  0  0  0  0  0  0  0
   18.6866   -2.7673   10.1212 C   0  0  0  0  0  0  0  0  0  0  0  0
   19.5067   -3.7565    9.7143 N   0  0  0  0  0  0  0  0  0  0  0  0
   20.3301   -3.2442    8.8273 C   0  0  0  0  0  0  0  0  0  0  0  0
   21.3925   -3.7989    8.1124 C   0  0  0  0  0  0  0  0  0  0  0  0
   22.1147   -2.9897    7.2150 C   0  0  0  0  0  0  0  0  0  0  0  0
   21.7782   -1.6379    7.0811 C   0  0  0  0  0  0  0  0  0  0  0  0
   20.7043   -1.0824    7.8011 C   0  0  0  0  0  0  0  0  0  0  0  0
   19.9725   -1.8968    8.6720 C   0  0  0  0  0  0  0  0  0  0  0  0
   18.9604   -1.6311    9.5014 N   0  0  0  0  0  0  0  0  0  0  0  0
   19.4917   -4.6907   10.0244 H   0  0  0  0  0  0  0  0  0  0  0  0
  1  2  2  0  0  0
  1  8  1  0  0  0
  2  3  1  0  0  0
  3  4  2  0  0  0
  4  5  1  0  0  0
  5  6  1  0  0  0
  5  8  2  0  0  0
  6 11  1  0  0  0
  6  9  2  0  0  0
 11 12  1  0  0  0
 11 19  2  0  0  0
 12 13  1  0  0  0
 13 14  2  0  0  0
 13 18  1  0  0  0
 14 15  1  0  0  0
 15 16  2  0  0  0
 16 17  1  0  0  0
 17 18  2  0  0  0
 18 19  1  0  0  0
  7  8  1  0  0  0
  7  9  1  0  0  0
 12 20  1  0  0  0
  7 10  1  0  0  0
M  END
> <minimizedAffinity>
-7.49641

$$$$
2C3L_IDZ_A_1274


 20 23  0  0  0  0  0  0  0  0999 V2000
   15.1590   -1.9931    9.7061 C   0  0  0  0  0  0  0  0  0  0  0  0
   15.3902   -0.7357    9.1287 C   0  0  0  0  0  0  0  0  0  0  0  0
   16.6989   -0.3019    8.8840 C   0  0  0  0  0  0  0  0  0  0  0  0
   17.7834   -1.1212    9.1959 C   0  0  0  0  0  0  0  0  0  0  0  0
   17.5453   -2.3684    9.7297 C   0  0  0  0  0  0  0  0  0  0  0  0
   18.3458   -3.4178   10.1888 C   0  0  0  0  0  0  0  0  0  0  0  0
   16.3697   -4.0261   10.5491 N   0  0  0  0  0  0  0  0  0  0  0  0
   16.2543   -2.7971   10.0049 C   0  0  0  0  0  0  0  0  0  0  0  0
   17.5654   -4.4001   10.6600 N   0  0  0  0  0  0  0  0  0  0  0  0
   15.6000   -4.5720   10.8296 H   0  0  0  0  0  0  0  0  0  0  0  0
   19.7339   -3.4417   10.1464 C   0  0  0  0  0  0  0  0  0  0  0  0
   20.4307   -3.7120    9.0248 N   0  0  0  0  0  0  0  0  0  0  0  0
   21.7073   -3.6425    9.3291 C   0  0  0  0  0  0  0  0  0  0  0  0
   22.8590   -3.8592    8.5714 C   0  0  0  0  0  0  0  0  0  0  0  0
   24.1201   -3.7131    9.1797 C   0  0  0  0  0  0  0  0  0  0  0  0
   24.1970   -3.3880   10.5386 C   0  0  0  0  0  0  0  0  0  0  0  0
   23.0337   -3.1669   11.2991 C   0  0  0  0  0  0  0  0  0  0  0  0
   21.7830   -3.2872   10.6839 C   0  0  0  0  0  0  0  0  0  0  0  0
   20.5408   -3.1871   11.1632 N   0  0  0  0  0  0  0  0  0  0  0  0
   20.0529   -3.9226    8.1404 H   0  0  0  0  0  0  0  0  0  0  0  0
  1  2  2  0  0  0
  1  8  1  0  0  0
  2  3  1  0  0  0
  3  4  2  0  0  0
  4  5  1  0  0  0
  5  6  1  0  0  0
  5  8  2  0  0  0
  6 11  1  0  0  0
  6  9  2  0  0  0
 11 12  1  0  0  0
 11 19  2  0  0  0
 12 13  1  0  0  0
 13 14  2  0  0  0
 13 18  1  0  0  0
 14 15  1  0  0  0
 15 16  2  0  0  0
 16 17  1  0  0  0
 17 18  2  0  0  0
 18 19  1  0  0  0
  7  8  1  0  0  0
  7  9  1  0  0  0
 12 20  1  0  0  0
  7 10  1  0  0  0
M  END
> <minimizedAffinity>
-7.43611

$$$$
