3TKW_017_B_401
  RCSB PDB12061710543D
Coordinates from PDB:3TKW:B:401 Model:1 without hydrogens
 38 41  0  0  0  0            999 V2000
  -16.8750   26.1950  -21.1310   N 0  0  0  0  0  0  0  0  0  0  0  0
  -15.9990   25.5120  -20.4360   C 0  0  0  0  0  0  0  0  0  0  0  0
  -15.5820   24.3470  -21.0680   C 0  0  0  0  0  0  0  0  0  0  0  0
  -14.6470   23.5180  -20.4380   C 0  0  0  0  0  0  0  0  0  0  0  0
  -14.1450   23.8660  -19.1950   C 0  0  0  0  0  0  0  0  0  0  0  0
  -14.5510   25.0220  -18.5550   C 0  0  0  0  0  0  0  0  0  0  0  0
  -15.4810   25.8450  -19.1810   C 0  0  0  0  0  0  0  0  0  0  0  0
  -12.9690   22.8620  -18.3610   S 0  0  0  0  0  0  0  0  0  0  0  0
  -11.9750   22.3610  -19.3540   O 0  0  0  0  0  0  0  0  0  0  0  0
  -12.3610   23.6910  -17.2770   O 0  0  0  0  0  0  0  0  0  0  0  0
  -13.7060   21.5720  -17.7020   N 0  0  0  0  0  0  0  0  0  0  0  0
  -14.8000   21.8230  -16.7950   C 0  0  0  0  0  0  0  0  0  0  0  0
  -14.7620   20.8190  -15.6420   C 0  0  0  0  0  0  0  0  0  0  0  0
  -13.4030   20.8610  -14.9230   C 0  0  0  0  0  0  0  0  0  0  0  0
  -15.9180   21.0490  -14.6610   C 0  0  0  0  0  0  0  0  0  0  0  0
  -13.9340   20.5210  -18.6830   C 0  0  0  0  0  0  0  0  0  0  0  0
  -13.1620   19.2550  -18.3170   C 0  0  0  0  0  0  0  0  0  0  0  0
  -13.6170   18.1480  -19.1090   O 0  0  0  0  0  0  0  0  0  0  0  0
  -11.6500   19.3880  -18.5590   C 0  0  0  0  0  0  0  0  0  0  0  0
  -11.0230   18.2120  -17.9500   N 0  0  0  0  0  0  0  0  0  0  0  0
  -10.1500   18.2790  -16.9390   C 0  0  0  0  0  0  0  0  0  0  0  0
   -9.8550   19.3480  -16.4010   O 0  0  0  0  0  0  0  0  0  0  0  0
   -9.6010   17.1200  -16.5390   O 0  0  0  0  0  0  0  0  0  0  0  0
   -8.5260   17.0920  -15.6360   C 0  0  0  0  0  0  0  0  0  0  0  0
   -8.7100   15.8470  -14.7530   C 0  0  0  0  0  0  0  0  0  0  0  0
   -8.2900   14.7780  -15.6160   O 0  0  0  0  0  0  0  0  0  0  0  0
   -7.1900   15.2470  -16.3940   C 0  0  0  0  0  0  0  0  0  0  0  0
   -7.3580   14.8840  -17.7770   O 0  0  0  0  0  0  0  0  0  0  0  0
   -7.6450   16.0470  -18.5340   C 0  0  0  0  0  0  0  0  0  0  0  0
   -7.0730   17.2360  -17.7570   C 0  0  0  0  0  0  0  0  0  0  0  0
   -7.1770   16.7660  -16.2940   C 0  0  0  0  0  0  0  0  0  0  0  0
  -11.3390   19.4330  -20.0590   C 0  0  0  0  0  0  0  0  0  0  0  0
   -9.1180   18.4550  -20.7980   C 0  0  0  0  0  0  0  0  0  0  0  0
   -7.7400   18.5460  -20.9540   C 0  0  0  0  0  0  0  0  0  0  0  0
   -7.0640   19.6970  -20.5670   C 0  0  0  0  0  0  0  0  0  0  0  0
   -7.7860   20.7660  -20.0520   C 0  0  0  0  0  0  0  0  0  0  0  0
   -9.1640   20.6950  -19.8970   C 0  0  0  0  0  0  0  0  0  0  0  0
   -9.8250   19.5350  -20.2800   C 0  0  0  0  0  0  0  0  0  0  0  0
  1  2  1  0  0  0  0
  2  3  2  0  0  0  0
  2  7  1  0  0  0  0
  3  4  1  0  0  0  0
  4  5  2  0  0  0  0
  5  6  1  0  0  0  0
  5  8  1  0  0  0  0
  6  7  2  0  0  0  0
  8  9  2  0  0  0  0
  8 10  2  0  0  0  0
  8 11  1  0  0  0  0
 11 12  1  0  0  0  0
 11 16  1  0  0  0  0
 12 13  1  0  0  0  0
 13 14  1  0  0  0  0
 13 15  1  0  0  0  0
 16 17  1  0  0  0  0
 17 18  1  0  0  0  0
 17 19  1  0  0  0  0
 19 20  1  0  0  0  0
 19 32  1  0  0  0  0
 20 21  1  0  0  0  0
 21 22  2  0  0  0  0
 21 23  1  0  0  0  0
 23 24  1  0  0  0  0
 24 25  1  0  0  0  0
 24 31  1  0  0  0  0
 25 26  1  0  0  0  0
 26 27  1  0  0  0  0
 27 28  1  0  0  0  0
 27 31  1  0  0  0  0
 28 29  1  0  0  0  0
 29 30  1  0  0  0  0
 30 31  1  0  0  0  0
 32 38  1  0  0  0  0
 33 34  2  0  0  0  0
 33 38  1  0  0  0  0
 34 35  1  0  0  0  0
 35 36  2  0  0  0  0
 36 37  1  0  0  0  0
 37 38  2  0  0  0  0
A    1
N1
A    2
C2
A    3
C3
A    4
C4
A    5
C5
A    6
C6
A    7
C7
A    8
S8
A    9
O9
A   10
O10
A   11
N11
A   12
C12
A   13
C13
A   14
C14
A   15
C15
A   16
C16
A   17
C17
A   18
O18
A   19
C19
A   20
N20
A   21
C21
A   22
O22
A   23
O23
A   24
C24
A   25
C25
A   26
O26
A   27
C27
A   28
O28
A   29
C29
A   30
C30
A   31
C31
A   32
C32
A   33
C33
A   34
C34
A   35
C35
A   36
C36
A   37
C37
A   38
C38
M  END
>  <InstanceId>
3TKW_017_B_401

>  <ChemCompId>
017

>  <PdbId>
3TKW

>  <ChainId>
B

>  <ResidueNumber>
401

>  <InsertionCode>


>  <Model>
1

>  <AltIds>


>  <MissingHeavyAtoms>
0

>  <ObservedFormula>
C27 N3 O7 S

>  <Name>
(3R,3AS,6AR)-HEXAHYDROFURO[2,3-B]FURAN-3-YL(1S,2R)-3-[[(4-AMINOPHENYL)SULFONYL](ISOBUTYL)AMINO]-1-BENZYL-2-HYDROXYPROPYLCARBAMATE

>  <SystematicName>
[(3R,3aS,6aR)-2,3,3a,4,5,6a-hexahydrofuro[2,3-b]furan-3-yl] N-[(2S,3R)-4-[(4-aminophenyl)sulfonyl-(2-methylpropyl)amino]-3-hydroxy-1-phenyl-butan-2-yl]carbamate

>  <Synonyms>
Darunavir, TMC114, UIC-94017

>  <Type>
NON-POLYMER

>  <Formula>
C27 H37 N3 O7 S

>  <MolecularWeight>
547.664

>  <ModifiedDate>
2011-06-04

>  <Parent>


>  <OneLetterCode>


>  <SubcomponentList>


>  <AmbiguousFlag>
N

>  <InChI>
InChI=1S/C27H37N3O7S/c1-18(2)15-30(38(33,34)21-10-8-20(28)9-11-21)16-24(31)23(14-19-6-4-3-5-7-19)29-27(32)37-25-17-36-26-22(25)12-13-35-26/h3-11,18,22-26,31H,12-17,28H2,1-2H3,(H,29,32)/t22-,23-,24+,25-,26+/m0/s1

>  <InChIKey>
CJBJHOAVZSMMDJ-HEXNFIEUSA-N

>  <SMILES>
CC(C)C[N@@](C[C@H]([C@H](Cc1ccccc1)NC(=O)O[C@H]2CO[C@@H]3[C@H]2CCO3)O)S(=O)(=O)c4ccc(cc4)N

$$$$
