1IIQ_0ZR_A_201
  RCSB PDB12061702503D
Coordinates from PDB:1IIQ:A:201 Model:1 without hydrogens
 51 53  0  0  0  0            999 V2000
   13.9320   20.2880    5.3490   O 0  0  0  0  0  0  0  0  0  0  0  0
   15.1440   20.4740    5.3040   C 0  0  0  0  0  0  0  0  0  0  0  0
   16.0620   19.7850    4.5090   O 0  0  0  0  0  0  0  0  0  0  0  0
   15.6720   18.8600    3.3620   C 0  0  0  0  0  0  0  0  0  0  0  0
   16.9730   18.3240    2.7400   C 0  0  0  0  0  0  0  0  0  0  0  0
   14.8760   19.6640    2.3290   C 0  0  0  0  0  0  0  0  0  0  0  0
   14.8320   17.7020    3.9310   C 0  0  0  0  0  0  0  0  0  0  0  0
   15.7950   21.4510    6.0170   N 0  0  0  0  0  0  0  0  0  0  0  0
   15.0340   22.3750    6.8790   C 0  0  0  0  0  0  0  0  0  0  0  0
   14.7000   23.6970    6.1860   C 0  0  0  0  0  0  0  0  0  0  0  0
   15.8930   24.3610    5.8460   O 0  0  0  0  0  0  0  0  0  0  0  0
   15.7980   22.6880    8.1650   C 0  0  0  0  0  0  0  0  0  0  0  0
   16.2410   21.4780    8.9030   C 0  0  0  0  0  0  0  0  0  0  0  0
   17.4950   20.9300    8.6670   C 0  0  0  0  0  0  0  0  0  0  0  0
   15.3880   20.8510    9.8010   C 0  0  0  0  0  0  0  0  0  0  0  0
   17.8950   19.7700    9.3130   C 0  0  0  0  0  0  0  0  0  0  0  0
   15.7790   19.6900   10.4480   C 0  0  0  0  0  0  0  0  0  0  0  0
   17.0340   19.1470   10.2060   C 0  0  0  0  0  0  0  0  0  0  0  0
   13.8770   23.4540    4.9180   C 0  0  0  0  0  0  0  0  0  0  0  0
   13.4480   24.7090    4.3560   N 0  0  0  0  0  0  0  0  0  0  0  0
   12.0320   24.7630    4.0110   C 0  0  0  0  0  0  0  0  0  0  0  0
   11.0820   24.7060    5.1980   C 0  0  0  0  0  0  0  0  0  0  0  0
   11.0980   23.7780    6.0130   O 0  0  0  0  0  0  0  0  0  0  0  0
   11.6510   23.6540    3.0260   C 0  0  0  0  0  0  0  0  0  0  0  0
   10.2000   23.6820    2.6270   C 0  0  0  0  0  0  0  0  0  0  0  0
    9.3740   22.5840    2.8620   C 0  0  0  0  0  0  0  0  0  0  0  0
    9.6540   24.8160    2.0320   C 0  0  0  0  0  0  0  0  0  0  0  0
    8.0200   22.6170    2.5080   C 0  0  0  0  0  0  0  0  0  0  0  0
    8.3060   24.8590    1.6730   C 0  0  0  0  0  0  0  0  0  0  0  0
    7.4880   23.7580    1.9120   C 0  0  0  0  0  0  0  0  0  0  0  0
   10.2390   25.7210    5.2770   N 0  0  0  0  0  0  0  0  0  0  0  0
    9.2520   25.8220    6.3310   C 0  0  0  0  0  0  0  0  0  0  0  0
    8.1760   26.7930    5.8500   C 0  0  0  0  0  0  0  0  0  0  0  0
    8.4690   27.7590    5.1310   O 0  0  0  0  0  0  0  0  0  0  0  0
    9.9170   26.3210    7.6220   C 0  0  0  0  0  0  0  0  0  0  0  0
    8.9790   26.5590    8.8000   C 0  0  0  0  0  0  0  0  0  0  0  0
    8.2300   27.8940    8.7110   C 0  0  0  0  0  0  0  0  0  0  0  0
    8.6800   28.8350    8.0520   O 0  0  0  0  0  0  0  0  0  0  0  0
    7.0950   27.9840    9.3950   N 0  0  0  0  0  0  0  0  0  0  0  0
    6.9270   26.5130    6.2110   N 0  0  0  0  0  0  0  0  0  0  0  0
    5.8240   27.3850    5.8360   C 0  0  0  0  0  0  0  0  0  0  0  0
    4.7630   27.3850    6.9280   C 0  0  0  0  0  0  0  0  0  0  0  0
    4.6340   26.4200    7.6770   O 0  0  0  0  0  0  0  0  0  0  0  0
    5.2330   26.9550    4.4810   C 0  0  0  0  0  0  0  0  0  0  0  0
    4.5860   25.5900    4.4880   C 0  0  0  0  0  0  0  0  0  0  0  0
    3.2310   25.4460    4.7910   C 0  0  0  0  0  0  0  0  0  0  0  0
    5.3280   24.4530    4.1730   C 0  0  0  0  0  0  0  0  0  0  0  0
    2.6200   24.1870    4.7790   C 0  0  0  0  0  0  0  0  0  0  0  0
    4.7300   23.1880    4.1570   C 0  0  0  0  0  0  0  0  0  0  0  0
    3.3710   23.0580    4.4610   C 0  0  0  0  0  0  0  0  0  0  0  0
    4.0190   28.4790    7.0370   N 0  0  0  0  0  0  0  0  0  0  0  0
  1  2  2  0  0  0  0
  2  3  1  0  0  0  0
  3  4  1  0  0  0  0
  4  5  1  0  0  0  0
  4  6  1  0  0  0  0
  4  7  1  0  0  0  0
  8  9  1  0  0  0  0
  9 10  1  0  0  0  0
  9 12  1  0  0  0  0
 10 11  1  0  0  0  0
 10 19  1  0  0  0  0
 12 13  1  0  0  0  0
 13 14  2  0  0  0  0
 13 15  1  0  0  0  0
 14 16  1  0  0  0  0
 15 17  2  0  0  0  0
 16 18  2  0  0  0  0
 17 18  1  0  0  0  0
 20 21  1  0  0  0  0
 21 22  1  0  0  0  0
 21 24  1  0  0  0  0
 22 23  2  0  0  0  0
 24 25  1  0  0  0  0
 25 26  2  0  0  0  0
 25 27  1  0  0  0  0
 26 28  1  0  0  0  0
 27 29  2  0  0  0  0
 28 30  2  0  0  0  0
 29 30  1  0  0  0  0
 31 32  1  0  0  0  0
 32 33  1  0  0  0  0
 32 35  1  0  0  0  0
 33 34  2  0  0  0  0
 35 36  1  0  0  0  0
 36 37  1  0  0  0  0
 37 38  2  0  0  0  0
 37 39  1  0  0  0  0
 40 41  1  0  0  0  0
 41 42  1  0  0  0  0
 41 44  1  0  0  0  0
 42 43  2  0  0  0  0
 44 45  1  0  0  0  0
 45 46  2  0  0  0  0
 45 47  1  0  0  0  0
 46 48  1  0  0  0  0
 47 49  2  0  0  0  0
 48 50  2  0  0  0  0
 49 50  1  0  0  0  0
  2  8  1  0  0  0  0
 19 20  1  0  0  0  0
 22 31  1  0  0  0  0
 33 40  1  0  0  0  0
 42 51  1  0  0  0  0
A    1
O1
A    2
C
A    3
O2
A    4
CT
A    5
C1
A    6
C2
A    7
C3
A    8
N
A    9
CA
A   10
C4
A   11
OS
A   12
CB
A   13
CG
A   14
CD1
A   15
CD2
A   16
CE1
A   17
CE2
A   18
CZ
A   19
CM
A   20
N1
A   21
CA1
A   22
C5
A   23
O
A   24
CB1
A   25
CG1
A   26
CD11
A   27
CD21
A   28
CE11
A   29
CE21
A   30
CZ1
A   31
N2
A   32
CA2
A   33
C6
A   34
O3
A   35
CB2
A   36
CG2
A   37
CD
A   38
OE1
A   39
NE2
A   40
N3
A   41
CA3
A   42
C7
A   43
O4
A   44
CB3
A   45
CG3
A   46
CD12
A   47
CD22
A   48
CE12
A   49
CE22
A   50
CZ2
A   51
N4
M  END
>  <InstanceId>
1IIQ_0ZR_A_201

>  <ChemCompId>
0ZR

>  <PdbId>
1IIQ

>  <ChainId>
A

>  <ResidueNumber>
201

>  <InsertionCode>


>  <Model>
1

>  <AltIds>


>  <MissingHeavyAtoms>
0

>  <ObservedFormula>
C38 N6 O7

>  <Name>
N-{(2R,3S)-3-[(tert-butoxycarbonyl)amino]-2-hydroxy-4-phenylbutyl}-L-phenylalanyl-L-glutaminyl-L-phenylalaninamide

>  <SystematicName>
tert-butyl N-[(2S,3S)-4-[[(2S)-1-[[(2S)-5-azanyl-1-[[(2S)-1-azanyl-1-oxo-3-phenyl-propan-2-yl]amino]-1,5-dioxo-pentan-2-yl]amino]-1-oxo-3-phenyl-propan-2-yl]amino]-3-hydroxy-1-phenyl-butan-2-yl]carbamate

>  <Synonyms>


>  <Type>
peptide-like

>  <Formula>
C38 H50 N6 O7

>  <MolecularWeight>
702.84

>  <ModifiedDate>
2011-07-13

>  <Parent>


>  <OneLetterCode>


>  <SubcomponentList>
BOC R00 GLN PHE NH2

>  <AmbiguousFlag>
N

>  <InChI>
InChI=1S/C38H50N6O7/c1-38(2,3)51-37(50)44-29(21-25-13-7-4-8-14-25)32(45)24-41-31(23-27-17-11-6-12-18-27)36(49)42-28(19-20-33(39)46)35(48)43-30(34(40)47)22-26-15-9-5-10-16-26/h4-18,28-32,41,45H,19-24H2,1-3H3,(H2,39,46)(H2,40,47)(H,42,49)(H,43,48)(H,44,50)/t28-,29-,30-,31-,32-/m0/s1

>  <InChIKey>
SSPOMXWWHDMCTH-XDIGFQIYSA-N

>  <SMILES>
CC(C)(C)OC(=O)N[C@@H](Cc1ccccc1)[C@H](CN[C@@H](Cc2ccccc2)C(=O)N[C@@H](CCC(=O)N)C(=O)N[C@@H](Cc3ccccc3)C(=O)N)O

$$$$
