1IIQ_0ZR_A_201


 60 62  0  0  0  0  0  0  0  0999 V2000
   12.5017   24.2938    4.5558 C   0  0  0  0  0  0  0  0  0  0  0  0
   11.4608   24.2818    5.6653 C   0  0  0  0  0  0  0  0  0  0  0  0
   11.3501   23.3403    6.4572 O   0  0  0  0  0  0  0  0  0  0  0  0
   10.6854   25.3516    5.7037 N   0  0  0  0  0  0  0  0  0  0  0  0
   10.8313   26.0693    5.0458 H   0  0  0  0  0  0  0  0  0  0  0  0
    9.6289   25.5022    6.6816 C   0  0  0  0  0  0  0  0  0  0  0  0
    8.7027   26.6072    6.1786 C   0  0  0  0  0  0  0  0  0  0  0  0
    9.1243   27.7604    6.0101 O   0  0  0  0  0  0  0  0  0  0  0  0
    7.4536   26.2461    5.8991 N   0  0  0  0  0  0  0  0  0  0  0  0
    7.1869   25.3041    6.0030 H   0  0  0  0  0  0  0  0  0  0  0  0
    6.4749   27.2212    5.4422 C   0  0  0  0  0  0  0  0  0  0  0  0
    5.5959   27.6637    6.6040 C   0  0  0  0  0  0  0  0  0  0  0  0
    5.2146   28.8279    6.6940 O   0  0  0  0  0  0  0  0  0  0  0  0
    5.2514   26.7288    7.4813 N   0  0  0  0  0  0  0  0  0  0  0  0
    5.5792   25.8069    7.3724 H   0  0  0  0  0  0  0  0  0  0  0  0
    4.6682   26.9574    8.2408 H   0  0  0  0  0  0  0  0  0  0  0  0
    5.6321   26.6413    4.2917 C   0  0  0  0  0  0  0  0  0  0  0  0
    6.2651   26.7745    2.9266 C   0  0  0  0  0  0  0  0  0  0  0  0
    5.6886   26.1635    1.8118 C   0  0  0  0  0  0  0  0  0  0  0  0
    7.4260   27.5265    2.7546 C   0  0  0  0  0  0  0  0  0  0  0  0
    6.2578   26.2998    0.5406 C   0  0  0  0  0  0  0  0  0  0  0  0
    8.0058   27.6714    1.4894 C   0  0  0  0  0  0  0  0  0  0  0  0
    7.4169   27.0552    0.3805 C   0  0  0  0  0  0  0  0  0  0  0  0
   10.2306   25.8578    8.0488 C   0  0  0  0  0  0  0  0  0  0  0  0
    9.2273   26.0900    9.1730 C   0  0  0  0  0  0  0  0  0  0  0  0
    8.7347   27.5401    9.2482 C   0  0  0  0  0  0  0  0  0  0  0  0
    7.5528   27.8005    9.4883 O   0  0  0  0  0  0  0  0  0  0  0  0
    9.6385   28.4861    9.0196 N   0  0  0  0  0  0  0  0  0  0  0  0
   10.5728   28.2391    8.8314 H   0  0  0  0  0  0  0  0  0  0  0  0
    9.3742   29.4343    9.0384 H   0  0  0  0  0  0  0  0  0  0  0  0
   13.8843   24.3715    5.0132 N   0  0  0  0  0  0  0  0  0  0  0  0
   13.9028   24.9030    5.8836 H   0  0  0  0  0  0  0  0  0  0  0  0
   14.5056   23.0942    5.2523 C   0  0  0  0  0  0  0  0  0  0  0  0
   15.0971   23.0506    6.6638 C   0  0  0  0  0  0  0  0  0  0  0  0
   16.0706   24.0584    6.7915 O   0  0  0  0  0  0  0  0  0  0  0  0
   16.7800   23.9062    6.1476 H   0  0  0  0  0  0  0  0  0  0  0  0
   15.7355   21.6891    6.9440 C   0  0  0  0  0  0  0  0  0  0  0  0
   14.5122   19.6467    5.4463 O   0  0  0  0  0  0  0  0  0  0  0  0
   15.6010   20.0756    5.0771 C   0  0  0  0  0  0  0  0  0  0  0  0
   16.2986   21.0592    5.7348 N   0  0  0  0  0  0  0  0  0  0  0  0
   17.1783   21.3450    5.3977 H   0  0  0  0  0  0  0  0  0  0  0  0
   16.2980   19.6963    3.9283 O   0  0  0  0  0  0  0  0  0  0  0  0
   15.7586   18.7247    2.8850 C   0  0  0  0  0  0  0  0  0  0  0  0
   16.9419   18.2952    2.0006 C   0  0  0  0  0  0  0  0  0  0  0  0
   14.6957   19.4417    2.0464 C   0  0  0  0  0  0  0  0  0  0  0  0
   15.1622   17.5062    3.6129 C   0  0  0  0  0  0  0  0  0  0  0  0
   16.8042   21.8737    8.0207 C   0  0  0  0  0  0  0  0  0  0  0  0
   17.0428   20.6561    8.8365 C   0  0  0  0  0  0  0  0  0  0  0  0
   15.9741   19.9089    9.3142 C   0  0  0  0  0  0  0  0  0  0  0  0
   18.3354   20.2782    9.1735 C   0  0  0  0  0  0  0  0  0  0  0  0
   16.1875   18.8013   10.1208 C   0  0  0  0  0  0  0  0  0  0  0  0
   18.5568   19.1748    9.9815 C   0  0  0  0  0  0  0  0  0  0  0  0
   17.4831   18.4331   10.4566 C   0  0  0  0  0  0  0  0  0  0  0  0
   12.2744   23.0735    3.6588 C   0  0  0  0  0  0  0  0  0  0  0  0
   10.9083   23.0423    3.0276 C   0  0  0  0  0  0  0  0  0  0  0  0
   10.1221   21.8926    3.0846 C   0  0  0  0  0  0  0  0  0  0  0  0
   10.3995   24.1711    2.3912 C   0  0  0  0  0  0  0  0  0  0  0  0
    8.8440   21.8695    2.5140 C   0  0  0  0  0  0  0  0  0  0  0  0
    9.1275   24.1585    1.8170 C   0  0  0  0  0  0  0  0  0  0  0  0
    8.3487   23.0061    1.8791 C   0  0  0  0  0  0  0  0  0  0  0  0
 38 39  2  0  0  0
 39 42  1  0  0  0
 42 43  1  0  0  0
 43 44  1  0  0  0
 43 45  1  0  0  0
 43 46  1  0  0  0
 40 37  1  0  0  0
 37 34  1  0  0  0
 37 47  1  0  0  0
 34 35  1  0  0  0
 34 33  1  0  0  0
 47 48  1  0  0  0
 48 49  2  0  0  0
 48 50  1  0  0  0
 49 51  1  0  0  0
 50 52  2  0  0  0
 51 53  2  0  0  0
 52 53  1  0  0  0
 31  1  1  0  0  0
  1  2  1  0  0  0
  1 54  1  0  0  0
  2  3  2  0  0  0
 54 55  1  0  0  0
 55 56  2  0  0  0
 55 57  1  0  0  0
 56 58  1  0  0  0
 57 59  2  0  0  0
 58 60  2  0  0  0
 59 60  1  0  0  0
  4  6  1  0  0  0
  6  7  1  0  0  0
  6 24  1  0  0  0
  7  8  2  0  0  0
 24 25  1  0  0  0
 25 26  1  0  0  0
 26 27  2  0  0  0
 26 28  1  0  0  0
  9 11  1  0  0  0
 11 12  1  0  0  0
 11 17  1  0  0  0
 12 13  2  0  0  0
 17 18  1  0  0  0
 18 19  2  0  0  0
 18 20  1  0  0  0
 19 21  1  0  0  0
 20 22  2  0  0  0
 21 23  2  0  0  0
 22 23  1  0  0  0
 39 40  1  0  0  0
 33 31  1  0  0  0
  2  4  1  0  0  0
  7  9  1  0  0  0
 12 14  1  0  0  0
 40 41  1  0  0  0
 35 36  1  0  0  0
 31 32  1  0  0  0
  4  5  1  0  0  0
 28 29  1  0  0  0
 28 30  1  0  0  0
  9 10  1  0  0  0
 14 15  1  0  0  0
 14 16  1  0  0  0
M  END
> <minimizedAffinity>
-10.38856

$$$$
1IIQ_0ZR_A_201


 60 62  0  0  0  0  0  0  0  0999 V2000
   12.6688   24.1174    4.7455 C   0  0  0  0  0  0  0  0  0  0  0  0
   11.5875   24.1515    5.8152 C   0  0  0  0  0  0  0  0  0  0  0  0
   11.4284   23.2309    6.6233 O   0  0  0  0  0  0  0  0  0  0  0  0
   10.8333   25.2369    5.8005 N   0  0  0  0  0  0  0  0  0  0  0  0
   11.0181   25.9362    5.1327 H   0  0  0  0  0  0  0  0  0  0  0  0
    9.7446   25.4307    6.7345 C   0  0  0  0  0  0  0  0  0  0  0  0
    8.8355   26.5096    6.1501 C   0  0  0  0  0  0  0  0  0  0  0  0
    9.2662   27.6505    5.9291 O   0  0  0  0  0  0  0  0  0  0  0  0
    7.5918   26.1378    5.8610 N   0  0  0  0  0  0  0  0  0  0  0  0
    7.3184   25.2037    6.0097 H   0  0  0  0  0  0  0  0  0  0  0  0
    6.6285   27.0896    5.3283 C   0  0  0  0  0  0  0  0  0  0  0  0
    5.7094   27.5802    6.4387 C   0  0  0  0  0  0  0  0  0  0  0  0
    5.0942   28.6370    6.3225 O   0  0  0  0  0  0  0  0  0  0  0  0
    5.5946   26.7999    7.5065 N   0  0  0  0  0  0  0  0  0  0  0  0
    6.1060   25.9603    7.5599 H   0  0  0  0  0  0  0  0  0  0  0  0
    4.9981   27.0608    8.2450 H   0  0  0  0  0  0  0  0  0  0  0  0
    5.8266   26.4580    4.1759 C   0  0  0  0  0  0  0  0  0  0  0  0
    6.4187   26.6875    2.8052 C   0  0  0  0  0  0  0  0  0  0  0  0
    5.8313   26.1221    1.6722 C   0  0  0  0  0  0  0  0  0  0  0  0
    7.5513   27.4843    2.6475 C   0  0  0  0  0  0  0  0  0  0  0  0
    6.3621   26.3475    0.3970 C   0  0  0  0  0  0  0  0  0  0  0  0
    8.0926   27.7183    1.3785 C   0  0  0  0  0  0  0  0  0  0  0  0
    7.4932   27.1469    0.2513 C   0  0  0  0  0  0  0  0  0  0  0  0
   10.3001   25.8505    8.1031 C   0  0  0  0  0  0  0  0  0  0  0  0
    9.2624   26.0804    9.1960 C   0  0  0  0  0  0  0  0  0  0  0  0
    8.7625   27.5288    9.2544 C   0  0  0  0  0  0  0  0  0  0  0  0
    7.5893   27.7877    9.5351 O   0  0  0  0  0  0  0  0  0  0  0  0
    9.6497   28.4744    8.9662 N   0  0  0  0  0  0  0  0  0  0  0  0
   10.5774   28.2286    8.7470 H   0  0  0  0  0  0  0  0  0  0  0  0
    9.3794   29.4210    8.9717 H   0  0  0  0  0  0  0  0  0  0  0  0
   14.0336   24.0523    5.2553 N   0  0  0  0  0  0  0  0  0  0  0  0
   14.0112   24.2588    6.2540 H   0  0  0  0  0  0  0  0  0  0  0  0
   14.6774   22.7765    5.0737 C   0  0  0  0  0  0  0  0  0  0  0  0
   15.1683   22.2364    6.4197 C   0  0  0  0  0  0  0  0  0  0  0  0
   16.1058   23.1319    6.9662 O   0  0  0  0  0  0  0  0  0  0  0  0
   16.8625   23.2148    6.3649 H   0  0  0  0  0  0  0  0  0  0  0  0
   15.8176   20.8620    6.2497 C   0  0  0  0  0  0  0  0  0  0  0  0
   18.2387   21.0062    7.6738 O   0  0  0  0  0  0  0  0  0  0  0  0
   17.3163   20.3493    8.1464 C   0  0  0  0  0  0  0  0  0  0  0  0
   16.0957   20.1952    7.5358 N   0  0  0  0  0  0  0  0  0  0  0  0
   15.4033   19.6372    7.9583 H   0  0  0  0  0  0  0  0  0  0  0  0
   17.3092   19.6926    9.3785 O   0  0  0  0  0  0  0  0  0  0  0  0
   18.2556   18.5552    9.7445 C   0  0  0  0  0  0  0  0  0  0  0  0
   17.6060   17.7681   10.8958 C   0  0  0  0  0  0  0  0  0  0  0  0
   19.5939   19.1520   10.1918 C   0  0  0  0  0  0  0  0  0  0  0  0
   18.4355   17.6519    8.5109 C   0  0  0  0  0  0  0  0  0  0  0  0
   14.9068   20.0076    5.3689 C   0  0  0  0  0  0  0  0  0  0  0  0
   15.5822   19.4691    4.1610 C   0  0  0  0  0  0  0  0  0  0  0  0
   15.0059   19.6204    2.9066 C   0  0  0  0  0  0  0  0  0  0  0  0
   16.7726   18.7645    4.2768 C   0  0  0  0  0  0  0  0  0  0  0  0
   15.6038   19.0743    1.7809 C   0  0  0  0  0  0  0  0  0  0  0  0
   17.3746   18.2131    3.1574 C   0  0  0  0  0  0  0  0  0  0  0  0
   16.7918   18.3673    1.9064 C   0  0  0  0  0  0  0  0  0  0  0  0
   12.3715   22.9611    3.7864 C   0  0  0  0  0  0  0  0  0  0  0  0
   11.0287   23.0715    3.1156 C   0  0  0  0  0  0  0  0  0  0  0  0
   10.1018   22.0338    3.1993 C   0  0  0  0  0  0  0  0  0  0  0  0
   10.6832   24.2236    2.4146 C   0  0  0  0  0  0  0  0  0  0  0  0
    8.8456   22.1442    2.5913 C   0  0  0  0  0  0  0  0  0  0  0  0
    9.4346   24.3435    1.8027 C   0  0  0  0  0  0  0  0  0  0  0  0
    8.5145   23.3023    1.8919 C   0  0  0  0  0  0  0  0  0  0  0  0
 38 39  2  0  0  0
 39 42  1  0  0  0
 42 43  1  0  0  0
 43 44  1  0  0  0
 43 45  1  0  0  0
 43 46  1  0  0  0
 40 37  1  0  0  0
 37 34  1  0  0  0
 37 47  1  0  0  0
 34 35  1  0  0  0
 34 33  1  0  0  0
 47 48  1  0  0  0
 48 49  2  0  0  0
 48 50  1  0  0  0
 49 51  1  0  0  0
 50 52  2  0  0  0
 51 53  2  0  0  0
 52 53  1  0  0  0
 31  1  1  0  0  0
  1  2  1  0  0  0
  1 54  1  0  0  0
  2  3  2  0  0  0
 54 55  1  0  0  0
 55 56  2  0  0  0
 55 57  1  0  0  0
 56 58  1  0  0  0
 57 59  2  0  0  0
 58 60  2  0  0  0
 59 60  1  0  0  0
  4  6  1  0  0  0
  6  7  1  0  0  0
  6 24  1  0  0  0
  7  8  2  0  0  0
 24 25  1  0  0  0
 25 26  1  0  0  0
 26 27  2  0  0  0
 26 28  1  0  0  0
  9 11  1  0  0  0
 11 12  1  0  0  0
 11 17  1  0  0  0
 12 13  2  0  0  0
 17 18  1  0  0  0
 18 19  2  0  0  0
 18 20  1  0  0  0
 19 21  1  0  0  0
 20 22  2  0  0  0
 21 23  2  0  0  0
 22 23  1  0  0  0
 39 40  1  0  0  0
 33 31  1  0  0  0
  2  4  1  0  0  0
  7  9  1  0  0  0
 12 14  1  0  0  0
 40 41  1  0  0  0
 35 36  1  0  0  0
 31 32  1  0  0  0
  4  5  1  0  0  0
 28 29  1  0  0  0
 28 30  1  0  0  0
  9 10  1  0  0  0
 14 15  1  0  0  0
 14 16  1  0  0  0
M  END
> <minimizedAffinity>
-10.37708

$$$$
1IIQ_0ZR_A_201


 60 62  0  0  0  0  0  0  0  0999 V2000
   11.6086   24.2094    7.2508 C   0  0  0  0  0  0  0  0  0  0  0  0
   11.4100   24.7021    5.8251 C   0  0  0  0  0  0  0  0  0  0  0  0
   12.1517   25.5433    5.3075 O   0  0  0  0  0  0  0  0  0  0  0  0
   10.3793   24.1645    5.1960 N   0  0  0  0  0  0  0  0  0  0  0  0
    9.8317   23.4944    5.6653 H   0  0  0  0  0  0  0  0  0  0  0  0
   10.0295   24.5292    3.8396 C   0  0  0  0  0  0  0  0  0  0  0  0
    8.5248   24.7885    3.8158 C   0  0  0  0  0  0  0  0  0  0  0  0
    7.7518   23.9883    3.2699 O   0  0  0  0  0  0  0  0  0  0  0  0
    8.1066   25.8837    4.4438 N   0  0  0  0  0  0  0  0  0  0  0  0
    8.7605   26.4572    4.9051 H   0  0  0  0  0  0  0  0  0  0  0  0
    6.6978   26.2478    4.4600 C   0  0  0  0  0  0  0  0  0  0  0  0
    6.3030   26.8688    3.1270 C   0  0  0  0  0  0  0  0  0  0  0  0
    6.7524   27.9600    2.7860 O   0  0  0  0  0  0  0  0  0  0  0  0
    5.4819   26.1624    2.3595 N   0  0  0  0  0  0  0  0  0  0  0  0
    5.1443   25.2916    2.6709 H   0  0  0  0  0  0  0  0  0  0  0  0
    5.2107   26.5092    1.4790 H   0  0  0  0  0  0  0  0  0  0  0  0
    6.4003   27.2010    5.6318 C   0  0  0  0  0  0  0  0  0  0  0  0
    5.0480   26.9971    6.2734 C   0  0  0  0  0  0  0  0  0  0  0  0
    4.6299   27.8118    7.3270 C   0  0  0  0  0  0  0  0  0  0  0  0
    4.1872   26.0034    5.8107 C   0  0  0  0  0  0  0  0  0  0  0  0
    3.3701   27.6424    7.9125 C   0  0  0  0  0  0  0  0  0  0  0  0
    2.9247   25.8229    6.3866 C   0  0  0  0  0  0  0  0  0  0  0  0
    2.5176   26.6472    7.4406 C   0  0  0  0  0  0  0  0  0  0  0  0
   10.4155   23.3952    2.8788 C   0  0  0  0  0  0  0  0  0  0  0  0
   10.6662   22.0374    3.5249 C   0  0  0  0  0  0  0  0  0  0  0  0
   12.1025   21.8712    4.0352 C   0  0  0  0  0  0  0  0  0  0  0  0
   13.0619   22.3059    3.3926 O   0  0  0  0  0  0  0  0  0  0  0  0
   12.2525   21.2199    5.1830 N   0  0  0  0  0  0  0  0  0  0  0  0
   11.4624   20.8877    5.6674 H   0  0  0  0  0  0  0  0  0  0  0  0
   13.1538   21.0693    5.5495 H   0  0  0  0  0  0  0  0  0  0  0  0
   12.7028   23.2610    7.4248 N   0  0  0  0  0  0  0  0  0  0  0  0
   12.8433   22.7708    6.5415 H   0  0  0  0  0  0  0  0  0  0  0  0
   13.9546   23.8598    7.8116 C   0  0  0  0  0  0  0  0  0  0  0  0
   15.0375   23.5328    6.7798 C   0  0  0  0  0  0  0  0  0  0  0  0
   14.4868   23.6098    5.4873 O   0  0  0  0  0  0  0  0  0  0  0  0
   13.7668   22.9652    5.4036 H   0  0  0  0  0  0  0  0  0  0  0  0
   15.6010   22.1295    7.0092 C   0  0  0  0  0  0  0  0  0  0  0  0
   14.6320   19.8264    5.7178 O   0  0  0  0  0  0  0  0  0  0  0  0
   15.5995   20.4078    5.2366 C   0  0  0  0  0  0  0  0  0  0  0  0
   16.1678   21.5312    5.7858 N   0  0  0  0  0  0  0  0  0  0  0  0
   16.9569   21.9389    5.3611 H   0  0  0  0  0  0  0  0  0  0  0  0
   16.2597   20.0820    4.0502 O   0  0  0  0  0  0  0  0  0  0  0  0
   15.8141   18.9746    3.1023 C   0  0  0  0  0  0  0  0  0  0  0  0
   14.7140   19.5572    2.1983 C   0  0  0  0  0  0  0  0  0  0  0  0
   15.2652   17.8082    3.9301 C   0  0  0  0  0  0  0  0  0  0  0  0
   17.0251   18.5352    2.2592 C   0  0  0  0  0  0  0  0  0  0  0  0
   16.6458   22.2089    8.1217 C   0  0  0  0  0  0  0  0  0  0  0  0
   16.8677   20.9186    8.8223 C   0  0  0  0  0  0  0  0  0  0  0  0
   15.7888   20.1537    9.2460 C   0  0  0  0  0  0  0  0  0  0  0  0
   18.1557   20.4856    9.1065 C   0  0  0  0  0  0  0  0  0  0  0  0
   15.9877   18.9743    9.9476 C   0  0  0  0  0  0  0  0  0  0  0  0
   18.3626   19.3100    9.8097 C   0  0  0  0  0  0  0  0  0  0  0  0
   17.2789   18.5510   10.2315 C   0  0  0  0  0  0  0  0  0  0  0  0
   11.7661   25.4239    8.1704 C   0  0  0  0  0  0  0  0  0  0  0  0
   10.4614   26.1002    8.4955 C   0  0  0  0  0  0  0  0  0  0  0  0
   10.4069   27.4747    8.7208 C   0  0  0  0  0  0  0  0  0  0  0  0
    9.2816   25.3637    8.5578 C   0  0  0  0  0  0  0  0  0  0  0  0
    9.1905   28.1067    9.0046 C   0  0  0  0  0  0  0  0  0  0  0  0
    8.0637   25.9831    8.8421 C   0  0  0  0  0  0  0  0  0  0  0  0
    8.0183   27.3567    9.0652 C   0  0  0  0  0  0  0  0  0  0  0  0
 38 39  2  0  0  0
 39 42  1  0  0  0
 42 43  1  0  0  0
 43 44  1  0  0  0
 43 45  1  0  0  0
 43 46  1  0  0  0
 40 37  1  0  0  0
 37 34  1  0  0  0
 37 47  1  0  0  0
 34 35  1  0  0  0
 34 33  1  0  0  0
 47 48  1  0  0  0
 48 49  2  0  0  0
 48 50  1  0  0  0
 49 51  1  0  0  0
 50 52  2  0  0  0
 51 53  2  0  0  0
 52 53  1  0  0  0
 31  1  1  0  0  0
  1  2  1  0  0  0
  1 54  1  0  0  0
  2  3  2  0  0  0
 54 55  1  0  0  0
 55 56  2  0  0  0
 55 57  1  0  0  0
 56 58  1  0  0  0
 57 59  2  0  0  0
 58 60  2  0  0  0
 59 60  1  0  0  0
  4  6  1  0  0  0
  6  7  1  0  0  0
  6 24  1  0  0  0
  7  8  2  0  0  0
 24 25  1  0  0  0
 25 26  1  0  0  0
 26 27  2  0  0  0
 26 28  1  0  0  0
  9 11  1  0  0  0
 11 12  1  0  0  0
 11 17  1  0  0  0
 12 13  2  0  0  0
 17 18  1  0  0  0
 18 19  2  0  0  0
 18 20  1  0  0  0
 19 21  1  0  0  0
 20 22  2  0  0  0
 21 23  2  0  0  0
 22 23  1  0  0  0
 39 40  1  0  0  0
 33 31  1  0  0  0
  2  4  1  0  0  0
  7  9  1  0  0  0
 12 14  1  0  0  0
 40 41  1  0  0  0
 35 36  1  0  0  0
 31 32  1  0  0  0
  4  5  1  0  0  0
 28 29  1  0  0  0
 28 30  1  0  0  0
  9 10  1  0  0  0
 14 15  1  0  0  0
 14 16  1  0  0  0
M  END
> <minimizedAffinity>
-10.07245

$$$$
1IIQ_0ZR_A_201


 60 62  0  0  0  0  0  0  0  0999 V2000
   10.7155   24.0393    6.5996 C   0  0  0  0  0  0  0  0  0  0  0  0
   10.1445   24.5864    5.2999 C   0  0  0  0  0  0  0  0  0  0  0  0
   10.8638   24.9842    4.3780 O   0  0  0  0  0  0  0  0  0  0  0  0
    8.8240   24.6081    5.2454 N   0  0  0  0  0  0  0  0  0  0  0  0
    8.3100   24.2699    6.0140 H   0  0  0  0  0  0  0  0  0  0  0  0
    8.1090   25.1129    4.0925 C   0  0  0  0  0  0  0  0  0  0  0  0
    7.2571   26.2874    4.5685 C   0  0  0  0  0  0  0  0  0  0  0  0
    7.7680   27.3964    4.7812 O   0  0  0  0  0  0  0  0  0  0  0  0
    5.9536   26.0559    4.6943 N   0  0  0  0  0  0  0  0  0  0  0  0
    5.5944   25.1691    4.4620 H   0  0  0  0  0  0  0  0  0  0  0  0
    5.0496   27.0924    5.1699 C   0  0  0  0  0  0  0  0  0  0  0  0
    5.3120   27.3797    6.6419 C   0  0  0  0  0  0  0  0  0  0  0  0
    5.1105   26.5187    7.4945 O   0  0  0  0  0  0  0  0  0  0  0  0
    5.7872   28.5830    6.9395 N   0  0  0  0  0  0  0  0  0  0  0  0
    5.9343   29.2445    6.2254 H   0  0  0  0  0  0  0  0  0  0  0  0
    5.9926   28.8138    7.8742 H   0  0  0  0  0  0  0  0  0  0  0  0
    3.5851   26.6818    4.9318 C   0  0  0  0  0  0  0  0  0  0  0  0
    3.4141   25.3200    4.3009 C   0  0  0  0  0  0  0  0  0  0  0  0
    3.3778   25.1781    2.9127 C   0  0  0  0  0  0  0  0  0  0  0  0
    3.3087   24.1796    5.0953 C   0  0  0  0  0  0  0  0  0  0  0  0
    3.2407   23.9173    2.3208 C   0  0  0  0  0  0  0  0  0  0  0  0
    3.1713   22.9128    4.5169 C   0  0  0  0  0  0  0  0  0  0  0  0
    3.1380   22.7846    3.1246 C   0  0  0  0  0  0  0  0  0  0  0  0
    7.2387   24.0002    3.4904 C   0  0  0  0  0  0  0  0  0  0  0  0
    7.7455   23.3970    2.1853 C   0  0  0  0  0  0  0  0  0  0  0  0
    9.1529   22.8005    2.3061 C   0  0  0  0  0  0  0  0  0  0  0  0
    9.3358   21.6992    2.8315 O   0  0  0  0  0  0  0  0  0  0  0  0
   10.1525   23.5397    1.8388 N   0  0  0  0  0  0  0  0  0  0  0  0
    9.9670   24.4140    1.4258 H   0  0  0  0  0  0  0  0  0  0  0  0
   11.0790   23.2135    1.9055 H   0  0  0  0  0  0  0  0  0  0  0  0
   11.7214   22.9960    6.4361 N   0  0  0  0  0  0  0  0  0  0  0  0
   11.3713   22.3191    5.7581 H   0  0  0  0  0  0  0  0  0  0  0  0
   13.0026   23.4698    5.9789 C   0  0  0  0  0  0  0  0  0  0  0  0
   13.3773   22.7889    4.6597 C   0  0  0  0  0  0  0  0  0  0  0  0
   12.2046   22.3874    3.9940 O   0  0  0  0  0  0  0  0  0  0  0  0
   11.7185   21.7564    4.5474 H   0  0  0  0  0  0  0  0  0  0  0  0
   14.2626   21.5671    4.9109 C   0  0  0  0  0  0  0  0  0  0  0  0
   16.6741   20.6730    6.0495 O   0  0  0  0  0  0  0  0  0  0  0  0
   15.7167   20.8821    6.7879 C   0  0  0  0  0  0  0  0  0  0  0  0
   14.4874   21.3059    6.3452 N   0  0  0  0  0  0  0  0  0  0  0  0
   13.7531   21.4358    6.9879 H   0  0  0  0  0  0  0  0  0  0  0  0
   15.7030   20.7815    8.1804 O   0  0  0  0  0  0  0  0  0  0  0  0
   16.3546   21.7938    9.1154 C   0  0  0  0  0  0  0  0  0  0  0  0
   15.5619   21.7797   10.4338 C   0  0  0  0  0  0  0  0  0  0  0  0
   16.2881   23.1795    8.4653 C   0  0  0  0  0  0  0  0  0  0  0  0
   17.8128   21.3655    9.3609 C   0  0  0  0  0  0  0  0  0  0  0  0
   13.6225   20.3622    4.2226 C   0  0  0  0  0  0  0  0  0  0  0  0
   14.6082   19.4234    3.6291 C   0  0  0  0  0  0  0  0  0  0  0  0
   15.2366   19.7293    2.4291 C   0  0  0  0  0  0  0  0  0  0  0  0
   14.8760   18.2063    4.2408 C   0  0  0  0  0  0  0  0  0  0  0  0
   16.1180   18.8341    1.8419 C   0  0  0  0  0  0  0  0  0  0  0  0
   15.7529   17.3053    3.6589 C   0  0  0  0  0  0  0  0  0  0  0  0
   16.3767   17.6175    2.4581 C   0  0  0  0  0  0  0  0  0  0  0  0
   11.2501   25.2099    7.4299 C   0  0  0  0  0  0  0  0  0  0  0  0
   10.1672   26.0023    8.1117 C   0  0  0  0  0  0  0  0  0  0  0  0
   10.2178   27.3949    8.1488 C   0  0  0  0  0  0  0  0  0  0  0  0
    9.0848   25.3553    8.7015 C   0  0  0  0  0  0  0  0  0  0  0  0
    9.2011   28.1328    8.7664 C   0  0  0  0  0  0  0  0  0  0  0  0
    8.0668   26.0808    9.3219 C   0  0  0  0  0  0  0  0  0  0  0  0
    8.1250   27.4715    9.3537 C   0  0  0  0  0  0  0  0  0  0  0  0
 38 39  2  0  0  0
 39 42  1  0  0  0
 42 43  1  0  0  0
 43 44  1  0  0  0
 43 45  1  0  0  0
 43 46  1  0  0  0
 40 37  1  0  0  0
 37 34  1  0  0  0
 37 47  1  0  0  0
 34 35  1  0  0  0
 34 33  1  0  0  0
 47 48  1  0  0  0
 48 49  2  0  0  0
 48 50  1  0  0  0
 49 51  1  0  0  0
 50 52  2  0  0  0
 51 53  2  0  0  0
 52 53  1  0  0  0
 31  1  1  0  0  0
  1  2  1  0  0  0
  1 54  1  0  0  0
  2  3  2  0  0  0
 54 55  1  0  0  0
 55 56  2  0  0  0
 55 57  1  0  0  0
 56 58  1  0  0  0
 57 59  2  0  0  0
 58 60  2  0  0  0
 59 60  1  0  0  0
  4  6  1  0  0  0
  6  7  1  0  0  0
  6 24  1  0  0  0
  7  8  2  0  0  0
 24 25  1  0  0  0
 25 26  1  0  0  0
 26 27  2  0  0  0
 26 28  1  0  0  0
  9 11  1  0  0  0
 11 12  1  0  0  0
 11 17  1  0  0  0
 12 13  2  0  0  0
 17 18  1  0  0  0
 18 19  2  0  0  0
 18 20  1  0  0  0
 19 21  1  0  0  0
 20 22  2  0  0  0
 21 23  2  0  0  0
 22 23  1  0  0  0
 39 40  1  0  0  0
 33 31  1  0  0  0
  2  4  1  0  0  0
  7  9  1  0  0  0
 12 14  1  0  0  0
 40 41  1  0  0  0
 35 36  1  0  0  0
 31 32  1  0  0  0
  4  5  1  0  0  0
 28 29  1  0  0  0
 28 30  1  0  0  0
  9 10  1  0  0  0
 14 15  1  0  0  0
 14 16  1  0  0  0
M  END
> <minimizedAffinity>
-9.81741

$$$$
1IIQ_0ZR_A_201


 60 62  0  0  0  0  0  0  0  0999 V2000
   10.1481   24.4357    5.6524 C   0  0  0  0  0  0  0  0  0  0  0  0
    9.6681   24.8684    4.2750 C   0  0  0  0  0  0  0  0  0  0  0  0
   10.4291   24.9488    3.3054 O   0  0  0  0  0  0  0  0  0  0  0  0
    8.3801   25.1572    4.2070 N   0  0  0  0  0  0  0  0  0  0  0  0
    7.8282   25.0659    5.0171 H   0  0  0  0  0  0  0  0  0  0  0  0
    7.7547   25.6035    2.9803 C   0  0  0  0  0  0  0  0  0  0  0  0
    6.7087   26.6488    3.3614 C   0  0  0  0  0  0  0  0  0  0  0  0
    6.6256   27.7184    2.7409 O   0  0  0  0  0  0  0  0  0  0  0  0
    5.8846   26.3222    4.3528 N   0  0  0  0  0  0  0  0  0  0  0  0
    5.9633   25.4369    4.7764 H   0  0  0  0  0  0  0  0  0  0  0  0
    4.8685   27.2525    4.8213 C   0  0  0  0  0  0  0  0  0  0  0  0
    5.0131   27.4729    6.3209 C   0  0  0  0  0  0  0  0  0  0  0  0
    5.1444   26.5201    7.0850 O   0  0  0  0  0  0  0  0  0  0  0  0
    5.0157   28.7321    6.7413 N   0  0  0  0  0  0  0  0  0  0  0  0
    4.9074   29.4670    6.0953 H   0  0  0  0  0  0  0  0  0  0  0  0
    5.1259   28.9310    7.6992 H   0  0  0  0  0  0  0  0  0  0  0  0
    3.4615   26.7397    4.4638 C   0  0  0  0  0  0  0  0  0  0  0  0
    3.4117   25.2840    4.0631 C   0  0  0  0  0  0  0  0  0  0  0  0
    3.3438   24.9180    2.7178 C   0  0  0  0  0  0  0  0  0  0  0  0
    3.4520   24.2815    5.0305 C   0  0  0  0  0  0  0  0  0  0  0  0
    3.3184   23.5712    2.3381 C   0  0  0  0  0  0  0  0  0  0  0  0
    3.4275   22.9309    4.6651 C   0  0  0  0  0  0  0  0  0  0  0  0
    3.3610   22.5779    3.3134 C   0  0  0  0  0  0  0  0  0  0  0  0
    7.1132   24.4099    2.2579 C   0  0  0  0  0  0  0  0  0  0  0  0
    7.3933   23.0403    2.8660 C   0  0  0  0  0  0  0  0  0  0  0  0
    8.5242   22.2874    2.1550 C   0  0  0  0  0  0  0  0  0  0  0  0
    8.4394   21.9890    0.9609 O   0  0  0  0  0  0  0  0  0  0  0  0
    9.5762   21.9596    2.8965 N   0  0  0  0  0  0  0  0  0  0  0  0
    9.6078   22.2155    3.8467 H   0  0  0  0  0  0  0  0  0  0  0  0
   10.3245   21.4607    2.4960 H   0  0  0  0  0  0  0  0  0  0  0  0
   11.0541   23.2929    5.6548 N   0  0  0  0  0  0  0  0  0  0  0  0
   10.8990   22.7612    4.7982 H   0  0  0  0  0  0  0  0  0  0  0  0
   12.4506   23.6396    5.7229 C   0  0  0  0  0  0  0  0  0  0  0  0
   13.2544   22.7901    4.7347 C   0  0  0  0  0  0  0  0  0  0  0  0
   12.3962   21.8670    4.1095 O   0  0  0  0  0  0  0  0  0  0  0  0
   12.0042   21.2850    4.7793 H   0  0  0  0  0  0  0  0  0  0  0  0
   14.3755   22.0365    5.4522 C   0  0  0  0  0  0  0  0  0  0  0  0
   15.9440   19.8043    6.1363 O   0  0  0  0  0  0  0  0  0  0  0  0
   15.9582   20.1998    4.9748 C   0  0  0  0  0  0  0  0  0  0  0  0
   15.2460   21.2859    4.5277 N   0  0  0  0  0  0  0  0  0  0  0  0
   15.3168   21.5645    3.5861 H   0  0  0  0  0  0  0  0  0  0  0  0
   16.6390   19.6145    3.9055 O   0  0  0  0  0  0  0  0  0  0  0  0
   16.4156   18.1827    3.4330 C   0  0  0  0  0  0  0  0  0  0  0  0
   16.8444   18.1125    1.9572 C   0  0  0  0  0  0  0  0  0  0  0  0
   14.9285   17.8428    3.5754 C   0  0  0  0  0  0  0  0  0  0  0  0
   17.2840   17.2434    4.2898 C   0  0  0  0  0  0  0  0  0  0  0  0
   15.1792   23.0430    6.2747 C   0  0  0  0  0  0  0  0  0  0  0  0
   15.3598   22.6425    7.6931 C   0  0  0  0  0  0  0  0  0  0  0  0
   14.3178   22.0511    8.3952 C   0  0  0  0  0  0  0  0  0  0  0  0
   16.5559   22.8998    8.3491 C   0  0  0  0  0  0  0  0  0  0  0  0
   14.4615   21.7229    9.7348 C   0  0  0  0  0  0  0  0  0  0  0  0
   16.7063   22.5778    9.6882 C   0  0  0  0  0  0  0  0  0  0  0  0
   15.6595   21.9878   10.3842 C   0  0  0  0  0  0  0  0  0  0  0  0
   10.7684   25.6459    6.3566 C   0  0  0  0  0  0  0  0  0  0  0  0
    9.8541   26.2811    7.3695 C   0  0  0  0  0  0  0  0  0  0  0  0
    9.7696   25.7802    8.6676 C   0  0  0  0  0  0  0  0  0  0  0  0
    9.0899   27.3940    7.0297 C   0  0  0  0  0  0  0  0  0  0  0  0
    8.9334   26.3824    9.6151 C   0  0  0  0  0  0  0  0  0  0  0  0
    8.2512   28.0009    7.9657 C   0  0  0  0  0  0  0  0  0  0  0  0
    8.1735   27.4945    9.2603 C   0  0  0  0  0  0  0  0  0  0  0  0
 38 39  2  0  0  0
 39 42  1  0  0  0
 42 43  1  0  0  0
 43 44  1  0  0  0
 43 45  1  0  0  0
 43 46  1  0  0  0
 40 37  1  0  0  0
 37 34  1  0  0  0
 37 47  1  0  0  0
 34 35  1  0  0  0
 34 33  1  0  0  0
 47 48  1  0  0  0
 48 49  2  0  0  0
 48 50  1  0  0  0
 49 51  1  0  0  0
 50 52  2  0  0  0
 51 53  2  0  0  0
 52 53  1  0  0  0
 31  1  1  0  0  0
  1  2  1  0  0  0
  1 54  1  0  0  0
  2  3  2  0  0  0
 54 55  1  0  0  0
 55 56  2  0  0  0
 55 57  1  0  0  0
 56 58  1  0  0  0
 57 59  2  0  0  0
 58 60  2  0  0  0
 59 60  1  0  0  0
  4  6  1  0  0  0
  6  7  1  0  0  0
  6 24  1  0  0  0
  7  8  2  0  0  0
 24 25  1  0  0  0
 25 26  1  0  0  0
 26 27  2  0  0  0
 26 28  1  0  0  0
  9 11  1  0  0  0
 11 12  1  0  0  0
 11 17  1  0  0  0
 12 13  2  0  0  0
 17 18  1  0  0  0
 18 19  2  0  0  0
 18 20  1  0  0  0
 19 21  1  0  0  0
 20 22  2  0  0  0
 21 23  2  0  0  0
 22 23  1  0  0  0
 39 40  1  0  0  0
 33 31  1  0  0  0
  2  4  1  0  0  0
  7  9  1  0  0  0
 12 14  1  0  0  0
 40 41  1  0  0  0
 35 36  1  0  0  0
 31 32  1  0  0  0
  4  5  1  0  0  0
 28 29  1  0  0  0
 28 30  1  0  0  0
  9 10  1  0  0  0
 14 15  1  0  0  0
 14 16  1  0  0  0
M  END
> <minimizedAffinity>
-9.70224

$$$$
1IIQ_0ZR_A_201


 60 62  0  0  0  0  0  0  0  0999 V2000
   10.3703   24.5988    3.9173 C   0  0  0  0  0  0  0  0  0  0  0  0
    9.5753   24.9949    5.1525 C   0  0  0  0  0  0  0  0  0  0  0  0
    9.6681   24.3837    6.2219 O   0  0  0  0  0  0  0  0  0  0  0  0
    8.7768   26.0344    4.9827 N   0  0  0  0  0  0  0  0  0  0  0  0
    8.7554   26.4801    4.1052 H   0  0  0  0  0  0  0  0  0  0  0  0
    7.9328   26.5387    6.0451 C   0  0  0  0  0  0  0  0  0  0  0  0
    6.5604   26.8188    5.4366 C   0  0  0  0  0  0  0  0  0  0  0  0
    6.4493   27.5084    4.4128 O   0  0  0  0  0  0  0  0  0  0  0  0
    5.5216   26.2496    6.0412 N   0  0  0  0  0  0  0  0  0  0  0  0
    5.6736   25.6690    6.8216 H   0  0  0  0  0  0  0  0  0  0  0  0
    4.1636   26.4714    5.5674 C   0  0  0  0  0  0  0  0  0  0  0  0
    3.6026   27.7524    6.1695 C   0  0  0  0  0  0  0  0  0  0  0  0
    3.1653   27.7668    7.3173 O   0  0  0  0  0  0  0  0  0  0  0  0
    3.6383   28.8367    5.4046 N   0  0  0  0  0  0  0  0  0  0  0  0
    3.9970   28.7819    4.4894 H   0  0  0  0  0  0  0  0  0  0  0  0
    3.3061   29.6957    5.7524 H   0  0  0  0  0  0  0  0  0  0  0  0
    3.2725   25.2602    5.8978 C   0  0  0  0  0  0  0  0  0  0  0  0
    3.0088   24.3425    4.7273 C   0  0  0  0  0  0  0  0  0  0  0  0
    2.3647   24.8155    3.5828 C   0  0  0  0  0  0  0  0  0  0  0  0
    3.4220   23.0119    4.7636 C   0  0  0  0  0  0  0  0  0  0  0  0
    2.1357   23.9766    2.4863 C   0  0  0  0  0  0  0  0  0  0  0  0
    3.1997   22.1619    3.6744 C   0  0  0  0  0  0  0  0  0  0  0  0
    2.5546   22.6491    2.5331 C   0  0  0  0  0  0  0  0  0  0  0  0
    8.5495   27.8126    6.6407 C   0  0  0  0  0  0  0  0  0  0  0  0
    8.7049   27.8256    8.1573 C   0  0  0  0  0  0  0  0  0  0  0  0
    9.2372   26.5014    8.7177 C   0  0  0  0  0  0  0  0  0  0  0  0
    8.4882   25.7022    9.2856 O   0  0  0  0  0  0  0  0  0  0  0  0
   10.5393   26.2790    8.5781 N   0  0  0  0  0  0  0  0  0  0  0  0
   11.1052   26.9407    8.1186 H   0  0  0  0  0  0  0  0  0  0  0  0
   10.9384   25.4525    8.9342 H   0  0  0  0  0  0  0  0  0  0  0  0
   11.6836   24.0266    4.1909 N   0  0  0  0  0  0  0  0  0  0  0  0
   11.7744   23.9048    5.1995 H   0  0  0  0  0  0  0  0  0  0  0  0
   11.9223   22.7538    3.5603 C   0  0  0  0  0  0  0  0  0  0  0  0
   12.4798   21.7560    4.5790 C   0  0  0  0  0  0  0  0  0  0  0  0
   11.5048   21.4995    5.5604 O   0  0  0  0  0  0  0  0  0  0  0  0
   11.2813   22.3252    6.0177 H   0  0  0  0  0  0  0  0  0  0  0  0
   13.7402   22.3080    5.2469 C   0  0  0  0  0  0  0  0  0  0  0  0
   13.6510   23.9688    7.5152 O   0  0  0  0  0  0  0  0  0  0  0  0
   13.8188   22.7637    7.6744 C   0  0  0  0  0  0  0  0  0  0  0  0
   13.8936   21.8590    6.6436 N   0  0  0  0  0  0  0  0  0  0  0  0
   14.0503   20.9066    6.8379 H   0  0  0  0  0  0  0  0  0  0  0  0
   13.9139   22.0916    8.8945 O   0  0  0  0  0  0  0  0  0  0  0  0
   15.2289   21.8034    9.6095 C   0  0  0  0  0  0  0  0  0  0  0  0
   15.0310   22.1508   11.0951 C   0  0  0  0  0  0  0  0  0  0  0  0
   16.3259   22.6794    8.9961 C   0  0  0  0  0  0  0  0  0  0  0  0
   15.5570   20.3080    9.4468 C   0  0  0  0  0  0  0  0  0  0  0  0
   14.9468   21.9047    4.4003 C   0  0  0  0  0  0  0  0  0  0  0  0
   14.8480   20.5333    3.8393 C   0  0  0  0  0  0  0  0  0  0  0  0
   15.0194   19.4246    4.6577 C   0  0  0  0  0  0  0  0  0  0  0  0
   14.6327   20.3435    2.4811 C   0  0  0  0  0  0  0  0  0  0  0  0
   14.9813   18.1421    4.1316 C   0  0  0  0  0  0  0  0  0  0  0  0
   14.5966   19.0656    1.9473 C   0  0  0  0  0  0  0  0  0  0  0  0
   14.7701   17.9616    2.7716 C   0  0  0  0  0  0  0  0  0  0  0  0
    9.5137   23.6574    3.0655 C   0  0  0  0  0  0  0  0  0  0  0  0
    8.2789   24.3133    2.5084 C   0  0  0  0  0  0  0  0  0  0  0  0
    8.3770   25.4167    1.6622 C   0  0  0  0  0  0  0  0  0  0  0  0
    7.0159   23.8148    2.8156 C   0  0  0  0  0  0  0  0  0  0  0  0
    7.2294   26.0152    1.1290 C   0  0  0  0  0  0  0  0  0  0  0  0
    5.8650   24.4050    2.2914 C   0  0  0  0  0  0  0  0  0  0  0  0
    5.9722   25.5064    1.4465 C   0  0  0  0  0  0  0  0  0  0  0  0
 38 39  2  0  0  0
 39 42  1  0  0  0
 42 43  1  0  0  0
 43 44  1  0  0  0
 43 45  1  0  0  0
 43 46  1  0  0  0
 40 37  1  0  0  0
 37 34  1  0  0  0
 37 47  1  0  0  0
 34 35  1  0  0  0
 34 33  1  0  0  0
 47 48  1  0  0  0
 48 49  2  0  0  0
 48 50  1  0  0  0
 49 51  1  0  0  0
 50 52  2  0  0  0
 51 53  2  0  0  0
 52 53  1  0  0  0
 31  1  1  0  0  0
  1  2  1  0  0  0
  1 54  1  0  0  0
  2  3  2  0  0  0
 54 55  1  0  0  0
 55 56  2  0  0  0
 55 57  1  0  0  0
 56 58  1  0  0  0
 57 59  2  0  0  0
 58 60  2  0  0  0
 59 60  1  0  0  0
  4  6  1  0  0  0
  6  7  1  0  0  0
  6 24  1  0  0  0
  7  8  2  0  0  0
 24 25  1  0  0  0
 25 26  1  0  0  0
 26 27  2  0  0  0
 26 28  1  0  0  0
  9 11  1  0  0  0
 11 12  1  0  0  0
 11 17  1  0  0  0
 12 13  2  0  0  0
 17 18  1  0  0  0
 18 19  2  0  0  0
 18 20  1  0  0  0
 19 21  1  0  0  0
 20 22  2  0  0  0
 21 23  2  0  0  0
 22 23  1  0  0  0
 39 40  1  0  0  0
 33 31  1  0  0  0
  2  4  1  0  0  0
  7  9  1  0  0  0
 12 14  1  0  0  0
 40 41  1  0  0  0
 35 36  1  0  0  0
 31 32  1  0  0  0
  4  5  1  0  0  0
 28 29  1  0  0  0
 28 30  1  0  0  0
  9 10  1  0  0  0
 14 15  1  0  0  0
 14 16  1  0  0  0
M  END
> <minimizedAffinity>
-9.70095

$$$$
1IIQ_0ZR_A_201


 60 62  0  0  0  0  0  0  0  0999 V2000
   12.6196   24.1668    4.8340 C   0  0  0  0  0  0  0  0  0  0  0  0
   11.4729   24.3712    5.8128 C   0  0  0  0  0  0  0  0  0  0  0  0
   11.2665   23.6035    6.7581 O   0  0  0  0  0  0  0  0  0  0  0  0
   10.7173   25.4264    5.5621 N   0  0  0  0  0  0  0  0  0  0  0  0
   10.9413   26.0011    4.7948 H   0  0  0  0  0  0  0  0  0  0  0  0
    9.5712   25.7643    6.3791 C   0  0  0  0  0  0  0  0  0  0  0  0
    8.6030   26.5482    5.4959 C   0  0  0  0  0  0  0  0  0  0  0  0
    8.7014   27.7785    5.3832 O   0  0  0  0  0  0  0  0  0  0  0  0
    7.6959   25.8323    4.8376 N   0  0  0  0  0  0  0  0  0  0  0  0
    7.6964   24.8516    4.9247 H   0  0  0  0  0  0  0  0  0  0  0  0
    6.7025   26.4754    3.9907 C   0  0  0  0  0  0  0  0  0  0  0  0
    5.4662   26.8248    4.8078 C   0  0  0  0  0  0  0  0  0  0  0  0
    4.7120   27.7258    4.4499 O   0  0  0  0  0  0  0  0  0  0  0  0
    5.2425   26.0942    5.8934 N   0  0  0  0  0  0  0  0  0  0  0  0
    5.8726   25.3810    6.1452 H   0  0  0  0  0  0  0  0  0  0  0  0
    4.4464   26.2657    6.4467 H   0  0  0  0  0  0  0  0  0  0  0  0
    6.3470   25.5727    2.7953 C   0  0  0  0  0  0  0  0  0  0  0  0
    5.2718   24.5516    3.0832 C   0  0  0  0  0  0  0  0  0  0  0  0
    5.5673   23.3882    3.7958 C   0  0  0  0  0  0  0  0  0  0  0  0
    3.9615   24.7638    2.6580 C   0  0  0  0  0  0  0  0  0  0  0  0
    4.5720   22.4477    4.0844 C   0  0  0  0  0  0  0  0  0  0  0  0
    2.9563   23.8320    2.9397 C   0  0  0  0  0  0  0  0  0  0  0  0
    3.2657   22.6712    3.6560 C   0  0  0  0  0  0  0  0  0  0  0  0
   10.0205   26.5959    7.5893 C   0  0  0  0  0  0  0  0  0  0  0  0
    9.3350   26.2653    8.9103 C   0  0  0  0  0  0  0  0  0  0  0  0
    7.9880   26.9775    9.0824 C   0  0  0  0  0  0  0  0  0  0  0  0
    7.9142   28.0766    9.6380 O   0  0  0  0  0  0  0  0  0  0  0  0
    6.9169   26.3390    8.6250 N   0  0  0  0  0  0  0  0  0  0  0  0
    7.0157   25.4629    8.1870 H   0  0  0  0  0  0  0  0  0  0  0  0
    6.0241   26.7419    8.7240 H   0  0  0  0  0  0  0  0  0  0  0  0
   13.9457   24.1399    5.4403 N   0  0  0  0  0  0  0  0  0  0  0  0
   13.8381   24.2574    6.4478 H   0  0  0  0  0  0  0  0  0  0  0  0
   14.6842   22.9258    5.2048 C   0  0  0  0  0  0  0  0  0  0  0  0
   15.2409   22.3821    6.5234 C   0  0  0  0  0  0  0  0  0  0  0  0
   16.2350   23.2545    7.0035 O   0  0  0  0  0  0  0  0  0  0  0  0
   16.9555   23.3110    6.3565 H   0  0  0  0  0  0  0  0  0  0  0  0
   15.8396   20.9884    6.3272 C   0  0  0  0  0  0  0  0  0  0  0  0
   18.2488   21.0190    7.7783 O   0  0  0  0  0  0  0  0  0  0  0  0
   17.3002   20.3823    8.2261 C   0  0  0  0  0  0  0  0  0  0  0  0
   16.0817   20.2830    7.6000 N   0  0  0  0  0  0  0  0  0  0  0  0
   15.3668   19.7388    8.0023 H   0  0  0  0  0  0  0  0  0  0  0  0
   17.2582   19.6977    9.4423 O   0  0  0  0  0  0  0  0  0  0  0  0
   18.2605   18.6252    9.8526 C   0  0  0  0  0  0  0  0  0  0  0  0
   18.3770   17.6323    8.6833 C   0  0  0  0  0  0  0  0  0  0  0  0
   17.7388   17.9168   11.1069 C   0  0  0  0  0  0  0  0  0  0  0  0
   19.6178   19.3006   10.1208 C   0  0  0  0  0  0  0  0  0  0  0  0
   14.9047   20.1888    5.4206 C   0  0  0  0  0  0  0  0  0  0  0  0
   15.6164   19.3657    4.4102 C   0  0  0  0  0  0  0  0  0  0  0  0
   14.9061   18.5399    3.5488 C   0  0  0  0  0  0  0  0  0  0  0  0
   17.0032   19.3738    4.3477 C   0  0  0  0  0  0  0  0  0  0  0  0
   15.5665   17.7285    2.6386 C   0  0  0  0  0  0  0  0  0  0  0  0
   17.6706   18.5638    3.4433 C   0  0  0  0  0  0  0  0  0  0  0  0
   16.9536   17.7395    2.5860 C   0  0  0  0  0  0  0  0  0  0  0  0
   12.3479   22.8979    4.0206 C   0  0  0  0  0  0  0  0  0  0  0  0
   11.0727   22.9610    3.2235 C   0  0  0  0  0  0  0  0  0  0  0  0
   10.1622   21.9058    3.2493 C   0  0  0  0  0  0  0  0  0  0  0  0
   10.7730   24.0860    2.4603 C   0  0  0  0  0  0  0  0  0  0  0  0
    8.9674   21.9723    2.5228 C   0  0  0  0  0  0  0  0  0  0  0  0
    9.5858   24.1621    1.7305 C   0  0  0  0  0  0  0  0  0  0  0  0
    8.6817   23.1038    1.7624 C   0  0  0  0  0  0  0  0  0  0  0  0
 38 39  2  0  0  0
 39 42  1  0  0  0
 42 43  1  0  0  0
 43 44  1  0  0  0
 43 45  1  0  0  0
 43 46  1  0  0  0
 40 37  1  0  0  0
 37 34  1  0  0  0
 37 47  1  0  0  0
 34 35  1  0  0  0
 34 33  1  0  0  0
 47 48  1  0  0  0
 48 49  2  0  0  0
 48 50  1  0  0  0
 49 51  1  0  0  0
 50 52  2  0  0  0
 51 53  2  0  0  0
 52 53  1  0  0  0
 31  1  1  0  0  0
  1  2  1  0  0  0
  1 54  1  0  0  0
  2  3  2  0  0  0
 54 55  1  0  0  0
 55 56  2  0  0  0
 55 57  1  0  0  0
 56 58  1  0  0  0
 57 59  2  0  0  0
 58 60  2  0  0  0
 59 60  1  0  0  0
  4  6  1  0  0  0
  6  7  1  0  0  0
  6 24  1  0  0  0
  7  8  2  0  0  0
 24 25  1  0  0  0
 25 26  1  0  0  0
 26 27  2  0  0  0
 26 28  1  0  0  0
  9 11  1  0  0  0
 11 12  1  0  0  0
 11 17  1  0  0  0
 12 13  2  0  0  0
 17 18  1  0  0  0
 18 19  2  0  0  0
 18 20  1  0  0  0
 19 21  1  0  0  0
 20 22  2  0  0  0
 21 23  2  0  0  0
 22 23  1  0  0  0
 39 40  1  0  0  0
 33 31  1  0  0  0
  2  4  1  0  0  0
  7  9  1  0  0  0
 12 14  1  0  0  0
 40 41  1  0  0  0
 35 36  1  0  0  0
 31 32  1  0  0  0
  4  5  1  0  0  0
 28 29  1  0  0  0
 28 30  1  0  0  0
  9 10  1  0  0  0
 14 15  1  0  0  0
 14 16  1  0  0  0
M  END
> <minimizedAffinity>
-9.61116

$$$$
1IIQ_0ZR_A_201


 60 62  0  0  0  0  0  0  0  0999 V2000
   11.3904   25.0126    4.5246 C   0  0  0  0  0  0  0  0  0  0  0  0
   10.3254   25.1715    5.5994 C   0  0  0  0  0  0  0  0  0  0  0  0
   10.1499   24.3287    6.4852 O   0  0  0  0  0  0  0  0  0  0  0  0
    9.6039   26.2745    5.5000 N   0  0  0  0  0  0  0  0  0  0  0  0
    9.8003   26.9081    4.7726 H   0  0  0  0  0  0  0  0  0  0  0  0
    8.5343   26.5811    6.4260 C   0  0  0  0  0  0  0  0  0  0  0  0
    7.2911   26.8875    5.5938 C   0  0  0  0  0  0  0  0  0  0  0  0
    7.3601   27.6199    4.5965 O   0  0  0  0  0  0  0  0  0  0  0  0
    6.1648   26.2937    5.9782 N   0  0  0  0  0  0  0  0  0  0  0  0
    6.1789   25.6805    6.7483 H   0  0  0  0  0  0  0  0  0  0  0  0
    4.9121   26.5362    5.2787 C   0  0  0  0  0  0  0  0  0  0  0  0
    3.9924   27.3951    6.1358 C   0  0  0  0  0  0  0  0  0  0  0  0
    3.3684   26.9035    7.0727 O   0  0  0  0  0  0  0  0  0  0  0  0
    3.9276   28.6859    5.8327 N   0  0  0  0  0  0  0  0  0  0  0  0
    4.4442   29.0396    5.0729 H   0  0  0  0  0  0  0  0  0  0  0  0
    3.3629   29.2894    6.3676 H   0  0  0  0  0  0  0  0  0  0  0  0
    4.2403   25.2043    4.8978 C   0  0  0  0  0  0  0  0  0  0  0  0
    4.0204   25.0185    3.4149 C   0  0  0  0  0  0  0  0  0  0  0  0
    3.6178   23.7834    2.9042 C   0  0  0  0  0  0  0  0  0  0  0  0
    4.1977   26.0838    2.5338 C   0  0  0  0  0  0  0  0  0  0  0  0
    3.3919   23.6095    1.5340 C   0  0  0  0  0  0  0  0  0  0  0  0
    3.9753   25.9242    1.1616 C   0  0  0  0  0  0  0  0  0  0  0  0
    3.5706   24.6816    0.6632 C   0  0  0  0  0  0  0  0  0  0  0  0
    8.9295   27.7796    7.3007 C   0  0  0  0  0  0  0  0  0  0  0  0
    8.7926   27.5743    8.8051 C   0  0  0  0  0  0  0  0  0  0  0  0
    9.3127   26.2105    9.2749 C   0  0  0  0  0  0  0  0  0  0  0  0
   10.4823   26.0652    9.6396 O   0  0  0  0  0  0  0  0  0  0  0  0
    8.4475   25.2032    9.2442 N   0  0  0  0  0  0  0  0  0  0  0  0
    7.5218   25.3582    8.9469 H   0  0  0  0  0  0  0  0  0  0  0  0
    8.7318   24.3015    9.5187 H   0  0  0  0  0  0  0  0  0  0  0  0
   12.7594   24.9470    5.0231 N   0  0  0  0  0  0  0  0  0  0  0  0
   12.7995   25.4467    5.9114 H   0  0  0  0  0  0  0  0  0  0  0  0
   13.2528   23.6105    5.2355 C   0  0  0  0  0  0  0  0  0  0  0  0
   14.7383   23.6484    5.6046 C   0  0  0  0  0  0  0  0  0  0  0  0
   15.5062   23.7634    4.4312 O   0  0  0  0  0  0  0  0  0  0  0  0
   15.3425   22.9958    3.8611 H   0  0  0  0  0  0  0  0  0  0  0  0
   15.1445   22.3792    6.3554 C   0  0  0  0  0  0  0  0  0  0  0  0
   14.1039   20.0660    5.1401 O   0  0  0  0  0  0  0  0  0  0  0  0
   15.2864   20.3420    4.9639 C   0  0  0  0  0  0  0  0  0  0  0  0
   15.9073   21.4353    5.5169 N   0  0  0  0  0  0  0  0  0  0  0  0
   16.8657   21.5896    5.3529 H   0  0  0  0  0  0  0  0  0  0  0  0
   16.1900   19.6504    4.1548 O   0  0  0  0  0  0  0  0  0  0  0  0
   15.7797   18.7277    3.0131 C   0  0  0  0  0  0  0  0  0  0  0  0
   17.0627   18.3140    2.2717 C   0  0  0  0  0  0  0  0  0  0  0  0
   14.8414   19.4924    2.0740 C   0  0  0  0  0  0  0  0  0  0  0  0
   15.0818   17.4917    3.6093 C   0  0  0  0  0  0  0  0  0  0  0  0
   15.9420   22.7893    7.5928 C   0  0  0  0  0  0  0  0  0  0  0  0
   16.3959   21.6396    8.4157 C   0  0  0  0  0  0  0  0  0  0  0  0
   17.7510   21.3958    8.5968 C   0  0  0  0  0  0  0  0  0  0  0  0
   15.4720   20.7657    8.9724 C   0  0  0  0  0  0  0  0  0  0  0  0
   18.1829   20.2939    9.3195 C   0  0  0  0  0  0  0  0  0  0  0  0
   15.8956   19.6608    9.6931 C   0  0  0  0  0  0  0  0  0  0  0  0
   17.2524   19.4227    9.8689 C   0  0  0  0  0  0  0  0  0  0  0  0
   11.0443   23.7897    3.6702 C   0  0  0  0  0  0  0  0  0  0  0  0
    9.6955   23.8852    3.0090 C   0  0  0  0  0  0  0  0  0  0  0  0
    9.3084   25.0465    2.3423 C   0  0  0  0  0  0  0  0  0  0  0  0
    8.8182   22.8047    3.0372 C   0  0  0  0  0  0  0  0  0  0  0  0
    8.0615   25.1287    1.7112 C   0  0  0  0  0  0  0  0  0  0  0  0
    7.5718   22.8764    2.4134 C   0  0  0  0  0  0  0  0  0  0  0  0
    7.1934   24.0400    1.7491 C   0  0  0  0  0  0  0  0  0  0  0  0
 38 39  2  0  0  0
 39 42  1  0  0  0
 42 43  1  0  0  0
 43 44  1  0  0  0
 43 45  1  0  0  0
 43 46  1  0  0  0
 40 37  1  0  0  0
 37 34  1  0  0  0
 37 47  1  0  0  0
 34 35  1  0  0  0
 34 33  1  0  0  0
 47 48  1  0  0  0
 48 49  2  0  0  0
 48 50  1  0  0  0
 49 51  1  0  0  0
 50 52  2  0  0  0
 51 53  2  0  0  0
 52 53  1  0  0  0
 31  1  1  0  0  0
  1  2  1  0  0  0
  1 54  1  0  0  0
  2  3  2  0  0  0
 54 55  1  0  0  0
 55 56  2  0  0  0
 55 57  1  0  0  0
 56 58  1  0  0  0
 57 59  2  0  0  0
 58 60  2  0  0  0
 59 60  1  0  0  0
  4  6  1  0  0  0
  6  7  1  0  0  0
  6 24  1  0  0  0
  7  8  2  0  0  0
 24 25  1  0  0  0
 25 26  1  0  0  0
 26 27  2  0  0  0
 26 28  1  0  0  0
  9 11  1  0  0  0
 11 12  1  0  0  0
 11 17  1  0  0  0
 12 13  2  0  0  0
 17 18  1  0  0  0
 18 19  2  0  0  0
 18 20  1  0  0  0
 19 21  1  0  0  0
 20 22  2  0  0  0
 21 23  2  0  0  0
 22 23  1  0  0  0
 39 40  1  0  0  0
 33 31  1  0  0  0
  2  4  1  0  0  0
  7  9  1  0  0  0
 12 14  1  0  0  0
 40 41  1  0  0  0
 35 36  1  0  0  0
 31 32  1  0  0  0
  4  5  1  0  0  0
 28 29  1  0  0  0
 28 30  1  0  0  0
  9 10  1  0  0  0
 14 15  1  0  0  0
 14 16  1  0  0  0
M  END
> <minimizedAffinity>
-9.55804

$$$$
1IIQ_0ZR_A_201


 60 62  0  0  0  0  0  0  0  0999 V2000
   10.3372   24.3025    6.1079 C   0  0  0  0  0  0  0  0  0  0  0  0
    9.6753   24.7102    4.8001 C   0  0  0  0  0  0  0  0  0  0  0  0
   10.3261   25.0796    3.8174 O   0  0  0  0  0  0  0  0  0  0  0  0
    8.3552   24.6446    4.8079 N   0  0  0  0  0  0  0  0  0  0  0  0
    7.8985   24.3355    5.6234 H   0  0  0  0  0  0  0  0  0  0  0  0
    7.5591   25.0125    3.6563 C   0  0  0  0  0  0  0  0  0  0  0  0
    6.4979   25.9993    4.1380 C   0  0  0  0  0  0  0  0  0  0  0  0
    6.5614   27.1986    3.8317 O   0  0  0  0  0  0  0  0  0  0  0  0
    5.5014   25.4881    4.8552 N   0  0  0  0  0  0  0  0  0  0  0  0
    5.4745   24.5187    5.0250 H   0  0  0  0  0  0  0  0  0  0  0  0
    4.4503   26.3387    5.3928 C   0  0  0  0  0  0  0  0  0  0  0  0
    4.9733   27.1241    6.5878 C   0  0  0  0  0  0  0  0  0  0  0  0
    5.2242   26.5584    7.6488 O   0  0  0  0  0  0  0  0  0  0  0  0
    5.1636   28.4257    6.4092 N   0  0  0  0  0  0  0  0  0  0  0  0
    4.9494   28.8402    5.5423 H   0  0  0  0  0  0  0  0  0  0  0  0
    5.5188   28.9766    7.1438 H   0  0  0  0  0  0  0  0  0  0  0  0
    3.2171   25.4985    5.7714 C   0  0  0  0  0  0  0  0  0  0  0  0
    1.9969   26.3111    6.1358 C   0  0  0  0  0  0  0  0  0  0  0  0
    1.4905   27.2688    5.2555 C   0  0  0  0  0  0  0  0  0  0  0  0
    1.3451   26.1042    7.3502 C   0  0  0  0  0  0  0  0  0  0  0  0
    0.3483   28.0107    5.5773 C   0  0  0  0  0  0  0  0  0  0  0  0
    0.2020   26.8387    7.6849 C   0  0  0  0  0  0  0  0  0  0  0  0
   -0.2959   27.7941    6.7930 C   0  0  0  0  0  0  0  0  0  0  0  0
    6.9181   23.7589    3.0435 C   0  0  0  0  0  0  0  0  0  0  0  0
    7.6104   23.1996    1.8058 C   0  0  0  0  0  0  0  0  0  0  0  0
    8.9349   22.4960    2.1249 C   0  0  0  0  0  0  0  0  0  0  0  0
    8.9559   21.4169    2.7227 O   0  0  0  0  0  0  0  0  0  0  0  0
   10.0443   23.1199    1.7454 N   0  0  0  0  0  0  0  0  0  0  0  0
    9.9873   23.9802    1.2700 H   0  0  0  0  0  0  0  0  0  0  0  0
   10.9237   22.7221    1.9394 H   0  0  0  0  0  0  0  0  0  0  0  0
   11.3312   23.2422    5.9875 N   0  0  0  0  0  0  0  0  0  0  0  0
   11.1702   22.7527    5.1072 H   0  0  0  0  0  0  0  0  0  0  0  0
   12.6967   23.7007    6.0046 C   0  0  0  0  0  0  0  0  0  0  0  0
   13.4285   23.2273    4.7458 C   0  0  0  0  0  0  0  0  0  0  0  0
   12.5023   23.0808    3.6967 O   0  0  0  0  0  0  0  0  0  0  0  0
   11.8374   22.4187    3.9426 H   0  0  0  0  0  0  0  0  0  0  0  0
   14.1298   21.8910    4.9947 C   0  0  0  0  0  0  0  0  0  0  0  0
   16.4033   20.7895    6.2311 O   0  0  0  0  0  0  0  0  0  0  0  0
   15.4208   21.0399    6.9222 C   0  0  0  0  0  0  0  0  0  0  0  0
   14.2516   21.5647    6.4281 N   0  0  0  0  0  0  0  0  0  0  0  0
   13.4915   21.7237    7.0332 H   0  0  0  0  0  0  0  0  0  0  0  0
   15.3187   20.8920    8.3069 O   0  0  0  0  0  0  0  0  0  0  0  0
   16.1633   21.6662    9.3122 C   0  0  0  0  0  0  0  0  0  0  0  0
   15.3401   21.7909   10.6059 C   0  0  0  0  0  0  0  0  0  0  0  0
   16.4685   23.0524    8.7358 C   0  0  0  0  0  0  0  0  0  0  0  0
   17.4587   20.8765    9.5740 C   0  0  0  0  0  0  0  0  0  0  0  0
   13.3663   20.8019    4.2421 C   0  0  0  0  0  0  0  0  0  0  0  0
   14.2454   19.7691    3.6375 C   0  0  0  0  0  0  0  0  0  0  0  0
   14.5197   18.5915    4.3204 C   0  0  0  0  0  0  0  0  0  0  0  0
   14.8436   19.9898    2.4044 C   0  0  0  0  0  0  0  0  0  0  0  0
   15.3817   17.6459    3.7858 C   0  0  0  0  0  0  0  0  0  0  0  0
   15.7085   19.0515    1.8650 C   0  0  0  0  0  0  0  0  0  0  0  0
   15.9791   17.8767    2.5543 C   0  0  0  0  0  0  0  0  0  0  0  0
   10.9261   25.5524    6.7684 C   0  0  0  0  0  0  0  0  0  0  0  0
    9.9465   26.2806    7.6491 C   0  0  0  0  0  0  0  0  0  0  0  0
    9.7775   25.9142    8.9834 C   0  0  0  0  0  0  0  0  0  0  0  0
    9.2052   27.3471    7.1480 C   0  0  0  0  0  0  0  0  0  0  0  0
    8.8801   26.6035    9.8076 C   0  0  0  0  0  0  0  0  0  0  0  0
    8.3062   28.0399    7.9602 C   0  0  0  0  0  0  0  0  0  0  0  0
    8.1441   27.6677    9.2919 C   0  0  0  0  0  0  0  0  0  0  0  0
 38 39  2  0  0  0
 39 42  1  0  0  0
 42 43  1  0  0  0
 43 44  1  0  0  0
 43 45  1  0  0  0
 43 46  1  0  0  0
 40 37  1  0  0  0
 37 34  1  0  0  0
 37 47  1  0  0  0
 34 35  1  0  0  0
 34 33  1  0  0  0
 47 48  1  0  0  0
 48 49  2  0  0  0
 48 50  1  0  0  0
 49 51  1  0  0  0
 50 52  2  0  0  0
 51 53  2  0  0  0
 52 53  1  0  0  0
 31  1  1  0  0  0
  1  2  1  0  0  0
  1 54  1  0  0  0
  2  3  2  0  0  0
 54 55  1  0  0  0
 55 56  2  0  0  0
 55 57  1  0  0  0
 56 58  1  0  0  0
 57 59  2  0  0  0
 58 60  2  0  0  0
 59 60  1  0  0  0
  4  6  1  0  0  0
  6  7  1  0  0  0
  6 24  1  0  0  0
  7  8  2  0  0  0
 24 25  1  0  0  0
 25 26  1  0  0  0
 26 27  2  0  0  0
 26 28  1  0  0  0
  9 11  1  0  0  0
 11 12  1  0  0  0
 11 17  1  0  0  0
 12 13  2  0  0  0
 17 18  1  0  0  0
 18 19  2  0  0  0
 18 20  1  0  0  0
 19 21  1  0  0  0
 20 22  2  0  0  0
 21 23  2  0  0  0
 22 23  1  0  0  0
 39 40  1  0  0  0
 33 31  1  0  0  0
  2  4  1  0  0  0
  7  9  1  0  0  0
 12 14  1  0  0  0
 40 41  1  0  0  0
 35 36  1  0  0  0
 31 32  1  0  0  0
  4  5  1  0  0  0
 28 29  1  0  0  0
 28 30  1  0  0  0
  9 10  1  0  0  0
 14 15  1  0  0  0
 14 16  1  0  0  0
M  END
> <minimizedAffinity>
-9.34965

$$$$
1IIQ_0ZR_A_201


 60 62  0  0  0  0  0  0  0  0999 V2000
    7.3370   26.4986    4.4459 C   0  0  0  0  0  0  0  0  0  0  0  0
    8.3630   26.8147    5.5240 C   0  0  0  0  0  0  0  0  0  0  0  0
    8.4535   27.9321    6.0425 O   0  0  0  0  0  0  0  0  0  0  0  0
    9.1487   25.8028    5.8491 N   0  0  0  0  0  0  0  0  0  0  0  0
    9.0190   24.9359    5.4009 H   0  0  0  0  0  0  0  0  0  0  0  0
   10.1938   25.9277    6.8428 C   0  0  0  0  0  0  0  0  0  0  0  0
   11.4101   25.1692    6.3163 C   0  0  0  0  0  0  0  0  0  0  0  0
   12.2545   25.7372    5.6090 O   0  0  0  0  0  0  0  0  0  0  0  0
   11.5209   23.8993    6.6955 N   0  0  0  0  0  0  0  0  0  0  0  0
   10.8469   23.5139    7.3008 H   0  0  0  0  0  0  0  0  0  0  0  0
   12.6228   23.0705    6.2301 C   0  0  0  0  0  0  0  0  0  0  0  0
   12.2630   22.4207    4.9010 C   0  0  0  0  0  0  0  0  0  0  0  0
   11.2372   21.7548    4.7858 O   0  0  0  0  0  0  0  0  0  0  0  0
   13.0937   22.6349    3.8879 N   0  0  0  0  0  0  0  0  0  0  0  0
   13.9057   23.1748    4.0229 H   0  0  0  0  0  0  0  0  0  0  0  0
   12.8977   22.2538    3.0016 H   0  0  0  0  0  0  0  0  0  0  0  0
   12.9881   22.0143    7.2890 C   0  0  0  0  0  0  0  0  0  0  0  0
   14.2803   22.2876    8.0221 C   0  0  0  0  0  0  0  0  0  0  0  0
   15.2381   23.1466    7.4805 C   0  0  0  0  0  0  0  0  0  0  0  0
   14.5292   21.7005    9.2615 C   0  0  0  0  0  0  0  0  0  0  0  0
   16.4284   23.4208    8.1637 C   0  0  0  0  0  0  0  0  0  0  0  0
   15.7149   21.9659    9.9556 C   0  0  0  0  0  0  0  0  0  0  0  0
   16.6655   22.8299    9.4024 C   0  0  0  0  0  0  0  0  0  0  0  0
    9.7123   25.3497    8.1814 C   0  0  0  0  0  0  0  0  0  0  0  0
    9.4500   26.3677    9.2855 C   0  0  0  0  0  0  0  0  0  0  0  0
    8.0539   26.9965    9.2032 C   0  0  0  0  0  0  0  0  0  0  0  0
    7.8188   28.0960    9.7111 O   0  0  0  0  0  0  0  0  0  0  0  0
    7.1194   26.2864    8.5814 N   0  0  0  0  0  0  0  0  0  0  0  0
    7.3453   25.4125    8.1883 H   0  0  0  0  0  0  0  0  0  0  0  0
    6.2008   26.6340    8.5135 H   0  0  0  0  0  0  0  0  0  0  0  0
    6.2319   27.4459    4.3548 N   0  0  0  0  0  0  0  0  0  0  0  0
    5.9345   27.4961    3.3804 H   0  0  0  0  0  0  0  0  0  0  0  0
    5.0863   27.1042    5.1583 C   0  0  0  0  0  0  0  0  0  0  0  0
    3.8270   27.0555    4.2888 C   0  0  0  0  0  0  0  0  0  0  0  0
    3.1612   28.2927    4.3648 O   0  0  0  0  0  0  0  0  0  0  0  0
    2.9032   28.4651    5.2839 H   0  0  0  0  0  0  0  0  0  0  0  0
    2.8868   25.9430    4.7555 C   0  0  0  0  0  0  0  0  0  0  0  0
    2.4591   25.6375    7.5186 O   0  0  0  0  0  0  0  0  0  0  0  0
    1.6269   26.2521    6.8588 C   0  0  0  0  0  0  0  0  0  0  0  0
    1.7214   26.4519    5.5031 N   0  0  0  0  0  0  0  0  0  0  0  0
    1.0083   26.9370    5.0284 H   0  0  0  0  0  0  0  0  0  0  0  0
    0.4847   26.8896    7.3470 O   0  0  0  0  0  0  0  0  0  0  0  0
    0.4471   28.3450    7.7985 C   0  0  0  0  0  0  0  0  0  0  0  0
   -0.5192   28.4319    8.9924 C   0  0  0  0  0  0  0  0  0  0  0  0
   -0.0568   29.2085    6.6376 C   0  0  0  0  0  0  0  0  0  0  0  0
    1.8664   28.7620    8.2249 C   0  0  0  0  0  0  0  0  0  0  0  0
    2.4507   25.1393    3.5310 C   0  0  0  0  0  0  0  0  0  0  0  0
    2.6266   23.6733    3.6884 C   0  0  0  0  0  0  0  0  0  0  0  0
    3.6251   23.1690    4.5113 C   0  0  0  0  0  0  0  0  0  0  0  0
    1.8276   22.7892    2.9763 C   0  0  0  0  0  0  0  0  0  0  0  0
    3.8298   21.8019    4.6220 C   0  0  0  0  0  0  0  0  0  0  0  0
    2.0278   21.4221    3.0790 C   0  0  0  0  0  0  0  0  0  0  0  0
    3.0292   20.9251    3.9028 C   0  0  0  0  0  0  0  0  0  0  0  0
    8.0644   26.3532    3.1061 C   0  0  0  0  0  0  0  0  0  0  0  0
    8.4177   24.9294    2.7696 C   0  0  0  0  0  0  0  0  0  0  0  0
    7.4955   23.9014    2.9593 C   0  0  0  0  0  0  0  0  0  0  0  0
    9.6689   24.6186    2.2442 C   0  0  0  0  0  0  0  0  0  0  0  0
    7.8175   22.5798    2.6288 C   0  0  0  0  0  0  0  0  0  0  0  0
   10.0013   23.3041    1.9132 C   0  0  0  0  0  0  0  0  0  0  0  0
    9.0739   22.2836    2.1053 C   0  0  0  0  0  0  0  0  0  0  0  0
 38 39  2  0  0  0
 39 42  1  0  0  0
 42 43  1  0  0  0
 43 44  1  0  0  0
 43 45  1  0  0  0
 43 46  1  0  0  0
 40 37  1  0  0  0
 37 34  1  0  0  0
 37 47  1  0  0  0
 34 35  1  0  0  0
 34 33  1  0  0  0
 47 48  1  0  0  0
 48 49  2  0  0  0
 48 50  1  0  0  0
 49 51  1  0  0  0
 50 52  2  0  0  0
 51 53  2  0  0  0
 52 53  1  0  0  0
 31  1  1  0  0  0
  1  2  1  0  0  0
  1 54  1  0  0  0
  2  3  2  0  0  0
 54 55  1  0  0  0
 55 56  2  0  0  0
 55 57  1  0  0  0
 56 58  1  0  0  0
 57 59  2  0  0  0
 58 60  2  0  0  0
 59 60  1  0  0  0
  4  6  1  0  0  0
  6  7  1  0  0  0
  6 24  1  0  0  0
  7  8  2  0  0  0
 24 25  1  0  0  0
 25 26  1  0  0  0
 26 27  2  0  0  0
 26 28  1  0  0  0
  9 11  1  0  0  0
 11 12  1  0  0  0
 11 17  1  0  0  0
 12 13  2  0  0  0
 17 18  1  0  0  0
 18 19  2  0  0  0
 18 20  1  0  0  0
 19 21  1  0  0  0
 20 22  2  0  0  0
 21 23  2  0  0  0
 22 23  1  0  0  0
 39 40  1  0  0  0
 33 31  1  0  0  0
  2  4  1  0  0  0
  7  9  1  0  0  0
 12 14  1  0  0  0
 40 41  1  0  0  0
 35 36  1  0  0  0
 31 32  1  0  0  0
  4  5  1  0  0  0
 28 29  1  0  0  0
 28 30  1  0  0  0
  9 10  1  0  0  0
 14 15  1  0  0  0
 14 16  1  0  0  0
M  END
> <minimizedAffinity>
-9.27277

$$$$
