5YJM_8W3_A_304


 47 50  0  0  0  0  0  0  0  0999 V2000
   -9.4259  -16.8873   -6.1526 C   0  0  0  0  0  0  0  0  0  0  0  0
   -8.4789  -17.3774   -5.5511 O   0  0  0  0  0  0  0  0  0  0  0  0
  -10.5093  -16.1485   -5.3787 C   0  0  0  0  0  0  0  0  0  0  0  0
  -11.9482  -16.6612   -5.5213 C   0  0  0  0  0  0  0  0  0  0  0  0
  -12.5253  -16.9323   -6.7909 N   0  0  0  0  0  0  0  0  0  0  0  0
  -12.0152  -16.7329   -8.0327 C   0  0  0  0  0  0  0  0  0  0  0  0
  -12.6510  -17.0221   -9.0792 N   0  0  0  0  0  0  0  0  0  0  0  0
  -10.6239  -16.1928   -8.2331 C   0  0  0  0  0  0  0  0  0  0  0  0
   -9.6109  -16.9968   -7.5334 N   0  0  0  0  0  0  0  0  0  0  0  0
   -8.8003  -17.7660   -8.3822 C   0  0  0  0  0  0  0  0  0  0  0  0
   -8.9932  -17.8170   -9.5541 O   0  0  0  0  0  0  0  0  0  0  0  0
   -7.8687  -18.5374   -7.8612 N   0  0  0  0  0  0  0  0  0  0  0  0
  -13.4288  -17.3226   -6.7663 H   0  0  0  0  0  0  0  0  0  0  0  0
   -7.7874  -18.5587   -6.8803 H   0  0  0  0  0  0  0  0  0  0  0  0
  -10.1524  -15.6225   -4.0041 C   0  0  0  0  0  0  0  0  0  0  0  0
  -13.8922  -15.3817   -0.4849 Cl  0  0  0  0  0  0  0  0  0  0  0  0
  -12.8984  -14.7110   -1.6118 C   0  0  0  0  0  0  0  0  0  0  0  0
  -12.0084  -15.4959   -2.3339 C   0  0  0  0  0  0  0  0  0  0  0  0
  -12.9891  -13.3320   -1.7630 C   0  0  0  0  0  0  0  0  0  0  0  0
  -12.1582  -12.7411   -2.6978 C   0  0  0  0  0  0  0  0  0  0  0  0
  -11.2199  -13.4851   -3.4487 C   0  0  0  0  0  0  0  0  0  0  0  0
  -11.1519  -14.8551   -3.2299 C   0  0  0  0  0  0  0  0  0  0  0  0
  -10.3822  -13.0551   -4.4379 O   0  0  0  0  0  0  0  0  0  0  0  0
  -10.5071  -11.7721   -5.0393 C   0  0  0  0  0  0  0  0  0  0  0  0
  -13.9711  -17.4521   -8.7777 O   0  0  0  0  0  0  0  0  0  0  0  0
  -14.7328  -17.9372   -9.7898 C   0  0  0  0  0  0  0  0  0  0  0  0
  -14.3318  -18.0292  -11.1320 C   0  0  0  0  0  0  0  0  0  0  0  0
  -15.2154  -18.6026  -12.0791 C   0  0  0  0  0  0  0  0  0  0  0  0
  -16.4358  -19.1584  -11.6927 C   0  0  0  0  0  0  0  0  0  0  0  0
  -16.8189  -19.0775  -10.3499 C   0  0  0  0  0  0  0  0  0  0  0  0
  -15.9524  -18.5140   -9.4084 C   0  0  0  0  0  0  0  0  0  0  0  0
   -6.9505  -19.3609   -8.6353 C   0  0  0  0  0  0  0  0  0  0  0  0
   -5.6923  -18.8573   -7.9832 C   0  0  0  0  0  0  0  0  0  0  0  0
   -5.2452  -19.2509   -6.6853 C   0  0  0  0  0  0  0  0  0  0  0  0
   -4.1040  -18.6962   -6.0979 C   0  0  0  0  0  0  0  0  0  0  0  0
   -3.6953  -19.1961   -4.8756 N   0  0  0  0  0  0  0  0  0  0  0  0
   -5.0084  -17.8114   -8.6310 C   0  0  0  0  0  0  0  0  0  0  0  0
   -3.8787  -17.2242   -8.0500 C   0  0  0  0  0  0  0  0  0  0  0  0
   -3.3954  -17.6533   -6.7836 C   0  0  0  0  0  0  0  0  0  0  0  0
   -4.2110  -19.9123   -4.4394 H   0  0  0  0  0  0  0  0  0  0  0  0
   -2.8884  -18.8360   -4.4414 H   0  0  0  0  0  0  0  0  0  0  0  0
   -2.1609  -16.9629   -6.2327 C   0  0  0  0  0  0  0  0  0  0  0  0
   -2.1739  -16.4513   -5.0607 O   0  0  0  0  0  0  0  0  0  0  0  0
   -1.1262  -16.8987   -6.9671 O   0  0  0  0  0  0  0  0  0  0  0  0
   -1.1350  -17.2793   -7.8232 H   0  0  0  0  0  0  0  0  0  0  0  0
   -7.5204  -20.7880   -8.6377 C   0  0  0  0  0  0  0  0  0  0  0  0
   -6.5994  -21.7964   -9.1469 C   0  0  0  0  0  0  0  0  0  0  0  0
 28 29  2  0  0  0
 28 27  1  0  0  0
 29 30  1  0  0  0
 27 26  2  0  0  0
 30 31  2  0  0  0
 26 31  1  0  0  0
 26 25  1  0  0  0
 11 10  2  0  0  0
  7 25  1  0  0  0
  7  6  2  0  0  0
 46 32  1  0  0  0
 46 47  1  0  0  0
 32 33  1  0  0  0
 32 12  1  0  0  0
 10 12  1  0  0  0
 10  9  1  0  0  0
 37 33  2  0  0  0
 37 38  1  0  0  0
  8  6  1  0  0  0
  8  9  1  0  0  0
  6  5  1  0  0  0
 33 34  1  0  0  0
 38 39  2  0  0  0
  9  1  1  0  0  0
  5  4  1  0  0  0
 34 35  2  0  0  0
 39 35  1  0  0  0
 39 42  1  0  0  0
 43 42  2  0  0  0
  1  2  2  0  0  0
  1  3  1  0  0  0
 35 36  1  0  0  0
 42 44  1  0  0  0
  4  3  1  0  0  0
  3 15  1  0  0  0
 24 23  1  0  0  0
 23 21  1  0  0  0
 15 22  1  0  0  0
 21 22  2  0  0  0
 21 20  1  0  0  0
 22 18  1  0  0  0
 20 19  2  0  0  0
 18 17  2  0  0  0
 19 17  1  0  0  0
 17 16  1  0  0  0
  5 13  1  0  0  0
 12 14  1  0  0  0
 36 40  1  0  0  0
 36 41  1  0  0  0
 44 45  1  0  0  0
M  END
> <minimizedAffinity>
-11.80219

$$$$
5YJM_8W3_A_304


 47 50  0  0  0  0  0  0  0  0999 V2000
   -9.6595  -15.7165   -6.0066 C   0  0  0  0  0  0  0  0  0  0  0  0
   -8.8587  -16.3384   -5.3207 O   0  0  0  0  0  0  0  0  0  0  0  0
  -10.6836  -14.8112   -5.3354 C   0  0  0  0  0  0  0  0  0  0  0  0
  -12.1646  -15.0993   -5.6126 C   0  0  0  0  0  0  0  0  0  0  0  0
  -12.6567  -15.2942   -6.9311 N   0  0  0  0  0  0  0  0  0  0  0  0
  -12.0095  -15.1902   -8.1195 C   0  0  0  0  0  0  0  0  0  0  0  0
  -12.5827  -15.3913   -9.2213 N   0  0  0  0  0  0  0  0  0  0  0  0
  -10.5393  -14.8718   -8.1882 C   0  0  0  0  0  0  0  0  0  0  0  0
   -9.7308  -15.8129   -7.3990 N   0  0  0  0  0  0  0  0  0  0  0  0
   -8.9729  -16.7073   -8.1703 C   0  0  0  0  0  0  0  0  0  0  0  0
   -9.0622  -16.7424   -9.3552 O   0  0  0  0  0  0  0  0  0  0  0  0
   -8.2229  -17.6058   -7.5665 N   0  0  0  0  0  0  0  0  0  0  0  0
  -13.6078  -15.5412   -6.9917 H   0  0  0  0  0  0  0  0  0  0  0  0
   -8.2369  -17.6275   -6.5823 H   0  0  0  0  0  0  0  0  0  0  0  0
  -10.3787  -14.3295   -3.9323 C   0  0  0  0  0  0  0  0  0  0  0  0
  -13.6953  -11.5959   -1.1117 Cl  0  0  0  0  0  0  0  0  0  0  0  0
  -13.0075  -13.0085   -1.6002 C   0  0  0  0  0  0  0  0  0  0  0  0
  -11.9617  -13.0127   -2.5145 C   0  0  0  0  0  0  0  0  0  0  0  0
  -13.5556  -14.1705   -1.0692 C   0  0  0  0  0  0  0  0  0  0  0  0
  -13.0018  -15.3730   -1.4701 C   0  0  0  0  0  0  0  0  0  0  0  0
  -11.9492  -15.4410   -2.4110 C   0  0  0  0  0  0  0  0  0  0  0  0
  -11.4652  -14.2480   -2.9323 C   0  0  0  0  0  0  0  0  0  0  0  0
  -11.2688  -16.5386   -2.8553 O   0  0  0  0  0  0  0  0  0  0  0  0
  -11.9291  -17.6927   -3.3608 C   0  0  0  0  0  0  0  0  0  0  0  0
  -13.9753  -15.6105   -9.0452 O   0  0  0  0  0  0  0  0  0  0  0  0
  -14.5232  -16.7211   -9.5984 C   0  0  0  0  0  0  0  0  0  0  0  0
  -15.6121  -17.4341   -9.0724 C   0  0  0  0  0  0  0  0  0  0  0  0
  -16.1130  -18.5528   -9.7826 C   0  0  0  0  0  0  0  0  0  0  0  0
  -15.6073  -18.9064  -11.0343 C   0  0  0  0  0  0  0  0  0  0  0  0
  -14.5337  -18.1790  -11.5581 C   0  0  0  0  0  0  0  0  0  0  0  0
  -14.0338  -17.0728  -10.8643 C   0  0  0  0  0  0  0  0  0  0  0  0
   -7.3745  -18.5695   -8.2535 C   0  0  0  0  0  0  0  0  0  0  0  0
   -6.0957  -18.1791   -7.5650 C   0  0  0  0  0  0  0  0  0  0  0  0
   -5.5197  -18.8941   -6.4711 C   0  0  0  0  0  0  0  0  0  0  0  0
   -4.3656  -18.4453   -5.8217 C   0  0  0  0  0  0  0  0  0  0  0  0
   -3.8283  -19.2429   -4.8287 N   0  0  0  0  0  0  0  0  0  0  0  0
   -5.5278  -16.9412   -7.9204 C   0  0  0  0  0  0  0  0  0  0  0  0
   -4.3874  -16.4606   -7.2668 C   0  0  0  0  0  0  0  0  0  0  0  0
   -3.7761  -17.1975   -6.2158 C   0  0  0  0  0  0  0  0  0  0  0  0
   -4.2649  -20.0922   -4.5893 H   0  0  0  0  0  0  0  0  0  0  0  0
   -3.0089  -18.9617   -4.3609 H   0  0  0  0  0  0  0  0  0  0  0  0
   -2.5397  -16.6015   -5.5674 C   0  0  0  0  0  0  0  0  0  0  0  0
   -1.5774  -16.1650   -6.2877 O   0  0  0  0  0  0  0  0  0  0  0  0
   -2.4838  -16.5588   -4.2989 O   0  0  0  0  0  0  0  0  0  0  0  0
   -3.1986  -16.8834   -3.7873 H   0  0  0  0  0  0  0  0  0  0  0  0
   -8.1068  -19.9199   -8.2154 C   0  0  0  0  0  0  0  0  0  0  0  0
   -7.3699  -21.0148   -8.8339 C   0  0  0  0  0  0  0  0  0  0  0  0
 28 29  2  0  0  0
 28 27  1  0  0  0
 29 30  1  0  0  0
 27 26  2  0  0  0
 30 31  2  0  0  0
 26 31  1  0  0  0
 26 25  1  0  0  0
 11 10  2  0  0  0
  7 25  1  0  0  0
  7  6  2  0  0  0
 46 32  1  0  0  0
 46 47  1  0  0  0
 32 33  1  0  0  0
 32 12  1  0  0  0
 10 12  1  0  0  0
 10  9  1  0  0  0
 37 33  2  0  0  0
 37 38  1  0  0  0
  8  6  1  0  0  0
  8  9  1  0  0  0
  6  5  1  0  0  0
 33 34  1  0  0  0
 38 39  2  0  0  0
  9  1  1  0  0  0
  5  4  1  0  0  0
 34 35  2  0  0  0
 39 35  1  0  0  0
 39 42  1  0  0  0
 43 42  2  0  0  0
  1  2  2  0  0  0
  1  3  1  0  0  0
 35 36  1  0  0  0
 42 44  1  0  0  0
  4  3  1  0  0  0
  3 15  1  0  0  0
 24 23  1  0  0  0
 23 21  1  0  0  0
 15 22  1  0  0  0
 21 22  2  0  0  0
 21 20  1  0  0  0
 22 18  1  0  0  0
 20 19  2  0  0  0
 18 17  2  0  0  0
 19 17  1  0  0  0
 17 16  1  0  0  0
  5 13  1  0  0  0
 12 14  1  0  0  0
 36 40  1  0  0  0
 36 41  1  0  0  0
 44 45  1  0  0  0
M  END
> <minimizedAffinity>
-10.52810

$$$$
5YJM_8W3_A_304


 47 50  0  0  0  0  0  0  0  0999 V2000
   -9.7937  -16.4179   -7.9455 C   0  0  0  0  0  0  0  0  0  0  0  0
   -9.1055  -16.5887   -8.9433 O   0  0  0  0  0  0  0  0  0  0  0  0
  -11.0475  -15.5583   -8.0328 C   0  0  0  0  0  0  0  0  0  0  0  0
  -11.1328  -14.3433   -7.1000 C   0  0  0  0  0  0  0  0  0  0  0  0
  -10.8537  -14.4437   -5.7106 N   0  0  0  0  0  0  0  0  0  0  0  0
  -10.5676  -15.5399   -4.9633 C   0  0  0  0  0  0  0  0  0  0  0  0
  -10.3426  -15.4754   -3.7271 N   0  0  0  0  0  0  0  0  0  0  0  0
  -10.4537  -16.9067   -5.5850 C   0  0  0  0  0  0  0  0  0  0  0  0
   -9.4795  -16.9355   -6.6860 N   0  0  0  0  0  0  0  0  0  0  0  0
   -8.2915  -17.6190   -6.3850 C   0  0  0  0  0  0  0  0  0  0  0  0
   -8.0764  -18.0506   -5.2984 O   0  0  0  0  0  0  0  0  0  0  0  0
   -7.3412  -17.6935   -7.2938 N   0  0  0  0  0  0  0  0  0  0  0  0
  -10.8703  -13.5921   -5.2169 H   0  0  0  0  0  0  0  0  0  0  0  0
   -7.4960  -17.2446   -8.1562 H   0  0  0  0  0  0  0  0  0  0  0  0
  -11.6640  -15.3568   -9.4014 C   0  0  0  0  0  0  0  0  0  0  0  0
  -16.0655  -17.9446   -8.8024 Cl  0  0  0  0  0  0  0  0  0  0  0  0
  -14.7121  -17.5351   -9.6437 C   0  0  0  0  0  0  0  0  0  0  0  0
  -13.7749  -16.6630   -9.1045 C   0  0  0  0  0  0  0  0  0  0  0  0
  -14.5925  -18.0865  -10.9143 C   0  0  0  0  0  0  0  0  0  0  0  0
  -13.4681  -17.7516  -11.6471 C   0  0  0  0  0  0  0  0  0  0  0  0
  -12.4902  -16.8554  -11.1587 C   0  0  0  0  0  0  0  0  0  0  0  0
  -12.6810  -16.3102   -9.8955 C   0  0  0  0  0  0  0  0  0  0  0  0
  -11.3113  -16.4782  -11.7361 O   0  0  0  0  0  0  0  0  0  0  0  0
  -10.3937  -17.4184  -12.2815 C   0  0  0  0  0  0  0  0  0  0  0  0
  -10.5478  -14.1589   -3.2340 O   0  0  0  0  0  0  0  0  0  0  0  0
  -11.6122  -13.9380   -2.4229 C   0  0  0  0  0  0  0  0  0  0  0  0
  -12.1783  -12.6817   -2.1547 C   0  0  0  0  0  0  0  0  0  0  0  0
  -13.3220  -12.6029   -1.3226 C   0  0  0  0  0  0  0  0  0  0  0  0
  -13.9502  -13.7511   -0.8382 C   0  0  0  0  0  0  0  0  0  0  0  0
  -13.3886  -14.9994   -1.1254 C   0  0  0  0  0  0  0  0  0  0  0  0
  -12.2604  -15.0863   -1.9466 C   0  0  0  0  0  0  0  0  0  0  0  0
   -6.0775  -18.3938   -7.1115 C   0  0  0  0  0  0  0  0  0  0  0  0
   -6.2600  -19.3566   -8.2524 C   0  0  0  0  0  0  0  0  0  0  0  0
   -6.7659  -18.9948   -9.5380 C   0  0  0  0  0  0  0  0  0  0  0  0
   -6.9824  -19.9453  -10.5404 C   0  0  0  0  0  0  0  0  0  0  0  0
   -7.3933  -19.4969  -11.7817 N   0  0  0  0  0  0  0  0  0  0  0  0
   -6.0730  -20.7237   -7.9743 C   0  0  0  0  0  0  0  0  0  0  0  0
   -6.3078  -21.6943   -8.9548 C   0  0  0  0  0  0  0  0  0  0  0  0
   -6.7559  -21.3335  -10.2549 C   0  0  0  0  0  0  0  0  0  0  0  0
   -7.5371  -18.5350  -11.9348 H   0  0  0  0  0  0  0  0  0  0  0  0
   -7.5421  -20.1393  -12.5127 H   0  0  0  0  0  0  0  0  0  0  0  0
   -6.9797  -22.4525  -11.2560 C   0  0  0  0  0  0  0  0  0  0  0  0
   -7.1544  -22.1877  -12.4948 O   0  0  0  0  0  0  0  0  0  0  0  0
   -6.9993  -23.6492  -10.8300 O   0  0  0  0  0  0  0  0  0  0  0  0
   -6.8694  -23.8243   -9.9187 H   0  0  0  0  0  0  0  0  0  0  0  0
   -4.9920  -17.3214   -6.9303 C   0  0  0  0  0  0  0  0  0  0  0  0
   -4.2001  -17.4746   -5.7163 C   0  0  0  0  0  0  0  0  0  0  0  0
 28 29  2  0  0  0
 28 27  1  0  0  0
 29 30  1  0  0  0
 27 26  2  0  0  0
 30 31  2  0  0  0
 26 31  1  0  0  0
 26 25  1  0  0  0
 11 10  2  0  0  0
  7 25  1  0  0  0
  7  6  2  0  0  0
 46 32  1  0  0  0
 46 47  1  0  0  0
 32 33  1  0  0  0
 32 12  1  0  0  0
 10 12  1  0  0  0
 10  9  1  0  0  0
 37 33  2  0  0  0
 37 38  1  0  0  0
  8  6  1  0  0  0
  8  9  1  0  0  0
  6  5  1  0  0  0
 33 34  1  0  0  0
 38 39  2  0  0  0
  9  1  1  0  0  0
  5  4  1  0  0  0
 34 35  2  0  0  0
 39 35  1  0  0  0
 39 42  1  0  0  0
 43 42  2  0  0  0
  1  2  2  0  0  0
  1  3  1  0  0  0
 35 36  1  0  0  0
 42 44  1  0  0  0
  4  3  1  0  0  0
  3 15  1  0  0  0
 24 23  1  0  0  0
 23 21  1  0  0  0
 15 22  1  0  0  0
 21 22  2  0  0  0
 21 20  1  0  0  0
 22 18  1  0  0  0
 20 19  2  0  0  0
 18 17  2  0  0  0
 19 17  1  0  0  0
 17 16  1  0  0  0
  5 13  1  0  0  0
 12 14  1  0  0  0
 36 40  1  0  0  0
 36 41  1  0  0  0
 44 45  1  0  0  0
M  END
> <minimizedAffinity>
-10.28430

$$$$
5YJM_8W3_A_304


 47 50  0  0  0  0  0  0  0  0999 V2000
   -9.6633  -15.3797   -5.8560 C   0  0  0  0  0  0  0  0  0  0  0  0
   -8.9632  -16.1807   -5.2503 O   0  0  0  0  0  0  0  0  0  0  0  0
  -10.6575  -14.5174   -5.0899 C   0  0  0  0  0  0  0  0  0  0  0  0
  -12.1337  -14.6193   -5.4945 C   0  0  0  0  0  0  0  0  0  0  0  0
  -12.5468  -14.5367   -6.8514 N   0  0  0  0  0  0  0  0  0  0  0  0
  -11.8126  -14.2855   -7.9648 C   0  0  0  0  0  0  0  0  0  0  0  0
  -12.3219  -14.2395   -9.1143 N   0  0  0  0  0  0  0  0  0  0  0  0
  -10.3207  -14.0927   -7.8951 C   0  0  0  0  0  0  0  0  0  0  0  0
   -9.6451  -15.2253   -7.2449 N   0  0  0  0  0  0  0  0  0  0  0  0
   -8.9079  -16.0357   -8.1218 C   0  0  0  0  0  0  0  0  0  0  0  0
   -8.9173  -15.8556   -9.2968 O   0  0  0  0  0  0  0  0  0  0  0  0
   -8.2743  -17.0891   -7.6492 N   0  0  0  0  0  0  0  0  0  0  0  0
  -13.5078  -14.6834   -7.0069 H   0  0  0  0  0  0  0  0  0  0  0  0
   -8.3582  -17.2806   -6.6871 H   0  0  0  0  0  0  0  0  0  0  0  0
  -10.4139  -14.3168   -3.6087 C   0  0  0  0  0  0  0  0  0  0  0  0
  -13.8172  -11.5368   -0.9408 Cl  0  0  0  0  0  0  0  0  0  0  0  0
  -13.1481  -12.9607   -1.4225 C   0  0  0  0  0  0  0  0  0  0  0  0
  -12.0428  -12.9797   -2.2636 C   0  0  0  0  0  0  0  0  0  0  0  0
  -13.7724  -14.1151   -0.9638 C   0  0  0  0  0  0  0  0  0  0  0  0
  -13.2354  -15.3264   -1.3610 C   0  0  0  0  0  0  0  0  0  0  0  0
  -12.1237  -15.4087   -2.2302 C   0  0  0  0  0  0  0  0  0  0  0  0
  -11.5629  -14.2212   -2.6825 C   0  0  0  0  0  0  0  0  0  0  0  0
  -11.4539  -16.5188   -2.6591 O   0  0  0  0  0  0  0  0  0  0  0  0
  -12.0899  -17.5572   -3.3945 C   0  0  0  0  0  0  0  0  0  0  0  0
  -13.7363  -14.3607   -9.0564 O   0  0  0  0  0  0  0  0  0  0  0  0
  -14.4859  -13.3893   -9.6346 C   0  0  0  0  0  0  0  0  0  0  0  0
  -14.7318  -13.2687  -11.0114 C   0  0  0  0  0  0  0  0  0  0  0  0
  -15.5753  -12.2288  -11.4739 C   0  0  0  0  0  0  0  0  0  0  0  0
  -16.2372  -11.3794  -10.5862 C   0  0  0  0  0  0  0  0  0  0  0  0
  -15.9994  -11.5187   -9.2150 C   0  0  0  0  0  0  0  0  0  0  0  0
  -15.1690  -12.5429   -8.7499 C   0  0  0  0  0  0  0  0  0  0  0  0
   -7.4583  -17.9902   -8.4508 C   0  0  0  0  0  0  0  0  0  0  0  0
   -6.1723  -17.7459   -7.7103 C   0  0  0  0  0  0  0  0  0  0  0  0
   -5.6941  -18.5585   -6.6377 C   0  0  0  0  0  0  0  0  0  0  0  0
   -4.5260  -18.2434   -5.9368 C   0  0  0  0  0  0  0  0  0  0  0  0
   -4.0905  -19.1302   -4.9699 N   0  0  0  0  0  0  0  0  0  0  0  0
   -5.4887  -16.5476   -7.9898 C   0  0  0  0  0  0  0  0  0  0  0  0
   -4.3317  -16.1998   -7.2835 C   0  0  0  0  0  0  0  0  0  0  0  0
   -3.8190  -17.0354   -6.2538 C   0  0  0  0  0  0  0  0  0  0  0  0
   -4.6062  -19.9480   -4.7839 H   0  0  0  0  0  0  0  0  0  0  0  0
   -3.2646  -18.9440   -4.4674 H   0  0  0  0  0  0  0  0  0  0  0  0
   -2.5562  -16.5809   -5.5445 C   0  0  0  0  0  0  0  0  0  0  0  0
   -2.5068  -16.5492   -4.2670 O   0  0  0  0  0  0  0  0  0  0  0  0
   -1.5614  -16.2256   -6.2503 O   0  0  0  0  0  0  0  0  0  0  0  0
   -1.6158  -16.2555   -7.1853 H   0  0  0  0  0  0  0  0  0  0  0  0
   -8.2452  -19.3024   -8.5924 C   0  0  0  0  0  0  0  0  0  0  0  0
   -7.5136  -20.3657   -9.2696 C   0  0  0  0  0  0  0  0  0  0  0  0
 28 29  2  0  0  0
 28 27  1  0  0  0
 29 30  1  0  0  0
 27 26  2  0  0  0
 30 31  2  0  0  0
 26 31  1  0  0  0
 26 25  1  0  0  0
 11 10  2  0  0  0
  7 25  1  0  0  0
  7  6  2  0  0  0
 46 32  1  0  0  0
 46 47  1  0  0  0
 32 33  1  0  0  0
 32 12  1  0  0  0
 10 12  1  0  0  0
 10  9  1  0  0  0
 37 33  2  0  0  0
 37 38  1  0  0  0
  8  6  1  0  0  0
  8  9  1  0  0  0
  6  5  1  0  0  0
 33 34  1  0  0  0
 38 39  2  0  0  0
  9  1  1  0  0  0
  5  4  1  0  0  0
 34 35  2  0  0  0
 39 35  1  0  0  0
 39 42  1  0  0  0
 43 42  2  0  0  0
  1  2  2  0  0  0
  1  3  1  0  0  0
 35 36  1  0  0  0
 42 44  1  0  0  0
  4  3  1  0  0  0
  3 15  1  0  0  0
 24 23  1  0  0  0
 23 21  1  0  0  0
 15 22  1  0  0  0
 21 22  2  0  0  0
 21 20  1  0  0  0
 22 18  1  0  0  0
 20 19  2  0  0  0
 18 17  2  0  0  0
 19 17  1  0  0  0
 17 16  1  0  0  0
  5 13  1  0  0  0
 12 14  1  0  0  0
 36 40  1  0  0  0
 36 41  1  0  0  0
 44 45  1  0  0  0
M  END
> <minimizedAffinity>
-9.67684

$$$$
5YJM_8W3_A_304


 47 50  0  0  0  0  0  0  0  0999 V2000
   -8.6886  -15.5878   -7.8087 C   0  0  0  0  0  0  0  0  0  0  0  0
   -7.7662  -15.6802   -8.6083 O   0  0  0  0  0  0  0  0  0  0  0  0
   -9.7269  -14.4872   -7.9797 C   0  0  0  0  0  0  0  0  0  0  0  0
   -9.9143  -13.5105   -6.8117 C   0  0  0  0  0  0  0  0  0  0  0  0
  -10.0768  -13.9627   -5.4747 N   0  0  0  0  0  0  0  0  0  0  0  0
  -10.1815  -15.2287   -4.9970 C   0  0  0  0  0  0  0  0  0  0  0  0
  -10.3267  -15.4795   -3.7726 N   0  0  0  0  0  0  0  0  0  0  0  0
  -10.0806  -16.4232   -5.9084 C   0  0  0  0  0  0  0  0  0  0  0  0
   -8.8377  -16.4176   -6.6941 N   0  0  0  0  0  0  0  0  0  0  0  0
   -7.9002  -17.3822   -6.2943 C   0  0  0  0  0  0  0  0  0  0  0  0
   -8.0797  -18.0721   -5.3431 O   0  0  0  0  0  0  0  0  0  0  0  0
   -6.7434  -17.4564   -6.9193 N   0  0  0  0  0  0  0  0  0  0  0  0
  -10.1199  -13.2527   -4.7940 H   0  0  0  0  0  0  0  0  0  0  0  0
   -6.5709  -16.8107   -7.6422 H   0  0  0  0  0  0  0  0  0  0  0  0
   -9.8751  -13.8726   -9.3559 C   0  0  0  0  0  0  0  0  0  0  0  0
  -14.9614  -13.9558  -10.0987 Cl  0  0  0  0  0  0  0  0  0  0  0  0
  -13.4959  -13.2078  -10.0924 C   0  0  0  0  0  0  0  0  0  0  0  0
  -12.3400  -13.9086   -9.7727 C   0  0  0  0  0  0  0  0  0  0  0  0
  -13.5017  -11.8502  -10.3921 C   0  0  0  0  0  0  0  0  0  0  0  0
  -12.2837  -11.1946  -10.3853 C   0  0  0  0  0  0  0  0  0  0  0  0
  -11.0773  -11.8503  -10.0498 C   0  0  0  0  0  0  0  0  0  0  0  0
  -11.1389  -13.1998   -9.7267 C   0  0  0  0  0  0  0  0  0  0  0  0
   -9.8045  -11.3552  -10.0558 O   0  0  0  0  0  0  0  0  0  0  0  0
   -9.4841  -10.0681   -9.5417 C   0  0  0  0  0  0  0  0  0  0  0  0
  -10.4827  -14.2864   -3.0173 O   0  0  0  0  0  0  0  0  0  0  0  0
  -11.6010  -14.1488   -2.2621 C   0  0  0  0  0  0  0  0  0  0  0  0
  -12.2533  -12.9346   -1.9961 C   0  0  0  0  0  0  0  0  0  0  0  0
  -13.4434  -12.9439   -1.2277 C   0  0  0  0  0  0  0  0  0  0  0  0
  -14.0289  -14.1387   -0.8070 C   0  0  0  0  0  0  0  0  0  0  0  0
  -13.3805  -15.3447   -1.0921 C   0  0  0  0  0  0  0  0  0  0  0  0
  -12.2059  -15.3447   -1.8506 C   0  0  0  0  0  0  0  0  0  0  0  0
   -5.7015  -18.4274   -6.6153 C   0  0  0  0  0  0  0  0  0  0  0  0
   -5.9554  -19.3144   -7.8029 C   0  0  0  0  0  0  0  0  0  0  0  0
   -6.4250  -18.8498   -9.0690 C   0  0  0  0  0  0  0  0  0  0  0  0
   -6.7124  -19.7288  -10.1177 C   0  0  0  0  0  0  0  0  0  0  0  0
   -7.0805  -19.1877  -11.3353 N   0  0  0  0  0  0  0  0  0  0  0  0
   -5.8798  -20.7043   -7.5933 C   0  0  0  0  0  0  0  0  0  0  0  0
   -6.1873  -21.6030   -8.6211 C   0  0  0  0  0  0  0  0  0  0  0  0
   -6.5992  -21.1432   -9.9018 C   0  0  0  0  0  0  0  0  0  0  0  0
   -7.1461  -18.2110  -11.4403 H   0  0  0  0  0  0  0  0  0  0  0  0
   -7.2771  -19.7790  -12.0976 H   0  0  0  0  0  0  0  0  0  0  0  0
   -6.9076  -22.1895  -10.9576 C   0  0  0  0  0  0  0  0  0  0  0  0
   -7.0986  -21.8449  -12.1742 O   0  0  0  0  0  0  0  0  0  0  0  0
   -6.9806  -23.4061  -10.5992 O   0  0  0  0  0  0  0  0  0  0  0  0
   -6.8376  -23.6399   -9.7032 H   0  0  0  0  0  0  0  0  0  0  0  0
   -4.4329  -17.6316   -6.2706 C   0  0  0  0  0  0  0  0  0  0  0  0
   -3.8196  -18.0080   -5.0031 C   0  0  0  0  0  0  0  0  0  0  0  0
 28 29  2  0  0  0
 28 27  1  0  0  0
 29 30  1  0  0  0
 27 26  2  0  0  0
 30 31  2  0  0  0
 26 31  1  0  0  0
 26 25  1  0  0  0
 11 10  2  0  0  0
  7 25  1  0  0  0
  7  6  2  0  0  0
 46 32  1  0  0  0
 46 47  1  0  0  0
 32 33  1  0  0  0
 32 12  1  0  0  0
 10 12  1  0  0  0
 10  9  1  0  0  0
 37 33  2  0  0  0
 37 38  1  0  0  0
  8  6  1  0  0  0
  8  9  1  0  0  0
  6  5  1  0  0  0
 33 34  1  0  0  0
 38 39  2  0  0  0
  9  1  1  0  0  0
  5  4  1  0  0  0
 34 35  2  0  0  0
 39 35  1  0  0  0
 39 42  1  0  0  0
 43 42  2  0  0  0
  1  2  2  0  0  0
  1  3  1  0  0  0
 35 36  1  0  0  0
 42 44  1  0  0  0
  4  3  1  0  0  0
  3 15  1  0  0  0
 24 23  1  0  0  0
 23 21  1  0  0  0
 15 22  1  0  0  0
 21 22  2  0  0  0
 21 20  1  0  0  0
 22 18  1  0  0  0
 20 19  2  0  0  0
 18 17  2  0  0  0
 19 17  1  0  0  0
 17 16  1  0  0  0
  5 13  1  0  0  0
 12 14  1  0  0  0
 36 40  1  0  0  0
 36 41  1  0  0  0
 44 45  1  0  0  0
M  END
> <minimizedAffinity>
-9.20228

$$$$
5YJM_8W3_A_304


 47 50  0  0  0  0  0  0  0  0999 V2000
  -10.1994  -16.4865   -8.5030 C   0  0  0  0  0  0  0  0  0  0  0  0
  -10.4447  -17.3750   -9.3087 O   0  0  0  0  0  0  0  0  0  0  0  0
   -8.8315  -16.4302   -7.8365 C   0  0  0  0  0  0  0  0  0  0  0  0
   -8.7940  -16.4831   -6.3038 C   0  0  0  0  0  0  0  0  0  0  0  0
   -9.6253  -15.6535   -5.5043 N   0  0  0  0  0  0  0  0  0  0  0  0
  -10.4819  -14.6699   -5.8795 C   0  0  0  0  0  0  0  0  0  0  0  0
  -11.1583  -14.0094   -5.0492 N   0  0  0  0  0  0  0  0  0  0  0  0
  -10.7121  -14.3397   -7.3305 C   0  0  0  0  0  0  0  0  0  0  0  0
  -11.1255  -15.5173   -8.1082 N   0  0  0  0  0  0  0  0  0  0  0  0
  -12.4730  -15.5040   -8.4995 C   0  0  0  0  0  0  0  0  0  0  0  0
  -13.2189  -14.6492   -8.1446 O   0  0  0  0  0  0  0  0  0  0  0  0
  -12.9556  -16.5179   -9.1877 N   0  0  0  0  0  0  0  0  0  0  0  0
   -9.5722  -15.8162   -4.5348 H   0  0  0  0  0  0  0  0  0  0  0  0
  -12.3478  -17.2658   -9.3888 H   0  0  0  0  0  0  0  0  0  0  0  0
   -7.6863  -17.1402   -8.5279 C   0  0  0  0  0  0  0  0  0  0  0  0
   -3.2717  -16.3085   -6.0283 Cl  0  0  0  0  0  0  0  0  0  0  0  0
   -4.4824  -17.2788   -6.5759 C   0  0  0  0  0  0  0  0  0  0  0  0
   -5.5119  -16.7634   -7.3531 C   0  0  0  0  0  0  0  0  0  0  0  0
   -4.4191  -18.6124   -6.1882 C   0  0  0  0  0  0  0  0  0  0  0  0
   -5.4296  -19.4486   -6.6276 C   0  0  0  0  0  0  0  0  0  0  0  0
   -6.5123  -18.9778   -7.4048 C   0  0  0  0  0  0  0  0  0  0  0  0
   -6.5387  -17.6284   -7.7330 C   0  0  0  0  0  0  0  0  0  0  0  0
   -7.5421  -19.6865   -7.9549 O   0  0  0  0  0  0  0  0  0  0  0  0
   -7.3297  -20.8301   -8.7736 C   0  0  0  0  0  0  0  0  0  0  0  0
  -10.8107  -14.3500   -3.7144 O   0  0  0  0  0  0  0  0  0  0  0  0
  -11.7442  -14.1757   -2.7458 C   0  0  0  0  0  0  0  0  0  0  0  0
  -12.2487  -12.9362   -2.3219 C   0  0  0  0  0  0  0  0  0  0  0  0
  -13.2594  -12.9047   -1.3299 C   0  0  0  0  0  0  0  0  0  0  0  0
  -13.8267  -14.0781   -0.8312 C   0  0  0  0  0  0  0  0  0  0  0  0
  -13.3293  -15.3085   -1.2727 C   0  0  0  0  0  0  0  0  0  0  0  0
  -12.3324  -15.3487   -2.2523 C   0  0  0  0  0  0  0  0  0  0  0  0
  -14.3260  -16.6094   -9.6718 C   0  0  0  0  0  0  0  0  0  0  0  0
  -13.9759  -16.7071  -11.1312 C   0  0  0  0  0  0  0  0  0  0  0  0
  -13.5945  -17.9163  -11.7884 C   0  0  0  0  0  0  0  0  0  0  0  0
  -13.2099  -17.9364  -13.1325 C   0  0  0  0  0  0  0  0  0  0  0  0
  -12.9386  -19.1620  -13.7113 N   0  0  0  0  0  0  0  0  0  0  0  0
  -13.8609  -15.4997  -11.8455 C   0  0  0  0  0  0  0  0  0  0  0  0
  -13.4535  -15.4939  -13.1844 C   0  0  0  0  0  0  0  0  0  0  0  0
  -13.1289  -16.7019  -13.8601 C   0  0  0  0  0  0  0  0  0  0  0  0
  -13.0063  -19.9852  -13.1756 H   0  0  0  0  0  0  0  0  0  0  0  0
  -12.6777  -19.2118  -14.6593 H   0  0  0  0  0  0  0  0  0  0  0  0
  -12.7013  -16.6005  -15.3131 C   0  0  0  0  0  0  0  0  0  0  0  0
  -13.1521  -15.6630  -16.0568 O   0  0  0  0  0  0  0  0  0  0  0  0
  -11.8978  -17.4728  -15.7686 O   0  0  0  0  0  0  0  0  0  0  0  0
  -11.5777  -18.1526  -15.2088 H   0  0  0  0  0  0  0  0  0  0  0  0
  -15.0455  -17.6421   -8.7904 C   0  0  0  0  0  0  0  0  0  0  0  0
  -16.3915  -17.9746   -9.2402 C   0  0  0  0  0  0  0  0  0  0  0  0
 28 29  2  0  0  0
 28 27  1  0  0  0
 29 30  1  0  0  0
 27 26  2  0  0  0
 30 31  2  0  0  0
 26 31  1  0  0  0
 26 25  1  0  0  0
 11 10  2  0  0  0
  7 25  1  0  0  0
  7  6  2  0  0  0
 46 32  1  0  0  0
 46 47  1  0  0  0
 32 33  1  0  0  0
 32 12  1  0  0  0
 10 12  1  0  0  0
 10  9  1  0  0  0
 37 33  2  0  0  0
 37 38  1  0  0  0
  8  6  1  0  0  0
  8  9  1  0  0  0
  6  5  1  0  0  0
 33 34  1  0  0  0
 38 39  2  0  0  0
  9  1  1  0  0  0
  5  4  1  0  0  0
 34 35  2  0  0  0
 39 35  1  0  0  0
 39 42  1  0  0  0
 43 42  2  0  0  0
  1  2  2  0  0  0
  1  3  1  0  0  0
 35 36  1  0  0  0
 42 44  1  0  0  0
  4  3  1  0  0  0
  3 15  1  0  0  0
 24 23  1  0  0  0
 23 21  1  0  0  0
 15 22  1  0  0  0
 21 22  2  0  0  0
 21 20  1  0  0  0
 22 18  1  0  0  0
 20 19  2  0  0  0
 18 17  2  0  0  0
 19 17  1  0  0  0
 17 16  1  0  0  0
  5 13  1  0  0  0
 12 14  1  0  0  0
 36 40  1  0  0  0
 36 41  1  0  0  0
 44 45  1  0  0  0
M  END
> <minimizedAffinity>
-9.08629

$$$$
5YJM_8W3_A_304


 47 50  0  0  0  0  0  0  0  0999 V2000
   -9.7489  -15.8499   -8.1040 C   0  0  0  0  0  0  0  0  0  0  0  0
  -10.1263  -16.3766   -9.1426 O   0  0  0  0  0  0  0  0  0  0  0  0
   -8.6565  -16.5131   -7.2762 C   0  0  0  0  0  0  0  0  0  0  0  0
   -8.9936  -16.8665   -5.8219 C   0  0  0  0  0  0  0  0  0  0  0  0
   -9.6002  -15.9288   -4.9437 N   0  0  0  0  0  0  0  0  0  0  0  0
   -9.9015  -14.6216   -5.1491 C   0  0  0  0  0  0  0  0  0  0  0  0
  -10.4417  -13.9056   -4.2667 N   0  0  0  0  0  0  0  0  0  0  0  0
   -9.6486  -13.9561   -6.4760 C   0  0  0  0  0  0  0  0  0  0  0  0
  -10.2939  -14.6714   -7.5869 N   0  0  0  0  0  0  0  0  0  0  0  0
  -11.4042  -14.0076   -8.1307 C   0  0  0  0  0  0  0  0  0  0  0  0
  -11.8230  -13.0000   -7.6591 O   0  0  0  0  0  0  0  0  0  0  0  0
  -12.0689  -14.5656   -9.1212 N   0  0  0  0  0  0  0  0  0  0  0  0
   -9.8369  -16.2792   -4.0546 H   0  0  0  0  0  0  0  0  0  0  0  0
  -11.7675  -15.4487   -9.4351 H   0  0  0  0  0  0  0  0  0  0  0  0
   -7.7480  -17.5003   -7.9788 C   0  0  0  0  0  0  0  0  0  0  0  0
   -3.2018  -16.0814   -6.0428 Cl  0  0  0  0  0  0  0  0  0  0  0  0
   -4.3095  -17.2089   -6.5000 C   0  0  0  0  0  0  0  0  0  0  0  0
   -5.5119  -16.8303   -7.0837 C   0  0  0  0  0  0  0  0  0  0  0  0
   -3.9772  -18.5331   -6.2379 C   0  0  0  0  0  0  0  0  0  0  0  0
   -4.8949  -19.5011   -6.6042 C   0  0  0  0  0  0  0  0  0  0  0  0
   -6.1420  -19.1755   -7.1844 C   0  0  0  0  0  0  0  0  0  0  0  0
   -6.4321  -17.8331   -7.3914 C   0  0  0  0  0  0  0  0  0  0  0  0
   -7.1154  -20.0147   -7.6467 O   0  0  0  0  0  0  0  0  0  0  0  0
   -6.9033  -20.9007   -8.7391 C   0  0  0  0  0  0  0  0  0  0  0  0
  -10.5671  -14.6085   -3.0385 O   0  0  0  0  0  0  0  0  0  0  0  0
  -11.6496  -14.3523   -2.2623 C   0  0  0  0  0  0  0  0  0  0  0  0
  -12.2420  -13.0912   -2.0907 C   0  0  0  0  0  0  0  0  0  0  0  0
  -13.4015  -12.9767   -1.2850 C   0  0  0  0  0  0  0  0  0  0  0  0
  -14.0184  -14.1004   -0.7333 C   0  0  0  0  0  0  0  0  0  0  0  0
  -13.4303  -15.3549   -0.9245 C   0  0  0  0  0  0  0  0  0  0  0  0
  -12.2863  -15.4770   -1.7190 C   0  0  0  0  0  0  0  0  0  0  0  0
  -13.2187  -13.9669   -9.7846 C   0  0  0  0  0  0  0  0  0  0  0  0
  -13.9078  -15.2623  -10.1147 C   0  0  0  0  0  0  0  0  0  0  0  0
  -14.5417  -16.1052   -9.1518 C   0  0  0  0  0  0  0  0  0  0  0  0
  -15.1054  -17.3351   -9.5046 C   0  0  0  0  0  0  0  0  0  0  0  0
  -15.7733  -18.0472   -8.5260 N   0  0  0  0  0  0  0  0  0  0  0  0
  -13.7708  -15.7447  -11.4300 C   0  0  0  0  0  0  0  0  0  0  0  0
  -14.3052  -16.9843  -11.7991 C   0  0  0  0  0  0  0  0  0  0  0  0
  -14.9886  -17.8010  -10.8571 C   0  0  0  0  0  0  0  0  0  0  0  0
  -15.8298  -17.6908   -7.6100 H   0  0  0  0  0  0  0  0  0  0  0  0
  -16.1925  -18.9107   -8.7450 H   0  0  0  0  0  0  0  0  0  0  0  0
  -15.5396  -19.1277  -11.3475 C   0  0  0  0  0  0  0  0  0  0  0  0
  -15.6335  -20.1239  -10.5511 O   0  0  0  0  0  0  0  0  0  0  0  0
  -15.8919  -19.2228  -12.5644 O   0  0  0  0  0  0  0  0  0  0  0  0
  -15.8160  -18.4822  -13.1333 H   0  0  0  0  0  0  0  0  0  0  0  0
  -13.7125  -12.8244   -8.8832 C   0  0  0  0  0  0  0  0  0  0  0  0
  -15.1070  -12.4578   -9.0963 C   0  0  0  0  0  0  0  0  0  0  0  0
 28 29  2  0  0  0
 28 27  1  0  0  0
 29 30  1  0  0  0
 27 26  2  0  0  0
 30 31  2  0  0  0
 26 31  1  0  0  0
 26 25  1  0  0  0
 11 10  2  0  0  0
  7 25  1  0  0  0
  7  6  2  0  0  0
 46 32  1  0  0  0
 46 47  1  0  0  0
 32 33  1  0  0  0
 32 12  1  0  0  0
 10 12  1  0  0  0
 10  9  1  0  0  0
 37 33  2  0  0  0
 37 38  1  0  0  0
  8  6  1  0  0  0
  8  9  1  0  0  0
  6  5  1  0  0  0
 33 34  1  0  0  0
 38 39  2  0  0  0
  9  1  1  0  0  0
  5  4  1  0  0  0
 34 35  2  0  0  0
 39 35  1  0  0  0
 39 42  1  0  0  0
 43 42  2  0  0  0
  1  2  2  0  0  0
  1  3  1  0  0  0
 35 36  1  0  0  0
 42 44  1  0  0  0
  4  3  1  0  0  0
  3 15  1  0  0  0
 24 23  1  0  0  0
 23 21  1  0  0  0
 15 22  1  0  0  0
 21 22  2  0  0  0
 21 20  1  0  0  0
 22 18  1  0  0  0
 20 19  2  0  0  0
 18 17  2  0  0  0
 19 17  1  0  0  0
 17 16  1  0  0  0
  5 13  1  0  0  0
 12 14  1  0  0  0
 36 40  1  0  0  0
 36 41  1  0  0  0
 44 45  1  0  0  0
M  END
> <minimizedAffinity>
-9.07498

$$$$
5YJM_8W3_A_304


 47 50  0  0  0  0  0  0  0  0999 V2000
   -9.6374  -15.7073   -7.9265 C   0  0  0  0  0  0  0  0  0  0  0  0
   -8.8828  -15.7461   -8.8896 O   0  0  0  0  0  0  0  0  0  0  0  0
  -10.8147  -14.7415   -7.9298 C   0  0  0  0  0  0  0  0  0  0  0  0
  -10.8896  -13.7211   -6.7867 C   0  0  0  0  0  0  0  0  0  0  0  0
  -10.7346  -14.1049   -5.4276 N   0  0  0  0  0  0  0  0  0  0  0  0
  -10.5909  -15.3427   -4.8898 C   0  0  0  0  0  0  0  0  0  0  0  0
  -10.4652  -15.5317   -3.6523 N   0  0  0  0  0  0  0  0  0  0  0  0
  -10.5243  -16.5727   -5.7560 C   0  0  0  0  0  0  0  0  0  0  0  0
   -9.4667  -16.4779   -6.7732 N   0  0  0  0  0  0  0  0  0  0  0  0
   -8.3599  -17.3059   -6.5310 C   0  0  0  0  0  0  0  0  0  0  0  0
   -8.2673  -17.9511   -5.5370 O   0  0  0  0  0  0  0  0  0  0  0  0
   -7.3454  -17.2898   -7.3706 N   0  0  0  0  0  0  0  0  0  0  0  0
  -10.7309  -13.3633   -4.7802 H   0  0  0  0  0  0  0  0  0  0  0  0
   -7.3954  -16.6749   -8.1379 H   0  0  0  0  0  0  0  0  0  0  0  0
  -11.2994  -14.2337   -9.2717 C   0  0  0  0  0  0  0  0  0  0  0  0
  -14.6067  -10.3030   -9.4741 Cl  0  0  0  0  0  0  0  0  0  0  0  0
  -14.2373  -11.9063   -9.4886 C   0  0  0  0  0  0  0  0  0  0  0  0
  -12.9275  -12.3370   -9.3194 C   0  0  0  0  0  0  0  0  0  0  0  0
  -15.2995  -12.7759   -9.7082 C   0  0  0  0  0  0  0  0  0  0  0  0
  -15.0154  -14.1295   -9.7340 C   0  0  0  0  0  0  0  0  0  0  0  0
  -13.7002  -14.6259   -9.5865 C   0  0  0  0  0  0  0  0  0  0  0  0
  -12.6751  -13.7067   -9.4034 C   0  0  0  0  0  0  0  0  0  0  0  0
  -13.2768  -15.9232   -9.5326 O   0  0  0  0  0  0  0  0  0  0  0  0
  -14.1113  -16.9797   -9.0734 C   0  0  0  0  0  0  0  0  0  0  0  0
  -10.6155  -14.3188   -2.9280 O   0  0  0  0  0  0  0  0  0  0  0  0
  -11.7254  -14.1631   -2.1640 C   0  0  0  0  0  0  0  0  0  0  0  0
  -12.3740  -12.9425   -1.9185 C   0  0  0  0  0  0  0  0  0  0  0  0
  -13.5557  -12.9333   -1.1372 C   0  0  0  0  0  0  0  0  0  0  0  0
  -14.1373  -14.1178   -0.6831 C   0  0  0  0  0  0  0  0  0  0  0  0
  -13.4928  -15.3305   -0.9477 C   0  0  0  0  0  0  0  0  0  0  0  0
  -12.3266  -15.3488   -1.7188 C   0  0  0  0  0  0  0  0  0  0  0  0
   -6.1548  -18.1184   -7.2427 C   0  0  0  0  0  0  0  0  0  0  0  0
   -6.4956  -19.0650   -8.3606 C   0  0  0  0  0  0  0  0  0  0  0  0
   -6.3305  -20.4820   -8.2940 C   0  0  0  0  0  0  0  0  0  0  0  0
   -6.5966  -21.3085   -9.3900 C   0  0  0  0  0  0  0  0  0  0  0  0
   -6.4918  -22.6754   -9.2122 N   0  0  0  0  0  0  0  0  0  0  0  0
   -6.8422  -18.4955   -9.6003 C   0  0  0  0  0  0  0  0  0  0  0  0
   -7.0884  -19.3023  -10.7170 C   0  0  0  0  0  0  0  0  0  0  0  0
   -6.9821  -20.7179  -10.6400 C   0  0  0  0  0  0  0  0  0  0  0  0
   -6.2239  -23.0389   -8.3373 H   0  0  0  0  0  0  0  0  0  0  0  0
   -6.6849  -23.2854   -9.9604 H   0  0  0  0  0  0  0  0  0  0  0  0
   -7.2719  -21.5133  -11.9000 C   0  0  0  0  0  0  0  0  0  0  0  0
   -7.2843  -20.9365  -13.0413 O   0  0  0  0  0  0  0  0  0  0  0  0
   -7.5107  -22.7561  -11.7883 O   0  0  0  0  0  0  0  0  0  0  0  0
   -7.4973  -23.1617  -10.9438 H   0  0  0  0  0  0  0  0  0  0  0  0
   -4.9546  -17.1654   -7.1299 C   0  0  0  0  0  0  0  0  0  0  0  0
   -3.6891  -17.7479   -7.5586 C   0  0  0  0  0  0  0  0  0  0  0  0
 28 29  2  0  0  0
 28 27  1  0  0  0
 29 30  1  0  0  0
 27 26  2  0  0  0
 30 31  2  0  0  0
 26 31  1  0  0  0
 26 25  1  0  0  0
 11 10  2  0  0  0
  7 25  1  0  0  0
  7  6  2  0  0  0
 46 32  1  0  0  0
 46 47  1  0  0  0
 32 33  1  0  0  0
 32 12  1  0  0  0
 10 12  1  0  0  0
 10  9  1  0  0  0
 37 33  2  0  0  0
 37 38  1  0  0  0
  8  6  1  0  0  0
  8  9  1  0  0  0
  6  5  1  0  0  0
 33 34  1  0  0  0
 38 39  2  0  0  0
  9  1  1  0  0  0
  5  4  1  0  0  0
 34 35  2  0  0  0
 39 35  1  0  0  0
 39 42  1  0  0  0
 43 42  2  0  0  0
  1  2  2  0  0  0
  1  3  1  0  0  0
 35 36  1  0  0  0
 42 44  1  0  0  0
  4  3  1  0  0  0
  3 15  1  0  0  0
 24 23  1  0  0  0
 23 21  1  0  0  0
 15 22  1  0  0  0
 21 22  2  0  0  0
 21 20  1  0  0  0
 22 18  1  0  0  0
 20 19  2  0  0  0
 18 17  2  0  0  0
 19 17  1  0  0  0
 17 16  1  0  0  0
  5 13  1  0  0  0
 12 14  1  0  0  0
 36 40  1  0  0  0
 36 41  1  0  0  0
 44 45  1  0  0  0
M  END
> <minimizedAffinity>
-9.02585

$$$$
5YJM_8W3_A_304


 47 50  0  0  0  0  0  0  0  0999 V2000
   -9.0879  -17.7775   -8.5533 C   0  0  0  0  0  0  0  0  0  0  0  0
   -9.5476  -17.2620   -9.5640 O   0  0  0  0  0  0  0  0  0  0  0  0
   -9.5918  -17.3357   -7.1860 C   0  0  0  0  0  0  0  0  0  0  0  0
   -8.5533  -16.7917   -6.1966 C   0  0  0  0  0  0  0  0  0  0  0  0
   -7.3364  -17.4767   -5.9346 N   0  0  0  0  0  0  0  0  0  0  0  0
   -6.9088  -18.6829   -6.3866 C   0  0  0  0  0  0  0  0  0  0  0  0
   -5.7944  -19.1696   -6.0634 N   0  0  0  0  0  0  0  0  0  0  0  0
   -7.7307  -19.4972   -7.3504 C   0  0  0  0  0  0  0  0  0  0  0  0
   -8.0747  -18.7399   -8.5630 N   0  0  0  0  0  0  0  0  0  0  0  0
   -7.3876  -19.1544   -9.7142 C   0  0  0  0  0  0  0  0  0  0  0  0
   -6.5398  -19.9865   -9.6709 O   0  0  0  0  0  0  0  0  0  0  0  0
   -7.6066  -18.5345  -10.8553 N   0  0  0  0  0  0  0  0  0  0  0  0
   -6.7109  -17.0070   -5.3368 H   0  0  0  0  0  0  0  0  0  0  0  0
   -8.2402  -17.7810  -10.8531 H   0  0  0  0  0  0  0  0  0  0  0  0
  -10.9469  -16.6623   -7.1236 C   0  0  0  0  0  0  0  0  0  0  0  0
  -12.4318  -16.0040   -2.2460 Cl  0  0  0  0  0  0  0  0  0  0  0  0
  -11.9772  -15.4445   -3.7250 C   0  0  0  0  0  0  0  0  0  0  0  0
  -11.7186  -16.3224   -4.7700 C   0  0  0  0  0  0  0  0  0  0  0  0
  -11.8434  -14.0656   -3.8419 C   0  0  0  0  0  0  0  0  0  0  0  0
  -11.4536  -13.5689   -5.0726 C   0  0  0  0  0  0  0  0  0  0  0  0
  -11.1589  -14.4137   -6.1668 C   0  0  0  0  0  0  0  0  0  0  0  0
  -11.2782  -15.7849   -5.9800 C   0  0  0  0  0  0  0  0  0  0  0  0
  -10.8221  -14.0712   -7.4453 O   0  0  0  0  0  0  0  0  0  0  0  0
   -9.9604  -12.9787   -7.7407 C   0  0  0  0  0  0  0  0  0  0  0  0
   -5.1380  -18.3584   -5.0992 O   0  0  0  0  0  0  0  0  0  0  0  0
   -3.7821  -18.3248   -5.1078 C   0  0  0  0  0  0  0  0  0  0  0  0
   -2.9607  -19.0350   -5.9975 C   0  0  0  0  0  0  0  0  0  0  0  0
   -1.5559  -18.8687   -5.9231 C   0  0  0  0  0  0  0  0  0  0  0  0
   -0.9772  -17.9489   -5.0475 C   0  0  0  0  0  0  0  0  0  0  0  0
   -1.8054  -17.2331   -4.1769 C   0  0  0  0  0  0  0  0  0  0  0  0
   -3.1930  -17.3905   -4.2443 C   0  0  0  0  0  0  0  0  0  0  0  0
   -6.9766  -18.8863  -12.1202 C   0  0  0  0  0  0  0  0  0  0  0  0
   -8.0898  -19.7678  -12.6158 C   0  0  0  0  0  0  0  0  0  0  0  0
   -7.8996  -21.0709  -13.1683 C   0  0  0  0  0  0  0  0  0  0  0  0
   -8.9646  -21.8185  -13.6800 C   0  0  0  0  0  0  0  0  0  0  0  0
   -8.7040  -23.1036  -14.1175 N   0  0  0  0  0  0  0  0  0  0  0  0
   -9.3754  -19.1989  -12.6865 C   0  0  0  0  0  0  0  0  0  0  0  0
  -10.4509  -19.9197  -13.2179 C   0  0  0  0  0  0  0  0  0  0  0  0
  -10.2776  -21.2401  -13.7158 C   0  0  0  0  0  0  0  0  0  0  0  0
   -7.7879  -23.4617  -14.0752 H   0  0  0  0  0  0  0  0  0  0  0  0
   -9.4344  -23.6608  -14.4714 H   0  0  0  0  0  0  0  0  0  0  0  0
  -11.5012  -21.9478  -14.2693 C   0  0  0  0  0  0  0  0  0  0  0  0
  -12.2563  -21.3650  -15.1211 O   0  0  0  0  0  0  0  0  0  0  0  0
  -11.7578  -23.1219  -13.8575 O   0  0  0  0  0  0  0  0  0  0  0  0
  -11.1931  -23.5332  -13.2330 H   0  0  0  0  0  0  0  0  0  0  0  0
   -6.4444  -17.5823  -12.7347 C   0  0  0  0  0  0  0  0  0  0  0  0
   -6.2446  -17.6417  -14.1773 C   0  0  0  0  0  0  0  0  0  0  0  0
 28 29  2  0  0  0
 28 27  1  0  0  0
 29 30  1  0  0  0
 27 26  2  0  0  0
 30 31  2  0  0  0
 26 31  1  0  0  0
 26 25  1  0  0  0
 11 10  2  0  0  0
  7 25  1  0  0  0
  7  6  2  0  0  0
 46 32  1  0  0  0
 46 47  1  0  0  0
 32 33  1  0  0  0
 32 12  1  0  0  0
 10 12  1  0  0  0
 10  9  1  0  0  0
 37 33  2  0  0  0
 37 38  1  0  0  0
  8  6  1  0  0  0
  8  9  1  0  0  0
  6  5  1  0  0  0
 33 34  1  0  0  0
 38 39  2  0  0  0
  9  1  1  0  0  0
  5  4  1  0  0  0
 34 35  2  0  0  0
 39 35  1  0  0  0
 39 42  1  0  0  0
 43 42  2  0  0  0
  1  2  2  0  0  0
  1  3  1  0  0  0
 35 36  1  0  0  0
 42 44  1  0  0  0
  4  3  1  0  0  0
  3 15  1  0  0  0
 24 23  1  0  0  0
 23 21  1  0  0  0
 15 22  1  0  0  0
 21 22  2  0  0  0
 21 20  1  0  0  0
 22 18  1  0  0  0
 20 19  2  0  0  0
 18 17  2  0  0  0
 19 17  1  0  0  0
 17 16  1  0  0  0
  5 13  1  0  0  0
 12 14  1  0  0  0
 36 40  1  0  0  0
 36 41  1  0  0  0
 44 45  1  0  0  0
M  END
> <minimizedAffinity>
-9.02073

$$$$
5YJM_8W3_A_304


 47 50  0  0  0  0  0  0  0  0999 V2000
   -9.0998  -16.3421   -8.1999 C   0  0  0  0  0  0  0  0  0  0  0  0
   -9.2223  -16.9175   -9.2735 O   0  0  0  0  0  0  0  0  0  0  0  0
   -8.1837  -16.9252   -7.1325 C   0  0  0  0  0  0  0  0  0  0  0  0
   -8.8103  -17.2519   -5.7709 C   0  0  0  0  0  0  0  0  0  0  0  0
   -9.6307  -16.3201   -5.0801 N   0  0  0  0  0  0  0  0  0  0  0  0
   -9.9360  -15.0361   -5.3966 C   0  0  0  0  0  0  0  0  0  0  0  0
  -10.6831  -14.3222   -4.6789 N   0  0  0  0  0  0  0  0  0  0  0  0
   -9.4321  -14.3984   -6.6643 C   0  0  0  0  0  0  0  0  0  0  0  0
   -9.7926  -15.1775   -7.8581 N   0  0  0  0  0  0  0  0  0  0  0  0
  -10.7872  -14.5863   -8.6521 C   0  0  0  0  0  0  0  0  0  0  0  0
  -11.3400  -13.5874   -8.3210 O   0  0  0  0  0  0  0  0  0  0  0  0
  -11.1992  -15.2058   -9.7388 N   0  0  0  0  0  0  0  0  0  0  0  0
  -10.0379  -16.6553   -4.2488 H   0  0  0  0  0  0  0  0  0  0  0  0
  -10.8002  -16.0817   -9.9459 H   0  0  0  0  0  0  0  0  0  0  0  0
   -7.1043  -17.8862   -7.5856 C   0  0  0  0  0  0  0  0  0  0  0  0
   -3.2628  -17.6938   -4.1747 Cl  0  0  0  0  0  0  0  0  0  0  0  0
   -3.8899  -17.5039   -5.6839 C   0  0  0  0  0  0  0  0  0  0  0  0
   -5.2372  -17.7363   -5.9297 C   0  0  0  0  0  0  0  0  0  0  0  0
   -2.9903  -17.1339   -6.6771 C   0  0  0  0  0  0  0  0  0  0  0  0
   -3.4897  -16.9759   -7.9574 C   0  0  0  0  0  0  0  0  0  0  0  0
   -4.8467  -17.2160   -8.2716 C   0  0  0  0  0  0  0  0  0  0  0  0
   -5.6910  -17.6161   -7.2437 C   0  0  0  0  0  0  0  0  0  0  0  0
   -5.4912  -17.0482   -9.4639 O   0  0  0  0  0  0  0  0  0  0  0  0
   -5.6739  -15.7692  -10.0591 C   0  0  0  0  0  0  0  0  0  0  0  0
  -11.0397  -14.9939   -3.4788 O   0  0  0  0  0  0  0  0  0  0  0  0
  -11.9641  -14.4154   -2.6722 C   0  0  0  0  0  0  0  0  0  0  0  0
  -12.8639  -15.1075   -1.8464 C   0  0  0  0  0  0  0  0  0  0  0  0
  -13.7464  -14.3720   -1.0175 C   0  0  0  0  0  0  0  0  0  0  0  0
  -13.6793  -12.9804   -0.9370 C   0  0  0  0  0  0  0  0  0  0  0  0
  -12.7673  -12.3007   -1.7508 C   0  0  0  0  0  0  0  0  0  0  0  0
  -11.8921  -13.0189   -2.5712 C   0  0  0  0  0  0  0  0  0  0  0  0
  -12.2038  -14.6851  -10.6553 C   0  0  0  0  0  0  0  0  0  0  0  0
  -13.1668  -15.8309  -10.5079 C   0  0  0  0  0  0  0  0  0  0  0  0
  -13.3959  -16.8239  -11.5084 C   0  0  0  0  0  0  0  0  0  0  0  0
  -14.3561  -17.8273  -11.3465 C   0  0  0  0  0  0  0  0  0  0  0  0
  -14.4526  -18.7970  -12.3270 N   0  0  0  0  0  0  0  0  0  0  0  0
  -14.0075  -15.8211   -9.3790 C   0  0  0  0  0  0  0  0  0  0  0  0
  -14.9922  -16.8009   -9.2088 C   0  0  0  0  0  0  0  0  0  0  0  0
  -15.1848  -17.8262  -10.1748 C   0  0  0  0  0  0  0  0  0  0  0  0
  -13.8643  -18.7601  -13.1155 H   0  0  0  0  0  0  0  0  0  0  0  0
  -15.1097  -19.5245  -12.2367 H   0  0  0  0  0  0  0  0  0  0  0  0
  -16.2731  -18.8495   -9.9049 C   0  0  0  0  0  0  0  0  0  0  0  0
  -16.2999  -19.9521  -10.5522 O   0  0  0  0  0  0  0  0  0  0  0  0
  -17.1556  -18.5771   -9.0326 O   0  0  0  0  0  0  0  0  0  0  0  0
  -17.1199  -17.7641   -8.5681 H   0  0  0  0  0  0  0  0  0  0  0  0
  -12.4160  -13.2062  -10.2960 C   0  0  0  0  0  0  0  0  0  0  0  0
  -13.4824  -12.5574  -11.0485 C   0  0  0  0  0  0  0  0  0  0  0  0
 28 29  2  0  0  0
 28 27  1  0  0  0
 29 30  1  0  0  0
 27 26  2  0  0  0
 30 31  2  0  0  0
 26 31  1  0  0  0
 26 25  1  0  0  0
 11 10  2  0  0  0
  7 25  1  0  0  0
  7  6  2  0  0  0
 46 32  1  0  0  0
 46 47  1  0  0  0
 32 33  1  0  0  0
 32 12  1  0  0  0
 10 12  1  0  0  0
 10  9  1  0  0  0
 37 33  2  0  0  0
 37 38  1  0  0  0
  8  6  1  0  0  0
  8  9  1  0  0  0
  6  5  1  0  0  0
 33 34  1  0  0  0
 38 39  2  0  0  0
  9  1  1  0  0  0
  5  4  1  0  0  0
 34 35  2  0  0  0
 39 35  1  0  0  0
 39 42  1  0  0  0
 43 42  2  0  0  0
  1  2  2  0  0  0
  1  3  1  0  0  0
 35 36  1  0  0  0
 42 44  1  0  0  0
  4  3  1  0  0  0
  3 15  1  0  0  0
 24 23  1  0  0  0
 23 21  1  0  0  0
 15 22  1  0  0  0
 21 22  2  0  0  0
 21 20  1  0  0  0
 22 18  1  0  0  0
 20 19  2  0  0  0
 18 17  2  0  0  0
 19 17  1  0  0  0
 17 16  1  0  0  0
  5 13  1  0  0  0
 12 14  1  0  0  0
 36 40  1  0  0  0
 36 41  1  0  0  0
 44 45  1  0  0  0
M  END
> <minimizedAffinity>
-8.88418

$$$$
