4TIM_2PG_B_300


 15 14  0  0  0  0  0  0  0  0999 V2000
   47.2257   14.8349  -11.6087 C   0  0  0  0  0  0  0  0  0  0  0  0
   48.0003   16.1684  -11.6480 C   0  0  0  0  0  0  0  0  0  0  0  0
   48.9525   16.2529  -12.4694 O   0  0  0  0  0  0  0  0  0  0  0  0
   47.5874   17.1405  -10.9461 O   0  0  0  0  0  0  0  0  0  0  0  0
   46.8742   17.0188  -10.3508 H   0  0  0  0  0  0  0  0  0  0  0  0
   46.7984   14.6449  -13.0568 C   0  0  0  0  0  0  0  0  0  0  0  0
   46.8730   13.2621  -13.4329 O   0  0  0  0  0  0  0  0  0  0  0  0
   47.7873   12.9512  -13.3419 H   0  0  0  0  0  0  0  0  0  0  0  0
   46.1259   14.8072  -10.6547 O   0  0  0  0  0  0  0  0  0  0  0  0
   46.3445   14.4312   -9.0429 P   0  0  0  0  0  0  0  0  0  0  0  0
   46.8286   12.9785   -9.0247 O   0  0  0  0  0  0  0  0  0  0  0  0
   45.0112   14.6761   -8.3360 O   0  0  0  0  0  0  0  0  0  0  0  0
   47.4212   15.3498   -8.4723 O   0  0  0  0  0  0  0  0  0  0  0  0
   44.3356   14.0871   -8.7069 H   0  0  0  0  0  0  0  0  0  0  0  0
   48.2615   15.1853   -8.9282 H   0  0  0  0  0  0  0  0  0  0  0  0
  2  1  1  0  0  0
  2  3  2  0  0  0
  2  4  1  0  0  0
  1  6  1  0  0  0
  1  9  1  0  0  0
  6  7  1  0  0  0
 10  9  1  0  0  0
 10 11  2  0  0  0
 10 12  1  0  0  0
 10 13  1  0  0  0
  4  5  1  0  0  0
  7  8  1  0  0  0
 12 14  1  0  0  0
 13 15  1  0  0  0
M  END
> <minimizedAffinity>
-6.44632

$$$$
4TIM_2PG_B_300


 15 14  0  0  0  0  0  0  0  0999 V2000
   46.8610   15.0303  -11.8624 C   0  0  0  0  0  0  0  0  0  0  0  0
   46.8298   14.4682  -13.2987 C   0  0  0  0  0  0  0  0  0  0  0  0
   46.8817   15.3035  -14.2411 O   0  0  0  0  0  0  0  0  0  0  0  0
   46.8632   13.2121  -13.4685 O   0  0  0  0  0  0  0  0  0  0  0  0
   46.8211   12.6381  -12.7290 H   0  0  0  0  0  0  0  0  0  0  0  0
   47.6658   16.3128  -12.0145 C   0  0  0  0  0  0  0  0  0  0  0  0
   49.0396   16.0205  -12.3081 O   0  0  0  0  0  0  0  0  0  0  0  0
   49.4229   15.5048  -11.5814 H   0  0  0  0  0  0  0  0  0  0  0  0
   47.3921   14.1083  -10.8683 O   0  0  0  0  0  0  0  0  0  0  0  0
   46.8014   14.0314   -9.3087 P   0  0  0  0  0  0  0  0  0  0  0  0
   45.2908   14.2498   -9.4331 O   0  0  0  0  0  0  0  0  0  0  0  0
   47.5415   15.0904   -8.4914 O   0  0  0  0  0  0  0  0  0  0  0  0
   47.0857   12.6397   -8.7506 O   0  0  0  0  0  0  0  0  0  0  0  0
   47.3532   15.9696   -8.8553 H   0  0  0  0  0  0  0  0  0  0  0  0
   46.6112   11.9772   -9.2767 H   0  0  0  0  0  0  0  0  0  0  0  0
  2  1  1  0  0  0
  2  3  2  0  0  0
  2  4  1  0  0  0
  1  6  1  0  0  0
  1  9  1  0  0  0
  6  7  1  0  0  0
 10  9  1  0  0  0
 10 11  2  0  0  0
 10 12  1  0  0  0
 10 13  1  0  0  0
  4  5  1  0  0  0
  7  8  1  0  0  0
 12 14  1  0  0  0
 13 15  1  0  0  0
M  END
> <minimizedAffinity>
-6.42505

$$$$
4TIM_2PG_B_300


 15 14  0  0  0  0  0  0  0  0999 V2000
   46.6100   14.7766  -10.2918 C   0  0  0  0  0  0  0  0  0  0  0  0
   45.4182   14.8771   -9.3176 C   0  0  0  0  0  0  0  0  0  0  0  0
   44.3899   14.2055   -9.6005 O   0  0  0  0  0  0  0  0  0  0  0  0
   45.5583   15.5299   -8.2396 O   0  0  0  0  0  0  0  0  0  0  0  0
   46.3463   16.0121   -8.0829 H   0  0  0  0  0  0  0  0  0  0  0  0
   47.6318   13.9731   -9.5005 C   0  0  0  0  0  0  0  0  0  0  0  0
   46.9868   12.9557   -8.7208 O   0  0  0  0  0  0  0  0  0  0  0  0
   46.3729   13.3693   -8.0939 H   0  0  0  0  0  0  0  0  0  0  0  0
   47.1036   16.0600  -10.7711 O   0  0  0  0  0  0  0  0  0  0  0  0
   47.6560   16.2841  -12.3305 P   0  0  0  0  0  0  0  0  0  0  0  0
   49.1639   16.0236  -12.2708 O   0  0  0  0  0  0  0  0  0  0  0  0
   47.2619   17.7000  -12.7514 O   0  0  0  0  0  0  0  0  0  0  0  0
   46.9820   15.2572  -13.2360 O   0  0  0  0  0  0  0  0  0  0  0  0
   47.6960   18.3431  -12.1692 H   0  0  0  0  0  0  0  0  0  0  0  0
   47.2394   14.3638  -12.9594 H   0  0  0  0  0  0  0  0  0  0  0  0
  2  1  1  0  0  0
  2  3  2  0  0  0
  2  4  1  0  0  0
  1  6  1  0  0  0
  1  9  1  0  0  0
  6  7  1  0  0  0
 10  9  1  0  0  0
 10 11  2  0  0  0
 10 12  1  0  0  0
 10 13  1  0  0  0
  4  5  1  0  0  0
  7  8  1  0  0  0
 12 14  1  0  0  0
 13 15  1  0  0  0
M  END
> <minimizedAffinity>
-6.39193

$$$$
4TIM_2PG_B_300


 15 14  0  0  0  0  0  0  0  0999 V2000
   46.6014   14.9301   -9.9314 C   0  0  0  0  0  0  0  0  0  0  0  0
   47.4913   13.7699   -9.4396 C   0  0  0  0  0  0  0  0  0  0  0  0
   48.7153   13.8227   -9.7357 O   0  0  0  0  0  0  0  0  0  0  0  0
   46.9875   12.8870   -8.6817 O   0  0  0  0  0  0  0  0  0  0  0  0
   46.0691   12.8973   -8.4964 H   0  0  0  0  0  0  0  0  0  0  0  0
   45.2187   14.5355   -9.4330 C   0  0  0  0  0  0  0  0  0  0  0  0
   45.0339   14.9407   -8.0690 O   0  0  0  0  0  0  0  0  0  0  0  0
   45.6953   14.5042   -7.5096 H   0  0  0  0  0  0  0  0  0  0  0  0
   46.6704   15.1736  -11.3654 O   0  0  0  0  0  0  0  0  0  0  0  0
   47.5970   16.3955  -12.0253 P   0  0  0  0  0  0  0  0  0  0  0  0
   46.9952   16.6630  -13.4078 O   0  0  0  0  0  0  0  0  0  0  0  0
   49.0465   15.9096  -12.0353 O   0  0  0  0  0  0  0  0  0  0  0  0
   47.4619   17.6354  -11.1458 O   0  0  0  0  0  0  0  0  0  0  0  0
   49.1197   15.1221  -12.5969 H   0  0  0  0  0  0  0  0  0  0  0  0
   46.5389   17.9339  -11.1474 H   0  0  0  0  0  0  0  0  0  0  0  0
  2  1  1  0  0  0
  2  3  2  0  0  0
  2  4  1  0  0  0
  1  6  1  0  0  0
  1  9  1  0  0  0
  6  7  1  0  0  0
 10  9  1  0  0  0
 10 11  2  0  0  0
 10 12  1  0  0  0
 10 13  1  0  0  0
  4  5  1  0  0  0
  7  8  1  0  0  0
 12 14  1  0  0  0
 13 15  1  0  0  0
M  END
> <minimizedAffinity>
-6.29052

$$$$
4TIM_2PG_B_300


 15 14  0  0  0  0  0  0  0  0999 V2000
   47.2866   16.5873  -13.5146 C   0  0  0  0  0  0  0  0  0  0  0  0
   46.4351   15.7744  -14.5116 C   0  0  0  0  0  0  0  0  0  0  0  0
   45.7158   16.4274  -15.3147 O   0  0  0  0  0  0  0  0  0  0  0  0
   46.5737   14.5148  -14.5547 O   0  0  0  0  0  0  0  0  0  0  0  0
   47.1226   14.0822  -13.9305 H   0  0  0  0  0  0  0  0  0  0  0  0
   48.0915   17.5062  -14.4221 C   0  0  0  0  0  0  0  0  0  0  0  0
   47.5074   18.8160  -14.4685 O   0  0  0  0  0  0  0  0  0  0  0  0
   46.6052   18.7554  -14.8195 H   0  0  0  0  0  0  0  0  0  0  0  0
   48.0978   15.7766  -12.6173 O   0  0  0  0  0  0  0  0  0  0  0  0
   47.5291   15.2179  -11.1505 P   0  0  0  0  0  0  0  0  0  0  0  0
   47.0049   16.4561  -10.4176 O   0  0  0  0  0  0  0  0  0  0  0  0
   48.6886   14.5010  -10.4586 O   0  0  0  0  0  0  0  0  0  0  0  0
   46.3862   14.2414  -11.4136 O   0  0  0  0  0  0  0  0  0  0  0  0
   49.4081   15.1312  -10.2969 H   0  0  0  0  0  0  0  0  0  0  0  0
   45.6573   14.7074  -11.8524 H   0  0  0  0  0  0  0  0  0  0  0  0
  2  1  1  0  0  0
  2  3  2  0  0  0
  2  4  1  0  0  0
  1  6  1  0  0  0
  1  9  1  0  0  0
  6  7  1  0  0  0
 10  9  1  0  0  0
 10 11  2  0  0  0
 10 12  1  0  0  0
 10 13  1  0  0  0
  4  5  1  0  0  0
  7  8  1  0  0  0
 12 14  1  0  0  0
 13 15  1  0  0  0
M  END
> <minimizedAffinity>
-6.12357

$$$$
4TIM_2PG_B_300


 15 14  0  0  0  0  0  0  0  0999 V2000
   47.3970   15.8602  -11.4002 C   0  0  0  0  0  0  0  0  0  0  0  0
   47.5817   17.3243  -11.8497 C   0  0  0  0  0  0  0  0  0  0  0  0
   48.0702   18.1241  -11.0070 O   0  0  0  0  0  0  0  0  0  0  0  0
   47.3423   17.6321  -13.0563 O   0  0  0  0  0  0  0  0  0  0  0  0
   46.9779   16.9950  -13.6388 H   0  0  0  0  0  0  0  0  0  0  0  0
   47.2940   15.1079  -12.7190 C   0  0  0  0  0  0  0  0  0  0  0  0
   46.6987   13.8169  -12.5241 O   0  0  0  0  0  0  0  0  0  0  0  0
   47.2483   13.2956  -11.9183 H   0  0  0  0  0  0  0  0  0  0  0  0
   46.2708   15.6452  -10.5024 O   0  0  0  0  0  0  0  0  0  0  0  0
   46.3631   14.6440   -9.1698 P   0  0  0  0  0  0  0  0  0  0  0  0
   45.0004   14.7556   -8.4801 O   0  0  0  0  0  0  0  0  0  0  0  0
   47.5514   15.1149   -8.3310 O   0  0  0  0  0  0  0  0  0  0  0  0
   46.5910   13.2142   -9.6523 O   0  0  0  0  0  0  0  0  0  0  0  0
   47.3951   16.0238   -8.0305 H   0  0  0  0  0  0  0  0  0  0  0  0
   45.8313   12.9270  -10.1826 H   0  0  0  0  0  0  0  0  0  0  0  0
  2  1  1  0  0  0
  2  3  2  0  0  0
  2  4  1  0  0  0
  1  6  1  0  0  0
  1  9  1  0  0  0
  6  7  1  0  0  0
 10  9  1  0  0  0
 10 11  2  0  0  0
 10 12  1  0  0  0
 10 13  1  0  0  0
  4  5  1  0  0  0
  7  8  1  0  0  0
 12 14  1  0  0  0
 13 15  1  0  0  0
M  END
> <minimizedAffinity>
-6.08586

$$$$
4TIM_2PG_B_300


 15 14  0  0  0  0  0  0  0  0999 V2000
   46.8159   14.2982  -10.6109 C   0  0  0  0  0  0  0  0  0  0  0  0
   45.8648   14.8651   -9.5369 C   0  0  0  0  0  0  0  0  0  0  0  0
   44.6650   14.4808   -9.5749 O   0  0  0  0  0  0  0  0  0  0  0  0
   46.3423   15.5925   -8.6145 O   0  0  0  0  0  0  0  0  0  0  0  0
   47.2435   15.8479   -8.6384 H   0  0  0  0  0  0  0  0  0  0  0  0
   48.1733   14.3444   -9.9244 C   0  0  0  0  0  0  0  0  0  0  0  0
   48.2586   13.3470   -8.8964 O   0  0  0  0  0  0  0  0  0  0  0  0
   47.5741   13.5112   -8.2290 H   0  0  0  0  0  0  0  0  0  0  0  0
   46.7691   15.0007  -11.8856 O   0  0  0  0  0  0  0  0  0  0  0  0
   47.6066   16.4184  -12.1610 P   0  0  0  0  0  0  0  0  0  0  0  0
   46.9635   17.0373  -13.4053 O   0  0  0  0  0  0  0  0  0  0  0  0
   49.0827   16.0501  -12.3127 O   0  0  0  0  0  0  0  0  0  0  0  0
   47.4127   17.3376  -10.9583 O   0  0  0  0  0  0  0  0  0  0  0  0
   49.1931   15.4663  -13.0795 H   0  0  0  0  0  0  0  0  0  0  0  0
   46.4734   17.5640  -10.8725 H   0  0  0  0  0  0  0  0  0  0  0  0
  2  1  1  0  0  0
  2  3  2  0  0  0
  2  4  1  0  0  0
  1  6  1  0  0  0
  1  9  1  0  0  0
  6  7  1  0  0  0
 10  9  1  0  0  0
 10 11  2  0  0  0
 10 12  1  0  0  0
 10 13  1  0  0  0
  4  5  1  0  0  0
  7  8  1  0  0  0
 12 14  1  0  0  0
 13 15  1  0  0  0
M  END
> <minimizedAffinity>
-5.93330

$$$$
4TIM_2PG_B_300


 15 14  0  0  0  0  0  0  0  0999 V2000
   47.7495   17.1047  -11.4755 C   0  0  0  0  0  0  0  0  0  0  0  0
   47.6397   18.6385  -11.5974 C   0  0  0  0  0  0  0  0  0  0  0  0
   48.2423   19.3260  -10.7298 O   0  0  0  0  0  0  0  0  0  0  0  0
   47.0521   19.1349  -12.6055 O   0  0  0  0  0  0  0  0  0  0  0  0
   46.6196   18.5740  -13.2189 H   0  0  0  0  0  0  0  0  0  0  0  0
   47.4577   16.6273  -12.8907 C   0  0  0  0  0  0  0  0  0  0  0  0
   48.5135   17.0079  -13.7848 O   0  0  0  0  0  0  0  0  0  0  0  0
   48.5920   17.9746  -13.7996 H   0  0  0  0  0  0  0  0  0  0  0  0
   46.8856   16.5197  -10.4597 O   0  0  0  0  0  0  0  0  0  0  0  0
   47.0885   14.9608   -9.8976 P   0  0  0  0  0  0  0  0  0  0  0  0
   48.4171   14.4828  -10.4902 O   0  0  0  0  0  0  0  0  0  0  0  0
   45.8618   14.1591  -10.3334 O   0  0  0  0  0  0  0  0  0  0  0  0
   47.1784   15.0023   -8.3747 O   0  0  0  0  0  0  0  0  0  0  0  0
   45.8155   14.1399  -11.3021 H   0  0  0  0  0  0  0  0  0  0  0  0
   47.9597   15.5131   -8.1108 H   0  0  0  0  0  0  0  0  0  0  0  0
  2  1  1  0  0  0
  2  3  2  0  0  0
  2  4  1  0  0  0
  1  6  1  0  0  0
  1  9  1  0  0  0
  6  7  1  0  0  0
 10  9  1  0  0  0
 10 11  2  0  0  0
 10 12  1  0  0  0
 10 13  1  0  0  0
  4  5  1  0  0  0
  7  8  1  0  0  0
 12 14  1  0  0  0
 13 15  1  0  0  0
M  END
> <minimizedAffinity>
-5.68490

$$$$
4TIM_2PG_B_300


 15 14  0  0  0  0  0  0  0  0999 V2000
   47.5178   16.8177  -14.2099 C   0  0  0  0  0  0  0  0  0  0  0  0
   47.8714   18.1897  -14.8200 C   0  0  0  0  0  0  0  0  0  0  0  0
   47.5337   19.2116  -14.1640 O   0  0  0  0  0  0  0  0  0  0  0  0
   48.5684   18.2309  -15.8784 O   0  0  0  0  0  0  0  0  0  0  0  0
   48.7896   17.4374  -16.3250 H   0  0  0  0  0  0  0  0  0  0  0  0
   46.4789   16.2705  -15.1779 C   0  0  0  0  0  0  0  0  0  0  0  0
   46.1844   14.8967  -14.8863 O   0  0  0  0  0  0  0  0  0  0  0  0
   46.9922   14.3670  -14.9751 H   0  0  0  0  0  0  0  0  0  0  0  0
   47.0705   16.8736  -12.8252 O   0  0  0  0  0  0  0  0  0  0  0  0
   47.6127   15.8053  -11.6625 P   0  0  0  0  0  0  0  0  0  0  0  0
   47.0726   16.3402  -10.3331 O   0  0  0  0  0  0  0  0  0  0  0  0
   49.1372   15.7573  -11.7674 O   0  0  0  0  0  0  0  0  0  0  0  0
   47.0199   14.4296  -11.9538 O   0  0  0  0  0  0  0  0  0  0  0  0
   49.5020   16.6364  -11.5804 H   0  0  0  0  0  0  0  0  0  0  0  0
   46.0533   14.4727  -11.8843 H   0  0  0  0  0  0  0  0  0  0  0  0
  2  1  1  0  0  0
  2  3  2  0  0  0
  2  4  1  0  0  0
  1  6  1  0  0  0
  1  9  1  0  0  0
  6  7  1  0  0  0
 10  9  1  0  0  0
 10 11  2  0  0  0
 10 12  1  0  0  0
 10 13  1  0  0  0
  4  5  1  0  0  0
  7  8  1  0  0  0
 12 14  1  0  0  0
 13 15  1  0  0  0
M  END
> <minimizedAffinity>
-5.56337

$$$$
4TIM_2PG_B_300


 15 14  0  0  0  0  0  0  0  0999 V2000
   47.6659   17.9740  -15.0553 C   0  0  0  0  0  0  0  0  0  0  0  0
   46.9206   17.1321  -16.1115 C   0  0  0  0  0  0  0  0  0  0  0  0
   47.4984   16.9612  -17.2185 O   0  0  0  0  0  0  0  0  0  0  0  0
   45.8312   16.5678  -15.7913 O   0  0  0  0  0  0  0  0  0  0  0  0
   45.4469   16.7327  -14.9527 H   0  0  0  0  0  0  0  0  0  0  0  0
   48.4839   18.9385  -15.9019 C   0  0  0  0  0  0  0  0  0  0  0  0
   49.8057   18.4263  -16.1241 O   0  0  0  0  0  0  0  0  0  0  0  0
   50.2556   18.3119  -15.2723 H   0  0  0  0  0  0  0  0  0  0  0  0
   48.4544   17.1933  -14.1124 O   0  0  0  0  0  0  0  0  0  0  0  0
   47.7998   16.5303  -12.7271 P   0  0  0  0  0  0  0  0  0  0  0  0
   46.9149   15.3758  -13.2058 O   0  0  0  0  0  0  0  0  0  0  0  0
   47.0599   17.6501  -11.9952 O   0  0  0  0  0  0  0  0  0  0  0  0
   48.9370   15.9951  -11.8615 O   0  0  0  0  0  0  0  0  0  0  0  0
   46.3403   17.9818  -12.5547 H   0  0  0  0  0  0  0  0  0  0  0  0
   49.3985   15.2860  -12.3361 H   0  0  0  0  0  0  0  0  0  0  0  0
  2  1  1  0  0  0
  2  3  2  0  0  0
  2  4  1  0  0  0
  1  6  1  0  0  0
  1  9  1  0  0  0
  6  7  1  0  0  0
 10  9  1  0  0  0
 10 11  2  0  0  0
 10 12  1  0  0  0
 10 13  1  0  0  0
  4  5  1  0  0  0
  7  8  1  0  0  0
 12 14  1  0  0  0
 13 15  1  0  0  0
M  END
> <minimizedAffinity>
-5.48485

$$$$
