3T5U_A09_A_263


 13 13  0  0  0  0  0  0  0  0999 V2000
   -7.4990    0.8364   16.8611 O   0  0  0  0  0  0  0  0  0  0  0  0
   -6.1146    1.1905   17.0257 S   0  0  0  0  0  0  0  0  0  0  0  0
   -5.5796    1.2972   18.3530 O   0  0  0  0  0  0  0  0  0  0  0  0
   -5.9391    2.7579   16.2574 C   0  0  0  0  0  0  0  0  0  0  0  0
   -6.2321    3.9207   17.0088 C   0  0  0  0  0  0  0  0  0  0  0  0
   -6.0963    5.1780   16.3879 C   0  0  0  0  0  0  0  0  0  0  0  0
   -5.6828    5.2708   15.0534 C   0  0  0  0  0  0  0  0  0  0  0  0
   -5.3970    4.1177   14.3197 C   0  0  0  0  0  0  0  0  0  0  0  0
   -5.5202    2.8420   14.9067 C   0  0  0  0  0  0  0  0  0  0  0  0
   -5.2261    0.0778   16.2103 N   0  0  0  0  0  0  0  0  0  0  0  0
   -3.8370    0.3145   16.3717 O   0  0  0  0  0  0  0  0  0  0  0  0
   -5.4593    0.1273   15.2186 H   0  0  0  0  0  0  0  0  0  0  0  0
   -3.6084    0.2688   17.3133 H   0  0  0  0  0  0  0  0  0  0  0  0
  9  4  2  0  0  0
  5  4  1  0  0  0
  4  2  1  0  0  0
  2 10  1  0  0  0
 10 11  1  0  0  0
  2  1  2  0  0  0
  3  2  2  0  0  0
  6  5  2  0  0  0
  7  6  1  0  0  0
  7  8  2  0  0  0
  8  9  1  0  0  0
 10 12  1  0  0  0
 11 13  1  0  0  0
M  END
> <minimizedAffinity>
-7.00674

$$$$
3T5U_A09_A_263


 13 13  0  0  0  0  0  0  0  0999 V2000
   -3.4996    1.0159   16.6623 O   0  0  0  0  0  0  0  0  0  0  0  0
   -4.6794    1.1123   15.8450 S   0  0  0  0  0  0  0  0  0  0  0  0
   -4.5866    0.7798   14.4520 O   0  0  0  0  0  0  0  0  0  0  0  0
   -5.1885    2.7874   15.9558 C   0  0  0  0  0  0  0  0  0  0  0  0
   -6.0764    3.1616   16.9923 C   0  0  0  0  0  0  0  0  0  0  0  0
   -6.4887    4.5061   17.0758 C   0  0  0  0  0  0  0  0  0  0  0  0
   -6.0298    5.4492   16.1482 C   0  0  0  0  0  0  0  0  0  0  0  0
   -5.1548    5.0703   15.1281 C   0  0  0  0  0  0  0  0  0  0  0  0
   -4.7191    3.7346   15.0127 C   0  0  0  0  0  0  0  0  0  0  0  0
   -5.8210    0.1464   16.5204 N   0  0  0  0  0  0  0  0  0  0  0  0
   -5.5384   -0.0998   17.8884 O   0  0  0  0  0  0  0  0  0  0  0  0
   -5.8440   -0.7421   16.0200 H   0  0  0  0  0  0  0  0  0  0  0  0
   -5.5151    0.7417   18.3703 H   0  0  0  0  0  0  0  0  0  0  0  0
  9  4  2  0  0  0
  5  4  1  0  0  0
  4  2  1  0  0  0
  2 10  1  0  0  0
 10 11  1  0  0  0
  2  1  2  0  0  0
  3  2  2  0  0  0
  6  5  2  0  0  0
  7  6  1  0  0  0
  7  8  2  0  0  0
  8  9  1  0  0  0
 10 12  1  0  0  0
 11 13  1  0  0  0
M  END
> <minimizedAffinity>
-6.83981

$$$$
3T5U_A09_A_263


 13 13  0  0  0  0  0  0  0  0999 V2000
   -4.3982    1.0678   13.3109 O   0  0  0  0  0  0  0  0  0  0  0  0
   -4.1935    2.4787   13.1193 S   0  0  0  0  0  0  0  0  0  0  0  0
   -2.8511    2.9805   13.0451 O   0  0  0  0  0  0  0  0  0  0  0  0
   -4.9726    3.2534   14.4870 C   0  0  0  0  0  0  0  0  0  0  0  0
   -5.5530    2.4407   15.4896 C   0  0  0  0  0  0  0  0  0  0  0  0
   -6.1834    3.0650   16.5840 C   0  0  0  0  0  0  0  0  0  0  0  0
   -6.2356    4.4614   16.6724 C   0  0  0  0  0  0  0  0  0  0  0  0
   -5.6610    5.2551   15.6775 C   0  0  0  0  0  0  0  0  0  0  0  0
   -5.0206    4.6670   14.5679 C   0  0  0  0  0  0  0  0  0  0  0  0
   -4.9683    2.9005   11.7358 N   0  0  0  0  0  0  0  0  0  0  0  0
   -5.5680    1.7717   11.1209 O   0  0  0  0  0  0  0  0  0  0  0  0
   -4.2954    3.3133   11.0899 H   0  0  0  0  0  0  0  0  0  0  0  0
   -6.2095    1.3742   11.7303 H   0  0  0  0  0  0  0  0  0  0  0  0
  9  4  2  0  0  0
  5  4  1  0  0  0
  4  2  1  0  0  0
  2 10  1  0  0  0
 10 11  1  0  0  0
  2  1  2  0  0  0
  3  2  2  0  0  0
  6  5  2  0  0  0
  7  6  1  0  0  0
  7  8  2  0  0  0
  8  9  1  0  0  0
 10 12  1  0  0  0
 11 13  1  0  0  0
M  END
> <minimizedAffinity>
-6.26845

$$$$
3T5U_A09_A_263


 13 13  0  0  0  0  0  0  0  0999 V2000
   -4.3994    1.0330   13.2699 O   0  0  0  0  0  0  0  0  0  0  0  0
   -4.2030    2.4447   13.0754 S   0  0  0  0  0  0  0  0  0  0  0  0
   -2.8635    2.9533   12.9931 O   0  0  0  0  0  0  0  0  0  0  0  0
   -4.9783    3.2171   14.4465 C   0  0  0  0  0  0  0  0  0  0  0  0
   -5.0444    4.6302   14.4838 C   0  0  0  0  0  0  0  0  0  0  0  0
   -5.6621    5.2485   15.5887 C   0  0  0  0  0  0  0  0  0  0  0  0
   -6.1956    4.4772   16.6284 C   0  0  0  0  0  0  0  0  0  0  0  0
   -6.1246    3.0834   16.5833 C   0  0  0  0  0  0  0  0  0  0  0  0
   -5.5152    2.4285   15.4939 C   0  0  0  0  0  0  0  0  0  0  0  0
   -4.9876    2.8609   11.6958 N   0  0  0  0  0  0  0  0  0  0  0  0
   -5.5878    1.7289   11.0873 O   0  0  0  0  0  0  0  0  0  0  0  0
   -4.3200    3.2742   11.0447 H   0  0  0  0  0  0  0  0  0  0  0  0
   -6.2243    1.3310   11.7017 H   0  0  0  0  0  0  0  0  0  0  0  0
  9  4  2  0  0  0
  5  4  1  0  0  0
  4  2  1  0  0  0
  2 10  1  0  0  0
 10 11  1  0  0  0
  2  1  2  0  0  0
  3  2  2  0  0  0
  6  5  2  0  0  0
  7  6  1  0  0  0
  7  8  2  0  0  0
  8  9  1  0  0  0
 10 12  1  0  0  0
 11 13  1  0  0  0
M  END
> <minimizedAffinity>
-6.26039

$$$$
3T5U_A09_A_263


 13 13  0  0  0  0  0  0  0  0999 V2000
   -2.9887    3.5560   13.9420 O   0  0  0  0  0  0  0  0  0  0  0  0
   -4.3969    3.3672   13.7177 S   0  0  0  0  0  0  0  0  0  0  0  0
   -5.1312    4.3870   13.0246 O   0  0  0  0  0  0  0  0  0  0  0  0
   -5.1053    3.1980   15.3137 C   0  0  0  0  0  0  0  0  0  0  0  0
   -4.9110    1.9869   16.0195 C   0  0  0  0  0  0  0  0  0  0  0  0
   -5.4859    1.8510   17.2985 C   0  0  0  0  0  0  0  0  0  0  0  0
   -6.2363    2.8938   17.8551 C   0  0  0  0  0  0  0  0  0  0  0  0
   -6.4235    4.0848   17.1505 C   0  0  0  0  0  0  0  0  0  0  0  0
   -5.8631    4.2585   15.8688 C   0  0  0  0  0  0  0  0  0  0  0  0
   -4.5747    1.9632   12.8873 N   0  0  0  0  0  0  0  0  0  0  0  0
   -5.5317    2.1005   11.8494 O   0  0  0  0  0  0  0  0  0  0  0  0
   -4.8827    1.2332   13.5297 H   0  0  0  0  0  0  0  0  0  0  0  0
   -5.2447    2.7938   11.2347 H   0  0  0  0  0  0  0  0  0  0  0  0
  9  4  2  0  0  0
  5  4  1  0  0  0
  4  2  1  0  0  0
  2 10  1  0  0  0
 10 11  1  0  0  0
  2  1  2  0  0  0
  3  2  2  0  0  0
  6  5  2  0  0  0
  7  6  1  0  0  0
  7  8  2  0  0  0
  8  9  1  0  0  0
 10 12  1  0  0  0
 11 13  1  0  0  0
M  END
> <minimizedAffinity>
-5.99278

$$$$
3T5U_A09_A_263


 13 13  0  0  0  0  0  0  0  0999 V2000
   -5.3206    2.2740   11.8040 O   0  0  0  0  0  0  0  0  0  0  0  0
   -4.4252    2.0624   12.9097 S   0  0  0  0  0  0  0  0  0  0  0  0
   -4.2509    0.7307   13.4153 O   0  0  0  0  0  0  0  0  0  0  0  0
   -5.0577    3.0458   14.2175 C   0  0  0  0  0  0  0  0  0  0  0  0
   -5.4822    2.4060   15.4062 C   0  0  0  0  0  0  0  0  0  0  0  0
   -5.9954    3.1972   16.4528 C   0  0  0  0  0  0  0  0  0  0  0  0
   -6.0852    4.5876   16.3145 C   0  0  0  0  0  0  0  0  0  0  0  0
   -5.6649    5.2100   15.1372 C   0  0  0  0  0  0  0  0  0  0  0  0
   -5.1449    4.4520   14.0685 C   0  0  0  0  0  0  0  0  0  0  0  0
   -2.9525    2.6294   12.4602 N   0  0  0  0  0  0  0  0  0  0  0  0
   -2.1632    1.6019   11.8830 O   0  0  0  0  0  0  0  0  0  0  0  0
   -2.4722    2.9966   13.2817 H   0  0  0  0  0  0  0  0  0  0  0  0
   -2.6146    1.2482   11.1008 H   0  0  0  0  0  0  0  0  0  0  0  0
  9  4  2  0  0  0
  5  4  1  0  0  0
  4  2  1  0  0  0
  2 10  1  0  0  0
 10 11  1  0  0  0
  2  1  2  0  0  0
  3  2  2  0  0  0
  6  5  2  0  0  0
  7  6  1  0  0  0
  7  8  2  0  0  0
  8  9  1  0  0  0
 10 12  1  0  0  0
 11 13  1  0  0  0
M  END
> <minimizedAffinity>
-5.83992

$$$$
3T5U_A09_A_263


 13 13  0  0  0  0  0  0  0  0999 V2000
   -5.4868    3.0535   13.1332 O   0  0  0  0  0  0  0  0  0  0  0  0
   -4.6793    3.7226   14.1178 S   0  0  0  0  0  0  0  0  0  0  0  0
   -3.2589    3.5185   14.1041 O   0  0  0  0  0  0  0  0  0  0  0  0
   -5.2785    3.1657   15.6697 C   0  0  0  0  0  0  0  0  0  0  0  0
   -5.0497    1.8205   16.0446 C   0  0  0  0  0  0  0  0  0  0  0  0
   -5.5370    1.3738   17.2887 C   0  0  0  0  0  0  0  0  0  0  0  0
   -6.2360    2.2453   18.1327 C   0  0  0  0  0  0  0  0  0  0  0  0
   -6.4580    3.5708   17.7536 C   0  0  0  0  0  0  0  0  0  0  0  0
   -5.9848    4.0547   16.5170 C   0  0  0  0  0  0  0  0  0  0  0  0
   -4.9604    5.3322   13.9672 N   0  0  0  0  0  0  0  0  0  0  0  0
   -6.2476    5.5780   13.4245 O   0  0  0  0  0  0  0  0  0  0  0  0
   -4.2561    5.7369   13.3503 H   0  0  0  0  0  0  0  0  0  0  0  0
   -6.9225    5.1955   14.0068 H   0  0  0  0  0  0  0  0  0  0  0  0
  9  4  2  0  0  0
  5  4  1  0  0  0
  4  2  1  0  0  0
  2 10  1  0  0  0
 10 11  1  0  0  0
  2  1  2  0  0  0
  3  2  2  0  0  0
  6  5  2  0  0  0
  7  6  1  0  0  0
  7  8  2  0  0  0
  8  9  1  0  0  0
 10 12  1  0  0  0
 11 13  1  0  0  0
M  END
> <minimizedAffinity>
-5.77258

$$$$
3T5U_A09_A_263


 13 13  0  0  0  0  0  0  0  0999 V2000
   -3.1904    2.0713   12.6672 O   0  0  0  0  0  0  0  0  0  0  0  0
   -3.7822    3.3708   12.4932 S   0  0  0  0  0  0  0  0  0  0  0  0
   -2.9236    4.5000   12.2756 O   0  0  0  0  0  0  0  0  0  0  0  0
   -4.6887    3.6717   13.9647 C   0  0  0  0  0  0  0  0  0  0  0  0
   -4.9716    5.0098   14.3281 C   0  0  0  0  0  0  0  0  0  0  0  0
   -5.6944    5.2493   15.5134 C   0  0  0  0  0  0  0  0  0  0  0  0
   -6.1195    4.1826   16.3146 C   0  0  0  0  0  0  0  0  0  0  0  0
   -5.8346    2.8656   15.9484 C   0  0  0  0  0  0  0  0  0  0  0  0
   -5.1146    2.5861   14.7691 C   0  0  0  0  0  0  0  0  0  0  0  0
   -4.8164    3.2698   11.2233 N   0  0  0  0  0  0  0  0  0  0  0  0
   -4.8498    4.4852   10.4929 O   0  0  0  0  0  0  0  0  0  0  0  0
   -5.7528    3.0650   11.5719 H   0  0  0  0  0  0  0  0  0  0  0  0
   -3.9617    4.6859   10.1583 H   0  0  0  0  0  0  0  0  0  0  0  0
  9  4  2  0  0  0
  5  4  1  0  0  0
  4  2  1  0  0  0
  2 10  1  0  0  0
 10 11  1  0  0  0
  2  1  2  0  0  0
  3  2  2  0  0  0
  6  5  2  0  0  0
  7  6  1  0  0  0
  7  8  2  0  0  0
  8  9  1  0  0  0
 10 12  1  0  0  0
 11 13  1  0  0  0
M  END
> <minimizedAffinity>
-5.36857

$$$$
3T5U_A09_A_263


 13 13  0  0  0  0  0  0  0  0999 V2000
   -6.0333    1.9703   15.5245 O   0  0  0  0  0  0  0  0  0  0  0  0
   -4.6323    1.8108   15.2398 S   0  0  0  0  0  0  0  0  0  0  0  0
   -3.7612    2.9412   15.3911 O   0  0  0  0  0  0  0  0  0  0  0  0
   -4.5517    1.3020   13.5628 C   0  0  0  0  0  0  0  0  0  0  0  0
   -4.2228   -0.0440   13.2751 C   0  0  0  0  0  0  0  0  0  0  0  0
   -4.1527   -0.4488   11.9275 C   0  0  0  0  0  0  0  0  0  0  0  0
   -4.4008    0.4657   10.8967 C   0  0  0  0  0  0  0  0  0  0  0  0
   -4.7236    1.7921   11.1904 C   0  0  0  0  0  0  0  0  0  0  0  0
   -4.8043    2.2344   12.5265 C   0  0  0  0  0  0  0  0  0  0  0  0
   -4.0722    0.6080   16.2051 N   0  0  0  0  0  0  0  0  0  0  0  0
   -5.1391   -0.0705   16.8481 O   0  0  0  0  0  0  0  0  0  0  0  0
   -3.4574    1.0086   16.9135 H   0  0  0  0  0  0  0  0  0  0  0  0
   -5.7279   -0.4541   16.1796 H   0  0  0  0  0  0  0  0  0  0  0  0
  9  4  2  0  0  0
  5  4  1  0  0  0
  4  2  1  0  0  0
  2 10  1  0  0  0
 10 11  1  0  0  0
  2  1  2  0  0  0
  3  2  2  0  0  0
  6  5  2  0  0  0
  7  6  1  0  0  0
  7  8  2  0  0  0
  8  9  1  0  0  0
 10 12  1  0  0  0
 11 13  1  0  0  0
M  END
> <minimizedAffinity>
-5.23528

$$$$
3T5U_A09_A_263


 13 13  0  0  0  0  0  0  0  0999 V2000
   -5.1379    3.5956   13.1956 O   0  0  0  0  0  0  0  0  0  0  0  0
   -3.7350    3.5936   12.8776 S   0  0  0  0  0  0  0  0  0  0  0  0
   -3.2240    4.5991   11.9903 O   0  0  0  0  0  0  0  0  0  0  0  0
   -3.4256    2.0318   12.1411 C   0  0  0  0  0  0  0  0  0  0  0  0
   -4.3273    0.9704   12.3921 C   0  0  0  0  0  0  0  0  0  0  0  0
   -4.0735   -0.2846   11.8044 C   0  0  0  0  0  0  0  0  0  0  0  0
   -2.9491   -0.4748   10.9919 C   0  0  0  0  0  0  0  0  0  0  0  0
   -2.0643    0.5783   10.7510 C   0  0  0  0  0  0  0  0  0  0  0  0
   -2.2853    1.8488   11.3205 C   0  0  0  0  0  0  0  0  0  0  0  0
   -2.9137    3.7042   14.2938 N   0  0  0  0  0  0  0  0  0  0  0  0
   -1.5252    3.8842   14.0671 O   0  0  0  0  0  0  0  0  0  0  0  0
   -3.0554    2.8474   14.8287 H   0  0  0  0  0  0  0  0  0  0  0  0
   -1.3834    4.6980   13.5585 H   0  0  0  0  0  0  0  0  0  0  0  0
  9  4  2  0  0  0
  5  4  1  0  0  0
  4  2  1  0  0  0
  2 10  1  0  0  0
 10 11  1  0  0  0
  2  1  2  0  0  0
  3  2  2  0  0  0
  6  5  2  0  0  0
  7  6  1  0  0  0
  7  8  2  0  0  0
  8  9  1  0  0  0
 10 12  1  0  0  0
 11 13  1  0  0  0
M  END
> <minimizedAffinity>
-5.23359

$$$$
