5XVG_8FX_A_601


 32 36  0  0  0  0  0  0  0  0999 V2000
   -6.8822  -12.3839   18.9209 C   0  0  0  0  0  0  0  0  0  0  0  0
   -6.9002  -13.7816   18.4813 C   0  0  0  0  0  0  0  0  0  0  0  0
   -6.0532  -14.2222   17.3768 C   0  0  0  0  0  0  0  0  0  0  0  0
   -5.2217  -13.3011   16.7455 N   0  0  0  0  0  0  0  0  0  0  0  0
   -6.0931  -11.5243   18.3073 N   0  0  0  0  0  0  0  0  0  0  0  0
   -5.2305  -11.9982   17.1709 C   0  0  0  0  0  0  0  0  0  0  0  0
   -7.7162  -14.6848   19.0887 C   0  0  0  0  0  0  0  0  0  0  0  0
   -7.7077  -16.1125   18.6215 C   0  0  0  0  0  0  0  0  0  0  0  0
   -6.9427  -16.5198   17.6137 C   0  0  0  0  0  0  0  0  0  0  0  0
   -6.0492  -15.5184   16.9391 C   0  0  0  0  0  0  0  0  0  0  0  0
   -8.7495  -17.2313   19.4262 Cl  0  0  0  0  0  0  0  0  0  0  0  0
   -4.3146  -11.0144   16.4964 C   0  0  0  0  0  0  0  0  0  0  0  0
   -3.9362   -9.0577   15.0725 C   0  0  0  0  0  0  0  0  0  0  0  0
   -4.4396   -7.6316   15.1906 C   0  0  0  0  0  0  0  0  0  0  0  0
   -6.6429   -8.3646   15.6677 C   0  0  0  0  0  0  0  0  0  0  0  0
   -6.2821   -9.8438   15.5170 C   0  0  0  0  0  0  0  0  0  0  0  0
   -3.5870   -6.7551   14.2927 C   0  0  0  0  0  0  0  0  0  0  0  0
   -4.8564   -9.9721   15.6891 N   0  0  0  0  0  0  0  0  0  0  0  0
   -5.8153   -7.5497   14.8044 N   0  0  0  0  0  0  0  0  0  0  0  0
   -3.1178  -11.1324   16.6536 O   0  0  0  0  0  0  0  0  0  0  0  0
   -5.9124   -7.8764   13.8430 H   0  0  0  0  0  0  0  0  0  0  0  0
   -7.7045  -11.9243   19.9959 N   0  0  0  0  0  0  0  0  0  0  0  0
   -8.3350  -12.5621   20.4021 H   0  0  0  0  0  0  0  0  0  0  0  0
   -7.6648  -10.5743   20.5234 C   0  0  0  0  0  0  0  0  0  0  0  0
   -6.7387   -9.5129   20.2875 C   0  0  0  0  0  0  0  0  0  0  0  0
   -7.1560   -8.4111   21.0177 C   0  0  0  0  0  0  0  0  0  0  0  0
   -8.3253   -8.7710   21.6863 N   0  0  0  0  0  0  0  0  0  0  0  0
   -8.6229  -10.1008   21.3816 N   0  0  0  0  0  0  0  0  0  0  0  0
   -8.8533   -8.1849   22.2753 H   0  0  0  0  0  0  0  0  0  0  0  0
   -6.4437   -6.8981   21.1291 C   0  0  0  0  0  0  0  0  0  0  0  0
   -6.3900   -6.2431   19.9605 C   0  0  0  0  0  0  0  0  0  0  0  0
   -5.1174   -6.9931   21.2986 C   0  0  0  0  0  0  0  0  0  0  0  0
 17 14  1  0  0  0
 19 14  1  0  0  0
 19 15  1  0  0  0
 13 14  1  0  0  0
 13 18  1  0  0  0
 16 18  1  0  0  0
 16 15  1  0  0  0
 18 12  1  0  0  0
 12 20  2  0  0  0
 12  6  1  0  0  0
  4  6  2  0  0  0
  4  3  1  0  0  0
 10  3  2  0  0  0
 10  9  1  0  0  0
  6  5  1  0  0  0
  3  2  1  0  0  0
  9  8  2  0  0  0
  5  1  2  0  0  0
  2  1  1  0  0  0
  2  7  2  0  0  0
  8  7  1  0  0  0
  8 11  1  0  0  0
  1 22  1  0  0  0
 31 30  1  0  0  0
 22 24  1  0  0  0
 25 24  1  0  0  0
 25 26  2  0  0  0
 24 28  2  0  0  0
 30 26  1  0  0  0
 30 32  1  0  0  0
 26 27  1  0  0  0
 28 27  1  0  0  0
 31 32  1  0  0  0
 22 23  1  0  0  0
 27 29  1  0  0  0
 19 21  1  0  0  0
M  END
> <minimizedAffinity>
-10.10881

$$$$
5XVG_8FX_A_601


 32 36  0  0  0  0  0  0  0  0999 V2000
   -6.6509  -10.5501   16.3815 C   0  0  0  0  0  0  0  0  0  0  0  0
   -6.5445  -10.5387   17.8429 C   0  0  0  0  0  0  0  0  0  0  0  0
   -6.5482  -11.7893   18.5961 C   0  0  0  0  0  0  0  0  0  0  0  0
   -6.6492  -12.9974   17.9116 N   0  0  0  0  0  0  0  0  0  0  0  0
   -6.7520  -11.7032   15.7506 N   0  0  0  0  0  0  0  0  0  0  0  0
   -6.7560  -12.9794   16.5453 C   0  0  0  0  0  0  0  0  0  0  0  0
   -6.4535   -9.3613   18.5182 C   0  0  0  0  0  0  0  0  0  0  0  0
   -6.3380   -9.3810   20.0159 C   0  0  0  0  0  0  0  0  0  0  0  0
   -6.3453  -10.5154   20.7086 C   0  0  0  0  0  0  0  0  0  0  0  0
   -6.4548  -11.8135   19.9608 C   0  0  0  0  0  0  0  0  0  0  0  0
   -6.2127   -7.8655   20.8358 Cl  0  0  0  0  0  0  0  0  0  0  0  0
   -6.8447  -14.2898   15.8126 C   0  0  0  0  0  0  0  0  0  0  0  0
   -5.9787  -16.5188   15.2831 C   0  0  0  0  0  0  0  0  0  0  0  0
   -5.6624  -17.7001   16.1806 C   0  0  0  0  0  0  0  0  0  0  0  0
   -4.5424  -16.3142   17.7440 C   0  0  0  0  0  0  0  0  0  0  0  0
   -4.7400  -15.0505   16.9043 C   0  0  0  0  0  0  0  0  0  0  0  0
   -5.5493  -18.9369   15.3093 C   0  0  0  0  0  0  0  0  0  0  0  0
   -5.8417  -15.2842   16.0042 N   0  0  0  0  0  0  0  0  0  0  0  0
   -4.4402  -17.4792   16.8916 N   0  0  0  0  0  0  0  0  0  0  0  0
   -7.7793  -14.4736   15.0619 O   0  0  0  0  0  0  0  0  0  0  0  0
   -3.6847  -17.3373   16.2211 H   0  0  0  0  0  0  0  0  0  0  0  0
   -6.6548   -9.3408   15.6196 N   0  0  0  0  0  0  0  0  0  0  0  0
   -7.5221   -8.9869   15.3168 H   0  0  0  0  0  0  0  0  0  0  0  0
   -5.4566   -8.6046   15.2662 C   0  0  0  0  0  0  0  0  0  0  0  0
   -4.9295   -7.3843   15.7888 C   0  0  0  0  0  0  0  0  0  0  0  0
   -3.7437   -7.1116   15.1249 C   0  0  0  0  0  0  0  0  0  0  0  0
   -3.5265   -8.1456   14.2153 N   0  0  0  0  0  0  0  0  0  0  0  0
   -4.5863   -9.0503   14.3057 N   0  0  0  0  0  0  0  0  0  0  0  0
   -2.7543   -8.2247   13.6098 H   0  0  0  0  0  0  0  0  0  0  0  0
   -2.7106   -5.8066   15.3206 C   0  0  0  0  0  0  0  0  0  0  0  0
   -2.8473   -5.1864   16.5014 C   0  0  0  0  0  0  0  0  0  0  0  0
   -3.0914   -4.7642   14.5689 C   0  0  0  0  0  0  0  0  0  0  0  0
 17 14  1  0  0  0
 19 14  1  0  0  0
 19 15  1  0  0  0
 13 14  1  0  0  0
 13 18  1  0  0  0
 16 18  1  0  0  0
 16 15  1  0  0  0
 18 12  1  0  0  0
 12 20  2  0  0  0
 12  6  1  0  0  0
  4  6  2  0  0  0
  4  3  1  0  0  0
 10  3  2  0  0  0
 10  9  1  0  0  0
  6  5  1  0  0  0
  3  2  1  0  0  0
  9  8  2  0  0  0
  5  1  2  0  0  0
  2  1  1  0  0  0
  2  7  2  0  0  0
  8  7  1  0  0  0
  8 11  1  0  0  0
  1 22  1  0  0  0
 31 30  1  0  0  0
 22 24  1  0  0  0
 25 24  1  0  0  0
 25 26  2  0  0  0
 24 28  2  0  0  0
 30 26  1  0  0  0
 30 32  1  0  0  0
 26 27  1  0  0  0
 28 27  1  0  0  0
 31 32  1  0  0  0
 22 23  1  0  0  0
 27 29  1  0  0  0
 19 21  1  0  0  0
M  END
> <minimizedAffinity>
-8.74139

$$$$
5XVG_8FX_A_601


 32 36  0  0  0  0  0  0  0  0999 V2000
   -6.2481   -9.3039   16.3792 C   0  0  0  0  0  0  0  0  0  0  0  0
   -6.3042   -9.6252   17.8077 C   0  0  0  0  0  0  0  0  0  0  0  0
   -6.3722  -11.0138   18.2530 C   0  0  0  0  0  0  0  0  0  0  0  0
   -6.3786  -12.0342   17.3059 N   0  0  0  0  0  0  0  0  0  0  0  0
   -6.2614  -10.2829   15.4963 N   0  0  0  0  0  0  0  0  0  0  0  0
   -6.3339  -11.7058   15.9759 C   0  0  0  0  0  0  0  0  0  0  0  0
   -6.3063   -8.6325   18.7379 C   0  0  0  0  0  0  0  0  0  0  0  0
   -6.3569   -8.9924   20.1956 C   0  0  0  0  0  0  0  0  0  0  0  0
   -6.4235  -10.2542   20.6082 C   0  0  0  0  0  0  0  0  0  0  0  0
   -6.4299  -11.3478   19.5785 C   0  0  0  0  0  0  0  0  0  0  0  0
   -6.3459   -7.7036   21.3460 Cl  0  0  0  0  0  0  0  0  0  0  0  0
   -6.3211  -12.8150   14.9604 C   0  0  0  0  0  0  0  0  0  0  0  0
   -5.4308  -13.8630   12.9336 C   0  0  0  0  0  0  0  0  0  0  0  0
   -4.0220  -14.2987   12.5779 C   0  0  0  0  0  0  0  0  0  0  0  0
   -3.1047  -12.2671   13.3845 C   0  0  0  0  0  0  0  0  0  0  0  0
   -4.4740  -11.6810   13.7347 C   0  0  0  0  0  0  0  0  0  0  0  0
   -4.1056  -15.2424   11.3930 C   0  0  0  0  0  0  0  0  0  0  0  0
   -5.4028  -12.7752   13.8711 N   0  0  0  0  0  0  0  0  0  0  0  0
   -3.2109  -13.1649   12.2544 N   0  0  0  0  0  0  0  0  0  0  0  0
   -7.1055  -13.7309   15.0904 O   0  0  0  0  0  0  0  0  0  0  0  0
   -3.6313  -12.6663   11.4701 H   0  0  0  0  0  0  0  0  0  0  0  0
   -6.1860   -7.9534   15.9153 N   0  0  0  0  0  0  0  0  0  0  0  0
   -7.0209   -7.4320   15.8941 H   0  0  0  0  0  0  0  0  0  0  0  0
   -4.9660   -7.3059   15.4740 C   0  0  0  0  0  0  0  0  0  0  0  0
   -4.0764   -6.4309   16.1689 C   0  0  0  0  0  0  0  0  0  0  0  0
   -3.0415   -6.1011   15.3078 C   0  0  0  0  0  0  0  0  0  0  0  0
   -3.2714   -6.7656   14.1039 N   0  0  0  0  0  0  0  0  0  0  0  0
   -4.4572   -7.4945   14.2153 N   0  0  0  0  0  0  0  0  0  0  0  0
   -2.6937   -6.7273   13.3076 H   0  0  0  0  0  0  0  0  0  0  0  0
   -1.7271   -5.0992   15.5860 C   0  0  0  0  0  0  0  0  0  0  0  0
   -1.3640   -5.0362   16.8751 C   0  0  0  0  0  0  0  0  0  0  0  0
   -2.0640   -3.8069   15.4710 C   0  0  0  0  0  0  0  0  0  0  0  0
 17 14  1  0  0  0
 19 14  1  0  0  0
 19 15  1  0  0  0
 13 14  1  0  0  0
 13 18  1  0  0  0
 16 18  1  0  0  0
 16 15  1  0  0  0
 18 12  1  0  0  0
 12 20  2  0  0  0
 12  6  1  0  0  0
  4  6  2  0  0  0
  4  3  1  0  0  0
 10  3  2  0  0  0
 10  9  1  0  0  0
  6  5  1  0  0  0
  3  2  1  0  0  0
  9  8  2  0  0  0
  5  1  2  0  0  0
  2  1  1  0  0  0
  2  7  2  0  0  0
  8  7  1  0  0  0
  8 11  1  0  0  0
  1 22  1  0  0  0
 31 30  1  0  0  0
 22 24  1  0  0  0
 25 24  1  0  0  0
 25 26  2  0  0  0
 24 28  2  0  0  0
 30 26  1  0  0  0
 30 32  1  0  0  0
 26 27  1  0  0  0
 28 27  1  0  0  0
 31 32  1  0  0  0
 22 23  1  0  0  0
 27 29  1  0  0  0
 19 21  1  0  0  0
M  END
> <minimizedAffinity>
-8.70546

$$$$
5XVG_8FX_A_601


 32 36  0  0  0  0  0  0  0  0999 V2000
   -5.7568  -10.7717   18.0874 C   0  0  0  0  0  0  0  0  0  0  0  0
   -6.4767  -10.2130   19.2348 C   0  0  0  0  0  0  0  0  0  0  0  0
   -7.3780  -11.0485   20.0228 C   0  0  0  0  0  0  0  0  0  0  0  0
   -7.5448  -12.3867   19.6766 N   0  0  0  0  0  0  0  0  0  0  0  0
   -5.9318  -12.0394   17.7705 N   0  0  0  0  0  0  0  0  0  0  0  0
   -6.8660  -12.8818   18.5937 C   0  0  0  0  0  0  0  0  0  0  0  0
   -6.3242   -8.9043   19.5735 C   0  0  0  0  0  0  0  0  0  0  0  0
   -7.0694   -8.3612   20.7595 C   0  0  0  0  0  0  0  0  0  0  0  0
   -7.8950   -9.1148   21.4787 C   0  0  0  0  0  0  0  0  0  0  0  0
   -8.0682  -10.5572   21.0970 C   0  0  0  0  0  0  0  0  0  0  0  0
   -6.8399   -6.6974   21.1642 Cl  0  0  0  0  0  0  0  0  0  0  0  0
   -7.0369  -14.3333   18.2389 C   0  0  0  0  0  0  0  0  0  0  0  0
   -7.0737  -16.1559   16.6031 C   0  0  0  0  0  0  0  0  0  0  0  0
   -6.0158  -16.6361   15.6278 C   0  0  0  0  0  0  0  0  0  0  0  0
   -5.5220  -14.4194   14.9484 C   0  0  0  0  0  0  0  0  0  0  0  0
   -6.6002  -13.8066   15.8447 C   0  0  0  0  0  0  0  0  0  0  0  0
   -6.4051  -18.0245   15.1562 C   0  0  0  0  0  0  0  0  0  0  0  0
   -6.9053  -14.7575   16.8845 N   0  0  0  0  0  0  0  0  0  0  0  0
   -5.9149  -15.7428   14.5142 N   0  0  0  0  0  0  0  0  0  0  0  0
   -7.2893  -15.1222   19.1248 O   0  0  0  0  0  0  0  0  0  0  0  0
   -6.8204  -15.6864   14.0482 H   0  0  0  0  0  0  0  0  0  0  0  0
   -4.8723   -9.9754   17.2959 N   0  0  0  0  0  0  0  0  0  0  0  0
   -4.4333   -9.2055   17.7245 H   0  0  0  0  0  0  0  0  0  0  0  0
   -4.5836  -10.2345   15.8988 C   0  0  0  0  0  0  0  0  0  0  0  0
   -3.6708  -11.1520   15.2946 C   0  0  0  0  0  0  0  0  0  0  0  0
   -3.7871  -11.0278   13.9191 C   0  0  0  0  0  0  0  0  0  0  0  0
   -4.7610  -10.0624   13.6673 N   0  0  0  0  0  0  0  0  0  0  0  0
   -5.2363   -9.5784   14.8877 N   0  0  0  0  0  0  0  0  0  0  0  0
   -5.0633   -9.7705   12.7769 H   0  0  0  0  0  0  0  0  0  0  0  0
   -2.9501  -11.8459   12.7195 C   0  0  0  0  0  0  0  0  0  0  0  0
   -3.7004  -12.1418   11.6484 C   0  0  0  0  0  0  0  0  0  0  0  0
   -2.7033  -13.1149   13.0738 C   0  0  0  0  0  0  0  0  0  0  0  0
 17 14  1  0  0  0
 19 14  1  0  0  0
 19 15  1  0  0  0
 13 14  1  0  0  0
 13 18  1  0  0  0
 16 18  1  0  0  0
 16 15  1  0  0  0
 18 12  1  0  0  0
 12 20  2  0  0  0
 12  6  1  0  0  0
  4  6  2  0  0  0
  4  3  1  0  0  0
 10  3  2  0  0  0
 10  9  1  0  0  0
  6  5  1  0  0  0
  3  2  1  0  0  0
  9  8  2  0  0  0
  5  1  2  0  0  0
  2  1  1  0  0  0
  2  7  2  0  0  0
  8  7  1  0  0  0
  8 11  1  0  0  0
  1 22  1  0  0  0
 31 30  1  0  0  0
 22 24  1  0  0  0
 25 24  1  0  0  0
 25 26  2  0  0  0
 24 28  2  0  0  0
 30 26  1  0  0  0
 30 32  1  0  0  0
 26 27  1  0  0  0
 28 27  1  0  0  0
 31 32  1  0  0  0
 22 23  1  0  0  0
 27 29  1  0  0  0
 19 21  1  0  0  0
M  END
> <minimizedAffinity>
-8.51052

$$$$
5XVG_8FX_A_601


 32 36  0  0  0  0  0  0  0  0999 V2000
   -7.1313  -12.9976   18.7639 C   0  0  0  0  0  0  0  0  0  0  0  0
   -7.2982  -14.4234   18.4702 C   0  0  0  0  0  0  0  0  0  0  0  0
   -7.0025  -14.9456   17.1394 C   0  0  0  0  0  0  0  0  0  0  0  0
   -6.5545  -14.0754   16.1493 N   0  0  0  0  0  0  0  0  0  0  0  0
   -6.7121  -12.1872   17.8123 N   0  0  0  0  0  0  0  0  0  0  0  0
   -6.4152  -12.7450   16.4482 C   0  0  0  0  0  0  0  0  0  0  0  0
   -7.7431  -15.2776   19.4310 C   0  0  0  0  0  0  0  0  0  0  0  0
   -7.8972  -16.7355   19.1029 C   0  0  0  0  0  0  0  0  0  0  0  0
   -7.6343  -17.2173   17.8924 C   0  0  0  0  0  0  0  0  0  0  0  0
   -7.1516  -16.2702   16.8311 C   0  0  0  0  0  0  0  0  0  0  0  0
   -8.4535  -17.7898   20.3534 Cl  0  0  0  0  0  0  0  0  0  0  0  0
   -5.9118  -11.8155   15.3784 C   0  0  0  0  0  0  0  0  0  0  0  0
   -4.3053  -11.2246   13.6265 C   0  0  0  0  0  0  0  0  0  0  0  0
   -3.8861  -11.9675   12.3722 C   0  0  0  0  0  0  0  0  0  0  0  0
   -3.6781  -14.0107   13.5560 C   0  0  0  0  0  0  0  0  0  0  0  0
   -4.0281  -13.3728   14.9020 C   0  0  0  0  0  0  0  0  0  0  0  0
   -3.1844  -10.9842   11.4544 C   0  0  0  0  0  0  0  0  0  0  0  0
   -4.7385  -12.1459   14.6397 N   0  0  0  0  0  0  0  0  0  0  0  0
   -3.0129  -13.0535   12.6983 N   0  0  0  0  0  0  0  0  0  0  0  0
   -6.5221  -10.7891   15.1662 O   0  0  0  0  0  0  0  0  0  0  0  0
   -2.1911  -12.6883   13.1797 H   0  0  0  0  0  0  0  0  0  0  0  0
   -7.4181  -12.4587   20.0563 N   0  0  0  0  0  0  0  0  0  0  0  0
   -7.6758  -13.0837   20.7720 H   0  0  0  0  0  0  0  0  0  0  0  0
   -7.3520  -11.0458   20.3755 C   0  0  0  0  0  0  0  0  0  0  0  0
   -6.5121  -10.0151   19.8537 C   0  0  0  0  0  0  0  0  0  0  0  0
   -6.8580   -8.8257   20.4757 C   0  0  0  0  0  0  0  0  0  0  0  0
   -7.9006   -9.1034   21.3586 N   0  0  0  0  0  0  0  0  0  0  0  0
   -8.1895  -10.4680   21.2939 N   0  0  0  0  0  0  0  0  0  0  0  0
   -8.3573   -8.4465   21.9324 H   0  0  0  0  0  0  0  0  0  0  0  0
   -6.1950   -7.3013   20.2624 C   0  0  0  0  0  0  0  0  0  0  0  0
   -5.1976   -7.0260   21.1151 C   0  0  0  0  0  0  0  0  0  0  0  0
   -7.0231   -6.3422   20.6996 C   0  0  0  0  0  0  0  0  0  0  0  0
 17 14  1  0  0  0
 19 14  1  0  0  0
 19 15  1  0  0  0
 13 14  1  0  0  0
 13 18  1  0  0  0
 16 18  1  0  0  0
 16 15  1  0  0  0
 18 12  1  0  0  0
 12 20  2  0  0  0
 12  6  1  0  0  0
  4  6  2  0  0  0
  4  3  1  0  0  0
 10  3  2  0  0  0
 10  9  1  0  0  0
  6  5  1  0  0  0
  3  2  1  0  0  0
  9  8  2  0  0  0
  5  1  2  0  0  0
  2  1  1  0  0  0
  2  7  2  0  0  0
  8  7  1  0  0  0
  8 11  1  0  0  0
  1 22  1  0  0  0
 31 30  1  0  0  0
 22 24  1  0  0  0
 25 24  1  0  0  0
 25 26  2  0  0  0
 24 28  2  0  0  0
 30 26  1  0  0  0
 30 32  1  0  0  0
 26 27  1  0  0  0
 28 27  1  0  0  0
 31 32  1  0  0  0
 22 23  1  0  0  0
 27 29  1  0  0  0
 19 21  1  0  0  0
M  END
> <minimizedAffinity>
-8.47019

$$$$
5XVG_8FX_A_601


 32 36  0  0  0  0  0  0  0  0999 V2000
   -6.3732  -10.5078   16.4210 C   0  0  0  0  0  0  0  0  0  0  0  0
   -6.3697  -10.1828   17.8498 C   0  0  0  0  0  0  0  0  0  0  0  0
   -6.3675  -11.2448   18.8515 C   0  0  0  0  0  0  0  0  0  0  0  0
   -6.3640  -12.5737   18.4366 N   0  0  0  0  0  0  0  0  0  0  0  0
   -6.3762  -11.7719   16.0465 N   0  0  0  0  0  0  0  0  0  0  0  0
   -6.3759  -12.8501   17.0942 C   0  0  0  0  0  0  0  0  0  0  0  0
   -6.3812   -8.8863   18.2618 C   0  0  0  0  0  0  0  0  0  0  0  0
   -6.3696   -8.5834   19.7331 C   0  0  0  0  0  0  0  0  0  0  0  0
   -6.3722   -9.5450   20.6508 C   0  0  0  0  0  0  0  0  0  0  0  0
   -6.3684  -10.9756   20.1929 C   0  0  0  0  0  0  0  0  0  0  0  0
   -6.3727   -6.9246   20.2158 Cl  0  0  0  0  0  0  0  0  0  0  0  0
   -6.3520  -14.2882   16.6549 C   0  0  0  0  0  0  0  0  0  0  0  0
   -6.6366  -16.6785   17.1071 C   0  0  0  0  0  0  0  0  0  0  0  0
   -7.8325  -17.4558   17.6234 C   0  0  0  0  0  0  0  0  0  0  0  0
   -8.2419  -15.8528   19.3212 C   0  0  0  0  0  0  0  0  0  0  0  0
   -7.0256  -15.0054   18.9423 C   0  0  0  0  0  0  0  0  0  0  0  0
   -7.6013  -18.9261   17.3302 C   0  0  0  0  0  0  0  0  0  0  0  0
   -6.6704  -15.3232   17.5816 N   0  0  0  0  0  0  0  0  0  0  0  0
   -7.9981  -17.2493   19.0299 N   0  0  0  0  0  0  0  0  0  0  0  0
   -6.0553  -14.5400   15.5062 O   0  0  0  0  0  0  0  0  0  0  0  0
   -7.1513  -17.5485   19.5134 H   0  0  0  0  0  0  0  0  0  0  0  0
   -6.3805   -9.4884   15.4192 N   0  0  0  0  0  0  0  0  0  0  0  0
   -7.1656   -9.4248   14.8286 H   0  0  0  0  0  0  0  0  0  0  0  0
   -5.2996   -8.5423   15.2213 C   0  0  0  0  0  0  0  0  0  0  0  0
   -4.9872   -7.3326   15.9133 C   0  0  0  0  0  0  0  0  0  0  0  0
   -3.8356   -6.8037   15.3516 C   0  0  0  0  0  0  0  0  0  0  0  0
   -3.4286   -7.6705   14.3382 N   0  0  0  0  0  0  0  0  0  0  0  0
   -4.3374   -8.7279   14.2629 N   0  0  0  0  0  0  0  0  0  0  0  0
   -2.6327   -7.5560   13.7702 H   0  0  0  0  0  0  0  0  0  0  0  0
   -3.0253   -5.3938   15.7569 C   0  0  0  0  0  0  0  0  0  0  0  0
   -2.9434   -4.5135   14.7488 C   0  0  0  0  0  0  0  0  0  0  0  0
   -1.7060   -5.6029   15.8691 C   0  0  0  0  0  0  0  0  0  0  0  0
 17 14  1  0  0  0
 19 14  1  0  0  0
 19 15  1  0  0  0
 13 14  1  0  0  0
 13 18  1  0  0  0
 16 18  1  0  0  0
 16 15  1  0  0  0
 18 12  1  0  0  0
 12 20  2  0  0  0
 12  6  1  0  0  0
  4  6  2  0  0  0
  4  3  1  0  0  0
 10  3  2  0  0  0
 10  9  1  0  0  0
  6  5  1  0  0  0
  3  2  1  0  0  0
  9  8  2  0  0  0
  5  1  2  0  0  0
  2  1  1  0  0  0
  2  7  2  0  0  0
  8  7  1  0  0  0
  8 11  1  0  0  0
  1 22  1  0  0  0
 31 30  1  0  0  0
 22 24  1  0  0  0
 25 24  1  0  0  0
 25 26  2  0  0  0
 24 28  2  0  0  0
 30 26  1  0  0  0
 30 32  1  0  0  0
 26 27  1  0  0  0
 28 27  1  0  0  0
 31 32  1  0  0  0
 22 23  1  0  0  0
 27 29  1  0  0  0
 19 21  1  0  0  0
M  END
> <minimizedAffinity>
-8.19425

$$$$
5XVG_8FX_A_601


 32 36  0  0  0  0  0  0  0  0999 V2000
   -5.4993  -11.2190   17.2072 C   0  0  0  0  0  0  0  0  0  0  0  0
   -6.1750  -10.8134   18.4425 C   0  0  0  0  0  0  0  0  0  0  0  0
   -7.1735  -11.6809   19.0604 C   0  0  0  0  0  0  0  0  0  0  0  0
   -7.4761  -12.9033   18.4667 N   0  0  0  0  0  0  0  0  0  0  0  0
   -5.8031  -12.3773   16.6556 N   0  0  0  0  0  0  0  0  0  0  0  0
   -6.8356  -13.2547   17.3070 C   0  0  0  0  0  0  0  0  0  0  0  0
   -5.8896   -9.6168   19.0233 C   0  0  0  0  0  0  0  0  0  0  0  0
   -6.5927   -9.2311   20.2936 C   0  0  0  0  0  0  0  0  0  0  0  0
   -7.5060  -10.0136   20.8594 C   0  0  0  0  0  0  0  0  0  0  0  0
   -7.8255  -11.3304   20.2110 C   0  0  0  0  0  0  0  0  0  0  0  0
   -6.1940   -7.7087   21.0065 Cl  0  0  0  0  0  0  0  0  0  0  0  0
   -7.1542  -14.5855   16.6833 C   0  0  0  0  0  0  0  0  0  0  0  0
   -7.3683  -17.0222   16.8101 C   0  0  0  0  0  0  0  0  0  0  0  0
   -8.2017  -17.8994   17.7249 C   0  0  0  0  0  0  0  0  0  0  0  0
   -7.5685  -16.6461   19.6349 C   0  0  0  0  0  0  0  0  0  0  0  0
   -6.6427  -15.7252   18.8373 C   0  0  0  0  0  0  0  0  0  0  0  0
   -8.2710  -19.2861   17.1135 C   0  0  0  0  0  0  0  0  0  0  0  0
   -7.0473  -15.7794   17.4546 N   0  0  0  0  0  0  0  0  0  0  0  0
   -7.6200  -17.9604   19.0311 N   0  0  0  0  0  0  0  0  0  0  0  0
   -7.4972  -14.6151   15.5204 O   0  0  0  0  0  0  0  0  0  0  0  0
   -6.6728  -18.3317   18.9580 H   0  0  0  0  0  0  0  0  0  0  0  0
   -4.5218  -10.3874   16.5783 N   0  0  0  0  0  0  0  0  0  0  0  0
   -4.0803   -9.6973   17.1243 H   0  0  0  0  0  0  0  0  0  0  0  0
   -4.1419  -10.4999   15.1835 C   0  0  0  0  0  0  0  0  0  0  0  0
   -3.6388  -11.6148   14.4460 C   0  0  0  0  0  0  0  0  0  0  0  0
   -3.4503  -11.2097   13.1339 C   0  0  0  0  0  0  0  0  0  0  0  0
   -3.8391   -9.8735   13.0489 N   0  0  0  0  0  0  0  0  0  0  0  0
   -4.2539   -9.4476   14.3124 N   0  0  0  0  0  0  0  0  0  0  0  0
   -3.8238   -9.3220   12.2335 H   0  0  0  0  0  0  0  0  0  0  0  0
   -2.8680  -12.0978   11.8374 C   0  0  0  0  0  0  0  0  0  0  0  0
   -3.8319  -12.6828   11.1118 C   0  0  0  0  0  0  0  0  0  0  0  0
   -2.2880  -13.2355   12.2448 C   0  0  0  0  0  0  0  0  0  0  0  0
 17 14  1  0  0  0
 19 14  1  0  0  0
 19 15  1  0  0  0
 13 14  1  0  0  0
 13 18  1  0  0  0
 16 18  1  0  0  0
 16 15  1  0  0  0
 18 12  1  0  0  0
 12 20  2  0  0  0
 12  6  1  0  0  0
  4  6  2  0  0  0
  4  3  1  0  0  0
 10  3  2  0  0  0
 10  9  1  0  0  0
  6  5  1  0  0  0
  3  2  1  0  0  0
  9  8  2  0  0  0
  5  1  2  0  0  0
  2  1  1  0  0  0
  2  7  2  0  0  0
  8  7  1  0  0  0
  8 11  1  0  0  0
  1 22  1  0  0  0
 31 30  1  0  0  0
 22 24  1  0  0  0
 25 24  1  0  0  0
 25 26  2  0  0  0
 24 28  2  0  0  0
 30 26  1  0  0  0
 30 32  1  0  0  0
 26 27  1  0  0  0
 28 27  1  0  0  0
 31 32  1  0  0  0
 22 23  1  0  0  0
 27 29  1  0  0  0
 19 21  1  0  0  0
M  END
> <minimizedAffinity>
-8.17500

$$$$
5XVG_8FX_A_601


 32 36  0  0  0  0  0  0  0  0999 V2000
   -7.4185  -13.4884   18.2401 C   0  0  0  0  0  0  0  0  0  0  0  0
   -7.0832  -12.1476   18.7268 C   0  0  0  0  0  0  0  0  0  0  0  0
   -6.3216  -11.2245   17.8906 C   0  0  0  0  0  0  0  0  0  0  0  0
   -5.9191  -11.6285   16.6205 N   0  0  0  0  0  0  0  0  0  0  0  0
   -7.0236  -13.8560   17.0372 N   0  0  0  0  0  0  0  0  0  0  0  0
   -6.2386  -12.8910   16.1931 C   0  0  0  0  0  0  0  0  0  0  0  0
   -7.4668  -11.7495   19.9698 C   0  0  0  0  0  0  0  0  0  0  0  0
   -7.1153  -10.3663   20.4388 C   0  0  0  0  0  0  0  0  0  0  0  0
   -6.4183   -9.5222   19.6849 C   0  0  0  0  0  0  0  0  0  0  0  0
   -5.9886   -9.9676   18.3162 C   0  0  0  0  0  0  0  0  0  0  0  0
   -7.6305   -9.8946   22.0189 Cl  0  0  0  0  0  0  0  0  0  0  0  0
   -5.8169  -13.3119   14.8123 C   0  0  0  0  0  0  0  0  0  0  0  0
   -4.9415  -12.7998   12.5828 C   0  0  0  0  0  0  0  0  0  0  0  0
   -3.6456  -12.1391   12.1527 C   0  0  0  0  0  0  0  0  0  0  0  0
   -3.8885  -10.4257   13.7728 C   0  0  0  0  0  0  0  0  0  0  0  0
   -5.2389  -10.9532   14.2622 C   0  0  0  0  0  0  0  0  0  0  0  0
   -3.4298  -12.4385   10.6812 C   0  0  0  0  0  0  0  0  0  0  0  0
   -5.3351  -12.3417   13.8860 N   0  0  0  0  0  0  0  0  0  0  0  0
   -3.7051  -10.7256   12.3690 N   0  0  0  0  0  0  0  0  0  0  0  0
   -5.8996  -14.4839   14.5115 O   0  0  0  0  0  0  0  0  0  0  0  0
   -4.4870  -10.3393   11.8399 H   0  0  0  0  0  0  0  0  0  0  0  0
   -8.1585  -14.4139   19.0394 N   0  0  0  0  0  0  0  0  0  0  0  0
   -9.0565  -14.1487   19.3434 H   0  0  0  0  0  0  0  0  0  0  0  0
   -7.6645  -15.7203   19.4288 C   0  0  0  0  0  0  0  0  0  0  0  0
   -6.3310  -16.2288   19.4864 C   0  0  0  0  0  0  0  0  0  0  0  0
   -6.3910  -17.5358   19.9438 C   0  0  0  0  0  0  0  0  0  0  0  0
   -7.7321  -17.8351   20.1798 N   0  0  0  0  0  0  0  0  0  0  0  0
   -8.5034  -16.7177   19.8537 N   0  0  0  0  0  0  0  0  0  0  0  0
   -8.0779  -18.6918   20.5200 H   0  0  0  0  0  0  0  0  0  0  0  0
   -5.1346  -18.6170   20.1915 C   0  0  0  0  0  0  0  0  0  0  0  0
   -4.7370  -18.6935   21.4697 C   0  0  0  0  0  0  0  0  0  0  0  0
   -3.9773  -18.1402   19.7120 C   0  0  0  0  0  0  0  0  0  0  0  0
 17 14  1  0  0  0
 19 14  1  0  0  0
 19 15  1  0  0  0
 13 14  1  0  0  0
 13 18  1  0  0  0
 16 18  1  0  0  0
 16 15  1  0  0  0
 18 12  1  0  0  0
 12 20  2  0  0  0
 12  6  1  0  0  0
  4  6  2  0  0  0
  4  3  1  0  0  0
 10  3  2  0  0  0
 10  9  1  0  0  0
  6  5  1  0  0  0
  3  2  1  0  0  0
  9  8  2  0  0  0
  5  1  2  0  0  0
  2  1  1  0  0  0
  2  7  2  0  0  0
  8  7  1  0  0  0
  8 11  1  0  0  0
  1 22  1  0  0  0
 31 30  1  0  0  0
 22 24  1  0  0  0
 25 24  1  0  0  0
 25 26  2  0  0  0
 24 28  2  0  0  0
 30 26  1  0  0  0
 30 32  1  0  0  0
 26 27  1  0  0  0
 28 27  1  0  0  0
 31 32  1  0  0  0
 22 23  1  0  0  0
 27 29  1  0  0  0
 19 21  1  0  0  0
M  END
> <minimizedAffinity>
-8.15629

$$$$
5XVG_8FX_A_601


 32 36  0  0  0  0  0  0  0  0999 V2000
   -5.5616  -10.7514   15.8525 C   0  0  0  0  0  0  0  0  0  0  0  0
   -6.1935  -11.5326   16.9191 C   0  0  0  0  0  0  0  0  0  0  0  0
   -6.6689  -12.8889   16.6624 C   0  0  0  0  0  0  0  0  0  0  0  0
   -6.5121  -13.4377   15.3926 N   0  0  0  0  0  0  0  0  0  0  0  0
   -5.4272  -11.2850   14.6545 N   0  0  0  0  0  0  0  0  0  0  0  0
   -5.9254  -12.6824   14.4108 C   0  0  0  0  0  0  0  0  0  0  0  0
   -6.3568  -10.9993   18.1599 C   0  0  0  0  0  0  0  0  0  0  0  0
   -7.0012  -11.8267   19.2355 C   0  0  0  0  0  0  0  0  0  0  0  0
   -7.4405  -13.0603   19.0080 C   0  0  0  0  0  0  0  0  0  0  0  0
   -7.2668  -13.6433   17.6346 C   0  0  0  0  0  0  0  0  0  0  0  0
   -7.1799  -11.1179   20.8009 Cl  0  0  0  0  0  0  0  0  0  0  0  0
   -5.7421  -13.2902   13.0474 C   0  0  0  0  0  0  0  0  0  0  0  0
   -4.4906  -14.6770   11.4633 C   0  0  0  0  0  0  0  0  0  0  0  0
   -4.0671  -16.1317   11.5362 C   0  0  0  0  0  0  0  0  0  0  0  0
   -3.3180  -15.8842   13.7717 C   0  0  0  0  0  0  0  0  0  0  0  0
   -3.6428  -14.3895   13.8121 C   0  0  0  0  0  0  0  0  0  0  0  0
   -3.6853  -16.5821   10.1388 C   0  0  0  0  0  0  0  0  0  0  0  0
   -4.6133  -14.1187   12.7809 N   0  0  0  0  0  0  0  0  0  0  0  0
   -2.9600  -16.2896   12.4294 N   0  0  0  0  0  0  0  0  0  0  0  0
   -6.5688  -13.0568   12.1913 O   0  0  0  0  0  0  0  0  0  0  0  0
   -2.1829  -15.7151   12.1030 H   0  0  0  0  0  0  0  0  0  0  0  0
   -5.0917   -9.4200   16.0746 N   0  0  0  0  0  0  0  0  0  0  0  0
   -4.2843   -9.1274   15.5933 H   0  0  0  0  0  0  0  0  0  0  0  0
   -5.7341   -8.4749   16.9671 C   0  0  0  0  0  0  0  0  0  0  0  0
   -5.5697   -8.2647   18.3702 C   0  0  0  0  0  0  0  0  0  0  0  0
   -6.4031   -7.2233   18.7472 C   0  0  0  0  0  0  0  0  0  0  0  0
   -7.0656   -6.7825   17.6024 N   0  0  0  0  0  0  0  0  0  0  0  0
   -6.6531   -7.5616   16.5195 N   0  0  0  0  0  0  0  0  0  0  0  0
   -7.7160   -6.0444   17.5638 H   0  0  0  0  0  0  0  0  0  0  0  0
   -6.6293   -6.5623   20.2706 C   0  0  0  0  0  0  0  0  0  0  0  0
   -5.5371   -6.6167   21.0465 C   0  0  0  0  0  0  0  0  0  0  0  0
   -7.3885   -7.3549   21.0400 C   0  0  0  0  0  0  0  0  0  0  0  0
 17 14  1  0  0  0
 19 14  1  0  0  0
 19 15  1  0  0  0
 13 14  1  0  0  0
 13 18  1  0  0  0
 16 18  1  0  0  0
 16 15  1  0  0  0
 18 12  1  0  0  0
 12 20  2  0  0  0
 12  6  1  0  0  0
  4  6  2  0  0  0
  4  3  1  0  0  0
 10  3  2  0  0  0
 10  9  1  0  0  0
  6  5  1  0  0  0
  3  2  1  0  0  0
  9  8  2  0  0  0
  5  1  2  0  0  0
  2  1  1  0  0  0
  2  7  2  0  0  0
  8  7  1  0  0  0
  8 11  1  0  0  0
  1 22  1  0  0  0
 31 30  1  0  0  0
 22 24  1  0  0  0
 25 24  1  0  0  0
 25 26  2  0  0  0
 24 28  2  0  0  0
 30 26  1  0  0  0
 30 32  1  0  0  0
 26 27  1  0  0  0
 28 27  1  0  0  0
 31 32  1  0  0  0
 22 23  1  0  0  0
 27 29  1  0  0  0
 19 21  1  0  0  0
M  END
> <minimizedAffinity>
-8.03472

$$$$
5XVG_8FX_A_601


 32 36  0  0  0  0  0  0  0  0999 V2000
   -6.7171  -12.4177   18.4382 C   0  0  0  0  0  0  0  0  0  0  0  0
   -6.4405  -11.3405   17.4840 C   0  0  0  0  0  0  0  0  0  0  0  0
   -6.3540  -11.6212   16.0540 C   0  0  0  0  0  0  0  0  0  0  0  0
   -6.5419  -12.9246   15.6022 N   0  0  0  0  0  0  0  0  0  0  0  0
   -6.8860  -13.6470   17.9929 N   0  0  0  0  0  0  0  0  0  0  0  0
   -6.7909  -13.9148   16.5166 C   0  0  0  0  0  0  0  0  0  0  0  0
   -6.2481  -10.0662   17.9198 C   0  0  0  0  0  0  0  0  0  0  0  0
   -5.9738   -8.9813   16.9176 C   0  0  0  0  0  0  0  0  0  0  0  0
   -5.8892   -9.2301   15.6147 C   0  0  0  0  0  0  0  0  0  0  0  0
   -6.0933  -10.6396   15.1373 C   0  0  0  0  0  0  0  0  0  0  0  0
   -5.7468   -7.3742   17.5097 Cl  0  0  0  0  0  0  0  0  0  0  0  0
   -7.0122  -15.3163   16.0181 C   0  0  0  0  0  0  0  0  0  0  0  0
   -6.2989  -17.6460   15.7679 C   0  0  0  0  0  0  0  0  0  0  0  0
   -5.9314  -18.6888   16.8064 C   0  0  0  0  0  0  0  0  0  0  0  0
   -4.5905  -17.1416   18.0012 C   0  0  0  0  0  0  0  0  0  0  0  0
   -4.8305  -16.0153   16.9938 C   0  0  0  0  0  0  0  0  0  0  0  0
   -5.9648  -20.0508   16.1390 C   0  0  0  0  0  0  0  0  0  0  0  0
   -6.0340  -16.3238   16.2623 N   0  0  0  0  0  0  0  0  0  0  0  0
   -4.6298  -18.4293   17.3418 N   0  0  0  0  0  0  0  0  0  0  0  0
   -8.0311  -15.5618   15.4078 O   0  0  0  0  0  0  0  0  0  0  0  0
   -3.9487  -18.4366   16.5825 H   0  0  0  0  0  0  0  0  0  0  0  0
   -6.8021  -12.1721   19.8437 N   0  0  0  0  0  0  0  0  0  0  0  0
   -6.5848  -12.9109   20.4570 H   0  0  0  0  0  0  0  0  0  0  0  0
   -7.1895  -10.8990   20.4195 C   0  0  0  0  0  0  0  0  0  0  0  0
   -6.4436   -9.6933   20.5919 C   0  0  0  0  0  0  0  0  0  0  0  0
   -7.2780   -8.7540   21.1772 C   0  0  0  0  0  0  0  0  0  0  0  0
   -8.5235   -9.3547   21.3557 N   0  0  0  0  0  0  0  0  0  0  0  0
   -8.4548  -10.6710   20.8946 N   0  0  0  0  0  0  0  0  0  0  0  0
   -9.3191   -8.9227   21.7426 H   0  0  0  0  0  0  0  0  0  0  0  0
   -6.9302   -7.1751   21.6187 C   0  0  0  0  0  0  0  0  0  0  0  0
   -7.5235   -6.2577   20.8415 C   0  0  0  0  0  0  0  0  0  0  0  0
   -5.6727   -6.8424   21.2950 C   0  0  0  0  0  0  0  0  0  0  0  0
 17 14  1  0  0  0
 19 14  1  0  0  0
 19 15  1  0  0  0
 13 14  1  0  0  0
 13 18  1  0  0  0
 16 18  1  0  0  0
 16 15  1  0  0  0
 18 12  1  0  0  0
 12 20  2  0  0  0
 12  6  1  0  0  0
  4  6  2  0  0  0
  4  3  1  0  0  0
 10  3  2  0  0  0
 10  9  1  0  0  0
  6  5  1  0  0  0
  3  2  1  0  0  0
  9  8  2  0  0  0
  5  1  2  0  0  0
  2  1  1  0  0  0
  2  7  2  0  0  0
  8  7  1  0  0  0
  8 11  1  0  0  0
  1 22  1  0  0  0
 31 30  1  0  0  0
 22 24  1  0  0  0
 25 24  1  0  0  0
 25 26  2  0  0  0
 24 28  2  0  0  0
 30 26  1  0  0  0
 30 32  1  0  0  0
 26 27  1  0  0  0
 28 27  1  0  0  0
 31 32  1  0  0  0
 22 23  1  0  0  0
 27 29  1  0  0  0
 19 21  1  0  0  0
M  END
> <minimizedAffinity>
-8.02588

$$$$
