4FM7_0UP_A_501


 34 37  0  0  0  0  0  0  0  0999 V2000
   22.1746   35.4806   43.1676 C   0  0  0  0  0  0  0  0  0  0  0  0
   21.9441   37.9067   43.5580 C   0  0  0  0  0  0  0  0  0  0  0  0
   20.8063   36.3354   45.0257 C   0  0  0  0  0  0  0  0  0  0  0  0
   23.2941   35.7118   42.1713 C   0  0  0  0  0  0  0  0  0  0  0  0
   22.9908   38.1426   42.4886 C   0  0  0  0  0  0  0  0  0  0  0  0
   22.0793   36.5614   44.2138 C   0  0  0  0  0  0  0  0  0  0  0  0
   22.5709   39.3842   41.7337 C   0  0  0  0  0  0  0  0  0  0  0  0
   20.0766   35.2957   47.1618 C   0  0  0  0  0  0  0  0  0  0  0  0
   23.1833   36.4419   45.2100 N   0  0  0  0  0  0  0  0  0  0  0  0
   21.1371   35.4234   46.1371 N   0  0  0  0  0  0  0  0  0  0  0  0
   23.0911   37.0172   41.4947 N   0  0  0  0  0  0  0  0  0  0  0  0
   23.4458   34.4414   46.7767 O   0  0  0  0  0  0  0  0  0  0  0  0
   22.7024   36.6192   47.7714 O   0  0  0  0  0  0  0  0  0  0  0  0
   22.7138   35.6877   46.6726 S   0  0  0  0  0  0  0  0  0  0  0  0
   26.8668   36.5703   45.1817 C   0  0  0  0  0  0  0  0  0  0  0  0
   25.5667   36.1174   45.0917 C   0  0  0  0  0  0  0  0  0  0  0  0
   27.1094   37.9105   45.3784 C   0  0  0  0  0  0  0  0  0  0  0  0
   24.7405   38.3264   45.4750 C   0  0  0  0  0  0  0  0  0  0  0  0
   24.5051   36.9907   45.2073 C   0  0  0  0  0  0  0  0  0  0  0  0
   26.0464   38.7785   45.5229 C   0  0  0  0  0  0  0  0  0  0  0  0
   26.2976   40.0877   45.7272 F   0  0  0  0  0  0  0  0  0  0  0  0
   24.0993   37.2786   40.3905 C   0  0  0  0  0  0  0  0  0  0  0  0
   26.0841   38.5658   41.2475 C   0  0  0  0  0  0  0  0  0  0  0  0
   27.3499   38.6225   41.7909 C   0  0  0  0  0  0  0  0  0  0  0  0
   26.2357   36.1946   41.0509 C   0  0  0  0  0  0  0  0  0  0  0  0
   25.5092   37.3627   40.9008 C   0  0  0  0  0  0  0  0  0  0  0  0
   28.0549   37.4497   41.9485 C   0  0  0  0  0  0  0  0  0  0  0  0
   27.5083   36.2444   41.5517 C   0  0  0  0  0  0  0  0  0  0  0  0
   29.3470   37.4349   42.4542 O   0  0  0  0  0  0  0  0  0  0  0  0
   29.8031   36.6220   42.5506 H   0  0  0  0  0  0  0  0  0  0  0  0
   28.3082   35.1286   41.7440 O   0  0  0  0  0  0  0  0  0  0  0  0
   28.7185   34.6693   39.3806 C   0  0  0  0  0  0  0  0  0  0  0  0
   29.1405   33.0151   41.1667 C   0  0  0  0  0  0  0  0  0  0  0  0
   28.2232   34.1328   40.7109 C   0  0  0  0  0  0  0  0  0  0  0  0
 32 34  1  0  0  0
 22 26  1  0  0  0
 22 11  1  0  0  0
 34 33  1  0  0  0
 34 31  1  0  0  0
 26 25  2  0  0  0
 26 23  1  0  0  0
 25 28  1  0  0  0
 23 24  2  0  0  0
 28 31  1  0  0  0
 28 27  2  0  0  0
 11  4  1  0  0  0
 11  5  1  0  0  0
  7  5  1  0  0  0
 24 27  1  0  0  0
 27 29  1  0  0  0
  4  1  1  0  0  0
  5  2  1  0  0  0
  1  6  1  0  0  0
  2  6  1  0  0  0
  6  3  1  0  0  0
  6  9  1  0  0  0
  3 10  1  0  0  0
 16 15  2  0  0  0
 16 19  1  0  0  0
 15 17  1  0  0  0
 19  9  1  0  0  0
 19 18  2  0  0  0
  9 14  1  0  0  0
 17 20  2  0  0  0
 18 20  1  0  0  0
 20 21  1  0  0  0
 10 14  1  0  0  0
 10  8  1  0  0  0
 14 12  2  0  0  0
 14 13  2  0  0  0
 29 30  1  0  0  0
M  END
> <minimizedAffinity>
-9.75169

$$$$
4FM7_0UP_A_501


 34 37  0  0  0  0  0  0  0  0999 V2000
   22.2193   35.9804   40.9014 C   0  0  0  0  0  0  0  0  0  0  0  0
   21.8244   38.0223   42.2304 C   0  0  0  0  0  0  0  0  0  0  0  0
   20.1389   36.2689   42.1836 C   0  0  0  0  0  0  0  0  0  0  0  0
   23.6736   36.3557   40.6923 C   0  0  0  0  0  0  0  0  0  0  0  0
   23.2483   38.4471   41.9358 C   0  0  0  0  0  0  0  0  0  0  0  0
   21.6428   36.5315   42.1804 C   0  0  0  0  0  0  0  0  0  0  0  0
   23.2248   39.9470   41.7420 C   0  0  0  0  0  0  0  0  0  0  0  0
   18.5003   34.6269   43.0754 C   0  0  0  0  0  0  0  0  0  0  0  0
   22.1546   35.7832   43.3652 N   0  0  0  0  0  0  0  0  0  0  0  0
   19.9160   34.9344   42.7718 N   0  0  0  0  0  0  0  0  0  0  0  0
   23.8051   37.8340   40.6795 N   0  0  0  0  0  0  0  0  0  0  0  0
   21.6629   33.3111   43.7801 O   0  0  0  0  0  0  0  0  0  0  0  0
   20.5331   34.9942   45.2551 O   0  0  0  0  0  0  0  0  0  0  0  0
   21.0595   34.6150   43.9688 S   0  0  0  0  0  0  0  0  0  0  0  0
   25.4663   35.1687   44.8620 C   0  0  0  0  0  0  0  0  0  0  0  0
   24.3552   35.0830   44.0486 C   0  0  0  0  0  0  0  0  0  0  0  0
   25.5522   36.1772   45.7943 C   0  0  0  0  0  0  0  0  0  0  0  0
   23.3710   36.9631   45.1468 C   0  0  0  0  0  0  0  0  0  0  0  0
   23.3228   35.9906   44.1655 C   0  0  0  0  0  0  0  0  0  0  0  0
   24.5060   37.0668   45.9300 C   0  0  0  0  0  0  0  0  0  0  0  0
   24.5972   38.0434   46.8557 F   0  0  0  0  0  0  0  0  0  0  0  0
   25.2111   38.3038   40.3534 C   0  0  0  0  0  0  0  0  0  0  0  0
   26.4938   38.5597   42.5028 C   0  0  0  0  0  0  0  0  0  0  0  0
   27.3669   38.0840   43.4580 C   0  0  0  0  0  0  0  0  0  0  0  0
   26.8840   36.6429   41.1398 C   0  0  0  0  0  0  0  0  0  0  0  0
   26.2252   37.8399   41.3592 C   0  0  0  0  0  0  0  0  0  0  0  0
   28.0035   36.8836   43.2325 C   0  0  0  0  0  0  0  0  0  0  0  0
   27.7828   36.1819   42.0629 C   0  0  0  0  0  0  0  0  0  0  0  0
   28.9220   36.3619   44.1324 O   0  0  0  0  0  0  0  0  0  0  0  0
   29.3401   35.5428   43.9532 H   0  0  0  0  0  0  0  0  0  0  0  0
   28.4840   34.9929   41.9332 O   0  0  0  0  0  0  0  0  0  0  0  0
   28.9119   33.5368   40.0196 C   0  0  0  0  0  0  0  0  0  0  0  0
   27.4702   32.8799   41.9156 C   0  0  0  0  0  0  0  0  0  0  0  0
   27.8994   34.0361   41.0338 C   0  0  0  0  0  0  0  0  0  0  0  0
 32 34  1  0  0  0
 22 26  1  0  0  0
 22 11  1  0  0  0
 34 33  1  0  0  0
 34 31  1  0  0  0
 26 25  2  0  0  0
 26 23  1  0  0  0
 25 28  1  0  0  0
 23 24  2  0  0  0
 28 31  1  0  0  0
 28 27  2  0  0  0
 11  4  1  0  0  0
 11  5  1  0  0  0
  7  5  1  0  0  0
 24 27  1  0  0  0
 27 29  1  0  0  0
  4  1  1  0  0  0
  5  2  1  0  0  0
  1  6  1  0  0  0
  2  6  1  0  0  0
  6  3  1  0  0  0
  6  9  1  0  0  0
  3 10  1  0  0  0
 16 15  2  0  0  0
 16 19  1  0  0  0
 15 17  1  0  0  0
 19  9  1  0  0  0
 19 18  2  0  0  0
  9 14  1  0  0  0
 17 20  2  0  0  0
 18 20  1  0  0  0
 20 21  1  0  0  0
 10 14  1  0  0  0
 10  8  1  0  0  0
 14 12  2  0  0  0
 14 13  2  0  0  0
 29 30  1  0  0  0
M  END
> <minimizedAffinity>
-8.93505

$$$$
4FM7_0UP_A_501


 34 37  0  0  0  0  0  0  0  0999 V2000
   24.3618   37.4491   41.1921 C   0  0  0  0  0  0  0  0  0  0  0  0
   24.8091   38.2055   43.4984 C   0  0  0  0  0  0  0  0  0  0  0  0
   22.5375   38.2616   42.6299 C   0  0  0  0  0  0  0  0  0  0  0  0
   25.7561   36.8644   41.0761 C   0  0  0  0  0  0  0  0  0  0  0  0
   26.2336   37.7128   43.3462 C   0  0  0  0  0  0  0  0  0  0  0  0
   23.8451   37.4738   42.6078 C   0  0  0  0  0  0  0  0  0  0  0  0
   27.1176   38.7039   44.0699 C   0  0  0  0  0  0  0  0  0  0  0  0
   20.0840   37.8699   42.5751 C   0  0  0  0  0  0  0  0  0  0  0  0
   23.4638   36.1053   43.0631 N   0  0  0  0  0  0  0  0  0  0  0  0
   21.4387   37.3184   42.3480 N   0  0  0  0  0  0  0  0  0  0  0  0
   26.6934   37.6525   41.9147 N   0  0  0  0  0  0  0  0  0  0  0  0
   21.5693   34.7551   42.0080 O   0  0  0  0  0  0  0  0  0  0  0  0
   21.2049   35.6872   44.3066 O   0  0  0  0  0  0  0  0  0  0  0  0
   21.7818   35.7982   42.9912 S   0  0  0  0  0  0  0  0  0  0  0  0
   25.4016   34.3490   45.6603 C   0  0  0  0  0  0  0  0  0  0  0  0
   24.5726   35.2480   45.0215 C   0  0  0  0  0  0  0  0  0  0  0  0
   25.8961   33.2673   44.9682 C   0  0  0  0  0  0  0  0  0  0  0  0
   24.7905   34.0369   42.9733 C   0  0  0  0  0  0  0  0  0  0  0  0
   24.2412   35.0818   43.6928 C   0  0  0  0  0  0  0  0  0  0  0  0
   25.5873   33.1182   43.6315 C   0  0  0  0  0  0  0  0  0  0  0  0
   26.0880   32.0603   42.9613 F   0  0  0  0  0  0  0  0  0  0  0  0
   28.1387   37.2136   41.7656 C   0  0  0  0  0  0  0  0  0  0  0  0
   28.1752   35.6925   39.7617 C   0  0  0  0  0  0  0  0  0  0  0  0
   28.3788   34.4599   39.1784 C   0  0  0  0  0  0  0  0  0  0  0  0
   28.5231   34.7639   41.9298 C   0  0  0  0  0  0  0  0  0  0  0  0
   28.2708   35.8614   41.1257 C   0  0  0  0  0  0  0  0  0  0  0  0
   28.6441   33.3798   39.9908 C   0  0  0  0  0  0  0  0  0  0  0  0
   28.6866   33.5288   41.3637 C   0  0  0  0  0  0  0  0  0  0  0  0
   28.8232   32.1036   39.4762 O   0  0  0  0  0  0  0  0  0  0  0  0
   29.0027   31.3869   40.0526 H   0  0  0  0  0  0  0  0  0  0  0  0
   28.9489   32.3752   42.0864 O   0  0  0  0  0  0  0  0  0  0  0  0
   29.1081   31.5634   44.3844 C   0  0  0  0  0  0  0  0  0  0  0  0
   31.0563   32.3938   43.1118 C   0  0  0  0  0  0  0  0  0  0  0  0
   29.5736   32.5855   43.3638 C   0  0  0  0  0  0  0  0  0  0  0  0
 32 34  1  0  0  0
 22 26  1  0  0  0
 22 11  1  0  0  0
 34 33  1  0  0  0
 34 31  1  0  0  0
 26 25  2  0  0  0
 26 23  1  0  0  0
 25 28  1  0  0  0
 23 24  2  0  0  0
 28 31  1  0  0  0
 28 27  2  0  0  0
 11  4  1  0  0  0
 11  5  1  0  0  0
  7  5  1  0  0  0
 24 27  1  0  0  0
 27 29  1  0  0  0
  4  1  1  0  0  0
  5  2  1  0  0  0
  1  6  1  0  0  0
  2  6  1  0  0  0
  6  3  1  0  0  0
  6  9  1  0  0  0
  3 10  1  0  0  0
 16 15  2  0  0  0
 16 19  1  0  0  0
 15 17  1  0  0  0
 19  9  1  0  0  0
 19 18  2  0  0  0
  9 14  1  0  0  0
 17 20  2  0  0  0
 18 20  1  0  0  0
 20 21  1  0  0  0
 10 14  1  0  0  0
 10  8  1  0  0  0
 14 12  2  0  0  0
 14 13  2  0  0  0
 29 30  1  0  0  0
M  END
> <minimizedAffinity>
-8.82251

$$$$
4FM7_0UP_A_501


 34 37  0  0  0  0  0  0  0  0999 V2000
   25.5571   34.5841   45.2369 C   0  0  0  0  0  0  0  0  0  0  0  0
   26.7908   36.7077   45.4820 C   0  0  0  0  0  0  0  0  0  0  0  0
   28.0162   34.6124   45.3219 C   0  0  0  0  0  0  0  0  0  0  0  0
   24.2625   35.3267   44.9684 C   0  0  0  0  0  0  0  0  0  0  0  0
   25.4796   37.4479   45.3155 C   0  0  0  0  0  0  0  0  0  0  0  0
   26.7818   35.3582   44.8212 C   0  0  0  0  0  0  0  0  0  0  0  0
   25.5284   38.6371   46.2488 C   0  0  0  0  0  0  0  0  0  0  0  0
   29.7216   33.0001   44.5045 C   0  0  0  0  0  0  0  0  0  0  0  0
   26.9299   35.3701   43.3367 N   0  0  0  0  0  0  0  0  0  0  0  0
   28.4019   33.6342   44.2871 N   0  0  0  0  0  0  0  0  0  0  0  0
   24.2781   36.6233   45.6906 N   0  0  0  0  0  0  0  0  0  0  0  0
   27.3443   33.2631   41.9533 O   0  0  0  0  0  0  0  0  0  0  0  0
   29.2388   34.8838   42.2161 O   0  0  0  0  0  0  0  0  0  0  0  0
   28.0675   34.2354   42.7479 S   0  0  0  0  0  0  0  0  0  0  0  0
   26.4021   38.4922   41.4501 C   0  0  0  0  0  0  0  0  0  0  0  0
   26.9291   37.5462   42.3050 C   0  0  0  0  0  0  0  0  0  0  0  0
   25.3497   38.1577   40.6290 C   0  0  0  0  0  0  0  0  0  0  0  0
   25.3052   35.9486   41.5840 C   0  0  0  0  0  0  0  0  0  0  0  0
   26.4067   36.2704   42.3548 C   0  0  0  0  0  0  0  0  0  0  0  0
   24.8094   36.8900   40.7007 C   0  0  0  0  0  0  0  0  0  0  0  0
   23.7705   36.5783   39.8992 F   0  0  0  0  0  0  0  0  0  0  0  0
   22.9689   37.3830   45.5784 C   0  0  0  0  0  0  0  0  0  0  0  0
   22.3911   38.1436   43.2507 C   0  0  0  0  0  0  0  0  0  0  0  0
   21.8435   37.9250   42.0044 C   0  0  0  0  0  0  0  0  0  0  0  0
   21.6042   36.0243   44.0078 C   0  0  0  0  0  0  0  0  0  0  0  0
   22.3019   37.1952   44.2461 C   0  0  0  0  0  0  0  0  0  0  0  0
   21.1650   36.7480   41.7776 C   0  0  0  0  0  0  0  0  0  0  0  0
   21.0224   35.8153   42.7869 C   0  0  0  0  0  0  0  0  0  0  0  0
   20.5573   36.4765   40.5600 O   0  0  0  0  0  0  0  0  0  0  0  0
   20.1022   35.6672   40.4336 H   0  0  0  0  0  0  0  0  0  0  0  0
   20.3111   34.6728   42.4543 O   0  0  0  0  0  0  0  0  0  0  0  0
   17.9192   35.1047   42.6944 C   0  0  0  0  0  0  0  0  0  0  0  0
   18.9512   32.9194   43.2087 C   0  0  0  0  0  0  0  0  0  0  0  0
   19.1494   34.4215   43.2627 C   0  0  0  0  0  0  0  0  0  0  0  0
 32 34  1  0  0  0
 22 26  1  0  0  0
 22 11  1  0  0  0
 34 33  1  0  0  0
 34 31  1  0  0  0
 26 25  2  0  0  0
 26 23  1  0  0  0
 25 28  1  0  0  0
 23 24  2  0  0  0
 28 31  1  0  0  0
 28 27  2  0  0  0
 11  4  1  0  0  0
 11  5  1  0  0  0
  7  5  1  0  0  0
 24 27  1  0  0  0
 27 29  1  0  0  0
  4  1  1  0  0  0
  5  2  1  0  0  0
  1  6  1  0  0  0
  2  6  1  0  0  0
  6  3  1  0  0  0
  6  9  1  0  0  0
  3 10  1  0  0  0
 16 15  2  0  0  0
 16 19  1  0  0  0
 15 17  1  0  0  0
 19  9  1  0  0  0
 19 18  2  0  0  0
  9 14  1  0  0  0
 17 20  2  0  0  0
 18 20  1  0  0  0
 20 21  1  0  0  0
 10 14  1  0  0  0
 10  8  1  0  0  0
 14 12  2  0  0  0
 14 13  2  0  0  0
 29 30  1  0  0  0
M  END
> <minimizedAffinity>
-8.54035

$$$$
4FM7_0UP_A_501


 34 37  0  0  0  0  0  0  0  0999 V2000
   22.3383   35.1897   48.2811 C   0  0  0  0  0  0  0  0  0  0  0  0
   22.2952   33.4248   46.5562 C   0  0  0  0  0  0  0  0  0  0  0  0
   22.0447   32.8264   48.9007 C   0  0  0  0  0  0  0  0  0  0  0  0
   22.2377   36.2731   47.2249 C   0  0  0  0  0  0  0  0  0  0  0  0
   22.2979   34.5084   45.4976 C   0  0  0  0  0  0  0  0  0  0  0  0
   21.7054   33.8887   47.8581 C   0  0  0  0  0  0  0  0  0  0  0  0
   23.1579   34.0046   44.3599 C   0  0  0  0  0  0  0  0  0  0  0  0
   21.0499   31.7505   50.9080 C   0  0  0  0  0  0  0  0  0  0  0  0
   20.2168   33.9814   47.8908 N   0  0  0  0  0  0  0  0  0  0  0  0
   21.0085   32.8777   49.9496 N   0  0  0  0  0  0  0  0  0  0  0  0
   22.8894   35.8068   45.9756 N   0  0  0  0  0  0  0  0  0  0  0  0
   18.8832   34.3537   50.0374 O   0  0  0  0  0  0  0  0  0  0  0  0
   18.7793   32.0869   48.9716 O   0  0  0  0  0  0  0  0  0  0  0  0
   19.5129   33.2860   49.2870 S   0  0  0  0  0  0  0  0  0  0  0  0
   17.7890   36.1082   46.1109 C   0  0  0  0  0  0  0  0  0  0  0  0
   18.7635   35.6755   46.9866 C   0  0  0  0  0  0  0  0  0  0  0  0
   17.3402   35.2652   45.1202 C   0  0  0  0  0  0  0  0  0  0  0  0
   18.7904   33.5276   45.9399 C   0  0  0  0  0  0  0  0  0  0  0  0
   19.2867   34.4029   46.8880 C   0  0  0  0  0  0  0  0  0  0  0  0
   17.8434   33.9828   45.0409 C   0  0  0  0  0  0  0  0  0  0  0  0
   17.3865   33.1624   44.0728 F   0  0  0  0  0  0  0  0  0  0  0  0
   22.9445   36.8748   44.8984 C   0  0  0  0  0  0  0  0  0  0  0  0
   24.7792   38.4753   45.5335 C   0  0  0  0  0  0  0  0  0  0  0  0
   26.0703   38.9460   45.4219 C   0  0  0  0  0  0  0  0  0  0  0  0
   25.1497   36.9323   43.7542 C   0  0  0  0  0  0  0  0  0  0  0  0
   24.3186   37.4565   44.7285 C   0  0  0  0  0  0  0  0  0  0  0  0
   26.8906   38.4037   44.4575 C   0  0  0  0  0  0  0  0  0  0  0  0
   26.4198   37.4205   43.6085 C   0  0  0  0  0  0  0  0  0  0  0  0
   28.1890   38.8535   44.2638 O   0  0  0  0  0  0  0  0  0  0  0  0
   28.7249   38.4661   43.5999 H   0  0  0  0  0  0  0  0  0  0  0  0
   27.3247   36.9543   42.6675 O   0  0  0  0  0  0  0  0  0  0  0  0
   26.9784   38.5876   40.8848 C   0  0  0  0  0  0  0  0  0  0  0  0
   27.9393   36.3460   40.4891 C   0  0  0  0  0  0  0  0  0  0  0  0
   26.9235   37.1284   41.2982 C   0  0  0  0  0  0  0  0  0  0  0  0
 32 34  1  0  0  0
 22 26  1  0  0  0
 22 11  1  0  0  0
 34 33  1  0  0  0
 34 31  1  0  0  0
 26 25  2  0  0  0
 26 23  1  0  0  0
 25 28  1  0  0  0
 23 24  2  0  0  0
 28 31  1  0  0  0
 28 27  2  0  0  0
 11  4  1  0  0  0
 11  5  1  0  0  0
  7  5  1  0  0  0
 24 27  1  0  0  0
 27 29  1  0  0  0
  4  1  1  0  0  0
  5  2  1  0  0  0
  1  6  1  0  0  0
  2  6  1  0  0  0
  6  3  1  0  0  0
  6  9  1  0  0  0
  3 10  1  0  0  0
 16 15  2  0  0  0
 16 19  1  0  0  0
 15 17  1  0  0  0
 19  9  1  0  0  0
 19 18  2  0  0  0
  9 14  1  0  0  0
 17 20  2  0  0  0
 18 20  1  0  0  0
 20 21  1  0  0  0
 10 14  1  0  0  0
 10  8  1  0  0  0
 14 12  2  0  0  0
 14 13  2  0  0  0
 29 30  1  0  0  0
M  END
> <minimizedAffinity>
-8.50207

$$$$
4FM7_0UP_A_501


 34 37  0  0  0  0  0  0  0  0999 V2000
   22.0426   35.2260   45.7003 C   0  0  0  0  0  0  0  0  0  0  0  0
   22.8805   33.8010   43.8676 C   0  0  0  0  0  0  0  0  0  0  0  0
   20.4854   33.9935   44.2473 C   0  0  0  0  0  0  0  0  0  0  0  0
   23.4178   35.8311   45.9055 C   0  0  0  0  0  0  0  0  0  0  0  0
   24.2735   34.3300   44.1403 C   0  0  0  0  0  0  0  0  0  0  0  0
   21.8039   34.7621   44.2862 C   0  0  0  0  0  0  0  0  0  0  0  0
   25.2265   33.1727   43.9403 C   0  0  0  0  0  0  0  0  0  0  0  0
   18.0898   34.3600   43.6968 C   0  0  0  0  0  0  0  0  0  0  0  0
   21.5875   35.9206   43.3715 N   0  0  0  0  0  0  0  0  0  0  0  0
   19.4034   34.9673   44.0077 N   0  0  0  0  0  0  0  0  0  0  0  0
   24.4554   34.8320   45.5472 N   0  0  0  0  0  0  0  0  0  0  0  0
   19.5995   37.5120   43.5727 O   0  0  0  0  0  0  0  0  0  0  0  0
   19.6309   35.9146   41.6409 O   0  0  0  0  0  0  0  0  0  0  0  0
   19.9407   36.2191   43.0144 S   0  0  0  0  0  0  0  0  0  0  0  0
   23.6103   38.8284   42.3525 C   0  0  0  0  0  0  0  0  0  0  0  0
   22.7958   37.9829   43.0773 C   0  0  0  0  0  0  0  0  0  0  0  0
   24.1658   38.3926   41.1714 C   0  0  0  0  0  0  0  0  0  0  0  0
   23.0201   36.2888   41.4073 C   0  0  0  0  0  0  0  0  0  0  0  0
   22.5223   36.7080   42.6270 C   0  0  0  0  0  0  0  0  0  0  0  0
   23.8682   37.1275   40.7075 C   0  0  0  0  0  0  0  0  0  0  0  0
   24.4095   36.7167   39.5426 F   0  0  0  0  0  0  0  0  0  0  0  0
   25.8667   35.3091   45.8374 C   0  0  0  0  0  0  0  0  0  0  0  0
   26.0946   37.6428   44.9247 C   0  0  0  0  0  0  0  0  0  0  0  0
   26.6252   38.5491   44.0315 C   0  0  0  0  0  0  0  0  0  0  0  0
   27.1411   35.8381   43.7706 C   0  0  0  0  0  0  0  0  0  0  0  0
   26.3656   36.2959   44.8213 C   0  0  0  0  0  0  0  0  0  0  0  0
   27.4078   38.0798   42.9998 C   0  0  0  0  0  0  0  0  0  0  0  0
   27.6392   36.7253   42.8555 C   0  0  0  0  0  0  0  0  0  0  0  0
   27.9444   38.9297   42.0432 O   0  0  0  0  0  0  0  0  0  0  0  0
   28.4735   38.5827   41.3520 H   0  0  0  0  0  0  0  0  0  0  0  0
   28.4297   36.3615   41.7763 O   0  0  0  0  0  0  0  0  0  0  0  0
   28.2257   35.5252   39.4906 C   0  0  0  0  0  0  0  0  0  0  0  0
   28.5798   34.0471   41.4386 C   0  0  0  0  0  0  0  0  0  0  0  0
   27.8938   35.3100   40.9557 C   0  0  0  0  0  0  0  0  0  0  0  0
 32 34  1  0  0  0
 22 26  1  0  0  0
 22 11  1  0  0  0
 34 33  1  0  0  0
 34 31  1  0  0  0
 26 25  2  0  0  0
 26 23  1  0  0  0
 25 28  1  0  0  0
 23 24  2  0  0  0
 28 31  1  0  0  0
 28 27  2  0  0  0
 11  4  1  0  0  0
 11  5  1  0  0  0
  7  5  1  0  0  0
 24 27  1  0  0  0
 27 29  1  0  0  0
  4  1  1  0  0  0
  5  2  1  0  0  0
  1  6  1  0  0  0
  2  6  1  0  0  0
  6  3  1  0  0  0
  6  9  1  0  0  0
  3 10  1  0  0  0
 16 15  2  0  0  0
 16 19  1  0  0  0
 15 17  1  0  0  0
 19  9  1  0  0  0
 19 18  2  0  0  0
  9 14  1  0  0  0
 17 20  2  0  0  0
 18 20  1  0  0  0
 20 21  1  0  0  0
 10 14  1  0  0  0
 10  8  1  0  0  0
 14 12  2  0  0  0
 14 13  2  0  0  0
 29 30  1  0  0  0
M  END
> <minimizedAffinity>
-8.36984

$$$$
4FM7_0UP_A_501


 34 37  0  0  0  0  0  0  0  0999 V2000
   20.2731   34.6450   46.2918 C   0  0  0  0  0  0  0  0  0  0  0  0
   20.9852   33.1641   44.4501 C   0  0  0  0  0  0  0  0  0  0  0  0
   18.6159   33.5658   44.8274 C   0  0  0  0  0  0  0  0  0  0  0  0
   21.6961   35.1241   46.5034 C   0  0  0  0  0  0  0  0  0  0  0  0
   22.4192   33.5655   44.7288 C   0  0  0  0  0  0  0  0  0  0  0  0
   19.9973   34.2141   44.8740 C   0  0  0  0  0  0  0  0  0  0  0  0
   23.2661   32.3295   44.5219 C   0  0  0  0  0  0  0  0  0  0  0  0
   16.2635   34.1474   44.2758 C   0  0  0  0  0  0  0  0  0  0  0  0
   19.8866   35.3936   43.9673 N   0  0  0  0  0  0  0  0  0  0  0  0
   17.6251   34.6335   44.5932 N   0  0  0  0  0  0  0  0  0  0  0  0
   22.6417   34.0394   46.1395 N   0  0  0  0  0  0  0  0  0  0  0  0
   18.0472   37.1537   44.1768 O   0  0  0  0  0  0  0  0  0  0  0  0
   17.9410   35.5735   42.2336 O   0  0  0  0  0  0  0  0  0  0  0  0
   18.2736   35.8396   43.6097 S   0  0  0  0  0  0  0  0  0  0  0  0
   22.1891   38.1027   42.9956 C   0  0  0  0  0  0  0  0  0  0  0  0
   21.2998   37.3265   43.7099 C   0  0  0  0  0  0  0  0  0  0  0  0
   22.6816   37.6449   41.7950 C   0  0  0  0  0  0  0  0  0  0  0  0
   21.3255   35.6659   41.9920 C   0  0  0  0  0  0  0  0  0  0  0  0
   20.8893   36.1001   43.2299 C   0  0  0  0  0  0  0  0  0  0  0  0
   22.2478   36.4312   41.3021 C   0  0  0  0  0  0  0  0  0  0  0  0
   22.7289   35.9992   40.1186 F   0  0  0  0  0  0  0  0  0  0  0  0
   24.0892   34.3873   46.4354 C   0  0  0  0  0  0  0  0  0  0  0  0
   24.3657   36.8787   46.2181 C   0  0  0  0  0  0  0  0  0  0  0  0
   24.8662   37.9919   45.5769 C   0  0  0  0  0  0  0  0  0  0  0  0
   25.2067   35.4631   44.4939 C   0  0  0  0  0  0  0  0  0  0  0  0
   24.5519   35.6143   45.7035 C   0  0  0  0  0  0  0  0  0  0  0  0
   25.5292   37.8240   44.3813 C   0  0  0  0  0  0  0  0  0  0  0  0
   25.6718   36.5653   43.8296 C   0  0  0  0  0  0  0  0  0  0  0  0
   26.0269   38.9017   43.6628 O   0  0  0  0  0  0  0  0  0  0  0  0
   26.4740   38.7579   42.8520 H   0  0  0  0  0  0  0  0  0  0  0  0
   26.3444   36.5120   42.6185 O   0  0  0  0  0  0  0  0  0  0  0  0
   27.7255   34.6552   41.8373 C   0  0  0  0  0  0  0  0  0  0  0  0
   28.5808   36.9605   42.0797 C   0  0  0  0  0  0  0  0  0  0  0  0
   27.6527   35.9192   42.6739 C   0  0  0  0  0  0  0  0  0  0  0  0
 32 34  1  0  0  0
 22 26  1  0  0  0
 22 11  1  0  0  0
 34 33  1  0  0  0
 34 31  1  0  0  0
 26 25  2  0  0  0
 26 23  1  0  0  0
 25 28  1  0  0  0
 23 24  2  0  0  0
 28 31  1  0  0  0
 28 27  2  0  0  0
 11  4  1  0  0  0
 11  5  1  0  0  0
  7  5  1  0  0  0
 24 27  1  0  0  0
 27 29  1  0  0  0
  4  1  1  0  0  0
  5  2  1  0  0  0
  1  6  1  0  0  0
  2  6  1  0  0  0
  6  3  1  0  0  0
  6  9  1  0  0  0
  3 10  1  0  0  0
 16 15  2  0  0  0
 16 19  1  0  0  0
 15 17  1  0  0  0
 19  9  1  0  0  0
 19 18  2  0  0  0
  9 14  1  0  0  0
 17 20  2  0  0  0
 18 20  1  0  0  0
 20 21  1  0  0  0
 10 14  1  0  0  0
 10  8  1  0  0  0
 14 12  2  0  0  0
 14 13  2  0  0  0
 29 30  1  0  0  0
M  END
> <minimizedAffinity>
-8.16731

$$$$
4FM7_0UP_A_501


 34 37  0  0  0  0  0  0  0  0999 V2000
   22.2545   35.9688   46.7482 C   0  0  0  0  0  0  0  0  0  0  0  0
   22.4173   33.9556   45.3296 C   0  0  0  0  0  0  0  0  0  0  0  0
   22.0961   33.7176   47.7292 C   0  0  0  0  0  0  0  0  0  0  0  0
   22.1300   36.8609   45.5284 C   0  0  0  0  0  0  0  0  0  0  0  0
   22.3959   34.8555   44.1112 C   0  0  0  0  0  0  0  0  0  0  0  0
   21.7346   34.5730   46.5174 C   0  0  0  0  0  0  0  0  0  0  0  0
   23.3427   34.2454   43.1017 C   0  0  0  0  0  0  0  0  0  0  0  0
   21.0826   32.8995   49.8457 C   0  0  0  0  0  0  0  0  0  0  0  0
   20.2433   34.5559   46.4803 N   0  0  0  0  0  0  0  0  0  0  0  0
   21.0094   33.8548   48.7175 N   0  0  0  0  0  0  0  0  0  0  0  0
   22.8721   36.2543   44.3951 N   0  0  0  0  0  0  0  0  0  0  0  0
   18.7850   35.1598   48.4887 O   0  0  0  0  0  0  0  0  0  0  0  0
   18.8903   32.7519   47.7987 O   0  0  0  0  0  0  0  0  0  0  0  0
   19.5228   34.0381   47.9435 S   0  0  0  0  0  0  0  0  0  0  0  0
   18.2237   33.7697   43.4990 C   0  0  0  0  0  0  0  0  0  0  0  0
   19.0134   33.6409   44.6229 C   0  0  0  0  0  0  0  0  0  0  0  0
   17.7422   35.0086   43.1428 C   0  0  0  0  0  0  0  0  0  0  0  0
   18.9137   35.9986   44.9980 C   0  0  0  0  0  0  0  0  0  0  0  0
   19.3357   34.7416   45.3894 C   0  0  0  0  0  0  0  0  0  0  0  0
   18.0892   36.1131   43.8937 C   0  0  0  0  0  0  0  0  0  0  0  0
   17.6206   37.3234   43.5272 F   0  0  0  0  0  0  0  0  0  0  0  0
   22.9049   37.1399   43.1628 C   0  0  0  0  0  0  0  0  0  0  0  0
   24.5704   38.1616   41.5776 C   0  0  0  0  0  0  0  0  0  0  0  0
   25.8379   38.6117   41.2746 C   0  0  0  0  0  0  0  0  0  0  0  0
   25.3253   37.3459   43.6868 C   0  0  0  0  0  0  0  0  0  0  0  0
   24.2976   37.5552   42.7842 C   0  0  0  0  0  0  0  0  0  0  0  0
   26.8475   38.4099   42.1896 C   0  0  0  0  0  0  0  0  0  0  0  0
   26.5950   37.7528   43.3784 C   0  0  0  0  0  0  0  0  0  0  0  0
   28.1539   38.8033   41.9365 O   0  0  0  0  0  0  0  0  0  0  0  0
   28.8208   38.6534   42.5774 H   0  0  0  0  0  0  0  0  0  0  0  0
   27.6846   37.5926   44.2205 O   0  0  0  0  0  0  0  0  0  0  0  0
   29.0472   35.6748   43.5641 C   0  0  0  0  0  0  0  0  0  0  0  0
   28.6231   36.2815   45.9214 C   0  0  0  0  0  0  0  0  0  0  0  0
   28.0185   36.2296   44.5320 C   0  0  0  0  0  0  0  0  0  0  0  0
 32 34  1  0  0  0
 22 26  1  0  0  0
 22 11  1  0  0  0
 34 33  1  0  0  0
 34 31  1  0  0  0
 26 25  2  0  0  0
 26 23  1  0  0  0
 25 28  1  0  0  0
 23 24  2  0  0  0
 28 31  1  0  0  0
 28 27  2  0  0  0
 11  4  1  0  0  0
 11  5  1  0  0  0
  7  5  1  0  0  0
 24 27  1  0  0  0
 27 29  1  0  0  0
  4  1  1  0  0  0
  5  2  1  0  0  0
  1  6  1  0  0  0
  2  6  1  0  0  0
  6  3  1  0  0  0
  6  9  1  0  0  0
  3 10  1  0  0  0
 16 15  2  0  0  0
 16 19  1  0  0  0
 15 17  1  0  0  0
 19  9  1  0  0  0
 19 18  2  0  0  0
  9 14  1  0  0  0
 17 20  2  0  0  0
 18 20  1  0  0  0
 20 21  1  0  0  0
 10 14  1  0  0  0
 10  8  1  0  0  0
 14 12  2  0  0  0
 14 13  2  0  0  0
 29 30  1  0  0  0
M  END
> <minimizedAffinity>
-8.07455

$$$$
4FM7_0UP_A_501


 34 37  0  0  0  0  0  0  0  0999 V2000
   21.9064   35.6041   47.6798 C   0  0  0  0  0  0  0  0  0  0  0  0
   21.7315   33.8442   45.9583 C   0  0  0  0  0  0  0  0  0  0  0  0
   22.0767   33.2251   48.2853 C   0  0  0  0  0  0  0  0  0  0  0  0
   21.4342   36.6595   46.6988 C   0  0  0  0  0  0  0  0  0  0  0  0
   21.3585   34.9141   44.9527 C   0  0  0  0  0  0  0  0  0  0  0  0
   21.3795   34.2268   47.3682 C   0  0  0  0  0  0  0  0  0  0  0  0
   22.0127   34.5299   43.6442 C   0  0  0  0  0  0  0  0  0  0  0  0
   21.6942   32.0291   50.4299 C   0  0  0  0  0  0  0  0  0  0  0  0
   19.9346   34.1132   47.7216 N   0  0  0  0  0  0  0  0  0  0  0  0
   21.2943   33.1365   49.5329 N   0  0  0  0  0  0  0  0  0  0  0  0
   21.8578   36.2834   45.3269 N   0  0  0  0  0  0  0  0  0  0  0  0
   19.0582   34.3053   50.1133 O   0  0  0  0  0  0  0  0  0  0  0  0
   19.0348   32.0422   49.0349 O   0  0  0  0  0  0  0  0  0  0  0  0
   19.6498   33.3321   49.2173 S   0  0  0  0  0  0  0  0  0  0  0  0
   17.3858   33.8181   45.0754 C   0  0  0  0  0  0  0  0  0  0  0  0
   18.4454   33.5456   45.9160 C   0  0  0  0  0  0  0  0  0  0  0  0
   16.6277   34.9483   45.2789 C   0  0  0  0  0  0  0  0  0  0  0  0
   18.0480   35.5710   47.1199 C   0  0  0  0  0  0  0  0  0  0  0  0
   18.7615   34.3987   46.9530 C   0  0  0  0  0  0  0  0  0  0  0  0
   16.9628   35.8157   46.2986 C   0  0  0  0  0  0  0  0  0  0  0  0
   16.2191   36.9261   46.4801 F   0  0  0  0  0  0  0  0  0  0  0  0
   21.5337   37.3450   44.2917 C   0  0  0  0  0  0  0  0  0  0  0  0
   22.5864   38.2596   42.1973 C   0  0  0  0  0  0  0  0  0  0  0  0
   23.6829   38.6816   41.4759 C   0  0  0  0  0  0  0  0  0  0  0  0
   23.9911   37.5631   43.9934 C   0  0  0  0  0  0  0  0  0  0  0  0
   22.7247   37.7269   43.4604 C   0  0  0  0  0  0  0  0  0  0  0  0
   24.9360   38.5260   42.0260 C   0  0  0  0  0  0  0  0  0  0  0  0
   25.0885   37.9416   43.2686 C   0  0  0  0  0  0  0  0  0  0  0  0
   26.0861   38.8941   41.3425 O   0  0  0  0  0  0  0  0  0  0  0  0
   26.9259   38.7769   41.7413 H   0  0  0  0  0  0  0  0  0  0  0  0
   26.3933   37.8228   43.7216 O   0  0  0  0  0  0  0  0  0  0  0  0
   27.0726   35.6123   42.9356 C   0  0  0  0  0  0  0  0  0  0  0  0
   28.0511   36.6910   44.9316 C   0  0  0  0  0  0  0  0  0  0  0  0
   26.7779   36.4996   44.1310 C   0  0  0  0  0  0  0  0  0  0  0  0
 32 34  1  0  0  0
 22 26  1  0  0  0
 22 11  1  0  0  0
 34 33  1  0  0  0
 34 31  1  0  0  0
 26 25  2  0  0  0
 26 23  1  0  0  0
 25 28  1  0  0  0
 23 24  2  0  0  0
 28 31  1  0  0  0
 28 27  2  0  0  0
 11  4  1  0  0  0
 11  5  1  0  0  0
  7  5  1  0  0  0
 24 27  1  0  0  0
 27 29  1  0  0  0
  4  1  1  0  0  0
  5  2  1  0  0  0
  1  6  1  0  0  0
  2  6  1  0  0  0
  6  3  1  0  0  0
  6  9  1  0  0  0
  3 10  1  0  0  0
 16 15  2  0  0  0
 16 19  1  0  0  0
 15 17  1  0  0  0
 19  9  1  0  0  0
 19 18  2  0  0  0
  9 14  1  0  0  0
 17 20  2  0  0  0
 18 20  1  0  0  0
 20 21  1  0  0  0
 10 14  1  0  0  0
 10  8  1  0  0  0
 14 12  2  0  0  0
 14 13  2  0  0  0
 29 30  1  0  0  0
M  END
> <minimizedAffinity>
-7.74522

$$$$
4FM7_0UP_A_501


 34 37  0  0  0  0  0  0  0  0999 V2000
   24.7947   33.9009   44.2134 C   0  0  0  0  0  0  0  0  0  0  0  0
   25.8682   35.7439   45.4554 C   0  0  0  0  0  0  0  0  0  0  0  0
   27.0890   33.6747   45.0739 C   0  0  0  0  0  0  0  0  0  0  0  0
   23.6565   34.8063   43.7843 C   0  0  0  0  0  0  0  0  0  0  0  0
   24.6808   36.6198   45.1123 C   0  0  0  0  0  0  0  0  0  0  0  0
   26.0840   34.6432   44.4554 C   0  0  0  0  0  0  0  0  0  0  0  0
   24.4138   37.4866   46.3227 C   0  0  0  0  0  0  0  0  0  0  0  0
   28.9767   32.2077   44.3950 C   0  0  0  0  0  0  0  0  0  0  0  0
   26.7118   35.0607   43.1680 N   0  0  0  0  0  0  0  0  0  0  0  0
   27.7985   32.9975   43.9718 N   0  0  0  0  0  0  0  0  0  0  0  0
   23.4270   35.8385   44.8259 N   0  0  0  0  0  0  0  0  0  0  0  0
   27.5690   33.4018   41.4248 O   0  0  0  0  0  0  0  0  0  0  0  0
   29.2633   34.6981   42.7416 O   0  0  0  0  0  0  0  0  0  0  0  0
   27.9856   34.0379   42.6584 S   0  0  0  0  0  0  0  0  0  0  0  0
   27.1754   38.5267   42.0032 C   0  0  0  0  0  0  0  0  0  0  0  0
   27.3577   37.3224   42.6512 C   0  0  0  0  0  0  0  0  0  0  0  0
   26.1691   38.6547   41.0734 C   0  0  0  0  0  0  0  0  0  0  0  0
   25.4798   36.3893   41.5057 C   0  0  0  0  0  0  0  0  0  0  0  0
   26.5359   36.2465   42.3863 C   0  0  0  0  0  0  0  0  0  0  0  0
   25.3296   37.5868   40.8306 C   0  0  0  0  0  0  0  0  0  0  0  0
   24.3397   37.7288   39.9257 F   0  0  0  0  0  0  0  0  0  0  0  0
   22.2235   36.7174   44.5382 C   0  0  0  0  0  0  0  0  0  0  0  0
   19.7316   36.7453   44.8847 C   0  0  0  0  0  0  0  0  0  0  0  0
   18.5747   36.2127   45.4127 C   0  0  0  0  0  0  0  0  0  0  0  0
   21.0479   35.1381   46.0545 C   0  0  0  0  0  0  0  0  0  0  0  0
   20.9645   36.2032   45.1750 C   0  0  0  0  0  0  0  0  0  0  0  0
   18.6726   35.1429   46.2747 C   0  0  0  0  0  0  0  0  0  0  0  0
   19.9087   34.6281   46.6155 C   0  0  0  0  0  0  0  0  0  0  0  0
   17.5540   34.5796   46.8721 O   0  0  0  0  0  0  0  0  0  0  0  0
   17.6504   33.8521   47.4547 H   0  0  0  0  0  0  0  0  0  0  0  0
   19.8928   33.5604   47.4996 O   0  0  0  0  0  0  0  0  0  0  0  0
   19.3141   33.5022   49.8718 C   0  0  0  0  0  0  0  0  0  0  0  0
   21.5778   32.9886   49.0251 C   0  0  0  0  0  0  0  0  0  0  0  0
   20.3544   33.8620   48.8271 C   0  0  0  0  0  0  0  0  0  0  0  0
 32 34  1  0  0  0
 22 26  1  0  0  0
 22 11  1  0  0  0
 34 33  1  0  0  0
 34 31  1  0  0  0
 26 25  2  0  0  0
 26 23  1  0  0  0
 25 28  1  0  0  0
 23 24  2  0  0  0
 28 31  1  0  0  0
 28 27  2  0  0  0
 11  4  1  0  0  0
 11  5  1  0  0  0
  7  5  1  0  0  0
 24 27  1  0  0  0
 27 29  1  0  0  0
  4  1  1  0  0  0
  5  2  1  0  0  0
  1  6  1  0  0  0
  2  6  1  0  0  0
  6  3  1  0  0  0
  6  9  1  0  0  0
  3 10  1  0  0  0
 16 15  2  0  0  0
 16 19  1  0  0  0
 15 17  1  0  0  0
 19  9  1  0  0  0
 19 18  2  0  0  0
  9 14  1  0  0  0
 17 20  2  0  0  0
 18 20  1  0  0  0
 20 21  1  0  0  0
 10 14  1  0  0  0
 10  8  1  0  0  0
 14 12  2  0  0  0
 14 13  2  0  0  0
 29 30  1  0  0  0
M  END
> <minimizedAffinity>
-7.73834

$$$$
