4AX9_N5N_H_1246


 45 48  0  0  0  0  0  0  0  0999 V2000
   16.8684  -15.1586   22.0362 C   0  0  0  0  0  0  0  0  0  0  0  0
   18.1611  -13.0165   21.5696 N   0  0  0  0  0  0  0  0  0  0  0  0
   16.9817  -13.6095   22.0154 C   0  0  0  0  0  0  0  0  0  0  0  0
   16.0191  -12.9236   22.3871 O   0  0  0  0  0  0  0  0  0  0  0  0
   19.2698  -13.8162   21.1398 C   0  0  0  0  0  0  0  0  0  0  0  0
   20.0509  -13.4387   19.8812 C   0  0  0  0  0  0  0  0  0  0  0  0
   20.6938  -13.3143   21.2303 C   0  0  0  0  0  0  0  0  0  0  0  0
   18.3045  -11.6098   21.4046 C   0  0  0  0  0  0  0  0  0  0  0  0
   17.2215  -11.3785   20.3468 C   0  0  0  0  0  0  0  0  0  0  0  0
   16.1843  -10.5674   20.6539 O   0  0  0  0  0  0  0  0  0  0  0  0
   17.1826  -11.8281   19.2027 O   0  0  0  0  0  0  0  0  0  0  0  0
   16.1298  -10.1782   21.5045 H   0  0  0  0  0  0  0  0  0  0  0  0
   16.2977  -15.6832   23.2196 N   0  0  0  0  0  0  0  0  0  0  0  0
   15.3848  -16.0694   22.9792 H   0  0  0  0  0  0  0  0  0  0  0  0
   17.1369  -16.8376   23.9685 S   0  0  0  0  0  0  0  0  0  0  0  0
   16.4378  -17.0235   25.1671 O   0  0  0  0  0  0  0  0  0  0  0  0
   17.2388  -17.8478   23.0107 O   0  0  0  0  0  0  0  0  0  0  0  0
   18.5766  -16.0452   24.2972 C   0  0  0  0  0  0  0  0  0  0  0  0
   18.7477  -14.9945   25.1711 C   0  0  0  0  0  0  0  0  0  0  0  0
   19.7136  -16.5292   23.5939 C   0  0  0  0  0  0  0  0  0  0  0  0
   20.0433  -14.4349   25.3378 C   0  0  0  0  0  0  0  0  0  0  0  0
   20.9631  -16.0077   23.7359 C   0  0  0  0  0  0  0  0  0  0  0  0
   21.1520  -14.9448   24.6128 C   0  0  0  0  0  0  0  0  0  0  0  0
   20.2686  -13.3599   26.2227 C   0  0  0  0  0  0  0  0  0  0  0  0
   22.4452  -14.3904   24.7825 C   0  0  0  0  0  0  0  0  0  0  0  0
   21.5223  -12.8411   26.3812 C   0  0  0  0  0  0  0  0  0  0  0  0
   22.6239  -13.3559   25.6553 C   0  0  0  0  0  0  0  0  0  0  0  0
   15.9033  -15.4520   20.8531 C   0  0  0  0  0  0  0  0  0  0  0  0
   14.4149  -15.1336   21.1429 C   0  0  0  0  0  0  0  0  0  0  0  0
   13.7860  -14.0622   20.5275 N   0  0  0  0  0  0  0  0  0  0  0  0
   13.7489  -15.8648   21.9130 O   0  0  0  0  0  0  0  0  0  0  0  0
   14.3138  -13.4938   19.9211 H   0  0  0  0  0  0  0  0  0  0  0  0
   12.4000  -13.7420   20.7329 C   0  0  0  0  0  0  0  0  0  0  0  0
   12.0937  -12.3059   21.2065 C   0  0  0  0  0  0  0  0  0  0  0  0
   12.5520  -12.1904   22.6632 C   0  0  0  0  0  0  0  0  0  0  0  0
   12.8177  -11.2653   20.3546 C   0  0  0  0  0  0  0  0  0  0  0  0
   12.4226  -10.8514   23.2214 N   0  0  0  0  0  0  0  0  0  0  0  0
   12.5427   -9.8763   20.9200 C   0  0  0  0  0  0  0  0  0  0  0  0
   12.9657   -9.7795   22.3842 C   0  0  0  0  0  0  0  0  0  0  0  0
   11.2480  -10.6867   24.0627 C   0  0  0  0  0  0  0  0  0  0  0  0
   10.9740   -9.3424   24.4466 N   0  0  0  0  0  0  0  0  0  0  0  0
   10.5170  -11.6966   24.4207 N   0  0  0  0  0  0  0  0  0  0  0  0
   11.5640   -8.6143   24.1450 H   0  0  0  0  0  0  0  0  0  0  0  0
   10.1945   -9.1415   25.0136 H   0  0  0  0  0  0  0  0  0  0  0  0
   10.7543  -12.6053   24.1252 H   0  0  0  0  0  0  0  0  0  0  0  0
  2  5  1  0  0  0
  2  3  1  0  0  0
  2  8  1  0  0  0
  5  6  1  0  0  0
  5  7  1  0  0  0
  3  1  1  0  0  0
  3  4  2  0  0  0
  8  9  1  0  0  0
  6  7  1  0  0  0
  1 13  1  0  0  0
  1 28  1  0  0  0
  9 10  1  0  0  0
  9 11  2  0  0  0
 13 15  1  0  0  0
 28 29  1  0  0  0
 15 18  1  0  0  0
 15 16  2  0  0  0
 15 17  2  0  0  0
 29 30  1  0  0  0
 29 31  2  0  0  0
 18 19  1  0  0  0
 18 20  2  0  0  0
 30 33  1  0  0  0
 19 21  2  0  0  0
 20 22  1  0  0  0
 33 34  1  0  0  0
 21 23  1  0  0  0
 21 24  1  0  0  0
 22 23  2  0  0  0
 34 35  1  0  0  0
 34 36  1  0  0  0
 23 25  1  0  0  0
 24 26  2  0  0  0
 35 37  1  0  0  0
 36 38  1  0  0  0
 25 27  2  0  0  0
 26 27  1  0  0  0
 37 39  1  0  0  0
 37 40  1  0  0  0
 38 39  1  0  0  0
 40 41  1  0  0  0
 40 42  2  0  0  0
 13 14  1  0  0  0
 10 12  1  0  0  0
 30 32  1  0  0  0
 41 43  1  0  0  0
 41 44  1  0  0  0
 42 45  1  0  0  0
M  END
> <minimizedAffinity>
-10.19402

$$$$
4AX9_N5N_H_1246


 45 48  0  0  0  0  0  0  0  0999 V2000
   16.9707  -15.7815   22.2632 C   0  0  0  0  0  0  0  0  0  0  0  0
   18.8615  -17.4032   22.7854 N   0  0  0  0  0  0  0  0  0  0  0  0
   17.8699  -16.9938   21.8963 C   0  0  0  0  0  0  0  0  0  0  0  0
   17.6868  -17.5847   20.8227 O   0  0  0  0  0  0  0  0  0  0  0  0
   19.0664  -16.7158   24.0260 C   0  0  0  0  0  0  0  0  0  0  0  0
   18.4836  -17.2761   25.3234 C   0  0  0  0  0  0  0  0  0  0  0  0
   19.9673  -17.2751   25.1048 C   0  0  0  0  0  0  0  0  0  0  0  0
   19.6458  -18.5739   22.5830 C   0  0  0  0  0  0  0  0  0  0  0  0
   20.7163  -17.9906   21.6560 C   0  0  0  0  0  0  0  0  0  0  0  0
   20.6532  -18.2807   20.3370 O   0  0  0  0  0  0  0  0  0  0  0  0
   21.6447  -17.2433   21.9596 O   0  0  0  0  0  0  0  0  0  0  0  0
   19.9778  -18.8434   20.0128 H   0  0  0  0  0  0  0  0  0  0  0  0
   16.9345  -14.7664   21.2786 N   0  0  0  0  0  0  0  0  0  0  0  0
   16.0182  -14.8000   20.8318 H   0  0  0  0  0  0  0  0  0  0  0  0
   17.1732  -13.2585   21.7955 S   0  0  0  0  0  0  0  0  0  0  0  0
   17.3980  -12.5408   20.6147 O   0  0  0  0  0  0  0  0  0  0  0  0
   16.0681  -13.0086   22.6108 O   0  0  0  0  0  0  0  0  0  0  0  0
   18.6236  -13.4133   22.6209 C   0  0  0  0  0  0  0  0  0  0  0  0
   18.8081  -13.2715   23.9784 C   0  0  0  0  0  0  0  0  0  0  0  0
   19.7534  -13.7246   21.8157 C   0  0  0  0  0  0  0  0  0  0  0  0
   20.1101  -13.4394   24.5227 C   0  0  0  0  0  0  0  0  0  0  0  0
   21.0096  -13.8879   22.3146 C   0  0  0  0  0  0  0  0  0  0  0  0
   21.2128  -13.7457   23.6831 C   0  0  0  0  0  0  0  0  0  0  0  0
   20.3482  -13.3066   25.9066 C   0  0  0  0  0  0  0  0  0  0  0  0
   22.5105  -13.9183   24.2261 C   0  0  0  0  0  0  0  0  0  0  0  0
   21.6033  -13.4834   26.4160 C   0  0  0  0  0  0  0  0  0  0  0  0
   22.6985  -13.7900   25.5723 C   0  0  0  0  0  0  0  0  0  0  0  0
   15.5557  -16.4172   22.3661 C   0  0  0  0  0  0  0  0  0  0  0  0
   14.5154  -15.8351   21.3763 C   0  0  0  0  0  0  0  0  0  0  0  0
   13.7486  -14.7325   21.7205 N   0  0  0  0  0  0  0  0  0  0  0  0
   14.3789  -16.3342   20.2346 O   0  0  0  0  0  0  0  0  0  0  0  0
   13.8631  -14.3433   22.6175 H   0  0  0  0  0  0  0  0  0  0  0  0
   12.7945  -14.1310   20.8297 C   0  0  0  0  0  0  0  0  0  0  0  0
   12.3832  -12.6786   21.1490 C   0  0  0  0  0  0  0  0  0  0  0  0
   12.7095  -12.4176   22.6224 C   0  0  0  0  0  0  0  0  0  0  0  0
   13.1289  -11.6759   20.2708 C   0  0  0  0  0  0  0  0  0  0  0  0
   12.4715  -11.0453   23.0486 N   0  0  0  0  0  0  0  0  0  0  0  0
   12.7431  -10.2611   20.6879 C   0  0  0  0  0  0  0  0  0  0  0  0
   13.0344  -10.0199   22.1675 C   0  0  0  0  0  0  0  0  0  0  0  0
   11.2229  -10.8735   23.7740 C   0  0  0  0  0  0  0  0  0  0  0  0
   10.9032   -9.5236   24.0981 N   0  0  0  0  0  0  0  0  0  0  0  0
   10.4707  -11.8825   24.0878 N   0  0  0  0  0  0  0  0  0  0  0  0
   11.5123   -8.7965   23.8343 H   0  0  0  0  0  0  0  0  0  0  0  0
   10.0732   -9.3178   24.5858 H   0  0  0  0  0  0  0  0  0  0  0  0
   10.7420  -12.7953   23.8377 H   0  0  0  0  0  0  0  0  0  0  0  0
  2  5  1  0  0  0
  2  3  1  0  0  0
  2  8  1  0  0  0
  5  6  1  0  0  0
  5  7  1  0  0  0
  3  1  1  0  0  0
  3  4  2  0  0  0
  8  9  1  0  0  0
  6  7  1  0  0  0
  1 13  1  0  0  0
  1 28  1  0  0  0
  9 10  1  0  0  0
  9 11  2  0  0  0
 13 15  1  0  0  0
 28 29  1  0  0  0
 15 18  1  0  0  0
 15 16  2  0  0  0
 15 17  2  0  0  0
 29 30  1  0  0  0
 29 31  2  0  0  0
 18 19  1  0  0  0
 18 20  2  0  0  0
 30 33  1  0  0  0
 19 21  2  0  0  0
 20 22  1  0  0  0
 33 34  1  0  0  0
 21 23  1  0  0  0
 21 24  1  0  0  0
 22 23  2  0  0  0
 34 35  1  0  0  0
 34 36  1  0  0  0
 23 25  1  0  0  0
 24 26  2  0  0  0
 35 37  1  0  0  0
 36 38  1  0  0  0
 25 27  2  0  0  0
 26 27  1  0  0  0
 37 39  1  0  0  0
 37 40  1  0  0  0
 38 39  1  0  0  0
 40 41  1  0  0  0
 40 42  2  0  0  0
 13 14  1  0  0  0
 10 12  1  0  0  0
 30 32  1  0  0  0
 41 43  1  0  0  0
 41 44  1  0  0  0
 42 45  1  0  0  0
M  END
> <minimizedAffinity>
-9.19806

$$$$
4AX9_N5N_H_1246


 45 48  0  0  0  0  0  0  0  0999 V2000
   16.8666  -15.4649   22.3528 C   0  0  0  0  0  0  0  0  0  0  0  0
   18.8473  -16.1782   23.7831 N   0  0  0  0  0  0  0  0  0  0  0  0
   18.0312  -16.4380   22.6840 C   0  0  0  0  0  0  0  0  0  0  0  0
   18.2124  -17.4355   21.9716 O   0  0  0  0  0  0  0  0  0  0  0  0
   18.6308  -15.0232   24.6033 C   0  0  0  0  0  0  0  0  0  0  0  0
   17.6181  -15.0690   25.7475 C   0  0  0  0  0  0  0  0  0  0  0  0
   19.0850  -14.9765   26.0454 C   0  0  0  0  0  0  0  0  0  0  0  0
   19.8565  -17.0789   24.2266 C   0  0  0  0  0  0  0  0  0  0  0  0
   21.0770  -16.4070   23.5906 C   0  0  0  0  0  0  0  0  0  0  0  0
   22.0711  -15.9785   24.4006 O   0  0  0  0  0  0  0  0  0  0  0  0
   21.2930  -16.2232   22.3939 O   0  0  0  0  0  0  0  0  0  0  0  0
   21.9942  -16.0771   25.3292 H   0  0  0  0  0  0  0  0  0  0  0  0
   16.9476  -14.8784   21.0681 N   0  0  0  0  0  0  0  0  0  0  0  0
   16.0858  -15.1015   20.5701 H   0  0  0  0  0  0  0  0  0  0  0  0
   17.1407  -13.2789   21.0219 S   0  0  0  0  0  0  0  0  0  0  0  0
   16.1506  -12.8056   21.8913 O   0  0  0  0  0  0  0  0  0  0  0  0
   18.4997  -13.1012   21.2862 O   0  0  0  0  0  0  0  0  0  0  0  0
   16.6893  -12.9325   19.4455 C   0  0  0  0  0  0  0  0  0  0  0  0
   17.1129  -11.8593   18.6934 C   0  0  0  0  0  0  0  0  0  0  0  0
   15.7842  -13.8556   18.8535 C   0  0  0  0  0  0  0  0  0  0  0  0
   16.6344  -11.7125   17.3633 C   0  0  0  0  0  0  0  0  0  0  0  0
   15.3112  -13.7340   17.5826 C   0  0  0  0  0  0  0  0  0  0  0  0
   15.7276  -12.6545   16.8110 C   0  0  0  0  0  0  0  0  0  0  0  0
   17.0414  -10.6316   16.5536 C   0  0  0  0  0  0  0  0  0  0  0  0
   15.2541  -12.5113   15.4829 C   0  0  0  0  0  0  0  0  0  0  0  0
   16.5822  -10.5113   15.2727 C   0  0  0  0  0  0  0  0  0  0  0  0
   15.6784  -11.4557   14.7281 C   0  0  0  0  0  0  0  0  0  0  0  0
   15.6185  -16.3910   22.3925 C   0  0  0  0  0  0  0  0  0  0  0  0
   14.4292  -15.9055   21.5262 C   0  0  0  0  0  0  0  0  0  0  0  0
   13.7844  -14.7119   21.8120 N   0  0  0  0  0  0  0  0  0  0  0  0
   14.0570  -16.5709   20.5312 O   0  0  0  0  0  0  0  0  0  0  0  0
   14.0838  -14.1924   22.5929 H   0  0  0  0  0  0  0  0  0  0  0  0
   12.6995  -14.1972   21.0223 C   0  0  0  0  0  0  0  0  0  0  0  0
   12.3113  -12.7249   21.2720 C   0  0  0  0  0  0  0  0  0  0  0  0
   12.7109  -12.3775   22.7091 C   0  0  0  0  0  0  0  0  0  0  0  0
   13.0178  -11.7832   20.2990 C   0  0  0  0  0  0  0  0  0  0  0  0
   12.5007  -10.9801   23.0619 N   0  0  0  0  0  0  0  0  0  0  0  0
   12.6597  -10.3427   20.6473 C   0  0  0  0  0  0  0  0  0  0  0  0
   13.0245  -10.0144   22.0935 C   0  0  0  0  0  0  0  0  0  0  0  0
   11.2901  -10.7548   23.8354 C   0  0  0  0  0  0  0  0  0  0  0  0
   11.0930   -9.4075   24.2544 N   0  0  0  0  0  0  0  0  0  0  0  0
   10.4645  -11.7174   24.1079 N   0  0  0  0  0  0  0  0  0  0  0  0
   11.7538   -8.7170   24.0184 H   0  0  0  0  0  0  0  0  0  0  0  0
   10.2960   -9.1671   24.7800 H   0  0  0  0  0  0  0  0  0  0  0  0
   10.6519  -12.6308   23.7920 H   0  0  0  0  0  0  0  0  0  0  0  0
  2  5  1  0  0  0
  2  3  1  0  0  0
  2  8  1  0  0  0
  5  6  1  0  0  0
  5  7  1  0  0  0
  3  1  1  0  0  0
  3  4  2  0  0  0
  8  9  1  0  0  0
  6  7  1  0  0  0
  1 13  1  0  0  0
  1 28  1  0  0  0
  9 10  1  0  0  0
  9 11  2  0  0  0
 13 15  1  0  0  0
 28 29  1  0  0  0
 15 18  1  0  0  0
 15 16  2  0  0  0
 15 17  2  0  0  0
 29 30  1  0  0  0
 29 31  2  0  0  0
 18 19  1  0  0  0
 18 20  2  0  0  0
 30 33  1  0  0  0
 19 21  2  0  0  0
 20 22  1  0  0  0
 33 34  1  0  0  0
 21 23  1  0  0  0
 21 24  1  0  0  0
 22 23  2  0  0  0
 34 35  1  0  0  0
 34 36  1  0  0  0
 23 25  1  0  0  0
 24 26  2  0  0  0
 35 37  1  0  0  0
 36 38  1  0  0  0
 25 27  2  0  0  0
 26 27  1  0  0  0
 37 39  1  0  0  0
 37 40  1  0  0  0
 38 39  1  0  0  0
 40 41  1  0  0  0
 40 42  2  0  0  0
 13 14  1  0  0  0
 10 12  1  0  0  0
 30 32  1  0  0  0
 41 43  1  0  0  0
 41 44  1  0  0  0
 42 45  1  0  0  0
M  END
> <minimizedAffinity>
-8.79706

$$$$
4AX9_N5N_H_1246


 45 48  0  0  0  0  0  0  0  0999 V2000
   16.0964  -15.6240   20.9883 C   0  0  0  0  0  0  0  0  0  0  0  0
   15.9368  -17.8128   22.2770 N   0  0  0  0  0  0  0  0  0  0  0  0
   16.0660  -17.1760   21.0444 C   0  0  0  0  0  0  0  0  0  0  0  0
   16.1481  -17.8250   19.9922 O   0  0  0  0  0  0  0  0  0  0  0  0
   15.8409  -17.0555   23.4898 C   0  0  0  0  0  0  0  0  0  0  0  0
   16.1930  -17.6993   24.8308 C   0  0  0  0  0  0  0  0  0  0  0  0
   17.0712  -16.6269   24.2583 C   0  0  0  0  0  0  0  0  0  0  0  0
   15.7792  -19.2218   22.4063 C   0  0  0  0  0  0  0  0  0  0  0  0
   14.2580  -19.3101   22.2540 C   0  0  0  0  0  0  0  0  0  0  0  0
   13.7422  -19.4498   21.0120 O   0  0  0  0  0  0  0  0  0  0  0  0
   13.4130  -19.2976   23.1475 O   0  0  0  0  0  0  0  0  0  0  0  0
   14.3114  -19.4700   20.2679 H   0  0  0  0  0  0  0  0  0  0  0  0
   17.3912  -15.0644   21.0959 N   0  0  0  0  0  0  0  0  0  0  0  0
   17.8189  -15.0910   20.1703 H   0  0  0  0  0  0  0  0  0  0  0  0
   17.4730  -13.5460   21.6305 S   0  0  0  0  0  0  0  0  0  0  0  0
   17.7464  -12.8071   20.4733 O   0  0  0  0  0  0  0  0  0  0  0  0
   16.2858  -13.3821   22.3461 O   0  0  0  0  0  0  0  0  0  0  0  0
   18.8534  -13.5990   22.5794 C   0  0  0  0  0  0  0  0  0  0  0  0
   18.9117  -13.4239   23.9442 C   0  0  0  0  0  0  0  0  0  0  0  0
   20.0647  -13.8549   21.8800 C   0  0  0  0  0  0  0  0  0  0  0  0
   20.1696  -13.5037   24.6007 C   0  0  0  0  0  0  0  0  0  0  0  0
   21.2807  -13.9336   22.4873 C   0  0  0  0  0  0  0  0  0  0  0  0
   21.3566  -13.7567   23.8647 C   0  0  0  0  0  0  0  0  0  0  0  0
   20.2794  -13.3337   25.9966 C   0  0  0  0  0  0  0  0  0  0  0  0
   22.6106  -13.8415   24.5196 C   0  0  0  0  0  0  0  0  0  0  0  0
   21.4942  -13.4259   26.6146 C   0  0  0  0  0  0  0  0  0  0  0  0
   22.6741  -13.6796   25.8738 C   0  0  0  0  0  0  0  0  0  0  0  0
   15.5449  -15.3171   19.5675 C   0  0  0  0  0  0  0  0  0  0  0  0
   14.0755  -14.8265   19.5398 C   0  0  0  0  0  0  0  0  0  0  0  0
   13.5432  -14.1209   20.6080 N   0  0  0  0  0  0  0  0  0  0  0  0
   13.3579  -15.0316   18.5327 O   0  0  0  0  0  0  0  0  0  0  0  0
   14.1130  -13.9603   21.3946 H   0  0  0  0  0  0  0  0  0  0  0  0
   12.1987  -13.6130   20.6213 C   0  0  0  0  0  0  0  0  0  0  0  0
   12.0170  -12.1753   21.1511 C   0  0  0  0  0  0  0  0  0  0  0  0
   12.4502  -12.1644   22.6201 C   0  0  0  0  0  0  0  0  0  0  0  0
   12.8547  -11.1731   20.3595 C   0  0  0  0  0  0  0  0  0  0  0  0
   12.4335  -10.8435   23.2336 N   0  0  0  0  0  0  0  0  0  0  0  0
   12.6976   -9.7891   20.9796 C   0  0  0  0  0  0  0  0  0  0  0  0
   13.0936   -9.7937   22.4545 C   0  0  0  0  0  0  0  0  0  0  0  0
   11.2601  -10.6039   24.0585 C   0  0  0  0  0  0  0  0  0  0  0  0
   10.7698  -11.7520   24.7447 N   0  0  0  0  0  0  0  0  0  0  0  0
   10.7200   -9.4284   24.1530 N   0  0  0  0  0  0  0  0  0  0  0  0
   11.2204  -12.6205   24.6355 H   0  0  0  0  0  0  0  0  0  0  0  0
    9.9803  -11.6770   25.3280 H   0  0  0  0  0  0  0  0  0  0  0  0
   11.1019   -8.6697   23.6553 H   0  0  0  0  0  0  0  0  0  0  0  0
  2  5  1  0  0  0
  2  3  1  0  0  0
  2  8  1  0  0  0
  5  6  1  0  0  0
  5  7  1  0  0  0
  3  1  1  0  0  0
  3  4  2  0  0  0
  8  9  1  0  0  0
  6  7  1  0  0  0
  1 13  1  0  0  0
  1 28  1  0  0  0
  9 10  1  0  0  0
  9 11  2  0  0  0
 13 15  1  0  0  0
 28 29  1  0  0  0
 15 18  1  0  0  0
 15 16  2  0  0  0
 15 17  2  0  0  0
 29 30  1  0  0  0
 29 31  2  0  0  0
 18 19  1  0  0  0
 18 20  2  0  0  0
 30 33  1  0  0  0
 19 21  2  0  0  0
 20 22  1  0  0  0
 33 34  1  0  0  0
 21 23  1  0  0  0
 21 24  1  0  0  0
 22 23  2  0  0  0
 34 35  1  0  0  0
 34 36  1  0  0  0
 23 25  1  0  0  0
 24 26  2  0  0  0
 35 37  1  0  0  0
 36 38  1  0  0  0
 25 27  2  0  0  0
 26 27  1  0  0  0
 37 39  1  0  0  0
 37 40  1  0  0  0
 38 39  1  0  0  0
 40 41  1  0  0  0
 40 42  2  0  0  0
 13 14  1  0  0  0
 10 12  1  0  0  0
 30 32  1  0  0  0
 41 43  1  0  0  0
 41 44  1  0  0  0
 42 45  1  0  0  0
M  END
> <minimizedAffinity>
-8.56096

$$$$
4AX9_N5N_H_1246


 45 48  0  0  0  0  0  0  0  0999 V2000
   15.7939  -16.1114   21.5653 C   0  0  0  0  0  0  0  0  0  0  0  0
   13.8920  -15.1403   20.1807 N   0  0  0  0  0  0  0  0  0  0  0  0
   14.2951  -15.7572   21.3633 C   0  0  0  0  0  0  0  0  0  0  0  0
   13.4784  -16.0360   22.2524 O   0  0  0  0  0  0  0  0  0  0  0  0
   14.8421  -14.8221   19.1562 C   0  0  0  0  0  0  0  0  0  0  0  0
   15.0341  -15.7600   17.9644 C   0  0  0  0  0  0  0  0  0  0  0  0
   14.4053  -14.4128   17.7670 C   0  0  0  0  0  0  0  0  0  0  0  0
   12.5262  -14.8924   19.8648 C   0  0  0  0  0  0  0  0  0  0  0  0
   12.3665  -13.5258   20.5373 C   0  0  0  0  0  0  0  0  0  0  0  0
   12.0329  -13.4877   21.8469 O   0  0  0  0  0  0  0  0  0  0  0  0
   12.5344  -12.4172   20.0318 O   0  0  0  0  0  0  0  0  0  0  0  0
   11.8851  -14.2851   22.3162 H   0  0  0  0  0  0  0  0  0  0  0  0
   16.5012  -15.1986   22.3825 N   0  0  0  0  0  0  0  0  0  0  0  0
   16.9006  -15.7236   23.1605 H   0  0  0  0  0  0  0  0  0  0  0  0
   17.6981  -14.3830   21.6753 S   0  0  0  0  0  0  0  0  0  0  0  0
   18.2368  -15.3098   20.7749 O   0  0  0  0  0  0  0  0  0  0  0  0
   17.0865  -13.2052   21.2428 O   0  0  0  0  0  0  0  0  0  0  0  0
   18.7660  -14.1822   22.9513 C   0  0  0  0  0  0  0  0  0  0  0  0
   20.1286  -14.0070   22.8540 C   0  0  0  0  0  0  0  0  0  0  0  0
   18.1785  -14.1947   24.2460 C   0  0  0  0  0  0  0  0  0  0  0  0
   20.8938  -13.8467   24.0408 C   0  0  0  0  0  0  0  0  0  0  0  0
   18.8915  -14.0452   25.3961 C   0  0  0  0  0  0  0  0  0  0  0  0
   20.2687  -13.8697   25.3149 C   0  0  0  0  0  0  0  0  0  0  0  0
   22.2913  -13.6620   23.9919 C   0  0  0  0  0  0  0  0  0  0  0  0
   21.0307  -13.7048   26.4985 C   0  0  0  0  0  0  0  0  0  0  0  0
   23.0112  -13.4968   25.1411 C   0  0  0  0  0  0  0  0  0  0  0  0
   22.3805  -13.5198   26.4087 C   0  0  0  0  0  0  0  0  0  0  0  0
   15.7313  -17.4809   22.2984 C   0  0  0  0  0  0  0  0  0  0  0  0
   16.5542  -17.5470   23.6096 C   0  0  0  0  0  0  0  0  0  0  0  0
   17.9199  -17.7835   23.5785 N   0  0  0  0  0  0  0  0  0  0  0  0
   15.9992  -17.3516   24.7164 O   0  0  0  0  0  0  0  0  0  0  0  0
   18.3503  -17.9329   22.7058 H   0  0  0  0  0  0  0  0  0  0  0  0
   18.7371  -17.8210   24.7603 C   0  0  0  0  0  0  0  0  0  0  0  0
   20.2469  -18.0498   24.5397 C   0  0  0  0  0  0  0  0  0  0  0  0
   20.6131  -17.4488   23.1795 C   0  0  0  0  0  0  0  0  0  0  0  0
   21.0825  -17.3914   25.6356 C   0  0  0  0  0  0  0  0  0  0  0  0
   22.0365  -17.4953   22.8743 N   0  0  0  0  0  0  0  0  0  0  0  0
   22.5619  -17.5811   25.3193 C   0  0  0  0  0  0  0  0  0  0  0  0
   22.9125  -17.0149   23.9450 C   0  0  0  0  0  0  0  0  0  0  0  0
   22.3997  -18.5783   21.9743 C   0  0  0  0  0  0  0  0  0  0  0  0
   23.5765  -18.3450   21.2060 N   0  0  0  0  0  0  0  0  0  0  0  0
   21.6971  -19.6656   21.8954 N   0  0  0  0  0  0  0  0  0  0  0  0
   24.0709  -17.4996   21.3071 H   0  0  0  0  0  0  0  0  0  0  0  0
   23.8954  -19.0291   20.5740 H   0  0  0  0  0  0  0  0  0  0  0  0
   20.8915  -19.7726   22.4512 H   0  0  0  0  0  0  0  0  0  0  0  0
  2  5  1  0  0  0
  2  3  1  0  0  0
  2  8  1  0  0  0
  5  6  1  0  0  0
  5  7  1  0  0  0
  3  1  1  0  0  0
  3  4  2  0  0  0
  8  9  1  0  0  0
  6  7  1  0  0  0
  1 13  1  0  0  0
  1 28  1  0  0  0
  9 10  1  0  0  0
  9 11  2  0  0  0
 13 15  1  0  0  0
 28 29  1  0  0  0
 15 18  1  0  0  0
 15 16  2  0  0  0
 15 17  2  0  0  0
 29 30  1  0  0  0
 29 31  2  0  0  0
 18 19  1  0  0  0
 18 20  2  0  0  0
 30 33  1  0  0  0
 19 21  2  0  0  0
 20 22  1  0  0  0
 33 34  1  0  0  0
 21 23  1  0  0  0
 21 24  1  0  0  0
 22 23  2  0  0  0
 34 35  1  0  0  0
 34 36  1  0  0  0
 23 25  1  0  0  0
 24 26  2  0  0  0
 35 37  1  0  0  0
 36 38  1  0  0  0
 25 27  2  0  0  0
 26 27  1  0  0  0
 37 39  1  0  0  0
 37 40  1  0  0  0
 38 39  1  0  0  0
 40 41  1  0  0  0
 40 42  2  0  0  0
 13 14  1  0  0  0
 10 12  1  0  0  0
 30 32  1  0  0  0
 41 43  1  0  0  0
 41 44  1  0  0  0
 42 45  1  0  0  0
M  END
> <minimizedAffinity>
-8.13021

$$$$
4AX9_N5N_H_1246


 45 48  0  0  0  0  0  0  0  0999 V2000
   19.4941  -14.8666   23.3016 C   0  0  0  0  0  0  0  0  0  0  0  0
   21.5273  -14.3762   24.7517 N   0  0  0  0  0  0  0  0  0  0  0  0
   20.9654  -15.1306   23.7238 C   0  0  0  0  0  0  0  0  0  0  0  0
   21.6152  -16.0138   23.1469 O   0  0  0  0  0  0  0  0  0  0  0  0
   20.7690  -13.3574   25.4155 C   0  0  0  0  0  0  0  0  0  0  0  0
   20.0041  -13.6786   26.6994 C   0  0  0  0  0  0  0  0  0  0  0  0
   21.2049  -12.7813   26.7445 C   0  0  0  0  0  0  0  0  0  0  0  0
   22.8236  -14.6344   25.2804 C   0  0  0  0  0  0  0  0  0  0  0  0
   23.6178  -13.5854   24.4968 C   0  0  0  0  0  0  0  0  0  0  0  0
   23.4137  -13.4864   23.1639 O   0  0  0  0  0  0  0  0  0  0  0  0
   24.4271  -12.7723   24.9401 O   0  0  0  0  0  0  0  0  0  0  0  0
   22.8131  -14.0657   22.7377 H   0  0  0  0  0  0  0  0  0  0  0  0
   19.2590  -14.9836   21.9115 N   0  0  0  0  0  0  0  0  0  0  0  0
   18.2778  -15.2303   21.7823 H   0  0  0  0  0  0  0  0  0  0  0  0
   19.5565  -13.6727   21.0221 S   0  0  0  0  0  0  0  0  0  0  0  0
   20.0863  -12.7647   21.9466 O   0  0  0  0  0  0  0  0  0  0  0  0
   20.3104  -14.1611   19.9537 O   0  0  0  0  0  0  0  0  0  0  0  0
   18.0056  -13.1872   20.6123 C   0  0  0  0  0  0  0  0  0  0  0  0
   16.9164  -13.1420   21.4540 C   0  0  0  0  0  0  0  0  0  0  0  0
   17.8296  -12.7858   19.2597 C   0  0  0  0  0  0  0  0  0  0  0  0
   15.6650  -12.7000   20.9459 C   0  0  0  0  0  0  0  0  0  0  0  0
   16.6405  -12.3611   18.7506 C   0  0  0  0  0  0  0  0  0  0  0  0
   15.5306  -12.3120   19.5872 C   0  0  0  0  0  0  0  0  0  0  0  0
   14.5220  -12.6342   21.7697 C   0  0  0  0  0  0  0  0  0  0  0  0
   14.2840  -11.8662   19.0813 C   0  0  0  0  0  0  0  0  0  0  0  0
   13.3290  -12.1952   21.2694 C   0  0  0  0  0  0  0  0  0  0  0  0
   13.2028  -11.8086   19.9130 C   0  0  0  0  0  0  0  0  0  0  0  0
   18.7156  -15.9991   24.0287 C   0  0  0  0  0  0  0  0  0  0  0  0
   18.1957  -17.1229   23.0973 C   0  0  0  0  0  0  0  0  0  0  0  0
   16.8890  -17.1120   22.6339 N   0  0  0  0  0  0  0  0  0  0  0  0
   18.9631  -18.0400   22.7216 O   0  0  0  0  0  0  0  0  0  0  0  0
   16.2924  -16.3870   22.9301 H   0  0  0  0  0  0  0  0  0  0  0  0
   16.3644  -18.1090   21.7415 C   0  0  0  0  0  0  0  0  0  0  0  0
   15.5124  -17.5914   20.5640 C   0  0  0  0  0  0  0  0  0  0  0  0
   14.1071  -17.3029   21.1001 C   0  0  0  0  0  0  0  0  0  0  0  0
   16.1031  -16.3203   19.9572 C   0  0  0  0  0  0  0  0  0  0  0  0
   13.2098  -16.7049   20.1210 N   0  0  0  0  0  0  0  0  0  0  0  0
   15.1770  -15.8134   18.8572 C   0  0  0  0  0  0  0  0  0  0  0  0
   13.7673  -15.5652   19.3894 C   0  0  0  0  0  0  0  0  0  0  0  0
   12.2851  -17.6569   19.5267 C   0  0  0  0  0  0  0  0  0  0  0  0
   12.0387  -17.4603   18.1374 N   0  0  0  0  0  0  0  0  0  0  0  0
   11.7415  -18.6068   20.2228 N   0  0  0  0  0  0  0  0  0  0  0  0
   12.4797  -16.7214   17.6590 H   0  0  0  0  0  0  0  0  0  0  0  0
   11.4274  -18.0632   17.6558 H   0  0  0  0  0  0  0  0  0  0  0  0
   11.9486  -18.6951   21.1812 H   0  0  0  0  0  0  0  0  0  0  0  0
  2  5  1  0  0  0
  2  3  1  0  0  0
  2  8  1  0  0  0
  5  6  1  0  0  0
  5  7  1  0  0  0
  3  1  1  0  0  0
  3  4  2  0  0  0
  8  9  1  0  0  0
  6  7  1  0  0  0
  1 13  1  0  0  0
  1 28  1  0  0  0
  9 10  1  0  0  0
  9 11  2  0  0  0
 13 15  1  0  0  0
 28 29  1  0  0  0
 15 18  1  0  0  0
 15 16  2  0  0  0
 15 17  2  0  0  0
 29 30  1  0  0  0
 29 31  2  0  0  0
 18 19  1  0  0  0
 18 20  2  0  0  0
 30 33  1  0  0  0
 19 21  2  0  0  0
 20 22  1  0  0  0
 33 34  1  0  0  0
 21 23  1  0  0  0
 21 24  1  0  0  0
 22 23  2  0  0  0
 34 35  1  0  0  0
 34 36  1  0  0  0
 23 25  1  0  0  0
 24 26  2  0  0  0
 35 37  1  0  0  0
 36 38  1  0  0  0
 25 27  2  0  0  0
 26 27  1  0  0  0
 37 39  1  0  0  0
 37 40  1  0  0  0
 38 39  1  0  0  0
 40 41  1  0  0  0
 40 42  2  0  0  0
 13 14  1  0  0  0
 10 12  1  0  0  0
 30 32  1  0  0  0
 41 43  1  0  0  0
 41 44  1  0  0  0
 42 45  1  0  0  0
M  END
> <minimizedAffinity>
-8.00178

$$$$
4AX9_N5N_H_1246


 45 48  0  0  0  0  0  0  0  0999 V2000
   16.3969  -15.1813   21.0015 C   0  0  0  0  0  0  0  0  0  0  0  0
   16.9294  -17.3121   22.2874 N   0  0  0  0  0  0  0  0  0  0  0  0
   17.3295  -16.3782   21.3338 C   0  0  0  0  0  0  0  0  0  0  0  0
   18.4113  -16.4902   20.7402 O   0  0  0  0  0  0  0  0  0  0  0  0
   15.6761  -17.1768   22.9688 C   0  0  0  0  0  0  0  0  0  0  0  0
   14.4427  -17.9308   22.4715 C   0  0  0  0  0  0  0  0  0  0  0  0
   15.0825  -18.3120   23.7732 C   0  0  0  0  0  0  0  0  0  0  0  0
   17.6654  -18.4991   22.5631 C   0  0  0  0  0  0  0  0  0  0  0  0
   17.5671  -19.1693   21.1896 C   0  0  0  0  0  0  0  0  0  0  0  0
   18.7002  -19.3327   20.4703 O   0  0  0  0  0  0  0  0  0  0  0  0
   16.5604  -19.6199   20.6455 O   0  0  0  0  0  0  0  0  0  0  0  0
   19.5173  -19.0203   20.8059 H   0  0  0  0  0  0  0  0  0  0  0  0
   17.0797  -13.9815   20.6927 N   0  0  0  0  0  0  0  0  0  0  0  0
   16.6623  -13.5960   19.8456 H   0  0  0  0  0  0  0  0  0  0  0  0
   17.0515  -12.8307   21.8209 S   0  0  0  0  0  0  0  0  0  0  0  0
   17.5174  -11.6979   21.1430 O   0  0  0  0  0  0  0  0  0  0  0  0
   15.7554  -12.9012   22.3341 O   0  0  0  0  0  0  0  0  0  0  0  0
   18.2438  -13.3629   22.8717 C   0  0  0  0  0  0  0  0  0  0  0  0
   19.6001  -13.3637   22.6326 C   0  0  0  0  0  0  0  0  0  0  0  0
   17.7795  -13.8514   24.1237 C   0  0  0  0  0  0  0  0  0  0  0  0
   20.4812  -13.8489   23.6365 C   0  0  0  0  0  0  0  0  0  0  0  0
   18.6044  -14.3227   25.0990 C   0  0  0  0  0  0  0  0  0  0  0  0
   19.9764  -14.3323   24.8719 C   0  0  0  0  0  0  0  0  0  0  0  0
   21.8776  -13.8673   23.4389 C   0  0  0  0  0  0  0  0  0  0  0  0
   20.8550  -14.8116   25.8754 C   0  0  0  0  0  0  0  0  0  0  0  0
   22.7122  -14.3253   24.4186 C   0  0  0  0  0  0  0  0  0  0  0  0
   22.2014  -14.8050   25.6492 C   0  0  0  0  0  0  0  0  0  0  0  0
   15.6521  -15.6653   19.7255 C   0  0  0  0  0  0  0  0  0  0  0  0
   14.2018  -15.1375   19.5879 C   0  0  0  0  0  0  0  0  0  0  0  0
   13.6046  -14.4281   20.6185 N   0  0  0  0  0  0  0  0  0  0  0  0
   13.5610  -15.3157   18.5254 O   0  0  0  0  0  0  0  0  0  0  0  0
   14.1145  -14.2888   21.4490 H   0  0  0  0  0  0  0  0  0  0  0  0
   12.2761  -13.8864   20.5316 C   0  0  0  0  0  0  0  0  0  0  0  0
   12.0939  -12.4401   21.0369 C   0  0  0  0  0  0  0  0  0  0  0  0
   12.4880  -12.4128   22.5166 C   0  0  0  0  0  0  0  0  0  0  0  0
   12.9617  -11.4564   20.2545 C   0  0  0  0  0  0  0  0  0  0  0  0
   12.4674  -11.0835   23.1116 N   0  0  0  0  0  0  0  0  0  0  0  0
   12.8012  -10.0627   20.8514 C   0  0  0  0  0  0  0  0  0  0  0  0
   13.1578  -10.0505   22.3363 C   0  0  0  0  0  0  0  0  0  0  0  0
   11.2749  -10.8220   23.9016 C   0  0  0  0  0  0  0  0  0  0  0  0
   11.1142   -9.4656   24.3066 N   0  0  0  0  0  0  0  0  0  0  0  0
   10.4330  -11.7626   24.1995 N   0  0  0  0  0  0  0  0  0  0  0  0
   11.7860   -8.7928   24.0513 H   0  0  0  0  0  0  0  0  0  0  0  0
   10.3314   -9.2012   24.8419 H   0  0  0  0  0  0  0  0  0  0  0  0
   10.5951  -12.6838   23.8923 H   0  0  0  0  0  0  0  0  0  0  0  0
  2  5  1  0  0  0
  2  3  1  0  0  0
  2  8  1  0  0  0
  5  6  1  0  0  0
  5  7  1  0  0  0
  3  1  1  0  0  0
  3  4  2  0  0  0
  8  9  1  0  0  0
  6  7  1  0  0  0
  1 13  1  0  0  0
  1 28  1  0  0  0
  9 10  1  0  0  0
  9 11  2  0  0  0
 13 15  1  0  0  0
 28 29  1  0  0  0
 15 18  1  0  0  0
 15 16  2  0  0  0
 15 17  2  0  0  0
 29 30  1  0  0  0
 29 31  2  0  0  0
 18 19  1  0  0  0
 18 20  2  0  0  0
 30 33  1  0  0  0
 19 21  2  0  0  0
 20 22  1  0  0  0
 33 34  1  0  0  0
 21 23  1  0  0  0
 21 24  1  0  0  0
 22 23  2  0  0  0
 34 35  1  0  0  0
 34 36  1  0  0  0
 23 25  1  0  0  0
 24 26  2  0  0  0
 35 37  1  0  0  0
 36 38  1  0  0  0
 25 27  2  0  0  0
 26 27  1  0  0  0
 37 39  1  0  0  0
 37 40  1  0  0  0
 38 39  1  0  0  0
 40 41  1  0  0  0
 40 42  2  0  0  0
 13 14  1  0  0  0
 10 12  1  0  0  0
 30 32  1  0  0  0
 41 43  1  0  0  0
 41 44  1  0  0  0
 42 45  1  0  0  0
M  END
> <minimizedAffinity>
-7.96117

$$$$
4AX9_N5N_H_1246


 45 48  0  0  0  0  0  0  0  0999 V2000
   16.1990  -16.4611   21.9344 C   0  0  0  0  0  0  0  0  0  0  0  0
   13.8423  -16.6176   20.9863 N   0  0  0  0  0  0  0  0  0  0  0  0
   14.7139  -16.9052   22.0347 C   0  0  0  0  0  0  0  0  0  0  0  0
   14.3277  -17.5161   23.0411 O   0  0  0  0  0  0  0  0  0  0  0  0
   14.2965  -15.9118   19.8247 C   0  0  0  0  0  0  0  0  0  0  0  0
   14.6268  -16.6724   18.5405 C   0  0  0  0  0  0  0  0  0  0  0  0
   13.4307  -15.7693   18.5927 C   0  0  0  0  0  0  0  0  0  0  0  0
   12.5010  -17.0925   20.9438 C   0  0  0  0  0  0  0  0  0  0  0  0
   12.7774  -18.5988   20.9465 C   0  0  0  0  0  0  0  0  0  0  0  0
   12.2124  -19.3554   21.9142 O   0  0  0  0  0  0  0  0  0  0  0  0
   13.4483  -19.2394   20.1391 O   0  0  0  0  0  0  0  0  0  0  0  0
   11.6829  -18.9530   22.5742 H   0  0  0  0  0  0  0  0  0  0  0  0
   16.5673  -15.4537   22.8568 N   0  0  0  0  0  0  0  0  0  0  0  0
   17.3146  -15.8270   23.4421 H   0  0  0  0  0  0  0  0  0  0  0  0
   17.0847  -14.0623   22.2288 S   0  0  0  0  0  0  0  0  0  0  0  0
   17.2531  -14.3598   20.8713 O   0  0  0  0  0  0  0  0  0  0  0  0
   16.1429  -13.1301   22.6676 O   0  0  0  0  0  0  0  0  0  0  0  0
   18.5935  -13.9132   22.9430 C   0  0  0  0  0  0  0  0  0  0  0  0
   18.8475  -13.7670   24.2887 C   0  0  0  0  0  0  0  0  0  0  0  0
   19.6979  -13.9484   22.0482 C   0  0  0  0  0  0  0  0  0  0  0  0
   20.1931  -13.6567   24.7326 C   0  0  0  0  0  0  0  0  0  0  0  0
   20.9944  -13.8426   22.4503 C   0  0  0  0  0  0  0  0  0  0  0  0
   21.2674  -13.6920   23.8056 C   0  0  0  0  0  0  0  0  0  0  0  0
   20.5032  -13.5079   26.1005 C   0  0  0  0  0  0  0  0  0  0  0  0
   22.6097  -13.5872   24.2483 C   0  0  0  0  0  0  0  0  0  0  0  0
   21.8024  -13.4158   26.5126 C   0  0  0  0  0  0  0  0  0  0  0  0
   22.8691  -13.4530   25.5820 C   0  0  0  0  0  0  0  0  0  0  0  0
   16.9747  -17.7606   22.2902 C   0  0  0  0  0  0  0  0  0  0  0  0
   18.0935  -17.5736   23.3457 C   0  0  0  0  0  0  0  0  0  0  0  0
   19.4195  -17.4519   22.9596 N   0  0  0  0  0  0  0  0  0  0  0  0
   17.8084  -17.4942   24.5638 O   0  0  0  0  0  0  0  0  0  0  0  0
   19.6363  -17.5117   22.0012 H   0  0  0  0  0  0  0  0  0  0  0  0
   20.4926  -17.2425   23.8926 C   0  0  0  0  0  0  0  0  0  0  0  0
   21.9209  -17.2805   23.3105 C   0  0  0  0  0  0  0  0  0  0  0  0
   22.8977  -17.3864   24.4853 C   0  0  0  0  0  0  0  0  0  0  0  0
   22.1148  -18.4688   22.3707 C   0  0  0  0  0  0  0  0  0  0  0  0
   24.2905  -17.5377   24.0870 N   0  0  0  0  0  0  0  0  0  0  0  0
   23.5628  -18.4994   21.8944 C   0  0  0  0  0  0  0  0  0  0  0  0
   24.5331  -18.5651   23.0719 C   0  0  0  0  0  0  0  0  0  0  0  0
   25.0522  -16.3015   24.1662 C   0  0  0  0  0  0  0  0  0  0  0  0
   25.3900  -15.8937   25.4887 N   0  0  0  0  0  0  0  0  0  0  0  0
   25.3919  -15.6392   23.1039 N   0  0  0  0  0  0  0  0  0  0  0  0
   25.1051  -16.4364   26.2591 H   0  0  0  0  0  0  0  0  0  0  0  0
   25.9084  -15.0691   25.6322 H   0  0  0  0  0  0  0  0  0  0  0  0
   25.1305  -15.9688   22.2138 H   0  0  0  0  0  0  0  0  0  0  0  0
  2  5  1  0  0  0
  2  3  1  0  0  0
  2  8  1  0  0  0
  5  6  1  0  0  0
  5  7  1  0  0  0
  3  1  1  0  0  0
  3  4  2  0  0  0
  8  9  1  0  0  0
  6  7  1  0  0  0
  1 13  1  0  0  0
  1 28  1  0  0  0
  9 10  1  0  0  0
  9 11  2  0  0  0
 13 15  1  0  0  0
 28 29  1  0  0  0
 15 18  1  0  0  0
 15 16  2  0  0  0
 15 17  2  0  0  0
 29 30  1  0  0  0
 29 31  2  0  0  0
 18 19  1  0  0  0
 18 20  2  0  0  0
 30 33  1  0  0  0
 19 21  2  0  0  0
 20 22  1  0  0  0
 33 34  1  0  0  0
 21 23  1  0  0  0
 21 24  1  0  0  0
 22 23  2  0  0  0
 34 35  1  0  0  0
 34 36  1  0  0  0
 23 25  1  0  0  0
 24 26  2  0  0  0
 35 37  1  0  0  0
 36 38  1  0  0  0
 25 27  2  0  0  0
 26 27  1  0  0  0
 37 39  1  0  0  0
 37 40  1  0  0  0
 38 39  1  0  0  0
 40 41  1  0  0  0
 40 42  2  0  0  0
 13 14  1  0  0  0
 10 12  1  0  0  0
 30 32  1  0  0  0
 41 43  1  0  0  0
 41 44  1  0  0  0
 42 45  1  0  0  0
M  END
> <minimizedAffinity>
-7.87605

$$$$
4AX9_N5N_H_1246


 45 48  0  0  0  0  0  0  0  0999 V2000
   18.0696  -17.2784   21.4544 C   0  0  0  0  0  0  0  0  0  0  0  0
   20.1342  -18.2085   22.6162 N   0  0  0  0  0  0  0  0  0  0  0  0
   19.3764  -18.1181   21.4505 C   0  0  0  0  0  0  0  0  0  0  0  0
   19.7216  -18.7022   20.4137 O   0  0  0  0  0  0  0  0  0  0  0  0
   19.7279  -17.5313   23.8120 C   0  0  0  0  0  0  0  0  0  0  0  0
   18.9325  -18.2732   24.8861 C   0  0  0  0  0  0  0  0  0  0  0  0
   20.3460  -17.8507   25.1551 C   0  0  0  0  0  0  0  0  0  0  0  0
   21.2754  -19.0514   22.7329 C   0  0  0  0  0  0  0  0  0  0  0  0
   22.3497  -18.0725   22.2502 C   0  0  0  0  0  0  0  0  0  0  0  0
   22.5937  -17.9874   20.9231 O   0  0  0  0  0  0  0  0  0  0  0  0
   23.0261  -17.3052   22.9330 O   0  0  0  0  0  0  0  0  0  0  0  0
   22.1247  -18.5347   20.3244 H   0  0  0  0  0  0  0  0  0  0  0  0
   18.2100  -15.9831   20.9035 N   0  0  0  0  0  0  0  0  0  0  0  0
   17.7239  -15.9727   20.0068 H   0  0  0  0  0  0  0  0  0  0  0  0
   17.6360  -14.7631   21.7867 S   0  0  0  0  0  0  0  0  0  0  0  0
   17.4538  -13.7393   20.8494 O   0  0  0  0  0  0  0  0  0  0  0  0
   16.5633  -15.3296   22.4771 O   0  0  0  0  0  0  0  0  0  0  0  0
   18.9598  -14.3919   22.7453 C   0  0  0  0  0  0  0  0  0  0  0  0
   18.9298  -14.0458   24.0779 C   0  0  0  0  0  0  0  0  0  0  0  0
   20.2215  -14.4525   22.0925 C   0  0  0  0  0  0  0  0  0  0  0  0
   20.1503  -13.7630   24.7488 C   0  0  0  0  0  0  0  0  0  0  0  0
   21.4027  -14.1839   22.7141 C   0  0  0  0  0  0  0  0  0  0  0  0
   21.3890  -13.8306   24.0592 C   0  0  0  0  0  0  0  0  0  0  0  0
   20.1705  -13.4067   26.1134 C   0  0  0  0  0  0  0  0  0  0  0  0
   22.6069  -13.5537   24.7290 C   0  0  0  0  0  0  0  0  0  0  0  0
   21.3531  -13.1501   26.7472 C   0  0  0  0  0  0  0  0  0  0  0  0
   22.5853  -13.2206   26.0529 C   0  0  0  0  0  0  0  0  0  0  0  0
   17.1242  -18.1032   20.5363 C   0  0  0  0  0  0  0  0  0  0  0  0
   15.7634  -17.4247   20.2385 C   0  0  0  0  0  0  0  0  0  0  0  0
   15.6992  -16.2693   19.4748 N   0  0  0  0  0  0  0  0  0  0  0  0
   14.6968  -17.9336   20.6563 O   0  0  0  0  0  0  0  0  0  0  0  0
   16.5403  -15.8766   19.1468 H   0  0  0  0  0  0  0  0  0  0  0  0
   14.4627  -15.6180   19.1392 C   0  0  0  0  0  0  0  0  0  0  0  0
   14.0991  -14.3717   19.9729 C   0  0  0  0  0  0  0  0  0  0  0  0
   14.4006  -13.1376   19.1176 C   0  0  0  0  0  0  0  0  0  0  0  0
   12.6254  -14.3727   20.3743 C   0  0  0  0  0  0  0  0  0  0  0  0
   14.0085  -11.8779   19.7348 N   0  0  0  0  0  0  0  0  0  0  0  0
   12.3093  -13.0821   21.1219 C   0  0  0  0  0  0  0  0  0  0  0  0
   12.6490  -11.8549   20.2787 C   0  0  0  0  0  0  0  0  0  0  0  0
   15.1194  -11.1590   20.3379 C   0  0  0  0  0  0  0  0  0  0  0  0
   14.7707  -10.3606   21.4650 N   0  0  0  0  0  0  0  0  0  0  0  0
   16.3270  -11.2543   19.8742 N   0  0  0  0  0  0  0  0  0  0  0  0
   13.8364  -10.3259   21.7735 H   0  0  0  0  0  0  0  0  0  0  0  0
   15.4639   -9.8435   21.9354 H   0  0  0  0  0  0  0  0  0  0  0  0
   16.5102  -11.8221   19.0910 H   0  0  0  0  0  0  0  0  0  0  0  0
  2  5  1  0  0  0
  2  3  1  0  0  0
  2  8  1  0  0  0
  5  6  1  0  0  0
  5  7  1  0  0  0
  3  1  1  0  0  0
  3  4  2  0  0  0
  8  9  1  0  0  0
  6  7  1  0  0  0
  1 13  1  0  0  0
  1 28  1  0  0  0
  9 10  1  0  0  0
  9 11  2  0  0  0
 13 15  1  0  0  0
 28 29  1  0  0  0
 15 18  1  0  0  0
 15 16  2  0  0  0
 15 17  2  0  0  0
 29 30  1  0  0  0
 29 31  2  0  0  0
 18 19  1  0  0  0
 18 20  2  0  0  0
 30 33  1  0  0  0
 19 21  2  0  0  0
 20 22  1  0  0  0
 33 34  1  0  0  0
 21 23  1  0  0  0
 21 24  1  0  0  0
 22 23  2  0  0  0
 34 35  1  0  0  0
 34 36  1  0  0  0
 23 25  1  0  0  0
 24 26  2  0  0  0
 35 37  1  0  0  0
 36 38  1  0  0  0
 25 27  2  0  0  0
 26 27  1  0  0  0
 37 39  1  0  0  0
 37 40  1  0  0  0
 38 39  1  0  0  0
 40 41  1  0  0  0
 40 42  2  0  0  0
 13 14  1  0  0  0
 10 12  1  0  0  0
 30 32  1  0  0  0
 41 43  1  0  0  0
 41 44  1  0  0  0
 42 45  1  0  0  0
M  END
> <minimizedAffinity>
-7.53340

$$$$
4AX9_N5N_H_1246


 45 48  0  0  0  0  0  0  0  0999 V2000
   15.2138  -14.5666   21.3242 C   0  0  0  0  0  0  0  0  0  0  0  0
   14.4648  -12.8865   19.5654 N   0  0  0  0  0  0  0  0  0  0  0  0
   15.0892  -14.0996   19.8480 C   0  0  0  0  0  0  0  0  0  0  0  0
   15.5544  -14.8079   18.9440 O   0  0  0  0  0  0  0  0  0  0  0  0
   13.9304  -12.0719   20.6163 C   0  0  0  0  0  0  0  0  0  0  0  0
   12.8478  -11.0358   20.3142 C   0  0  0  0  0  0  0  0  0  0  0  0
   12.5168  -12.2548   21.1226 C   0  0  0  0  0  0  0  0  0  0  0  0
   14.4160  -12.3287   18.2565 C   0  0  0  0  0  0  0  0  0  0  0  0
   15.8737  -11.8760   18.1320 C   0  0  0  0  0  0  0  0  0  0  0  0
   16.6560  -12.4719   17.2040 O   0  0  0  0  0  0  0  0  0  0  0  0
   16.4409  -10.9903   18.7695 O   0  0  0  0  0  0  0  0  0  0  0  0
   16.3087  -13.1589   16.6698 H   0  0  0  0  0  0  0  0  0  0  0  0
   15.7281  -15.8755   21.4776 N   0  0  0  0  0  0  0  0  0  0  0  0
   16.4672  -15.8383   22.1796 H   0  0  0  0  0  0  0  0  0  0  0  0
   14.6767  -17.0095   21.9320 S   0  0  0  0  0  0  0  0  0  0  0  0
   13.5396  -16.2753   22.2899 O   0  0  0  0  0  0  0  0  0  0  0  0
   14.6693  -17.9034   20.8600 O   0  0  0  0  0  0  0  0  0  0  0  0
   15.4014  -17.6000   23.3230 C   0  0  0  0  0  0  0  0  0  0  0  0
   16.4576  -17.0286   23.9973 C   0  0  0  0  0  0  0  0  0  0  0  0
   14.8483  -18.8061   23.8340 C   0  0  0  0  0  0  0  0  0  0  0  0
   16.9543  -17.6590   25.1702 C   0  0  0  0  0  0  0  0  0  0  0  0
   15.3088  -19.4286   24.9538 C   0  0  0  0  0  0  0  0  0  0  0  0
   16.3763  -18.8654   25.6448 C   0  0  0  0  0  0  0  0  0  0  0  0
   18.0322  -17.1107   25.8960 C   0  0  0  0  0  0  0  0  0  0  0  0
   16.8679  -19.4918   26.8173 C   0  0  0  0  0  0  0  0  0  0  0  0
   18.4900  -17.7220   27.0286 C   0  0  0  0  0  0  0  0  0  0  0  0
   17.9076  -18.9249   27.4968 C   0  0  0  0  0  0  0  0  0  0  0  0
   16.2397  -13.5623   21.9207 C   0  0  0  0  0  0  0  0  0  0  0  0
   17.7122  -14.0421   21.8727 C   0  0  0  0  0  0  0  0  0  0  0  0
   18.3452  -14.5041   23.0165 N   0  0  0  0  0  0  0  0  0  0  0  0
   18.3404  -14.0517   20.7880 O   0  0  0  0  0  0  0  0  0  0  0  0
   17.8452  -14.4971   23.8645 H   0  0  0  0  0  0  0  0  0  0  0  0
   19.6968  -14.9927   23.0225 C   0  0  0  0  0  0  0  0  0  0  0  0
   20.5193  -14.7106   24.2971 C   0  0  0  0  0  0  0  0  0  0  0  0
   21.7649  -13.9230   23.8802 C   0  0  0  0  0  0  0  0  0  0  0  0
   19.7181  -13.9050   25.3178 C   0  0  0  0  0  0  0  0  0  0  0  0
   22.5940  -13.4899   24.9967 N   0  0  0  0  0  0  0  0  0  0  0  0
   20.6074  -13.5883   26.5150 C   0  0  0  0  0  0  0  0  0  0  0  0
   21.8668  -12.8376   26.0877 C   0  0  0  0  0  0  0  0  0  0  0  0
   23.7626  -14.3290   25.2088 C   0  0  0  0  0  0  0  0  0  0  0  0
   23.5445  -15.4495   26.0611 N   0  0  0  0  0  0  0  0  0  0  0  0
   24.9040  -14.0639   24.6526 N   0  0  0  0  0  0  0  0  0  0  0  0
   22.6558  -15.6018   26.4564 H   0  0  0  0  0  0  0  0  0  0  0  0
   24.2826  -16.0716   26.2548 H   0  0  0  0  0  0  0  0  0  0  0  0
   24.9970  -13.2744   24.0719 H   0  0  0  0  0  0  0  0  0  0  0  0
  2  5  1  0  0  0
  2  3  1  0  0  0
  2  8  1  0  0  0
  5  6  1  0  0  0
  5  7  1  0  0  0
  3  1  1  0  0  0
  3  4  2  0  0  0
  8  9  1  0  0  0
  6  7  1  0  0  0
  1 13  1  0  0  0
  1 28  1  0  0  0
  9 10  1  0  0  0
  9 11  2  0  0  0
 13 15  1  0  0  0
 28 29  1  0  0  0
 15 18  1  0  0  0
 15 16  2  0  0  0
 15 17  2  0  0  0
 29 30  1  0  0  0
 29 31  2  0  0  0
 18 19  1  0  0  0
 18 20  2  0  0  0
 30 33  1  0  0  0
 19 21  2  0  0  0
 20 22  1  0  0  0
 33 34  1  0  0  0
 21 23  1  0  0  0
 21 24  1  0  0  0
 22 23  2  0  0  0
 34 35  1  0  0  0
 34 36  1  0  0  0
 23 25  1  0  0  0
 24 26  2  0  0  0
 35 37  1  0  0  0
 36 38  1  0  0  0
 25 27  2  0  0  0
 26 27  1  0  0  0
 37 39  1  0  0  0
 37 40  1  0  0  0
 38 39  1  0  0  0
 40 41  1  0  0  0
 40 42  2  0  0  0
 13 14  1  0  0  0
 10 12  1  0  0  0
 30 32  1  0  0  0
 41 43  1  0  0  0
 41 44  1  0  0  0
 42 45  1  0  0  0
M  END
> <minimizedAffinity>
-7.49209

$$$$
