5BWC_HBP_A_603


 27 28  0  0  0  0  0  0  0  0999 V2000
   56.7942  -36.6405   -0.9513 C   0  0  0  0  0  0  0  0  0  0  0  0
   56.2629  -36.7281    0.4747 C   0  0  0  0  0  0  0  0  0  0  0  0
   57.4427  -37.0577    1.3842 C   0  0  0  0  0  0  0  0  0  0  0  0
   57.3799  -36.3283    2.7134 C   0  0  0  0  0  0  0  0  0  0  0  0
   55.1942  -36.2314    4.0312 C   0  0  0  0  0  0  0  0  0  0  0  0
   54.2607  -36.8771    4.8424 C   0  0  0  0  0  0  0  0  0  0  0  0
   55.5612  -38.8765    4.7041 C   0  0  0  0  0  0  0  0  0  0  0  0
   56.4906  -38.2257    3.8976 C   0  0  0  0  0  0  0  0  0  0  0  0
   56.3352  -36.9384    3.5597 N   0  0  0  0  0  0  0  0  0  0  0  0
   54.4428  -38.2045    5.1734 C   0  0  0  0  0  0  0  0  0  0  0  0
   54.1874  -33.0828    2.4202 O   0  0  0  0  0  0  0  0  0  0  0  0
   54.3535  -34.4423    2.6646 N   0  0  0  0  0  0  0  0  0  0  0  0
   54.9942  -34.8024    3.6874 C   0  0  0  0  0  0  0  0  0  0  0  0
   53.7136  -32.7972    1.6640 H   0  0  0  0  0  0  0  0  0  0  0  0
   58.3015  -36.7502   -1.1242 C   0  0  0  0  0  0  0  0  0  0  0  0
   58.9590  -35.4702   -1.6088 C   0  0  0  0  0  0  0  0  0  0  0  0
   58.7899  -34.2301   -0.7144 C   0  0  0  0  0  0  0  0  0  0  0  0
   58.5671  -32.9863   -1.4891 N   0  0  0  0  0  0  0  0  0  0  0  0
   59.6622  -32.2662   -1.8096 C   0  0  0  0  0  0  0  0  0  0  0  0
   59.5632  -31.0855   -2.5394 C   0  0  0  0  0  0  0  0  0  0  0  0
   58.3242  -30.6184   -2.9416 C   0  0  0  0  0  0  0  0  0  0  0  0
   57.2000  -31.3555   -2.6016 C   0  0  0  0  0  0  0  0  0  0  0  0
   57.3254  -32.5345   -1.8544 C   0  0  0  0  0  0  0  0  0  0  0  0
   56.0771  -33.3042   -1.5858 C   0  0  0  0  0  0  0  0  0  0  0  0
   55.3792  -33.0762   -0.5601 N   0  0  0  0  0  0  0  0  0  0  0  0
   54.1898  -33.7829   -0.4089 O   0  0  0  0  0  0  0  0  0  0  0  0
   53.6496  -33.6356    0.3424 H   0  0  0  0  0  0  0  0  0  0  0  0
  4  9  1  0  0  0
  4  3  1  0  0  0
  2  3  1  0  0  0
  2  1  1  0  0  0
 11 12  1  0  0  0
 12 13  2  0  0  0
 13  5  1  0  0  0
  5  6  2  0  0  0
  5  9  1  0  0  0
  6 10  1  0  0  0
  7  8  1  0  0  0
  7 10  2  0  0  0
  8  9  2  0  0  0
  1 15  1  0  0  0
 15 16  1  0  0  0
 16 17  1  0  0  0
 17 18  1  0  0  0
 18 19  1  0  0  0
 18 23  2  0  0  0
 19 20  2  0  0  0
 20 21  1  0  0  0
 21 22  2  0  0  0
 22 23  1  0  0  0
 23 24  1  0  0  0
 24 25  2  0  0  0
 25 26  1  0  0  0
 11 14  1  0  0  0
 26 27  1  0  0  0
M  CHG 1   9   1
M  CHG 1  18   1
M  END
> <minimizedAffinity>
-8.86971

$$$$
5BWC_HBP_A_603


 27 28  0  0  0  0  0  0  0  0999 V2000
   57.2315  -36.7310    1.0783 C   0  0  0  0  0  0  0  0  0  0  0  0
   55.7737  -36.4894    0.7045 C   0  0  0  0  0  0  0  0  0  0  0  0
   54.9331  -36.7348    1.9539 C   0  0  0  0  0  0  0  0  0  0  0  0
   55.5641  -36.1582    3.2077 C   0  0  0  0  0  0  0  0  0  0  0  0
   56.5572  -37.2343    5.3003 C   0  0  0  0  0  0  0  0  0  0  0  0
   56.5122  -38.2507    6.2550 C   0  0  0  0  0  0  0  0  0  0  0  0
   54.5680  -39.1354    5.1846 C   0  0  0  0  0  0  0  0  0  0  0  0
   54.6202  -38.1205    4.2333 C   0  0  0  0  0  0  0  0  0  0  0  0
   55.5804  -37.1865    4.2671 N   0  0  0  0  0  0  0  0  0  0  0  0
   55.5110  -39.1990    6.1992 C   0  0  0  0  0  0  0  0  0  0  0  0
   59.7935  -35.5308    5.6837 O   0  0  0  0  0  0  0  0  0  0  0  0
   58.8252  -36.5296    5.6679 N   0  0  0  0  0  0  0  0  0  0  0  0
   57.6417  -36.2243    5.3636 C   0  0  0  0  0  0  0  0  0  0  0  0
   60.6789  -35.7402    5.9078 H   0  0  0  0  0  0  0  0  0  0  0  0
   58.0932  -37.4331    0.0399 C   0  0  0  0  0  0  0  0  0  0  0  0
   58.1368  -36.7249   -1.3025 C   0  0  0  0  0  0  0  0  0  0  0  0
   59.2890  -35.7282   -1.5161 C   0  0  0  0  0  0  0  0  0  0  0  0
   58.8370  -34.3166   -1.5208 N   0  0  0  0  0  0  0  0  0  0  0  0
   57.5163  -34.1025   -1.6944 C   0  0  0  0  0  0  0  0  0  0  0  0
   56.9881  -32.8151   -1.7095 C   0  0  0  0  0  0  0  0  0  0  0  0
   57.8208  -31.7202   -1.5581 C   0  0  0  0  0  0  0  0  0  0  0  0
   59.1789  -31.9434   -1.3902 C   0  0  0  0  0  0  0  0  0  0  0  0
   59.6877  -33.2493   -1.3921 C   0  0  0  0  0  0  0  0  0  0  0  0
   61.1485  -33.4093   -1.1402 C   0  0  0  0  0  0  0  0  0  0  0  0
   61.8565  -32.4329   -0.7707 N   0  0  0  0  0  0  0  0  0  0  0  0
   63.1980  -32.6697   -0.4857 O   0  0  0  0  0  0  0  0  0  0  0  0
   63.7496  -31.9647   -0.2089 H   0  0  0  0  0  0  0  0  0  0  0  0
  4  9  1  0  0  0
  4  3  1  0  0  0
  2  3  1  0  0  0
  2  1  1  0  0  0
 11 12  1  0  0  0
 12 13  2  0  0  0
 13  5  1  0  0  0
  5  6  2  0  0  0
  5  9  1  0  0  0
  6 10  1  0  0  0
  7  8  1  0  0  0
  7 10  2  0  0  0
  8  9  2  0  0  0
  1 15  1  0  0  0
 15 16  1  0  0  0
 16 17  1  0  0  0
 17 18  1  0  0  0
 18 19  1  0  0  0
 18 23  2  0  0  0
 19 20  2  0  0  0
 20 21  1  0  0  0
 21 22  2  0  0  0
 22 23  1  0  0  0
 23 24  1  0  0  0
 24 25  2  0  0  0
 25 26  1  0  0  0
 11 14  1  0  0  0
 26 27  1  0  0  0
M  CHG 1   9   1
M  CHG 1  18   1
M  END
> <minimizedAffinity>
-8.75624

$$$$
5BWC_HBP_A_603


 27 28  0  0  0  0  0  0  0  0999 V2000
   58.0995  -37.1231   -0.4476 C   0  0  0  0  0  0  0  0  0  0  0  0
   57.5445  -35.8261   -1.0250 C   0  0  0  0  0  0  0  0  0  0  0  0
   58.7150  -35.0540   -1.6263 C   0  0  0  0  0  0  0  0  0  0  0  0
   59.1143  -33.8511   -0.7919 C   0  0  0  0  0  0  0  0  0  0  0  0
   60.0765  -31.9109   -2.1459 C   0  0  0  0  0  0  0  0  0  0  0  0
   59.8579  -30.7479   -2.8849 C   0  0  0  0  0  0  0  0  0  0  0  0
   57.5064  -31.0094   -2.5535 C   0  0  0  0  0  0  0  0  0  0  0  0
   57.7312  -32.1674   -1.8146 C   0  0  0  0  0  0  0  0  0  0  0  0
   58.9728  -32.6236   -1.6002 N   0  0  0  0  0  0  0  0  0  0  0  0
   58.5690  -30.3010   -3.0935 C   0  0  0  0  0  0  0  0  0  0  0  0
   63.3459  -32.7213   -0.6705 O   0  0  0  0  0  0  0  0  0  0  0  0
   62.0501  -32.2355   -0.8137 N   0  0  0  0  0  0  0  0  0  0  0  0
   61.4658  -32.3791   -1.9201 C   0  0  0  0  0  0  0  0  0  0  0  0
   63.7955  -32.6230    0.1457 H   0  0  0  0  0  0  0  0  0  0  0  0
   57.6189  -37.5098    0.9428 C   0  0  0  0  0  0  0  0  0  0  0  0
   56.2547  -36.9468    1.2999 C   0  0  0  0  0  0  0  0  0  0  0  0
   56.1651  -36.1409    2.6072 C   0  0  0  0  0  0  0  0  0  0  0  0
   55.8992  -36.9912    3.7917 N   0  0  0  0  0  0  0  0  0  0  0  0
   54.8701  -37.8587    3.6978 C   0  0  0  0  0  0  0  0  0  0  0  0
   54.5399  -38.7059    4.7513 C   0  0  0  0  0  0  0  0  0  0  0  0
   55.2619  -38.6624    5.9311 C   0  0  0  0  0  0  0  0  0  0  0  0
   56.3123  -37.7625    6.0279 C   0  0  0  0  0  0  0  0  0  0  0  0
   56.6163  -36.9107    4.9574 C   0  0  0  0  0  0  0  0  0  0  0  0
   57.8005  -36.0185    5.1145 C   0  0  0  0  0  0  0  0  0  0  0  0
   58.8638  -36.4357    5.6497 N   0  0  0  0  0  0  0  0  0  0  0  0
   59.9529  -35.5706    5.6999 O   0  0  0  0  0  0  0  0  0  0  0  0
   60.7566  -35.8514    6.0912 H   0  0  0  0  0  0  0  0  0  0  0  0
  4  9  1  0  0  0
  4  3  1  0  0  0
  2  3  1  0  0  0
  2  1  1  0  0  0
 11 12  1  0  0  0
 12 13  2  0  0  0
 13  5  1  0  0  0
  5  6  2  0  0  0
  5  9  1  0  0  0
  6 10  1  0  0  0
  7  8  1  0  0  0
  7 10  2  0  0  0
  8  9  2  0  0  0
  1 15  1  0  0  0
 15 16  1  0  0  0
 16 17  1  0  0  0
 17 18  1  0  0  0
 18 19  1  0  0  0
 18 23  2  0  0  0
 19 20  2  0  0  0
 20 21  1  0  0  0
 21 22  2  0  0  0
 22 23  1  0  0  0
 23 24  1  0  0  0
 24 25  2  0  0  0
 25 26  1  0  0  0
 11 14  1  0  0  0
 26 27  1  0  0  0
M  CHG 1   9   1
M  CHG 1  18   1
M  END
> <minimizedAffinity>
-8.61663

$$$$
5BWC_HBP_A_603


 27 28  0  0  0  0  0  0  0  0999 V2000
   56.8275  -36.2231   -0.7247 C   0  0  0  0  0  0  0  0  0  0  0  0
   56.2181  -36.8042    0.5458 C   0  0  0  0  0  0  0  0  0  0  0  0
   57.3680  -37.2535    1.4422 C   0  0  0  0  0  0  0  0  0  0  0  0
   57.3859  -36.5338    2.7780 C   0  0  0  0  0  0  0  0  0  0  0  0
   55.2573  -36.3650    4.1794 C   0  0  0  0  0  0  0  0  0  0  0  0
   54.3321  -36.9812    5.0224 C   0  0  0  0  0  0  0  0  0  0  0  0
   55.5511  -39.0263    4.8237 C   0  0  0  0  0  0  0  0  0  0  0  0
   56.4725  -38.4050    3.9855 C   0  0  0  0  0  0  0  0  0  0  0  0
   56.3523  -37.1105    3.6606 N   0  0  0  0  0  0  0  0  0  0  0  0
   54.4773  -38.3165    5.3393 C   0  0  0  0  0  0  0  0  0  0  0  0
   54.1388  -33.1543    2.7782 O   0  0  0  0  0  0  0  0  0  0  0  0
   54.2459  -34.5207    3.0170 N   0  0  0  0  0  0  0  0  0  0  0  0
   55.0976  -34.9273    3.8510 C   0  0  0  0  0  0  0  0  0  0  0  0
   53.5106  -32.8344    2.1610 H   0  0  0  0  0  0  0  0  0  0  0  0
   58.1774  -36.7813   -1.1492 C   0  0  0  0  0  0  0  0  0  0  0  0
   59.2033  -35.7151   -1.4902 C   0  0  0  0  0  0  0  0  0  0  0  0
   59.2107  -34.4599   -0.6008 C   0  0  0  0  0  0  0  0  0  0  0  0
   59.1155  -33.2016   -1.3783 N   0  0  0  0  0  0  0  0  0  0  0  0
   57.8768  -32.7935   -1.7236 C   0  0  0  0  0  0  0  0  0  0  0  0
   57.6770  -31.6230   -2.4493 C   0  0  0  0  0  0  0  0  0  0  0  0
   58.7594  -30.8567   -2.8446 C   0  0  0  0  0  0  0  0  0  0  0  0
   60.0317  -31.2845   -2.4970 C   0  0  0  0  0  0  0  0  0  0  0  0
   60.2069  -32.4742   -1.7772 C   0  0  0  0  0  0  0  0  0  0  0  0
   61.6002  -32.8316   -1.3850 C   0  0  0  0  0  0  0  0  0  0  0  0
   62.5456  -32.0067   -1.5155 N   0  0  0  0  0  0  0  0  0  0  0  0
   63.8072  -32.3822   -1.0637 O   0  0  0  0  0  0  0  0  0  0  0  0
   64.5296  -31.7912   -1.1467 H   0  0  0  0  0  0  0  0  0  0  0  0
  4  9  1  0  0  0
  4  3  1  0  0  0
  2  3  1  0  0  0
  2  1  1  0  0  0
 11 12  1  0  0  0
 12 13  2  0  0  0
 13  5  1  0  0  0
  5  6  2  0  0  0
  5  9  1  0  0  0
  6 10  1  0  0  0
  7  8  1  0  0  0
  7 10  2  0  0  0
  8  9  2  0  0  0
  1 15  1  0  0  0
 15 16  1  0  0  0
 16 17  1  0  0  0
 17 18  1  0  0  0
 18 19  1  0  0  0
 18 23  2  0  0  0
 19 20  2  0  0  0
 20 21  1  0  0  0
 21 22  2  0  0  0
 22 23  1  0  0  0
 23 24  1  0  0  0
 24 25  2  0  0  0
 25 26  1  0  0  0
 11 14  1  0  0  0
 26 27  1  0  0  0
M  CHG 1   9   1
M  CHG 1  18   1
M  END
> <minimizedAffinity>
-8.60777

$$$$
5BWC_HBP_A_603


 27 28  0  0  0  0  0  0  0  0999 V2000
   57.4406  -36.8195    0.9418 C   0  0  0  0  0  0  0  0  0  0  0  0
   55.9720  -36.9853    1.3147 C   0  0  0  0  0  0  0  0  0  0  0  0
   55.8616  -36.8208    2.8275 C   0  0  0  0  0  0  0  0  0  0  0  0
   54.5484  -36.1915    3.2545 C   0  0  0  0  0  0  0  0  0  0  0  0
   53.5924  -35.5553    5.5358 C   0  0  0  0  0  0  0  0  0  0  0  0
   53.4511  -35.8457    6.8931 C   0  0  0  0  0  0  0  0  0  0  0  0
   54.7415  -37.8313    6.5768 C   0  0  0  0  0  0  0  0  0  0  0  0
   54.8814  -37.5345    5.2240 C   0  0  0  0  0  0  0  0  0  0  0  0
   54.3343  -36.4314    4.6955 N   0  0  0  0  0  0  0  0  0  0  0  0
   54.0223  -36.9899    7.4119 C   0  0  0  0  0  0  0  0  0  0  0  0
   51.8025  -32.3689    5.1290 O   0  0  0  0  0  0  0  0  0  0  0  0
   52.3258  -33.5203    5.7086 N   0  0  0  0  0  0  0  0  0  0  0  0
   52.9818  -34.3190    4.9889 C   0  0  0  0  0  0  0  0  0  0  0  0
   51.3119  -31.7638    5.6496 H   0  0  0  0  0  0  0  0  0  0  0  0
   57.8304  -37.2051   -0.4771 C   0  0  0  0  0  0  0  0  0  0  0  0
   58.5160  -36.0921   -1.2496 C   0  0  0  0  0  0  0  0  0  0  0  0
   58.9351  -34.8522   -0.4412 C   0  0  0  0  0  0  0  0  0  0  0  0
   58.8378  -33.5954   -1.2208 N   0  0  0  0  0  0  0  0  0  0  0  0
   57.6130  -33.2544   -1.6725 C   0  0  0  0  0  0  0  0  0  0  0  0
   57.4120  -32.0915   -2.4099 C   0  0  0  0  0  0  0  0  0  0  0  0
   58.4801  -31.2631   -2.7068 C   0  0  0  0  0  0  0  0  0  0  0  0
   59.7391  -31.6220   -2.2500 C   0  0  0  0  0  0  0  0  0  0  0  0
   59.9173  -32.8053   -1.5205 C   0  0  0  0  0  0  0  0  0  0  0  0
   61.2888  -33.0874   -1.0085 C   0  0  0  0  0  0  0  0  0  0  0  0
   62.2145  -32.2384   -1.1238 N   0  0  0  0  0  0  0  0  0  0  0  0
   63.4510  -32.5396   -0.5606 O   0  0  0  0  0  0  0  0  0  0  0  0
   64.1585  -31.9291   -0.6295 H   0  0  0  0  0  0  0  0  0  0  0  0
  4  9  1  0  0  0
  4  3  1  0  0  0
  2  3  1  0  0  0
  2  1  1  0  0  0
 11 12  1  0  0  0
 12 13  2  0  0  0
 13  5  1  0  0  0
  5  6  2  0  0  0
  5  9  1  0  0  0
  6 10  1  0  0  0
  7  8  1  0  0  0
  7 10  2  0  0  0
  8  9  2  0  0  0
  1 15  1  0  0  0
 15 16  1  0  0  0
 16 17  1  0  0  0
 17 18  1  0  0  0
 18 19  1  0  0  0
 18 23  2  0  0  0
 19 20  2  0  0  0
 20 21  1  0  0  0
 21 22  2  0  0  0
 22 23  1  0  0  0
 23 24  1  0  0  0
 24 25  2  0  0  0
 25 26  1  0  0  0
 11 14  1  0  0  0
 26 27  1  0  0  0
M  CHG 1   9   1
M  CHG 1  18   1
M  END
> <minimizedAffinity>
-8.49505

$$$$
5BWC_HBP_A_603


 27 28  0  0  0  0  0  0  0  0999 V2000
   56.8420  -36.7309    0.0706 C   0  0  0  0  0  0  0  0  0  0  0  0
   58.1219  -37.2630   -0.5637 C   0  0  0  0  0  0  0  0  0  0  0  0
   58.8274  -36.0856   -1.2298 C   0  0  0  0  0  0  0  0  0  0  0  0
   58.8626  -34.8494   -0.3505 C   0  0  0  0  0  0  0  0  0  0  0  0
   59.8183  -32.7478   -1.4428 C   0  0  0  0  0  0  0  0  0  0  0  0
   59.6160  -31.6194   -2.2379 C   0  0  0  0  0  0  0  0  0  0  0  0
   57.3359  -32.2682   -2.5346 C   0  0  0  0  0  0  0  0  0  0  0  0
   57.5434  -33.3907   -1.7380 C   0  0  0  0  0  0  0  0  0  0  0  0
   58.7413  -33.6432   -1.1933 N   0  0  0  0  0  0  0  0  0  0  0  0
   58.3730  -31.3838   -2.7894 C   0  0  0  0  0  0  0  0  0  0  0  0
   63.3847  -32.5852   -0.5616 O   0  0  0  0  0  0  0  0  0  0  0  0
   62.1681  -32.3173   -1.1808 N   0  0  0  0  0  0  0  0  0  0  0  0
   61.1556  -32.9883   -0.8478 C   0  0  0  0  0  0  0  0  0  0  0  0
   64.1481  -32.0956   -0.7972 H   0  0  0  0  0  0  0  0  0  0  0  0
   56.5136  -37.2360    1.4674 C   0  0  0  0  0  0  0  0  0  0  0  0
   55.5554  -36.3419    2.2343 C   0  0  0  0  0  0  0  0  0  0  0  0
   54.2864  -37.0115    2.7891 C   0  0  0  0  0  0  0  0  0  0  0  0
   54.4022  -37.3674    4.2232 N   0  0  0  0  0  0  0  0  0  0  0  0
   54.7919  -38.6277    4.5065 C   0  0  0  0  0  0  0  0  0  0  0  0
   54.9367  -39.0618    5.8207 C   0  0  0  0  0  0  0  0  0  0  0  0
   54.6673  -38.2017    6.8708 C   0  0  0  0  0  0  0  0  0  0  0  0
   54.2570  -36.9104    6.5761 C   0  0  0  0  0  0  0  0  0  0  0  0
   54.1060  -36.5017    5.2441 C   0  0  0  0  0  0  0  0  0  0  0  0
   53.7253  -35.0795    5.0092 C   0  0  0  0  0  0  0  0  0  0  0  0
   52.5810  -34.6512    5.3226 N   0  0  0  0  0  0  0  0  0  0  0  0
   52.3179  -33.2968    5.1404 O   0  0  0  0  0  0  0  0  0  0  0  0
   51.4772  -32.9486    5.3639 H   0  0  0  0  0  0  0  0  0  0  0  0
  4  9  1  0  0  0
  4  3  1  0  0  0
  2  3  1  0  0  0
  2  1  1  0  0  0
 11 12  1  0  0  0
 12 13  2  0  0  0
 13  5  1  0  0  0
  5  6  2  0  0  0
  5  9  1  0  0  0
  6 10  1  0  0  0
  7  8  1  0  0  0
  7 10  2  0  0  0
  8  9  2  0  0  0
  1 15  1  0  0  0
 15 16  1  0  0  0
 16 17  1  0  0  0
 17 18  1  0  0  0
 18 19  1  0  0  0
 18 23  2  0  0  0
 19 20  2  0  0  0
 20 21  1  0  0  0
 21 22  2  0  0  0
 22 23  1  0  0  0
 23 24  1  0  0  0
 24 25  2  0  0  0
 25 26  1  0  0  0
 11 14  1  0  0  0
 26 27  1  0  0  0
M  CHG 1   9   1
M  CHG 1  18   1
M  END
> <minimizedAffinity>
-8.48784

$$$$
5BWC_HBP_A_603


 27 28  0  0  0  0  0  0  0  0999 V2000
   56.6145  -35.9219   -1.0533 C   0  0  0  0  0  0  0  0  0  0  0  0
   56.8346  -34.4439   -1.3543 C   0  0  0  0  0  0  0  0  0  0  0  0
   58.3299  -34.2391   -1.5775 C   0  0  0  0  0  0  0  0  0  0  0  0
   58.8672  -33.0140   -0.8612 C   0  0  0  0  0  0  0  0  0  0  0  0
   60.2907  -31.5860   -2.4290 C   0  0  0  0  0  0  0  0  0  0  0  0
   60.3749  -30.5196   -3.3247 C   0  0  0  0  0  0  0  0  0  0  0  0
   58.0342  -30.1320   -3.0438 C   0  0  0  0  0  0  0  0  0  0  0  0
   57.9574  -31.1951   -2.1487 C   0  0  0  0  0  0  0  0  0  0  0  0
   59.0422  -31.9149   -1.8315 N   0  0  0  0  0  0  0  0  0  0  0  0
   59.2419  -29.7960   -3.6365 C   0  0  0  0  0  0  0  0  0  0  0  0
   63.3582  -32.8440   -0.8383 O   0  0  0  0  0  0  0  0  0  0  0  0
   62.2371  -32.0639   -1.1028 N   0  0  0  0  0  0  0  0  0  0  0  0
   61.5154  -32.3529   -2.0937 C   0  0  0  0  0  0  0  0  0  0  0  0
   63.9063  -32.6432   -0.1052 H   0  0  0  0  0  0  0  0  0  0  0  0
   57.8490  -36.7346   -0.6937 C   0  0  0  0  0  0  0  0  0  0  0  0
   57.7929  -37.3571    0.6901 C   0  0  0  0  0  0  0  0  0  0  0  0
   57.3824  -36.4276    1.8451 C   0  0  0  0  0  0  0  0  0  0  0  0
   56.3858  -37.0424    2.7538 N   0  0  0  0  0  0  0  0  0  0  0  0
   56.8223  -38.0441    3.5454 C   0  0  0  0  0  0  0  0  0  0  0  0
   55.9685  -38.6849    4.4380 C   0  0  0  0  0  0  0  0  0  0  0  0
   54.6390  -38.3097    4.5196 C   0  0  0  0  0  0  0  0  0  0  0  0
   54.1913  -37.2870    3.6973 C   0  0  0  0  0  0  0  0  0  0  0  0
   55.0682  -36.6666    2.7972 C   0  0  0  0  0  0  0  0  0  0  0  0
   54.5274  -35.5320    1.9951 C   0  0  0  0  0  0  0  0  0  0  0  0
   54.5426  -34.3526    2.4424 N   0  0  0  0  0  0  0  0  0  0  0  0
   54.0865  -33.3332    1.6120 O   0  0  0  0  0  0  0  0  0  0  0  0
   54.0854  -32.4467    1.9157 H   0  0  0  0  0  0  0  0  0  0  0  0
  4  9  1  0  0  0
  4  3  1  0  0  0
  2  3  1  0  0  0
  2  1  1  0  0  0
 11 12  1  0  0  0
 12 13  2  0  0  0
 13  5  1  0  0  0
  5  6  2  0  0  0
  5  9  1  0  0  0
  6 10  1  0  0  0
  7  8  1  0  0  0
  7 10  2  0  0  0
  8  9  2  0  0  0
  1 15  1  0  0  0
 15 16  1  0  0  0
 16 17  1  0  0  0
 17 18  1  0  0  0
 18 19  1  0  0  0
 18 23  2  0  0  0
 19 20  2  0  0  0
 20 21  1  0  0  0
 21 22  2  0  0  0
 22 23  1  0  0  0
 23 24  1  0  0  0
 24 25  2  0  0  0
 25 26  1  0  0  0
 11 14  1  0  0  0
 26 27  1  0  0  0
M  CHG 1   9   1
M  CHG 1  18   1
M  END
> <minimizedAffinity>
-8.42632

$$$$
5BWC_HBP_A_603


 27 28  0  0  0  0  0  0  0  0999 V2000
   58.2384  -36.7247   -1.2891 C   0  0  0  0  0  0  0  0  0  0  0  0
   58.1510  -37.4293    0.0597 C   0  0  0  0  0  0  0  0  0  0  0  0
   56.8965  -36.9197    0.7629 C   0  0  0  0  0  0  0  0  0  0  0  0
   57.2101  -36.1049    2.0040 C   0  0  0  0  0  0  0  0  0  0  0  0
   56.6898  -36.3988    4.4871 C   0  0  0  0  0  0  0  0  0  0  0  0
   55.8234  -36.8620    5.4777 C   0  0  0  0  0  0  0  0  0  0  0  0
   54.3106  -37.5909    3.7783 C   0  0  0  0  0  0  0  0  0  0  0  0
   55.1807  -37.1294    2.7947 C   0  0  0  0  0  0  0  0  0  0  0  0
   56.3453  -36.5492    3.1150 N   0  0  0  0  0  0  0  0  0  0  0  0
   54.6286  -37.4535    5.1209 C   0  0  0  0  0  0  0  0  0  0  0  0
   59.8678  -35.5714    6.1419 O   0  0  0  0  0  0  0  0  0  0  0  0
   58.6605  -36.1969    5.8477 N   0  0  0  0  0  0  0  0  0  0  0  0
   57.9754  -35.7718    4.8802 C   0  0  0  0  0  0  0  0  0  0  0  0
   60.3902  -35.8746    6.8582 H   0  0  0  0  0  0  0  0  0  0  0  0
   59.3252  -35.6709   -1.4375 C   0  0  0  0  0  0  0  0  0  0  0  0
   59.1084  -34.4394   -0.5761 C   0  0  0  0  0  0  0  0  0  0  0  0
   60.2331  -33.3899   -0.5830 C   0  0  0  0  0  0  0  0  0  0  0  0
   59.9990  -32.3002   -1.5600 N   0  0  0  0  0  0  0  0  0  0  0  0
   58.7370  -31.8332   -1.6580 C   0  0  0  0  0  0  0  0  0  0  0  0
   58.4116  -30.8080   -2.5409 C   0  0  0  0  0  0  0  0  0  0  0  0
   59.3862  -30.2534   -3.3519 C   0  0  0  0  0  0  0  0  0  0  0  0
   60.6800  -30.7427   -3.2560 C   0  0  0  0  0  0  0  0  0  0  0  0
   60.9792  -31.7851   -2.3683 C   0  0  0  0  0  0  0  0  0  0  0  0
   62.4052  -32.2105   -2.2763 C   0  0  0  0  0  0  0  0  0  0  0  0
   63.2592  -31.5008   -1.6778 N   0  0  0  0  0  0  0  0  0  0  0  0
   64.5566  -31.9925   -1.5693 O   0  0  0  0  0  0  0  0  0  0  0  0
   65.2134  -31.4887   -1.1304 H   0  0  0  0  0  0  0  0  0  0  0  0
  4  9  1  0  0  0
  4  3  1  0  0  0
  2  3  1  0  0  0
  2  1  1  0  0  0
 11 12  1  0  0  0
 12 13  2  0  0  0
 13  5  1  0  0  0
  5  6  2  0  0  0
  5  9  1  0  0  0
  6 10  1  0  0  0
  7  8  1  0  0  0
  7 10  2  0  0  0
  8  9  2  0  0  0
  1 15  1  0  0  0
 15 16  1  0  0  0
 16 17  1  0  0  0
 17 18  1  0  0  0
 18 19  1  0  0  0
 18 23  2  0  0  0
 19 20  2  0  0  0
 20 21  1  0  0  0
 21 22  2  0  0  0
 22 23  1  0  0  0
 23 24  1  0  0  0
 24 25  2  0  0  0
 25 26  1  0  0  0
 11 14  1  0  0  0
 26 27  1  0  0  0
M  CHG 1   9   1
M  CHG 1  18   1
M  END
> <minimizedAffinity>
-8.42370

$$$$
5BWC_HBP_A_603


 27 28  0  0  0  0  0  0  0  0999 V2000
   58.0320  -36.6581    0.4536 C   0  0  0  0  0  0  0  0  0  0  0  0
   58.1950  -36.8553   -1.0490 C   0  0  0  0  0  0  0  0  0  0  0  0
   59.0106  -35.6803   -1.5800 C   0  0  0  0  0  0  0  0  0  0  0  0
   58.9700  -34.4748   -0.6593 C   0  0  0  0  0  0  0  0  0  0  0  0
   57.2207  -32.9700   -1.7542 C   0  0  0  0  0  0  0  0  0  0  0  0
   56.9286  -31.8296   -2.5030 C   0  0  0  0  0  0  0  0  0  0  0  0
   59.2613  -31.3206   -2.5906 C   0  0  0  0  0  0  0  0  0  0  0  0
   59.5463  -32.4614   -1.8458 C   0  0  0  0  0  0  0  0  0  0  0  0
   58.5707  -33.2808   -1.4306 N   0  0  0  0  0  0  0  0  0  0  0  0
   57.9519  -31.0007   -2.9160 C   0  0  0  0  0  0  0  0  0  0  0  0
   54.1333  -34.3275   -0.2887 O   0  0  0  0  0  0  0  0  0  0  0  0
   55.1450  -33.4385   -0.6372 N   0  0  0  0  0  0  0  0  0  0  0  0
   56.1149  -33.8591   -1.3216 C   0  0  0  0  0  0  0  0  0  0  0  0
   53.4043  -34.0315    0.2202 H   0  0  0  0  0  0  0  0  0  0  0  0
   56.7566  -37.2040    1.0775 C   0  0  0  0  0  0  0  0  0  0  0  0
   56.9115  -37.6172    2.5303 C   0  0  0  0  0  0  0  0  0  0  0  0
   57.0545  -36.4799    3.5563 C   0  0  0  0  0  0  0  0  0  0  0  0
   56.0406  -36.5457    4.6353 N   0  0  0  0  0  0  0  0  0  0  0  0
   56.3626  -37.2692    5.7277 C   0  0  0  0  0  0  0  0  0  0  0  0
   55.4835  -37.3906    6.7997 C   0  0  0  0  0  0  0  0  0  0  0  0
   54.2448  -36.7751    6.7562 C   0  0  0  0  0  0  0  0  0  0  0  0
   53.9131  -36.0410    5.6277 C   0  0  0  0  0  0  0  0  0  0  0  0
   54.8109  -35.9450    4.5559 C   0  0  0  0  0  0  0  0  0  0  0  0
   54.4077  -35.0841    3.4073 C   0  0  0  0  0  0  0  0  0  0  0  0
   54.5082  -33.8281    3.4680 N   0  0  0  0  0  0  0  0  0  0  0  0
   54.1803  -33.0910    2.3340 O   0  0  0  0  0  0  0  0  0  0  0  0
   54.2448  -32.1563    2.3480 H   0  0  0  0  0  0  0  0  0  0  0  0
  4  9  1  0  0  0
  4  3  1  0  0  0
  2  3  1  0  0  0
  2  1  1  0  0  0
 11 12  1  0  0  0
 12 13  2  0  0  0
 13  5  1  0  0  0
  5  6  2  0  0  0
  5  9  1  0  0  0
  6 10  1  0  0  0
  7  8  1  0  0  0
  7 10  2  0  0  0
  8  9  2  0  0  0
  1 15  1  0  0  0
 15 16  1  0  0  0
 16 17  1  0  0  0
 17 18  1  0  0  0
 18 19  1  0  0  0
 18 23  2  0  0  0
 19 20  2  0  0  0
 20 21  1  0  0  0
 21 22  2  0  0  0
 22 23  1  0  0  0
 23 24  1  0  0  0
 24 25  2  0  0  0
 25 26  1  0  0  0
 11 14  1  0  0  0
 26 27  1  0  0  0
M  CHG 1   9   1
M  CHG 1  18   1
M  END
> <minimizedAffinity>
-8.42092

$$$$
5BWC_HBP_A_603


 27 28  0  0  0  0  0  0  0  0999 V2000
   56.4827  -37.1441    1.2908 C   0  0  0  0  0  0  0  0  0  0  0  0
   55.2913  -36.3797    0.7256 C   0  0  0  0  0  0  0  0  0  0  0  0
   54.2960  -36.1750    1.8637 C   0  0  0  0  0  0  0  0  0  0  0  0
   54.6648  -35.0094    2.7626 C   0  0  0  0  0  0  0  0  0  0  0  0
   52.7538  -33.4977    3.5284 C   0  0  0  0  0  0  0  0  0  0  0  0
   51.8708  -32.4552    3.2457 C   0  0  0  0  0  0  0  0  0  0  0  0
   52.8703  -32.2277    1.0876 C   0  0  0  0  0  0  0  0  0  0  0  0
   53.7465  -33.2704    1.3746 C   0  0  0  0  0  0  0  0  0  0  0  0
   53.7066  -33.9056    2.5538 N   0  0  0  0  0  0  0  0  0  0  0  0
   51.9347  -31.8157    2.0244 C   0  0  0  0  0  0  0  0  0  0  0  0
   52.7620  -34.2876    7.1199 O   0  0  0  0  0  0  0  0  0  0  0  0
   52.8796  -33.5816    5.9269 N   0  0  0  0  0  0  0  0  0  0  0  0
   52.6723  -34.1845    4.8407 C   0  0  0  0  0  0  0  0  0  0  0  0
   52.9127  -33.8548    7.9371 H   0  0  0  0  0  0  0  0  0  0  0  0
   57.7388  -37.1777    0.4335 C   0  0  0  0  0  0  0  0  0  0  0  0
   57.6220  -36.3885   -0.8584 C   0  0  0  0  0  0  0  0  0  0  0  0
   58.8380  -35.5327   -1.2528 C   0  0  0  0  0  0  0  0  0  0  0  0
   58.4972  -34.1043   -1.4536 N   0  0  0  0  0  0  0  0  0  0  0  0
   57.1897  -33.8074   -1.6044 C   0  0  0  0  0  0  0  0  0  0  0  0
   56.7629  -32.4964   -1.7935 C   0  0  0  0  0  0  0  0  0  0  0  0
   57.6848  -31.4655   -1.8438 C   0  0  0  0  0  0  0  0  0  0  0  0
   59.0285  -31.7754   -1.6988 C   0  0  0  0  0  0  0  0  0  0  0  0
   59.4336  -33.1055   -1.5229 C   0  0  0  0  0  0  0  0  0  0  0  0
   60.8888  -33.3494   -1.3086 C   0  0  0  0  0  0  0  0  0  0  0  0
   61.5995  -32.5276   -0.6678 N   0  0  0  0  0  0  0  0  0  0  0  0
   62.9342  -32.8529   -0.4450 O   0  0  0  0  0  0  0  0  0  0  0  0
   63.4877  -32.2628    0.0278 H   0  0  0  0  0  0  0  0  0  0  0  0
  4  9  1  0  0  0
  4  3  1  0  0  0
  2  3  1  0  0  0
  2  1  1  0  0  0
 11 12  1  0  0  0
 12 13  2  0  0  0
 13  5  1  0  0  0
  5  6  2  0  0  0
  5  9  1  0  0  0
  6 10  1  0  0  0
  7  8  1  0  0  0
  7 10  2  0  0  0
  8  9  2  0  0  0
  1 15  1  0  0  0
 15 16  1  0  0  0
 16 17  1  0  0  0
 17 18  1  0  0  0
 18 19  1  0  0  0
 18 23  2  0  0  0
 19 20  2  0  0  0
 20 21  1  0  0  0
 21 22  2  0  0  0
 22 23  1  0  0  0
 23 24  1  0  0  0
 24 25  2  0  0  0
 25 26  1  0  0  0
 11 14  1  0  0  0
 26 27  1  0  0  0
M  CHG 1   9   1
M  CHG 1  18   1
M  END
> <minimizedAffinity>
-8.26983

$$$$
