6IIU_A8X_A_9001
  RCSB PDB12151803183D
Coordinates from PDB:6IIU:A:9001 Model:1 without hydrogens
 29 32  0  0  0  0            999 V2000
   20.0300  162.9740  145.3630   F 0  0  0  0  0  0  0  0  0  0  0  0
   27.6380  163.1300  147.9760   C 0  0  0  0  0  0  0  0  0  0  0  0
   26.1910  162.8780  147.4460   C 0  0  0  0  0  0  0  0  0  0  0  0
   21.1990  162.4210  145.5920   C 0  0  0  0  0  0  0  0  0  0  0  0
   21.6040  162.2650  146.9250   C 0  0  0  0  0  0  0  0  0  0  0  0
   22.8290  161.6490  147.1490   C 0  0  0  0  0  0  0  0  0  0  0  0
   21.9940  161.9690  144.4880   C 0  0  0  0  0  0  0  0  0  0  0  0
   23.2320  161.3520  144.7420   C 0  0  0  0  0  0  0  0  0  0  0  0
   23.6680  161.1980  146.0810   C 0  0  0  0  0  0  0  0  0  0  0  0
   25.1490  160.5580  146.4060   S 0  0  0  0  0  0  0  0  0  0  0  0
   25.1330  160.0270  147.7230   O 0  0  0  0  0  0  0  0  0  0  0  0
   25.6240  159.7470  145.3490   O 0  0  0  0  0  0  0  0  0  0  0  0
   26.1490  161.8670  146.4270   N 0  0  0  0  0  0  0  0  0  0  0  0
   25.5250  164.1940  146.9370   C 0  0  0  0  0  0  0  0  0  0  0  0
   25.2540  165.1110  148.1490   C 0  0  0  0  0  0  0  0  0  0  0  0
   26.4840  165.1640  149.0410   C 0  0  0  0  0  0  0  0  0  0  0  0
   27.5440  164.2500  148.9830   C 0  0  0  0  0  0  0  0  0  0  0  0
   28.4530  164.5740  150.0160   C 0  0  0  0  0  0  0  0  0  0  0  0
   27.9150  165.7280  150.6990   C 0  0  0  0  0  0  0  0  0  0  0  0
   28.5910  166.2640  151.8260   C 0  0  0  0  0  0  0  0  0  0  0  0
   29.7820  165.6320  152.2440   C 0  0  0  0  0  0  0  0  0  0  0  0
   30.3190  164.5030  151.5670   C 0  0  0  0  0  0  0  0  0  0  0  0
   29.6700  163.9720  150.4570   C 0  0  0  0  0  0  0  0  0  0  0  0
   26.6930  166.1300  150.0760   N 0  0  0  0  0  0  0  0  0  0  0  0
   26.5660  167.5440  149.6260   C 0  0  0  0  0  0  0  0  0  0  0  0
   25.8340  168.5000  150.5180   C 0  0  0  0  0  0  0  0  0  0  0  0
   26.9050  169.2800  151.2160   C 0  0  0  0  0  0  0  0  0  0  0  0
   27.6790  170.0800  150.7260   O 0  0  0  0  0  0  0  0  0  0  0  0
   27.0660  169.0670  152.5150   O 0  0  0  0  0  0  0  0  0  0  0  0
  7  8  2  0  0  0  0
  7  4  1  0  0  0  0
  8  9  1  0  0  0  0
 12 10  2  0  0  0  0
  1  4  1  0  0  0  0
  4  5  2  0  0  0  0
  9 10  1  0  0  0  0
  9  6  2  0  0  0  0
 10 13  1  0  0  0  0
 10 11  2  0  0  0  0
 13  3  1  0  0  0  0
  5  6  1  0  0  0  0
 14  3  1  0  0  0  0
 14 15  1  0  0  0  0
  3  2  1  0  0  0  0
  2 17  1  0  0  0  0
 15 16  1  0  0  0  0
 17 16  2  0  0  0  0
 17 18  1  0  0  0  0
 16 24  1  0  0  0  0
 25 24  1  0  0  0  0
 25 26  1  0  0  0  0
 18 23  2  0  0  0  0
 18 19  1  0  0  0  0
 24 19  1  0  0  0  0
 23 22  1  0  0  0  0
 26 27  1  0  0  0  0
 19 20  2  0  0  0  0
 28 27  2  0  0  0  0
 27 29  1  0  0  0  0
 22 21  2  0  0  0  0
 20 21  1  0  0  0  0
A    1
F
A    2
C11
A    3
C12
A    4
C16
A    5
C15
A    6
C14
A    7
C17
A    8
C18
A    9
C13
A   10
S
A   11
O2
A   12
O3
A   13
N1
A   14
C19
A   15
C20
A   16
C3
A   17
C4
A   18
C5
A   19
C10
A   20
C9
A   21
C8
A   22
C7
A   23
C6
A   24
N
A   25
C2
A   26
C1
A   27
C
A   28
O
A   29
O1
M  END
>  <InstanceId>
6IIU_A8X_A_9001

>  <ChemCompId>
A8X

>  <PdbId>
6IIU

>  <ChainId>
A

>  <ResidueNumber>
9001

>  <InsertionCode>


>  <Model>
1

>  <AltIds>


>  <MissingHeavyAtoms>
0

>  <ObservedFormula>
C21 N2 O4 S F

>  <Name>
3-[(3R)-3-[(4-fluorophenyl)sulfonylamino]-1,2,3,4-tetrahydrocarbazol-9-yl]propanoic acid

>  <SystematicName>
3-[(3~{R})-3-[(4-fluorophenyl)sulfonylamino]-1,2,3,4-tetrahydrocarbazol-9-yl]propanoic acid

>  <Synonyms>
Ramatroban

>  <Type>
NON-POLYMER

>  <Formula>
C21 H21 F N2 O4 S

>  <MolecularWeight>
416.466

>  <ModifiedDate>
2018-12-14

>  <Parent>


>  <OneLetterCode>


>  <SubcomponentList>


>  <AmbiguousFlag>
N

>  <InChI>
InChI=1S/C21H21FN2O4S/c22-14-5-8-16(9-6-14)29(27,28)23-15-7-10-20-18(13-15)17-3-1-2-4-19(17)24(20)12-11-21(25)26/h1-6,8-9,15,23H,7,10-13H2,(H,25,26)/t15-/m1/s1

>  <InChIKey>
LDXDSHIEDAPSSA-OAHLLOKOSA-N

>  <SMILES>
c1ccc2c(c1)c3c(n2CCC(=O)O)CC[C@H](C3)NS(=O)(=O)c4ccc(cc4)F

$$$$
