6IIU_A8X_A_9001


 31 34  0  0  0  0  0  0  0  0999 V2000
   27.7335  163.1144  148.1061 C   0  0  0  0  0  0  0  0  0  0  0  0
   26.3001  162.8451  147.5482 C   0  0  0  0  0  0  0  0  0  0  0  0
   25.6298  164.1525  147.0229 C   0  0  0  0  0  0  0  0  0  0  0  0
   25.3248  165.0692  148.2270 C   0  0  0  0  0  0  0  0  0  0  0  0
   26.5363  165.1379  149.1430 C   0  0  0  0  0  0  0  0  0  0  0  0
   27.6072  164.2356  149.1082 C   0  0  0  0  0  0  0  0  0  0  0  0
   28.4920  164.5720  150.1581 C   0  0  0  0  0  0  0  0  0  0  0  0
   27.9279  165.7215  150.8275 C   0  0  0  0  0  0  0  0  0  0  0  0
   28.5755  166.2675  151.9663 C   0  0  0  0  0  0  0  0  0  0  0  0
   29.7649  165.6497  152.4093 C   0  0  0  0  0  0  0  0  0  0  0  0
   30.3276  164.5252  151.7458 C   0  0  0  0  0  0  0  0  0  0  0  0
   29.7066  163.9845  150.6246 C   0  0  0  0  0  0  0  0  0  0  0  0
   26.7141  166.1085  150.1795 N   0  0  0  0  0  0  0  0  0  0  0  0
   26.2894  161.8314  146.5311 N   0  0  0  0  0  0  0  0  0  0  0  0
   26.0994  162.3276  145.6604 H   0  0  0  0  0  0  0  0  0  0  0  0
   25.3095  160.5075  146.4974 S   0  0  0  0  0  0  0  0  0  0  0  0
   25.2110  160.0303  147.8313 O   0  0  0  0  0  0  0  0  0  0  0  0
   25.8651  159.6616  145.5093 O   0  0  0  0  0  0  0  0  0  0  0  0
   20.2498  162.8056  144.9984 F   0  0  0  0  0  0  0  0  0  0  0  0
   21.4056  162.2785  145.3317 C   0  0  0  0  0  0  0  0  0  0  0  0
   21.7614  162.2752  146.6877 C   0  0  0  0  0  0  0  0  0  0  0  0
   22.9728  161.6847  147.0254 C   0  0  0  0  0  0  0  0  0  0  0  0
   22.2362  161.6999  144.3166 C   0  0  0  0  0  0  0  0  0  0  0  0
   23.4595  161.1119  144.6846 C   0  0  0  0  0  0  0  0  0  0  0  0
   23.8461  161.1111  146.0474 C   0  0  0  0  0  0  0  0  0  0  0  0
   26.5804  167.5200  149.7235 C   0  0  0  0  0  0  0  0  0  0  0  0
   25.9180  168.4952  150.6485 C   0  0  0  0  0  0  0  0  0  0  0  0
   27.0095  169.4243  151.0823 C   0  0  0  0  0  0  0  0  0  0  0  0
   27.0098  170.1716  152.0418 O   0  0  0  0  0  0  0  0  0  0  0  0
   28.1004  169.4767  150.3300 O   0  0  0  0  0  0  0  0  0  0  0  0
   28.1739  168.9299  149.5727 H   0  0  0  0  0  0  0  0  0  0  0  0
 23 24  2  0  0  0
 23 20  1  0  0  0
 24 25  1  0  0  0
 18 16  2  0  0  0
 19 20  1  0  0  0
 20 21  2  0  0  0
 25 16  1  0  0  0
 25 22  2  0  0  0
 16 14  1  0  0  0
 16 17  2  0  0  0
 14  2  1  0  0  0
 21 22  1  0  0  0
  3  2  1  0  0  0
  3  4  1  0  0  0
  2  1  1  0  0  0
  1  6  1  0  0  0
  4  5  1  0  0  0
  6  5  2  0  0  0
  6  7  1  0  0  0
  5 13  1  0  0  0
 26 13  1  0  0  0
 26 27  1  0  0  0
  7 12  2  0  0  0
  7  8  1  0  0  0
 13  8  1  0  0  0
 12 11  1  0  0  0
 27 28  1  0  0  0
  8  9  2  0  0  0
 29 28  2  0  0  0
 28 30  1  0  0  0
 11 10  2  0  0  0
  9 10  1  0  0  0
 14 15  1  0  0  0
 30 31  1  0  0  0
M  END
> <minimizedAffinity>
-11.78190

$$$$
6IIU_A8X_A_9001


 31 34  0  0  0  0  0  0  0  0999 V2000
   26.1099  164.7426  148.2635 C   0  0  0  0  0  0  0  0  0  0  0  0
   26.9564  163.6714  147.5057 C   0  0  0  0  0  0  0  0  0  0  0  0
   27.6241  162.6612  148.4896 C   0  0  0  0  0  0  0  0  0  0  0  0
   28.7135  163.4023  149.2941 C   0  0  0  0  0  0  0  0  0  0  0  0
   28.1681  164.7275  149.8018 C   0  0  0  0  0  0  0  0  0  0  0  0
   27.0104  165.3465  149.3130 C   0  0  0  0  0  0  0  0  0  0  0  0
   26.8756  166.5923  149.9673 C   0  0  0  0  0  0  0  0  0  0  0  0
   27.9872  166.7054  150.8834 C   0  0  0  0  0  0  0  0  0  0  0  0
   28.1506  167.8833  151.6582 C   0  0  0  0  0  0  0  0  0  0  0  0
   27.2041  168.9179  151.4950 C   0  0  0  0  0  0  0  0  0  0  0  0
   26.1035  168.8045  150.6022 C   0  0  0  0  0  0  0  0  0  0  0  0
   25.9280  167.6527  149.8420 C   0  0  0  0  0  0  0  0  0  0  0  0
   28.7907  165.5254  150.8136 N   0  0  0  0  0  0  0  0  0  0  0  0
   26.1923  162.9729  146.5104 N   0  0  0  0  0  0  0  0  0  0  0  0
   25.4329  163.6069  146.2620 H   0  0  0  0  0  0  0  0  0  0  0  0
   25.4814  161.4986  146.6975 S   0  0  0  0  0  0  0  0  0  0  0  0
   25.4352  161.2343  148.0920 O   0  0  0  0  0  0  0  0  0  0  0  0
   26.2157  160.6255  145.8614 O   0  0  0  0  0  0  0  0  0  0  0  0
   20.1256  162.5134  144.8496 F   0  0  0  0  0  0  0  0  0  0  0  0
   21.3497  162.2780  145.2631 C   0  0  0  0  0  0  0  0  0  0  0  0
   21.6594  162.5631  146.6003 C   0  0  0  0  0  0  0  0  0  0  0  0
   22.9499  162.2777  147.0284 C   0  0  0  0  0  0  0  0  0  0  0  0
   22.3042  161.7116  144.3558 C   0  0  0  0  0  0  0  0  0  0  0  0
   23.6051  161.4358  144.8134 C   0  0  0  0  0  0  0  0  0  0  0  0
   23.9443  161.7303  146.1569 C   0  0  0  0  0  0  0  0  0  0  0  0
   29.0753  164.7935  152.0791 C   0  0  0  0  0  0  0  0  0  0  0  0
   27.9093  164.3515  152.9101 C   0  0  0  0  0  0  0  0  0  0  0  0
   28.1758  164.8989  154.2783 C   0  0  0  0  0  0  0  0  0  0  0  0
   28.2005  166.0664  154.6183 O   0  0  0  0  0  0  0  0  0  0  0  0
   28.4488  164.0284  155.2407 O   0  0  0  0  0  0  0  0  0  0  0  0
   28.4491  163.1099  155.0554 H   0  0  0  0  0  0  0  0  0  0  0  0
 23 24  2  0  0  0
 23 20  1  0  0  0
 24 25  1  0  0  0
 18 16  2  0  0  0
 19 20  1  0  0  0
 20 21  2  0  0  0
 25 16  1  0  0  0
 25 22  2  0  0  0
 16 14  1  0  0  0
 16 17  2  0  0  0
 14  2  1  0  0  0
 21 22  1  0  0  0
  3  2  1  0  0  0
  3  4  1  0  0  0
  2  1  1  0  0  0
  1  6  1  0  0  0
  4  5  1  0  0  0
  6  5  2  0  0  0
  6  7  1  0  0  0
  5 13  1  0  0  0
 26 13  1  0  0  0
 26 27  1  0  0  0
  7 12  2  0  0  0
  7  8  1  0  0  0
 13  8  1  0  0  0
 12 11  1  0  0  0
 27 28  1  0  0  0
  8  9  2  0  0  0
 29 28  2  0  0  0
 28 30  1  0  0  0
 11 10  2  0  0  0
  9 10  1  0  0  0
 14 15  1  0  0  0
 30 31  1  0  0  0
M  END
> <minimizedAffinity>
-9.80740

$$$$
6IIU_A8X_A_9001


 31 34  0  0  0  0  0  0  0  0999 V2000
   27.2579  164.9087  149.5767 C   0  0  0  0  0  0  0  0  0  0  0  0
   28.4997  163.9878  149.3575 C   0  0  0  0  0  0  0  0  0  0  0  0
   29.1811  163.6058  150.7081 C   0  0  0  0  0  0  0  0  0  0  0  0
   29.8361  164.8696  151.3055 C   0  0  0  0  0  0  0  0  0  0  0  0
   28.8644  166.0367  151.2349 C   0  0  0  0  0  0  0  0  0  0  0  0
   27.7185  166.0652  150.4296 C   0  0  0  0  0  0  0  0  0  0  0  0
   27.1220  167.3392  150.5691 C   0  0  0  0  0  0  0  0  0  0  0  0
   27.9393  168.0834  151.4996 C   0  0  0  0  0  0  0  0  0  0  0  0
   27.6151  169.4303  151.8084 C   0  0  0  0  0  0  0  0  0  0  0  0
   26.4880  169.9996  151.1774 C   0  0  0  0  0  0  0  0  0  0  0  0
   25.6760  169.2659  150.2698 C   0  0  0  0  0  0  0  0  0  0  0  0
   25.9788  167.9430  149.9638 C   0  0  0  0  0  0  0  0  0  0  0  0
   29.0208  167.2655  151.9517 N   0  0  0  0  0  0  0  0  0  0  0  0
   28.1806  162.8076  148.6043 N   0  0  0  0  0  0  0  0  0  0  0  0
   29.0332  162.2477  148.6096 H   0  0  0  0  0  0  0  0  0  0  0  0
   27.6488  162.7711  147.0455 S   0  0  0  0  0  0  0  0  0  0  0  0
   28.3029  161.6829  146.4093 O   0  0  0  0  0  0  0  0  0  0  0  0
   27.8627  164.0791  146.5514 O   0  0  0  0  0  0  0  0  0  0  0  0
   22.0184  161.6135  147.3420 F   0  0  0  0  0  0  0  0  0  0  0  0
   23.3050  161.8687  147.2752 C   0  0  0  0  0  0  0  0  0  0  0  0
   23.7093  163.2105  147.2396 C   0  0  0  0  0  0  0  0  0  0  0  0
   25.0752  163.4618  147.2016 C   0  0  0  0  0  0  0  0  0  0  0  0
   24.2407  160.7825  147.2777 C   0  0  0  0  0  0  0  0  0  0  0  0
   25.6179  161.0642  147.2348 C   0  0  0  0  0  0  0  0  0  0  0  0
   26.0484  162.4127  147.1828 C   0  0  0  0  0  0  0  0  0  0  0  0
   29.2077  167.0964  153.4195 C   0  0  0  0  0  0  0  0  0  0  0  0
   30.5885  167.2716  153.9747 C   0  0  0  0  0  0  0  0  0  0  0  0
   30.7630  168.7512  154.1262 C   0  0  0  0  0  0  0  0  0  0  0  0
   30.0232  169.5310  154.6951 O   0  0  0  0  0  0  0  0  0  0  0  0
   31.8262  169.3013  153.5555 O   0  0  0  0  0  0  0  0  0  0  0  0
   32.4428  168.7643  153.0980 H   0  0  0  0  0  0  0  0  0  0  0  0
 23 24  2  0  0  0
 23 20  1  0  0  0
 24 25  1  0  0  0
 18 16  2  0  0  0
 19 20  1  0  0  0
 20 21  2  0  0  0
 25 16  1  0  0  0
 25 22  2  0  0  0
 16 14  1  0  0  0
 16 17  2  0  0  0
 14  2  1  0  0  0
 21 22  1  0  0  0
  3  2  1  0  0  0
  3  4  1  0  0  0
  2  1  1  0  0  0
  1  6  1  0  0  0
  4  5  1  0  0  0
  6  5  2  0  0  0
  6  7  1  0  0  0
  5 13  1  0  0  0
 26 13  1  0  0  0
 26 27  1  0  0  0
  7 12  2  0  0  0
  7  8  1  0  0  0
 13  8  1  0  0  0
 12 11  1  0  0  0
 27 28  1  0  0  0
  8  9  2  0  0  0
 29 28  2  0  0  0
 28 30  1  0  0  0
 11 10  2  0  0  0
  9 10  1  0  0  0
 14 15  1  0  0  0
 30 31  1  0  0  0
M  END
> <minimizedAffinity>
-9.71538

$$$$
6IIU_A8X_A_9001


 31 34  0  0  0  0  0  0  0  0999 V2000
   27.5098  164.6836  149.6969 C   0  0  0  0  0  0  0  0  0  0  0  0
   28.6810  163.7049  149.3673 C   0  0  0  0  0  0  0  0  0  0  0  0
   29.3940  163.2012  150.6605 C   0  0  0  0  0  0  0  0  0  0  0  0
   30.1518  164.3847  151.2995 C   0  0  0  0  0  0  0  0  0  0  0  0
   29.2531  165.6102  151.3417 C   0  0  0  0  0  0  0  0  0  0  0  0
   28.0780  165.7564  150.5933 C   0  0  0  0  0  0  0  0  0  0  0  0
   27.5691  167.0531  150.8340 C   0  0  0  0  0  0  0  0  0  0  0  0
   28.4703  167.6889  151.7674 C   0  0  0  0  0  0  0  0  0  0  0  0
   28.2446  169.0314  152.1686 C   0  0  0  0  0  0  0  0  0  0  0  0
   27.1295  169.7048  151.6246 C   0  0  0  0  0  0  0  0  0  0  0  0
   26.2353  169.0778  150.7143 C   0  0  0  0  0  0  0  0  0  0  0  0
   26.4412  167.7602  150.3183 C   0  0  0  0  0  0  0  0  0  0  0  0
   29.5166  166.7814  152.1207 N   0  0  0  0  0  0  0  0  0  0  0  0
   28.2567  162.5940  148.5623 N   0  0  0  0  0  0  0  0  0  0  0  0
   29.0640  161.9721  148.5172 H   0  0  0  0  0  0  0  0  0  0  0  0
   27.6909  162.6811  147.0176 S   0  0  0  0  0  0  0  0  0  0  0  0
   28.2842  161.6106  146.2975 O   0  0  0  0  0  0  0  0  0  0  0  0
   27.9499  164.0085  146.6034 O   0  0  0  0  0  0  0  0  0  0  0  0
   22.0248  161.7315  147.3692 F   0  0  0  0  0  0  0  0  0  0  0  0
   23.3192  161.9391  147.2897 C   0  0  0  0  0  0  0  0  0  0  0  0
   23.7738  163.2652  147.2745 C   0  0  0  0  0  0  0  0  0  0  0  0
   25.1477  163.4653  147.2225 C   0  0  0  0  0  0  0  0  0  0  0  0
   24.2128  160.8186  147.2582 C   0  0  0  0  0  0  0  0  0  0  0  0
   25.5991  161.0487  147.2018 C   0  0  0  0  0  0  0  0  0  0  0  0
   26.0799  162.3808  147.1700 C   0  0  0  0  0  0  0  0  0  0  0  0
   29.7548  166.5124  153.5660 C   0  0  0  0  0  0  0  0  0  0  0  0
   28.5603  166.3967  154.4633 C   0  0  0  0  0  0  0  0  0  0  0  0
   28.2820  164.9281  154.5547 C   0  0  0  0  0  0  0  0  0  0  0  0
   28.9315  164.0853  155.1437 O   0  0  0  0  0  0  0  0  0  0  0  0
   27.2258  164.4658  153.8994 O   0  0  0  0  0  0  0  0  0  0  0  0
   26.6761  165.0551  153.4214 H   0  0  0  0  0  0  0  0  0  0  0  0
 23 24  2  0  0  0
 23 20  1  0  0  0
 24 25  1  0  0  0
 18 16  2  0  0  0
 19 20  1  0  0  0
 20 21  2  0  0  0
 25 16  1  0  0  0
 25 22  2  0  0  0
 16 14  1  0  0  0
 16 17  2  0  0  0
 14  2  1  0  0  0
 21 22  1  0  0  0
  3  2  1  0  0  0
  3  4  1  0  0  0
  2  1  1  0  0  0
  1  6  1  0  0  0
  4  5  1  0  0  0
  6  5  2  0  0  0
  6  7  1  0  0  0
  5 13  1  0  0  0
 26 13  1  0  0  0
 26 27  1  0  0  0
  7 12  2  0  0  0
  7  8  1  0  0  0
 13  8  1  0  0  0
 12 11  1  0  0  0
 27 28  1  0  0  0
  8  9  2  0  0  0
 29 28  2  0  0  0
 28 30  1  0  0  0
 11 10  2  0  0  0
  9 10  1  0  0  0
 14 15  1  0  0  0
 30 31  1  0  0  0
M  END
> <minimizedAffinity>
-9.62518

$$$$
6IIU_A8X_A_9001


 31 34  0  0  0  0  0  0  0  0999 V2000
   26.5379  164.9803  149.3920 C   0  0  0  0  0  0  0  0  0  0  0  0
   27.4662  163.9038  148.7459 C   0  0  0  0  0  0  0  0  0  0  0  0
   28.3356  163.1734  149.8161 C   0  0  0  0  0  0  0  0  0  0  0  0
   29.3684  164.1731  150.3792 C   0  0  0  0  0  0  0  0  0  0  0  0
   28.6846  165.4903  150.7090 C   0  0  0  0  0  0  0  0  0  0  0  0
   27.4207  165.8663  150.2364 C   0  0  0  0  0  0  0  0  0  0  0  0
   27.1640  167.1823  150.6844 C   0  0  0  0  0  0  0  0  0  0  0  0
   28.3130  167.5913  151.4592 C   0  0  0  0  0  0  0  0  0  0  0  0
   28.3689  168.8988  152.0085 C   0  0  0  0  0  0  0  0  0  0  0  0
   27.2803  169.7641  151.7662 C   0  0  0  0  0  0  0  0  0  0  0  0
   26.1439  169.3603  151.0132 C   0  0  0  0  0  0  0  0  0  0  0  0
   26.0734  168.0794  150.4752 C   0  0  0  0  0  0  0  0  0  0  0  0
   29.2635  166.5250  151.5105 N   0  0  0  0  0  0  0  0  0  0  0  0
   26.7352  162.9517  147.9576 N   0  0  0  0  0  0  0  0  0  0  0  0
   27.4110  162.5826  147.2887 H   0  0  0  0  0  0  0  0  0  0  0  0
   25.3803  163.2663  147.0749 S   0  0  0  0  0  0  0  0  0  0  0  0
   25.7384  164.2289  146.0941 O   0  0  0  0  0  0  0  0  0  0  0  0
   24.3881  163.5985  148.0266 O   0  0  0  0  0  0  0  0  0  0  0  0
   24.3154  158.3692  144.2442 F   0  0  0  0  0  0  0  0  0  0  0  0
   24.5645  159.4822  144.8954 C   0  0  0  0  0  0  0  0  0  0  0  0
   23.7867  160.6091  144.5950 C   0  0  0  0  0  0  0  0  0  0  0  0
   24.0428  161.7686  145.3163 C   0  0  0  0  0  0  0  0  0  0  0  0
   25.5844  159.4970  145.9027 C   0  0  0  0  0  0  0  0  0  0  0  0
   25.8262  160.6847  146.6159 C   0  0  0  0  0  0  0  0  0  0  0  0
   25.0625  161.8400  146.3179 C   0  0  0  0  0  0  0  0  0  0  0  0
   29.7365  166.0694  152.8472 C   0  0  0  0  0  0  0  0  0  0  0  0
   28.8419  165.1610  153.6346 C   0  0  0  0  0  0  0  0  0  0  0  0
   28.4399  165.9568  154.8379 C   0  0  0  0  0  0  0  0  0  0  0  0
   27.7418  165.5963  155.7662 O   0  0  0  0  0  0  0  0  0  0  0  0
   28.8578  167.2136  154.9051 O   0  0  0  0  0  0  0  0  0  0  0  0
   29.4001  167.5639  154.2261 H   0  0  0  0  0  0  0  0  0  0  0  0
 23 24  2  0  0  0
 23 20  1  0  0  0
 24 25  1  0  0  0
 18 16  2  0  0  0
 19 20  1  0  0  0
 20 21  2  0  0  0
 25 16  1  0  0  0
 25 22  2  0  0  0
 16 14  1  0  0  0
 16 17  2  0  0  0
 14  2  1  0  0  0
 21 22  1  0  0  0
  3  2  1  0  0  0
  3  4  1  0  0  0
  2  1  1  0  0  0
  1  6  1  0  0  0
  4  5  1  0  0  0
  6  5  2  0  0  0
  6  7  1  0  0  0
  5 13  1  0  0  0
 26 13  1  0  0  0
 26 27  1  0  0  0
  7 12  2  0  0  0
  7  8  1  0  0  0
 13  8  1  0  0  0
 12 11  1  0  0  0
 27 28  1  0  0  0
  8  9  2  0  0  0
 29 28  2  0  0  0
 28 30  1  0  0  0
 11 10  2  0  0  0
  9 10  1  0  0  0
 14 15  1  0  0  0
 30 31  1  0  0  0
M  END
> <minimizedAffinity>
-9.45353

$$$$
6IIU_A8X_A_9001


 31 34  0  0  0  0  0  0  0  0999 V2000
   27.2051  163.5999  151.1402 C   0  0  0  0  0  0  0  0  0  0  0  0
   27.0556  164.4884  149.8648 C   0  0  0  0  0  0  0  0  0  0  0  0
   28.3282  165.3550  149.6123 C   0  0  0  0  0  0  0  0  0  0  0  0
   28.4265  166.4233  150.7224 C   0  0  0  0  0  0  0  0  0  0  0  0
   28.1878  165.7806  152.0794 C   0  0  0  0  0  0  0  0  0  0  0  0
   27.6070  164.5197  152.2670 C   0  0  0  0  0  0  0  0  0  0  0  0
   27.4750  164.3057  153.6581 C   0  0  0  0  0  0  0  0  0  0  0  0
   28.0087  165.4776  154.3134 C   0  0  0  0  0  0  0  0  0  0  0  0
   27.9714  165.5775  155.7287 C   0  0  0  0  0  0  0  0  0  0  0  0
   27.3986  164.5088  156.4514 C   0  0  0  0  0  0  0  0  0  0  0  0
   26.8825  163.3499  155.8094 C   0  0  0  0  0  0  0  0  0  0  0  0
   26.9193  163.2364  154.4234 C   0  0  0  0  0  0  0  0  0  0  0  0
   28.4906  166.3999  153.3335 N   0  0  0  0  0  0  0  0  0  0  0  0
   26.7313  163.7194  148.6962 N   0  0  0  0  0  0  0  0  0  0  0  0
   27.5921  163.6866  148.1498 H   0  0  0  0  0  0  0  0  0  0  0  0
   25.5426  164.0677  147.6102 S   0  0  0  0  0  0  0  0  0  0  0  0
   26.0974  164.9679  146.6622 O   0  0  0  0  0  0  0  0  0  0  0  0
   24.4417  164.4916  148.3905 O   0  0  0  0  0  0  0  0  0  0  0  0
   24.5876  159.1295  144.8118 F   0  0  0  0  0  0  0  0  0  0  0  0
   24.8118  160.2520  145.4555 C   0  0  0  0  0  0  0  0  0  0  0  0
   24.0011  161.3559  145.1565 C   0  0  0  0  0  0  0  0  0  0  0  0
   24.2316  162.5255  145.8702 C   0  0  0  0  0  0  0  0  0  0  0  0
   25.8394  160.2996  146.4540 C   0  0  0  0  0  0  0  0  0  0  0  0
   26.0548  161.4970  147.1595 C   0  0  0  0  0  0  0  0  0  0  0  0
   25.2574  162.6295  146.8626 C   0  0  0  0  0  0  0  0  0  0  0  0
   29.8946  166.8820  153.4531 C   0  0  0  0  0  0  0  0  0  0  0  0
   30.1847  168.2988  153.0607 C   0  0  0  0  0  0  0  0  0  0  0  0
   30.9315  168.8798  154.2215 C   0  0  0  0  0  0  0  0  0  0  0  0
   30.4796  169.5340  155.1418 O   0  0  0  0  0  0  0  0  0  0  0  0
   32.2446  168.6975  154.2545 O   0  0  0  0  0  0  0  0  0  0  0  0
   32.6661  168.2034  153.5791 H   0  0  0  0  0  0  0  0  0  0  0  0
 23 24  2  0  0  0
 23 20  1  0  0  0
 24 25  1  0  0  0
 18 16  2  0  0  0
 19 20  1  0  0  0
 20 21  2  0  0  0
 25 16  1  0  0  0
 25 22  2  0  0  0
 16 14  1  0  0  0
 16 17  2  0  0  0
 14  2  1  0  0  0
 21 22  1  0  0  0
  3  2  1  0  0  0
  3  4  1  0  0  0
  2  1  1  0  0  0
  1  6  1  0  0  0
  4  5  1  0  0  0
  6  5  2  0  0  0
  6  7  1  0  0  0
  5 13  1  0  0  0
 26 13  1  0  0  0
 26 27  1  0  0  0
  7 12  2  0  0  0
  7  8  1  0  0  0
 13  8  1  0  0  0
 12 11  1  0  0  0
 27 28  1  0  0  0
  8  9  2  0  0  0
 29 28  2  0  0  0
 28 30  1  0  0  0
 11 10  2  0  0  0
  9 10  1  0  0  0
 14 15  1  0  0  0
 30 31  1  0  0  0
M  END
> <minimizedAffinity>
-9.21033

$$$$
6IIU_A8X_A_9001


 31 34  0  0  0  0  0  0  0  0999 V2000
   27.1617  163.1988  148.4203 C   0  0  0  0  0  0  0  0  0  0  0  0
   27.2244  164.7539  148.5461 C   0  0  0  0  0  0  0  0  0  0  0  0
   25.8880  165.3434  149.0946 C   0  0  0  0  0  0  0  0  0  0  0  0
   24.7925  165.1649  148.0217 C   0  0  0  0  0  0  0  0  0  0  0  0
   24.8409  163.7509  147.4652 C   0  0  0  0  0  0  0  0  0  0  0  0
   25.9244  162.8764  147.6188 C   0  0  0  0  0  0  0  0  0  0  0  0
   25.6348  161.6961  146.8967 C   0  0  0  0  0  0  0  0  0  0  0  0
   24.3284  161.8774  146.3068 C   0  0  0  0  0  0  0  0  0  0  0  0
   23.7796  160.8669  145.4748 C   0  0  0  0  0  0  0  0  0  0  0  0
   24.5502  159.7058  145.2500 C   0  0  0  0  0  0  0  0  0  0  0  0
   25.8313  159.5205  145.8380 C   0  0  0  0  0  0  0  0  0  0  0  0
   26.3777  160.5001  146.6609 C   0  0  0  0  0  0  0  0  0  0  0  0
   23.8029  163.1524  146.6827 N   0  0  0  0  0  0  0  0  0  0  0  0
   28.3333  165.1948  149.3452 N   0  0  0  0  0  0  0  0  0  0  0  0
   28.9616  165.6662  148.6945 H   0  0  0  0  0  0  0  0  0  0  0  0
   29.3045  164.2323  150.2640 S   0  0  0  0  0  0  0  0  0  0  0  0
   30.6056  164.8002  150.2275 O   0  0  0  0  0  0  0  0  0  0  0  0
   29.1159  162.9254  149.7569 O   0  0  0  0  0  0  0  0  0  0  0  0
   27.1753  164.6150  155.5978 F   0  0  0  0  0  0  0  0  0  0  0  0
   27.6686  164.5323  154.3834 C   0  0  0  0  0  0  0  0  0  0  0  0
   26.8621  163.9747  153.3815 C   0  0  0  0  0  0  0  0  0  0  0  0
   27.3883  163.9247  152.0966 C   0  0  0  0  0  0  0  0  0  0  0  0
   28.9827  165.0411  154.1196 C   0  0  0  0  0  0  0  0  0  0  0  0
   29.4933  164.9750  152.8109 C   0  0  0  0  0  0  0  0  0  0  0  0
   28.7015  164.4013  151.7860 C   0  0  0  0  0  0  0  0  0  0  0  0
   22.4565  163.1977  147.3176 C   0  0  0  0  0  0  0  0  0  0  0  0
   21.4268  162.2158  146.8474 C   0  0  0  0  0  0  0  0  0  0  0  0
   20.6972  162.9150  145.7422 C   0  0  0  0  0  0  0  0  0  0  0  0
   19.7709  163.6967  145.8430 O   0  0  0  0  0  0  0  0  0  0  0  0
   21.0680  162.6419  144.4986 O   0  0  0  0  0  0  0  0  0  0  0  0
   21.7752  162.0479  144.3403 H   0  0  0  0  0  0  0  0  0  0  0  0
 23 24  2  0  0  0
 23 20  1  0  0  0
 24 25  1  0  0  0
 18 16  2  0  0  0
 19 20  1  0  0  0
 20 21  2  0  0  0
 25 16  1  0  0  0
 25 22  2  0  0  0
 16 14  1  0  0  0
 16 17  2  0  0  0
 14  2  1  0  0  0
 21 22  1  0  0  0
  3  2  1  0  0  0
  3  4  1  0  0  0
  2  1  1  0  0  0
  1  6  1  0  0  0
  4  5  1  0  0  0
  6  5  2  0  0  0
  6  7  1  0  0  0
  5 13  1  0  0  0
 26 13  1  0  0  0
 26 27  1  0  0  0
  7 12  2  0  0  0
  7  8  1  0  0  0
 13  8  1  0  0  0
 12 11  1  0  0  0
 27 28  1  0  0  0
  8  9  2  0  0  0
 29 28  2  0  0  0
 28 30  1  0  0  0
 11 10  2  0  0  0
  9 10  1  0  0  0
 14 15  1  0  0  0
 30 31  1  0  0  0
M  END
> <minimizedAffinity>
-8.80864

$$$$
6IIU_A8X_A_9001


 31 34  0  0  0  0  0  0  0  0999 V2000
   26.6972  162.9318  148.0526 C   0  0  0  0  0  0  0  0  0  0  0  0
   26.7273  164.4925  148.0902 C   0  0  0  0  0  0  0  0  0  0  0  0
   25.3425  165.0873  148.4941 C   0  0  0  0  0  0  0  0  0  0  0  0
   24.3401  164.8258  147.3495 C   0  0  0  0  0  0  0  0  0  0  0  0
   24.4537  163.3830  146.8839 C   0  0  0  0  0  0  0  0  0  0  0  0
   25.5336  162.5397  147.1755 C   0  0  0  0  0  0  0  0  0  0  0  0
   25.3203  161.3141  146.5040 C   0  0  0  0  0  0  0  0  0  0  0  0
   24.0634  161.4357  145.8019 C   0  0  0  0  0  0  0  0  0  0  0  0
   23.5982  160.3682  144.9904 C   0  0  0  0  0  0  0  0  0  0  0  0
   24.4011  159.2109  144.8974 C   0  0  0  0  0  0  0  0  0  0  0  0
   25.6329  159.0847  145.5959 C   0  0  0  0  0  0  0  0  0  0  0  0
   26.0969  160.1208  146.4000 C   0  0  0  0  0  0  0  0  0  0  0  0
   23.4910  162.7202  146.0580 N   0  0  0  0  0  0  0  0  0  0  0  0
   27.7614  165.0001  148.9476 N   0  0  0  0  0  0  0  0  0  0  0  0
   28.5841  164.4345  148.7388 H   0  0  0  0  0  0  0  0  0  0  0  0
   27.6989  165.0825  150.5918 S   0  0  0  0  0  0  0  0  0  0  0  0
   28.9410  164.5963  151.0790 O   0  0  0  0  0  0  0  0  0  0  0  0
   26.5117  164.4026  150.9509 O   0  0  0  0  0  0  0  0  0  0  0  0
   27.1895  170.6977  151.7488 F   0  0  0  0  0  0  0  0  0  0  0  0
   27.3132  169.4161  151.4902 C   0  0  0  0  0  0  0  0  0  0  0  0
   26.4439  168.8473  150.5488 C   0  0  0  0  0  0  0  0  0  0  0  0
   26.6105  167.4976  150.2642 C   0  0  0  0  0  0  0  0  0  0  0  0
   28.3420  168.6607  152.1430 C   0  0  0  0  0  0  0  0  0  0  0  0
   28.4869  167.2951  151.8398 C   0  0  0  0  0  0  0  0  0  0  0  0
   27.6093  166.6961  150.9029 C   0  0  0  0  0  0  0  0  0  0  0  0
   22.0971  162.7767  146.5794 C   0  0  0  0  0  0  0  0  0  0  0  0
   21.0041  162.2200  145.7188 C   0  0  0  0  0  0  0  0  0  0  0  0
   20.0246  163.3414  145.5584 C   0  0  0  0  0  0  0  0  0  0  0  0
   19.2956  163.8168  146.4079 O   0  0  0  0  0  0  0  0  0  0  0  0
   19.8993  163.8731  144.3500 O   0  0  0  0  0  0  0  0  0  0  0  0
   20.4276  163.5590  143.6428 H   0  0  0  0  0  0  0  0  0  0  0  0
 23 24  2  0  0  0
 23 20  1  0  0  0
 24 25  1  0  0  0
 18 16  2  0  0  0
 19 20  1  0  0  0
 20 21  2  0  0  0
 25 16  1  0  0  0
 25 22  2  0  0  0
 16 14  1  0  0  0
 16 17  2  0  0  0
 14  2  1  0  0  0
 21 22  1  0  0  0
  3  2  1  0  0  0
  3  4  1  0  0  0
  2  1  1  0  0  0
  1  6  1  0  0  0
  4  5  1  0  0  0
  6  5  2  0  0  0
  6  7  1  0  0  0
  5 13  1  0  0  0
 26 13  1  0  0  0
 26 27  1  0  0  0
  7 12  2  0  0  0
  7  8  1  0  0  0
 13  8  1  0  0  0
 12 11  1  0  0  0
 27 28  1  0  0  0
  8  9  2  0  0  0
 29 28  2  0  0  0
 28 30  1  0  0  0
 11 10  2  0  0  0
  9 10  1  0  0  0
 14 15  1  0  0  0
 30 31  1  0  0  0
M  END
> <minimizedAffinity>
-8.78922

$$$$
