1B8Y_IN7_A_502


 28 30  0  0  0  0  0  0  0  0999 V2000
   16.7718    8.8135   18.7712 C   0  0  0  0  0  0  0  0  0  0  0  0
   16.2141    7.5581   18.4386 C   0  0  0  0  0  0  0  0  0  0  0  0
   15.6978    6.7252   19.4349 C   0  0  0  0  0  0  0  0  0  0  0  0
   16.8498    9.2084   20.1291 C   0  0  0  0  0  0  0  0  0  0  0  0
   15.7032    7.1695   20.7654 C   0  0  0  0  0  0  0  0  0  0  0  0
   16.3222    8.3789   21.1396 C   0  0  0  0  0  0  0  0  0  0  0  0
   18.3695    9.6495   15.4797 C   0  0  0  0  0  0  0  0  0  0  0  0
   18.7810   11.0801   15.7993 C   0  0  0  0  0  0  0  0  0  0  0  0
   18.7228   11.6087   17.2225 C   0  0  0  0  0  0  0  0  0  0  0  0
   17.5757   11.0327   18.0273 C   0  0  0  0  0  0  0  0  0  0  0  0
   17.2506    9.6162   17.7564 N   0  0  0  0  0  0  0  0  0  0  0  0
   17.2334    9.1425   16.3614 C   0  0  0  0  0  0  0  0  0  0  0  0
   20.5391   13.5469   12.7878 C   0  0  0  0  0  0  0  0  0  0  0  0
   19.3148   12.9065   12.5275 C   0  0  0  0  0  0  0  0  0  0  0  0
   18.7515   12.0750   13.5195 C   0  0  0  0  0  0  0  0  0  0  0  0
   19.4177   11.8929   14.7534 C   0  0  0  0  0  0  0  0  0  0  0  0
   20.6639   12.5179   14.9957 C   0  0  0  0  0  0  0  0  0  0  0  0
   21.2217   13.3591   14.0085 C   0  0  0  0  0  0  0  0  0  0  0  0
   14.9394    4.7768   21.5376 O   0  0  0  0  0  0  0  0  0  0  0  0
   14.8514    6.1492   21.9344 S   0  0  0  0  0  0  0  0  0  0  0  0
   15.2758    6.5559   23.2288 O   0  0  0  0  0  0  0  0  0  0  0  0
   13.1762    6.5168   22.0486 N   0  0  0  0  0  0  0  0  0  0  0  0
   13.0004    7.2363   21.3473 H   0  0  0  0  0  0  0  0  0  0  0  0
   12.1318    5.5362   21.8776 C   0  0  0  0  0  0  0  0  0  0  0  0
   10.5448    7.2827   22.2923 O   0  0  0  0  0  0  0  0  0  0  0  0
   10.8637    6.2232   21.5404 C   0  0  0  0  0  0  0  0  0  0  0  0
   10.2187    5.8365   20.6323 O   0  0  0  0  0  0  0  0  0  0  0  0
   11.1015    7.5387   23.0012 H   0  0  0  0  0  0  0  0  0  0  0  0
  1  2  2  0  0  0
  1  4  1  0  0  0
  1 11  1  0  0  0
  2  3  1  0  0  0
  3  5  2  0  0  0
  7  8  1  0  0  0
  7 12  1  0  0  0
  4  6  2  0  0  0
 19 20  2  0  0  0
  5  6  1  0  0  0
  5 20  1  0  0  0
 25 26  1  0  0  0
 20 21  2  0  0  0
 20 22  1  0  0  0
  8  9  1  0  0  0
  8 16  1  0  0  0
  9 10  1  0  0  0
 10 11  1  0  0  0
 11 12  1  0  0  0
 13 14  2  0  0  0
 13 18  1  0  0  0
 14 15  1  0  0  0
 15 16  2  0  0  0
 16 17  1  0  0  0
 17 18  2  0  0  0
 22 24  1  0  0  0
 24 26  1  0  0  0
 26 27  2  0  0  0
 25 28  1  0  0  0
 22 23  1  0  0  0
M  END
> <minimizedAffinity>
-11.78819

$$$$
1B8Y_IN7_A_502


 28 30  0  0  0  0  0  0  0  0999 V2000
   16.6079    8.6434   18.8144 C   0  0  0  0  0  0  0  0  0  0  0  0
   16.5910    9.0928   20.1544 C   0  0  0  0  0  0  0  0  0  0  0  0
   16.1002    8.2703   21.1720 C   0  0  0  0  0  0  0  0  0  0  0  0
   16.0801    7.3683   18.4959 C   0  0  0  0  0  0  0  0  0  0  0  0
   15.6625    6.9767   20.8515 C   0  0  0  0  0  0  0  0  0  0  0  0
   15.5925    6.5280   19.5175 C   0  0  0  0  0  0  0  0  0  0  0  0
   18.2691    9.5797   15.5819 C   0  0  0  0  0  0  0  0  0  0  0  0
   18.7156   10.9826   15.9697 C   0  0  0  0  0  0  0  0  0  0  0  0
   18.6539   11.4491   17.4144 C   0  0  0  0  0  0  0  0  0  0  0  0
   17.4815   10.8701   18.1795 C   0  0  0  0  0  0  0  0  0  0  0  0
   17.1212    9.4766   17.8420 N   0  0  0  0  0  0  0  0  0  0  0  0
   17.1086    9.0659   16.4272 C   0  0  0  0  0  0  0  0  0  0  0  0
   20.7555   13.3166   13.0310 C   0  0  0  0  0  0  0  0  0  0  0  0
   21.3553   13.1087   14.2855 C   0  0  0  0  0  0  0  0  0  0  0  0
   20.6649   12.3551   15.2591 C   0  0  0  0  0  0  0  0  0  0  0  0
   19.3874   11.8230   14.9684 C   0  0  0  0  0  0  0  0  0  0  0  0
   18.7784   12.0618   13.7136 C   0  0  0  0  0  0  0  0  0  0  0  0
   19.4739   12.8052   12.7354 C   0  0  0  0  0  0  0  0  0  0  0  0
   15.8814    4.6558   22.0640 O   0  0  0  0  0  0  0  0  0  0  0  0
   15.2482    5.9302   22.2176 S   0  0  0  0  0  0  0  0  0  0  0  0
   15.4400    6.6946   23.4008 O   0  0  0  0  0  0  0  0  0  0  0  0
   13.5611    5.6243   22.3392 N   0  0  0  0  0  0  0  0  0  0  0  0
   13.1766    6.3960   22.8842 H   0  0  0  0  0  0  0  0  0  0  0  0
   12.6933    5.4784   21.1958 C   0  0  0  0  0  0  0  0  0  0  0  0
   11.3967    7.0105   22.5043 O   0  0  0  0  0  0  0  0  0  0  0  0
   11.4138    6.1768   21.4583 C   0  0  0  0  0  0  0  0  0  0  0  0
   10.4967    5.9957   20.7398 O   0  0  0  0  0  0  0  0  0  0  0  0
   12.1611    7.1094   23.0372 H   0  0  0  0  0  0  0  0  0  0  0  0
  1  2  2  0  0  0
  1  4  1  0  0  0
  1 11  1  0  0  0
  2  3  1  0  0  0
  3  5  2  0  0  0
  7  8  1  0  0  0
  7 12  1  0  0  0
  4  6  2  0  0  0
 19 20  2  0  0  0
  5  6  1  0  0  0
  5 20  1  0  0  0
 25 26  1  0  0  0
 20 21  2  0  0  0
 20 22  1  0  0  0
  8  9  1  0  0  0
  8 16  1  0  0  0
  9 10  1  0  0  0
 10 11  1  0  0  0
 11 12  1  0  0  0
 13 14  2  0  0  0
 13 18  1  0  0  0
 14 15  1  0  0  0
 15 16  2  0  0  0
 16 17  1  0  0  0
 17 18  2  0  0  0
 22 24  1  0  0  0
 24 26  1  0  0  0
 26 27  2  0  0  0
 25 28  1  0  0  0
 22 23  1  0  0  0
M  END
> <minimizedAffinity>
-11.73048

$$$$
1B8Y_IN7_A_502


 28 30  0  0  0  0  0  0  0  0999 V2000
   16.6338    8.5204   18.9257 C   0  0  0  0  0  0  0  0  0  0  0  0
   16.6800    8.9147   20.2822 C   0  0  0  0  0  0  0  0  0  0  0  0
   16.1882    8.0720   21.2827 C   0  0  0  0  0  0  0  0  0  0  0  0
   16.0420    7.2824   18.5751 C   0  0  0  0  0  0  0  0  0  0  0  0
   15.6855    6.8119   20.9264 C   0  0  0  0  0  0  0  0  0  0  0  0
   15.5527    6.4217   19.5788 C   0  0  0  0  0  0  0  0  0  0  0  0
   18.1370    9.5296   15.6381 C   0  0  0  0  0  0  0  0  0  0  0  0
   18.7368   10.8584   16.0765 C   0  0  0  0  0  0  0  0  0  0  0  0
   18.8222   11.2279   17.5478 C   0  0  0  0  0  0  0  0  0  0  0  0
   17.6598   10.7014   18.3644 C   0  0  0  0  0  0  0  0  0  0  0  0
   17.1500    9.3710   17.9699 N   0  0  0  0  0  0  0  0  0  0  0  0
   16.9981    9.0613   16.5376 C   0  0  0  0  0  0  0  0  0  0  0  0
   20.6022   13.4232   13.2152 C   0  0  0  0  0  0  0  0  0  0  0  0
   19.3540   12.8488   12.9170 C   0  0  0  0  0  0  0  0  0  0  0  0
   18.7546   11.9846   13.8584 C   0  0  0  0  0  0  0  0  0  0  0  0
   19.4090   11.7044   15.0802 C   0  0  0  0  0  0  0  0  0  0  0  0
   20.6786   12.2634   15.3596 C   0  0  0  0  0  0  0  0  0  0  0  0
   21.2728   13.1374   14.4235 C   0  0  0  0  0  0  0  0  0  0  0  0
   15.2056    6.4678   23.4869 O   0  0  0  0  0  0  0  0  0  0  0  0
   15.2719    5.7281   22.2634 S   0  0  0  0  0  0  0  0  0  0  0  0
   14.1691    4.9401   21.8345 O   0  0  0  0  0  0  0  0  0  0  0  0
   16.4380    4.4888   22.5060 N   0  0  0  0  0  0  0  0  0  0  0  0
   16.2442    4.1007   23.4291 H   0  0  0  0  0  0  0  0  0  0  0  0
   16.5912    3.3556   21.6262 C   0  0  0  0  0  0  0  0  0  0  0  0
   18.9705    3.5293   21.8486 O   0  0  0  0  0  0  0  0  0  0  0  0
   17.9376    3.3911   21.0099 C   0  0  0  0  0  0  0  0  0  0  0  0
   18.0435    3.2725   19.8416 O   0  0  0  0  0  0  0  0  0  0  0  0
   18.8181    3.6194   22.7687 H   0  0  0  0  0  0  0  0  0  0  0  0
  1  2  2  0  0  0
  1  4  1  0  0  0
  1 11  1  0  0  0
  2  3  1  0  0  0
  3  5  2  0  0  0
  7  8  1  0  0  0
  7 12  1  0  0  0
  4  6  2  0  0  0
 19 20  2  0  0  0
  5  6  1  0  0  0
  5 20  1  0  0  0
 25 26  1  0  0  0
 20 21  2  0  0  0
 20 22  1  0  0  0
  8  9  1  0  0  0
  8 16  1  0  0  0
  9 10  1  0  0  0
 10 11  1  0  0  0
 11 12  1  0  0  0
 13 14  2  0  0  0
 13 18  1  0  0  0
 14 15  1  0  0  0
 15 16  2  0  0  0
 16 17  1  0  0  0
 17 18  2  0  0  0
 22 24  1  0  0  0
 24 26  1  0  0  0
 26 27  2  0  0  0
 25 28  1  0  0  0
 22 23  1  0  0  0
M  END
> <minimizedAffinity>
-11.42444

$$$$
1B8Y_IN7_A_502


 28 30  0  0  0  0  0  0  0  0999 V2000
   16.9071    8.9424   18.5651 C   0  0  0  0  0  0  0  0  0  0  0  0
   16.8115    9.4220   19.8912 C   0  0  0  0  0  0  0  0  0  0  0  0
   16.0902    8.7092   20.8528 C   0  0  0  0  0  0  0  0  0  0  0  0
   16.2275    7.7552   18.1982 C   0  0  0  0  0  0  0  0  0  0  0  0
   15.4965    7.4899   20.4943 C   0  0  0  0  0  0  0  0  0  0  0  0
   15.5062    7.0244   19.1643 C   0  0  0  0  0  0  0  0  0  0  0  0
   18.4707   11.9721   16.9962 C   0  0  0  0  0  0  0  0  0  0  0  0
   18.6687   11.4092   15.5956 C   0  0  0  0  0  0  0  0  0  0  0  0
   18.0180   10.0999   15.1822 C   0  0  0  0  0  0  0  0  0  0  0  0
   17.9226    9.0969   16.3136 C   0  0  0  0  0  0  0  0  0  0  0  0
   17.6470    9.6636   17.6509 N   0  0  0  0  0  0  0  0  0  0  0  0
   18.3500   10.8906   18.0643 C   0  0  0  0  0  0  0  0  0  0  0  0
   20.6998   13.6968   12.6146 C   0  0  0  0  0  0  0  0  0  0  0  0
   21.3148   13.4867   13.8614 C   0  0  0  0  0  0  0  0  0  0  0  0
   20.6275   12.7487   14.8491 C   0  0  0  0  0  0  0  0  0  0  0  0
   19.3382   12.2341   14.5800 C   0  0  0  0  0  0  0  0  0  0  0  0
   18.7145   12.4753   13.3329 C   0  0  0  0  0  0  0  0  0  0  0  0
   19.4066   13.2031   12.3405 C   0  0  0  0  0  0  0  0  0  0  0  0
   15.2294    7.0587   23.0726 O   0  0  0  0  0  0  0  0  0  0  0  0
   14.7773    6.5526   21.8124 S   0  0  0  0  0  0  0  0  0  0  0  0
   13.3875    6.4422   21.5345 O   0  0  0  0  0  0  0  0  0  0  0  0
   15.2155    4.8911   21.7692 N   0  0  0  0  0  0  0  0  0  0  0  0
   15.2493    4.6374   20.7818 H   0  0  0  0  0  0  0  0  0  0  0  0
   16.4292    4.3718   22.3513 C   0  0  0  0  0  0  0  0  0  0  0  0
   18.5048    3.3976   21.6557 O   0  0  0  0  0  0  0  0  0  0  0  0
   17.3623    3.9775   21.2708 C   0  0  0  0  0  0  0  0  0  0  0  0
   17.0579    4.1606   20.1466 O   0  0  0  0  0  0  0  0  0  0  0  0
   18.6871    3.2812   22.5674 H   0  0  0  0  0  0  0  0  0  0  0  0
  1  2  2  0  0  0
  1  4  1  0  0  0
  1 11  1  0  0  0
  2  3  1  0  0  0
  3  5  2  0  0  0
  7  8  1  0  0  0
  7 12  1  0  0  0
  4  6  2  0  0  0
 19 20  2  0  0  0
  5  6  1  0  0  0
  5 20  1  0  0  0
 25 26  1  0  0  0
 20 21  2  0  0  0
 20 22  1  0  0  0
  8  9  1  0  0  0
  8 16  1  0  0  0
  9 10  1  0  0  0
 10 11  1  0  0  0
 11 12  1  0  0  0
 13 14  2  0  0  0
 13 18  1  0  0  0
 14 15  1  0  0  0
 15 16  2  0  0  0
 16 17  1  0  0  0
 17 18  2  0  0  0
 22 24  1  0  0  0
 24 26  1  0  0  0
 26 27  2  0  0  0
 25 28  1  0  0  0
 22 23  1  0  0  0
M  END
> <minimizedAffinity>
-11.24990

$$$$
1B8Y_IN7_A_502


 28 30  0  0  0  0  0  0  0  0999 V2000
   16.8174    8.7791   18.7429 C   0  0  0  0  0  0  0  0  0  0  0  0
   16.6621    9.3114   20.0430 C   0  0  0  0  0  0  0  0  0  0  0  0
   15.9277    8.6192   21.0097 C   0  0  0  0  0  0  0  0  0  0  0  0
   16.1844    7.5580   18.4051 C   0  0  0  0  0  0  0  0  0  0  0  0
   15.3811    7.3689   20.6845 C   0  0  0  0  0  0  0  0  0  0  0  0
   15.4503    6.8480   19.3770 C   0  0  0  0  0  0  0  0  0  0  0  0
   18.4191   11.7746   17.1469 C   0  0  0  0  0  0  0  0  0  0  0  0
   18.6168   11.1940   15.7535 C   0  0  0  0  0  0  0  0  0  0  0  0
   17.9540    9.8871   15.3520 C   0  0  0  0  0  0  0  0  0  0  0  0
   17.8435    8.8978   16.4940 C   0  0  0  0  0  0  0  0  0  0  0  0
   17.5685    9.4822   17.8238 N   0  0  0  0  0  0  0  0  0  0  0  0
   18.2828   10.7063   18.2265 C   0  0  0  0  0  0  0  0  0  0  0  0
   20.5126   13.6464   12.8147 C   0  0  0  0  0  0  0  0  0  0  0  0
   19.2562   13.0806   12.5352 C   0  0  0  0  0  0  0  0  0  0  0  0
   18.6465   12.2531   13.5027 C   0  0  0  0  0  0  0  0  0  0  0  0
   19.2989   12.0006   14.7316 C   0  0  0  0  0  0  0  0  0  0  0  0
   20.5764   12.5503   14.9927 C   0  0  0  0  0  0  0  0  0  0  0  0
   21.1811   13.3877   14.0302 C   0  0  0  0  0  0  0  0  0  0  0  0
   15.3319    6.7528   23.2385 O   0  0  0  0  0  0  0  0  0  0  0  0
   14.6425    6.4676   22.0170 S   0  0  0  0  0  0  0  0  0  0  0  0
   13.2370    6.6572   21.9190 O   0  0  0  0  0  0  0  0  0  0  0  0
   14.7224    4.7646   21.7987 N   0  0  0  0  0  0  0  0  0  0  0  0
   15.2223    4.4027   22.6109 H   0  0  0  0  0  0  0  0  0  0  0  0
   13.5587    3.9254   21.6461 C   0  0  0  0  0  0  0  0  0  0  0  0
   13.9050    2.5700   19.7009 O   0  0  0  0  0  0  0  0  0  0  0  0
   13.3266    3.6651   20.2066 C   0  0  0  0  0  0  0  0  0  0  0  0
   12.6394    4.3973   19.5887 O   0  0  0  0  0  0  0  0  0  0  0  0
   14.4408    2.0287   20.2466 H   0  0  0  0  0  0  0  0  0  0  0  0
  1  2  2  0  0  0
  1  4  1  0  0  0
  1 11  1  0  0  0
  2  3  1  0  0  0
  3  5  2  0  0  0
  7  8  1  0  0  0
  7 12  1  0  0  0
  4  6  2  0  0  0
 19 20  2  0  0  0
  5  6  1  0  0  0
  5 20  1  0  0  0
 25 26  1  0  0  0
 20 21  2  0  0  0
 20 22  1  0  0  0
  8  9  1  0  0  0
  8 16  1  0  0  0
  9 10  1  0  0  0
 10 11  1  0  0  0
 11 12  1  0  0  0
 13 14  2  0  0  0
 13 18  1  0  0  0
 14 15  1  0  0  0
 15 16  2  0  0  0
 16 17  1  0  0  0
 17 18  2  0  0  0
 22 24  1  0  0  0
 24 26  1  0  0  0
 26 27  2  0  0  0
 25 28  1  0  0  0
 22 23  1  0  0  0
M  END
> <minimizedAffinity>
-10.78339

$$$$
1B8Y_IN7_A_502


 28 30  0  0  0  0  0  0  0  0999 V2000
   15.2527    7.1119   20.0714 C   0  0  0  0  0  0  0  0  0  0  0  0
   15.9866    8.1039   20.7607 C   0  0  0  0  0  0  0  0  0  0  0  0
   16.8823    8.9284   20.0746 C   0  0  0  0  0  0  0  0  0  0  0  0
   15.4623    6.9223   18.6836 C   0  0  0  0  0  0  0  0  0  0  0  0
   17.0129    8.7858   18.6853 C   0  0  0  0  0  0  0  0  0  0  0  0
   16.3563    7.7563   17.9816 C   0  0  0  0  0  0  0  0  0  0  0  0
   14.0867    4.7397   22.7356 C   0  0  0  0  0  0  0  0  0  0  0  0
   12.8187    4.2527   22.0479 C   0  0  0  0  0  0  0  0  0  0  0  0
   12.5554    4.5665   20.5848 C   0  0  0  0  0  0  0  0  0  0  0  0
   13.0853    5.9206   20.1596 C   0  0  0  0  0  0  0  0  0  0  0  0
   14.3618    6.3332   20.7808 N   0  0  0  0  0  0  0  0  0  0  0  0
   14.5653    6.0925   22.2200 C   0  0  0  0  0  0  0  0  0  0  0  0
   10.1468    1.5657   24.0192 C   0  0  0  0  0  0  0  0  0  0  0  0
   10.1083    2.9346   24.3375 C   0  0  0  0  0  0  0  0  0  0  0  0
   11.0099    3.8127   23.6981 C   0  0  0  0  0  0  0  0  0  0  0  0
   11.9365    3.3129   22.7541 C   0  0  0  0  0  0  0  0  0  0  0  0
   11.9881    1.9294   22.4615 C   0  0  0  0  0  0  0  0  0  0  0  0
   11.0785    1.0527   23.0918 C   0  0  0  0  0  0  0  0  0  0  0  0
   18.3161   11.0661   18.7654 O   0  0  0  0  0  0  0  0  0  0  0  0
   18.0098    9.9966   17.8648 S   0  0  0  0  0  0  0  0  0  0  0  0
   19.0496    9.2954   17.1954 O   0  0  0  0  0  0  0  0  0  0  0  0
   17.2219   10.7085   16.5132 N   0  0  0  0  0  0  0  0  0  0  0  0
   16.4633   11.2717   16.8977 H   0  0  0  0  0  0  0  0  0  0  0  0
   17.8920   11.5522   15.5536 C   0  0  0  0  0  0  0  0  0  0  0  0
   17.2569    9.7836   14.0672 O   0  0  0  0  0  0  0  0  0  0  0  0
   18.0993   10.7972   14.2964 C   0  0  0  0  0  0  0  0  0  0  0  0
   18.9563   11.1271   13.5569 O   0  0  0  0  0  0  0  0  0  0  0  0
   16.5961    9.5721   14.6969 H   0  0  0  0  0  0  0  0  0  0  0  0
  1  2  2  0  0  0
  1  4  1  0  0  0
  1 11  1  0  0  0
  2  3  1  0  0  0
  3  5  2  0  0  0
  7  8  1  0  0  0
  7 12  1  0  0  0
  4  6  2  0  0  0
 19 20  2  0  0  0
  5  6  1  0  0  0
  5 20  1  0  0  0
 25 26  1  0  0  0
 20 21  2  0  0  0
 20 22  1  0  0  0
  8  9  1  0  0  0
  8 16  1  0  0  0
  9 10  1  0  0  0
 10 11  1  0  0  0
 11 12  1  0  0  0
 13 14  2  0  0  0
 13 18  1  0  0  0
 14 15  1  0  0  0
 15 16  2  0  0  0
 16 17  1  0  0  0
 17 18  2  0  0  0
 22 24  1  0  0  0
 24 26  1  0  0  0
 26 27  2  0  0  0
 25 28  1  0  0  0
 22 23  1  0  0  0
M  END
> <minimizedAffinity>
-9.57521

$$$$
