2QNN_QN1_B_2501
  RCSB PDB12061706493D
Coordinates from PDB:2QNN:B:2501 Model:1 without hydrogens
 53 57  0  0  0  0            999 V2000
    5.4650  -14.7950  -15.7110   N 0  0  0  0  0  0  0  0  0  0  0  0
    6.6870  -14.4800  -15.2260   C 0  0  0  0  0  0  0  0  0  0  0  0
    7.7030  -15.5870  -15.1660   C 0  0  0  0  0  0  0  0  0  0  0  0
    8.9190  -15.3360  -14.5120   C 0  0  0  0  0  0  0  0  0  0  0  0
    9.8700  -16.3580  -14.4340   C 0  0  0  0  0  0  0  0  0  0  0  0
    9.5590  -17.6180  -14.9240   C 0  0  0  0  0  0  0  0  0  0  0  0
    8.3650  -17.8910  -15.6180   C 0  0  0  0  0  0  0  0  0  0  0  0
    7.4340  -16.8520  -15.7020   C 0  0  0  0  0  0  0  0  0  0  0  0
   10.7120  -18.9050  -14.7960   S 0  0  0  0  0  0  0  0  0  0  0  0
   11.0780  -18.9590  -13.3840   O 0  0  0  0  0  0  0  0  0  0  0  0
   10.0950  -20.0770  -15.4220   O 0  0  0  0  0  0  0  0  0  0  0  0
   12.1460  -18.5450  -15.6620   N 0  0  0  0  0  0  0  0  0  0  0  0
   13.3740  -18.2470  -14.9170   C 0  0  0  0  0  0  0  0  0  0  0  0
   14.1730  -19.5530  -14.6580   C 0  0  0  0  0  0  0  0  0  0  0  0
   15.5200  -19.6240  -15.0740   C 0  0  0  0  0  0  0  0  0  0  0  0
   16.2970  -20.7690  -14.8450   C 0  0  0  0  0  0  0  0  0  0  0  0
   15.7060  -21.8970  -14.2370   C 0  0  0  0  0  0  0  0  0  0  0  0
   16.5620  -23.1420  -13.9740   C 0  0  0  0  0  0  0  0  0  0  0  0
   16.0650  -24.2710  -14.5290   F 0  0  0  0  0  0  0  0  0  0  0  0
   17.8310  -22.9200  -14.4370   F 0  0  0  0  0  0  0  0  0  0  0  0
   16.6890  -23.2940  -12.6310   F 0  0  0  0  0  0  0  0  0  0  0  0
   14.3730  -21.8360  -13.8250   C 0  0  0  0  0  0  0  0  0  0  0  0
   13.6040  -20.6820  -14.0630   C 0  0  0  0  0  0  0  0  0  0  0  0
   12.0200  -18.6950  -17.1220   C 0  0  0  0  0  0  0  0  0  0  0  0
   12.7820  -17.6020  -17.8960   C 0  0  0  0  0  0  0  0  0  0  0  0
   14.1300  -18.1670  -18.2000   N 0  0  0  0  0  0  0  0  0  0  0  0
   14.0500  -19.6200  -18.2230   C 0  0  0  0  0  0  0  0  0  0  0  0
   12.7260  -20.0290  -17.5390   C 0  0  0  0  0  0  0  0  0  0  0  0
   11.9440  -20.8450  -18.4430   N 0  0  0  0  0  0  0  0  0  0  0  0
   11.4650  -20.4150  -19.7450   C 0  0  0  0  0  0  0  0  0  0  0  0
   10.1870  -19.6400  -19.8400   C 0  0  0  0  0  0  0  0  0  0  0  0
   10.1350  -18.6430  -20.8180   C 0  0  0  0  0  0  0  0  0  0  0  0
    8.9730  -17.9150  -21.0010   C 0  0  0  0  0  0  0  0  0  0  0  0
    7.8790  -18.1210  -20.1800   C 0  0  0  0  0  0  0  0  0  0  0  0
    6.6210  -17.2570  -20.4290   C 0  0  0  0  0  0  0  0  0  0  0  0
    7.0570  -16.0210  -20.8730   F 0  0  0  0  0  0  0  0  0  0  0  0
    5.9840  -17.8300  -21.4720   F 0  0  0  0  0  0  0  0  0  0  0  0
    5.9090  -17.0620  -19.3220   F 0  0  0  0  0  0  0  0  0  0  0  0
    7.9460  -19.0880  -19.1750   C 0  0  0  0  0  0  0  0  0  0  0  0
    9.1030  -19.8280  -18.9860   C 0  0  0  0  0  0  0  0  0  0  0  0
   11.7530  -22.4550  -18.0800   S 0  0  0  0  0  0  0  0  0  0  0  0
   13.2540  -23.1460  -18.7230   C 0  0  0  0  0  0  0  0  0  0  0  0
   13.3330  -23.4130  -20.0920   C 0  0  0  0  0  0  0  0  0  0  0  0
   14.5120  -23.9520  -20.6350   C 0  0  0  0  0  0  0  0  0  0  0  0
   15.5610  -24.2390  -19.7680   C 0  0  0  0  0  0  0  0  0  0  0  0
   16.8530  -24.7890  -20.3680   C 0  0  0  0  0  0  0  0  0  0  0  0
   17.1470  -24.4690  -21.5110   O 0  0  0  0  0  0  0  0  0  0  0  0
   17.6640  -25.5970  -19.6980   N 0  0  0  0  0  0  0  0  0  0  0  0
   15.4810  -23.9470  -18.4130   C 0  0  0  0  0  0  0  0  0  0  0  0
   14.3050  -23.4120  -17.8350   C 0  0  0  0  0  0  0  0  0  0  0  0
   10.6580  -22.9630  -18.8910   O 0  0  0  0  0  0  0  0  0  0  0  0
   11.7310  -22.6690  -16.6410   O 0  0  0  0  0  0  0  0  0  0  0  0
    6.9750  -13.3560  -14.8400   O 0  0  0  0  0  0  0  0  0  0  0  0
 47 46  2  0  0  0  0
 37 35  1  0  0  0  0
 33 32  2  0  0  0  0
 33 34  1  0  0  0  0
 36 35  1  0  0  0  0
 32 31  1  0  0  0  0
 44 43  2  0  0  0  0
 44 45  1  0  0  0  0
 35 34  1  0  0  0  0
 35 38  1  0  0  0  0
 46 45  1  0  0  0  0
 46 48  1  0  0  0  0
 34 39  2  0  0  0  0
 43 42  1  0  0  0  0
 31 30  1  0  0  0  0
 31 40  2  0  0  0  0
 45 49  2  0  0  0  0
 30 29  1  0  0  0  0
 39 40  1  0  0  0  0
 51 41  2  0  0  0  0
 42 41  1  0  0  0  0
 42 50  2  0  0  0  0
 29 41  1  0  0  0  0
 29 28  1  0  0  0  0
 49 50  1  0  0  0  0
 27 26  1  0  0  0  0
 27 28  1  0  0  0  0
 26 25  1  0  0  0  0
 41 52  2  0  0  0  0
 25 24  1  0  0  0  0
 28 24  1  0  0  0  0
 24 12  1  0  0  0  0
  1  2  1  0  0  0  0
  8  7  2  0  0  0  0
  8  3  1  0  0  0  0
 12 13  1  0  0  0  0
 12  9  1  0  0  0  0
  7  6  1  0  0  0  0
 11  9  2  0  0  0  0
  2  3  1  0  0  0  0
  2 53  2  0  0  0  0
  3  4  2  0  0  0  0
 15 16  2  0  0  0  0
 15 14  1  0  0  0  0
  6  9  1  0  0  0  0
  6  5  2  0  0  0  0
 13 14  1  0  0  0  0
 16 17  1  0  0  0  0
  9 10  2  0  0  0  0
 14 23  2  0  0  0  0
 19 18  1  0  0  0  0
  4  5  1  0  0  0  0
 20 18  1  0  0  0  0
 17 18  1  0  0  0  0
 17 22  2  0  0  0  0
 23 22  1  0  0  0  0
 18 21  1  0  0  0  0
A    1
N1
A    2
C8
A    3
C6
A    4
C2
A    5
C18
A    6
C27
A    7
C20
A    8
C5
A    9
S9
A   10
O40
A   11
O11
A   12
N32
A   13
C33
A   14
C34
A   15
C38
A   16
C39
A   17
C37
A   18
C10
A   19
F6
A   20
F5
A   21
F4
A   22
C36
A   23
C35
A   24
C24
A   25
C25
A   26
N22
A   27
C21
A   28
C23
A   29
N28
A   30
C7
A   31
C12
A   32
C14
A   33
C30
A   34
C31
A   35
C11
A   36
F3
A   37
F2
A   38
F1
A   39
C29
A   40
C13
A   41
S8
A   42
C26
A   43
C17
A   44
C1
A   45
C4
A   46
C9
A   47
O1
A   48
N2
A   49
C3
A   50
C19
A   51
O41
A   52
O10
A   53
O2
M  END
>  <InstanceId>
2QNN_QN1_B_2501

>  <ChemCompId>
QN1

>  <PdbId>
2QNN

>  <ChainId>
B

>  <ResidueNumber>
2501

>  <InsertionCode>


>  <Model>
1

>  <AltIds>


>  <MissingHeavyAtoms>
0

>  <ObservedFormula>
C34 N5 O6 S2 F6

>  <Name>
4,4'-[(3S,4S)-pyrrolidine-3,4-diylbis({[4-(trifluoromethyl)benzyl]imino}sulfonyl)]dibenzamide

>  <SystematicName>
4-[[(3S,4S)-4-[(4-aminocarbonylphenyl)sulfonyl-[[4-(trifluoromethyl)phenyl]methyl]amino]pyrrolidin-3-yl]-[[4-(trifluoromethyl)phenyl]methyl]sulfamoyl]benzamide

>  <Synonyms>


>  <Type>
NON-POLYMER

>  <Formula>
C34 H31 F6 N5 O6 S2

>  <MolecularWeight>
783.76

>  <ModifiedDate>
2011-06-04

>  <Parent>


>  <OneLetterCode>


>  <SubcomponentList>


>  <AmbiguousFlag>


>  <InChI>
InChI=1S/C34H31F6N5O6S2/c35-33(36,37)25-9-1-21(2-10-25)19-44(52(48,49)27-13-5-23(6-14-27)31(41)46)29-17-43-18-30(29)45(20-22-3-11-26(12-4-22)34(38,39)40)53(50,51)28-15-7-24(8-16-28)32(42)47/h1-16,29-30,43H,17-20H2,(H2,41,46)(H2,42,47)/t29-,30-/m0/s1

>  <InChIKey>
QVMBQAVVCRRZFT-KYJUHHDHSA-N

>  <SMILES>
c1cc(ccc1CN([C@H]2CNC[C@@H]2N(Cc3ccc(cc3)C(F)(F)F)S(=O)(=O)c4ccc(cc4)C(=O)N)S(=O)(=O)c5ccc(cc5)C(=O)N)C(F)(F)F

$$$$
