2QNN_QN1_B_2501


 58 62  0  0  0  0  0  0  0  0999 V2000
   11.8437  -19.9612  -17.1325 C   0  0  0  0  0  0  0  0  0  0  0  0
   12.5371  -19.3699  -18.3750 C   0  0  0  0  0  0  0  0  0  0  0  0
   12.0270  -17.9737  -18.5142 N   0  0  0  0  0  0  0  0  0  0  0  0
   11.5905  -17.4878  -17.2137 C   0  0  0  0  0  0  0  0  0  0  0  0
   11.4430  -18.7104  -16.2801 C   0  0  0  0  0  0  0  0  0  0  0  0
   12.7709  -17.3733  -18.8699 H   0  0  0  0  0  0  0  0  0  0  0  0
   10.6151  -20.7007  -17.4697 N   0  0  0  0  0  0  0  0  0  0  0  0
   10.8825  -22.3321  -17.9200 S   0  0  0  0  0  0  0  0  0  0  0  0
   10.3056  -22.4992  -19.2504 O   0  0  0  0  0  0  0  0  0  0  0  0
   10.4117  -23.1808  -16.8227 O   0  0  0  0  0  0  0  0  0  0  0  0
   15.2582  -23.2146  -18.4443 C   0  0  0  0  0  0  0  0  0  0  0  0
   14.7317  -23.1194  -17.1470 C   0  0  0  0  0  0  0  0  0  0  0  0
   13.3626  -22.8852  -16.9868 C   0  0  0  0  0  0  0  0  0  0  0  0
   12.5727  -22.6653  -18.1059 C   0  0  0  0  0  0  0  0  0  0  0  0
   13.0626  -22.7915  -19.4196 C   0  0  0  0  0  0  0  0  0  0  0  0
   14.4300  -23.0440  -19.5600 C   0  0  0  0  0  0  0  0  0  0  0  0
   17.5342  -22.9961  -17.6046 N   0  0  0  0  0  0  0  0  0  0  0  0
   16.7355  -23.4515  -18.5957 C   0  0  0  0  0  0  0  0  0  0  0  0
   17.1692  -24.0390  -19.5765 O   0  0  0  0  0  0  0  0  0  0  0  0
   17.1421  -22.5278  -16.8324 H   0  0  0  0  0  0  0  0  0  0  0  0
   18.5078  -23.1327  -17.6550 H   0  0  0  0  0  0  0  0  0  0  0  0
    9.2379  -20.2130  -17.3381 C   0  0  0  0  0  0  0  0  0  0  0  0
    8.8736  -19.3066  -18.5450 C   0  0  0  0  0  0  0  0  0  0  0  0
    8.1346  -18.1262  -18.3147 C   0  0  0  0  0  0  0  0  0  0  0  0
    7.7980  -17.2575  -19.3632 C   0  0  0  0  0  0  0  0  0  0  0  0
    8.1549  -17.5969  -20.6856 C   0  0  0  0  0  0  0  0  0  0  0  0
    8.8836  -18.7644  -20.9224 C   0  0  0  0  0  0  0  0  0  0  0  0
    9.2128  -19.6284  -19.8618 C   0  0  0  0  0  0  0  0  0  0  0  0
    7.7989  -16.6378  -21.8281 C   0  0  0  0  0  0  0  0  0  0  0  0
    8.1371  -15.3511  -21.5836 F   0  0  0  0  0  0  0  0  0  0  0  0
    8.4072  -17.0643  -22.9780 F   0  0  0  0  0  0  0  0  0  0  0  0
    6.4662  -16.7372  -22.0663 F   0  0  0  0  0  0  0  0  0  0  0  0
   12.2600  -18.5222  -15.1004 N   0  0  0  0  0  0  0  0  0  0  0  0
   11.5546  -17.8434  -13.7580 S   0  0  0  0  0  0  0  0  0  0  0  0
   12.1959  -16.5592  -13.5246 O   0  0  0  0  0  0  0  0  0  0  0  0
   11.4689  -18.8040  -12.6685 O   0  0  0  0  0  0  0  0  0  0  0  0
    9.9131  -17.5178  -14.3439 C   0  0  0  0  0  0  0  0  0  0  0  0
    9.6150  -16.2374  -14.8167 C   0  0  0  0  0  0  0  0  0  0  0  0
    8.3260  -15.9491  -15.2969 C   0  0  0  0  0  0  0  0  0  0  0  0
    7.3682  -16.9565  -15.2480 C   0  0  0  0  0  0  0  0  0  0  0  0
    7.6817  -18.2324  -14.7990 C   0  0  0  0  0  0  0  0  0  0  0  0
    8.9678  -18.5514  -14.3016 C   0  0  0  0  0  0  0  0  0  0  0  0
    5.9802  -16.6497  -15.8057 C   0  0  0  0  0  0  0  0  0  0  0  0
    5.1724  -17.5635  -15.8933 O   0  0  0  0  0  0  0  0  0  0  0  0
    5.6205  -15.4342  -16.1965 N   0  0  0  0  0  0  0  0  0  0  0  0
    4.7151  -15.2788  -16.5505 H   0  0  0  0  0  0  0  0  0  0  0  0
    6.2589  -14.6875  -16.1324 H   0  0  0  0  0  0  0  0  0  0  0  0
   13.6999  -18.7058  -15.0506 C   0  0  0  0  0  0  0  0  0  0  0  0
   14.2594  -20.0176  -14.5932 C   0  0  0  0  0  0  0  0  0  0  0  0
   15.5852  -20.2853  -14.9450 C   0  0  0  0  0  0  0  0  0  0  0  0
   16.1899  -21.4545  -14.5196 C   0  0  0  0  0  0  0  0  0  0  0  0
   15.4732  -22.3942  -13.8009 C   0  0  0  0  0  0  0  0  0  0  0  0
   14.1358  -22.1454  -13.4860 C   0  0  0  0  0  0  0  0  0  0  0  0
   13.5208  -20.9746  -13.9017 C   0  0  0  0  0  0  0  0  0  0  0  0
   16.2076  -23.6870  -13.3760 C   0  0  0  0  0  0  0  0  0  0  0  0
   17.0213  -24.0590  -14.4316 F   0  0  0  0  0  0  0  0  0  0  0  0
   17.0335  -23.3254  -12.3715 F   0  0  0  0  0  0  0  0  0  0  0  0
   15.3709  -24.6931  -13.1350 F   0  0  0  0  0  0  0  0  0  0  0  0
 44 43  2  0  0  0
 57 55  1  0  0  0
 51 50  2  0  0  0
 51 52  1  0  0  0
 56 55  1  0  0  0
 50 49  1  0  0  0
 39 38  2  0  0  0
 39 40  1  0  0  0
 55 52  1  0  0  0
 55 58  1  0  0  0
 43 40  1  0  0  0
 43 45  1  0  0  0
 52 53  2  0  0  0
 38 37  1  0  0  0
 49 48  1  0  0  0
 49 54  2  0  0  0
 40 41  2  0  0  0
 48 33  1  0  0  0
 53 54  1  0  0  0
 35 34  2  0  0  0
 37 34  1  0  0  0
 37 42  2  0  0  0
 33 34  1  0  0  0
 33  5  1  0  0  0
 41 42  1  0  0  0
  4  3  1  0  0  0
  4  5  1  0  0  0
  3  2  1  0  0  0
 34 36  2  0  0  0
  2  1  1  0  0  0
  5  1  1  0  0  0
  1  7  1  0  0  0
 17 18  1  0  0  0
 16 15  2  0  0  0
 16 11  1  0  0  0
  7 22  1  0  0  0
  7  8  1  0  0  0
 15 14  1  0  0  0
 10  8  2  0  0  0
 18 11  1  0  0  0
 18 19  2  0  0  0
 11 12  2  0  0  0
 24 25  2  0  0  0
 24 23  1  0  0  0
 14  8  1  0  0  0
 14 13  2  0  0  0
 22 23  1  0  0  0
 25 26  1  0  0  0
  8  9  2  0  0  0
 23 28  2  0  0  0
 30 29  1  0  0  0
 12 13  1  0  0  0
 31 29  1  0  0  0
 26 29  1  0  0  0
 26 27  2  0  0  0
 28 27  1  0  0  0
 29 32  1  0  0  0
 17 20  1  0  0  0
 17 21  1  0  0  0
  3  6  1  0  0  0
 45 46  1  0  0  0
 45 47  1  0  0  0
M  END
> <minimizedAffinity>
-11.02124

$$$$
2QNN_QN1_B_2501


 58 62  0  0  0  0  0  0  0  0999 V2000
   13.0116  -20.2546  -17.5311 C   0  0  0  0  0  0  0  0  0  0  0  0
   14.0769  -19.2557  -18.0227 C   0  0  0  0  0  0  0  0  0  0  0  0
   13.3944  -17.9318  -18.1236 N   0  0  0  0  0  0  0  0  0  0  0  0
   12.2568  -17.9052  -17.2161 C   0  0  0  0  0  0  0  0  0  0  0  0
   11.9501  -19.3625  -16.8037 C   0  0  0  0  0  0  0  0  0  0  0  0
   14.0487  -17.1912  -17.8711 H   0  0  0  0  0  0  0  0  0  0  0  0
   12.3410  -20.9558  -18.6395 N   0  0  0  0  0  0  0  0  0  0  0  0
   10.6635  -21.2057  -18.3954 S   0  0  0  0  0  0  0  0  0  0  0  0
   10.4399  -21.1671  -16.9535 O   0  0  0  0  0  0  0  0  0  0  0  0
   10.2761  -22.4007  -19.1492 O   0  0  0  0  0  0  0  0  0  0  0  0
    8.2114  -17.8166  -20.0390 C   0  0  0  0  0  0  0  0  0  0  0  0
    9.1303  -18.4644  -20.8789 C   0  0  0  0  0  0  0  0  0  0  0  0
    9.8624  -19.5447  -20.3769 C   0  0  0  0  0  0  0  0  0  0  0  0
    9.7310  -19.8961  -19.0414 C   0  0  0  0  0  0  0  0  0  0  0  0
    8.7917  -19.2915  -18.1846 C   0  0  0  0  0  0  0  0  0  0  0  0
    8.0558  -18.2254  -18.7091 C   0  0  0  0  0  0  0  0  0  0  0  0
    8.1655  -15.5751  -20.9909 N   0  0  0  0  0  0  0  0  0  0  0  0
    7.4449  -16.6474  -20.5926 C   0  0  0  0  0  0  0  0  0  0  0  0
    6.2257  -16.6920  -20.6759 O   0  0  0  0  0  0  0  0  0  0  0  0
    9.1463  -15.5819  -20.9056 H   0  0  0  0  0  0  0  0  0  0  0  0
    7.7095  -14.7874  -21.3663 H   0  0  0  0  0  0  0  0  0  0  0  0
   12.9385  -21.3290  -19.9262 C   0  0  0  0  0  0  0  0  0  0  0  0
   13.9788  -22.4639  -19.7240 C   0  0  0  0  0  0  0  0  0  0  0  0
   14.0943  -23.4685  -20.7088 C   0  0  0  0  0  0  0  0  0  0  0  0
   15.0328  -24.5042  -20.5907 C   0  0  0  0  0  0  0  0  0  0  0  0
   15.8410  -24.5784  -19.4364 C   0  0  0  0  0  0  0  0  0  0  0  0
   15.7309  -23.5899  -18.4559 C   0  0  0  0  0  0  0  0  0  0  0  0
   14.7836  -22.5577  -18.5856 C   0  0  0  0  0  0  0  0  0  0  0  0
   16.8767  -25.7030  -19.3170 C   0  0  0  0  0  0  0  0  0  0  0  0
   16.6493  -26.5445  -18.2826 F   0  0  0  0  0  0  0  0  0  0  0  0
   16.9084  -26.4101  -20.4888 F   0  0  0  0  0  0  0  0  0  0  0  0
   18.1058  -25.1380  -19.2027 F   0  0  0  0  0  0  0  0  0  0  0  0
   11.9825  -19.4763  -15.3612 N   0  0  0  0  0  0  0  0  0  0  0  0
   11.7783  -18.0950  -14.4608 S   0  0  0  0  0  0  0  0  0  0  0  0
   12.5874  -17.0497  -15.0672 O   0  0  0  0  0  0  0  0  0  0  0  0
   11.9207  -18.3700  -13.0392 O   0  0  0  0  0  0  0  0  0  0  0  0
   10.0791  -17.7057  -14.7854 C   0  0  0  0  0  0  0  0  0  0  0  0
    9.7665  -16.4324  -15.2678 C   0  0  0  0  0  0  0  0  0  0  0  0
    8.4304  -16.0951  -15.5441 C   0  0  0  0  0  0  0  0  0  0  0  0
    7.4482  -17.0459  -15.2874 C   0  0  0  0  0  0  0  0  0  0  0  0
    7.7722  -18.3166  -14.8312 C   0  0  0  0  0  0  0  0  0  0  0  0
    9.1069  -18.6836  -14.5359 C   0  0  0  0  0  0  0  0  0  0  0  0
    6.0026  -16.6880  -15.6247 C   0  0  0  0  0  0  0  0  0  0  0  0
    5.2444  -17.5853  -15.9643 O   0  0  0  0  0  0  0  0  0  0  0  0
    5.5416  -15.4458  -15.5631 N   0  0  0  0  0  0  0  0  0  0  0  0
    4.6020  -15.2577  -15.7891 H   0  0  0  0  0  0  0  0  0  0  0  0
    6.1390  -14.7120  -15.2914 H   0  0  0  0  0  0  0  0  0  0  0  0
   12.3663  -20.6722  -14.6318 C   0  0  0  0  0  0  0  0  0  0  0  0
   13.8028  -21.0954  -14.6158 C   0  0  0  0  0  0  0  0  0  0  0  0
   14.0471  -22.4703  -14.6712 C   0  0  0  0  0  0  0  0  0  0  0  0
   15.3479  -22.9397  -14.7087 C   0  0  0  0  0  0  0  0  0  0  0  0
   16.4135  -22.0616  -14.6272 C   0  0  0  0  0  0  0  0  0  0  0  0
   16.1687  -20.6905  -14.5289 C   0  0  0  0  0  0  0  0  0  0  0  0
   14.8694  -20.2079  -14.4965 C   0  0  0  0  0  0  0  0  0  0  0  0
   17.8398  -22.6583  -14.6544 C   0  0  0  0  0  0  0  0  0  0  0  0
   17.8011  -23.7691  -15.4786 F   0  0  0  0  0  0  0  0  0  0  0  0
   18.6066  -21.7451  -15.2869 F   0  0  0  0  0  0  0  0  0  0  0  0
   18.2480  -23.0590  -13.4530 F   0  0  0  0  0  0  0  0  0  0  0  0
 44 43  2  0  0  0
 57 55  1  0  0  0
 51 50  2  0  0  0
 51 52  1  0  0  0
 56 55  1  0  0  0
 50 49  1  0  0  0
 39 38  2  0  0  0
 39 40  1  0  0  0
 55 52  1  0  0  0
 55 58  1  0  0  0
 43 40  1  0  0  0
 43 45  1  0  0  0
 52 53  2  0  0  0
 38 37  1  0  0  0
 49 48  1  0  0  0
 49 54  2  0  0  0
 40 41  2  0  0  0
 48 33  1  0  0  0
 53 54  1  0  0  0
 35 34  2  0  0  0
 37 34  1  0  0  0
 37 42  2  0  0  0
 33 34  1  0  0  0
 33  5  1  0  0  0
 41 42  1  0  0  0
  4  3  1  0  0  0
  4  5  1  0  0  0
  3  2  1  0  0  0
 34 36  2  0  0  0
  2  1  1  0  0  0
  5  1  1  0  0  0
  1  7  1  0  0  0
 17 18  1  0  0  0
 16 15  2  0  0  0
 16 11  1  0  0  0
  7 22  1  0  0  0
  7  8  1  0  0  0
 15 14  1  0  0  0
 10  8  2  0  0  0
 18 11  1  0  0  0
 18 19  2  0  0  0
 11 12  2  0  0  0
 24 25  2  0  0  0
 24 23  1  0  0  0
 14  8  1  0  0  0
 14 13  2  0  0  0
 22 23  1  0  0  0
 25 26  1  0  0  0
  8  9  2  0  0  0
 23 28  2  0  0  0
 30 29  1  0  0  0
 12 13  1  0  0  0
 31 29  1  0  0  0
 26 29  1  0  0  0
 26 27  2  0  0  0
 28 27  1  0  0  0
 29 32  1  0  0  0
 17 20  1  0  0  0
 17 21  1  0  0  0
  3  6  1  0  0  0
 45 46  1  0  0  0
 45 47  1  0  0  0
M  END
> <minimizedAffinity>
-10.84327

$$$$
2QNN_QN1_B_2501


 58 62  0  0  0  0  0  0  0  0999 V2000
   10.0011  -19.0871  -16.8712 C   0  0  0  0  0  0  0  0  0  0  0  0
    9.2978  -20.1173  -17.7758 C   0  0  0  0  0  0  0  0  0  0  0  0
    9.8541  -19.9192  -19.1469 N   0  0  0  0  0  0  0  0  0  0  0  0
   11.1800  -19.3273  -19.0486 C   0  0  0  0  0  0  0  0  0  0  0  0
   11.3391  -18.7650  -17.6180 C   0  0  0  0  0  0  0  0  0  0  0  0
    9.9175  -20.8196  -19.6220 H   0  0  0  0  0  0  0  0  0  0  0  0
    9.2353  -17.8356  -16.7394 N   0  0  0  0  0  0  0  0  0  0  0  0
    8.5872  -17.5741  -15.1749 S   0  0  0  0  0  0  0  0  0  0  0  0
    9.7015  -17.1727  -14.3218 O   0  0  0  0  0  0  0  0  0  0  0  0
    7.7984  -18.7552  -14.8156 O   0  0  0  0  0  0  0  0  0  0  0  0
    5.7717  -14.0714  -15.1124 C   0  0  0  0  0  0  0  0  0  0  0  0
    5.2895  -15.3278  -15.5101 C   0  0  0  0  0  0  0  0  0  0  0  0
    6.1570  -16.4241  -15.4896 C   0  0  0  0  0  0  0  0  0  0  0  0
    7.4916  -16.2319  -15.1633 C   0  0  0  0  0  0  0  0  0  0  0  0
    7.9966  -14.9934  -14.7241 C   0  0  0  0  0  0  0  0  0  0  0  0
    7.1101  -13.9129  -14.7337 C   0  0  0  0  0  0  0  0  0  0  0  0
    3.9654  -12.8482  -16.1960 N   0  0  0  0  0  0  0  0  0  0  0  0
    4.8275  -12.9018  -15.1560 C   0  0  0  0  0  0  0  0  0  0  0  0
    4.8525  -12.0549  -14.2742 O   0  0  0  0  0  0  0  0  0  0  0  0
    3.9799  -13.5522  -16.8842 H   0  0  0  0  0  0  0  0  0  0  0  0
    3.3231  -12.1053  -16.2653 H   0  0  0  0  0  0  0  0  0  0  0  0
    9.0941  -16.7865  -17.7550 C   0  0  0  0  0  0  0  0  0  0  0  0
    7.9386  -17.1385  -18.7308 C   0  0  0  0  0  0  0  0  0  0  0  0
    8.1311  -16.9459  -20.1158 C   0  0  0  0  0  0  0  0  0  0  0  0
    7.1316  -17.2689  -21.0452 C   0  0  0  0  0  0  0  0  0  0  0  0
    5.8848  -17.7431  -20.5849 C   0  0  0  0  0  0  0  0  0  0  0  0
    5.6852  -17.9338  -19.2159 C   0  0  0  0  0  0  0  0  0  0  0  0
    6.6955  -17.6035  -18.2940 C   0  0  0  0  0  0  0  0  0  0  0  0
    4.7992  -18.1099  -21.6041 C   0  0  0  0  0  0  0  0  0  0  0  0
    5.2881  -18.4865  -22.8078 F   0  0  0  0  0  0  0  0  0  0  0  0
    4.0197  -19.1105  -21.0890 F   0  0  0  0  0  0  0  0  0  0  0  0
    3.9713  -17.0433  -21.7450 F   0  0  0  0  0  0  0  0  0  0  0  0
   12.5093  -19.3458  -16.9950 N   0  0  0  0  0  0  0  0  0  0  0  0
   12.6186  -19.3021  -15.3378 S   0  0  0  0  0  0  0  0  0  0  0  0
   11.4305  -19.9457  -14.8003 O   0  0  0  0  0  0  0  0  0  0  0  0
   12.9797  -17.9721  -14.8711 O   0  0  0  0  0  0  0  0  0  0  0  0
   13.9893  -20.3873  -15.0421 C   0  0  0  0  0  0  0  0  0  0  0  0
   13.7294  -21.7349  -14.7811 C   0  0  0  0  0  0  0  0  0  0  0  0
   14.7940  -22.6234  -14.5519 C   0  0  0  0  0  0  0  0  0  0  0  0
   16.0872  -22.1114  -14.5569 C   0  0  0  0  0  0  0  0  0  0  0  0
   16.3359  -20.7754  -14.8416 C   0  0  0  0  0  0  0  0  0  0  0  0
   15.2852  -19.8545  -15.0683 C   0  0  0  0  0  0  0  0  0  0  0  0
   17.2423  -23.0873  -14.3449 C   0  0  0  0  0  0  0  0  0  0  0  0
   18.2538  -22.6813  -13.7906 O   0  0  0  0  0  0  0  0  0  0  0  0
   17.1887  -24.3531  -14.7379 N   0  0  0  0  0  0  0  0  0  0  0  0
   17.9561  -24.9498  -14.5820 H   0  0  0  0  0  0  0  0  0  0  0  0
   16.3816  -24.6958  -15.1855 H   0  0  0  0  0  0  0  0  0  0  0  0
   13.6900  -19.7998  -17.7087 C   0  0  0  0  0  0  0  0  0  0  0  0
   13.8247  -21.2489  -18.0620 C   0  0  0  0  0  0  0  0  0  0  0  0
   15.1232  -21.7192  -18.2761 C   0  0  0  0  0  0  0  0  0  0  0  0
   15.3355  -23.0565  -18.5596 C   0  0  0  0  0  0  0  0  0  0  0  0
   14.2663  -23.9233  -18.6967 C   0  0  0  0  0  0  0  0  0  0  0  0
   12.9662  -23.4439  -18.5246 C   0  0  0  0  0  0  0  0  0  0  0  0
   12.7413  -22.1071  -18.2343 C   0  0  0  0  0  0  0  0  0  0  0  0
   14.5771  -25.3999  -19.0342 C   0  0  0  0  0  0  0  0  0  0  0  0
   14.5583  -25.5154  -20.4131 F   0  0  0  0  0  0  0  0  0  0  0  0
   15.8572  -25.6002  -18.6557 F   0  0  0  0  0  0  0  0  0  0  0  0
   13.6664  -26.2375  -18.5448 F   0  0  0  0  0  0  0  0  0  0  0  0
 44 43  2  0  0  0
 57 55  1  0  0  0
 51 50  2  0  0  0
 51 52  1  0  0  0
 56 55  1  0  0  0
 50 49  1  0  0  0
 39 38  2  0  0  0
 39 40  1  0  0  0
 55 52  1  0  0  0
 55 58  1  0  0  0
 43 40  1  0  0  0
 43 45  1  0  0  0
 52 53  2  0  0  0
 38 37  1  0  0  0
 49 48  1  0  0  0
 49 54  2  0  0  0
 40 41  2  0  0  0
 48 33  1  0  0  0
 53 54  1  0  0  0
 35 34  2  0  0  0
 37 34  1  0  0  0
 37 42  2  0  0  0
 33 34  1  0  0  0
 33  5  1  0  0  0
 41 42  1  0  0  0
  4  3  1  0  0  0
  4  5  1  0  0  0
  3  2  1  0  0  0
 34 36  2  0  0  0
  2  1  1  0  0  0
  5  1  1  0  0  0
  1  7  1  0  0  0
 17 18  1  0  0  0
 16 15  2  0  0  0
 16 11  1  0  0  0
  7 22  1  0  0  0
  7  8  1  0  0  0
 15 14  1  0  0  0
 10  8  2  0  0  0
 18 11  1  0  0  0
 18 19  2  0  0  0
 11 12  2  0  0  0
 24 25  2  0  0  0
 24 23  1  0  0  0
 14  8  1  0  0  0
 14 13  2  0  0  0
 22 23  1  0  0  0
 25 26  1  0  0  0
  8  9  2  0  0  0
 23 28  2  0  0  0
 30 29  1  0  0  0
 12 13  1  0  0  0
 31 29  1  0  0  0
 26 29  1  0  0  0
 26 27  2  0  0  0
 28 27  1  0  0  0
 29 32  1  0  0  0
 17 20  1  0  0  0
 17 21  1  0  0  0
  3  6  1  0  0  0
 45 46  1  0  0  0
 45 47  1  0  0  0
M  END
> <minimizedAffinity>
-10.50168

$$$$
2QNN_QN1_B_2501


 58 62  0  0  0  0  0  0  0  0999 V2000
   10.7824  -19.7615  -16.9229 C   0  0  0  0  0  0  0  0  0  0  0  0
   10.7831  -20.2686  -18.3779 C   0  0  0  0  0  0  0  0  0  0  0  0
   12.0426  -19.7605  -18.9977 N   0  0  0  0  0  0  0  0  0  0  0  0
   13.0331  -19.5291  -17.9568 C   0  0  0  0  0  0  0  0  0  0  0  0
   12.2935  -19.5078  -16.6001 C   0  0  0  0  0  0  0  0  0  0  0  0
   12.3988  -20.4502  -19.6594 H   0  0  0  0  0  0  0  0  0  0  0  0
   10.0592  -18.4874  -16.7693 N   0  0  0  0  0  0  0  0  0  0  0  0
    9.4004  -18.2416  -15.2067 S   0  0  0  0  0  0  0  0  0  0  0  0
   10.5045  -17.8248  -14.3477 O   0  0  0  0  0  0  0  0  0  0  0  0
    8.6296  -19.4365  -14.8544 O   0  0  0  0  0  0  0  0  0  0  0  0
    6.5302  -14.7835  -15.1485 C   0  0  0  0  0  0  0  0  0  0  0  0
    6.0450  -16.0685  -15.4358 C   0  0  0  0  0  0  0  0  0  0  0  0
    6.9326  -17.1487  -15.4132 C   0  0  0  0  0  0  0  0  0  0  0  0
    8.2830  -16.9174  -15.1955 C   0  0  0  0  0  0  0  0  0  0  0  0
    8.7942  -15.6474  -14.8674 C   0  0  0  0  0  0  0  0  0  0  0  0
    7.8888  -14.5827  -14.8769 C   0  0  0  0  0  0  0  0  0  0  0  0
    5.6577  -12.7140  -14.2056 N   0  0  0  0  0  0  0  0  0  0  0  0
    5.5632  -13.6327  -15.1929 C   0  0  0  0  0  0  0  0  0  0  0  0
    4.7431  -13.5499  -16.0961 O   0  0  0  0  0  0  0  0  0  0  0  0
    6.3334  -12.8201  -13.4975 H   0  0  0  0  0  0  0  0  0  0  0  0
    5.0509  -11.9389  -14.1948 H   0  0  0  0  0  0  0  0  0  0  0  0
    9.9679  -17.4096  -17.7601 C   0  0  0  0  0  0  0  0  0  0  0  0
    8.5812  -17.4406  -18.4581 C   0  0  0  0  0  0  0  0  0  0  0  0
    8.0929  -18.6687  -18.9539 C   0  0  0  0  0  0  0  0  0  0  0  0
    6.8371  -18.7608  -19.5718 C   0  0  0  0  0  0  0  0  0  0  0  0
    6.0675  -17.5921  -19.7544 C   0  0  0  0  0  0  0  0  0  0  0  0
    6.5447  -16.3726  -19.2693 C   0  0  0  0  0  0  0  0  0  0  0  0
    7.8073  -16.2937  -18.6535 C   0  0  0  0  0  0  0  0  0  0  0  0
    4.6883  -17.6982  -20.4165 C   0  0  0  0  0  0  0  0  0  0  0  0
    4.6839  -17.3491  -21.7233 F   0  0  0  0  0  0  0  0  0  0  0  0
    4.2218  -18.9779  -20.2790 F   0  0  0  0  0  0  0  0  0  0  0  0
    3.8213  -16.9209  -19.7186 F   0  0  0  0  0  0  0  0  0  0  0  0
   12.8744  -20.4941  -15.7145 N   0  0  0  0  0  0  0  0  0  0  0  0
   13.8108  -19.9587  -14.4509 S   0  0  0  0  0  0  0  0  0  0  0  0
   12.9721  -19.9260  -13.2634 O   0  0  0  0  0  0  0  0  0  0  0  0
   14.5636  -18.7704  -14.8228 O   0  0  0  0  0  0  0  0  0  0  0  0
   14.9512  -21.3026  -14.2577 C   0  0  0  0  0  0  0  0  0  0  0  0
   16.2532  -21.1477  -14.7400 C   0  0  0  0  0  0  0  0  0  0  0  0
   17.1843  -22.1904  -14.5942 C   0  0  0  0  0  0  0  0  0  0  0  0
   16.7566  -23.3720  -13.9982 C   0  0  0  0  0  0  0  0  0  0  0  0
   15.4675  -23.5065  -13.5004 C   0  0  0  0  0  0  0  0  0  0  0  0
   14.5048  -22.4783  -13.6392 C   0  0  0  0  0  0  0  0  0  0  0  0
   17.7818  -24.4876  -13.8081 C   0  0  0  0  0  0  0  0  0  0  0  0
   18.6692  -24.3288  -12.9818 O   0  0  0  0  0  0  0  0  0  0  0  0
   17.7452  -25.6169  -14.5029 N   0  0  0  0  0  0  0  0  0  0  0  0
   18.4259  -26.3115  -14.3496 H   0  0  0  0  0  0  0  0  0  0  0  0
   17.0373  -25.7605  -15.1719 H   0  0  0  0  0  0  0  0  0  0  0  0
   12.8614  -21.9278  -15.9469 C   0  0  0  0  0  0  0  0  0  0  0  0
   13.5304  -22.4819  -17.1668 C   0  0  0  0  0  0  0  0  0  0  0  0
   12.7101  -23.1597  -18.0728 C   0  0  0  0  0  0  0  0  0  0  0  0
   13.2436  -23.6594  -19.2473 C   0  0  0  0  0  0  0  0  0  0  0  0
   14.5982  -23.5504  -19.5052 C   0  0  0  0  0  0  0  0  0  0  0  0
   15.4249  -22.9105  -18.5797 C   0  0  0  0  0  0  0  0  0  0  0  0
   14.9007  -22.4003  -17.4020 C   0  0  0  0  0  0  0  0  0  0  0  0
   15.1282  -24.1499  -20.8283 C   0  0  0  0  0  0  0  0  0  0  0  0
   14.8172  -25.4983  -20.8182 F   0  0  0  0  0  0  0  0  0  0  0  0
   14.3800  -23.5969  -21.8063 F   0  0  0  0  0  0  0  0  0  0  0  0
   16.4490  -24.0394  -20.9452 F   0  0  0  0  0  0  0  0  0  0  0  0
 44 43  2  0  0  0
 57 55  1  0  0  0
 51 50  2  0  0  0
 51 52  1  0  0  0
 56 55  1  0  0  0
 50 49  1  0  0  0
 39 38  2  0  0  0
 39 40  1  0  0  0
 55 52  1  0  0  0
 55 58  1  0  0  0
 43 40  1  0  0  0
 43 45  1  0  0  0
 52 53  2  0  0  0
 38 37  1  0  0  0
 49 48  1  0  0  0
 49 54  2  0  0  0
 40 41  2  0  0  0
 48 33  1  0  0  0
 53 54  1  0  0  0
 35 34  2  0  0  0
 37 34  1  0  0  0
 37 42  2  0  0  0
 33 34  1  0  0  0
 33  5  1  0  0  0
 41 42  1  0  0  0
  4  3  1  0  0  0
  4  5  1  0  0  0
  3  2  1  0  0  0
 34 36  2  0  0  0
  2  1  1  0  0  0
  5  1  1  0  0  0
  1  7  1  0  0  0
 17 18  1  0  0  0
 16 15  2  0  0  0
 16 11  1  0  0  0
  7 22  1  0  0  0
  7  8  1  0  0  0
 15 14  1  0  0  0
 10  8  2  0  0  0
 18 11  1  0  0  0
 18 19  2  0  0  0
 11 12  2  0  0  0
 24 25  2  0  0  0
 24 23  1  0  0  0
 14  8  1  0  0  0
 14 13  2  0  0  0
 22 23  1  0  0  0
 25 26  1  0  0  0
  8  9  2  0  0  0
 23 28  2  0  0  0
 30 29  1  0  0  0
 12 13  1  0  0  0
 31 29  1  0  0  0
 26 29  1  0  0  0
 26 27  2  0  0  0
 28 27  1  0  0  0
 29 32  1  0  0  0
 17 20  1  0  0  0
 17 21  1  0  0  0
  3  6  1  0  0  0
 45 46  1  0  0  0
 45 47  1  0  0  0
M  END
> <minimizedAffinity>
-10.42487

$$$$
2QNN_QN1_B_2501


 58 62  0  0  0  0  0  0  0  0999 V2000
   10.8674  -18.7231  -17.9652 C   0  0  0  0  0  0  0  0  0  0  0  0
   10.7191  -18.8769  -19.4912 C   0  0  0  0  0  0  0  0  0  0  0  0
    9.4849  -19.6872  -19.7122 N   0  0  0  0  0  0  0  0  0  0  0  0
    8.5937  -19.5293  -18.5725 C   0  0  0  0  0  0  0  0  0  0  0  0
    9.4164  -18.9248  -17.4124 C   0  0  0  0  0  0  0  0  0  0  0  0
    9.0147  -19.3674  -20.5590 H   0  0  0  0  0  0  0  0  0  0  0  0
   11.7325  -19.7590  -17.3748 N   0  0  0  0  0  0  0  0  0  0  0  0
   13.1559  -19.1472  -16.6429 S   0  0  0  0  0  0  0  0  0  0  0  0
   12.7287  -18.1535  -15.6627 O   0  0  0  0  0  0  0  0  0  0  0  0
   14.0729  -18.7497  -17.7139 O   0  0  0  0  0  0  0  0  0  0  0  0
   15.2524  -22.3114  -14.2361 C   0  0  0  0  0  0  0  0  0  0  0  0
   15.8117  -21.8984  -15.4552 C   0  0  0  0  0  0  0  0  0  0  0  0
   15.1793  -20.8852  -16.1821 C   0  0  0  0  0  0  0  0  0  0  0  0
   13.9718  -20.3733  -15.7301 C   0  0  0  0  0  0  0  0  0  0  0  0
   13.4053  -20.7390  -14.4943 C   0  0  0  0  0  0  0  0  0  0  0  0
   14.0612  -21.7402  -13.7728 C   0  0  0  0  0  0  0  0  0  0  0  0
   15.2547  -24.5685  -13.3204 N   0  0  0  0  0  0  0  0  0  0  0  0
   15.9388  -23.4129  -13.4766 C   0  0  0  0  0  0  0  0  0  0  0  0
   17.0681  -23.2491  -13.0371 O   0  0  0  0  0  0  0  0  0  0  0  0
   14.3469  -24.6570  -13.6910 H   0  0  0  0  0  0  0  0  0  0  0  0
   15.6642  -25.3214  -12.8361 H   0  0  0  0  0  0  0  0  0  0  0  0
   11.4287  -21.1895  -17.2593 C   0  0  0  0  0  0  0  0  0  0  0  0
   12.4118  -22.0173  -18.1307 C   0  0  0  0  0  0  0  0  0  0  0  0
   12.8040  -21.5099  -19.3881 C   0  0  0  0  0  0  0  0  0  0  0  0
   13.7077  -22.2027  -20.2070 C   0  0  0  0  0  0  0  0  0  0  0  0
   14.1929  -23.4615  -19.7931 C   0  0  0  0  0  0  0  0  0  0  0  0
   13.8075  -23.9720  -18.5516 C   0  0  0  0  0  0  0  0  0  0  0  0
   12.8984  -23.2678  -17.7409 C   0  0  0  0  0  0  0  0  0  0  0  0
   15.1927  -24.2097  -20.6834 C   0  0  0  0  0  0  0  0  0  0  0  0
   16.4788  -24.0807  -20.2846 F   0  0  0  0  0  0  0  0  0  0  0  0
   14.8527  -25.5351  -20.7242 F   0  0  0  0  0  0  0  0  0  0  0  0
   15.0470  -23.7602  -21.9561 F   0  0  0  0  0  0  0  0  0  0  0  0
    8.7899  -17.7017  -16.9583 N   0  0  0  0  0  0  0  0  0  0  0  0
    8.4274  -17.5591  -15.3432 S   0  0  0  0  0  0  0  0  0  0  0  0
    9.6407  -17.1506  -14.6533 O   0  0  0  0  0  0  0  0  0  0  0  0
    7.6950  -18.7220  -14.8655 O   0  0  0  0  0  0  0  0  0  0  0  0
    7.3259  -16.1696  -15.3463 C   0  0  0  0  0  0  0  0  0  0  0  0
    5.9681  -16.3949  -15.5857 C   0  0  0  0  0  0  0  0  0  0  0  0
    5.0671  -15.3163  -15.5857 C   0  0  0  0  0  0  0  0  0  0  0  0
    5.5754  -14.0380  -15.3804 C   0  0  0  0  0  0  0  0  0  0  0  0
    6.9228  -13.8280  -15.1191 C   0  0  0  0  0  0  0  0  0  0  0  0
    7.8560  -14.8921  -15.1207 C   0  0  0  0  0  0  0  0  0  0  0  0
    4.5876  -12.8742  -15.3436 C   0  0  0  0  0  0  0  0  0  0  0  0
    4.7005  -12.0420  -14.4548 O   0  0  0  0  0  0  0  0  0  0  0  0
    3.6164  -12.7336  -16.2361 N   0  0  0  0  0  0  0  0  0  0  0  0
    3.0002  -11.9681  -16.1766 H   0  0  0  0  0  0  0  0  0  0  0  0
    3.5118  -13.3948  -16.9580 H   0  0  0  0  0  0  0  0  0  0  0  0
    8.2788  -16.6582  -17.8297 C   0  0  0  0  0  0  0  0  0  0  0  0
    7.2702  -17.0056  -18.8809 C   0  0  0  0  0  0  0  0  0  0  0  0
    7.6403  -16.7558  -20.2053 C   0  0  0  0  0  0  0  0  0  0  0  0
    6.7832  -17.0933  -21.2373 C   0  0  0  0  0  0  0  0  0  0  0  0
    5.5324  -17.6187  -20.9675 C   0  0  0  0  0  0  0  0  0  0  0  0
    5.1461  -17.8287  -19.6423 C   0  0  0  0  0  0  0  0  0  0  0  0
    5.9989  -17.5000  -18.5998 C   0  0  0  0  0  0  0  0  0  0  0  0
    4.6192  -17.9536  -22.1696 C   0  0  0  0  0  0  0  0  0  0  0  0
    3.6248  -16.9920  -22.2061 F   0  0  0  0  0  0  0  0  0  0  0  0
    5.3758  -17.7567  -23.2700 F   0  0  0  0  0  0  0  0  0  0  0  0
    4.0308  -19.1407  -22.0479 F   0  0  0  0  0  0  0  0  0  0  0  0
 44 43  2  0  0  0
 57 55  1  0  0  0
 51 50  2  0  0  0
 51 52  1  0  0  0
 56 55  1  0  0  0
 50 49  1  0  0  0
 39 38  2  0  0  0
 39 40  1  0  0  0
 55 52  1  0  0  0
 55 58  1  0  0  0
 43 40  1  0  0  0
 43 45  1  0  0  0
 52 53  2  0  0  0
 38 37  1  0  0  0
 49 48  1  0  0  0
 49 54  2  0  0  0
 40 41  2  0  0  0
 48 33  1  0  0  0
 53 54  1  0  0  0
 35 34  2  0  0  0
 37 34  1  0  0  0
 37 42  2  0  0  0
 33 34  1  0  0  0
 33  5  1  0  0  0
 41 42  1  0  0  0
  4  3  1  0  0  0
  4  5  1  0  0  0
  3  2  1  0  0  0
 34 36  2  0  0  0
  2  1  1  0  0  0
  5  1  1  0  0  0
  1  7  1  0  0  0
 17 18  1  0  0  0
 16 15  2  0  0  0
 16 11  1  0  0  0
  7 22  1  0  0  0
  7  8  1  0  0  0
 15 14  1  0  0  0
 10  8  2  0  0  0
 18 11  1  0  0  0
 18 19  2  0  0  0
 11 12  2  0  0  0
 24 25  2  0  0  0
 24 23  1  0  0  0
 14  8  1  0  0  0
 14 13  2  0  0  0
 22 23  1  0  0  0
 25 26  1  0  0  0
  8  9  2  0  0  0
 23 28  2  0  0  0
 30 29  1  0  0  0
 12 13  1  0  0  0
 31 29  1  0  0  0
 26 29  1  0  0  0
 26 27  2  0  0  0
 28 27  1  0  0  0
 29 32  1  0  0  0
 17 20  1  0  0  0
 17 21  1  0  0  0
  3  6  1  0  0  0
 45 46  1  0  0  0
 45 47  1  0  0  0
M  END
> <minimizedAffinity>
-10.33823

$$$$
2QNN_QN1_B_2501


 58 62  0  0  0  0  0  0  0  0999 V2000
   11.4170  -19.8138  -16.1816 C   0  0  0  0  0  0  0  0  0  0  0  0
   11.7006  -20.5185  -14.8410 C   0  0  0  0  0  0  0  0  0  0  0  0
   12.5424  -19.5781  -14.0436 N   0  0  0  0  0  0  0  0  0  0  0  0
   12.3004  -18.2150  -14.4927 C   0  0  0  0  0  0  0  0  0  0  0  0
   11.5899  -18.2905  -15.8630 C   0  0  0  0  0  0  0  0  0  0  0  0
   12.3010  -19.6590  -13.0559 H   0  0  0  0  0  0  0  0  0  0  0  0
   12.3884  -20.1779  -17.2275 N   0  0  0  0  0  0  0  0  0  0  0  0
   11.7488  -21.1890  -18.4541 S   0  0  0  0  0  0  0  0  0  0  0  0
   11.6425  -20.3707  -19.6581 O   0  0  0  0  0  0  0  0  0  0  0  0
   10.5483  -21.8355  -17.9184 O   0  0  0  0  0  0  0  0  0  0  0  0
   14.6125  -24.4760  -19.5473 C   0  0  0  0  0  0  0  0  0  0  0  0
   13.6924  -24.6894  -18.5093 C   0  0  0  0  0  0  0  0  0  0  0  0
   12.7757  -23.6805  -18.1984 C   0  0  0  0  0  0  0  0  0  0  0  0
   12.8513  -22.4629  -18.8588 C   0  0  0  0  0  0  0  0  0  0  0  0
   13.7365  -22.2314  -19.9288 C   0  0  0  0  0  0  0  0  0  0  0  0
   14.6331  -23.2581  -20.2374 C   0  0  0  0  0  0  0  0  0  0  0  0
   16.0521  -26.2984  -18.8131 N   0  0  0  0  0  0  0  0  0  0  0  0
   15.6002  -25.5669  -19.8564 C   0  0  0  0  0  0  0  0  0  0  0  0
   15.9567  -25.7688  -21.0085 O   0  0  0  0  0  0  0  0  0  0  0  0
   15.7383  -26.1013  -17.9011 H   0  0  0  0  0  0  0  0  0  0  0  0
   16.6951  -27.0282  -18.9655 H   0  0  0  0  0  0  0  0  0  0  0  0
   13.7576  -19.6694  -17.3636 C   0  0  0  0  0  0  0  0  0  0  0  0
   14.7148  -20.4518  -16.4240 C   0  0  0  0  0  0  0  0  0  0  0  0
   14.7271  -21.8621  -16.4814 C   0  0  0  0  0  0  0  0  0  0  0  0
   15.5879  -22.6197  -15.6737 C   0  0  0  0  0  0  0  0  0  0  0  0
   16.4200  -21.9633  -14.7420 C   0  0  0  0  0  0  0  0  0  0  0  0
   16.4118  -20.5683  -14.6769 C   0  0  0  0  0  0  0  0  0  0  0  0
   15.5416  -19.8204  -15.4911 C   0  0  0  0  0  0  0  0  0  0  0  0
   17.3711  -22.7932  -13.8710 C   0  0  0  0  0  0  0  0  0  0  0  0
   16.8279  -23.1890  -12.6972 F   0  0  0  0  0  0  0  0  0  0  0  0
   17.7879  -23.8880  -14.5792 F   0  0  0  0  0  0  0  0  0  0  0  0
   18.4914  -22.0596  -13.6478 F   0  0  0  0  0  0  0  0  0  0  0  0
   10.3410  -17.5616  -15.8035 N   0  0  0  0  0  0  0  0  0  0  0  0
    9.2452  -17.9782  -14.6262 S   0  0  0  0  0  0  0  0  0  0  0  0
    9.9220  -17.8882  -13.3422 O   0  0  0  0  0  0  0  0  0  0  0  0
    8.5412  -19.2029  -14.9748 O   0  0  0  0  0  0  0  0  0  0  0  0
    8.0963  -16.6306  -14.7156 C   0  0  0  0  0  0  0  0  0  0  0  0
    8.4815  -15.3900  -14.2016 C   0  0  0  0  0  0  0  0  0  0  0  0
    7.5977  -14.2989  -14.2654 C   0  0  0  0  0  0  0  0  0  0  0  0
    6.3369  -14.5084  -14.8139 C   0  0  0  0  0  0  0  0  0  0  0  0
    5.9732  -15.7390  -15.3440 C   0  0  0  0  0  0  0  0  0  0  0  0
    6.8373  -16.8586  -15.2873 C   0  0  0  0  0  0  0  0  0  0  0  0
    5.3946  -13.3111  -14.9153 C   0  0  0  0  0  0  0  0  0  0  0  0
    5.4293  -12.4659  -14.0323 O   0  0  0  0  0  0  0  0  0  0  0  0
    4.5441  -13.1550  -15.9212 N   0  0  0  0  0  0  0  0  0  0  0  0
    3.9534  -12.3680  -15.9488 H   0  0  0  0  0  0  0  0  0  0  0  0
    4.5037  -13.8263  -16.6403 H   0  0  0  0  0  0  0  0  0  0  0  0
    9.8831  -16.6170  -16.8073 C   0  0  0  0  0  0  0  0  0  0  0  0
    8.9777  -17.0886  -17.9031 C   0  0  0  0  0  0  0  0  0  0  0  0
    8.0699  -16.1527  -18.4064 C   0  0  0  0  0  0  0  0  0  0  0  0
    7.2320  -16.4964  -19.4521 C   0  0  0  0  0  0  0  0  0  0  0  0
    7.2390  -17.7815  -19.9639 C   0  0  0  0  0  0  0  0  0  0  0  0
    8.1165  -18.7285  -19.4321 C   0  0  0  0  0  0  0  0  0  0  0  0
    8.9652  -18.3940  -18.3882 C   0  0  0  0  0  0  0  0  0  0  0  0
    6.2612  -18.1003  -21.1186 C   0  0  0  0  0  0  0  0  0  0  0  0
    5.9202  -16.8957  -21.7080 F   0  0  0  0  0  0  0  0  0  0  0  0
    6.9850  -18.7777  -22.0346 F   0  0  0  0  0  0  0  0  0  0  0  0
    5.1393  -18.6751  -20.6927 F   0  0  0  0  0  0  0  0  0  0  0  0
 44 43  2  0  0  0
 57 55  1  0  0  0
 51 50  2  0  0  0
 51 52  1  0  0  0
 56 55  1  0  0  0
 50 49  1  0  0  0
 39 38  2  0  0  0
 39 40  1  0  0  0
 55 52  1  0  0  0
 55 58  1  0  0  0
 43 40  1  0  0  0
 43 45  1  0  0  0
 52 53  2  0  0  0
 38 37  1  0  0  0
 49 48  1  0  0  0
 49 54  2  0  0  0
 40 41  2  0  0  0
 48 33  1  0  0  0
 53 54  1  0  0  0
 35 34  2  0  0  0
 37 34  1  0  0  0
 37 42  2  0  0  0
 33 34  1  0  0  0
 33  5  1  0  0  0
 41 42  1  0  0  0
  4  3  1  0  0  0
  4  5  1  0  0  0
  3  2  1  0  0  0
 34 36  2  0  0  0
  2  1  1  0  0  0
  5  1  1  0  0  0
  1  7  1  0  0  0
 17 18  1  0  0  0
 16 15  2  0  0  0
 16 11  1  0  0  0
  7 22  1  0  0  0
  7  8  1  0  0  0
 15 14  1  0  0  0
 10  8  2  0  0  0
 18 11  1  0  0  0
 18 19  2  0  0  0
 11 12  2  0  0  0
 24 25  2  0  0  0
 24 23  1  0  0  0
 14  8  1  0  0  0
 14 13  2  0  0  0
 22 23  1  0  0  0
 25 26  1  0  0  0
  8  9  2  0  0  0
 23 28  2  0  0  0
 30 29  1  0  0  0
 12 13  1  0  0  0
 31 29  1  0  0  0
 26 29  1  0  0  0
 26 27  2  0  0  0
 28 27  1  0  0  0
 29 32  1  0  0  0
 17 20  1  0  0  0
 17 21  1  0  0  0
  3  6  1  0  0  0
 45 46  1  0  0  0
 45 47  1  0  0  0
M  END
> <minimizedAffinity>
-10.15137

$$$$
2QNN_QN1_B_2501


 58 62  0  0  0  0  0  0  0  0999 V2000
   13.8177  -20.8500  -17.6194 C   0  0  0  0  0  0  0  0  0  0  0  0
   14.4928  -19.7598  -18.4739 C   0  0  0  0  0  0  0  0  0  0  0  0
   13.7746  -18.4864  -18.1714 N   0  0  0  0  0  0  0  0  0  0  0  0
   13.1736  -18.5740  -16.8488 C   0  0  0  0  0  0  0  0  0  0  0  0
   13.1600  -20.0631  -16.4361 C   0  0  0  0  0  0  0  0  0  0  0  0
   14.4348  -17.7093  -18.1947 H   0  0  0  0  0  0  0  0  0  0  0  0
   12.7522  -21.5596  -18.3482 N   0  0  0  0  0  0  0  0  0  0  0  0
   13.3032  -22.4348  -19.7143 S   0  0  0  0  0  0  0  0  0  0  0  0
   13.9132  -21.4627  -20.6163 O   0  0  0  0  0  0  0  0  0  0  0  0
   12.1913  -23.2590  -20.1944 O   0  0  0  0  0  0  0  0  0  0  0  0
   16.6293  -25.2413  -18.5917 C   0  0  0  0  0  0  0  0  0  0  0  0
   15.7962  -25.5679  -19.6727 C   0  0  0  0  0  0  0  0  0  0  0  0
   14.7880  -24.6738  -20.0455 C   0  0  0  0  0  0  0  0  0  0  0  0
   14.5763  -23.5304  -19.2889 C   0  0  0  0  0  0  0  0  0  0  0  0
   15.4174  -23.1564  -18.2238 C   0  0  0  0  0  0  0  0  0  0  0  0
   16.4312  -24.0539  -17.8772 C   0  0  0  0  0  0  0  0  0  0  0  0
   18.9415  -26.0025  -18.6786 N   0  0  0  0  0  0  0  0  0  0  0  0
   17.6978  -26.2229  -18.1965 C   0  0  0  0  0  0  0  0  0  0  0  0
   17.4304  -27.1652  -17.4644 O   0  0  0  0  0  0  0  0  0  0  0  0
   19.1123  -25.2307  -19.2654 H   0  0  0  0  0  0  0  0  0  0  0  0
   19.6763  -26.6138  -18.4428 H   0  0  0  0  0  0  0  0  0  0  0  0
   11.3457  -21.6731  -17.9475 C   0  0  0  0  0  0  0  0  0  0  0  0
   10.5015  -20.5682  -18.6386 C   0  0  0  0  0  0  0  0  0  0  0  0
    9.2807  -20.1727  -18.0507 C   0  0  0  0  0  0  0  0  0  0  0  0
    8.4888  -19.1634  -18.6176 C   0  0  0  0  0  0  0  0  0  0  0  0
    8.8902  -18.5682  -19.8325 C   0  0  0  0  0  0  0  0  0  0  0  0
   10.0953  -18.9558  -20.4222 C   0  0  0  0  0  0  0  0  0  0  0  0
   10.8791  -19.9714  -19.8443 C   0  0  0  0  0  0  0  0  0  0  0  0
    8.0303  -17.4542  -20.4420 C   0  0  0  0  0  0  0  0  0  0  0  0
    7.5526  -16.5757  -19.5311 F   0  0  0  0  0  0  0  0  0  0  0  0
    8.7634  -16.7873  -21.3863 F   0  0  0  0  0  0  0  0  0  0  0  0
    7.0064  -18.0316  -21.1212 F   0  0  0  0  0  0  0  0  0  0  0  0
   13.8497  -20.2238  -15.1739 N   0  0  0  0  0  0  0  0  0  0  0  0
   12.9397  -20.2847  -13.7852 S   0  0  0  0  0  0  0  0  0  0  0  0
   13.7818  -19.8395  -12.6863 O   0  0  0  0  0  0  0  0  0  0  0  0
   12.2373  -21.5541  -13.6738 O   0  0  0  0  0  0  0  0  0  0  0  0
   11.7436  -19.0109  -14.0865 C   0  0  0  0  0  0  0  0  0  0  0  0
   12.0638  -17.6978  -13.7332 C   0  0  0  0  0  0  0  0  0  0  0  0
   11.1416  -16.6633  -13.9673 C   0  0  0  0  0  0  0  0  0  0  0  0
    9.9085  -16.9971  -14.5175 C   0  0  0  0  0  0  0  0  0  0  0  0
    9.6100  -18.3015  -14.8875 C   0  0  0  0  0  0  0  0  0  0  0  0
   10.5139  -19.3660  -14.6571 C   0  0  0  0  0  0  0  0  0  0  0  0
    8.9250  -15.8649  -14.8048 C   0  0  0  0  0  0  0  0  0  0  0  0
    7.9664  -16.0954  -15.5282 O   0  0  0  0  0  0  0  0  0  0  0  0
    9.0716  -14.6467  -14.3007 N   0  0  0  0  0  0  0  0  0  0  0  0
    8.4142  -13.9446  -14.5109 H   0  0  0  0  0  0  0  0  0  0  0  0
    9.8378  -14.4446  -13.7165 H   0  0  0  0  0  0  0  0  0  0  0  0
   15.2897  -20.1490  -15.0000 C   0  0  0  0  0  0  0  0  0  0  0  0
   16.0521  -21.3849  -14.6334 C   0  0  0  0  0  0  0  0  0  0  0  0
   15.2919  -22.5145  -14.3185 C   0  0  0  0  0  0  0  0  0  0  0  0
   15.9217  -23.7084  -14.0159 C   0  0  0  0  0  0  0  0  0  0  0  0
   17.3020  -23.7792  -13.9591 C   0  0  0  0  0  0  0  0  0  0  0  0
   18.0607  -22.6393  -14.2322 C   0  0  0  0  0  0  0  0  0  0  0  0
   17.4408  -21.4387  -14.5426 C   0  0  0  0  0  0  0  0  0  0  0  0
   17.9372  -25.1411  -13.5946 C   0  0  0  0  0  0  0  0  0  0  0  0
   16.9500  -25.9040  -12.9961 F   0  0  0  0  0  0  0  0  0  0  0  0
   18.2173  -25.7409  -14.7709 F   0  0  0  0  0  0  0  0  0  0  0  0
   18.9385  -25.0207  -12.7267 F   0  0  0  0  0  0  0  0  0  0  0  0
 44 43  2  0  0  0
 57 55  1  0  0  0
 51 50  2  0  0  0
 51 52  1  0  0  0
 56 55  1  0  0  0
 50 49  1  0  0  0
 39 38  2  0  0  0
 39 40  1  0  0  0
 55 52  1  0  0  0
 55 58  1  0  0  0
 43 40  1  0  0  0
 43 45  1  0  0  0
 52 53  2  0  0  0
 38 37  1  0  0  0
 49 48  1  0  0  0
 49 54  2  0  0  0
 40 41  2  0  0  0
 48 33  1  0  0  0
 53 54  1  0  0  0
 35 34  2  0  0  0
 37 34  1  0  0  0
 37 42  2  0  0  0
 33 34  1  0  0  0
 33  5  1  0  0  0
 41 42  1  0  0  0
  4  3  1  0  0  0
  4  5  1  0  0  0
  3  2  1  0  0  0
 34 36  2  0  0  0
  2  1  1  0  0  0
  5  1  1  0  0  0
  1  7  1  0  0  0
 17 18  1  0  0  0
 16 15  2  0  0  0
 16 11  1  0  0  0
  7 22  1  0  0  0
  7  8  1  0  0  0
 15 14  1  0  0  0
 10  8  2  0  0  0
 18 11  1  0  0  0
 18 19  2  0  0  0
 11 12  2  0  0  0
 24 25  2  0  0  0
 24 23  1  0  0  0
 14  8  1  0  0  0
 14 13  2  0  0  0
 22 23  1  0  0  0
 25 26  1  0  0  0
  8  9  2  0  0  0
 23 28  2  0  0  0
 30 29  1  0  0  0
 12 13  1  0  0  0
 31 29  1  0  0  0
 26 29  1  0  0  0
 26 27  2  0  0  0
 28 27  1  0  0  0
 29 32  1  0  0  0
 17 20  1  0  0  0
 17 21  1  0  0  0
  3  6  1  0  0  0
 45 46  1  0  0  0
 45 47  1  0  0  0
M  END
> <minimizedAffinity>
-9.87303

$$$$
2QNN_QN1_B_2501


 58 62  0  0  0  0  0  0  0  0999 V2000
   10.3257  -18.3256  -18.6703 C   0  0  0  0  0  0  0  0  0  0  0  0
   10.6503  -18.3106  -20.1765 C   0  0  0  0  0  0  0  0  0  0  0  0
    9.6806  -19.2437  -20.8229 N   0  0  0  0  0  0  0  0  0  0  0  0
    8.4855  -19.3446  -19.9984 C   0  0  0  0  0  0  0  0  0  0  0  0
    8.8297  -18.7826  -18.6006 C   0  0  0  0  0  0  0  0  0  0  0  0
    9.4290  -18.8881  -21.7452 H   0  0  0  0  0  0  0  0  0  0  0  0
   11.1400  -19.3024  -17.9268 N   0  0  0  0  0  0  0  0  0  0  0  0
   12.5212  -18.6285  -17.1692 S   0  0  0  0  0  0  0  0  0  0  0  0
   12.0321  -17.6671  -16.1857 O   0  0  0  0  0  0  0  0  0  0  0  0
   13.4318  -18.1752  -18.2235 O   0  0  0  0  0  0  0  0  0  0  0  0
   14.7835  -21.7369  -14.8412 C   0  0  0  0  0  0  0  0  0  0  0  0
   13.5241  -21.3221  -14.3815 C   0  0  0  0  0  0  0  0  0  0  0  0
   12.8047  -20.3851  -15.1294 C   0  0  0  0  0  0  0  0  0  0  0  0
   13.3845  -19.8220  -16.2568 C   0  0  0  0  0  0  0  0  0  0  0  0
   14.6280  -20.2439  -16.7641 C   0  0  0  0  0  0  0  0  0  0  0  0
   15.3245  -21.1947  -16.0130 C   0  0  0  0  0  0  0  0  0  0  0  0
   14.9068  -23.8769  -13.6845 N   0  0  0  0  0  0  0  0  0  0  0  0
   15.5483  -22.7337  -14.0150 C   0  0  0  0  0  0  0  0  0  0  0  0
   16.7002  -22.5011  -13.6767 O   0  0  0  0  0  0  0  0  0  0  0  0
   13.9785  -24.0231  -13.9782 H   0  0  0  0  0  0  0  0  0  0  0  0
   15.3678  -24.5633  -13.1500 H   0  0  0  0  0  0  0  0  0  0  0  0
   10.8133  -20.7128  -17.6909 C   0  0  0  0  0  0  0  0  0  0  0  0
   11.8847  -21.6269  -18.3448 C   0  0  0  0  0  0  0  0  0  0  0  0
   12.2326  -22.8368  -17.7064 C   0  0  0  0  0  0  0  0  0  0  0  0
   13.1760  -23.7128  -18.2631 C   0  0  0  0  0  0  0  0  0  0  0  0
   13.8350  -23.3529  -19.4579 C   0  0  0  0  0  0  0  0  0  0  0  0
   13.4986  -22.1562  -20.0944 C   0  0  0  0  0  0  0  0  0  0  0  0
   12.5522  -21.2853  -19.5239 C   0  0  0  0  0  0  0  0  0  0  0  0
   14.8547  -24.3195  -20.0725 C   0  0  0  0  0  0  0  0  0  0  0  0
   16.1289  -24.0856  -19.6835 F   0  0  0  0  0  0  0  0  0  0  0  0
   14.5035  -25.6039  -19.7546 F   0  0  0  0  0  0  0  0  0  0  0  0
   14.7530  -24.2412  -21.4239 F   0  0  0  0  0  0  0  0  0  0  0  0
    7.9092  -17.7173  -18.2652 N   0  0  0  0  0  0  0  0  0  0  0  0
    7.4450  -16.6733  -19.4714 S   0  0  0  0  0  0  0  0  0  0  0  0
    8.4313  -16.7632  -20.5363 O   0  0  0  0  0  0  0  0  0  0  0  0
    7.0995  -15.3676  -18.9304 O   0  0  0  0  0  0  0  0  0  0  0  0
    5.9597  -17.4440  -20.0580 C   0  0  0  0  0  0  0  0  0  0  0  0
    5.7326  -17.4933  -21.4355 C   0  0  0  0  0  0  0  0  0  0  0  0
    4.5696  -18.1055  -21.9336 C   0  0  0  0  0  0  0  0  0  0  0  0
    3.6545  -18.6153  -21.0187 C   0  0  0  0  0  0  0  0  0  0  0  0
    3.9016  -18.5829  -19.6528 C   0  0  0  0  0  0  0  0  0  0  0  0
    5.0589  -17.9663  -19.1201 C   0  0  0  0  0  0  0  0  0  0  0  0
    2.4111  -19.3128  -21.5657 C   0  0  0  0  0  0  0  0  0  0  0  0
    2.4115  -19.6723  -22.7345 O   0  0  0  0  0  0  0  0  0  0  0  0
    1.3362  -19.5420  -20.8231 N   0  0  0  0  0  0  0  0  0  0  0  0
    0.5548  -19.9951  -21.2147 H   0  0  0  0  0  0  0  0  0  0  0  0
    1.3198  -19.2591  -19.8802 H   0  0  0  0  0  0  0  0  0  0  0  0
    7.4998  -17.3688  -16.9160 C   0  0  0  0  0  0  0  0  0  0  0  0
    8.4534  -17.5777  -15.7803 C   0  0  0  0  0  0  0  0  0  0  0  0
    9.1368  -16.4467  -15.3254 C   0  0  0  0  0  0  0  0  0  0  0  0
    9.9995  -16.5476  -14.2487 C   0  0  0  0  0  0  0  0  0  0  0  0
   10.2422  -17.7738  -13.6562 C   0  0  0  0  0  0  0  0  0  0  0  0
    9.5914  -18.9112  -14.1384 C   0  0  0  0  0  0  0  0  0  0  0  0
    8.7200  -18.8214  -15.2129 C   0  0  0  0  0  0  0  0  0  0  0  0
   11.2338  -17.8151  -12.4705 C   0  0  0  0  0  0  0  0  0  0  0  0
   12.2081  -18.7457  -12.7864 F   0  0  0  0  0  0  0  0  0  0  0  0
   11.8474  -16.6129  -12.4644 F   0  0  0  0  0  0  0  0  0  0  0  0
   10.6563  -18.2022  -11.3360 F   0  0  0  0  0  0  0  0  0  0  0  0
 44 43  2  0  0  0
 57 55  1  0  0  0
 51 50  2  0  0  0
 51 52  1  0  0  0
 56 55  1  0  0  0
 50 49  1  0  0  0
 39 38  2  0  0  0
 39 40  1  0  0  0
 55 52  1  0  0  0
 55 58  1  0  0  0
 43 40  1  0  0  0
 43 45  1  0  0  0
 52 53  2  0  0  0
 38 37  1  0  0  0
 49 48  1  0  0  0
 49 54  2  0  0  0
 40 41  2  0  0  0
 48 33  1  0  0  0
 53 54  1  0  0  0
 35 34  2  0  0  0
 37 34  1  0  0  0
 37 42  2  0  0  0
 33 34  1  0  0  0
 33  5  1  0  0  0
 41 42  1  0  0  0
  4  3  1  0  0  0
  4  5  1  0  0  0
  3  2  1  0  0  0
 34 36  2  0  0  0
  2  1  1  0  0  0
  5  1  1  0  0  0
  1  7  1  0  0  0
 17 18  1  0  0  0
 16 15  2  0  0  0
 16 11  1  0  0  0
  7 22  1  0  0  0
  7  8  1  0  0  0
 15 14  1  0  0  0
 10  8  2  0  0  0
 18 11  1  0  0  0
 18 19  2  0  0  0
 11 12  2  0  0  0
 24 25  2  0  0  0
 24 23  1  0  0  0
 14  8  1  0  0  0
 14 13  2  0  0  0
 22 23  1  0  0  0
 25 26  1  0  0  0
  8  9  2  0  0  0
 23 28  2  0  0  0
 30 29  1  0  0  0
 12 13  1  0  0  0
 31 29  1  0  0  0
 26 29  1  0  0  0
 26 27  2  0  0  0
 28 27  1  0  0  0
 29 32  1  0  0  0
 17 20  1  0  0  0
 17 21  1  0  0  0
  3  6  1  0  0  0
 45 46  1  0  0  0
 45 47  1  0  0  0
M  END
> <minimizedAffinity>
-9.85392

$$$$
2QNN_QN1_B_2501


 58 62  0  0  0  0  0  0  0  0999 V2000
   12.3355  -19.5081  -17.3337 C   0  0  0  0  0  0  0  0  0  0  0  0
   12.3095  -17.9837  -17.5570 C   0  0  0  0  0  0  0  0  0  0  0  0
   12.2207  -17.3637  -16.2019 N   0  0  0  0  0  0  0  0  0  0  0  0
   12.7731  -18.2798  -15.2151 C   0  0  0  0  0  0  0  0  0  0  0  0
   12.8655  -19.6765  -15.8699 C   0  0  0  0  0  0  0  0  0  0  0  0
   12.7501  -16.4919  -16.1910 H   0  0  0  0  0  0  0  0  0  0  0  0
   10.9945  -20.1129  -17.4097 N   0  0  0  0  0  0  0  0  0  0  0  0
   10.5955  -20.7368  -18.9548 S   0  0  0  0  0  0  0  0  0  0  0  0
    9.8320  -21.9600  -18.7280 O   0  0  0  0  0  0  0  0  0  0  0  0
   11.8285  -20.7971  -19.7436 O   0  0  0  0  0  0  0  0  0  0  0  0
    7.8481  -17.9567  -21.1736 C   0  0  0  0  0  0  0  0  0  0  0  0
    7.3460  -18.6894  -20.0871 C   0  0  0  0  0  0  0  0  0  0  0  0
    8.2126  -19.5226  -19.3733 C   0  0  0  0  0  0  0  0  0  0  0  0
    9.5222  -19.6749  -19.8049 C   0  0  0  0  0  0  0  0  0  0  0  0
   10.0653  -18.9263  -20.8662 C   0  0  0  0  0  0  0  0  0  0  0  0
    9.1885  -18.0849  -21.5565 C   0  0  0  0  0  0  0  0  0  0  0  0
    5.6269  -17.5214  -22.0735 N   0  0  0  0  0  0  0  0  0  0  0  0
    6.8969  -17.0781  -21.9381 C   0  0  0  0  0  0  0  0  0  0  0  0
    7.2771  -16.0115  -22.3998 O   0  0  0  0  0  0  0  0  0  0  0  0
    5.3637  -18.3871  -21.6855 H   0  0  0  0  0  0  0  0  0  0  0  0
    4.9653  -16.9787  -22.5602 H   0  0  0  0  0  0  0  0  0  0  0  0
   10.0670  -20.3248  -16.2931 C   0  0  0  0  0  0  0  0  0  0  0  0
    9.4255  -18.9765  -15.8670 C   0  0  0  0  0  0  0  0  0  0  0  0
    9.3123  -18.6777  -14.4921 C   0  0  0  0  0  0  0  0  0  0  0  0
    8.7635  -17.4652  -14.0497 C   0  0  0  0  0  0  0  0  0  0  0  0
    8.2605  -16.5465  -14.9954 C   0  0  0  0  0  0  0  0  0  0  0  0
    8.3660  -16.8357  -16.3576 C   0  0  0  0  0  0  0  0  0  0  0  0
    8.9166  -18.0570  -16.7879 C   0  0  0  0  0  0  0  0  0  0  0  0
    7.6750  -15.2149  -14.5096 C   0  0  0  0  0  0  0  0  0  0  0  0
    6.3562  -15.0719  -14.7742 F   0  0  0  0  0  0  0  0  0  0  0  0
    7.8914  -15.0942  -13.1633 F   0  0  0  0  0  0  0  0  0  0  0  0
    8.3819  -14.2066  -15.0809 F   0  0  0  0  0  0  0  0  0  0  0  0
   14.2278  -20.1592  -15.7946 N   0  0  0  0  0  0  0  0  0  0  0  0
   15.0067  -20.0835  -14.3291 S   0  0  0  0  0  0  0  0  0  0  0  0
   13.9902  -19.9809  -13.2942 O   0  0  0  0  0  0  0  0  0  0  0  0
   16.0900  -19.1126  -14.3607 O   0  0  0  0  0  0  0  0  0  0  0  0
   15.7151  -21.7051  -14.2176 C   0  0  0  0  0  0  0  0  0  0  0  0
   17.0781  -21.8577  -14.4835 C   0  0  0  0  0  0  0  0  0  0  0  0
   17.6725  -23.1282  -14.3947 C   0  0  0  0  0  0  0  0  0  0  0  0
   16.8597  -24.2109  -14.0760 C   0  0  0  0  0  0  0  0  0  0  0  0
   15.5113  -24.0445  -13.7896 C   0  0  0  0  0  0  0  0  0  0  0  0
   14.8821  -22.7798  -13.8785 C   0  0  0  0  0  0  0  0  0  0  0  0
   17.5172  -25.5827  -13.9438 C   0  0  0  0  0  0  0  0  0  0  0  0
   17.4744  -26.1472  -12.8599 O   0  0  0  0  0  0  0  0  0  0  0  0
   18.1298  -26.1815  -14.9565 N   0  0  0  0  0  0  0  0  0  0  0  0
   18.5413  -27.0667  -14.8290 H   0  0  0  0  0  0  0  0  0  0  0  0
   18.1730  -25.7406  -15.8357 H   0  0  0  0  0  0  0  0  0  0  0  0
   15.0396  -20.5341  -16.9392 C   0  0  0  0  0  0  0  0  0  0  0  0
   14.9239  -21.9170  -17.5024 C   0  0  0  0  0  0  0  0  0  0  0  0
   16.0998  -22.4881  -17.9965 C   0  0  0  0  0  0  0  0  0  0  0  0
   16.0857  -23.7805  -18.4897 C   0  0  0  0  0  0  0  0  0  0  0  0
   14.9020  -24.4929  -18.5579 C   0  0  0  0  0  0  0  0  0  0  0  0
   13.7193  -23.9061  -18.1034 C   0  0  0  0  0  0  0  0  0  0  0  0
   13.7221  -22.6138  -17.6015 C   0  0  0  0  0  0  0  0  0  0  0  0
   14.9575  -25.9246  -19.1395 C   0  0  0  0  0  0  0  0  0  0  0  0
   16.0762  -26.5386  -18.6043 F   0  0  0  0  0  0  0  0  0  0  0  0
   13.8896  -26.5702  -18.6251 F   0  0  0  0  0  0  0  0  0  0  0  0
   15.0854  -25.9324  -20.4639 F   0  0  0  0  0  0  0  0  0  0  0  0
 44 43  2  0  0  0
 57 55  1  0  0  0
 51 50  2  0  0  0
 51 52  1  0  0  0
 56 55  1  0  0  0
 50 49  1  0  0  0
 39 38  2  0  0  0
 39 40  1  0  0  0
 55 52  1  0  0  0
 55 58  1  0  0  0
 43 40  1  0  0  0
 43 45  1  0  0  0
 52 53  2  0  0  0
 38 37  1  0  0  0
 49 48  1  0  0  0
 49 54  2  0  0  0
 40 41  2  0  0  0
 48 33  1  0  0  0
 53 54  1  0  0  0
 35 34  2  0  0  0
 37 34  1  0  0  0
 37 42  2  0  0  0
 33 34  1  0  0  0
 33  5  1  0  0  0
 41 42  1  0  0  0
  4  3  1  0  0  0
  4  5  1  0  0  0
  3  2  1  0  0  0
 34 36  2  0  0  0
  2  1  1  0  0  0
  5  1  1  0  0  0
  1  7  1  0  0  0
 17 18  1  0  0  0
 16 15  2  0  0  0
 16 11  1  0  0  0
  7 22  1  0  0  0
  7  8  1  0  0  0
 15 14  1  0  0  0
 10  8  2  0  0  0
 18 11  1  0  0  0
 18 19  2  0  0  0
 11 12  2  0  0  0
 24 25  2  0  0  0
 24 23  1  0  0  0
 14  8  1  0  0  0
 14 13  2  0  0  0
 22 23  1  0  0  0
 25 26  1  0  0  0
  8  9  2  0  0  0
 23 28  2  0  0  0
 30 29  1  0  0  0
 12 13  1  0  0  0
 31 29  1  0  0  0
 26 29  1  0  0  0
 26 27  2  0  0  0
 28 27  1  0  0  0
 29 32  1  0  0  0
 17 20  1  0  0  0
 17 21  1  0  0  0
  3  6  1  0  0  0
 45 46  1  0  0  0
 45 47  1  0  0  0
M  END
> <minimizedAffinity>
-9.84619

$$$$
2QNN_QN1_B_2501


 58 62  0  0  0  0  0  0  0  0999 V2000
   12.4133  -20.8021  -18.1164 C   0  0  0  0  0  0  0  0  0  0  0  0
   13.2690  -21.0759  -19.3682 C   0  0  0  0  0  0  0  0  0  0  0  0
   14.4677  -20.1930  -19.2571 N   0  0  0  0  0  0  0  0  0  0  0  0
   14.7104  -19.8832  -17.8559 C   0  0  0  0  0  0  0  0  0  0  0  0
   13.4304  -20.2400  -17.0669 C   0  0  0  0  0  0  0  0  0  0  0  0
   15.2803  -20.6717  -19.6456 H   0  0  0  0  0  0  0  0  0  0  0  0
   11.3812  -19.7776  -18.3509 N   0  0  0  0  0  0  0  0  0  0  0  0
    9.7833  -20.3940  -18.4022 S   0  0  0  0  0  0  0  0  0  0  0  0
    9.1953  -20.1427  -17.0900 O   0  0  0  0  0  0  0  0  0  0  0  0
    9.8510  -21.7679  -18.9062 O   0  0  0  0  0  0  0  0  0  0  0  0
    7.2778  -18.0819  -21.3307 C   0  0  0  0  0  0  0  0  0  0  0  0
    6.7302  -18.4240  -20.0848 C   0  0  0  0  0  0  0  0  0  0  0  0
    7.5253  -19.1077  -19.1599 C   0  0  0  0  0  0  0  0  0  0  0  0
    8.8025  -19.5092  -19.5234 C   0  0  0  0  0  0  0  0  0  0  0  0
    9.3931  -19.1490  -20.7495 C   0  0  0  0  0  0  0  0  0  0  0  0
    8.5893  -18.4498  -21.6541 C   0  0  0  0  0  0  0  0  0  0  0  0
    5.1027  -17.7302  -22.3691 N   0  0  0  0  0  0  0  0  0  0  0  0
    6.4021  -17.3603  -22.3175 C   0  0  0  0  0  0  0  0  0  0  0  0
    6.8661  -16.4771  -23.0245 O   0  0  0  0  0  0  0  0  0  0  0  0
    4.7712  -18.4469  -21.7812 H   0  0  0  0  0  0  0  0  0  0  0  0
    4.4880  -17.2828  -22.9946 H   0  0  0  0  0  0  0  0  0  0  0  0
   11.5891  -18.3270  -18.4173 C   0  0  0  0  0  0  0  0  0  0  0  0
   10.7110  -17.6114  -17.3553 C   0  0  0  0  0  0  0  0  0  0  0  0
    9.5935  -16.8632  -17.7842 C   0  0  0  0  0  0  0  0  0  0  0  0
    8.7514  -16.2158  -16.8683 C   0  0  0  0  0  0  0  0  0  0  0  0
    9.0577  -16.2642  -15.4916 C   0  0  0  0  0  0  0  0  0  0  0  0
   10.1631  -17.0000  -15.0592 C   0  0  0  0  0  0  0  0  0  0  0  0
   11.0012  -17.6427  -15.9888 C   0  0  0  0  0  0  0  0  0  0  0  0
    8.1266  -15.5684  -14.4912 C   0  0  0  0  0  0  0  0  0  0  0  0
    6.8357  -15.9614  -14.5853 F   0  0  0  0  0  0  0  0  0  0  0  0
    8.5857  -15.7915  -13.2209 F   0  0  0  0  0  0  0  0  0  0  0  0
    8.2256  -14.2278  -14.6807 F   0  0  0  0  0  0  0  0  0  0  0  0
   13.7554  -21.1747  -16.0108 N   0  0  0  0  0  0  0  0  0  0  0  0
   14.4364  -20.5781  -14.6177 S   0  0  0  0  0  0  0  0  0  0  0  0
   13.4028  -20.5583  -13.5950 O   0  0  0  0  0  0  0  0  0  0  0  0
   15.1976  -19.3669  -14.8832 O   0  0  0  0  0  0  0  0  0  0  0  0
   15.5750  -21.8702  -14.1958 C   0  0  0  0  0  0  0  0  0  0  0  0
   15.0744  -23.0368  -13.6125 C   0  0  0  0  0  0  0  0  0  0  0  0
   15.9492  -24.0837  -13.2748 C   0  0  0  0  0  0  0  0  0  0  0  0
   17.3088  -23.9010  -13.5039 C   0  0  0  0  0  0  0  0  0  0  0  0
   17.7930  -22.7478  -14.1066 C   0  0  0  0  0  0  0  0  0  0  0  0
   16.9389  -21.6728  -14.4504 C   0  0  0  0  0  0  0  0  0  0  0  0
   18.2505  -25.0559  -13.1703 C   0  0  0  0  0  0  0  0  0  0  0  0
   18.6147  -25.7911  -14.0770 O   0  0  0  0  0  0  0  0  0  0  0  0
   18.6857  -25.2895  -11.9392 N   0  0  0  0  0  0  0  0  0  0  0  0
   19.2924  -26.0454  -11.7667 H   0  0  0  0  0  0  0  0  0  0  0  0
   18.4020  -24.7069  -11.1980 H   0  0  0  0  0  0  0  0  0  0  0  0
   13.7083  -22.6206  -16.1392 C   0  0  0  0  0  0  0  0  0  0  0  0
   14.4285  -23.2828  -17.2732 C   0  0  0  0  0  0  0  0  0  0  0  0
   15.7945  -23.0102  -17.3867 C   0  0  0  0  0  0  0  0  0  0  0  0
   16.5404  -23.6207  -18.3790 C   0  0  0  0  0  0  0  0  0  0  0  0
   15.9330  -24.4519  -19.3028 C   0  0  0  0  0  0  0  0  0  0  0  0
   14.5601  -24.6905  -19.2148 C   0  0  0  0  0  0  0  0  0  0  0  0
   13.8032  -24.0891  -18.2211 C   0  0  0  0  0  0  0  0  0  0  0  0
   16.8249  -25.0838  -20.3966 C   0  0  0  0  0  0  0  0  0  0  0  0
   16.8402  -24.2067  -21.4668 F   0  0  0  0  0  0  0  0  0  0  0  0
   18.0768  -25.0859  -19.8919 F   0  0  0  0  0  0  0  0  0  0  0  0
   16.3495  -26.2474  -20.8329 F   0  0  0  0  0  0  0  0  0  0  0  0
 44 43  2  0  0  0
 57 55  1  0  0  0
 51 50  2  0  0  0
 51 52  1  0  0  0
 56 55  1  0  0  0
 50 49  1  0  0  0
 39 38  2  0  0  0
 39 40  1  0  0  0
 55 52  1  0  0  0
 55 58  1  0  0  0
 43 40  1  0  0  0
 43 45  1  0  0  0
 52 53  2  0  0  0
 38 37  1  0  0  0
 49 48  1  0  0  0
 49 54  2  0  0  0
 40 41  2  0  0  0
 48 33  1  0  0  0
 53 54  1  0  0  0
 35 34  2  0  0  0
 37 34  1  0  0  0
 37 42  2  0  0  0
 33 34  1  0  0  0
 33  5  1  0  0  0
 41 42  1  0  0  0
  4  3  1  0  0  0
  4  5  1  0  0  0
  3  2  1  0  0  0
 34 36  2  0  0  0
  2  1  1  0  0  0
  5  1  1  0  0  0
  1  7  1  0  0  0
 17 18  1  0  0  0
 16 15  2  0  0  0
 16 11  1  0  0  0
  7 22  1  0  0  0
  7  8  1  0  0  0
 15 14  1  0  0  0
 10  8  2  0  0  0
 18 11  1  0  0  0
 18 19  2  0  0  0
 11 12  2  0  0  0
 24 25  2  0  0  0
 24 23  1  0  0  0
 14  8  1  0  0  0
 14 13  2  0  0  0
 22 23  1  0  0  0
 25 26  1  0  0  0
  8  9  2  0  0  0
 23 28  2  0  0  0
 30 29  1  0  0  0
 12 13  1  0  0  0
 31 29  1  0  0  0
 26 29  1  0  0  0
 26 27  2  0  0  0
 28 27  1  0  0  0
 29 32  1  0  0  0
 17 20  1  0  0  0
 17 21  1  0  0  0
  3  6  1  0  0  0
 45 46  1  0  0  0
 45 47  1  0  0  0
M  END
> <minimizedAffinity>
-9.74977

$$$$
