2Y81_931_A_1244


 35 39  0  0  0  0  0  0  0  0999 V2000
    6.1026    4.8916   20.9815 N   0  0  0  0  0  0  0  0  0  0  0  0
    6.6416    5.8238   21.7953 C   0  0  0  0  0  0  0  0  0  0  0  0
    7.8420    6.0786   21.8921 O   0  0  0  0  0  0  0  0  0  0  0  0
    4.6556    4.7491   21.1855 C   0  0  0  0  0  0  0  0  0  0  0  0
    4.2496    6.0226   21.9092 C   0  0  0  0  0  0  0  0  0  0  0  0
    5.5228    6.4961   22.5944 C   0  0  0  0  0  0  0  0  0  0  0  0
    6.8903    2.3111   21.6143 F   0  0  0  0  0  0  0  0  0  0  0  0
    7.2524    2.8052   20.4224 C   0  0  0  0  0  0  0  0  0  0  0  0
    7.9922    1.9791   19.5894 C   0  0  0  0  0  0  0  0  0  0  0  0
    8.3836    2.4500   18.3325 C   0  0  0  0  0  0  0  0  0  0  0  0
    8.0201    3.7517   17.9564 C   0  0  0  0  0  0  0  0  0  0  0  0
    7.2747    4.5732   18.8080 C   0  0  0  0  0  0  0  0  0  0  0  0
    6.8713    4.1007   20.0638 C   0  0  0  0  0  0  0  0  0  0  0  0
    8.9364   -0.7059   16.7147 C   0  0  0  0  0  0  0  0  0  0  0  0
    8.3359    0.6247   16.6670 N   0  0  0  0  0  0  0  0  0  0  0  0
   10.3249    0.7882   18.0492 C   0  0  0  0  0  0  0  0  0  0  0  0
   10.2637   -0.6137   17.4638 C   0  0  0  0  0  0  0  0  0  0  0  0
    9.1912    1.5792   17.3883 C   0  0  0  0  0  0  0  0  0  0  0  0
    7.4147    0.5971   17.1042 H   0  0  0  0  0  0  0  0  0  0  0  0
    5.6374    7.9388   22.6484 N   0  0  0  0  0  0  0  0  0  0  0  0
    4.7579    8.3122   22.2914 H   0  0  0  0  0  0  0  0  0  0  0  0
    5.9258    8.6987   24.0311 S   0  0  0  0  0  0  0  0  0  0  0  0
    5.1734    8.1013   25.0834 O   0  0  0  0  0  0  0  0  0  0  0  0
    5.6648   10.0482   23.6456 O   0  0  0  0  0  0  0  0  0  0  0  0
    7.6509    8.5386   24.4248 C   0  0  0  0  0  0  0  0  0  0  0  0
    8.0377    7.8946   25.5736 C   0  0  0  0  0  0  0  0  0  0  0  0
    8.5971    9.0733   23.5345 C   0  0  0  0  0  0  0  0  0  0  0  0
    9.9378    8.9620   23.8154 C   0  0  0  0  0  0  0  0  0  0  0  0
   10.3633    8.3056   24.9950 C   0  0  0  0  0  0  0  0  0  0  0  0
   11.7267    8.1779   25.2950 C   0  0  0  0  0  0  0  0  0  0  0  0
   12.1101    7.5481   26.4541 C   0  0  0  0  0  0  0  0  0  0  0  0
   13.8140    7.4105   26.7686 Cl  0  0  0  0  0  0  0  0  0  0  0  0
    9.4148    7.7661   25.8944 C   0  0  0  0  0  0  0  0  0  0  0  0
    9.8543    7.1237   27.0815 C   0  0  0  0  0  0  0  0  0  0  0  0
   11.1946    7.0140   27.3523 C   0  0  0  0  0  0  0  0  0  0  0  0
  7  8  1  0  0  0
  8  9  1  0  0  0
  8 13  2  0  0  0
  9 10  2  0  0  0
 14 15  1  0  0  0
 14 17  1  0  0  0
 15 18  1  0  0  0
 10 11  1  0  0  0
 10 18  1  0  0  0
 11 12  2  0  0  0
 12 13  1  0  0  0
 13  1  1  0  0  0
  1  2  1  0  0  0
  1  4  1  0  0  0
  2  3  2  0  0  0
  2  6  1  0  0  0
  4  5  1  0  0  0
  5  6  1  0  0  0
  6 20  1  0  0  0
 20 22  1  0  0  0
 22 24  2  0  0  0
 22 23  2  0  0  0
 22 25  1  0  0  0
 16 17  1  0  0  0
 16 18  1  0  0  0
 25 26  1  0  0  0
 25 27  2  0  0  0
 26 33  2  0  0  0
 27 28  1  0  0  0
 28 29  2  0  0  0
 29 30  1  0  0  0
 29 33  1  0  0  0
 30 31  2  0  0  0
 31 32  1  0  0  0
 31 35  1  0  0  0
 33 34  1  0  0  0
 34 35  2  0  0  0
 15 19  1  0  0  0
 20 21  1  0  0  0
M  END
> <minimizedAffinity>
-10.82728

$$$$
2Y81_931_A_1244


 35 39  0  0  0  0  0  0  0  0999 V2000
    6.0778    6.0119   19.5572 N   0  0  0  0  0  0  0  0  0  0  0  0
    6.4215    6.8211   20.5813 C   0  0  0  0  0  0  0  0  0  0  0  0
    7.2244    6.5433   21.4720 O   0  0  0  0  0  0  0  0  0  0  0  0
    5.0086    6.5877   18.7319 C   0  0  0  0  0  0  0  0  0  0  0  0
    5.0188    8.0671   19.0800 C   0  0  0  0  0  0  0  0  0  0  0  0
    5.6351    8.1294   20.4696 C   0  0  0  0  0  0  0  0  0  0  0  0
    4.8405    3.7049   20.4661 F   0  0  0  0  0  0  0  0  0  0  0  0
    6.0062    3.5798   19.8171 C   0  0  0  0  0  0  0  0  0  0  0  0
    6.5031    2.2967   19.6433 C   0  0  0  0  0  0  0  0  0  0  0  0
    7.7117    2.1184   18.9635 C   0  0  0  0  0  0  0  0  0  0  0  0
    8.3895    3.2492   18.4840 C   0  0  0  0  0  0  0  0  0  0  0  0
    7.8760    4.5370   18.6681 C   0  0  0  0  0  0  0  0  0  0  0  0
    6.6596    4.7186   19.3392 C   0  0  0  0  0  0  0  0  0  0  0  0
   10.2230   -0.0203   17.5487 C   0  0  0  0  0  0  0  0  0  0  0  0
    9.7598    0.7623   18.6917 N   0  0  0  0  0  0  0  0  0  0  0  0
    7.7864    0.0092   17.4952 C   0  0  0  0  0  0  0  0  0  0  0  0
    9.0081   -0.6242   16.8485 C   0  0  0  0  0  0  0  0  0  0  0  0
    8.2905    0.7324   18.7483 C   0  0  0  0  0  0  0  0  0  0  0  0
   10.0760    1.7270   18.5930 H   0  0  0  0  0  0  0  0  0  0  0  0
    6.4457    9.3109   20.6805 N   0  0  0  0  0  0  0  0  0  0  0  0
    6.2637    9.9309   19.8913 H   0  0  0  0  0  0  0  0  0  0  0  0
    6.2874   10.2021   22.0045 S   0  0  0  0  0  0  0  0  0  0  0  0
    4.9236   10.2276   22.4165 O   0  0  0  0  0  0  0  0  0  0  0  0
    6.9277   11.4071   21.5850 O   0  0  0  0  0  0  0  0  0  0  0  0
    7.2454    9.4680   23.3083 C   0  0  0  0  0  0  0  0  0  0  0  0
    8.6166    9.4933   23.2528 C   0  0  0  0  0  0  0  0  0  0  0  0
    6.5699    8.8775   24.3894 C   0  0  0  0  0  0  0  0  0  0  0  0
    7.2876    8.3035   25.4113 C   0  0  0  0  0  0  0  0  0  0  0  0
    8.7026    8.3129   25.3768 C   0  0  0  0  0  0  0  0  0  0  0  0
    9.4509    7.7372   26.4129 C   0  0  0  0  0  0  0  0  0  0  0  0
   10.8230    7.7487   26.3460 C   0  0  0  0  0  0  0  0  0  0  0  0
   11.6984    7.0290   27.6639 Cl  0  0  0  0  0  0  0  0  0  0  0  0
    9.3870    8.9058   24.2907 C   0  0  0  0  0  0  0  0  0  0  0  0
   10.8062    8.8951   24.2608 C   0  0  0  0  0  0  0  0  0  0  0  0
   11.5147    8.3230   25.2867 C   0  0  0  0  0  0  0  0  0  0  0  0
  7  8  1  0  0  0
  8  9  1  0  0  0
  8 13  2  0  0  0
  9 10  2  0  0  0
 14 15  1  0  0  0
 14 17  1  0  0  0
 15 18  1  0  0  0
 10 11  1  0  0  0
 10 18  1  0  0  0
 11 12  2  0  0  0
 12 13  1  0  0  0
 13  1  1  0  0  0
  1  2  1  0  0  0
  1  4  1  0  0  0
  2  3  2  0  0  0
  2  6  1  0  0  0
  4  5  1  0  0  0
  5  6  1  0  0  0
  6 20  1  0  0  0
 20 22  1  0  0  0
 22 24  2  0  0  0
 22 23  2  0  0  0
 22 25  1  0  0  0
 16 17  1  0  0  0
 16 18  1  0  0  0
 25 26  1  0  0  0
 25 27  2  0  0  0
 26 33  2  0  0  0
 27 28  1  0  0  0
 28 29  2  0  0  0
 29 30  1  0  0  0
 29 33  1  0  0  0
 30 31  2  0  0  0
 31 32  1  0  0  0
 31 35  1  0  0  0
 33 34  1  0  0  0
 34 35  2  0  0  0
 15 19  1  0  0  0
 20 21  1  0  0  0
M  END
> <minimizedAffinity>
-10.09780

$$$$
2Y81_931_A_1244


 35 39  0  0  0  0  0  0  0  0999 V2000
    6.9721    8.2743   21.1745 N   0  0  0  0  0  0  0  0  0  0  0  0
    7.0789    7.3252   20.2208 C   0  0  0  0  0  0  0  0  0  0  0  0
    7.9033    6.4112   20.2127 O   0  0  0  0  0  0  0  0  0  0  0  0
    5.9677    9.2898   20.8345 C   0  0  0  0  0  0  0  0  0  0  0  0
    5.1168    8.6336   19.7596 C   0  0  0  0  0  0  0  0  0  0  0  0
    6.0258    7.5824   19.1403 C   0  0  0  0  0  0  0  0  0  0  0  0
    6.1038    7.1490   23.5534 F   0  0  0  0  0  0  0  0  0  0  0  0
    7.3105    7.7315   23.5365 C   0  0  0  0  0  0  0  0  0  0  0  0
    8.0392    7.7199   24.7165 C   0  0  0  0  0  0  0  0  0  0  0  0
    9.3074    8.3079   24.7420 C   0  0  0  0  0  0  0  0  0  0  0  0
    9.8004    8.9000   23.5697 C   0  0  0  0  0  0  0  0  0  0  0  0
    9.0531    8.9046   22.3876 C   0  0  0  0  0  0  0  0  0  0  0  0
    7.7865    8.3065   22.3554 C   0  0  0  0  0  0  0  0  0  0  0  0
   12.2516    7.3141   26.5382 C   0  0  0  0  0  0  0  0  0  0  0  0
   11.5802    8.3145   25.7125 N   0  0  0  0  0  0  0  0  0  0  0  0
    9.8586    7.1589   26.9750 C   0  0  0  0  0  0  0  0  0  0  0  0
   11.2146    6.6586   27.4472 C   0  0  0  0  0  0  0  0  0  0  0  0
   10.1400    8.3156   26.0104 C   0  0  0  0  0  0  0  0  0  0  0  0
   11.7227    8.0924   24.7272 H   0  0  0  0  0  0  0  0  0  0  0  0
    5.3172    6.3885   18.7281 N   0  0  0  0  0  0  0  0  0  0  0  0
    4.3498    6.5084   19.0283 H   0  0  0  0  0  0  0  0  0  0  0  0
    5.2633    5.9439   17.1880 S   0  0  0  0  0  0  0  0  0  0  0  0
    5.8437    6.9537   16.3670 O   0  0  0  0  0  0  0  0  0  0  0  0
    3.8773    5.6282   17.0567 O   0  0  0  0  0  0  0  0  0  0  0  0
    6.2118    4.4551   16.9870 C   0  0  0  0  0  0  0  0  0  0  0  0
    7.2180    4.1555   17.8712 C   0  0  0  0  0  0  0  0  0  0  0  0
    5.9010    3.5981   15.9179 C   0  0  0  0  0  0  0  0  0  0  0  0
    6.6190    2.4397   15.7409 C   0  0  0  0  0  0  0  0  0  0  0  0
    7.6640    2.1089   16.6364 C   0  0  0  0  0  0  0  0  0  0  0  0
    8.4032    0.9289   16.4744 C   0  0  0  0  0  0  0  0  0  0  0  0
    9.4211    0.6404   17.3507 C   0  0  0  0  0  0  0  0  0  0  0  0
   10.2966   -0.8411   17.1067 Cl  0  0  0  0  0  0  0  0  0  0  0  0
    7.9808    2.9684   17.7137 C   0  0  0  0  0  0  0  0  0  0  0  0
    9.0411    2.6325   18.5957 C   0  0  0  0  0  0  0  0  0  0  0  0
    9.7503    1.4726   18.4136 C   0  0  0  0  0  0  0  0  0  0  0  0
  7  8  1  0  0  0
  8  9  1  0  0  0
  8 13  2  0  0  0
  9 10  2  0  0  0
 14 15  1  0  0  0
 14 17  1  0  0  0
 15 18  1  0  0  0
 10 11  1  0  0  0
 10 18  1  0  0  0
 11 12  2  0  0  0
 12 13  1  0  0  0
 13  1  1  0  0  0
  1  2  1  0  0  0
  1  4  1  0  0  0
  2  3  2  0  0  0
  2  6  1  0  0  0
  4  5  1  0  0  0
  5  6  1  0  0  0
  6 20  1  0  0  0
 20 22  1  0  0  0
 22 24  2  0  0  0
 22 23  2  0  0  0
 22 25  1  0  0  0
 16 17  1  0  0  0
 16 18  1  0  0  0
 25 26  1  0  0  0
 25 27  2  0  0  0
 26 33  2  0  0  0
 27 28  1  0  0  0
 28 29  2  0  0  0
 29 30  1  0  0  0
 29 33  1  0  0  0
 30 31  2  0  0  0
 31 32  1  0  0  0
 31 35  1  0  0  0
 33 34  1  0  0  0
 34 35  2  0  0  0
 15 19  1  0  0  0
 20 21  1  0  0  0
M  END
> <minimizedAffinity>
-9.86297

$$$$
2Y81_931_A_1244


 35 39  0  0  0  0  0  0  0  0999 V2000
    7.5437    2.2847   19.4304 N   0  0  0  0  0  0  0  0  0  0  0  0
    7.3172    3.5595   19.0492 C   0  0  0  0  0  0  0  0  0  0  0  0
    7.6350    4.0472   17.9646 O   0  0  0  0  0  0  0  0  0  0  0  0
    7.1518    2.0463   20.8252 C   0  0  0  0  0  0  0  0  0  0  0  0
    6.2236    3.2027   21.1589 C   0  0  0  0  0  0  0  0  0  0  0  0
    6.6232    4.3062   20.1907 C   0  0  0  0  0  0  0  0  0  0  0  0
    6.0101    0.7061   17.7464 F   0  0  0  0  0  0  0  0  0  0  0  0
    7.3371    0.5193   17.7485 C   0  0  0  0  0  0  0  0  0  0  0  0
    7.8444   -0.4510   16.8972 C   0  0  0  0  0  0  0  0  0  0  0  0
    9.2242   -0.6732   16.8596 C   0  0  0  0  0  0  0  0  0  0  0  0
   10.0537    0.0909   17.6940 C   0  0  0  0  0  0  0  0  0  0  0  0
    9.5270    1.0651   18.5480 C   0  0  0  0  0  0  0  0  0  0  0  0
    8.1458    1.2981   18.5801 C   0  0  0  0  0  0  0  0  0  0  0  0
    9.4613   -4.0849   15.7706 C   0  0  0  0  0  0  0  0  0  0  0  0
    8.8456   -2.7703   15.6082 N   0  0  0  0  0  0  0  0  0  0  0  0
   11.0827   -2.4084   16.4786 C   0  0  0  0  0  0  0  0  0  0  0  0
   10.9171   -3.8917   16.1882 C   0  0  0  0  0  0  0  0  0  0  0  0
    9.8223   -1.7226   15.9413 C   0  0  0  0  0  0  0  0  0  0  0  0
    8.0405   -2.6937   16.2297 H   0  0  0  0  0  0  0  0  0  0  0  0
    5.5034    5.1151   19.7558 N   0  0  0  0  0  0  0  0  0  0  0  0
    4.7437    4.9336   20.4118 H   0  0  0  0  0  0  0  0  0  0  0  0
    5.6273    6.7095   19.6339 S   0  0  0  0  0  0  0  0  0  0  0  0
    4.3788    7.3221   19.9442 O   0  0  0  0  0  0  0  0  0  0  0  0
    6.1724    6.8283   18.3198 O   0  0  0  0  0  0  0  0  0  0  0  0
    6.8315    7.2829   20.8077 C   0  0  0  0  0  0  0  0  0  0  0  0
    6.5953    7.1555   22.1538 C   0  0  0  0  0  0  0  0  0  0  0  0
    8.0218    7.8536   20.3268 C   0  0  0  0  0  0  0  0  0  0  0  0
    8.9698    8.3041   21.2140 C   0  0  0  0  0  0  0  0  0  0  0  0
    8.7496    8.1878   22.6073 C   0  0  0  0  0  0  0  0  0  0  0  0
    9.7077    8.6368   23.5267 C   0  0  0  0  0  0  0  0  0  0  0  0
    9.4609    8.5239   24.8734 C   0  0  0  0  0  0  0  0  0  0  0  0
   10.6890    9.0883   25.9662 Cl  0  0  0  0  0  0  0  0  0  0  0  0
    7.5530    7.6144   23.0962 C   0  0  0  0  0  0  0  0  0  0  0  0
    7.3378    7.5175   24.4960 C   0  0  0  0  0  0  0  0  0  0  0  0
    8.2909    7.9666   25.3744 C   0  0  0  0  0  0  0  0  0  0  0  0
  7  8  1  0  0  0
  8  9  1  0  0  0
  8 13  2  0  0  0
  9 10  2  0  0  0
 14 15  1  0  0  0
 14 17  1  0  0  0
 15 18  1  0  0  0
 10 11  1  0  0  0
 10 18  1  0  0  0
 11 12  2  0  0  0
 12 13  1  0  0  0
 13  1  1  0  0  0
  1  2  1  0  0  0
  1  4  1  0  0  0
  2  3  2  0  0  0
  2  6  1  0  0  0
  4  5  1  0  0  0
  5  6  1  0  0  0
  6 20  1  0  0  0
 20 22  1  0  0  0
 22 24  2  0  0  0
 22 23  2  0  0  0
 22 25  1  0  0  0
 16 17  1  0  0  0
 16 18  1  0  0  0
 25 26  1  0  0  0
 25 27  2  0  0  0
 26 33  2  0  0  0
 27 28  1  0  0  0
 28 29  2  0  0  0
 29 30  1  0  0  0
 29 33  1  0  0  0
 30 31  2  0  0  0
 31 32  1  0  0  0
 31 35  1  0  0  0
 33 34  1  0  0  0
 34 35  2  0  0  0
 15 19  1  0  0  0
 20 21  1  0  0  0
M  END
> <minimizedAffinity>
-9.82662

$$$$
2Y81_931_A_1244


 35 39  0  0  0  0  0  0  0  0999 V2000
    6.8080    6.5324   19.9246 N   0  0  0  0  0  0  0  0  0  0  0  0
    5.8478    6.5312   20.8731 C   0  0  0  0  0  0  0  0  0  0  0  0
    5.1075    5.5842   21.1382 O   0  0  0  0  0  0  0  0  0  0  0  0
    7.4360    7.8511   19.7746 C   0  0  0  0  0  0  0  0  0  0  0  0
    7.0793    8.5865   21.0561 C   0  0  0  0  0  0  0  0  0  0  0  0
    5.8123    7.9037   21.5494 C   0  0  0  0  0  0  0  0  0  0  0  0
    5.5003    6.0249   17.5346 F   0  0  0  0  0  0  0  0  0  0  0  0
    6.4483    5.1635   17.9284 C   0  0  0  0  0  0  0  0  0  0  0  0
    6.7082    4.0814   17.1007 C   0  0  0  0  0  0  0  0  0  0  0  0
    7.6959    3.1625   17.4676 C   0  0  0  0  0  0  0  0  0  0  0  0
    8.3897    3.3617   18.6705 C   0  0  0  0  0  0  0  0  0  0  0  0
    8.1154    4.4573   19.4952 C   0  0  0  0  0  0  0  0  0  0  0  0
    7.1339    5.3863   19.1252 C   0  0  0  0  0  0  0  0  0  0  0  0
    7.6822   -0.3842   16.9169 C   0  0  0  0  0  0  0  0  0  0  0  0
    7.0114    0.9015   16.7417 N   0  0  0  0  0  0  0  0  0  0  0  0
    9.3967    1.3457   16.8219 C   0  0  0  0  0  0  0  0  0  0  0  0
    9.1904   -0.1607   16.8361 C   0  0  0  0  0  0  0  0  0  0  0  0
    8.0149    1.9660   16.5907 C   0  0  0  0  0  0  0  0  0  0  0  0
    6.4312    1.0954   17.5578 H   0  0  0  0  0  0  0  0  0  0  0  0
    5.7284    7.8345   22.9936 N   0  0  0  0  0  0  0  0  0  0  0  0
    6.2868    7.0295   23.2774 H   0  0  0  0  0  0  0  0  0  0  0  0
    6.1993    9.0612   23.9134 S   0  0  0  0  0  0  0  0  0  0  0  0
    5.4003    9.1237   25.0916 O   0  0  0  0  0  0  0  0  0  0  0  0
    6.1564   10.1281   22.9659 O   0  0  0  0  0  0  0  0  0  0  0  0
    7.8866    8.7968   24.4028 C   0  0  0  0  0  0  0  0  0  0  0  0
    8.1707    8.0453   25.5156 C   0  0  0  0  0  0  0  0  0  0  0  0
    8.9100    9.3620   23.6236 C   0  0  0  0  0  0  0  0  0  0  0  0
   10.2235    9.1717   23.9801 C   0  0  0  0  0  0  0  0  0  0  0  0
   10.5437    8.4037   25.1252 C   0  0  0  0  0  0  0  0  0  0  0  0
   11.8780    8.1945   25.5006 C   0  0  0  0  0  0  0  0  0  0  0  0
   12.1586    7.4565   26.6248 C   0  0  0  0  0  0  0  0  0  0  0  0
   13.8310    7.2218   27.0360 Cl  0  0  0  0  0  0  0  0  0  0  0  0
    9.5172    7.8331   25.9127 C   0  0  0  0  0  0  0  0  0  0  0  0
    9.8513    7.0777   27.0673 C   0  0  0  0  0  0  0  0  0  0  0  0
   11.1652    6.8899   27.4138 C   0  0  0  0  0  0  0  0  0  0  0  0
  7  8  1  0  0  0
  8  9  1  0  0  0
  8 13  2  0  0  0
  9 10  2  0  0  0
 14 15  1  0  0  0
 14 17  1  0  0  0
 15 18  1  0  0  0
 10 11  1  0  0  0
 10 18  1  0  0  0
 11 12  2  0  0  0
 12 13  1  0  0  0
 13  1  1  0  0  0
  1  2  1  0  0  0
  1  4  1  0  0  0
  2  3  2  0  0  0
  2  6  1  0  0  0
  4  5  1  0  0  0
  5  6  1  0  0  0
  6 20  1  0  0  0
 20 22  1  0  0  0
 22 24  2  0  0  0
 22 23  2  0  0  0
 22 25  1  0  0  0
 16 17  1  0  0  0
 16 18  1  0  0  0
 25 26  1  0  0  0
 25 27  2  0  0  0
 26 33  2  0  0  0
 27 28  1  0  0  0
 28 29  2  0  0  0
 29 30  1  0  0  0
 29 33  1  0  0  0
 30 31  2  0  0  0
 31 32  1  0  0  0
 31 35  1  0  0  0
 33 34  1  0  0  0
 34 35  2  0  0  0
 15 19  1  0  0  0
 20 21  1  0  0  0
M  END
> <minimizedAffinity>
-9.69340

$$$$
2Y81_931_A_1244


 35 39  0  0  0  0  0  0  0  0999 V2000
    6.1638    7.5269   22.1628 N   0  0  0  0  0  0  0  0  0  0  0  0
    6.1000    6.4609   21.3374 C   0  0  0  0  0  0  0  0  0  0  0  0
    6.9592    5.5855   21.2346 O   0  0  0  0  0  0  0  0  0  0  0  0
    5.0381    8.4484   21.9643 C   0  0  0  0  0  0  0  0  0  0  0  0
    3.9981    7.6202   21.2278 C   0  0  0  0  0  0  0  0  0  0  0  0
    4.7991    6.5286   20.5340 C   0  0  0  0  0  0  0  0  0  0  0  0
    5.8991    6.9167   24.8530 F   0  0  0  0  0  0  0  0  0  0  0  0
    7.0633    7.4335   24.4366 C   0  0  0  0  0  0  0  0  0  0  0  0
    8.0545    7.6177   25.3890 C   0  0  0  0  0  0  0  0  0  0  0  0
    9.2885    8.1454   24.9974 C   0  0  0  0  0  0  0  0  0  0  0  0
    9.4820    8.4801   23.6489 C   0  0  0  0  0  0  0  0  0  0  0  0
    8.4722    8.2895   22.7003 C   0  0  0  0  0  0  0  0  0  0  0  0
    7.2382    7.7506   23.0871 C   0  0  0  0  0  0  0  0  0  0  0  0
   12.6380    7.5084   26.1188 C   0  0  0  0  0  0  0  0  0  0  0  0
   11.7237    8.3587   25.3608 N   0  0  0  0  0  0  0  0  0  0  0  0
   10.4376    7.3486   27.1550 C   0  0  0  0  0  0  0  0  0  0  0  0
   11.8968    6.9616   27.3365 C   0  0  0  0  0  0  0  0  0  0  0  0
   10.4019    8.3610   26.0055 C   0  0  0  0  0  0  0  0  0  0  0  0
   11.6368    8.0003   24.4098 H   0  0  0  0  0  0  0  0  0  0  0  0
    4.0965    5.2641   20.4639 N   0  0  0  0  0  0  0  0  0  0  0  0
    3.1798    5.4192   20.8834 H   0  0  0  0  0  0  0  0  0  0  0  0
    3.8361    4.5345   19.0595 S   0  0  0  0  0  0  0  0  0  0  0  0
    3.8908    5.4836   17.9980 O   0  0  0  0  0  0  0  0  0  0  0  0
    2.6146    3.8524   19.3434 O   0  0  0  0  0  0  0  0  0  0  0  0
    5.1157    3.3313   18.7920 C   0  0  0  0  0  0  0  0  0  0  0  0
    6.4334    3.7155   18.7961 C   0  0  0  0  0  0  0  0  0  0  0  0
    4.7474    1.9907   18.5889 C   0  0  0  0  0  0  0  0  0  0  0  0
    5.7180    1.0404   18.3806 C   0  0  0  0  0  0  0  0  0  0  0  0
    7.0841    1.4105   18.3766 C   0  0  0  0  0  0  0  0  0  0  0  0
    8.0878    0.4538   18.1712 C   0  0  0  0  0  0  0  0  0  0  0  0
    9.4048    0.8442   18.1586 C   0  0  0  0  0  0  0  0  0  0  0  0
   10.6062   -0.3869   17.9095 Cl  0  0  0  0  0  0  0  0  0  0  0  0
    7.4597    2.7585   18.5802 C   0  0  0  0  0  0  0  0  0  0  0  0
    8.8326    3.1191   18.5587 C   0  0  0  0  0  0  0  0  0  0  0  0
    9.7949    2.1634   18.3535 C   0  0  0  0  0  0  0  0  0  0  0  0
  7  8  1  0  0  0
  8  9  1  0  0  0
  8 13  2  0  0  0
  9 10  2  0  0  0
 14 15  1  0  0  0
 14 17  1  0  0  0
 15 18  1  0  0  0
 10 11  1  0  0  0
 10 18  1  0  0  0
 11 12  2  0  0  0
 12 13  1  0  0  0
 13  1  1  0  0  0
  1  2  1  0  0  0
  1  4  1  0  0  0
  2  3  2  0  0  0
  2  6  1  0  0  0
  4  5  1  0  0  0
  5  6  1  0  0  0
  6 20  1  0  0  0
 20 22  1  0  0  0
 22 24  2  0  0  0
 22 23  2  0  0  0
 22 25  1  0  0  0
 16 17  1  0  0  0
 16 18  1  0  0  0
 25 26  1  0  0  0
 25 27  2  0  0  0
 26 33  2  0  0  0
 27 28  1  0  0  0
 28 29  2  0  0  0
 29 30  1  0  0  0
 29 33  1  0  0  0
 30 31  2  0  0  0
 31 32  1  0  0  0
 31 35  1  0  0  0
 33 34  1  0  0  0
 34 35  2  0  0  0
 15 19  1  0  0  0
 20 21  1  0  0  0
M  END
> <minimizedAffinity>
-9.62913

$$$$
2Y81_931_A_1244


 35 39  0  0  0  0  0  0  0  0999 V2000
    6.6459    9.1450   20.9061 N   0  0  0  0  0  0  0  0  0  0  0  0
    7.1398    8.9638   19.6631 C   0  0  0  0  0  0  0  0  0  0  0  0
    8.3146    8.7171   19.3909 O   0  0  0  0  0  0  0  0  0  0  0  0
    5.2321    9.5408   20.8874 C   0  0  0  0  0  0  0  0  0  0  0  0
    4.7497    9.1511   19.4998 C   0  0  0  0  0  0  0  0  0  0  0  0
    6.0091    9.1375   18.6463 C   0  0  0  0  0  0  0  0  0  0  0  0
    7.7618   11.3585   22.1449 F   0  0  0  0  0  0  0  0  0  0  0  0
    7.9818   10.1545   22.6905 C   0  0  0  0  0  0  0  0  0  0  0  0
    8.7501   10.1096   23.8443 C   0  0  0  0  0  0  0  0  0  0  0  0
    8.9971    8.8754   24.4530 C   0  0  0  0  0  0  0  0  0  0  0  0
    8.4638    7.7165   23.8695 C   0  0  0  0  0  0  0  0  0  0  0  0
    7.6918    7.7779   22.7051 C   0  0  0  0  0  0  0  0  0  0  0  0
    7.4329    9.0141   22.0986 C   0  0  0  0  0  0  0  0  0  0  0  0
   11.8760    7.6297   26.1972 C   0  0  0  0  0  0  0  0  0  0  0  0
   11.2670    8.7023   25.4149 N   0  0  0  0  0  0  0  0  0  0  0  0
    9.4785    7.6052   26.6359 C   0  0  0  0  0  0  0  0  0  0  0  0
   10.8014    7.0033   27.0827 C   0  0  0  0  0  0  0  0  0  0  0  0
    9.8300    8.7803   25.7177 C   0  0  0  0  0  0  0  0  0  0  0  0
   11.3945    8.5118   24.4210 H   0  0  0  0  0  0  0  0  0  0  0  0
    5.9913    8.1145   17.6213 N   0  0  0  0  0  0  0  0  0  0  0  0
    6.9652    7.8769   17.4331 H   0  0  0  0  0  0  0  0  0  0  0  0
    5.2200    6.7263   17.8458 S   0  0  0  0  0  0  0  0  0  0  0  0
    4.4340    6.4127   16.6994 O   0  0  0  0  0  0  0  0  0  0  0  0
    4.5838    6.9818   19.0980 O   0  0  0  0  0  0  0  0  0  0  0  0
    6.4184    5.4331   18.0653 C   0  0  0  0  0  0  0  0  0  0  0  0
    6.5293    4.4321   17.1327 C   0  0  0  0  0  0  0  0  0  0  0  0
    7.2463    5.4679   19.1998 C   0  0  0  0  0  0  0  0  0  0  0  0
    8.1820    4.4800   19.3925 C   0  0  0  0  0  0  0  0  0  0  0  0
    8.3146    3.4344   18.4477 C   0  0  0  0  0  0  0  0  0  0  0  0
    9.2672    2.4215   18.6251 C   0  0  0  0  0  0  0  0  0  0  0  0
    9.3640    1.4115   17.6989 C   0  0  0  0  0  0  0  0  0  0  0  0
   10.5697    0.1885   17.9659 Cl  0  0  0  0  0  0  0  0  0  0  0  0
    7.4834    3.3948   17.3044 C   0  0  0  0  0  0  0  0  0  0  0  0
    7.6162    2.3324   16.3723 C   0  0  0  0  0  0  0  0  0  0  0  0
    8.5552    1.3523   16.5708 C   0  0  0  0  0  0  0  0  0  0  0  0
  7  8  1  0  0  0
  8  9  1  0  0  0
  8 13  2  0  0  0
  9 10  2  0  0  0
 14 15  1  0  0  0
 14 17  1  0  0  0
 15 18  1  0  0  0
 10 11  1  0  0  0
 10 18  1  0  0  0
 11 12  2  0  0  0
 12 13  1  0  0  0
 13  1  1  0  0  0
  1  2  1  0  0  0
  1  4  1  0  0  0
  2  3  2  0  0  0
  2  6  1  0  0  0
  4  5  1  0  0  0
  5  6  1  0  0  0
  6 20  1  0  0  0
 20 22  1  0  0  0
 22 24  2  0  0  0
 22 23  2  0  0  0
 22 25  1  0  0  0
 16 17  1  0  0  0
 16 18  1  0  0  0
 25 26  1  0  0  0
 25 27  2  0  0  0
 26 33  2  0  0  0
 27 28  1  0  0  0
 28 29  2  0  0  0
 29 30  1  0  0  0
 29 33  1  0  0  0
 30 31  2  0  0  0
 31 32  1  0  0  0
 31 35  1  0  0  0
 33 34  1  0  0  0
 34 35  2  0  0  0
 15 19  1  0  0  0
 20 21  1  0  0  0
M  END
> <minimizedAffinity>
-9.28156

$$$$
2Y81_931_A_1244


 35 39  0  0  0  0  0  0  0  0999 V2000
    5.0073    4.7412   21.7788 N   0  0  0  0  0  0  0  0  0  0  0  0
    5.4941    5.9697   22.0539 C   0  0  0  0  0  0  0  0  0  0  0  0
    6.5914    6.3988   21.6976 O   0  0  0  0  0  0  0  0  0  0  0  0
    3.7226    4.4932   22.4450 C   0  0  0  0  0  0  0  0  0  0  0  0
    3.2176    5.8776   22.8174 C   0  0  0  0  0  0  0  0  0  0  0  0
    4.4725    6.7338   22.8994 C   0  0  0  0  0  0  0  0  0  0  0  0
    4.7719    4.7464   19.0176 F   0  0  0  0  0  0  0  0  0  0  0  0
    5.5493    3.8115   19.5811 C   0  0  0  0  0  0  0  0  0  0  0  0
    6.1855    2.9175   18.7330 C   0  0  0  0  0  0  0  0  0  0  0  0
    7.0139    1.9312   19.2769 C   0  0  0  0  0  0  0  0  0  0  0  0
    7.1689    1.8732   20.6700 C   0  0  0  0  0  0  0  0  0  0  0  0
    6.5197    2.7813   21.5123 C   0  0  0  0  0  0  0  0  0  0  0  0
    5.6976    3.7779   20.9700 C   0  0  0  0  0  0  0  0  0  0  0  0
   10.0540    0.6262   17.8853 C   0  0  0  0  0  0  0  0  0  0  0  0
    9.0429    0.5618   18.9375 N   0  0  0  0  0  0  0  0  0  0  0  0
    7.9430    1.3954   16.9403 C   0  0  0  0  0  0  0  0  0  0  0  0
    9.3705    1.0176   16.5773 C   0  0  0  0  0  0  0  0  0  0  0  0
    7.7314    0.9344   18.3861 C   0  0  0  0  0  0  0  0  0  0  0  0
    9.2917    1.2074   19.6870 H   0  0  0  0  0  0  0  0  0  0  0  0
    4.2614    8.0971   22.4585 N   0  0  0  0  0  0  0  0  0  0  0  0
    3.2536    8.2139   22.3529 H   0  0  0  0  0  0  0  0  0  0  0  0
    4.7742    9.3416   23.3305 S   0  0  0  0  0  0  0  0  0  0  0  0
    4.0604    9.4027   24.5623 O   0  0  0  0  0  0  0  0  0  0  0  0
    4.6443   10.3974   22.3785 O   0  0  0  0  0  0  0  0  0  0  0  0
    6.4968    9.1122   23.7003 C   0  0  0  0  0  0  0  0  0  0  0  0
    6.8757    8.5578   24.8974 C   0  0  0  0  0  0  0  0  0  0  0  0
    7.4484    9.4992   22.7419 C   0  0  0  0  0  0  0  0  0  0  0  0
    8.7872    9.3315   23.0031 C   0  0  0  0  0  0  0  0  0  0  0  0
    9.2050    8.7654   24.2313 C   0  0  0  0  0  0  0  0  0  0  0  0
   10.5659    8.5818   24.5124 C   0  0  0  0  0  0  0  0  0  0  0  0
   10.9427    8.0427   25.7185 C   0  0  0  0  0  0  0  0  0  0  0  0
   12.6433    7.8294   26.0077 Cl  0  0  0  0  0  0  0  0  0  0  0  0
    8.2510    8.3746   25.1991 C   0  0  0  0  0  0  0  0  0  0  0  0
    8.6837    7.8221   26.4330 C   0  0  0  0  0  0  0  0  0  0  0  0
   10.0219    7.6552   26.6840 C   0  0  0  0  0  0  0  0  0  0  0  0
  7  8  1  0  0  0
  8  9  1  0  0  0
  8 13  2  0  0  0
  9 10  2  0  0  0
 14 15  1  0  0  0
 14 17  1  0  0  0
 15 18  1  0  0  0
 10 11  1  0  0  0
 10 18  1  0  0  0
 11 12  2  0  0  0
 12 13  1  0  0  0
 13  1  1  0  0  0
  1  2  1  0  0  0
  1  4  1  0  0  0
  2  3  2  0  0  0
  2  6  1  0  0  0
  4  5  1  0  0  0
  5  6  1  0  0  0
  6 20  1  0  0  0
 20 22  1  0  0  0
 22 24  2  0  0  0
 22 23  2  0  0  0
 22 25  1  0  0  0
 16 17  1  0  0  0
 16 18  1  0  0  0
 25 26  1  0  0  0
 25 27  2  0  0  0
 26 33  2  0  0  0
 27 28  1  0  0  0
 28 29  2  0  0  0
 29 30  1  0  0  0
 29 33  1  0  0  0
 30 31  2  0  0  0
 31 32  1  0  0  0
 31 35  1  0  0  0
 33 34  1  0  0  0
 34 35  2  0  0  0
 15 19  1  0  0  0
 20 21  1  0  0  0
M  END
> <minimizedAffinity>
-8.90825

$$$$
2Y81_931_A_1244


 35 39  0  0  0  0  0  0  0  0999 V2000
    6.4667    7.3243   19.3197 N   0  0  0  0  0  0  0  0  0  0  0  0
    6.5356    6.0463   18.8912 C   0  0  0  0  0  0  0  0  0  0  0  0
    7.2293    5.1618   19.3929 O   0  0  0  0  0  0  0  0  0  0  0  0
    5.6412    8.1596   18.4384 C   0  0  0  0  0  0  0  0  0  0  0  0
    4.8150    7.1640   17.6406 C   0  0  0  0  0  0  0  0  0  0  0  0
    5.6310    5.8802   17.6680 C   0  0  0  0  0  0  0  0  0  0  0  0
    5.3548    7.1536   21.8524 F   0  0  0  0  0  0  0  0  0  0  0  0
    6.5677    7.7111   21.7339 C   0  0  0  0  0  0  0  0  0  0  0  0
    7.1797    8.1561   22.8962 C   0  0  0  0  0  0  0  0  0  0  0  0
    8.4497    8.7357   22.8208 C   0  0  0  0  0  0  0  0  0  0  0  0
    9.0631    8.8559   21.5648 C   0  0  0  0  0  0  0  0  0  0  0  0
    8.4327    8.4033   20.4015 C   0  0  0  0  0  0  0  0  0  0  0  0
    7.1646    7.8119   20.4746 C   0  0  0  0  0  0  0  0  0  0  0  0
   11.1784    8.5287   25.1431 C   0  0  0  0  0  0  0  0  0  0  0  0
   10.6185    9.1331   23.9370 N   0  0  0  0  0  0  0  0  0  0  0  0
    8.7512    8.5285   25.3656 C   0  0  0  0  0  0  0  0  0  0  0  0
   10.0407    8.2586   26.1249 C   0  0  0  0  0  0  0  0  0  0  0  0
    9.1571    9.2336   24.0673 C   0  0  0  0  0  0  0  0  0  0  0  0
   10.8481    8.5540   23.1294 H   0  0  0  0  0  0  0  0  0  0  0  0
    4.8124    4.6863   17.7121 N   0  0  0  0  0  0  0  0  0  0  0  0
    3.8588    4.9964   17.8984 H   0  0  0  0  0  0  0  0  0  0  0  0
    4.7293    3.6886   16.4590 S   0  0  0  0  0  0  0  0  0  0  0  0
    4.9575    4.4044   15.2483 O   0  0  0  0  0  0  0  0  0  0  0  0
    3.4615    3.0770   16.6972 O   0  0  0  0  0  0  0  0  0  0  0  0
    5.9993    2.4568   16.6210 C   0  0  0  0  0  0  0  0  0  0  0  0
    7.1726    2.7587   17.2662 C   0  0  0  0  0  0  0  0  0  0  0  0
    5.7690    1.1781   16.0866 C   0  0  0  0  0  0  0  0  0  0  0  0
    6.7350    0.2071   16.1993 C   0  0  0  0  0  0  0  0  0  0  0  0
    7.9552    0.4933   16.8569 C   0  0  0  0  0  0  0  0  0  0  0  0
    8.9495   -0.4863   16.9860 C   0  0  0  0  0  0  0  0  0  0  0  0
   10.1297   -0.1760   17.6170 C   0  0  0  0  0  0  0  0  0  0  0  0
   11.3217   -1.4332   17.7564 Cl  0  0  0  0  0  0  0  0  0  0  0  0
    8.1919    1.7789   17.3961 C   0  0  0  0  0  0  0  0  0  0  0  0
    9.4260    2.0575   18.0399 C   0  0  0  0  0  0  0  0  0  0  0  0
   10.3833    1.0814   18.1509 C   0  0  0  0  0  0  0  0  0  0  0  0
  7  8  1  0  0  0
  8  9  1  0  0  0
  8 13  2  0  0  0
  9 10  2  0  0  0
 14 15  1  0  0  0
 14 17  1  0  0  0
 15 18  1  0  0  0
 10 11  1  0  0  0
 10 18  1  0  0  0
 11 12  2  0  0  0
 12 13  1  0  0  0
 13  1  1  0  0  0
  1  2  1  0  0  0
  1  4  1  0  0  0
  2  3  2  0  0  0
  2  6  1  0  0  0
  4  5  1  0  0  0
  5  6  1  0  0  0
  6 20  1  0  0  0
 20 22  1  0  0  0
 22 24  2  0  0  0
 22 23  2  0  0  0
 22 25  1  0  0  0
 16 17  1  0  0  0
 16 18  1  0  0  0
 25 26  1  0  0  0
 25 27  2  0  0  0
 26 33  2  0  0  0
 27 28  1  0  0  0
 28 29  2  0  0  0
 29 30  1  0  0  0
 29 33  1  0  0  0
 30 31  2  0  0  0
 31 32  1  0  0  0
 31 35  1  0  0  0
 33 34  1  0  0  0
 34 35  2  0  0  0
 15 19  1  0  0  0
 20 21  1  0  0  0
M  END
> <minimizedAffinity>
-8.78522

$$$$
2Y81_931_A_1244


 35 39  0  0  0  0  0  0  0  0999 V2000
    7.5351    2.3113   19.2000 N   0  0  0  0  0  0  0  0  0  0  0  0
    7.3015    3.5680   18.7664 C   0  0  0  0  0  0  0  0  0  0  0  0
    7.6353    4.0184   17.6706 O   0  0  0  0  0  0  0  0  0  0  0  0
    7.1180    2.1209   20.5949 C   0  0  0  0  0  0  0  0  0  0  0  0
    6.1701    3.2775   20.8663 C   0  0  0  0  0  0  0  0  0  0  0  0
    6.5762    4.3486   19.8651 C   0  0  0  0  0  0  0  0  0  0  0  0
    6.0421    0.5389   17.6805 F   0  0  0  0  0  0  0  0  0  0  0  0
    7.3769    0.4236   17.6510 C   0  0  0  0  0  0  0  0  0  0  0  0
    7.9117   -0.5757   16.8517 C   0  0  0  0  0  0  0  0  0  0  0  0
    9.3000   -0.7261   16.7833 C   0  0  0  0  0  0  0  0  0  0  0  0
   10.1102    0.1378   17.5351 C   0  0  0  0  0  0  0  0  0  0  0  0
    9.5559    1.1401   18.3374 C   0  0  0  0  0  0  0  0  0  0  0  0
    8.1655    1.3009   18.3997 C   0  0  0  0  0  0  0  0  0  0  0  0
    9.3823   -4.1160   15.6066 C   0  0  0  0  0  0  0  0  0  0  0  0
    8.9190   -2.7448   15.4095 N   0  0  0  0  0  0  0  0  0  0  0  0
   11.0287   -2.6208   16.6042 C   0  0  0  0  0  0  0  0  0  0  0  0
   10.7731   -4.0736   16.2354 C   0  0  0  0  0  0  0  0  0  0  0  0
    9.9278   -1.8041   15.9196 C   0  0  0  0  0  0  0  0  0  0  0  0
    8.0421   -2.6074   15.9120 H   0  0  0  0  0  0  0  0  0  0  0  0
    5.4561    5.1267   19.3779 N   0  0  0  0  0  0  0  0  0  0  0  0
    4.6872    4.9649   20.0283 H   0  0  0  0  0  0  0  0  0  0  0  0
    5.5665    6.7158   19.1910 S   0  0  0  0  0  0  0  0  0  0  0  0
    4.5437    7.1769   18.3125 O   0  0  0  0  0  0  0  0  0  0  0  0
    6.9380    6.8387   18.8146 O   0  0  0  0  0  0  0  0  0  0  0  0
    5.3332    7.4969   20.7696 C   0  0  0  0  0  0  0  0  0  0  0  0
    4.0900    7.5157   21.3511 C   0  0  0  0  0  0  0  0  0  0  0  0
    6.4439    8.0783   21.4037 C   0  0  0  0  0  0  0  0  0  0  0  0
    6.2903    8.6880   22.6258 C   0  0  0  0  0  0  0  0  0  0  0  0
    5.0184    8.7244   23.2456 C   0  0  0  0  0  0  0  0  0  0  0  0
    4.8443    9.3370   24.4943 C   0  0  0  0  0  0  0  0  0  0  0  0
    3.5954    9.3696   25.0657 C   0  0  0  0  0  0  0  0  0  0  0  0
    3.4415   10.1337   26.6193 Cl  0  0  0  0  0  0  0  0  0  0  0  0
    3.8974    8.1409   22.6112 C   0  0  0  0  0  0  0  0  0  0  0  0
    2.6243    8.1976   23.2366 C   0  0  0  0  0  0  0  0  0  0  0  0
    2.4807    8.8051   24.4580 C   0  0  0  0  0  0  0  0  0  0  0  0
  7  8  1  0  0  0
  8  9  1  0  0  0
  8 13  2  0  0  0
  9 10  2  0  0  0
 14 15  1  0  0  0
 14 17  1  0  0  0
 15 18  1  0  0  0
 10 11  1  0  0  0
 10 18  1  0  0  0
 11 12  2  0  0  0
 12 13  1  0  0  0
 13  1  1  0  0  0
  1  2  1  0  0  0
  1  4  1  0  0  0
  2  3  2  0  0  0
  2  6  1  0  0  0
  4  5  1  0  0  0
  5  6  1  0  0  0
  6 20  1  0  0  0
 20 22  1  0  0  0
 22 24  2  0  0  0
 22 23  2  0  0  0
 22 25  1  0  0  0
 16 17  1  0  0  0
 16 18  1  0  0  0
 25 26  1  0  0  0
 25 27  2  0  0  0
 26 33  2  0  0  0
 27 28  1  0  0  0
 28 29  2  0  0  0
 29 30  1  0  0  0
 29 33  1  0  0  0
 30 31  2  0  0  0
 31 32  1  0  0  0
 31 35  1  0  0  0
 33 34  1  0  0  0
 34 35  2  0  0  0
 15 19  1  0  0  0
 20 21  1  0  0  0
M  END
> <minimizedAffinity>
-7.98931

$$$$
