1SDU_MK1_B_902


 49 53  0  0  0  0  0  0  0  0999 V2000
   20.5995   29.8591   15.3450 C   0  0  0  0  0  0  0  0  0  0  0  0
   20.7073   28.7718   16.2245 O   0  0  0  0  0  0  0  0  0  0  0  0
   19.9277   28.7435   16.8008 H   0  0  0  0  0  0  0  0  0  0  0  0
   20.4365   31.0120   16.3466 C   0  0  0  0  0  0  0  0  0  0  0  0
   22.3768   34.7797   16.1150 N   0  0  0  0  0  0  0  0  0  0  0  0
   20.9801   34.5763   15.4959 C   0  0  0  0  0  0  0  0  0  0  0  0
   20.1638   33.4098   16.0564 C   0  0  0  0  0  0  0  0  0  0  0  0
   21.0562   32.2180   15.7443 N   0  0  0  0  0  0  0  0  0  0  0  0
   22.4116   32.3468   16.2868 C   0  0  0  0  0  0  0  0  0  0  0  0
   23.0690   33.6055   15.8252 C   0  0  0  0  0  0  0  0  0  0  0  0
   18.8475   33.3685   15.3575 C   0  0  0  0  0  0  0  0  0  0  0  0
   18.8913   33.1904   14.1349 O   0  0  0  0  0  0  0  0  0  0  0  0
   17.8167   33.5600   16.1668 N   0  0  0  0  0  0  0  0  0  0  0  0
   17.9880   33.7688   17.1135 H   0  0  0  0  0  0  0  0  0  0  0  0
   16.4483   33.4730   15.7073 C   0  0  0  0  0  0  0  0  0  0  0  0
   15.5100   33.8084   16.9183 C   0  0  0  0  0  0  0  0  0  0  0  0
   16.1736   32.1485   15.3396 C   0  0  0  0  0  0  0  0  0  0  0  0
   16.1492   34.4521   14.6757 C   0  0  0  0  0  0  0  0  0  0  0  0
   22.9534   35.9663   15.4829 C   0  0  0  0  0  0  0  0  0  0  0  0
   22.4057   37.2933   15.9502 C   0  0  0  0  0  0  0  0  0  0  0  0
   22.1017   37.4848   17.3003 C   0  0  0  0  0  0  0  0  0  0  0  0
   21.5532   38.7043   17.7410 N   0  0  0  0  0  0  0  0  0  0  0  0
   21.3517   39.6562   16.7503 C   0  0  0  0  0  0  0  0  0  0  0  0
   21.6278   39.5141   15.3877 C   0  0  0  0  0  0  0  0  0  0  0  0
   22.1693   38.2896   15.0179 C   0  0  0  0  0  0  0  0  0  0  0  0
   19.3129   29.6737   14.5017 C   0  0  0  0  0  0  0  0  0  0  0  0
   19.3721   28.4912   13.5081 C   0  0  0  0  0  0  0  0  0  0  0  0
   20.5046   28.6315   12.5242 C   0  0  0  0  0  0  0  0  0  0  0  0
   20.7594   29.6490   11.8309 O   0  0  0  0  0  0  0  0  0  0  0  0
   21.1972   27.5375   12.3664 N   0  0  0  0  0  0  0  0  0  0  0  0
   21.0122   26.7759   12.9622 H   0  0  0  0  0  0  0  0  0  0  0  0
   22.2223   27.3895   11.3597 C   0  0  0  0  0  0  0  0  0  0  0  0
   22.2082   25.9984   10.7525 C   0  0  0  0  0  0  0  0  0  0  0  0
   22.1107   24.9260   11.7352 O   0  0  0  0  0  0  0  0  0  0  0  0
   23.5580   25.9332   10.0480 C   0  0  0  0  0  0  0  0  0  0  0  0
   24.5507   26.7201   10.8789 C   0  0  0  0  0  0  0  0  0  0  0  0
   25.8931   26.7948   11.0746 C   0  0  0  0  0  0  0  0  0  0  0  0
   26.4560   27.7108   11.9587 C   0  0  0  0  0  0  0  0  0  0  0  0
   25.6809   28.6038   12.6861 C   0  0  0  0  0  0  0  0  0  0  0  0
   24.3207   28.5733   12.5014 C   0  0  0  0  0  0  0  0  0  0  0  0
   23.6776   27.6921   11.6791 C   0  0  0  0  0  0  0  0  0  0  0  0
   22.8568   24.9842   12.3524 H   0  0  0  0  0  0  0  0  0  0  0  0
   18.0559   28.4878   12.6716 C   0  0  0  0  0  0  0  0  0  0  0  0
   18.0162   27.4593   11.6081 C   0  0  0  0  0  0  0  0  0  0  0  0
   17.8940   27.8560   10.2677 C   0  0  0  0  0  0  0  0  0  0  0  0
   17.8526   26.8546    9.2829 C   0  0  0  0  0  0  0  0  0  0  0  0
   17.9486   25.5308    9.6805 C   0  0  0  0  0  0  0  0  0  0  0  0
   18.0768   25.1510   11.0093 C   0  0  0  0  0  0  0  0  0  0  0  0
   18.0981   26.1305   11.9903 C   0  0  0  0  0  0  0  0  0  0  0  0
  5  6  1  0  0  0
  5 10  1  0  0  0
  5 19  1  0  0  0
  6  7  1  0  0  0
  7 11  1  0  0  0
  7  8  1  0  0  0
 11 12  2  0  0  0
 11 13  1  0  0  0
 13 15  1  0  0  0
 15 16  1  0  0  0
 15 17  1  0  0  0
 15 18  1  0  0  0
  8  9  1  0  0  0
  8  4  1  0  0  0
  9 10  1  0  0  0
  4  1  1  0  0  0
  1  2  1  0  0  0
  1 26  1  0  0  0
 26 27  1  0  0  0
 27 43  1  0  0  0
 27 28  1  0  0  0
 43 44  1  0  0  0
 44 45  2  0  0  0
 44 49  1  0  0  0
 45 46  1  0  0  0
 46 47  2  0  0  0
 47 48  1  0  0  0
 48 49  2  0  0  0
 28 29  2  0  0  0
 28 30  1  0  0  0
 30 32  1  0  0  0
 32 33  1  0  0  0
 32 41  1  0  0  0
 33 34  1  0  0  0
 33 35  1  0  0  0
 35 36  1  0  0  0
 36 37  2  0  0  0
 36 41  1  0  0  0
 37 38  1  0  0  0
 38 39  2  0  0  0
 39 40  1  0  0  0
 40 41  2  0  0  0
 19 20  1  0  0  0
 20 21  1  0  0  0
 20 25  2  0  0  0
 21 22  2  0  0  0
 22 23  1  0  0  0
 23 24  2  0  0  0
 24 25  1  0  0  0
 13 14  1  0  0  0
  2  3  1  0  0  0
 30 31  1  0  0  0
 34 42  1  0  0  0
M  END
> <minimizedAffinity>
-12.05883

$$$$
1SDU_MK1_B_902


 49 53  0  0  0  0  0  0  0  0999 V2000
   20.4994   30.5404   15.5594 C   0  0  0  0  0  0  0  0  0  0  0  0
   20.5345   29.4568   16.4493 O   0  0  0  0  0  0  0  0  0  0  0  0
   19.6990   29.4145   16.9403 H   0  0  0  0  0  0  0  0  0  0  0  0
   20.2096   31.6916   16.5339 C   0  0  0  0  0  0  0  0  0  0  0  0
   22.2514   35.3387   15.7963 N   0  0  0  0  0  0  0  0  0  0  0  0
   20.7233   35.3208   15.9968 C   0  0  0  0  0  0  0  0  0  0  0  0
   20.1619   34.1123   16.7487 C   0  0  0  0  0  0  0  0  0  0  0  0
   20.5890   32.9561   15.8570 N   0  0  0  0  0  0  0  0  0  0  0  0
   22.0323   32.9170   15.6048 C   0  0  0  0  0  0  0  0  0  0  0  0
   22.5235   34.2055   15.0323 C   0  0  0  0  0  0  0  0  0  0  0  0
   18.6829   34.2643   16.8606 C   0  0  0  0  0  0  0  0  0  0  0  0
   18.2221   34.2279   18.0073 O   0  0  0  0  0  0  0  0  0  0  0  0
   18.0775   34.3898   15.6893 N   0  0  0  0  0  0  0  0  0  0  0  0
   18.6131   34.3138   14.8668 H   0  0  0  0  0  0  0  0  0  0  0  0
   16.6567   34.6348   15.5773 C   0  0  0  0  0  0  0  0  0  0  0  0
   16.3450   34.9948   14.0832 C   0  0  0  0  0  0  0  0  0  0  0  0
   16.3264   35.7630   16.3410 C   0  0  0  0  0  0  0  0  0  0  0  0
   15.8672   33.4543   15.8861 C   0  0  0  0  0  0  0  0  0  0  0  0
   22.5763   36.5918   15.1149 C   0  0  0  0  0  0  0  0  0  0  0  0
   22.6477   37.8188   15.9916 C   0  0  0  0  0  0  0  0  0  0  0  0
   22.9464   37.6878   17.3501 C   0  0  0  0  0  0  0  0  0  0  0  0
   22.9766   38.8208   18.1853 N   0  0  0  0  0  0  0  0  0  0  0  0
   22.6934   40.0271   17.5586 C   0  0  0  0  0  0  0  0  0  0  0  0
   22.3794   40.2134   16.2096 C   0  0  0  0  0  0  0  0  0  0  0  0
   22.3686   39.0577   15.4392 C   0  0  0  0  0  0  0  0  0  0  0  0
   19.3128   30.3288   14.5857 C   0  0  0  0  0  0  0  0  0  0  0  0
   19.4021   29.0307   13.7515 C   0  0  0  0  0  0  0  0  0  0  0  0
   20.5220   29.0780   12.7444 C   0  0  0  0  0  0  0  0  0  0  0  0
   20.8352   30.0667   12.0336 O   0  0  0  0  0  0  0  0  0  0  0  0
   21.1308   27.9352   12.5872 N   0  0  0  0  0  0  0  0  0  0  0  0
   20.9036   27.1956   13.1960 H   0  0  0  0  0  0  0  0  0  0  0  0
   22.1224   27.7025   11.5631 C   0  0  0  0  0  0  0  0  0  0  0  0
   21.9974   26.3087   10.9751 C   0  0  0  0  0  0  0  0  0  0  0  0
   21.8439   25.2579   11.9737 O   0  0  0  0  0  0  0  0  0  0  0  0
   23.3248   26.1391   10.2456 C   0  0  0  0  0  0  0  0  0  0  0  0
   24.3873   26.8632   11.0467 C   0  0  0  0  0  0  0  0  0  0  0  0
   25.7353   26.8444   11.2155 C   0  0  0  0  0  0  0  0  0  0  0  0
   26.3794   27.7287   12.0762 C   0  0  0  0  0  0  0  0  0  0  0  0
   25.6845   28.6833   12.8063 C   0  0  0  0  0  0  0  0  0  0  0  0
   24.3221   28.7475   12.6483 C   0  0  0  0  0  0  0  0  0  0  0  0
   23.6017   27.9045   11.8504 C   0  0  0  0  0  0  0  0  0  0  0  0
   22.6044   25.2702   12.5756 H   0  0  0  0  0  0  0  0  0  0  0  0
   18.0803   28.8792   12.9378 C   0  0  0  0  0  0  0  0  0  0  0  0
   18.0721   27.7321   12.0026 C   0  0  0  0  0  0  0  0  0  0  0  0
   18.0314   27.9684   10.6201 C   0  0  0  0  0  0  0  0  0  0  0  0
   18.0181   26.8577    9.7596 C   0  0  0  0  0  0  0  0  0  0  0  0
   18.0602   25.5891   10.3154 C   0  0  0  0  0  0  0  0  0  0  0  0
   18.1079   25.3683   11.6848 C   0  0  0  0  0  0  0  0  0  0  0  0
   18.1009   26.4571   12.5430 C   0  0  0  0  0  0  0  0  0  0  0  0
  5  6  1  0  0  0
  5 10  1  0  0  0
  5 19  1  0  0  0
  6  7  1  0  0  0
  7 11  1  0  0  0
  7  8  1  0  0  0
 11 12  2  0  0  0
 11 13  1  0  0  0
 13 15  1  0  0  0
 15 16  1  0  0  0
 15 17  1  0  0  0
 15 18  1  0  0  0
  8  9  1  0  0  0
  8  4  1  0  0  0
  9 10  1  0  0  0
  4  1  1  0  0  0
  1  2  1  0  0  0
  1 26  1  0  0  0
 26 27  1  0  0  0
 27 43  1  0  0  0
 27 28  1  0  0  0
 43 44  1  0  0  0
 44 45  2  0  0  0
 44 49  1  0  0  0
 45 46  1  0  0  0
 46 47  2  0  0  0
 47 48  1  0  0  0
 48 49  2  0  0  0
 28 29  2  0  0  0
 28 30  1  0  0  0
 30 32  1  0  0  0
 32 33  1  0  0  0
 32 41  1  0  0  0
 33 34  1  0  0  0
 33 35  1  0  0  0
 35 36  1  0  0  0
 36 37  2  0  0  0
 36 41  1  0  0  0
 37 38  1  0  0  0
 38 39  2  0  0  0
 39 40  1  0  0  0
 40 41  2  0  0  0
 19 20  1  0  0  0
 20 21  1  0  0  0
 20 25  2  0  0  0
 21 22  2  0  0  0
 22 23  1  0  0  0
 23 24  2  0  0  0
 24 25  1  0  0  0
 13 14  1  0  0  0
  2  3  1  0  0  0
 30 31  1  0  0  0
 34 42  1  0  0  0
M  END
> <minimizedAffinity>
-11.71902

$$$$
1SDU_MK1_B_902


 49 53  0  0  0  0  0  0  0  0999 V2000
   20.3406   29.9890   14.9081 C   0  0  0  0  0  0  0  0  0  0  0  0
   18.9406   29.9692   14.8241 O   0  0  0  0  0  0  0  0  0  0  0  0
   18.6101   30.8752   14.7203 H   0  0  0  0  0  0  0  0  0  0  0  0
   20.5344   30.9378   16.1002 C   0  0  0  0  0  0  0  0  0  0  0  0
   22.4794   34.7103   16.1114 N   0  0  0  0  0  0  0  0  0  0  0  0
   21.0479   34.5663   15.5585 C   0  0  0  0  0  0  0  0  0  0  0  0
   20.2590   33.3523   16.0534 C   0  0  0  0  0  0  0  0  0  0  0  0
   21.1250   32.1951   15.5790 N   0  0  0  0  0  0  0  0  0  0  0  0
   22.5103   32.2720   16.0512 C   0  0  0  0  0  0  0  0  0  0  0  0
   23.1469   33.5684   15.6725 C   0  0  0  0  0  0  0  0  0  0  0  0
   18.9041   33.3774   15.4317 C   0  0  0  0  0  0  0  0  0  0  0  0
   18.8664   33.1777   14.2122 O   0  0  0  0  0  0  0  0  0  0  0  0
   17.9348   33.6418   16.2947 N   0  0  0  0  0  0  0  0  0  0  0  0
   18.1726   33.8550   17.2260 H   0  0  0  0  0  0  0  0  0  0  0  0
   16.5393   33.6280   15.9160 C   0  0  0  0  0  0  0  0  0  0  0  0
   15.6918   34.0034   17.1809 C   0  0  0  0  0  0  0  0  0  0  0  0
   16.1757   32.3216   15.5605 C   0  0  0  0  0  0  0  0  0  0  0  0
   16.2315   34.6276   14.9069 C   0  0  0  0  0  0  0  0  0  0  0  0
   23.0251   35.9511   15.5613 C   0  0  0  0  0  0  0  0  0  0  0  0
   22.3543   37.2245   16.0169 C   0  0  0  0  0  0  0  0  0  0  0  0
   21.8866   37.3346   17.3288 C   0  0  0  0  0  0  0  0  0  0  0  0
   21.2241   38.5020   17.7534 N   0  0  0  0  0  0  0  0  0  0  0  0
   21.0854   39.4897   16.7872 C   0  0  0  0  0  0  0  0  0  0  0  0
   21.5240   39.4281   15.4617 C   0  0  0  0  0  0  0  0  0  0  0  0
   22.1717   38.2519   15.1064 C   0  0  0  0  0  0  0  0  0  0  0  0
   20.8947   30.6183   13.6052 C   0  0  0  0  0  0  0  0  0  0  0  0
   21.1754   29.5980   12.4787 C   0  0  0  0  0  0  0  0  0  0  0  0
   19.9071   29.0191   11.9070 C   0  0  0  0  0  0  0  0  0  0  0  0
   18.8140   29.6253   11.7706 O   0  0  0  0  0  0  0  0  0  0  0  0
   19.9957   27.7496   11.6209 N   0  0  0  0  0  0  0  0  0  0  0  0
   20.8771   27.3155   11.6837 H   0  0  0  0  0  0  0  0  0  0  0  0
   18.8629   26.9498   11.2165 C   0  0  0  0  0  0  0  0  0  0  0  0
   18.9147   25.5625   11.8304 C   0  0  0  0  0  0  0  0  0  0  0  0
   20.2214   24.9231   11.7357 O   0  0  0  0  0  0  0  0  0  0  0  0
   17.9007   24.7936   10.9917 C   0  0  0  0  0  0  0  0  0  0  0  0
   17.9674   25.3333    9.5777 C   0  0  0  0  0  0  0  0  0  0  0  0
   17.6676   24.9368    8.3133 C   0  0  0  0  0  0  0  0  0  0  0  0
   17.8669   25.7701    7.2162 C   0  0  0  0  0  0  0  0  0  0  0  0
   18.3769   27.0543    7.3501 C   0  0  0  0  0  0  0  0  0  0  0  0
   18.6741   27.4995    8.6145 C   0  0  0  0  0  0  0  0  0  0  0  0
   18.5393   26.7448    9.7452 C   0  0  0  0  0  0  0  0  0  0  0  0
   20.4820   24.8566   10.8038 H   0  0  0  0  0  0  0  0  0  0  0  0
   21.9730   28.4038   13.0869 C   0  0  0  0  0  0  0  0  0  0  0  0
   23.3357   28.2400   12.5330 C   0  0  0  0  0  0  0  0  0  0  0  0
   23.5687   27.2683   11.5480 C   0  0  0  0  0  0  0  0  0  0  0  0
   24.8749   27.1339   11.0477 C   0  0  0  0  0  0  0  0  0  0  0  0
   25.8615   27.9736   11.5389 C   0  0  0  0  0  0  0  0  0  0  0  0
   25.6170   28.9364   12.5082 C   0  0  0  0  0  0  0  0  0  0  0  0
   24.3360   29.0633   13.0230 C   0  0  0  0  0  0  0  0  0  0  0  0
  5  6  1  0  0  0
  5 10  1  0  0  0
  5 19  1  0  0  0
  6  7  1  0  0  0
  7 11  1  0  0  0
  7  8  1  0  0  0
 11 12  2  0  0  0
 11 13  1  0  0  0
 13 15  1  0  0  0
 15 16  1  0  0  0
 15 17  1  0  0  0
 15 18  1  0  0  0
  8  9  1  0  0  0
  8  4  1  0  0  0
  9 10  1  0  0  0
  4  1  1  0  0  0
  1  2  1  0  0  0
  1 26  1  0  0  0
 26 27  1  0  0  0
 27 43  1  0  0  0
 27 28  1  0  0  0
 43 44  1  0  0  0
 44 45  2  0  0  0
 44 49  1  0  0  0
 45 46  1  0  0  0
 46 47  2  0  0  0
 47 48  1  0  0  0
 48 49  2  0  0  0
 28 29  2  0  0  0
 28 30  1  0  0  0
 30 32  1  0  0  0
 32 33  1  0  0  0
 32 41  1  0  0  0
 33 34  1  0  0  0
 33 35  1  0  0  0
 35 36  1  0  0  0
 36 37  2  0  0  0
 36 41  1  0  0  0
 37 38  1  0  0  0
 38 39  2  0  0  0
 39 40  1  0  0  0
 40 41  2  0  0  0
 19 20  1  0  0  0
 20 21  1  0  0  0
 20 25  2  0  0  0
 21 22  2  0  0  0
 22 23  1  0  0  0
 23 24  2  0  0  0
 24 25  1  0  0  0
 13 14  1  0  0  0
  2  3  1  0  0  0
 30 31  1  0  0  0
 34 42  1  0  0  0
M  END
> <minimizedAffinity>
-11.03988

$$$$
1SDU_MK1_B_902


 49 53  0  0  0  0  0  0  0  0999 V2000
   20.6413   30.0556   15.3334 C   0  0  0  0  0  0  0  0  0  0  0  0
   20.5680   29.5754   16.6492 O   0  0  0  0  0  0  0  0  0  0  0  0
   21.3734   29.0762   16.8566 H   0  0  0  0  0  0  0  0  0  0  0  0
   20.8575   28.7410   14.5692 C   0  0  0  0  0  0  0  0  0  0  0  0
   18.3046   27.5534   11.3932 N   0  0  0  0  0  0  0  0  0  0  0  0
   19.7599   27.9773   11.1144 C   0  0  0  0  0  0  0  0  0  0  0  0
   20.7229   27.8815   12.2995 C   0  0  0  0  0  0  0  0  0  0  0  0
   20.0836   28.8260   13.3062 N   0  0  0  0  0  0  0  0  0  0  0  0
   18.6881   28.4967   13.6097 C   0  0  0  0  0  0  0  0  0  0  0  0
   17.8567   28.4399   12.3708 C   0  0  0  0  0  0  0  0  0  0  0  0
   22.0770   28.3154   11.8510 C   0  0  0  0  0  0  0  0  0  0  0  0
   22.2046   29.5212   11.6098 O   0  0  0  0  0  0  0  0  0  0  0  0
   22.9425   27.3178   11.7526 N   0  0  0  0  0  0  0  0  0  0  0  0
   22.6287   26.3986   11.9131 H   0  0  0  0  0  0  0  0  0  0  0  0
   24.3328   27.5326   11.4174 C   0  0  0  0  0  0  0  0  0  0  0  0
   25.1169   26.2136   11.7408 C   0  0  0  0  0  0  0  0  0  0  0  0
   24.8557   28.5278   12.2547 C   0  0  0  0  0  0  0  0  0  0  0  0
   24.5258   27.7850    9.9992 C   0  0  0  0  0  0  0  0  0  0  0  0
   17.5787   27.6668   10.1281 C   0  0  0  0  0  0  0  0  0  0  0  0
   18.0466   26.7584    9.0168 C   0  0  0  0  0  0  0  0  0  0  0  0
   18.1554   25.3836    9.2401 C   0  0  0  0  0  0  0  0  0  0  0  0
   18.6284   24.5320    8.2236 N   0  0  0  0  0  0  0  0  0  0  0  0
   18.9622   25.1604    7.0312 C   0  0  0  0  0  0  0  0  0  0  0  0
   18.8824   26.5287    6.7580 C   0  0  0  0  0  0  0  0  0  0  0  0
   18.4063   27.3137    7.8002 C   0  0  0  0  0  0  0  0  0  0  0  0
   21.8861   30.9713   15.2210 C   0  0  0  0  0  0  0  0  0  0  0  0
   21.8570   32.1975   16.1613 C   0  0  0  0  0  0  0  0  0  0  0  0
   20.7098   33.1242   15.8519 C   0  0  0  0  0  0  0  0  0  0  0  0
   20.3441   33.4904   14.7060 O   0  0  0  0  0  0  0  0  0  0  0  0
   20.1364   33.6174   16.9146 N   0  0  0  0  0  0  0  0  0  0  0  0
   20.4049   33.2701   17.7958 H   0  0  0  0  0  0  0  0  0  0  0  0
   19.1264   34.6487   16.8608 C   0  0  0  0  0  0  0  0  0  0  0  0
   19.2290   35.5893   18.0477 C   0  0  0  0  0  0  0  0  0  0  0  0
   19.3886   34.9100   19.3276 O   0  0  0  0  0  0  0  0  0  0  0  0
   17.8886   36.3136   18.0102 C   0  0  0  0  0  0  0  0  0  0  0  0
   16.8458   35.3296   17.5210 C   0  0  0  0  0  0  0  0  0  0  0  0
   15.5005   35.1478   17.5777 C   0  0  0  0  0  0  0  0  0  0  0  0
   14.8786   34.0710   16.9522 C   0  0  0  0  0  0  0  0  0  0  0  0
   15.5940   33.1253   16.2304 C   0  0  0  0  0  0  0  0  0  0  0  0
   16.9542   33.2848   16.1328 C   0  0  0  0  0  0  0  0  0  0  0  0
   17.6539   34.2915   16.7357 C   0  0  0  0  0  0  0  0  0  0  0  0
   18.6379   34.3131   19.4727 H   0  0  0  0  0  0  0  0  0  0  0  0
   23.1635   33.0189   15.9360 C   0  0  0  0  0  0  0  0  0  0  0  0
   23.1068   34.4031   16.4569 C   0  0  0  0  0  0  0  0  0  0  0  0
   23.1784   35.4813   15.5619 C   0  0  0  0  0  0  0  0  0  0  0  0
   23.1284   36.7828   16.0893 C   0  0  0  0  0  0  0  0  0  0  0  0
   22.9969   36.9371   17.4599 C   0  0  0  0  0  0  0  0  0  0  0  0
   22.9195   35.8623   18.3346 C   0  0  0  0  0  0  0  0  0  0  0  0
   22.9884   34.5743   17.8263 C   0  0  0  0  0  0  0  0  0  0  0  0
  5  6  1  0  0  0
  5 10  1  0  0  0
  5 19  1  0  0  0
  6  7  1  0  0  0
  7 11  1  0  0  0
  7  8  1  0  0  0
 11 12  2  0  0  0
 11 13  1  0  0  0
 13 15  1  0  0  0
 15 16  1  0  0  0
 15 17  1  0  0  0
 15 18  1  0  0  0
  8  9  1  0  0  0
  8  4  1  0  0  0
  9 10  1  0  0  0
  4  1  1  0  0  0
  1  2  1  0  0  0
  1 26  1  0  0  0
 26 27  1  0  0  0
 27 43  1  0  0  0
 27 28  1  0  0  0
 43 44  1  0  0  0
 44 45  2  0  0  0
 44 49  1  0  0  0
 45 46  1  0  0  0
 46 47  2  0  0  0
 47 48  1  0  0  0
 48 49  2  0  0  0
 28 29  2  0  0  0
 28 30  1  0  0  0
 30 32  1  0  0  0
 32 33  1  0  0  0
 32 41  1  0  0  0
 33 34  1  0  0  0
 33 35  1  0  0  0
 35 36  1  0  0  0
 36 37  2  0  0  0
 36 41  1  0  0  0
 37 38  1  0  0  0
 38 39  2  0  0  0
 39 40  1  0  0  0
 40 41  2  0  0  0
 19 20  1  0  0  0
 20 21  1  0  0  0
 20 25  2  0  0  0
 21 22  2  0  0  0
 22 23  1  0  0  0
 23 24  2  0  0  0
 24 25  1  0  0  0
 13 14  1  0  0  0
  2  3  1  0  0  0
 30 31  1  0  0  0
 34 42  1  0  0  0
M  END
> <minimizedAffinity>
-10.84621

$$$$
1SDU_MK1_B_902


 49 53  0  0  0  0  0  0  0  0999 V2000
   22.0458   33.5502   15.5091 C   0  0  0  0  0  0  0  0  0  0  0  0
   23.4393   33.4130   15.5907 O   0  0  0  0  0  0  0  0  0  0  0  0
   23.6818   33.0954   16.4746 H   0  0  0  0  0  0  0  0  0  0  0  0
   21.7913   34.5073   16.6831 C   0  0  0  0  0  0  0  0  0  0  0  0
   22.1668   38.6496   15.8374 N   0  0  0  0  0  0  0  0  0  0  0  0
   20.9122   38.1035   16.5467 C   0  0  0  0  0  0  0  0  0  0  0  0
   21.0783   36.7589   17.2578 C   0  0  0  0  0  0  0  0  0  0  0  0
   21.4768   35.8403   16.1125 N   0  0  0  0  0  0  0  0  0  0  0  0
   22.6557   36.3049   15.3760 C   0  0  0  0  0  0  0  0  0  0  0  0
   22.4705   37.6964   14.8673 C   0  0  0  0  0  0  0  0  0  0  0  0
   19.7807   36.3912   17.8934 C   0  0  0  0  0  0  0  0  0  0  0  0
   19.8571   35.8561   19.0053 O   0  0  0  0  0  0  0  0  0  0  0  0
   18.7281   36.6756   17.1415 N   0  0  0  0  0  0  0  0  0  0  0  0
   18.8735   37.0329   16.2357 H   0  0  0  0  0  0  0  0  0  0  0  0
   17.3726   36.4792   17.6054 C   0  0  0  0  0  0  0  0  0  0  0  0
   16.4022   36.8342   16.4257 C   0  0  0  0  0  0  0  0  0  0  0  0
   17.1058   37.3921   18.6352 C   0  0  0  0  0  0  0  0  0  0  0  0
   17.1034   35.0939   17.9526 C   0  0  0  0  0  0  0  0  0  0  0  0
   21.8066   39.9532   15.2798 C   0  0  0  0  0  0  0  0  0  0  0  0
   22.7009   40.4679   14.1777 C   0  0  0  0  0  0  0  0  0  0  0  0
   23.8258   41.2337   14.4939 C   0  0  0  0  0  0  0  0  0  0  0  0
   24.6445   41.7523   13.4728 N   0  0  0  0  0  0  0  0  0  0  0  0
   24.2454   41.4445   12.1789 C   0  0  0  0  0  0  0  0  0  0  0  0
   23.1271   40.6934   11.8068 C   0  0  0  0  0  0  0  0  0  0  0  0
   22.3624   40.2086   12.8601 C   0  0  0  0  0  0  0  0  0  0  0  0
   21.4065   32.1645   15.7774 C   0  0  0  0  0  0  0  0  0  0  0  0
   20.3097   31.7663   14.7638 C   0  0  0  0  0  0  0  0  0  0  0  0
   20.8886   31.3146   13.4479 C   0  0  0  0  0  0  0  0  0  0  0  0
   20.7358   31.8860   12.3384 O   0  0  0  0  0  0  0  0  0  0  0  0
   21.5287   30.1805   13.5214 N   0  0  0  0  0  0  0  0  0  0  0  0
   21.6815   29.7855   14.4102 H   0  0  0  0  0  0  0  0  0  0  0  0
   22.0241   29.4762   12.3617 C   0  0  0  0  0  0  0  0  0  0  0  0
   21.0873   28.3550   11.9504 C   0  0  0  0  0  0  0  0  0  0  0  0
   20.6330   27.5275   13.0612 O   0  0  0  0  0  0  0  0  0  0  0  0
   21.9569   27.5277   11.0111 C   0  0  0  0  0  0  0  0  0  0  0  0
   23.3801   27.5882   11.5266 C   0  0  0  0  0  0  0  0  0  0  0  0
   24.5314   26.8712   11.4467 C   0  0  0  0  0  0  0  0  0  0  0  0
   25.6992   27.2851   12.0810 C   0  0  0  0  0  0  0  0  0  0  0  0
   25.7575   28.4552   12.8259 C   0  0  0  0  0  0  0  0  0  0  0  0
   24.6196   29.2184   12.9144 C   0  0  0  0  0  0  0  0  0  0  0  0
   23.4222   28.8788   12.3513 C   0  0  0  0  0  0  0  0  0  0  0  0
   21.4001   27.1380   13.5092 H   0  0  0  0  0  0  0  0  0  0  0  0
   19.4442   33.0270   14.4579 C   0  0  0  0  0  0  0  0  0  0  0  0
   17.9892   32.8208   14.6339 C   0  0  0  0  0  0  0  0  0  0  0  0
   17.1134   33.9050   14.4719 C   0  0  0  0  0  0  0  0  0  0  0  0
   15.7386   33.6771   14.6523 C   0  0  0  0  0  0  0  0  0  0  0  0
   15.3156   32.3954   14.9657 C   0  0  0  0  0  0  0  0  0  0  0  0
   16.1913   31.3291   15.1159 C   0  0  0  0  0  0  0  0  0  0  0  0
   17.5514   31.5478   14.9600 C   0  0  0  0  0  0  0  0  0  0  0  0
  5  6  1  0  0  0
  5 10  1  0  0  0
  5 19  1  0  0  0
  6  7  1  0  0  0
  7 11  1  0  0  0
  7  8  1  0  0  0
 11 12  2  0  0  0
 11 13  1  0  0  0
 13 15  1  0  0  0
 15 16  1  0  0  0
 15 17  1  0  0  0
 15 18  1  0  0  0
  8  9  1  0  0  0
  8  4  1  0  0  0
  9 10  1  0  0  0
  4  1  1  0  0  0
  1  2  1  0  0  0
  1 26  1  0  0  0
 26 27  1  0  0  0
 27 43  1  0  0  0
 27 28  1  0  0  0
 43 44  1  0  0  0
 44 45  2  0  0  0
 44 49  1  0  0  0
 45 46  1  0  0  0
 46 47  2  0  0  0
 47 48  1  0  0  0
 48 49  2  0  0  0
 28 29  2  0  0  0
 28 30  1  0  0  0
 30 32  1  0  0  0
 32 33  1  0  0  0
 32 41  1  0  0  0
 33 34  1  0  0  0
 33 35  1  0  0  0
 35 36  1  0  0  0
 36 37  2  0  0  0
 36 41  1  0  0  0
 37 38  1  0  0  0
 38 39  2  0  0  0
 39 40  1  0  0  0
 40 41  2  0  0  0
 19 20  1  0  0  0
 20 21  1  0  0  0
 20 25  2  0  0  0
 21 22  2  0  0  0
 22 23  1  0  0  0
 23 24  2  0  0  0
 24 25  1  0  0  0
 13 14  1  0  0  0
  2  3  1  0  0  0
 30 31  1  0  0  0
 34 42  1  0  0  0
M  END
> <minimizedAffinity>
-10.76109

$$$$
1SDU_MK1_B_902


 49 53  0  0  0  0  0  0  0  0999 V2000
   20.2741   29.7321   14.8108 C   0  0  0  0  0  0  0  0  0  0  0  0
   21.2659   29.6305   15.7973 O   0  0  0  0  0  0  0  0  0  0  0  0
   22.1251   29.4702   15.3767 H   0  0  0  0  0  0  0  0  0  0  0  0
   20.4544   28.3851   14.0953 C   0  0  0  0  0  0  0  0  0  0  0  0
   18.2035   27.2906   10.6674 N   0  0  0  0  0  0  0  0  0  0  0  0
   19.6921   27.6699   10.5413 C   0  0  0  0  0  0  0  0  0  0  0  0
   20.5257   27.5392   11.8177 C   0  0  0  0  0  0  0  0  0  0  0  0
   19.8163   28.4993   12.7607 N   0  0  0  0  0  0  0  0  0  0  0  0
   18.3876   28.2126   12.9181 C   0  0  0  0  0  0  0  0  0  0  0  0
   17.6857   28.1868   11.6005 C   0  0  0  0  0  0  0  0  0  0  0  0
   21.9311   27.9323   11.5126 C   0  0  0  0  0  0  0  0  0  0  0  0
   22.1325   29.1430   11.3636 O   0  0  0  0  0  0  0  0  0  0  0  0
   22.7568   26.9009   11.4197 N   0  0  0  0  0  0  0  0  0  0  0  0
   22.3899   25.9902   11.4921 H   0  0  0  0  0  0  0  0  0  0  0  0
   24.1788   27.0666   11.2157 C   0  0  0  0  0  0  0  0  0  0  0  0
   24.4003   27.5747    9.7488 C   0  0  0  0  0  0  0  0  0  0  0  0
   24.8020   25.8142   11.3068 C   0  0  0  0  0  0  0  0  0  0  0  0
   24.7472   28.0798   12.0890 C   0  0  0  0  0  0  0  0  0  0  0  0
   17.6144   27.4317    9.3358 C   0  0  0  0  0  0  0  0  0  0  0  0
   18.0831   26.4386    8.2997 C   0  0  0  0  0  0  0  0  0  0  0  0
   17.9867   25.0684    8.5545 C   0  0  0  0  0  0  0  0  0  0  0  0
   18.4571   24.1338    7.6125 N   0  0  0  0  0  0  0  0  0  0  0  0
   19.0022   24.6791    6.4576 C   0  0  0  0  0  0  0  0  0  0  0  0
   19.1320   26.0377    6.1568 C   0  0  0  0  0  0  0  0  0  0  0  0
   18.6470   26.9075    7.1250 C   0  0  0  0  0  0  0  0  0  0  0  0
   20.6427   30.9094   13.8734 C   0  0  0  0  0  0  0  0  0  0  0  0
   20.3310   32.3058   14.4581 C   0  0  0  0  0  0  0  0  0  0  0  0
   21.5436   32.9426   15.0863 C   0  0  0  0  0  0  0  0  0  0  0  0
   22.6292   32.3650   15.3489 O   0  0  0  0  0  0  0  0  0  0  0  0
   21.3577   34.1851   15.4371 N   0  0  0  0  0  0  0  0  0  0  0  0
   20.5203   34.6275   15.1684 H   0  0  0  0  0  0  0  0  0  0  0  0
   22.3211   34.9431   16.2010 C   0  0  0  0  0  0  0  0  0  0  0  0
   22.1715   34.6913   17.6903 C   0  0  0  0  0  0  0  0  0  0  0  0
   20.7931   34.7403   18.1622 O   0  0  0  0  0  0  0  0  0  0  0  0
   22.9679   35.8390   18.2997 C   0  0  0  0  0  0  0  0  0  0  0  0
   22.7942   37.0480   17.4036 C   0  0  0  0  0  0  0  0  0  0  0  0
   22.8816   38.4018   17.4790 C   0  0  0  0  0  0  0  0  0  0  0  0
   22.6539   39.2146   16.3722 C   0  0  0  0  0  0  0  0  0  0  0  0
   22.3308   38.6907   15.1279 C   0  0  0  0  0  0  0  0  0  0  0  0
   22.2521   37.3254   15.0058 C   0  0  0  0  0  0  0  0  0  0  0  0
   22.4304   36.4510   16.0402 C   0  0  0  0  0  0  0  0  0  0  0  0
   20.4120   35.6085   17.9577 H   0  0  0  0  0  0  0  0  0  0  0  0
   19.2791   32.1366   15.5968 C   0  0  0  0  0  0  0  0  0  0  0  0
   17.9160   32.5852   15.2346 C   0  0  0  0  0  0  0  0  0  0  0  0
   17.7124   33.9099   14.8191 C   0  0  0  0  0  0  0  0  0  0  0  0
   16.4053   34.3057   14.4886 C   0  0  0  0  0  0  0  0  0  0  0  0
   15.3881   33.3689   14.5749 C   0  0  0  0  0  0  0  0  0  0  0  0
   15.6033   32.0590   14.9802 C   0  0  0  0  0  0  0  0  0  0  0  0
   16.8859   31.6639   15.3280 C   0  0  0  0  0  0  0  0  0  0  0  0
  5  6  1  0  0  0
  5 10  1  0  0  0
  5 19  1  0  0  0
  6  7  1  0  0  0
  7 11  1  0  0  0
  7  8  1  0  0  0
 11 12  2  0  0  0
 11 13  1  0  0  0
 13 15  1  0  0  0
 15 16  1  0  0  0
 15 17  1  0  0  0
 15 18  1  0  0  0
  8  9  1  0  0  0
  8  4  1  0  0  0
  9 10  1  0  0  0
  4  1  1  0  0  0
  1  2  1  0  0  0
  1 26  1  0  0  0
 26 27  1  0  0  0
 27 43  1  0  0  0
 27 28  1  0  0  0
 43 44  1  0  0  0
 44 45  2  0  0  0
 44 49  1  0  0  0
 45 46  1  0  0  0
 46 47  2  0  0  0
 47 48  1  0  0  0
 48 49  2  0  0  0
 28 29  2  0  0  0
 28 30  1  0  0  0
 30 32  1  0  0  0
 32 33  1  0  0  0
 32 41  1  0  0  0
 33 34  1  0  0  0
 33 35  1  0  0  0
 35 36  1  0  0  0
 36 37  2  0  0  0
 36 41  1  0  0  0
 37 38  1  0  0  0
 38 39  2  0  0  0
 39 40  1  0  0  0
 40 41  2  0  0  0
 19 20  1  0  0  0
 20 21  1  0  0  0
 20 25  2  0  0  0
 21 22  2  0  0  0
 22 23  1  0  0  0
 23 24  2  0  0  0
 24 25  1  0  0  0
 13 14  1  0  0  0
  2  3  1  0  0  0
 30 31  1  0  0  0
 34 42  1  0  0  0
M  END
> <minimizedAffinity>
-10.37592

$$$$
1SDU_MK1_B_902


 49 53  0  0  0  0  0  0  0  0999 V2000
   21.1194   28.8643   14.3988 C   0  0  0  0  0  0  0  0  0  0  0  0
   19.9677   28.3798   15.0362 O   0  0  0  0  0  0  0  0  0  0  0  0
   19.2525   28.2897   14.3871 H   0  0  0  0  0  0  0  0  0  0  0  0
   20.5729   30.1620   13.7855 C   0  0  0  0  0  0  0  0  0  0  0  0
   16.9721   32.1359   14.8593 N   0  0  0  0  0  0  0  0  0  0  0  0
   18.2844   32.4320   15.6114 C   0  0  0  0  0  0  0  0  0  0  0  0
   19.5752   32.1010   14.8595 C   0  0  0  0  0  0  0  0  0  0  0  0
   19.4307   30.6053   14.6224 N   0  0  0  0  0  0  0  0  0  0  0  0
   18.1936   30.2424   13.9254 C   0  0  0  0  0  0  0  0  0  0  0  0
   16.9897   30.7596   14.6411 C   0  0  0  0  0  0  0  0  0  0  0  0
   20.7364   32.4585   15.7235 C   0  0  0  0  0  0  0  0  0  0  0  0
   20.9942   31.6653   16.6362 O   0  0  0  0  0  0  0  0  0  0  0  0
   21.3060   33.6066   15.3896 N   0  0  0  0  0  0  0  0  0  0  0  0
   20.9030   34.1460   14.6713 H   0  0  0  0  0  0  0  0  0  0  0  0
   22.4995   34.0952   16.0439 C   0  0  0  0  0  0  0  0  0  0  0  0
   23.3541   32.8544   16.4790 C   0  0  0  0  0  0  0  0  0  0  0  0
   22.1337   34.7648   17.2198 C   0  0  0  0  0  0  0  0  0  0  0  0
   23.3386   34.8757   15.1501 C   0  0  0  0  0  0  0  0  0  0  0  0
   15.8774   32.5739   15.7253 C   0  0  0  0  0  0  0  0  0  0  0  0
   16.0217   33.9530   16.3225 C   0  0  0  0  0  0  0  0  0  0  0  0
   15.9539   34.1229   17.7076 C   0  0  0  0  0  0  0  0  0  0  0  0
   16.0473   35.4088   18.2730 N   0  0  0  0  0  0  0  0  0  0  0  0
   16.2056   36.4463   17.3636 C   0  0  0  0  0  0  0  0  0  0  0  0
   16.2694   36.3340   15.9721 C   0  0  0  0  0  0  0  0  0  0  0  0
   16.1738   35.0396   15.4775 C   0  0  0  0  0  0  0  0  0  0  0  0
   21.5204   27.8564   13.2924 C   0  0  0  0  0  0  0  0  0  0  0  0
   21.1537   28.3087   11.8607 C   0  0  0  0  0  0  0  0  0  0  0  0
   19.8341   27.7411   11.4057 C   0  0  0  0  0  0  0  0  0  0  0  0
   18.8646   27.4391   12.1471 O   0  0  0  0  0  0  0  0  0  0  0  0
   19.7872   27.4906   10.1264 N   0  0  0  0  0  0  0  0  0  0  0  0
   20.5371   27.7893    9.5628 H   0  0  0  0  0  0  0  0  0  0  0  0
   18.6882   26.7962    9.4969 C   0  0  0  0  0  0  0  0  0  0  0  0
   18.8299   25.2913    9.6348 C   0  0  0  0  0  0  0  0  0  0  0  0
   20.1657   24.7933    9.3301 O   0  0  0  0  0  0  0  0  0  0  0  0
   17.8362   24.7714    8.6027 C   0  0  0  0  0  0  0  0  0  0  0  0
   17.8366   25.7363    7.4349 C   0  0  0  0  0  0  0  0  0  0  0  0
   17.5248   25.7464    6.1125 C   0  0  0  0  0  0  0  0  0  0  0  0
   17.6504   26.8960    5.3377 C   0  0  0  0  0  0  0  0  0  0  0  0
   18.0949   28.0983    5.8708 C   0  0  0  0  0  0  0  0  0  0  0  0
   18.4014   28.1342    7.2087 C   0  0  0  0  0  0  0  0  0  0  0  0
   18.3370   27.0520    8.0399 C   0  0  0  0  0  0  0  0  0  0  0  0
   20.4047   25.0426    8.4236 H   0  0  0  0  0  0  0  0  0  0  0  0
   22.2347   27.7579   10.8809 C   0  0  0  0  0  0  0  0  0  0  0  0
   23.6119   27.7806   11.4225 C   0  0  0  0  0  0  0  0  0  0  0  0
   24.4504   26.6731   11.2245 C   0  0  0  0  0  0  0  0  0  0  0  0
   25.7497   26.7239   11.7570 C   0  0  0  0  0  0  0  0  0  0  0  0
   26.1426   27.8659   12.4361 C   0  0  0  0  0  0  0  0  0  0  0  0
   25.3064   28.9584   12.6190 C   0  0  0  0  0  0  0  0  0  0  0  0
   24.0157   28.9101   12.1151 C   0  0  0  0  0  0  0  0  0  0  0  0
  5  6  1  0  0  0
  5 10  1  0  0  0
  5 19  1  0  0  0
  6  7  1  0  0  0
  7 11  1  0  0  0
  7  8  1  0  0  0
 11 12  2  0  0  0
 11 13  1  0  0  0
 13 15  1  0  0  0
 15 16  1  0  0  0
 15 17  1  0  0  0
 15 18  1  0  0  0
  8  9  1  0  0  0
  8  4  1  0  0  0
  9 10  1  0  0  0
  4  1  1  0  0  0
  1  2  1  0  0  0
  1 26  1  0  0  0
 26 27  1  0  0  0
 27 43  1  0  0  0
 27 28  1  0  0  0
 43 44  1  0  0  0
 44 45  2  0  0  0
 44 49  1  0  0  0
 45 46  1  0  0  0
 46 47  2  0  0  0
 47 48  1  0  0  0
 48 49  2  0  0  0
 28 29  2  0  0  0
 28 30  1  0  0  0
 30 32  1  0  0  0
 32 33  1  0  0  0
 32 41  1  0  0  0
 33 34  1  0  0  0
 33 35  1  0  0  0
 35 36  1  0  0  0
 36 37  2  0  0  0
 36 41  1  0  0  0
 37 38  1  0  0  0
 38 39  2  0  0  0
 39 40  1  0  0  0
 40 41  2  0  0  0
 19 20  1  0  0  0
 20 21  1  0  0  0
 20 25  2  0  0  0
 21 22  2  0  0  0
 22 23  1  0  0  0
 23 24  2  0  0  0
 24 25  1  0  0  0
 13 14  1  0  0  0
  2  3  1  0  0  0
 30 31  1  0  0  0
 34 42  1  0  0  0
M  END
> <minimizedAffinity>
-10.20425

$$$$
1SDU_MK1_B_902


 49 53  0  0  0  0  0  0  0  0999 V2000
   21.5676   34.4035   15.4904 C   0  0  0  0  0  0  0  0  0  0  0  0
   22.4270   35.0621   14.5988 O   0  0  0  0  0  0  0  0  0  0  0  0
   23.3455   34.8220   14.7980 H   0  0  0  0  0  0  0  0  0  0  0  0
   22.1347   34.8884   16.8329 C   0  0  0  0  0  0  0  0  0  0  0  0
   18.3283   36.6000   17.6049 N   0  0  0  0  0  0  0  0  0  0  0  0
   19.6185   37.3942   17.8879 C   0  0  0  0  0  0  0  0  0  0  0  0
   20.8641   36.9400   17.1243 C   0  0  0  0  0  0  0  0  0  0  0  0
   21.0184   35.5013   17.5941 N   0  0  0  0  0  0  0  0  0  0  0  0
   19.8212   34.6849   17.3743 C   0  0  0  0  0  0  0  0  0  0  0  0
   18.6163   35.2976   18.0084 C   0  0  0  0  0  0  0  0  0  0  0  0
   22.0062   37.8183   17.5078 C   0  0  0  0  0  0  0  0  0  0  0  0
   22.8928   37.2855   18.1850 O   0  0  0  0  0  0  0  0  0  0  0  0
   21.8780   39.0645   17.0781 N   0  0  0  0  0  0  0  0  0  0  0  0
   21.0495   39.3245   16.6143 H   0  0  0  0  0  0  0  0  0  0  0  0
   22.9133   40.0564   17.2670 C   0  0  0  0  0  0  0  0  0  0  0  0
   22.5194   41.3292   16.4400 C   0  0  0  0  0  0  0  0  0  0  0  0
   24.1112   39.5756   16.7203 C   0  0  0  0  0  0  0  0  0  0  0  0
   23.0201   40.4858   18.6513 C   0  0  0  0  0  0  0  0  0  0  0  0
   17.2622   37.2286   18.3849 C   0  0  0  0  0  0  0  0  0  0  0  0
   17.1233   38.7235   18.2254 C   0  0  0  0  0  0  0  0  0  0  0  0
   17.2206   39.5553   19.3436 C   0  0  0  0  0  0  0  0  0  0  0  0
   17.0531   40.9471   19.2129 N   0  0  0  0  0  0  0  0  0  0  0  0
   16.7932   41.3946   17.9243 C   0  0  0  0  0  0  0  0  0  0  0  0
   16.6760   40.6077   16.7753 C   0  0  0  0  0  0  0  0  0  0  0  0
   16.8541   39.2442   16.9707 C   0  0  0  0  0  0  0  0  0  0  0  0
   21.7736   32.8769   15.3226 C   0  0  0  0  0  0  0  0  0  0  0  0
   20.5985   32.1520   14.6281 C   0  0  0  0  0  0  0  0  0  0  0  0
   21.0115   31.5198   13.3241 C   0  0  0  0  0  0  0  0  0  0  0  0
   20.7072   31.9297   12.1751 O   0  0  0  0  0  0  0  0  0  0  0  0
   21.6760   30.4070   13.4713 N   0  0  0  0  0  0  0  0  0  0  0  0
   21.9489   30.1408   14.3790 H   0  0  0  0  0  0  0  0  0  0  0  0
   22.0309   29.5467   12.3667 C   0  0  0  0  0  0  0  0  0  0  0  0
   21.0029   28.4482   12.1654 C   0  0  0  0  0  0  0  0  0  0  0  0
   20.6017   27.7815   13.3982 O   0  0  0  0  0  0  0  0  0  0  0  0
   21.7423   27.4669   11.2637 C   0  0  0  0  0  0  0  0  0  0  0  0
   23.2058   27.4942   11.6541 C   0  0  0  0  0  0  0  0  0  0  0  0
   24.3054   26.7009   11.5678 C   0  0  0  0  0  0  0  0  0  0  0  0
   25.5442   27.1083   12.0546 C   0  0  0  0  0  0  0  0  0  0  0  0
   25.7296   28.3486   12.6500 C   0  0  0  0  0  0  0  0  0  0  0  0
   24.6466   29.1878   12.7383 C   0  0  0  0  0  0  0  0  0  0  0  0
   23.3885   28.8640   12.3156 C   0  0  0  0  0  0  0  0  0  0  0  0
   21.3824   27.3968   13.8265 H   0  0  0  0  0  0  0  0  0  0  0  0
   19.5063   33.2099   14.2815 C   0  0  0  0  0  0  0  0  0  0  0  0
   18.1246   32.7779   14.5892 C   0  0  0  0  0  0  0  0  0  0  0  0
   17.8604   31.4188   14.8170 C   0  0  0  0  0  0  0  0  0  0  0  0
   16.5370   31.0409   15.1001 C   0  0  0  0  0  0  0  0  0  0  0  0
   15.5643   32.0262   15.1545 C   0  0  0  0  0  0  0  0  0  0  0  0
   15.8395   33.3687   14.9347 C   0  0  0  0  0  0  0  0  0  0  0  0
   17.1384   33.7494   14.6345 C   0  0  0  0  0  0  0  0  0  0  0  0
  5  6  1  0  0  0
  5 10  1  0  0  0
  5 19  1  0  0  0
  6  7  1  0  0  0
  7 11  1  0  0  0
  7  8  1  0  0  0
 11 12  2  0  0  0
 11 13  1  0  0  0
 13 15  1  0  0  0
 15 16  1  0  0  0
 15 17  1  0  0  0
 15 18  1  0  0  0
  8  9  1  0  0  0
  8  4  1  0  0  0
  9 10  1  0  0  0
  4  1  1  0  0  0
  1  2  1  0  0  0
  1 26  1  0  0  0
 26 27  1  0  0  0
 27 43  1  0  0  0
 27 28  1  0  0  0
 43 44  1  0  0  0
 44 45  2  0  0  0
 44 49  1  0  0  0
 45 46  1  0  0  0
 46 47  2  0  0  0
 47 48  1  0  0  0
 48 49  2  0  0  0
 28 29  2  0  0  0
 28 30  1  0  0  0
 30 32  1  0  0  0
 32 33  1  0  0  0
 32 41  1  0  0  0
 33 34  1  0  0  0
 33 35  1  0  0  0
 35 36  1  0  0  0
 36 37  2  0  0  0
 36 41  1  0  0  0
 37 38  1  0  0  0
 38 39  2  0  0  0
 39 40  1  0  0  0
 40 41  2  0  0  0
 19 20  1  0  0  0
 20 21  1  0  0  0
 20 25  2  0  0  0
 21 22  2  0  0  0
 22 23  1  0  0  0
 23 24  2  0  0  0
 24 25  1  0  0  0
 13 14  1  0  0  0
  2  3  1  0  0  0
 30 31  1  0  0  0
 34 42  1  0  0  0
M  END
> <minimizedAffinity>
-10.19356

$$$$
1SDU_MK1_B_902


 49 53  0  0  0  0  0  0  0  0999 V2000
   18.8120   30.6835   14.6155 C   0  0  0  0  0  0  0  0  0  0  0  0
   18.5494   30.8190   15.9867 O   0  0  0  0  0  0  0  0  0  0  0  0
   17.6977   31.2665   16.1101 H   0  0  0  0  0  0  0  0  0  0  0  0
   18.7297   32.1510   14.1701 C   0  0  0  0  0  0  0  0  0  0  0  0
   17.0872   35.4204   16.3213 N   0  0  0  0  0  0  0  0  0  0  0  0
   18.4786   34.8635   16.6807 C   0  0  0  0  0  0  0  0  0  0  0  0
   19.1904   34.0793   15.5763 C   0  0  0  0  0  0  0  0  0  0  0  0
   18.2177   32.9384   15.3187 N   0  0  0  0  0  0  0  0  0  0  0  0
   16.8636   33.3906   14.9873 C   0  0  0  0  0  0  0  0  0  0  0  0
   16.3148   34.2948   16.0412 C   0  0  0  0  0  0  0  0  0  0  0  0
   20.5160   33.6287   16.0889 C   0  0  0  0  0  0  0  0  0  0  0  0
   20.4914   32.7020   16.9069 O   0  0  0  0  0  0  0  0  0  0  0  0
   21.5322   34.3228   15.5994 N   0  0  0  0  0  0  0  0  0  0  0  0
   21.3446   35.0894   15.0109 H   0  0  0  0  0  0  0  0  0  0  0  0
   22.9078   33.9933   15.8999 C   0  0  0  0  0  0  0  0  0  0  0  0
   23.1648   34.3241   17.4111 C   0  0  0  0  0  0  0  0  0  0  0  0
   23.7507   34.8300   15.1552 C   0  0  0  0  0  0  0  0  0  0  0  0
   23.1832   32.5753   15.7398 C   0  0  0  0  0  0  0  0  0  0  0  0
   16.6174   36.1739   17.4840 C   0  0  0  0  0  0  0  0  0  0  0  0
   17.1961   37.5586   17.6490 C   0  0  0  0  0  0  0  0  0  0  0  0
   18.4363   37.7257   18.2701 C   0  0  0  0  0  0  0  0  0  0  0  0
   18.9674   39.0149   18.4650 N   0  0  0  0  0  0  0  0  0  0  0  0
   18.1764   40.0582   18.0024 C   0  0  0  0  0  0  0  0  0  0  0  0
   16.9275   39.9484   17.3848 C   0  0  0  0  0  0  0  0  0  0  0  0
   16.4607   38.6507   17.2197 C   0  0  0  0  0  0  0  0  0  0  0  0
   17.6690   29.8494   13.9840 C   0  0  0  0  0  0  0  0  0  0  0  0
   18.1492   28.5990   13.2129 C   0  0  0  0  0  0  0  0  0  0  0  0
   19.3989   28.8681   12.4152 C   0  0  0  0  0  0  0  0  0  0  0  0
   19.6169   29.8810   11.7028 O   0  0  0  0  0  0  0  0  0  0  0  0
   20.2588   27.8878   12.4460 N   0  0  0  0  0  0  0  0  0  0  0  0
   20.0882   27.1340   13.0558 H   0  0  0  0  0  0  0  0  0  0  0  0
   21.4492   27.8549   11.6286 C   0  0  0  0  0  0  0  0  0  0  0  0
   21.6777   26.4767   11.0350 C   0  0  0  0  0  0  0  0  0  0  0  0
   21.5233   25.3882   11.9923 O   0  0  0  0  0  0  0  0  0  0  0  0
   23.1270   26.5550   10.5700 C   0  0  0  0  0  0  0  0  0  0  0  0
   23.8806   27.4269   11.5533 C   0  0  0  0  0  0  0  0  0  0  0  0
   25.1561   27.6327   11.9736 C   0  0  0  0  0  0  0  0  0  0  0  0
   25.4664   28.5896   12.9357 C   0  0  0  0  0  0  0  0  0  0  0  0
   24.4937   29.3921   13.5164 C   0  0  0  0  0  0  0  0  0  0  0  0
   23.1945   29.2282   13.1038 C   0  0  0  0  0  0  0  0  0  0  0  0
   22.7916   28.2973   12.1887 C   0  0  0  0  0  0  0  0  0  0  0  0
   22.1444   25.5131   12.7268 H   0  0  0  0  0  0  0  0  0  0  0  0
   17.0446   28.2024   12.1859 C   0  0  0  0  0  0  0  0  0  0  0  0
   17.4529   27.1449   11.2343 C   0  0  0  0  0  0  0  0  0  0  0  0
   17.5131   27.4355    9.8629 C   0  0  0  0  0  0  0  0  0  0  0  0
   17.8980   26.4078    8.9855 C   0  0  0  0  0  0  0  0  0  0  0  0
   18.2120   25.1670    9.5165 C   0  0  0  0  0  0  0  0  0  0  0  0
   18.1560   24.8938   10.8761 C   0  0  0  0  0  0  0  0  0  0  0  0
   17.7577   25.8953   11.7482 C   0  0  0  0  0  0  0  0  0  0  0  0
  5  6  1  0  0  0
  5 10  1  0  0  0
  5 19  1  0  0  0
  6  7  1  0  0  0
  7 11  1  0  0  0
  7  8  1  0  0  0
 11 12  2  0  0  0
 11 13  1  0  0  0
 13 15  1  0  0  0
 15 16  1  0  0  0
 15 17  1  0  0  0
 15 18  1  0  0  0
  8  9  1  0  0  0
  8  4  1  0  0  0
  9 10  1  0  0  0
  4  1  1  0  0  0
  1  2  1  0  0  0
  1 26  1  0  0  0
 26 27  1  0  0  0
 27 43  1  0  0  0
 27 28  1  0  0  0
 43 44  1  0  0  0
 44 45  2  0  0  0
 44 49  1  0  0  0
 45 46  1  0  0  0
 46 47  2  0  0  0
 47 48  1  0  0  0
 48 49  2  0  0  0
 28 29  2  0  0  0
 28 30  1  0  0  0
 30 32  1  0  0  0
 32 33  1  0  0  0
 32 41  1  0  0  0
 33 34  1  0  0  0
 33 35  1  0  0  0
 35 36  1  0  0  0
 36 37  2  0  0  0
 36 41  1  0  0  0
 37 38  1  0  0  0
 38 39  2  0  0  0
 39 40  1  0  0  0
 40 41  2  0  0  0
 19 20  1  0  0  0
 20 21  1  0  0  0
 20 25  2  0  0  0
 21 22  2  0  0  0
 22 23  1  0  0  0
 23 24  2  0  0  0
 24 25  1  0  0  0
 13 14  1  0  0  0
  2  3  1  0  0  0
 30 31  1  0  0  0
 34 42  1  0  0  0
M  END
> <minimizedAffinity>
-10.18361

$$$$
1SDU_MK1_B_902


 49 53  0  0  0  0  0  0  0  0999 V2000
   21.7652   30.1315   14.5101 C   0  0  0  0  0  0  0  0  0  0  0  0
   22.0063   28.7880   14.8330 O   0  0  0  0  0  0  0  0  0  0  0  0
   22.8492   28.5080   14.4432 H   0  0  0  0  0  0  0  0  0  0  0  0
   21.8312   30.0653   12.9770 C   0  0  0  0  0  0  0  0  0  0  0  0
   23.3387   26.8721   10.6222 N   0  0  0  0  0  0  0  0  0  0  0  0
   21.8963   26.8354   11.1640 C   0  0  0  0  0  0  0  0  0  0  0  0
   21.2854   28.1894   11.5310 C   0  0  0  0  0  0  0  0  0  0  0  0
   22.2388   28.6877   12.6066 N   0  0  0  0  0  0  0  0  0  0  0  0
   23.6372   28.7333   12.1702 C   0  0  0  0  0  0  0  0  0  0  0  0
   24.0963   27.4063   11.6627 C   0  0  0  0  0  0  0  0  0  0  0  0
   19.8950   27.9688   12.0221 C   0  0  0  0  0  0  0  0  0  0  0  0
   19.7910   27.5835   13.1922 O   0  0  0  0  0  0  0  0  0  0  0  0
   18.9703   28.1982   11.1021 N   0  0  0  0  0  0  0  0  0  0  0  0
   19.2555   28.4249   10.1875 H   0  0  0  0  0  0  0  0  0  0  0  0
   17.5559   28.1269   11.3950 C   0  0  0  0  0  0  0  0  0  0  0  0
   16.7737   28.5721   10.1108 C   0  0  0  0  0  0  0  0  0  0  0  0
   17.2497   29.0587   12.3965 C   0  0  0  0  0  0  0  0  0  0  0  0
   17.1208   26.7717   11.6887 C   0  0  0  0  0  0  0  0  0  0  0  0
   23.7015   25.4955   10.2852 C   0  0  0  0  0  0  0  0  0  0  0  0
   23.5395   25.1079    8.8351 C   0  0  0  0  0  0  0  0  0  0  0  0
   22.3172   24.6067    8.3804 C   0  0  0  0  0  0  0  0  0  0  0  0
   22.1666   24.2049    7.0396 N   0  0  0  0  0  0  0  0  0  0  0  0
   23.2980   24.3471    6.2473 C   0  0  0  0  0  0  0  0  0  0  0  0
   24.5447   24.8319    6.6519 C   0  0  0  0  0  0  0  0  0  0  0  0
   24.6274   25.2136    7.9848 C   0  0  0  0  0  0  0  0  0  0  0  0
   22.9297   30.9820   15.0771 C   0  0  0  0  0  0  0  0  0  0  0  0
   22.4755   32.2242   15.8769 C   0  0  0  0  0  0  0  0  0  0  0  0
   21.2323   32.8492   15.2987 C   0  0  0  0  0  0  0  0  0  0  0  0
   21.0858   33.2431   14.1137 O   0  0  0  0  0  0  0  0  0  0  0  0
   20.2886   33.0431   16.1780 N   0  0  0  0  0  0  0  0  0  0  0  0
   20.4082   32.6740   17.0828 H   0  0  0  0  0  0  0  0  0  0  0  0
   19.0764   33.7733   15.8882 C   0  0  0  0  0  0  0  0  0  0  0  0
   18.7863   34.8139   16.9545 C   0  0  0  0  0  0  0  0  0  0  0  0
   18.9295   34.3185   18.3180 O   0  0  0  0  0  0  0  0  0  0  0  0
   17.3285   35.1659   16.6825 C   0  0  0  0  0  0  0  0  0  0  0  0
   16.6309   33.9079   16.2076 C   0  0  0  0  0  0  0  0  0  0  0  0
   15.3746   33.3950   16.1396 C   0  0  0  0  0  0  0  0  0  0  0  0
   15.1222   32.1425   15.5873 C   0  0  0  0  0  0  0  0  0  0  0  0
   16.1362   31.3483   15.0694 C   0  0  0  0  0  0  0  0  0  0  0  0
   17.4179   31.8397   15.1016 C   0  0  0  0  0  0  0  0  0  0  0  0
   17.7649   33.0425   15.6486 C   0  0  0  0  0  0  0  0  0  0  0  0
   18.3326   33.5658   18.4528 H   0  0  0  0  0  0  0  0  0  0  0  0
   23.5978   33.3031   15.7854 C   0  0  0  0  0  0  0  0  0  0  0  0
   23.2665   34.5809   16.4548 C   0  0  0  0  0  0  0  0  0  0  0  0
   22.8757   34.5735   17.8024 C   0  0  0  0  0  0  0  0  0  0  0  0
   22.5616   35.8027   18.4065 C   0  0  0  0  0  0  0  0  0  0  0  0
   22.6666   36.9584   17.6494 C   0  0  0  0  0  0  0  0  0  0  0  0
   23.0616   36.9536   16.3188 C   0  0  0  0  0  0  0  0  0  0  0  0
   23.3541   35.7439   15.7078 C   0  0  0  0  0  0  0  0  0  0  0  0
  5  6  1  0  0  0
  5 10  1  0  0  0
  5 19  1  0  0  0
  6  7  1  0  0  0
  7 11  1  0  0  0
  7  8  1  0  0  0
 11 12  2  0  0  0
 11 13  1  0  0  0
 13 15  1  0  0  0
 15 16  1  0  0  0
 15 17  1  0  0  0
 15 18  1  0  0  0
  8  9  1  0  0  0
  8  4  1  0  0  0
  9 10  1  0  0  0
  4  1  1  0  0  0
  1  2  1  0  0  0
  1 26  1  0  0  0
 26 27  1  0  0  0
 27 43  1  0  0  0
 27 28  1  0  0  0
 43 44  1  0  0  0
 44 45  2  0  0  0
 44 49  1  0  0  0
 45 46  1  0  0  0
 46 47  2  0  0  0
 47 48  1  0  0  0
 48 49  2  0  0  0
 28 29  2  0  0  0
 28 30  1  0  0  0
 30 32  1  0  0  0
 32 33  1  0  0  0
 32 41  1  0  0  0
 33 34  1  0  0  0
 33 35  1  0  0  0
 35 36  1  0  0  0
 36 37  2  0  0  0
 36 41  1  0  0  0
 37 38  1  0  0  0
 38 39  2  0  0  0
 39 40  1  0  0  0
 40 41  2  0  0  0
 19 20  1  0  0  0
 20 21  1  0  0  0
 20 25  2  0  0  0
 21 22  2  0  0  0
 22 23  1  0  0  0
 23 24  2  0  0  0
 24 25  1  0  0  0
 13 14  1  0  0  0
  2  3  1  0  0  0
 30 31  1  0  0  0
 34 42  1  0  0  0
M  END
> <minimizedAffinity>
-10.08786

$$$$
