4Q0K_GA3_A_201


 28 32  0  0  0  0  0  0  0  0999 V2000
    2.2730   22.3016   33.7297 C   0  0  0  0  0  0  0  0  0  0  0  0
    3.5860   22.8086   33.1043 C   0  0  0  0  0  0  0  0  0  0  0  0
    1.3220   23.5264   33.7363 C   0  0  0  0  0  0  0  0  0  0  0  0
    0.2427   23.5969   32.6419 C   0  0  0  0  0  0  0  0  0  0  0  0
   -0.5899   24.7245   33.1742 C   0  0  0  0  0  0  0  0  0  0  0  0
   -1.4474   25.4550   32.4854 C   0  0  0  0  0  0  0  0  0  0  0  0
   -0.3599   24.8933   34.6671 C   0  0  0  0  0  0  0  0  0  0  0  0
    0.4297   23.6077   34.9785 C   0  0  0  0  0  0  0  0  0  0  0  0
   -1.6085   25.0219   35.3764 O   0  0  0  0  0  0  0  0  0  0  0  0
    0.5228   26.1212   34.9639 C   0  0  0  0  0  0  0  0  0  0  0  0
    2.0059   25.7993   34.7670 C   0  0  0  0  0  0  0  0  0  0  0  0
    2.2459   24.7701   33.6558 C   0  0  0  0  0  0  0  0  0  0  0  0
    3.6744   24.2473   33.6406 C   0  0  0  0  0  0  0  0  0  0  0  0
    4.1763   23.9624   35.0238 O   0  0  0  0  0  0  0  0  0  0  0  0
    4.7699   25.0147   32.9561 C   0  0  0  0  0  0  0  0  0  0  0  0
    5.9492   24.3950   32.8787 C   0  0  0  0  0  0  0  0  0  0  0  0
    6.0546   22.8899   32.8971 C   0  0  0  0  0  0  0  0  0  0  0  0
    6.0086   22.4746   31.5421 O   0  0  0  0  0  0  0  0  0  0  0  0
    4.8967   22.1988   33.6623 C   0  0  0  0  0  0  0  0  0  0  0  0
    4.9816   20.6690   33.6379 C   0  0  0  0  0  0  0  0  0  0  0  0
    4.8908   22.8052   35.0487 C   0  0  0  0  0  0  0  0  0  0  0  0
    5.4336   22.5050   36.0683 O   0  0  0  0  0  0  0  0  0  0  0  0
   -2.1664   24.2503   35.1915 H   0  0  0  0  0  0  0  0  0  0  0  0
    5.1683   22.7546   31.1465 H   0  0  0  0  0  0  0  0  0  0  0  0
    2.0066   20.8339   31.8815 O   0  0  0  0  0  0  0  0  0  0  0  0
    1.6625   21.0824   33.0593 C   0  0  0  0  0  0  0  0  0  0  0  0
    0.8549   20.3632   33.6905 O   0  0  0  0  0  0  0  0  0  0  0  0
    2.6138   21.3962   31.4422 H   0  0  0  0  0  0  0  0  0  0  0  0
 25 26  1  0  0  0
 26 27  2  0  0  0
 26  1  1  0  0  0
  1  2  1  0  0  0
  1  3  1  0  0  0
  2 13  1  0  0  0
  2 19  1  0  0  0
  3  4  1  0  0  0
  3  8  1  0  0  0
  3 12  1  0  0  0
  4  5  1  0  0  0
  5  6  2  0  0  0
  5  7  1  0  0  0
  7  8  1  0  0  0
  7  9  1  0  0  0
  7 10  1  0  0  0
 10 11  1  0  0  0
 11 12  1  0  0  0
 12 13  1  0  0  0
 13 14  1  0  0  0
 13 15  1  0  0  0
 14 21  1  0  0  0
 15 16  2  0  0  0
 16 17  1  0  0  0
 17 18  1  0  0  0
 17 19  1  0  0  0
 19 20  1  0  0  0
 19 21  1  0  0  0
 21 22  2  0  0  0
 25 28  1  0  0  0
  9 23  1  0  0  0
 18 24  1  0  0  0
M  END
> <minimizedAffinity>
-11.52273

$$$$
4Q0K_GA3_A_201


 28 32  0  0  0  0  0  0  0  0999 V2000
    2.1008   21.5310   33.8209 C   0  0  0  0  0  0  0  0  0  0  0  0
    1.3872   22.1949   35.0134 C   0  0  0  0  0  0  0  0  0  0  0  0
    3.4556   22.2738   33.6883 C   0  0  0  0  0  0  0  0  0  0  0  0
    4.7092   21.5749   34.2432 C   0  0  0  0  0  0  0  0  0  0  0  0
    5.7732   22.4620   33.6696 C   0  0  0  0  0  0  0  0  0  0  0  0
    7.0209   22.5576   34.0907 C   0  0  0  0  0  0  0  0  0  0  0  0
    5.2371   23.2222   32.4676 C   0  0  0  0  0  0  0  0  0  0  0  0
    3.9035   22.4856   32.2391 C   0  0  0  0  0  0  0  0  0  0  0  0
    6.1575   23.1627   31.3594 O   0  0  0  0  0  0  0  0  0  0  0  0
    4.9548   24.6966   32.8161 C   0  0  0  0  0  0  0  0  0  0  0  0
    3.6057   24.8517   33.5216 C   0  0  0  0  0  0  0  0  0  0  0  0
    3.2506   23.6407   34.3928 C   0  0  0  0  0  0  0  0  0  0  0  0
    1.8072   23.6677   34.8725 C   0  0  0  0  0  0  0  0  0  0  0  0
    0.8676   24.0869   33.7829 O   0  0  0  0  0  0  0  0  0  0  0  0
    1.4114   24.4626   36.0846 C   0  0  0  0  0  0  0  0  0  0  0  0
    0.1537   24.2982   36.4990 C   0  0  0  0  0  0  0  0  0  0  0  0
   -0.6154   23.0326   36.2098 C   0  0  0  0  0  0  0  0  0  0  0  0
   -0.3845   22.1702   37.3115 O   0  0  0  0  0  0  0  0  0  0  0  0
   -0.1549   22.3116   34.9167 C   0  0  0  0  0  0  0  0  0  0  0  0
   -0.9056   21.0022   34.6523 C   0  0  0  0  0  0  0  0  0  0  0  0
   -0.2648   23.3336   33.8062 C   0  0  0  0  0  0  0  0  0  0  0  0
   -1.1447   23.6231   33.0537 O   0  0  0  0  0  0  0  0  0  0  0  0
    6.3372   22.2356   31.1377 H   0  0  0  0  0  0  0  0  0  0  0  0
    0.5650   21.9854   37.3840 H   0  0  0  0  0  0  0  0  0  0  0  0
    2.3111   19.3751   32.8467 O   0  0  0  0  0  0  0  0  0  0  0  0
    2.2601   20.0230   33.9168 C   0  0  0  0  0  0  0  0  0  0  0  0
    2.3459   19.4756   35.0397 O   0  0  0  0  0  0  0  0  0  0  0  0
    2.2432   19.8209   32.0254 H   0  0  0  0  0  0  0  0  0  0  0  0
 25 26  1  0  0  0
 26 27  2  0  0  0
 26  1  1  0  0  0
  1  2  1  0  0  0
  1  3  1  0  0  0
  2 13  1  0  0  0
  2 19  1  0  0  0
  3  4  1  0  0  0
  3  8  1  0  0  0
  3 12  1  0  0  0
  4  5  1  0  0  0
  5  6  2  0  0  0
  5  7  1  0  0  0
  7  8  1  0  0  0
  7  9  1  0  0  0
  7 10  1  0  0  0
 10 11  1  0  0  0
 11 12  1  0  0  0
 12 13  1  0  0  0
 13 14  1  0  0  0
 13 15  1  0  0  0
 14 21  1  0  0  0
 15 16  2  0  0  0
 16 17  1  0  0  0
 17 18  1  0  0  0
 17 19  1  0  0  0
 19 20  1  0  0  0
 19 21  1  0  0  0
 21 22  2  0  0  0
 25 28  1  0  0  0
  9 23  1  0  0  0
 18 24  1  0  0  0
M  END
> <minimizedAffinity>
-9.96883

$$$$
4Q0K_GA3_A_201


 28 32  0  0  0  0  0  0  0  0999 V2000
    2.6147   22.7180   33.7995 C   0  0  0  0  0  0  0  0  0  0  0  0
    2.7011   21.7189   34.9685 C   0  0  0  0  0  0  0  0  0  0  0  0
    1.3992   23.6247   34.1238 C   0  0  0  0  0  0  0  0  0  0  0  0
    1.6861   25.0221   34.7006 C   0  0  0  0  0  0  0  0  0  0  0  0
    0.3202   25.6308   34.5909 C   0  0  0  0  0  0  0  0  0  0  0  0
   -0.1189   26.6880   35.2489 C   0  0  0  0  0  0  0  0  0  0  0  0
   -0.5070   24.8909   33.5525 C   0  0  0  0  0  0  0  0  0  0  0  0
    0.5800   24.0217   32.8921 C   0  0  0  0  0  0  0  0  0  0  0  0
   -1.1694   25.8103   32.6610 O   0  0  0  0  0  0  0  0  0  0  0  0
   -1.5578   23.9800   34.2168 C   0  0  0  0  0  0  0  0  0  0  0  0
   -0.9373   22.6572   34.6719 C   0  0  0  0  0  0  0  0  0  0  0  0
    0.5240   22.8089   35.1113 C   0  0  0  0  0  0  0  0  0  0  0  0
    1.2203   21.4697   35.3013 C   0  0  0  0  0  0  0  0  0  0  0  0
    0.8816   20.5070   34.2037 O   0  0  0  0  0  0  0  0  0  0  0  0
    1.0749   20.6991   36.5829 C   0  0  0  0  0  0  0  0  0  0  0  0
    1.8427   19.6135   36.6957 C   0  0  0  0  0  0  0  0  0  0  0  0
    3.1452   19.4844   35.9448 C   0  0  0  0  0  0  0  0  0  0  0  0
    4.1486   19.9996   36.8041 O   0  0  0  0  0  0  0  0  0  0  0  0
    3.1755   20.2861   34.6180 C   0  0  0  0  0  0  0  0  0  0  0  0
    4.5165   20.1909   33.8826 C   0  0  0  0  0  0  0  0  0  0  0  0
    1.9841   19.8114   33.8151 C   0  0  0  0  0  0  0  0  0  0  0  0
    1.8408   18.9387   33.0137 O   0  0  0  0  0  0  0  0  0  0  0  0
   -0.5105   26.3851   32.2413 H   0  0  0  0  0  0  0  0  0  0  0  0
    3.9580   20.9298   37.0025 H   0  0  0  0  0  0  0  0  0  0  0  0
    4.7257   23.5933   34.4464 O   0  0  0  0  0  0  0  0  0  0  0  0
    3.8839   23.5064   33.5238 C   0  0  0  0  0  0  0  0  0  0  0  0
    4.0601   24.0307   32.4004 O   0  0  0  0  0  0  0  0  0  0  0  0
    4.5576   23.1870   35.2738 H   0  0  0  0  0  0  0  0  0  0  0  0
 25 26  1  0  0  0
 26 27  2  0  0  0
 26  1  1  0  0  0
  1  2  1  0  0  0
  1  3  1  0  0  0
  2 13  1  0  0  0
  2 19  1  0  0  0
  3  4  1  0  0  0
  3  8  1  0  0  0
  3 12  1  0  0  0
  4  5  1  0  0  0
  5  6  2  0  0  0
  5  7  1  0  0  0
  7  8  1  0  0  0
  7  9  1  0  0  0
  7 10  1  0  0  0
 10 11  1  0  0  0
 11 12  1  0  0  0
 12 13  1  0  0  0
 13 14  1  0  0  0
 13 15  1  0  0  0
 14 21  1  0  0  0
 15 16  2  0  0  0
 16 17  1  0  0  0
 17 18  1  0  0  0
 17 19  1  0  0  0
 19 20  1  0  0  0
 19 21  1  0  0  0
 21 22  2  0  0  0
 25 28  1  0  0  0
  9 23  1  0  0  0
 18 24  1  0  0  0
M  END
> <minimizedAffinity>
-9.72880

$$$$
4Q0K_GA3_A_201


 28 32  0  0  0  0  0  0  0  0999 V2000
    1.0292   22.3658   34.5727 C   0  0  0  0  0  0  0  0  0  0  0  0
    2.1801   22.5621   33.5682 C   0  0  0  0  0  0  0  0  0  0  0  0
    0.2940   23.7302   34.6259 C   0  0  0  0  0  0  0  0  0  0  0  0
   -1.0214   23.8623   33.8385 C   0  0  0  0  0  0  0  0  0  0  0  0
   -1.5145   25.1708   34.3796 C   0  0  0  0  0  0  0  0  0  0  0  0
   -2.4176   25.9561   33.8217 C   0  0  0  0  0  0  0  0  0  0  0  0
   -0.8671   25.4658   35.7227 C   0  0  0  0  0  0  0  0  0  0  0  0
   -0.2076   24.1064   36.0232 C   0  0  0  0  0  0  0  0  0  0  0  0
   -1.8463   25.8896   36.6923 O   0  0  0  0  0  0  0  0  0  0  0  0
    0.2236   26.5471   35.5948 C   0  0  0  0  0  0  0  0  0  0  0  0
    1.5385   25.9516   35.0864 C   0  0  0  0  0  0  0  0  0  0  0  0
    1.3237   24.7767   34.1246 C   0  0  0  0  0  0  0  0  0  0  0  0
    2.6083   24.0150   33.8348 C   0  0  0  0  0  0  0  0  0  0  0  0
    3.4223   23.8065   35.0757 O   0  0  0  0  0  0  0  0  0  0  0  0
    3.5718   24.4971   32.7875 C   0  0  0  0  0  0  0  0  0  0  0  0
    4.5887   23.6769   32.5155 C   0  0  0  0  0  0  0  0  0  0  0  0
    4.4866   22.1885   32.7411 C   0  0  0  0  0  0  0  0  0  0  0  0
    4.0178   21.6360   31.5222 O   0  0  0  0  0  0  0  0  0  0  0  0
    3.4959   21.8011   33.8692 C   0  0  0  0  0  0  0  0  0  0  0  0
    3.3592   20.2872   34.0627 C   0  0  0  0  0  0  0  0  0  0  0  0
    3.9501   22.5530   35.1012 C   0  0  0  0  0  0  0  0  0  0  0  0
    4.7024   22.2810   35.9869 O   0  0  0  0  0  0  0  0  0  0  0  0
   -2.5343   25.2109   36.7751 H   0  0  0  0  0  0  0  0  0  0  0  0
    3.1486   22.0111   31.3103 H   0  0  0  0  0  0  0  0  0  0  0  0
   -0.4847   20.6624   35.2416 O   0  0  0  0  0  0  0  0  0  0  0  0
    0.0976   21.2032   34.2743 C   0  0  0  0  0  0  0  0  0  0  0  0
   -0.0712   20.8278   33.0917 O   0  0  0  0  0  0  0  0  0  0  0  0
   -0.3322   20.9719   36.1128 H   0  0  0  0  0  0  0  0  0  0  0  0
 25 26  1  0  0  0
 26 27  2  0  0  0
 26  1  1  0  0  0
  1  2  1  0  0  0
  1  3  1  0  0  0
  2 13  1  0  0  0
  2 19  1  0  0  0
  3  4  1  0  0  0
  3  8  1  0  0  0
  3 12  1  0  0  0
  4  5  1  0  0  0
  5  6  2  0  0  0
  5  7  1  0  0  0
  7  8  1  0  0  0
  7  9  1  0  0  0
  7 10  1  0  0  0
 10 11  1  0  0  0
 11 12  1  0  0  0
 12 13  1  0  0  0
 13 14  1  0  0  0
 13 15  1  0  0  0
 14 21  1  0  0  0
 15 16  2  0  0  0
 16 17  1  0  0  0
 17 18  1  0  0  0
 17 19  1  0  0  0
 19 20  1  0  0  0
 19 21  1  0  0  0
 21 22  2  0  0  0
 25 28  1  0  0  0
  9 23  1  0  0  0
 18 24  1  0  0  0
M  END
> <minimizedAffinity>
-9.31174

$$$$
4Q0K_GA3_A_201


 28 32  0  0  0  0  0  0  0  0999 V2000
   -0.6501   24.2302   34.8566 C   0  0  0  0  0  0  0  0  0  0  0  0
    0.2853   23.1208   35.3727 C   0  0  0  0  0  0  0  0  0  0  0  0
   -1.5387   24.6141   36.0681 C   0  0  0  0  0  0  0  0  0  0  0  0
   -1.1822   25.8997   36.8347 C   0  0  0  0  0  0  0  0  0  0  0  0
   -2.4058   26.0363   37.6905 C   0  0  0  0  0  0  0  0  0  0  0  0
   -2.5109   26.7539   38.7939 C   0  0  0  0  0  0  0  0  0  0  0  0
   -3.5662   25.2667   37.0814 C   0  0  0  0  0  0  0  0  0  0  0  0
   -2.9881   24.9362   35.6922 C   0  0  0  0  0  0  0  0  0  0  0  0
   -4.7679   26.0632   37.0617 O   0  0  0  0  0  0  0  0  0  0  0  0
   -3.8360   23.9575   37.8486 C   0  0  0  0  0  0  0  0  0  0  0  0
   -2.8699   22.8520   37.4167 C   0  0  0  0  0  0  0  0  0  0  0  0
   -1.4899   23.3923   37.0228 C   0  0  0  0  0  0  0  0  0  0  0  0
   -0.6240   22.3443   36.3400 C   0  0  0  0  0  0  0  0  0  0  0  0
   -1.4060   21.5389   35.3472 O   0  0  0  0  0  0  0  0  0  0  0  0
    0.1643   21.3505   37.1453 C   0  0  0  0  0  0  0  0  0  0  0  0
    0.9992   20.5751   36.4508 C   0  0  0  0  0  0  0  0  0  0  0  0
    1.5742   21.0179   35.1278 C   0  0  0  0  0  0  0  0  0  0  0  0
    2.7975   21.6693   35.4276 O   0  0  0  0  0  0  0  0  0  0  0  0
    0.6641   22.0110   34.3600 C   0  0  0  0  0  0  0  0  0  0  0  0
    1.2730   22.4951   33.0398 C   0  0  0  0  0  0  0  0  0  0  0  0
   -0.6774   21.3253   34.2185 C   0  0  0  0  0  0  0  0  0  0  0  0
   -1.1409   20.6138   33.3799 O   0  0  0  0  0  0  0  0  0  0  0  0
   -4.6011   26.8881   36.5793 H   0  0  0  0  0  0  0  0  0  0  0  0
    2.6252   22.4336   35.9995 H   0  0  0  0  0  0  0  0  0  0  0  0
   -0.6174   26.1356   33.4390 O   0  0  0  0  0  0  0  0  0  0  0  0
    0.0454   25.4272   34.2304 C   0  0  0  0  0  0  0  0  0  0  0  0
    1.2367   25.6787   34.5225 O   0  0  0  0  0  0  0  0  0  0  0  0
   -1.5072   25.9148   33.2454 H   0  0  0  0  0  0  0  0  0  0  0  0
 25 26  1  0  0  0
 26 27  2  0  0  0
 26  1  1  0  0  0
  1  2  1  0  0  0
  1  3  1  0  0  0
  2 13  1  0  0  0
  2 19  1  0  0  0
  3  4  1  0  0  0
  3  8  1  0  0  0
  3 12  1  0  0  0
  4  5  1  0  0  0
  5  6  2  0  0  0
  5  7  1  0  0  0
  7  8  1  0  0  0
  7  9  1  0  0  0
  7 10  1  0  0  0
 10 11  1  0  0  0
 11 12  1  0  0  0
 12 13  1  0  0  0
 13 14  1  0  0  0
 13 15  1  0  0  0
 14 21  1  0  0  0
 15 16  2  0  0  0
 16 17  1  0  0  0
 17 18  1  0  0  0
 17 19  1  0  0  0
 19 20  1  0  0  0
 19 21  1  0  0  0
 21 22  2  0  0  0
 25 28  1  0  0  0
  9 23  1  0  0  0
 18 24  1  0  0  0
M  END
> <minimizedAffinity>
-9.10715

$$$$
4Q0K_GA3_A_201


 28 32  0  0  0  0  0  0  0  0999 V2000
    2.3837   22.3287   33.7038 C   0  0  0  0  0  0  0  0  0  0  0  0
    2.1703   23.6248   34.5081 C   0  0  0  0  0  0  0  0  0  0  0  0
    3.3033   21.4452   34.5861 C   0  0  0  0  0  0  0  0  0  0  0  0
    2.6456   20.3047   35.3827 C   0  0  0  0  0  0  0  0  0  0  0  0
    3.8703   19.5670   35.8342 C   0  0  0  0  0  0  0  0  0  0  0  0
    3.9399   18.7074   36.8341 C   0  0  0  0  0  0  0  0  0  0  0  0
    5.0495   19.8982   34.9344 C   0  0  0  0  0  0  0  0  0  0  0  0
    4.3321   20.6376   33.7891 C   0  0  0  0  0  0  0  0  0  0  0  0
    5.7531   18.7047   34.5355 O   0  0  0  0  0  0  0  0  0  0  0  0
    6.0327   20.8606   35.6288 C   0  0  0  0  0  0  0  0  0  0  0  0
    5.5494   22.3096   35.5367 C   0  0  0  0  0  0  0  0  0  0  0  0
    4.0204   22.4258   35.5509 C   0  0  0  0  0  0  0  0  0  0  0  0
    3.5359   23.8214   35.1878 C   0  0  0  0  0  0  0  0  0  0  0  0
    4.3032   24.3931   34.0344 O   0  0  0  0  0  0  0  0  0  0  0  0
    3.4754   24.9106   36.2211 C   0  0  0  0  0  0  0  0  0  0  0  0
    2.8997   26.0488   35.8290 C   0  0  0  0  0  0  0  0  0  0  0  0
    1.8753   26.0765   34.7214 C   0  0  0  0  0  0  0  0  0  0  0  0
    0.6125   25.9243   35.3483 O   0  0  0  0  0  0  0  0  0  0  0  0
    2.0516   24.9341   33.6880 C   0  0  0  0  0  0  0  0  0  0  0  0
    0.9808   24.9374   32.5919 C   0  0  0  0  0  0  0  0  0  0  0  0
    3.4719   25.0464   33.1786 C   0  0  0  0  0  0  0  0  0  0  0  0
    3.9619   25.6354   32.2634 O   0  0  0  0  0  0  0  0  0  0  0  0
    5.1367   18.0968   34.0980 H   0  0  0  0  0  0  0  0  0  0  0  0
    0.5853   25.0768   35.8193 H   0  0  0  0  0  0  0  0  0  0  0  0
    1.1963   20.8045   32.3226 O   0  0  0  0  0  0  0  0  0  0  0  0
    1.1134   21.6148   33.2733 C   0  0  0  0  0  0  0  0  0  0  0  0
    0.0380   21.8401   33.8738 O   0  0  0  0  0  0  0  0  0  0  0  0
    2.0196   20.6629   31.8981 H   0  0  0  0  0  0  0  0  0  0  0  0
 25 26  1  0  0  0
 26 27  2  0  0  0
 26  1  1  0  0  0
  1  2  1  0  0  0
  1  3  1  0  0  0
  2 13  1  0  0  0
  2 19  1  0  0  0
  3  4  1  0  0  0
  3  8  1  0  0  0
  3 12  1  0  0  0
  4  5  1  0  0  0
  5  6  2  0  0  0
  5  7  1  0  0  0
  7  8  1  0  0  0
  7  9  1  0  0  0
  7 10  1  0  0  0
 10 11  1  0  0  0
 11 12  1  0  0  0
 12 13  1  0  0  0
 13 14  1  0  0  0
 13 15  1  0  0  0
 14 21  1  0  0  0
 15 16  2  0  0  0
 16 17  1  0  0  0
 17 18  1  0  0  0
 17 19  1  0  0  0
 19 20  1  0  0  0
 19 21  1  0  0  0
 21 22  2  0  0  0
 25 28  1  0  0  0
  9 23  1  0  0  0
 18 24  1  0  0  0
M  END
> <minimizedAffinity>
-8.80698

$$$$
4Q0K_GA3_A_201


 28 32  0  0  0  0  0  0  0  0999 V2000
    1.9850   24.1415   35.0505 C   0  0  0  0  0  0  0  0  0  0  0  0
    0.7754   24.6868   34.2684 C   0  0  0  0  0  0  0  0  0  0  0  0
    2.7913   23.3019   34.0259 C   0  0  0  0  0  0  0  0  0  0  0  0
    4.0508   23.9406   33.4147 C   0  0  0  0  0  0  0  0  0  0  0  0
    4.6487   22.7397   32.7449 C   0  0  0  0  0  0  0  0  0  0  0  0
    5.5478   22.7516   31.7780 C   0  0  0  0  0  0  0  0  0  0  0  0
    4.1171   21.4629   33.3749 C   0  0  0  0  0  0  0  0  0  0  0  0
    3.4123   22.0342   34.6199 C   0  0  0  0  0  0  0  0  0  0  0  0
    5.1849   20.5362   33.6573 O   0  0  0  0  0  0  0  0  0  0  0  0
    3.0770   20.7792   32.4661 C   0  0  0  0  0  0  0  0  0  0  0  0
    1.6996   21.4300   32.6116 C   0  0  0  0  0  0  0  0  0  0  0  0
    1.7829   22.9326   32.9062 C   0  0  0  0  0  0  0  0  0  0  0  0
    0.4432   23.5235   33.3188 C   0  0  0  0  0  0  0  0  0  0  0  0
   -0.2877   22.6293   34.2737 O   0  0  0  0  0  0  0  0  0  0  0  0
   -0.5682   23.9374   32.2876 C   0  0  0  0  0  0  0  0  0  0  0  0
   -1.6431   24.5754   32.7548 C   0  0  0  0  0  0  0  0  0  0  0  0
   -1.6014   25.3539   34.0467 C   0  0  0  0  0  0  0  0  0  0  0  0
   -1.2518   26.6825   33.6956 O   0  0  0  0  0  0  0  0  0  0  0  0
   -0.5523   24.8203   35.0560 C   0  0  0  0  0  0  0  0  0  0  0  0
   -0.4798   25.6426   36.3469 C   0  0  0  0  0  0  0  0  0  0  0  0
   -0.8761   23.3566   35.2613 C   0  0  0  0  0  0  0  0  0  0  0  0
   -1.5747   22.7811   36.0392 O   0  0  0  0  0  0  0  0  0  0  0  0
    5.8413   20.9638   34.2293 H   0  0  0  0  0  0  0  0  0  0  0  0
   -0.3824   26.6852   33.2655 H   0  0  0  0  0  0  0  0  0  0  0  0
    2.7893   26.3610   35.3107 O   0  0  0  0  0  0  0  0  0  0  0  0
    2.8313   25.1902   35.7522 C   0  0  0  0  0  0  0  0  0  0  0  0
    3.5279   24.8687   36.7417 O   0  0  0  0  0  0  0  0  0  0  0  0
    2.2556   26.5626   34.5674 H   0  0  0  0  0  0  0  0  0  0  0  0
 25 26  1  0  0  0
 26 27  2  0  0  0
 26  1  1  0  0  0
  1  2  1  0  0  0
  1  3  1  0  0  0
  2 13  1  0  0  0
  2 19  1  0  0  0
  3  4  1  0  0  0
  3  8  1  0  0  0
  3 12  1  0  0  0
  4  5  1  0  0  0
  5  6  2  0  0  0
  5  7  1  0  0  0
  7  8  1  0  0  0
  7  9  1  0  0  0
  7 10  1  0  0  0
 10 11  1  0  0  0
 11 12  1  0  0  0
 12 13  1  0  0  0
 13 14  1  0  0  0
 13 15  1  0  0  0
 14 21  1  0  0  0
 15 16  2  0  0  0
 16 17  1  0  0  0
 17 18  1  0  0  0
 17 19  1  0  0  0
 19 20  1  0  0  0
 19 21  1  0  0  0
 21 22  2  0  0  0
 25 28  1  0  0  0
  9 23  1  0  0  0
 18 24  1  0  0  0
M  END
> <minimizedAffinity>
-8.79444

$$$$
4Q0K_GA3_A_201


 28 32  0  0  0  0  0  0  0  0999 V2000
    1.8516   23.6830   34.6258 C   0  0  0  0  0  0  0  0  0  0  0  0
    2.2257   22.3455   35.2916 C   0  0  0  0  0  0  0  0  0  0  0  0
    0.4635   24.0567   35.2075 C   0  0  0  0  0  0  0  0  0  0  0  0
    0.4191   25.1191   36.3197 C   0  0  0  0  0  0  0  0  0  0  0  0
   -1.0578   25.3721   36.3746 C   0  0  0  0  0  0  0  0  0  0  0  0
   -1.7183   25.9277   37.3739 C   0  0  0  0  0  0  0  0  0  0  0  0
   -1.7161   24.9479   35.0721 C   0  0  0  0  0  0  0  0  0  0  0  0
   -0.4745   24.7142   34.1908 C   0  0  0  0  0  0  0  0  0  0  0  0
   -2.6180   25.9634   34.5880 O   0  0  0  0  0  0  0  0  0  0  0  0
   -2.4842   23.6219   35.2370 C   0  0  0  0  0  0  0  0  0  0  0  0
   -1.5402   22.4201   35.1568 C   0  0  0  0  0  0  0  0  0  0  0  0
   -0.1456   22.7241   35.7174 C   0  0  0  0  0  0  0  0  0  0  0  0
    0.8657   21.6347   35.3939 C   0  0  0  0  0  0  0  0  0  0  0  0
    0.7330   21.1558   33.9800 O   0  0  0  0  0  0  0  0  0  0  0  0
    0.9633   20.3965   36.2395 C   0  0  0  0  0  0  0  0  0  0  0  0
    1.9785   19.5790   35.9535 C   0  0  0  0  0  0  0  0  0  0  0  0
    3.2431   20.0855   35.3045 C   0  0  0  0  0  0  0  0  0  0  0  0
    4.1207   20.4276   36.3645 O   0  0  0  0  0  0  0  0  0  0  0  0
    3.0247   21.3419   34.4227 C   0  0  0  0  0  0  0  0  0  0  0  0
    4.3188   21.8810   33.8042 C   0  0  0  0  0  0  0  0  0  0  0  0
    1.9572   20.9672   33.4179 C   0  0  0  0  0  0  0  0  0  0  0  0
    2.0030   20.4930   32.3236 O   0  0  0  0  0  0  0  0  0  0  0  0
   -2.1373   26.7993   34.4832 H   0  0  0  0  0  0  0  0  0  0  0  0
    3.7146   21.1193   36.9100 H   0  0  0  0  0  0  0  0  0  0  0  0
    3.6219   24.7615   35.7852 O   0  0  0  0  0  0  0  0  0  0  0  0
    2.8761   24.7944   34.7801 C   0  0  0  0  0  0  0  0  0  0  0  0
    2.9568   25.6925   33.9113 O   0  0  0  0  0  0  0  0  0  0  0  0
    3.5309   24.0726   36.4137 H   0  0  0  0  0  0  0  0  0  0  0  0
 25 26  1  0  0  0
 26 27  2  0  0  0
 26  1  1  0  0  0
  1  2  1  0  0  0
  1  3  1  0  0  0
  2 13  1  0  0  0
  2 19  1  0  0  0
  3  4  1  0  0  0
  3  8  1  0  0  0
  3 12  1  0  0  0
  4  5  1  0  0  0
  5  6  2  0  0  0
  5  7  1  0  0  0
  7  8  1  0  0  0
  7  9  1  0  0  0
  7 10  1  0  0  0
 10 11  1  0  0  0
 11 12  1  0  0  0
 12 13  1  0  0  0
 13 14  1  0  0  0
 13 15  1  0  0  0
 14 21  1  0  0  0
 15 16  2  0  0  0
 16 17  1  0  0  0
 17 18  1  0  0  0
 17 19  1  0  0  0
 19 20  1  0  0  0
 19 21  1  0  0  0
 21 22  2  0  0  0
 25 28  1  0  0  0
  9 23  1  0  0  0
 18 24  1  0  0  0
M  END
> <minimizedAffinity>
-8.79005

$$$$
4Q0K_GA3_A_201


 28 32  0  0  0  0  0  0  0  0999 V2000
   -0.0385   22.9848   36.3390 C   0  0  0  0  0  0  0  0  0  0  0  0
   -0.1621   23.4000   34.8610 C   0  0  0  0  0  0  0  0  0  0  0  0
   -1.2365   23.6596   37.0561 C   0  0  0  0  0  0  0  0  0  0  0  0
   -2.4576   22.7823   37.3833 C   0  0  0  0  0  0  0  0  0  0  0  0
   -3.2091   23.7143   38.2860 C   0  0  0  0  0  0  0  0  0  0  0  0
   -4.4914   23.6402   38.5921 C   0  0  0  0  0  0  0  0  0  0  0  0
   -2.2703   24.7572   38.8699 C   0  0  0  0  0  0  0  0  0  0  0  0
   -0.9061   24.1694   38.4620 C   0  0  0  0  0  0  0  0  0  0  0  0
   -2.4665   24.8987   40.2913 O   0  0  0  0  0  0  0  0  0  0  0  0
   -2.4613   26.1275   38.1910 C   0  0  0  0  0  0  0  0  0  0  0  0
   -1.7142   26.1950   36.8572 C   0  0  0  0  0  0  0  0  0  0  0  0
   -1.6569   24.8400   36.1414 C   0  0  0  0  0  0  0  0  0  0  0  0
   -0.6928   24.8397   34.9646 C   0  0  0  0  0  0  0  0  0  0  0  0
    0.5858   25.5487   35.2940 O   0  0  0  0  0  0  0  0  0  0  0  0
   -1.1161   25.3596   33.6199 C   0  0  0  0  0  0  0  0  0  0  0  0
   -0.2424   25.1775   32.6279 C   0  0  0  0  0  0  0  0  0  0  0  0
    0.7676   24.0568   32.6592 C   0  0  0  0  0  0  0  0  0  0  0  0
    0.1543   22.9549   32.0109 O   0  0  0  0  0  0  0  0  0  0  0  0
    1.1655   23.6236   34.0938 C   0  0  0  0  0  0  0  0  0  0  0  0
    2.1547   22.4537   34.1215 C   0  0  0  0  0  0  0  0  0  0  0  0
    1.6544   24.8758   34.7884 C   0  0  0  0  0  0  0  0  0  0  0  0
    2.7318   25.3787   34.8919 O   0  0  0  0  0  0  0  0  0  0  0  0
   -2.3469   24.0376   40.7215 H   0  0  0  0  0  0  0  0  0  0  0  0
   -0.6506   22.7044   32.4908 H   0  0  0  0  0  0  0  0  0  0  0  0
    0.4855   21.1047   37.6923 O   0  0  0  0  0  0  0  0  0  0  0  0
    0.0338   21.4879   36.5894 C   0  0  0  0  0  0  0  0  0  0  0  0
   -0.3619   20.6892   35.7100 O   0  0  0  0  0  0  0  0  0  0  0  0
    0.7720   21.7334   38.3252 H   0  0  0  0  0  0  0  0  0  0  0  0
 25 26  1  0  0  0
 26 27  2  0  0  0
 26  1  1  0  0  0
  1  2  1  0  0  0
  1  3  1  0  0  0
  2 13  1  0  0  0
  2 19  1  0  0  0
  3  4  1  0  0  0
  3  8  1  0  0  0
  3 12  1  0  0  0
  4  5  1  0  0  0
  5  6  2  0  0  0
  5  7  1  0  0  0
  7  8  1  0  0  0
  7  9  1  0  0  0
  7 10  1  0  0  0
 10 11  1  0  0  0
 11 12  1  0  0  0
 12 13  1  0  0  0
 13 14  1  0  0  0
 13 15  1  0  0  0
 14 21  1  0  0  0
 15 16  2  0  0  0
 16 17  1  0  0  0
 17 18  1  0  0  0
 17 19  1  0  0  0
 19 20  1  0  0  0
 19 21  1  0  0  0
 21 22  2  0  0  0
 25 28  1  0  0  0
  9 23  1  0  0  0
 18 24  1  0  0  0
M  END
> <minimizedAffinity>
-8.72414

$$$$
4Q0K_GA3_A_201


 28 32  0  0  0  0  0  0  0  0999 V2000
    2.7610   24.3272   34.7137 C   0  0  0  0  0  0  0  0  0  0  0  0
    1.4591   23.7981   34.0834 C   0  0  0  0  0  0  0  0  0  0  0  0
    3.7984   23.1895   34.5283 C   0  0  0  0  0  0  0  0  0  0  0  0
    4.8240   23.3382   33.3909 C   0  0  0  0  0  0  0  0  0  0  0  0
    5.7625   22.2233   33.7437 C   0  0  0  0  0  0  0  0  0  0  0  0
    6.6358   21.6522   32.9347 C   0  0  0  0  0  0  0  0  0  0  0  0
    5.6203   21.8565   35.2118 C   0  0  0  0  0  0  0  0  0  0  0  0
    4.7551   23.0282   35.7134 C   0  0  0  0  0  0  0  0  0  0  0  0
    6.9089   21.7414   35.8482 O   0  0  0  0  0  0  0  0  0  0  0  0
    4.8459   20.5357   35.3880 C   0  0  0  0  0  0  0  0  0  0  0  0
    3.3352   20.7613   35.2932 C   0  0  0  0  0  0  0  0  0  0  0  0
    2.9652   21.8959   34.3303 C   0  0  0  0  0  0  0  0  0  0  0  0
    1.5032   22.3023   34.4385 C   0  0  0  0  0  0  0  0  0  0  0  0
    1.0516   22.3762   35.8656 O   0  0  0  0  0  0  0  0  0  0  0  0
    0.4341   21.5399   33.7082 C   0  0  0  0  0  0  0  0  0  0  0  0
   -0.7898   22.0694   33.7568 C   0  0  0  0  0  0  0  0  0  0  0  0
   -1.0041   23.5480   33.9678 C   0  0  0  0  0  0  0  0  0  0  0  0
   -1.0564   24.1275   32.6746 O   0  0  0  0  0  0  0  0  0  0  0  0
    0.1368   24.2300   34.7660 C   0  0  0  0  0  0  0  0  0  0  0  0
   -0.0611   25.7399   34.9367 C   0  0  0  0  0  0  0  0  0  0  0  0
    0.2563   23.4618   36.0641 C   0  0  0  0  0  0  0  0  0  0  0  0
   -0.2554   23.5919   37.1344 O   0  0  0  0  0  0  0  0  0  0  0  0
    7.3988   22.5714   35.7389 H   0  0  0  0  0  0  0  0  0  0  0  0
   -0.2187   23.9649   32.2134 H   0  0  0  0  0  0  0  0  0  0  0  0
    3.5594   26.5444   35.0094 O   0  0  0  0  0  0  0  0  0  0  0  0
    3.2463   25.6632   34.1770 C   0  0  0  0  0  0  0  0  0  0  0  0
    3.3306   25.8447   32.9410 O   0  0  0  0  0  0  0  0  0  0  0  0
    3.4824   26.3706   35.9270 H   0  0  0  0  0  0  0  0  0  0  0  0
 25 26  1  0  0  0
 26 27  2  0  0  0
 26  1  1  0  0  0
  1  2  1  0  0  0
  1  3  1  0  0  0
  2 13  1  0  0  0
  2 19  1  0  0  0
  3  4  1  0  0  0
  3  8  1  0  0  0
  3 12  1  0  0  0
  4  5  1  0  0  0
  5  6  2  0  0  0
  5  7  1  0  0  0
  7  8  1  0  0  0
  7  9  1  0  0  0
  7 10  1  0  0  0
 10 11  1  0  0  0
 11 12  1  0  0  0
 12 13  1  0  0  0
 13 14  1  0  0  0
 13 15  1  0  0  0
 14 21  1  0  0  0
 15 16  2  0  0  0
 16 17  1  0  0  0
 17 18  1  0  0  0
 17 19  1  0  0  0
 19 20  1  0  0  0
 19 21  1  0  0  0
 21 22  2  0  0  0
 25 28  1  0  0  0
  9 23  1  0  0  0
 18 24  1  0  0  0
M  END
> <minimizedAffinity>
-8.71425

$$$$
