1B8N_IMG_A_600


 28 30  0  0  0  0  0  0  0  0999 V2000
  -66.4291   90.6785   93.8904 C   0  0  0  0  0  0  0  0  0  0  0  0
  -67.7006   90.9840   94.1820 C   0  0  0  0  0  0  0  0  0  0  0  0
  -67.9484   92.3617   93.8466 N   0  0  0  0  0  0  0  0  0  0  0  0
  -66.7137   92.8315   93.3475 C   0  0  0  0  0  0  0  0  0  0  0  0
  -66.4339   94.1879   92.8480 C   0  0  0  0  0  0  0  0  0  0  0  0
  -67.1673   95.1893   92.8261 O   0  0  0  0  0  0  0  0  0  0  0  0
  -65.1223   94.2347   92.4340 N   0  0  0  0  0  0  0  0  0  0  0  0
  -62.9711   93.3885   91.8482 N   0  0  0  0  0  0  0  0  0  0  0  0
  -64.1992   93.1917   92.4529 C   0  0  0  0  0  0  0  0  0  0  0  0
  -64.5323   91.9960   92.9101 N   0  0  0  0  0  0  0  0  0  0  0  0
  -65.7913   91.8611   93.3431 C   0  0  0  0  0  0  0  0  0  0  0  0
  -68.7898   92.8637   93.9435 H   0  0  0  0  0  0  0  0  0  0  0  0
  -64.8018   95.0985   92.0870 H   0  0  0  0  0  0  0  0  0  0  0  0
  -62.7266   94.2798   91.5091 H   0  0  0  0  0  0  0  0  0  0  0  0
  -62.3414   92.6372   91.7568 H   0  0  0  0  0  0  0  0  0  0  0  0
  -64.9695   88.9130   96.3684 C   0  0  0  0  0  0  0  0  0  0  0  0
  -66.0896   88.7363   95.4410 N   0  0  0  0  0  0  0  0  0  0  0  0
  -63.7106   88.7682   95.4503 C   0  0  0  0  0  0  0  0  0  0  0  0
  -63.2141   87.4070   95.3094 O   0  0  0  0  0  0  0  0  0  0  0  0
  -64.1902   89.2636   94.0425 C   0  0  0  0  0  0  0  0  0  0  0  0
  -63.7368   88.4020   92.9903 O   0  0  0  0  0  0  0  0  0  0  0  0
  -65.7324   89.2261   94.1127 C   0  0  0  0  0  0  0  0  0  0  0  0
  -66.8965   89.2566   95.7854 H   0  0  0  0  0  0  0  0  0  0  0  0
  -63.9064   86.8488   94.9220 H   0  0  0  0  0  0  0  0  0  0  0  0
  -64.0666   87.5029   93.1440 H   0  0  0  0  0  0  0  0  0  0  0  0
  -66.6224   90.5506   97.4230 O   0  0  0  0  0  0  0  0  0  0  0  0
  -65.2774   90.3002   96.9949 C   0  0  0  0  0  0  0  0  0  0  0  0
  -66.6826   91.4451   97.7932 H   0  0  0  0  0  0  0  0  0  0  0  0
 26 27  1  0  0  0
 27 16  1  0  0  0
 16 17  1  0  0  0
 16 18  1  0  0  0
 17 22  1  0  0  0
 18 19  1  0  0  0
 18 20  1  0  0  0
 20 21  1  0  0  0
 20 22  1  0  0  0
 22  1  1  0  0  0
  1  2  2  0  0  0
  1 11  1  0  0  0
  2  3  1  0  0  0
  3  4  1  0  0  0
  4  5  1  0  0  0
  4 11  2  0  0  0
  5  6  2  0  0  0
  5  7  1  0  0  0
  7  9  1  0  0  0
  8  9  1  0  0  0
  9 10  2  0  0  0
 10 11  1  0  0  0
 26 28  1  0  0  0
 17 23  1  0  0  0
 19 24  1  0  0  0
 21 25  1  0  0  0
  3 12  1  0  0  0
  7 13  1  0  0  0
  8 14  1  0  0  0
  8 15  1  0  0  0
M  END
> <minimizedAffinity>
-10.53436

$$$$
1B8N_IMG_A_600


 28 30  0  0  0  0  0  0  0  0999 V2000
  -65.7575   90.7863   94.7005 C   0  0  0  0  0  0  0  0  0  0  0  0
  -67.0776   90.8903   94.9050 C   0  0  0  0  0  0  0  0  0  0  0  0
  -67.5894   92.0069   94.1548 N   0  0  0  0  0  0  0  0  0  0  0  0
  -66.4561   92.5473   93.5080 C   0  0  0  0  0  0  0  0  0  0  0  0
  -66.4401   93.7048   92.5983 C   0  0  0  0  0  0  0  0  0  0  0  0
  -67.3636   94.4686   92.2742 O   0  0  0  0  0  0  0  0  0  0  0  0
  -65.1481   93.8968   92.1650 N   0  0  0  0  0  0  0  0  0  0  0  0
  -62.8419   93.3870   91.8356 N   0  0  0  0  0  0  0  0  0  0  0  0
  -64.0305   93.1339   92.4957 C   0  0  0  0  0  0  0  0  0  0  0  0
  -64.1300   92.1004   93.3153 N   0  0  0  0  0  0  0  0  0  0  0  0
  -65.3533   91.8441   93.7935 C   0  0  0  0  0  0  0  0  0  0  0  0
  -68.5204   92.3230   94.1039 H   0  0  0  0  0  0  0  0  0  0  0  0
  -64.9974   94.6551   91.5555 H   0  0  0  0  0  0  0  0  0  0  0  0
  -62.7715   94.1571   91.2263 H   0  0  0  0  0  0  0  0  0  0  0  0
  -62.0662   92.7970   91.9749 H   0  0  0  0  0  0  0  0  0  0  0  0
  -64.0366   88.0445   93.7473 C   0  0  0  0  0  0  0  0  0  0  0  0
  -63.7418   89.3251   94.3945 N   0  0  0  0  0  0  0  0  0  0  0  0
  -64.8024   87.2455   94.8536 C   0  0  0  0  0  0  0  0  0  0  0  0
  -63.9515   86.4597   95.7354 O   0  0  0  0  0  0  0  0  0  0  0  0
  -65.5154   88.3460   95.7126 C   0  0  0  0  0  0  0  0  0  0  0  0
  -65.3896   88.0914   97.1177 O   0  0  0  0  0  0  0  0  0  0  0  0
  -64.7861   89.6604   95.3584 C   0  0  0  0  0  0  0  0  0  0  0  0
  -63.6916   90.0565   93.6853 H   0  0  0  0  0  0  0  0  0  0  0  0
  -63.3322   87.0476   96.1956 H   0  0  0  0  0  0  0  0  0  0  0  0
  -64.4503   88.0556   97.3570 H   0  0  0  0  0  0  0  0  0  0  0  0
  -64.7144   87.6571   91.3150 O   0  0  0  0  0  0  0  0  0  0  0  0
  -64.8137   88.4888   92.4784 C   0  0  0  0  0  0  0  0  0  0  0  0
  -65.2412   88.0414   90.5969 H   0  0  0  0  0  0  0  0  0  0  0  0
 26 27  1  0  0  0
 27 16  1  0  0  0
 16 17  1  0  0  0
 16 18  1  0  0  0
 17 22  1  0  0  0
 18 19  1  0  0  0
 18 20  1  0  0  0
 20 21  1  0  0  0
 20 22  1  0  0  0
 22  1  1  0  0  0
  1  2  2  0  0  0
  1 11  1  0  0  0
  2  3  1  0  0  0
  3  4  1  0  0  0
  4  5  1  0  0  0
  4 11  2  0  0  0
  5  6  2  0  0  0
  5  7  1  0  0  0
  7  9  1  0  0  0
  8  9  1  0  0  0
  9 10  2  0  0  0
 10 11  1  0  0  0
 26 28  1  0  0  0
 17 23  1  0  0  0
 19 24  1  0  0  0
 21 25  1  0  0  0
  3 12  1  0  0  0
  7 13  1  0  0  0
  8 14  1  0  0  0
  8 15  1  0  0  0
M  END
> <minimizedAffinity>
-9.58375

$$$$
1B8N_IMG_A_600


 28 30  0  0  0  0  0  0  0  0999 V2000
  -66.3018   89.9734   95.3711 C   0  0  0  0  0  0  0  0  0  0  0  0
  -65.9243   90.2776   96.6202 C   0  0  0  0  0  0  0  0  0  0  0  0
  -65.1699   89.1819   97.1700 N   0  0  0  0  0  0  0  0  0  0  0  0
  -65.1510   88.2145   96.1413 C   0  0  0  0  0  0  0  0  0  0  0  0
  -64.4885   86.9007   96.1914 C   0  0  0  0  0  0  0  0  0  0  0  0
  -63.8924   86.3511   97.1316 O   0  0  0  0  0  0  0  0  0  0  0  0
  -64.6861   86.2700   94.9843 N   0  0  0  0  0  0  0  0  0  0  0  0
  -65.3303   86.0508   92.6988 N   0  0  0  0  0  0  0  0  0  0  0  0
  -65.3725   86.7692   93.8798 C   0  0  0  0  0  0  0  0  0  0  0  0
  -65.9336   87.9666   93.9111 N   0  0  0  0  0  0  0  0  0  0  0  0
  -65.7980   88.6505   95.0533 C   0  0  0  0  0  0  0  0  0  0  0  0
  -64.7594   89.1207   98.0627 H   0  0  0  0  0  0  0  0  0  0  0  0
  -64.3009   85.3688   94.8915 H   0  0  0  0  0  0  0  0  0  0  0  0
  -64.9119   85.1599   92.6792 H   0  0  0  0  0  0  0  0  0  0  0  0
  -65.7188   86.4304   91.8777 H   0  0  0  0  0  0  0  0  0  0  0  0
  -65.8219   91.9759   92.6978 C   0  0  0  0  0  0  0  0  0  0  0  0
  -66.6448   90.8110   93.0318 N   0  0  0  0  0  0  0  0  0  0  0  0
  -66.4831   93.1350   93.5152 C   0  0  0  0  0  0  0  0  0  0  0  0
  -67.5452   93.8434   92.8159 O   0  0  0  0  0  0  0  0  0  0  0  0
  -67.1069   92.4281   94.7676 C   0  0  0  0  0  0  0  0  0  0  0  0
  -68.4273   92.9093   95.0499 O   0  0  0  0  0  0  0  0  0  0  0  0
  -67.1721   90.9327   94.3880 C   0  0  0  0  0  0  0  0  0  0  0  0
  -66.0752   89.9674   92.9670 H   0  0  0  0  0  0  0  0  0  0  0  0
  -68.2551   93.2217   92.5911 H   0  0  0  0  0  0  0  0  0  0  0  0
  -68.9975   92.7599   94.2795 H   0  0  0  0  0  0  0  0  0  0  0  0
  -64.0836   90.1153   92.9031 O   0  0  0  0  0  0  0  0  0  0  0  0
  -64.3995   91.4997   93.0998 C   0  0  0  0  0  0  0  0  0  0  0  0
  -63.1727   89.9475   93.1913 H   0  0  0  0  0  0  0  0  0  0  0  0
 26 27  1  0  0  0
 27 16  1  0  0  0
 16 17  1  0  0  0
 16 18  1  0  0  0
 17 22  1  0  0  0
 18 19  1  0  0  0
 18 20  1  0  0  0
 20 21  1  0  0  0
 20 22  1  0  0  0
 22  1  1  0  0  0
  1  2  2  0  0  0
  1 11  1  0  0  0
  2  3  1  0  0  0
  3  4  1  0  0  0
  4  5  1  0  0  0
  4 11  2  0  0  0
  5  6  2  0  0  0
  5  7  1  0  0  0
  7  9  1  0  0  0
  8  9  1  0  0  0
  9 10  2  0  0  0
 10 11  1  0  0  0
 26 28  1  0  0  0
 17 23  1  0  0  0
 19 24  1  0  0  0
 21 25  1  0  0  0
  3 12  1  0  0  0
  7 13  1  0  0  0
  8 14  1  0  0  0
  8 15  1  0  0  0
M  END
> <minimizedAffinity>
-7.76120

$$$$
1B8N_IMG_A_600


 28 30  0  0  0  0  0  0  0  0999 V2000
  -64.6789   90.1739   93.6845 C   0  0  0  0  0  0  0  0  0  0  0  0
  -64.9271   89.4687   92.5727 C   0  0  0  0  0  0  0  0  0  0  0  0
  -64.9132   88.0640   92.8865 N   0  0  0  0  0  0  0  0  0  0  0  0
  -64.6259   88.0134   94.2683 C   0  0  0  0  0  0  0  0  0  0  0  0
  -64.5140   86.7984   95.0921 C   0  0  0  0  0  0  0  0  0  0  0  0
  -64.5718   85.6054   94.7535 O   0  0  0  0  0  0  0  0  0  0  0  0
  -64.2456   87.1771   96.3877 N   0  0  0  0  0  0  0  0  0  0  0  0
  -64.0009   88.6623   98.2373 N   0  0  0  0  0  0  0  0  0  0  0  0
  -64.1157   88.4768   96.8716 C   0  0  0  0  0  0  0  0  0  0  0  0
  -64.2399   89.5188   96.0663 N   0  0  0  0  0  0  0  0  0  0  0  0
  -64.4944   89.2428   94.7818 C   0  0  0  0  0  0  0  0  0  0  0  0
  -65.0690   87.3082   92.2751 H   0  0  0  0  0  0  0  0  0  0  0  0
  -64.1332   86.4512   97.0431 H   0  0  0  0  0  0  0  0  0  0  0  0
  -63.9086   87.8845   98.8337 H   0  0  0  0  0  0  0  0  0  0  0  0
  -64.0114   89.5722   98.6130 H   0  0  0  0  0  0  0  0  0  0  0  0
  -66.7753   92.8183   93.6905 C   0  0  0  0  0  0  0  0  0  0  0  0
  -65.7366   92.2705   94.5662 N   0  0  0  0  0  0  0  0  0  0  0  0
  -65.9654   93.3943   92.4817 C   0  0  0  0  0  0  0  0  0  0  0  0
  -65.5437   94.7790   92.6367 O   0  0  0  0  0  0  0  0  0  0  0  0
  -64.6826   92.4968   92.4031 C   0  0  0  0  0  0  0  0  0  0  0  0
  -63.4978   93.2760   92.1936 O   0  0  0  0  0  0  0  0  0  0  0  0
  -64.6039   91.7956   93.7767 C   0  0  0  0  0  0  0  0  0  0  0  0
  -66.1235   91.4926   95.1007 H   0  0  0  0  0  0  0  0  0  0  0  0
  -64.9725   94.8576   93.4168 H   0  0  0  0  0  0  0  0  0  0  0  0
  -63.3990   93.9149   92.9167 H   0  0  0  0  0  0  0  0  0  0  0  0
  -67.8595   90.6674   94.5412 O   0  0  0  0  0  0  0  0  0  0  0  0
  -67.6892   91.5853   93.4534 C   0  0  0  0  0  0  0  0  0  0  0  0
  -68.4483   89.9469   94.2670 H   0  0  0  0  0  0  0  0  0  0  0  0
 26 27  1  0  0  0
 27 16  1  0  0  0
 16 17  1  0  0  0
 16 18  1  0  0  0
 17 22  1  0  0  0
 18 19  1  0  0  0
 18 20  1  0  0  0
 20 21  1  0  0  0
 20 22  1  0  0  0
 22  1  1  0  0  0
  1  2  2  0  0  0
  1 11  1  0  0  0
  2  3  1  0  0  0
  3  4  1  0  0  0
  4  5  1  0  0  0
  4 11  2  0  0  0
  5  6  2  0  0  0
  5  7  1  0  0  0
  7  9  1  0  0  0
  8  9  1  0  0  0
  9 10  2  0  0  0
 10 11  1  0  0  0
 26 28  1  0  0  0
 17 23  1  0  0  0
 19 24  1  0  0  0
 21 25  1  0  0  0
  3 12  1  0  0  0
  7 13  1  0  0  0
  8 14  1  0  0  0
  8 15  1  0  0  0
M  END
> <minimizedAffinity>
-7.72957

$$$$
