3EHX_BDL_A_0


 26 27  0  0  0  0  0  0  0  0999 V2000
   -3.1273   -5.8095   -7.8676 S   0  0  0  0  0  0  0  0  0  0  0  0
   -2.8135   -4.5239   -8.4561 O   0  0  0  0  0  0  0  0  0  0  0  0
   -2.2397   -6.8824   -8.2354 O   0  0  0  0  0  0  0  0  0  0  0  0
   -4.5846   -6.2911   -8.3535 C   0  0  0  0  0  0  0  0  0  0  0  0
   -4.8479   -6.6026   -9.6825 C   0  0  0  0  0  0  0  0  0  0  0  0
   -6.0842   -7.1038  -10.0638 C   0  0  0  0  0  0  0  0  0  0  0  0
   -5.5693   -6.4912   -7.3949 C   0  0  0  0  0  0  0  0  0  0  0  0
   -6.8201   -6.9627   -7.7849 C   0  0  0  0  0  0  0  0  0  0  0  0
   -7.0961   -7.2684   -9.1202 C   0  0  0  0  0  0  0  0  0  0  0  0
   -8.4070   -7.8475   -9.5039 C   0  0  0  0  0  0  0  0  0  0  0  0
   -8.6971   -8.0638  -10.8555 C   0  0  0  0  0  0  0  0  0  0  0  0
   -9.9291   -8.5575  -11.2322 C   0  0  0  0  0  0  0  0  0  0  0  0
  -10.9116   -8.7848  -10.2678 C   0  0  0  0  0  0  0  0  0  0  0  0
  -10.6579   -8.5320   -8.9271 C   0  0  0  0  0  0  0  0  0  0  0  0
   -9.4152   -8.0454   -8.5608 C   0  0  0  0  0  0  0  0  0  0  0  0
   -2.6650   -5.7842   -6.3017 N   0  0  0  0  0  0  0  0  0  0  0  0
   -2.7814   -4.8009   -6.0570 H   0  0  0  0  0  0  0  0  0  0  0  0
   -1.5053   -6.1478   -5.5536 C   0  0  0  0  0  0  0  0  0  0  0  0
    0.5386   -5.1998   -5.0719 O   0  0  0  0  0  0  0  0  0  0  0  0
   -0.3157   -5.3324   -5.9016 C   0  0  0  0  0  0  0  0  0  0  0  0
   -0.2037   -4.7384   -7.0633 O   0  0  0  0  0  0  0  0  0  0  0  0
   -0.8734   -4.8440   -7.7100 H   0  0  0  0  0  0  0  0  0  0  0  0
   -1.8047   -6.0342   -4.0668 C   0  0  0  0  0  0  0  0  0  0  0  0
   -1.5866   -7.4069   -3.4243 C   0  0  0  0  0  0  0  0  0  0  0  0
   -1.4089   -8.5490   -4.4276 C   0  0  0  0  0  0  0  0  0  0  0  0
   -0.3797   -7.3796   -2.4818 C   0  0  0  0  0  0  0  0  0  0  0  0
 19 20  2  0  0  0
 20 21  1  0  0  0
 20 18  1  0  0  0
 18 23  1  0  0  0
 18 16  1  0  0  0
 23 24  1  0  0  0
 24 25  1  0  0  0
 24 26  1  0  0  0
 16  1  1  0  0  0
  1  2  2  0  0  0
  1  3  2  0  0  0
  1  4  1  0  0  0
  4  5  2  0  0  0
  4  7  1  0  0  0
  5  6  1  0  0  0
  6  9  2  0  0  0
  7  8  2  0  0  0
  8  9  1  0  0  0
  9 10  1  0  0  0
 10 11  2  0  0  0
 10 15  1  0  0  0
 11 12  1  0  0  0
 12 13  2  0  0  0
 13 14  1  0  0  0
 14 15  2  0  0  0
 21 22  1  0  0  0
 16 17  1  0  0  0
M  END
> <minimizedAffinity>
-10.15469

$$$$
3EHX_BDL_A_0


 26 27  0  0  0  0  0  0  0  0999 V2000
   -3.1804   -5.6082   -7.5740 S   0  0  0  0  0  0  0  0  0  0  0  0
   -2.7727   -4.5722   -8.5003 O   0  0  0  0  0  0  0  0  0  0  0  0
   -2.2710   -6.7193   -7.4616 O   0  0  0  0  0  0  0  0  0  0  0  0
   -4.5713   -6.2576   -8.0591 C   0  0  0  0  0  0  0  0  0  0  0  0
   -5.6315   -6.4578   -7.1825 C   0  0  0  0  0  0  0  0  0  0  0  0
   -6.8524   -6.9328   -7.6398 C   0  0  0  0  0  0  0  0  0  0  0  0
   -4.7391   -6.5296   -9.4105 C   0  0  0  0  0  0  0  0  0  0  0  0
   -5.9545   -7.0378   -9.8619 C   0  0  0  0  0  0  0  0  0  0  0  0
   -7.0217   -7.2516   -8.9855 C   0  0  0  0  0  0  0  0  0  0  0  0
   -8.3345   -7.7152   -9.4980 C   0  0  0  0  0  0  0  0  0  0  0  0
   -9.3658   -8.0004   -8.5964 C   0  0  0  0  0  0  0  0  0  0  0  0
  -10.5772   -8.4773   -9.0533 C   0  0  0  0  0  0  0  0  0  0  0  0
  -10.7551   -8.7343  -10.4132 C   0  0  0  0  0  0  0  0  0  0  0  0
   -9.7279   -8.5016  -11.3168 C   0  0  0  0  0  0  0  0  0  0  0  0
   -8.5205   -8.0147  -10.8473 C   0  0  0  0  0  0  0  0  0  0  0  0
   -2.9219   -5.0694   -6.0544 N   0  0  0  0  0  0  0  0  0  0  0  0
   -3.4229   -4.1810   -6.0511 H   0  0  0  0  0  0  0  0  0  0  0  0
   -1.7922   -4.7838   -5.2302 C   0  0  0  0  0  0  0  0  0  0  0  0
    0.2119   -5.9191   -5.2873 O   0  0  0  0  0  0  0  0  0  0  0  0
   -0.5049   -5.1543   -5.8680 C   0  0  0  0  0  0  0  0  0  0  0  0
   -0.1313   -4.6421   -7.0138 O   0  0  0  0  0  0  0  0  0  0  0  0
   -0.6940   -4.0443   -7.4654 H   0  0  0  0  0  0  0  0  0  0  0  0
   -1.7923   -3.3077   -4.8636 C   0  0  0  0  0  0  0  0  0  0  0  0
   -1.3569   -3.1736   -3.4017 C   0  0  0  0  0  0  0  0  0  0  0  0
   -1.5256   -4.4513   -2.5762 C   0  0  0  0  0  0  0  0  0  0  0  0
    0.0999   -2.7097   -3.3096 C   0  0  0  0  0  0  0  0  0  0  0  0
 19 20  2  0  0  0
 20 21  1  0  0  0
 20 18  1  0  0  0
 18 23  1  0  0  0
 18 16  1  0  0  0
 23 24  1  0  0  0
 24 25  1  0  0  0
 24 26  1  0  0  0
 16  1  1  0  0  0
  1  2  2  0  0  0
  1  3  2  0  0  0
  1  4  1  0  0  0
  4  5  2  0  0  0
  4  7  1  0  0  0
  5  6  1  0  0  0
  6  9  2  0  0  0
  7  8  2  0  0  0
  8  9  1  0  0  0
  9 10  1  0  0  0
 10 11  2  0  0  0
 10 15  1  0  0  0
 11 12  1  0  0  0
 12 13  2  0  0  0
 13 14  1  0  0  0
 14 15  2  0  0  0
 21 22  1  0  0  0
 16 17  1  0  0  0
M  END
> <minimizedAffinity>
-9.99880

$$$$
3EHX_BDL_A_0


 26 27  0  0  0  0  0  0  0  0999 V2000
   -1.1886   -5.0179   -6.1161 S   0  0  0  0  0  0  0  0  0  0  0  0
   -1.4079   -3.7919   -5.3770 O   0  0  0  0  0  0  0  0  0  0  0  0
   -0.2301   -4.9224   -7.1868 O   0  0  0  0  0  0  0  0  0  0  0  0
   -2.5581   -5.4804   -6.8248 C   0  0  0  0  0  0  0  0  0  0  0  0
   -2.6056   -5.8287   -8.1698 C   0  0  0  0  0  0  0  0  0  0  0  0
   -3.7753   -6.3126   -8.7381 C   0  0  0  0  0  0  0  0  0  0  0  0
   -3.6939   -5.6257   -6.0390 C   0  0  0  0  0  0  0  0  0  0  0  0
   -4.8755   -6.0798   -6.6191 C   0  0  0  0  0  0  0  0  0  0  0  0
   -4.9343   -6.4223   -7.9726 C   0  0  0  0  0  0  0  0  0  0  0  0
   -6.1793   -6.9823   -8.5535 C   0  0  0  0  0  0  0  0  0  0  0  0
   -6.3133   -7.0715   -9.9433 C   0  0  0  0  0  0  0  0  0  0  0  0
   -7.4830   -7.5459  -10.5005 C   0  0  0  0  0  0  0  0  0  0  0  0
   -8.5591   -7.8809   -9.6778 C   0  0  0  0  0  0  0  0  0  0  0  0
   -8.4610   -7.7549   -8.2993 C   0  0  0  0  0  0  0  0  0  0  0  0
   -7.2794   -7.2863   -7.7520 C   0  0  0  0  0  0  0  0  0  0  0  0
   -0.2698   -6.0113   -5.2021 N   0  0  0  0  0  0  0  0  0  0  0  0
    0.1061   -6.6581   -5.8956 H   0  0  0  0  0  0  0  0  0  0  0  0
   -0.4636   -6.8589   -4.0704 C   0  0  0  0  0  0  0  0  0  0  0  0
   -0.2959   -6.2282   -1.8607 O   0  0  0  0  0  0  0  0  0  0  0  0
   -0.9312   -6.1213   -2.8710 C   0  0  0  0  0  0  0  0  0  0  0  0
   -2.0237   -5.3994   -2.8889 O   0  0  0  0  0  0  0  0  0  0  0  0
   -2.5183   -5.3177   -3.6804 H   0  0  0  0  0  0  0  0  0  0  0  0
   -1.4476   -7.9627   -4.4261 C   0  0  0  0  0  0  0  0  0  0  0  0
   -1.0610   -9.2233   -3.6474 C   0  0  0  0  0  0  0  0  0  0  0  0
   -1.8527   -9.4302   -2.3540 C   0  0  0  0  0  0  0  0  0  0  0  0
   -1.2066  -10.4698   -4.5254 C   0  0  0  0  0  0  0  0  0  0  0  0
 19 20  2  0  0  0
 20 21  1  0  0  0
 20 18  1  0  0  0
 18 23  1  0  0  0
 18 16  1  0  0  0
 23 24  1  0  0  0
 24 25  1  0  0  0
 24 26  1  0  0  0
 16  1  1  0  0  0
  1  2  2  0  0  0
  1  3  2  0  0  0
  1  4  1  0  0  0
  4  5  2  0  0  0
  4  7  1  0  0  0
  5  6  1  0  0  0
  6  9  2  0  0  0
  7  8  2  0  0  0
  8  9  1  0  0  0
  9 10  1  0  0  0
 10 11  2  0  0  0
 10 15  1  0  0  0
 11 12  1  0  0  0
 12 13  2  0  0  0
 13 14  1  0  0  0
 14 15  2  0  0  0
 21 22  1  0  0  0
 16 17  1  0  0  0
M  END
> <minimizedAffinity>
-9.97395

$$$$
3EHX_BDL_A_0


 26 27  0  0  0  0  0  0  0  0999 V2000
   -1.5050   -5.2017   -6.0609 S   0  0  0  0  0  0  0  0  0  0  0  0
   -0.4980   -4.7875   -7.0158 O   0  0  0  0  0  0  0  0  0  0  0  0
   -1.1600   -6.3559   -5.2716 O   0  0  0  0  0  0  0  0  0  0  0  0
   -2.8539   -5.6165   -6.8355 C   0  0  0  0  0  0  0  0  0  0  0  0
   -2.8637   -5.8790   -8.2006 C   0  0  0  0  0  0  0  0  0  0  0  0
   -4.0168   -6.3244   -8.8308 C   0  0  0  0  0  0  0  0  0  0  0  0
   -4.0111   -5.8096   -6.0924 C   0  0  0  0  0  0  0  0  0  0  0  0
   -5.1760   -6.2245   -6.7329 C   0  0  0  0  0  0  0  0  0  0  0  0
   -5.1967   -6.4806   -8.1065 C   0  0  0  0  0  0  0  0  0  0  0  0
   -6.4248   -7.0010   -8.7561 C   0  0  0  0  0  0  0  0  0  0  0  0
   -7.5158   -7.3801   -7.9664 C   0  0  0  0  0  0  0  0  0  0  0  0
   -8.6474   -7.9099   -8.5515 C   0  0  0  0  0  0  0  0  0  0  0  0
   -8.6815   -8.1257   -9.9297 C   0  0  0  0  0  0  0  0  0  0  0  0
   -7.5911   -7.7992  -10.7234 C   0  0  0  0  0  0  0  0  0  0  0  0
   -6.4652   -7.2601  -10.1259 C   0  0  0  0  0  0  0  0  0  0  0  0
   -1.4754   -4.1639   -4.8005 N   0  0  0  0  0  0  0  0  0  0  0  0
   -2.3631   -3.6722   -4.9036 H   0  0  0  0  0  0  0  0  0  0  0  0
   -0.6117   -3.1336   -4.3216 C   0  0  0  0  0  0  0  0  0  0  0  0
   -2.1120   -1.4389   -3.8909 O   0  0  0  0  0  0  0  0  0  0  0  0
   -1.1614   -1.7729   -4.5394 C   0  0  0  0  0  0  0  0  0  0  0  0
   -0.6571   -0.9616   -5.4352 O   0  0  0  0  0  0  0  0  0  0  0  0
    0.0863   -1.2256   -5.9407 H   0  0  0  0  0  0  0  0  0  0  0  0
   -0.3276   -3.3562   -2.8442 C   0  0  0  0  0  0  0  0  0  0  0  0
   -1.3884   -4.3097   -2.2870 C   0  0  0  0  0  0  0  0  0  0  0  0
   -0.8253   -5.6189   -1.7289 C   0  0  0  0  0  0  0  0  0  0  0  0
   -2.2197   -3.6216   -1.2002 C   0  0  0  0  0  0  0  0  0  0  0  0
 19 20  2  0  0  0
 20 21  1  0  0  0
 20 18  1  0  0  0
 18 23  1  0  0  0
 18 16  1  0  0  0
 23 24  1  0  0  0
 24 25  1  0  0  0
 24 26  1  0  0  0
 16  1  1  0  0  0
  1  2  2  0  0  0
  1  3  2  0  0  0
  1  4  1  0  0  0
  4  5  2  0  0  0
  4  7  1  0  0  0
  5  6  1  0  0  0
  6  9  2  0  0  0
  7  8  2  0  0  0
  8  9  1  0  0  0
  9 10  1  0  0  0
 10 11  2  0  0  0
 10 15  1  0  0  0
 11 12  1  0  0  0
 12 13  2  0  0  0
 13 14  1  0  0  0
 14 15  2  0  0  0
 21 22  1  0  0  0
 16 17  1  0  0  0
M  END
> <minimizedAffinity>
-9.80657

$$$$
3EHX_BDL_A_0


 26 27  0  0  0  0  0  0  0  0999 V2000
   -2.2645   -5.3171   -6.7169 S   0  0  0  0  0  0  0  0  0  0  0  0
   -2.4870   -4.0509   -6.0499 O   0  0  0  0  0  0  0  0  0  0  0  0
   -1.2896   -5.2860   -7.7766 O   0  0  0  0  0  0  0  0  0  0  0  0
   -3.6262   -5.8105   -7.4197 C   0  0  0  0  0  0  0  0  0  0  0  0
   -3.6883   -6.0926   -8.7795 C   0  0  0  0  0  0  0  0  0  0  0  0
   -4.8461   -6.6046   -9.3474 C   0  0  0  0  0  0  0  0  0  0  0  0
   -4.7348   -6.0513   -6.6188 C   0  0  0  0  0  0  0  0  0  0  0  0
   -5.9064   -6.5336   -7.1966 C   0  0  0  0  0  0  0  0  0  0  0  0
   -5.9802   -6.8099   -8.5644 C   0  0  0  0  0  0  0  0  0  0  0  0
   -7.2099   -7.4010   -9.1471 C   0  0  0  0  0  0  0  0  0  0  0  0
   -7.2833   -7.6206  -10.5270 C   0  0  0  0  0  0  0  0  0  0  0  0
   -8.4369   -8.1255  -11.0907 C   0  0  0  0  0  0  0  0  0  0  0  0
   -9.5560   -8.3611  -10.2912 C   0  0  0  0  0  0  0  0  0  0  0  0
   -9.5172   -8.1053   -8.9278 C   0  0  0  0  0  0  0  0  0  0  0  0
   -8.3513   -7.6073   -8.3728 C   0  0  0  0  0  0  0  0  0  0  0  0
   -1.3655   -6.2635   -5.7358 N   0  0  0  0  0  0  0  0  0  0  0  0
   -1.6101   -7.2009   -6.0549 H   0  0  0  0  0  0  0  0  0  0  0  0
   -1.2099   -6.4527   -4.3298 C   0  0  0  0  0  0  0  0  0  0  0  0
   -2.1648   -8.5495   -4.3199 O   0  0  0  0  0  0  0  0  0  0  0  0
   -1.2484   -7.8816   -3.9325 C   0  0  0  0  0  0  0  0  0  0  0  0
   -0.3357   -8.4045   -3.1525 O   0  0  0  0  0  0  0  0  0  0  0  0
    0.3796   -7.8796   -2.8512 H   0  0  0  0  0  0  0  0  0  0  0  0
    0.0931   -5.8145   -3.8734 C   0  0  0  0  0  0  0  0  0  0  0  0
   -0.2427   -4.5741   -3.0407 C   0  0  0  0  0  0  0  0  0  0  0  0
    0.0650   -3.2470   -3.7382 C   0  0  0  0  0  0  0  0  0  0  0  0
   -1.7151   -4.5856   -2.6191 C   0  0  0  0  0  0  0  0  0  0  0  0
 19 20  2  0  0  0
 20 21  1  0  0  0
 20 18  1  0  0  0
 18 23  1  0  0  0
 18 16  1  0  0  0
 23 24  1  0  0  0
 24 25  1  0  0  0
 24 26  1  0  0  0
 16  1  1  0  0  0
  1  2  2  0  0  0
  1  3  2  0  0  0
  1  4  1  0  0  0
  4  5  2  0  0  0
  4  7  1  0  0  0
  5  6  1  0  0  0
  6  9  2  0  0  0
  7  8  2  0  0  0
  8  9  1  0  0  0
  9 10  1  0  0  0
 10 11  2  0  0  0
 10 15  1  0  0  0
 11 12  1  0  0  0
 12 13  2  0  0  0
 13 14  1  0  0  0
 14 15  2  0  0  0
 21 22  1  0  0  0
 16 17  1  0  0  0
M  END
> <minimizedAffinity>
-9.59792

$$$$
3EHX_BDL_A_0


 26 27  0  0  0  0  0  0  0  0999 V2000
   -1.0359   -5.3354   -5.6805 S   0  0  0  0  0  0  0  0  0  0  0  0
    0.0390   -5.0810   -6.6171 O   0  0  0  0  0  0  0  0  0  0  0  0
   -0.8380   -6.4715   -4.8177 O   0  0  0  0  0  0  0  0  0  0  0  0
   -2.3947   -5.6549   -6.4826 C   0  0  0  0  0  0  0  0  0  0  0  0
   -2.3933   -5.9337   -7.8445 C   0  0  0  0  0  0  0  0  0  0  0  0
   -3.5625   -6.2969   -8.4972 C   0  0  0  0  0  0  0  0  0  0  0  0
   -3.5803   -5.7484   -5.7654 C   0  0  0  0  0  0  0  0  0  0  0  0
   -4.7586   -6.0805   -6.4290 C   0  0  0  0  0  0  0  0  0  0  0  0
   -4.7674   -6.3521   -7.7997 C   0  0  0  0  0  0  0  0  0  0  0  0
   -6.0168   -6.7846   -8.4728 C   0  0  0  0  0  0  0  0  0  0  0  0
   -7.1147   -7.1814   -7.7015 C   0  0  0  0  0  0  0  0  0  0  0  0
   -8.2675   -7.6310   -8.3118 C   0  0  0  0  0  0  0  0  0  0  0  0
   -8.3182   -7.7486   -9.7013 C   0  0  0  0  0  0  0  0  0  0  0  0
   -7.2228   -7.4039  -10.4803 C   0  0  0  0  0  0  0  0  0  0  0  0
   -6.0753   -6.9457   -9.8569 C   0  0  0  0  0  0  0  0  0  0  0  0
   -0.9401   -4.2354   -4.4775 N   0  0  0  0  0  0  0  0  0  0  0  0
   -0.0412   -4.4589   -4.0503 H   0  0  0  0  0  0  0  0  0  0  0  0
   -1.7271   -3.8577   -3.3483 C   0  0  0  0  0  0  0  0  0  0  0  0
   -0.6919   -4.0391   -1.2979 O   0  0  0  0  0  0  0  0  0  0  0  0
   -1.3624   -4.6007   -2.1170 C   0  0  0  0  0  0  0  0  0  0  0  0
   -1.7238   -5.8456   -1.9312 O   0  0  0  0  0  0  0  0  0  0  0  0
   -2.2482   -6.2820   -2.5735 H   0  0  0  0  0  0  0  0  0  0  0  0
   -1.5967   -2.3601   -3.1175 C   0  0  0  0  0  0  0  0  0  0  0  0
   -0.5186   -1.8185   -4.0604 C   0  0  0  0  0  0  0  0  0  0  0  0
   -0.9769   -0.6462   -4.9311 C   0  0  0  0  0  0  0  0  0  0  0  0
    0.7279   -1.3988   -3.2757 C   0  0  0  0  0  0  0  0  0  0  0  0
 19 20  2  0  0  0
 20 21  1  0  0  0
 20 18  1  0  0  0
 18 23  1  0  0  0
 18 16  1  0  0  0
 23 24  1  0  0  0
 24 25  1  0  0  0
 24 26  1  0  0  0
 16  1  1  0  0  0
  1  2  2  0  0  0
  1  3  2  0  0  0
  1  4  1  0  0  0
  4  5  2  0  0  0
  4  7  1  0  0  0
  5  6  1  0  0  0
  6  9  2  0  0  0
  7  8  2  0  0  0
  8  9  1  0  0  0
  9 10  1  0  0  0
 10 11  2  0  0  0
 10 15  1  0  0  0
 11 12  1  0  0  0
 12 13  2  0  0  0
 13 14  1  0  0  0
 14 15  2  0  0  0
 21 22  1  0  0  0
 16 17  1  0  0  0
M  END
> <minimizedAffinity>
-9.47307

$$$$
3EHX_BDL_A_0


 26 27  0  0  0  0  0  0  0  0999 V2000
   -1.1375   -4.8163   -5.7363 S   0  0  0  0  0  0  0  0  0  0  0  0
    0.0325   -5.4641   -6.2921 O   0  0  0  0  0  0  0  0  0  0  0  0
   -1.3973   -5.1094   -4.3503 O   0  0  0  0  0  0  0  0  0  0  0  0
   -2.4563   -5.3067   -6.5185 C   0  0  0  0  0  0  0  0  0  0  0  0
   -2.4316   -5.6174   -7.8733 C   0  0  0  0  0  0  0  0  0  0  0  0
   -3.5563   -6.1261   -8.5069 C   0  0  0  0  0  0  0  0  0  0  0  0
   -3.6195   -5.5152   -5.7890 C   0  0  0  0  0  0  0  0  0  0  0  0
   -4.7568   -5.9943   -6.4341 C   0  0  0  0  0  0  0  0  0  0  0  0
   -4.7431   -6.2993   -7.7978 C   0  0  0  0  0  0  0  0  0  0  0  0
   -5.9397   -6.8864   -8.4493 C   0  0  0  0  0  0  0  0  0  0  0  0
   -5.9915   -6.9766   -9.8446 C   0  0  0  0  0  0  0  0  0  0  0  0
   -7.1161   -7.4765  -10.4682 C   0  0  0  0  0  0  0  0  0  0  0  0
   -8.2300   -7.8368   -9.7088 C   0  0  0  0  0  0  0  0  0  0  0  0
   -8.2142   -7.7105   -8.3269 C   0  0  0  0  0  0  0  0  0  0  0  0
   -7.0769   -7.2162   -7.7125 C   0  0  0  0  0  0  0  0  0  0  0  0
   -0.7795   -3.2446   -5.4759 N   0  0  0  0  0  0  0  0  0  0  0  0
    0.1445   -3.1595   -5.8994 H   0  0  0  0  0  0  0  0  0  0  0  0
   -0.6785   -2.3736   -4.3498 C   0  0  0  0  0  0  0  0  0  0  0  0
   -2.2704   -0.9089   -3.5567 O   0  0  0  0  0  0  0  0  0  0  0  0
   -1.9957   -2.0602   -3.7432 C   0  0  0  0  0  0  0  0  0  0  0  0
   -2.8300   -3.0032   -3.3832 O   0  0  0  0  0  0  0  0  0  0  0  0
   -2.6124   -3.9026   -3.5304 H   0  0  0  0  0  0  0  0  0  0  0  0
    0.2451   -2.9921   -3.3117 C   0  0  0  0  0  0  0  0  0  0  0  0
    0.7570   -1.8770   -2.3956 C   0  0  0  0  0  0  0  0  0  0  0  0
    0.6389   -2.1876   -0.9016 C   0  0  0  0  0  0  0  0  0  0  0  0
    2.2141   -1.5342   -2.7195 C   0  0  0  0  0  0  0  0  0  0  0  0
 19 20  2  0  0  0
 20 21  1  0  0  0
 20 18  1  0  0  0
 18 23  1  0  0  0
 18 16  1  0  0  0
 23 24  1  0  0  0
 24 25  1  0  0  0
 24 26  1  0  0  0
 16  1  1  0  0  0
  1  2  2  0  0  0
  1  3  2  0  0  0
  1  4  1  0  0  0
  4  5  2  0  0  0
  4  7  1  0  0  0
  5  6  1  0  0  0
  6  9  2  0  0  0
  7  8  2  0  0  0
  8  9  1  0  0  0
  9 10  1  0  0  0
 10 11  2  0  0  0
 10 15  1  0  0  0
 11 12  1  0  0  0
 12 13  2  0  0  0
 13 14  1  0  0  0
 14 15  2  0  0  0
 21 22  1  0  0  0
 16 17  1  0  0  0
M  END
> <minimizedAffinity>
-9.41891

$$$$
3EHX_BDL_A_0


 26 27  0  0  0  0  0  0  0  0999 V2000
   -1.1448   -4.5557   -5.4522 S   0  0  0  0  0  0  0  0  0  0  0  0
   -1.2481   -3.1156   -5.5658 O   0  0  0  0  0  0  0  0  0  0  0  0
    0.0146   -5.1361   -6.0792 O   0  0  0  0  0  0  0  0  0  0  0  0
   -2.4017   -5.2521   -6.1781 C   0  0  0  0  0  0  0  0  0  0  0  0
   -3.6307   -5.3897   -5.5430 C   0  0  0  0  0  0  0  0  0  0  0  0
   -4.7259   -5.9088   -6.2183 C   0  0  0  0  0  0  0  0  0  0  0  0
   -2.2711   -5.6324   -7.5073 C   0  0  0  0  0  0  0  0  0  0  0  0
   -3.3627   -6.1841   -8.1731 C   0  0  0  0  0  0  0  0  0  0  0  0
   -4.5986   -6.3353   -7.5387 C   0  0  0  0  0  0  0  0  0  0  0  0
   -5.7714   -6.8480   -8.2888 C   0  0  0  0  0  0  0  0  0  0  0  0
   -5.7239   -6.9105   -9.6857 C   0  0  0  0  0  0  0  0  0  0  0  0
   -6.8228   -7.3404  -10.4007 C   0  0  0  0  0  0  0  0  0  0  0  0
   -8.0066   -7.6563   -9.7330 C   0  0  0  0  0  0  0  0  0  0  0  0
   -8.0872   -7.5558   -8.3513 C   0  0  0  0  0  0  0  0  0  0  0  0
   -6.9753   -7.1319   -7.6446 C   0  0  0  0  0  0  0  0  0  0  0  0
   -0.6707   -4.9184   -3.9323 N   0  0  0  0  0  0  0  0  0  0  0  0
    0.3176   -5.1362   -4.0595 H   0  0  0  0  0  0  0  0  0  0  0  0
   -1.0564   -5.8420   -2.9150 C   0  0  0  0  0  0  0  0  0  0  0  0
   -0.0797   -7.7330   -2.0326 O   0  0  0  0  0  0  0  0  0  0  0  0
   -0.3753   -7.1542   -3.0392 C   0  0  0  0  0  0  0  0  0  0  0  0
   -0.0666   -7.6622   -4.2061 O   0  0  0  0  0  0  0  0  0  0  0  0
   -0.2991   -7.2072   -4.9915 H   0  0  0  0  0  0  0  0  0  0  0  0
   -0.7825   -5.2342   -1.5479 C   0  0  0  0  0  0  0  0  0  0  0  0
   -1.5103   -3.8897   -1.4630 C   0  0  0  0  0  0  0  0  0  0  0  0
   -2.5946   -3.8295   -0.3844 C   0  0  0  0  0  0  0  0  0  0  0  0
   -0.5159   -2.7476   -1.2339 C   0  0  0  0  0  0  0  0  0  0  0  0
 19 20  2  0  0  0
 20 21  1  0  0  0
 20 18  1  0  0  0
 18 23  1  0  0  0
 18 16  1  0  0  0
 23 24  1  0  0  0
 24 25  1  0  0  0
 24 26  1  0  0  0
 16  1  1  0  0  0
  1  2  2  0  0  0
  1  3  2  0  0  0
  1  4  1  0  0  0
  4  5  2  0  0  0
  4  7  1  0  0  0
  5  6  1  0  0  0
  6  9  2  0  0  0
  7  8  2  0  0  0
  8  9  1  0  0  0
  9 10  1  0  0  0
 10 11  2  0  0  0
 10 15  1  0  0  0
 11 12  1  0  0  0
 12 13  2  0  0  0
 13 14  1  0  0  0
 14 15  2  0  0  0
 21 22  1  0  0  0
 16 17  1  0  0  0
M  END
> <minimizedAffinity>
-9.05852

$$$$
3EHX_BDL_A_0


 26 27  0  0  0  0  0  0  0  0999 V2000
   -1.1760   -4.7919   -5.3221 S   0  0  0  0  0  0  0  0  0  0  0  0
   -0.0025   -5.5379   -5.7268 O   0  0  0  0  0  0  0  0  0  0  0  0
   -1.5684   -4.9694   -3.9477 O   0  0  0  0  0  0  0  0  0  0  0  0
   -2.4500   -5.2695   -6.1826 C   0  0  0  0  0  0  0  0  0  0  0  0
   -2.3572   -5.5331   -7.5444 C   0  0  0  0  0  0  0  0  0  0  0  0
   -3.4442   -6.0320   -8.2478 C   0  0  0  0  0  0  0  0  0  0  0  0
   -3.6438   -5.5156   -5.5170 C   0  0  0  0  0  0  0  0  0  0  0  0
   -4.7432   -5.9846   -6.2315 C   0  0  0  0  0  0  0  0  0  0  0  0
   -4.6610   -6.2423   -7.6025 C   0  0  0  0  0  0  0  0  0  0  0  0
   -5.8179   -6.8197   -8.3299 C   0  0  0  0  0  0  0  0  0  0  0  0
   -5.7759   -6.9200   -9.7249 C   0  0  0  0  0  0  0  0  0  0  0  0
   -6.8619   -7.4109  -10.4201 C   0  0  0  0  0  0  0  0  0  0  0  0
   -8.0293   -7.7515   -9.7358 C   0  0  0  0  0  0  0  0  0  0  0  0
   -8.1059   -7.6148   -8.3570 C   0  0  0  0  0  0  0  0  0  0  0  0
   -7.0067   -7.1298   -7.6700 C   0  0  0  0  0  0  0  0  0  0  0  0
   -0.7513   -3.2259   -5.1388 N   0  0  0  0  0  0  0  0  0  0  0  0
    0.2218   -3.2279   -5.4444 H   0  0  0  0  0  0  0  0  0  0  0  0
   -0.7347   -2.2699   -4.0792 C   0  0  0  0  0  0  0  0  0  0  0  0
    1.3487   -2.1565   -3.1018 O   0  0  0  0  0  0  0  0  0  0  0  0
    0.2417   -2.6067   -3.0141 C   0  0  0  0  0  0  0  0  0  0  0  0
   -0.0698   -3.4002   -2.0200 O   0  0  0  0  0  0  0  0  0  0  0  0
   -0.9363   -3.7508   -1.9542 H   0  0  0  0  0  0  0  0  0  0  0  0
   -0.4399   -0.8898   -4.6461 C   0  0  0  0  0  0  0  0  0  0  0  0
   -1.4797    0.0903   -4.0955 C   0  0  0  0  0  0  0  0  0  0  0  0
   -1.9095   -0.1939   -2.6544 C   0  0  0  0  0  0  0  0  0  0  0  0
   -0.9699    1.5315   -4.1883 C   0  0  0  0  0  0  0  0  0  0  0  0
 19 20  2  0  0  0
 20 21  1  0  0  0
 20 18  1  0  0  0
 18 23  1  0  0  0
 18 16  1  0  0  0
 23 24  1  0  0  0
 24 25  1  0  0  0
 24 26  1  0  0  0
 16  1  1  0  0  0
  1  2  2  0  0  0
  1  3  2  0  0  0
  1  4  1  0  0  0
  4  5  2  0  0  0
  4  7  1  0  0  0
  5  6  1  0  0  0
  6  9  2  0  0  0
  7  8  2  0  0  0
  8  9  1  0  0  0
  9 10  1  0  0  0
 10 11  2  0  0  0
 10 15  1  0  0  0
 11 12  1  0  0  0
 12 13  2  0  0  0
 13 14  1  0  0  0
 14 15  2  0  0  0
 21 22  1  0  0  0
 16 17  1  0  0  0
M  END
> <minimizedAffinity>
-8.99595

$$$$
3EHX_BDL_A_0


 26 27  0  0  0  0  0  0  0  0999 V2000
   -0.7942   -5.0192   -5.0046 S   0  0  0  0  0  0  0  0  0  0  0  0
    0.3573   -4.9769   -5.8819 O   0  0  0  0  0  0  0  0  0  0  0  0
   -0.6704   -5.9062   -3.8767 O   0  0  0  0  0  0  0  0  0  0  0  0
   -2.0783   -5.5544   -5.8147 C   0  0  0  0  0  0  0  0  0  0  0  0
   -3.3531   -5.5383   -5.2605 C   0  0  0  0  0  0  0  0  0  0  0  0
   -4.4585   -5.9176   -6.0085 C   0  0  0  0  0  0  0  0  0  0  0  0
   -1.9106   -5.9481   -7.1359 C   0  0  0  0  0  0  0  0  0  0  0  0
   -3.0170   -6.3602   -7.8743 C   0  0  0  0  0  0  0  0  0  0  0  0
   -4.3003   -6.3568   -7.3213 C   0  0  0  0  0  0  0  0  0  0  0  0
   -5.4768   -6.7202   -8.1487 C   0  0  0  0  0  0  0  0  0  0  0  0
   -5.4009   -6.6127   -9.5417 C   0  0  0  0  0  0  0  0  0  0  0  0
   -6.5008   -6.9017  -10.3228 C   0  0  0  0  0  0  0  0  0  0  0  0
   -7.7117   -7.2435   -9.7193 C   0  0  0  0  0  0  0  0  0  0  0  0
   -7.8187   -7.3099   -8.3374 C   0  0  0  0  0  0  0  0  0  0  0  0
   -6.7059   -7.0265   -7.5650 C   0  0  0  0  0  0  0  0  0  0  0  0
   -0.8037   -3.6574   -4.1035 N   0  0  0  0  0  0  0  0  0  0  0  0
   -0.7787   -2.9266   -4.8147 H   0  0  0  0  0  0  0  0  0  0  0  0
   -0.0075   -3.0942   -3.0615 C   0  0  0  0  0  0  0  0  0  0  0  0
    0.0963   -1.1271   -4.2567 O   0  0  0  0  0  0  0  0  0  0  0  0
    0.6553   -1.8287   -3.4623 C   0  0  0  0  0  0  0  0  0  0  0  0
    1.8326   -1.4911   -2.9988 O   0  0  0  0  0  0  0  0  0  0  0  0
    2.2671   -2.0418   -2.3777 H   0  0  0  0  0  0  0  0  0  0  0  0
   -0.8703   -2.8691   -1.8294 C   0  0  0  0  0  0  0  0  0  0  0  0
   -0.3025   -3.7099   -0.6825 C   0  0  0  0  0  0  0  0  0  0  0  0
   -0.1433   -2.9483    0.6355 C   0  0  0  0  0  0  0  0  0  0  0  0
   -1.1666   -4.9508   -0.4395 C   0  0  0  0  0  0  0  0  0  0  0  0
 19 20  2  0  0  0
 20 21  1  0  0  0
 20 18  1  0  0  0
 18 23  1  0  0  0
 18 16  1  0  0  0
 23 24  1  0  0  0
 24 25  1  0  0  0
 24 26  1  0  0  0
 16  1  1  0  0  0
  1  2  2  0  0  0
  1  3  2  0  0  0
  1  4  1  0  0  0
  4  5  2  0  0  0
  4  7  1  0  0  0
  5  6  1  0  0  0
  6  9  2  0  0  0
  7  8  2  0  0  0
  8  9  1  0  0  0
  9 10  1  0  0  0
 10 11  2  0  0  0
 10 15  1  0  0  0
 11 12  1  0  0  0
 12 13  2  0  0  0
 13 14  1  0  0  0
 14 15  2  0  0  0
 21 22  1  0  0  0
 16 17  1  0  0  0
M  END
> <minimizedAffinity>
-7.85570

$$$$
