3F15_HS1_A_0


 24 24  0  0  0  0  0  0  0  0999 V2000
   -1.6851   -5.8235   -4.9115 N   0  0  0  0  0  0  0  0  0  0  0  0
   -1.0120   -5.1031   -7.2836 O   0  0  0  0  0  0  0  0  0  0  0  0
   -2.3640   -3.6436   -6.0068 O   0  0  0  0  0  0  0  0  0  0  0  0
   -2.0508   -5.0193   -6.2850 S   0  0  0  0  0  0  0  0  0  0  0  0
   -5.6613   -6.5073   -6.7245 C   0  0  0  0  0  0  0  0  0  0  0  0
   -5.5920   -7.0575   -8.0083 C   0  0  0  0  0  0  0  0  0  0  0  0
   -3.2790   -6.2931   -8.2073 C   0  0  0  0  0  0  0  0  0  0  0  0
   -3.3428   -5.7321   -6.9273 C   0  0  0  0  0  0  0  0  0  0  0  0
   -4.3971   -6.9469   -8.7428 C   0  0  0  0  0  0  0  0  0  0  0  0
   -4.5390   -5.8517   -6.1912 C   0  0  0  0  0  0  0  0  0  0  0  0
   -6.6578   -7.7263   -8.5787 O   0  0  0  0  0  0  0  0  0  0  0  0
   -6.9540   -7.6457   -9.9792 C   0  0  0  0  0  0  0  0  0  0  0  0
   -0.9668   -5.0516   -3.8833 C   0  0  0  0  0  0  0  0  0  0  0  0
   -3.0433   -4.9094   -2.6873 O   0  0  0  0  0  0  0  0  0  0  0  0
   -1.8897   -5.3457   -2.7091 C   0  0  0  0  0  0  0  0  0  0  0  0
   -1.4055   -6.0539   -1.6944 N   0  0  0  0  0  0  0  0  0  0  0  0
   -2.2084   -7.0612   -1.1519 O   0  0  0  0  0  0  0  0  0  0  0  0
   -1.4044   -7.2792   -5.0597 C   0  0  0  0  0  0  0  0  0  0  0  0
   -2.4092   -8.3445   -4.6249 C   0  0  0  0  0  0  0  0  0  0  0  0
   -3.3741   -7.8108   -3.7227 O   0  0  0  0  0  0  0  0  0  0  0  0
   -2.9275   -7.4930   -2.9224 H   0  0  0  0  0  0  0  0  0  0  0  0
   -0.9996   -9.0333   -2.8261 O   0  0  0  0  0  0  0  0  0  0  0  0
   -1.6795   -9.5175   -3.9885 C   0  0  0  0  0  0  0  0  0  0  0  0
   -0.5251   -9.7647   -2.4009 H   0  0  0  0  0  0  0  0  0  0  0  0
  1 13  1  0  0  0
  1 18  1  0  0  0
  1  4  1  0  0  0
  5  6  2  0  0  0
  5 10  1  0  0  0
 16 15  1  0  0  0
 16 17  2  0  0  0
  6 11  1  0  0  0
  6  9  1  0  0  0
  7  8  1  0  0  0
  7  9  2  0  0  0
 19 18  1  0  0  0
 19 20  1  0  0  0
 19 23  1  0  0  0
  2  4  2  0  0  0
  3  4  2  0  0  0
 11 12  1  0  0  0
 22 23  1  0  0  0
 14 15  2  0  0  0
 15 13  1  0  0  0
  4  8  1  0  0  0
  8 10  2  0  0  0
 22 24  1  0  0  0
 20 21  1  0  0  0
M  END
> <minimizedAffinity>
-6.81008

$$$$
3F15_HS1_A_0


 24 24  0  0  0  0  0  0  0  0999 V2000
   -3.0292   -6.0500   -6.1288 N   0  0  0  0  0  0  0  0  0  0  0  0
   -2.3375   -6.7895   -8.4896 O   0  0  0  0  0  0  0  0  0  0  0  0
   -3.0009   -4.5440   -8.1644 O   0  0  0  0  0  0  0  0  0  0  0  0
   -3.2025   -5.9050   -7.7461 S   0  0  0  0  0  0  0  0  0  0  0  0
   -6.9620   -6.9924   -7.3887 C   0  0  0  0  0  0  0  0  0  0  0  0
   -7.3272   -7.2094   -8.7210 C   0  0  0  0  0  0  0  0  0  0  0  0
   -5.0778   -6.5758   -9.4372 C   0  0  0  0  0  0  0  0  0  0  0  0
   -4.7070   -6.3478   -8.1077 C   0  0  0  0  0  0  0  0  0  0  0  0
   -6.3791   -6.9997   -9.7393 C   0  0  0  0  0  0  0  0  0  0  0  0
   -5.6570   -6.5665   -7.0896 C   0  0  0  0  0  0  0  0  0  0  0  0
   -8.5905   -7.6426   -9.0746 O   0  0  0  0  0  0  0  0  0  0  0  0
   -9.5805   -7.9987   -8.1005 C   0  0  0  0  0  0  0  0  0  0  0  0
   -2.8219   -7.4170   -5.6218 C   0  0  0  0  0  0  0  0  0  0  0  0
   -1.4246   -7.6135   -3.6797 O   0  0  0  0  0  0  0  0  0  0  0  0
   -1.5543   -7.1594   -4.8193 C   0  0  0  0  0  0  0  0  0  0  0  0
   -0.6094   -6.4027   -5.3672 N   0  0  0  0  0  0  0  0  0  0  0  0
   -0.0289   -5.4025   -4.5822 O   0  0  0  0  0  0  0  0  0  0  0  0
   -3.7855   -5.0709   -5.2985 C   0  0  0  0  0  0  0  0  0  0  0  0
   -3.1470   -3.7803   -4.7885 C   0  0  0  0  0  0  0  0  0  0  0  0
   -1.9879   -3.4404   -5.5441 O   0  0  0  0  0  0  0  0  0  0  0  0
   -1.3259   -4.1437   -5.4546 H   0  0  0  0  0  0  0  0  0  0  0  0
   -3.2085   -5.2239   -2.8887 O   0  0  0  0  0  0  0  0  0  0  0  0
   -2.7973   -3.9212   -3.3150 C   0  0  0  0  0  0  0  0  0  0  0  0
   -2.9958   -5.3388   -1.9493 H   0  0  0  0  0  0  0  0  0  0  0  0
  1 13  1  0  0  0
  1 18  1  0  0  0
  1  4  1  0  0  0
  5  6  2  0  0  0
  5 10  1  0  0  0
 16 15  1  0  0  0
 16 17  2  0  0  0
  6 11  1  0  0  0
  6  9  1  0  0  0
  7  8  1  0  0  0
  7  9  2  0  0  0
 19 18  1  0  0  0
 19 20  1  0  0  0
 19 23  1  0  0  0
  2  4  2  0  0  0
  3  4  2  0  0  0
 11 12  1  0  0  0
 22 23  1  0  0  0
 14 15  2  0  0  0
 15 13  1  0  0  0
  4  8  1  0  0  0
  8 10  2  0  0  0
 22 24  1  0  0  0
 20 21  1  0  0  0
M  END
> <minimizedAffinity>
-6.77684

$$$$
3F15_HS1_A_0


 24 24  0  0  0  0  0  0  0  0999 V2000
   -2.0967   -5.3120   -3.8983 N   0  0  0  0  0  0  0  0  0  0  0  0
   -1.1224   -7.4452   -4.9468 O   0  0  0  0  0  0  0  0  0  0  0  0
   -0.3953   -5.3532   -5.7734 O   0  0  0  0  0  0  0  0  0  0  0  0
   -1.5031   -6.0785   -5.2125 S   0  0  0  0  0  0  0  0  0  0  0  0
   -3.6368   -5.4640   -8.4549 C   0  0  0  0  0  0  0  0  0  0  0  0
   -4.7953   -6.1978   -8.1809 C   0  0  0  0  0  0  0  0  0  0  0  0
   -3.8535   -6.8752   -6.0297 C   0  0  0  0  0  0  0  0  0  0  0  0
   -2.6875   -6.1509   -6.2998 C   0  0  0  0  0  0  0  0  0  0  0  0
   -4.8962   -6.8999   -6.9659 C   0  0  0  0  0  0  0  0  0  0  0  0
   -2.5931   -5.4423   -7.5147 C   0  0  0  0  0  0  0  0  0  0  0  0
   -5.8599   -6.2440   -9.0602 O   0  0  0  0  0  0  0  0  0  0  0  0
   -7.0755   -6.9416   -8.7580 C   0  0  0  0  0  0  0  0  0  0  0  0
   -2.4421   -6.1696   -2.7520 C   0  0  0  0  0  0  0  0  0  0  0  0
   -1.8902   -4.9211   -0.7774 O   0  0  0  0  0  0  0  0  0  0  0  0
   -1.4753   -5.5742   -1.7382 C   0  0  0  0  0  0  0  0  0  0  0  0
   -0.1732   -5.7474   -1.9382 N   0  0  0  0  0  0  0  0  0  0  0  0
    0.3611   -7.0223   -1.7311 O   0  0  0  0  0  0  0  0  0  0  0  0
   -2.9036   -4.0878   -4.1627 C   0  0  0  0  0  0  0  0  0  0  0  0
   -2.2553   -2.7175   -4.3512 C   0  0  0  0  0  0  0  0  0  0  0  0
   -1.7492   -2.5599   -5.6737 O   0  0  0  0  0  0  0  0  0  0  0  0
   -1.0649   -3.2271   -5.8397 H   0  0  0  0  0  0  0  0  0  0  0  0
    0.0254   -3.1855   -3.8252 O   0  0  0  0  0  0  0  0  0  0  0  0
   -1.1437   -2.5245   -3.3311 C   0  0  0  0  0  0  0  0  0  0  0  0
    0.7509   -3.0767   -3.1906 H   0  0  0  0  0  0  0  0  0  0  0  0
  1 13  1  0  0  0
  1 18  1  0  0  0
  1  4  1  0  0  0
  5  6  2  0  0  0
  5 10  1  0  0  0
 16 15  1  0  0  0
 16 17  2  0  0  0
  6 11  1  0  0  0
  6  9  1  0  0  0
  7  8  1  0  0  0
  7  9  2  0  0  0
 19 18  1  0  0  0
 19 20  1  0  0  0
 19 23  1  0  0  0
  2  4  2  0  0  0
  3  4  2  0  0  0
 11 12  1  0  0  0
 22 23  1  0  0  0
 14 15  2  0  0  0
 15 13  1  0  0  0
  4  8  1  0  0  0
  8 10  2  0  0  0
 22 24  1  0  0  0
 20 21  1  0  0  0
M  END
> <minimizedAffinity>
-6.55009

$$$$
3F15_HS1_A_0


 24 24  0  0  0  0  0  0  0  0999 V2000
   -1.9484   -5.9252   -4.9154 N   0  0  0  0  0  0  0  0  0  0  0  0
   -2.5493   -3.6962   -6.0421 O   0  0  0  0  0  0  0  0  0  0  0  0
   -3.9448   -4.4909   -4.3074 O   0  0  0  0  0  0  0  0  0  0  0  0
   -3.0952   -4.8701   -5.4039 S   0  0  0  0  0  0  0  0  0  0  0  0
   -4.3684   -6.2197   -8.8681 C   0  0  0  0  0  0  0  0  0  0  0  0
   -5.5730   -6.8348   -8.5127 C   0  0  0  0  0  0  0  0  0  0  0  0
   -5.1931   -6.2217   -6.1774 C   0  0  0  0  0  0  0  0  0  0  0  0
   -3.9824   -5.6119   -6.5231 C   0  0  0  0  0  0  0  0  0  0  0  0
   -5.9786   -6.8307   -7.1655 C   0  0  0  0  0  0  0  0  0  0  0  0
   -3.5830   -5.6110   -7.8749 C   0  0  0  0  0  0  0  0  0  0  0  0
   -6.3939   -7.4358   -9.4473 O   0  0  0  0  0  0  0  0  0  0  0  0
   -7.4612   -8.3187   -9.0770 C   0  0  0  0  0  0  0  0  0  0  0  0
   -0.5528   -5.4923   -5.0988 C   0  0  0  0  0  0  0  0  0  0  0  0
   -0.2620   -5.7098   -2.7259 O   0  0  0  0  0  0  0  0  0  0  0  0
   -0.3092   -4.9508   -3.6972 C   0  0  0  0  0  0  0  0  0  0  0  0
   -0.1853   -3.6364   -3.5466 N   0  0  0  0  0  0  0  0  0  0  0  0
    0.3794   -3.1597   -2.3602 O   0  0  0  0  0  0  0  0  0  0  0  0
   -2.2876   -7.3698   -5.0492 C   0  0  0  0  0  0  0  0  0  0  0  0
   -1.7398   -8.4212   -4.0859 C   0  0  0  0  0  0  0  0  0  0  0  0
   -1.7942   -9.7260   -4.6557 O   0  0  0  0  0  0  0  0  0  0  0  0
   -2.7171   -9.9594   -4.8417 H   0  0  0  0  0  0  0  0  0  0  0  0
   -2.8379   -7.0144   -2.5010 O   0  0  0  0  0  0  0  0  0  0  0  0
   -2.5148   -8.3807   -2.7778 C   0  0  0  0  0  0  0  0  0  0  0  0
   -3.3339   -6.9616   -1.6691 H   0  0  0  0  0  0  0  0  0  0  0  0
  1 13  1  0  0  0
  1 18  1  0  0  0
  1  4  1  0  0  0
  5  6  2  0  0  0
  5 10  1  0  0  0
 16 15  1  0  0  0
 16 17  2  0  0  0
  6 11  1  0  0  0
  6  9  1  0  0  0
  7  8  1  0  0  0
  7  9  2  0  0  0
 19 18  1  0  0  0
 19 20  1  0  0  0
 19 23  1  0  0  0
  2  4  2  0  0  0
  3  4  2  0  0  0
 11 12  1  0  0  0
 22 23  1  0  0  0
 14 15  2  0  0  0
 15 13  1  0  0  0
  4  8  1  0  0  0
  8 10  2  0  0  0
 22 24  1  0  0  0
 20 21  1  0  0  0
M  END
> <minimizedAffinity>
-6.41983

$$$$
3F15_HS1_A_0


 24 24  0  0  0  0  0  0  0  0999 V2000
   -1.8719   -5.1563   -4.1968 N   0  0  0  0  0  0  0  0  0  0  0  0
   -1.2819   -7.5484   -4.9236 O   0  0  0  0  0  0  0  0  0  0  0  0
   -0.5600   -5.7515   -6.2794 O   0  0  0  0  0  0  0  0  0  0  0  0
   -1.5969   -6.2235   -5.4019 S   0  0  0  0  0  0  0  0  0  0  0  0
   -4.1352   -6.5289   -8.3864 C   0  0  0  0  0  0  0  0  0  0  0  0
   -5.3647   -6.5299   -7.7201 C   0  0  0  0  0  0  0  0  0  0  0  0
   -4.2002   -6.3591   -5.5780 C   0  0  0  0  0  0  0  0  0  0  0  0
   -2.9658   -6.3664   -6.2361 C   0  0  0  0  0  0  0  0  0  0  0  0
   -5.3887   -6.4439   -6.3160 C   0  0  0  0  0  0  0  0  0  0  0  0
   -2.9458   -6.4448   -7.6434 C   0  0  0  0  0  0  0  0  0  0  0  0
   -6.5668   -6.5953   -8.3979 O   0  0  0  0  0  0  0  0  0  0  0  0
   -7.1142   -7.8326   -8.8725 C   0  0  0  0  0  0  0  0  0  0  0  0
   -0.9547   -4.0059   -4.1317 C   0  0  0  0  0  0  0  0  0  0  0  0
   -2.5417   -2.9907   -5.6195 O   0  0  0  0  0  0  0  0  0  0  0  0
   -1.9395   -2.9214   -4.5450 C   0  0  0  0  0  0  0  0  0  0  0  0
   -2.1038   -1.8824   -3.7332 N   0  0  0  0  0  0  0  0  0  0  0  0
   -2.1002   -0.6018   -4.2932 O   0  0  0  0  0  0  0  0  0  0  0  0
   -2.4230   -5.7222   -2.9336 C   0  0  0  0  0  0  0  0  0  0  0  0
   -1.5220   -6.3244   -1.8570 C   0  0  0  0  0  0  0  0  0  0  0  0
   -0.1817   -6.4639   -2.3198 O   0  0  0  0  0  0  0  0  0  0  0  0
   -0.1632   -7.0659   -3.0802 H   0  0  0  0  0  0  0  0  0  0  0  0
   -2.8282   -8.2162   -2.4986 O   0  0  0  0  0  0  0  0  0  0  0  0
   -2.0727   -7.6707   -1.4125 C   0  0  0  0  0  0  0  0  0  0  0  0
   -3.1911   -9.0776   -2.2394 H   0  0  0  0  0  0  0  0  0  0  0  0
  1 13  1  0  0  0
  1 18  1  0  0  0
  1  4  1  0  0  0
  5  6  2  0  0  0
  5 10  1  0  0  0
 16 15  1  0  0  0
 16 17  2  0  0  0
  6 11  1  0  0  0
  6  9  1  0  0  0
  7  8  1  0  0  0
  7  9  2  0  0  0
 19 18  1  0  0  0
 19 20  1  0  0  0
 19 23  1  0  0  0
  2  4  2  0  0  0
  3  4  2  0  0  0
 11 12  1  0  0  0
 22 23  1  0  0  0
 14 15  2  0  0  0
 15 13  1  0  0  0
  4  8  1  0  0  0
  8 10  2  0  0  0
 22 24  1  0  0  0
 20 21  1  0  0  0
M  END
> <minimizedAffinity>
-6.38773

$$$$
3F15_HS1_A_0


 24 24  0  0  0  0  0  0  0  0999 V2000
   -2.2710   -4.9786   -3.9914 N   0  0  0  0  0  0  0  0  0  0  0  0
   -2.6450   -7.5154   -3.8389 O   0  0  0  0  0  0  0  0  0  0  0  0
   -0.8405   -6.7218   -5.1435 O   0  0  0  0  0  0  0  0  0  0  0  0
   -2.1791   -6.4500   -4.6939 S   0  0  0  0  0  0  0  0  0  0  0  0
   -5.4377   -6.5022   -6.8898 C   0  0  0  0  0  0  0  0  0  0  0  0
   -4.9120   -6.5003   -8.1857 C   0  0  0  0  0  0  0  0  0  0  0  0
   -2.6491   -6.4435   -7.2640 C   0  0  0  0  0  0  0  0  0  0  0  0
   -3.1668   -6.4362   -5.9644 C   0  0  0  0  0  0  0  0  0  0  0  0
   -3.5168   -6.4717   -8.3643 C   0  0  0  0  0  0  0  0  0  0  0  0
   -4.5650   -6.4728   -5.7892 C   0  0  0  0  0  0  0  0  0  0  0  0
   -5.7199   -6.5435   -9.3055 O   0  0  0  0  0  0  0  0  0  0  0  0
   -7.1381   -6.7376   -9.2220 C   0  0  0  0  0  0  0  0  0  0  0  0
   -1.1345   -4.0744   -4.2362 C   0  0  0  0  0  0  0  0  0  0  0  0
   -2.5058   -2.8408   -5.7726 O   0  0  0  0  0  0  0  0  0  0  0  0
   -1.9239   -2.8527   -4.6849 C   0  0  0  0  0  0  0  0  0  0  0  0
   -1.9374   -1.7890   -3.8887 N   0  0  0  0  0  0  0  0  0  0  0  0
   -0.7529   -1.4421   -3.2328 O   0  0  0  0  0  0  0  0  0  0  0  0
   -2.9805   -4.9206   -2.6826 C   0  0  0  0  0  0  0  0  0  0  0  0
   -2.2607   -5.1814   -1.3607 C   0  0  0  0  0  0  0  0  0  0  0  0
   -2.6620   -6.4222   -0.7869 O   0  0  0  0  0  0  0  0  0  0  0  0
   -3.6129   -6.3980   -0.5967 H   0  0  0  0  0  0  0  0  0  0  0  0
   -1.9891   -2.8429   -0.9677 O   0  0  0  0  0  0  0  0  0  0  0  0
   -2.5241   -4.0388   -0.3920 C   0  0  0  0  0  0  0  0  0  0  0  0
   -2.1449   -2.0972   -0.3671 H   0  0  0  0  0  0  0  0  0  0  0  0
  1 13  1  0  0  0
  1 18  1  0  0  0
  1  4  1  0  0  0
  5  6  2  0  0  0
  5 10  1  0  0  0
 16 15  1  0  0  0
 16 17  2  0  0  0
  6 11  1  0  0  0
  6  9  1  0  0  0
  7  8  1  0  0  0
  7  9  2  0  0  0
 19 18  1  0  0  0
 19 20  1  0  0  0
 19 23  1  0  0  0
  2  4  2  0  0  0
  3  4  2  0  0  0
 11 12  1  0  0  0
 22 23  1  0  0  0
 14 15  2  0  0  0
 15 13  1  0  0  0
  4  8  1  0  0  0
  8 10  2  0  0  0
 22 24  1  0  0  0
 20 21  1  0  0  0
M  END
> <minimizedAffinity>
-6.38726

$$$$
3F15_HS1_A_0


 24 24  0  0  0  0  0  0  0  0999 V2000
   -2.7426   -5.3888   -4.5861 N   0  0  0  0  0  0  0  0  0  0  0  0
   -0.4891   -5.4868   -3.3569 O   0  0  0  0  0  0  0  0  0  0  0  0
   -0.6287   -6.4206   -5.5241 O   0  0  0  0  0  0  0  0  0  0  0  0
   -1.3399   -6.1741   -4.2987 S   0  0  0  0  0  0  0  0  0  0  0  0
   -2.1237   -9.9935   -3.8075 C   0  0  0  0  0  0  0  0  0  0  0  0
   -2.4472  -10.0489   -2.4481 C   0  0  0  0  0  0  0  0  0  0  0  0
   -2.0453   -7.6455   -2.2581 C   0  0  0  0  0  0  0  0  0  0  0  0
   -1.7116   -7.5830   -3.6152 C   0  0  0  0  0  0  0  0  0  0  0  0
   -2.4064   -8.8704   -1.6806 C   0  0  0  0  0  0  0  0  0  0  0  0
   -1.7612   -8.7642   -4.3829 C   0  0  0  0  0  0  0  0  0  0  0  0
   -2.8253  -11.2256   -1.8310 O   0  0  0  0  0  0  0  0  0  0  0  0
   -2.0652  -12.4352   -1.9531 C   0  0  0  0  0  0  0  0  0  0  0  0
   -2.9349   -4.1235   -3.8575 C   0  0  0  0  0  0  0  0  0  0  0  0
   -2.3869   -3.5375   -6.1200 O   0  0  0  0  0  0  0  0  0  0  0  0
   -2.4484   -3.1736   -4.9429 C   0  0  0  0  0  0  0  0  0  0  0  0
   -2.0587   -1.9561   -4.5806 N   0  0  0  0  0  0  0  0  0  0  0  0
   -1.9283   -0.9830   -5.5754 O   0  0  0  0  0  0  0  0  0  0  0  0
   -3.9242   -6.2460   -4.8839 C   0  0  0  0  0  0  0  0  0  0  0  0
   -4.6623   -6.1695   -6.2191 C   0  0  0  0  0  0  0  0  0  0  0  0
   -5.9571   -6.7575   -6.1312 O   0  0  0  0  0  0  0  0  0  0  0  0
   -5.8710   -7.6965   -5.9036 H   0  0  0  0  0  0  0  0  0  0  0  0
   -2.7447   -5.9920   -7.6291 O   0  0  0  0  0  0  0  0  0  0  0  0
   -3.8431   -6.8501   -7.3049 C   0  0  0  0  0  0  0  0  0  0  0  0
   -2.2052   -6.4048   -8.3215 H   0  0  0  0  0  0  0  0  0  0  0  0
  1 13  1  0  0  0
  1 18  1  0  0  0
  1  4  1  0  0  0
  5  6  2  0  0  0
  5 10  1  0  0  0
 16 15  1  0  0  0
 16 17  2  0  0  0
  6 11  1  0  0  0
  6  9  1  0  0  0
  7  8  1  0  0  0
  7  9  2  0  0  0
 19 18  1  0  0  0
 19 20  1  0  0  0
 19 23  1  0  0  0
  2  4  2  0  0  0
  3  4  2  0  0  0
 11 12  1  0  0  0
 22 23  1  0  0  0
 14 15  2  0  0  0
 15 13  1  0  0  0
  4  8  1  0  0  0
  8 10  2  0  0  0
 22 24  1  0  0  0
 20 21  1  0  0  0
M  END
> <minimizedAffinity>
-6.09027

$$$$
3F15_HS1_A_0


 24 24  0  0  0  0  0  0  0  0999 V2000
   -3.3241   -5.4435   -4.6673 N   0  0  0  0  0  0  0  0  0  0  0  0
   -1.6910   -6.0844   -6.5436 O   0  0  0  0  0  0  0  0  0  0  0  0
   -2.7186   -3.9572   -6.6260 O   0  0  0  0  0  0  0  0  0  0  0  0
   -2.8832   -5.3314   -6.2357 S   0  0  0  0  0  0  0  0  0  0  0  0
   -4.9590   -6.6761   -9.2895 C   0  0  0  0  0  0  0  0  0  0  0  0
   -6.1564   -7.0598   -8.6776 C   0  0  0  0  0  0  0  0  0  0  0  0
   -5.2665   -6.3665   -6.5094 C   0  0  0  0  0  0  0  0  0  0  0  0
   -4.0621   -5.9884   -7.1123 C   0  0  0  0  0  0  0  0  0  0  0  0
   -6.3026   -6.9010   -7.2873 C   0  0  0  0  0  0  0  0  0  0  0  0
   -3.9221   -6.1416   -8.5066 C   0  0  0  0  0  0  0  0  0  0  0  0
   -7.2159   -7.5771   -9.3977 O   0  0  0  0  0  0  0  0  0  0  0  0
   -8.3355   -8.2128   -8.7668 C   0  0  0  0  0  0  0  0  0  0  0  0
   -3.8919   -4.2241   -4.0677 C   0  0  0  0  0  0  0  0  0  0  0  0
   -2.6963   -4.2015   -1.9862 O   0  0  0  0  0  0  0  0  0  0  0  0
   -2.7178   -3.8580   -3.1709 C   0  0  0  0  0  0  0  0  0  0  0  0
   -1.7364   -3.1285   -3.6908 N   0  0  0  0  0  0  0  0  0  0  0  0
   -1.9698   -1.7670   -3.9043 O   0  0  0  0  0  0  0  0  0  0  0  0
   -2.5099   -6.3610   -3.8218 C   0  0  0  0  0  0  0  0  0  0  0  0
   -2.8141   -7.8549   -3.7258 C   0  0  0  0  0  0  0  0  0  0  0  0
   -2.9811   -8.2650   -2.3716 O   0  0  0  0  0  0  0  0  0  0  0  0
   -2.1587   -8.1069   -1.8821 H   0  0  0  0  0  0  0  0  0  0  0  0
   -0.6261   -7.7567   -4.6745 O   0  0  0  0  0  0  0  0  0  0  0  0
   -1.7032   -8.6545   -4.3892 C   0  0  0  0  0  0  0  0  0  0  0  0
    0.0972   -8.2439   -5.0992 H   0  0  0  0  0  0  0  0  0  0  0  0
  1 13  1  0  0  0
  1 18  1  0  0  0
  1  4  1  0  0  0
  5  6  2  0  0  0
  5 10  1  0  0  0
 16 15  1  0  0  0
 16 17  2  0  0  0
  6 11  1  0  0  0
  6  9  1  0  0  0
  7  8  1  0  0  0
  7  9  2  0  0  0
 19 18  1  0  0  0
 19 20  1  0  0  0
 19 23  1  0  0  0
  2  4  2  0  0  0
  3  4  2  0  0  0
 11 12  1  0  0  0
 22 23  1  0  0  0
 14 15  2  0  0  0
 15 13  1  0  0  0
  4  8  1  0  0  0
  8 10  2  0  0  0
 22 24  1  0  0  0
 20 21  1  0  0  0
M  END
> <minimizedAffinity>
-6.03927

$$$$
3F15_HS1_A_0


 24 24  0  0  0  0  0  0  0  0999 V2000
   -2.7790   -6.2070   -5.3968 N   0  0  0  0  0  0  0  0  0  0  0  0
   -2.4893   -3.8751   -6.4346 O   0  0  0  0  0  0  0  0  0  0  0  0
   -0.6086   -5.3040   -6.3384 O   0  0  0  0  0  0  0  0  0  0  0  0
   -1.8258   -4.9118   -5.6807 S   0  0  0  0  0  0  0  0  0  0  0  0
   -2.1086   -2.9019   -2.3155 C   0  0  0  0  0  0  0  0  0  0  0  0
   -0.8207   -3.0398   -1.7883 C   0  0  0  0  0  0  0  0  0  0  0  0
   -0.1765   -4.3867   -3.7235 C   0  0  0  0  0  0  0  0  0  0  0  0
   -1.4650   -4.2612   -4.2535 C   0  0  0  0  0  0  0  0  0  0  0  0
    0.1398   -3.7830   -2.4988 C   0  0  0  0  0  0  0  0  0  0  0  0
   -2.4225   -3.5093   -3.5429 C   0  0  0  0  0  0  0  0  0  0  0  0
   -0.4499   -2.4530   -0.5939 O   0  0  0  0  0  0  0  0  0  0  0  0
    0.5867   -2.9922    0.2371 C   0  0  0  0  0  0  0  0  0  0  0  0
   -2.0879   -7.5010   -5.2672 C   0  0  0  0  0  0  0  0  0  0  0  0
   -2.4365   -7.0256   -2.9402 O   0  0  0  0  0  0  0  0  0  0  0  0
   -2.5398   -7.8463   -3.8553 C   0  0  0  0  0  0  0  0  0  0  0  0
   -3.0141   -9.0671   -3.6307 N   0  0  0  0  0  0  0  0  0  0  0  0
   -2.3869  -10.1440   -4.2634 O   0  0  0  0  0  0  0  0  0  0  0  0
   -4.1397   -6.1643   -6.0020 C   0  0  0  0  0  0  0  0  0  0  0  0
   -4.3933   -6.5774   -7.4507 C   0  0  0  0  0  0  0  0  0  0  0  0
   -3.9705   -5.5660   -8.3608 O   0  0  0  0  0  0  0  0  0  0  0  0
   -4.4770   -4.7545   -8.2003 H   0  0  0  0  0  0  0  0  0  0  0  0
   -6.5146   -6.7921   -6.3778 O   0  0  0  0  0  0  0  0  0  0  0  0
   -5.8686   -6.8886   -7.6511 C   0  0  0  0  0  0  0  0  0  0  0  0
   -7.4595   -6.9867   -6.4790 H   0  0  0  0  0  0  0  0  0  0  0  0
  1 13  1  0  0  0
  1 18  1  0  0  0
  1  4  1  0  0  0
  5  6  2  0  0  0
  5 10  1  0  0  0
 16 15  1  0  0  0
 16 17  2  0  0  0
  6 11  1  0  0  0
  6  9  1  0  0  0
  7  8  1  0  0  0
  7  9  2  0  0  0
 19 18  1  0  0  0
 19 20  1  0  0  0
 19 23  1  0  0  0
  2  4  2  0  0  0
  3  4  2  0  0  0
 11 12  1  0  0  0
 22 23  1  0  0  0
 14 15  2  0  0  0
 15 13  1  0  0  0
  4  8  1  0  0  0
  8 10  2  0  0  0
 22 24  1  0  0  0
 20 21  1  0  0  0
M  END
> <minimizedAffinity>
-5.73693

$$$$
3F15_HS1_A_0


 24 24  0  0  0  0  0  0  0  0999 V2000
   -2.7195   -5.6508   -4.3390 N   0  0  0  0  0  0  0  0  0  0  0  0
   -1.8870   -4.2851   -6.3491 O   0  0  0  0  0  0  0  0  0  0  0  0
   -0.3598   -5.7202   -5.2553 O   0  0  0  0  0  0  0  0  0  0  0  0
   -1.4996   -4.8604   -5.0833 S   0  0  0  0  0  0  0  0  0  0  0  0
   -1.4519   -1.3209   -3.3766 C   0  0  0  0  0  0  0  0  0  0  0  0
   -0.3217   -1.4108   -2.5580 C   0  0  0  0  0  0  0  0  0  0  0  0
    0.0483   -3.7013   -3.3263 C   0  0  0  0  0  0  0  0  0  0  0  0
   -1.0861   -3.6228   -4.1412 C   0  0  0  0  0  0  0  0  0  0  0  0
    0.4234   -2.6041   -2.5391 C   0  0  0  0  0  0  0  0  0  0  0  0
   -1.8257   -2.4230   -4.1636 C   0  0  0  0  0  0  0  0  0  0  0  0
    0.1027   -0.3553   -1.7741 O   0  0  0  0  0  0  0  0  0  0  0  0
    1.4889   -0.1085   -1.5038 C   0  0  0  0  0  0  0  0  0  0  0  0
   -4.0794   -5.3104   -4.7901 C   0  0  0  0  0  0  0  0  0  0  0  0
   -3.6926   -7.4813   -5.7390 O   0  0  0  0  0  0  0  0  0  0  0  0
   -4.2210   -6.3743   -5.8696 C   0  0  0  0  0  0  0  0  0  0  0  0
   -4.8984   -6.0637   -6.9697 N   0  0  0  0  0  0  0  0  0  0  0  0
   -6.1352   -6.6804   -7.1778 O   0  0  0  0  0  0  0  0  0  0  0  0
   -2.4930   -6.0087   -2.9106 C   0  0  0  0  0  0  0  0  0  0  0  0
   -1.7153   -7.2592   -2.5042 C   0  0  0  0  0  0  0  0  0  0  0  0
   -0.3097   -7.0574   -2.6209 O   0  0  0  0  0  0  0  0  0  0  0  0
   -0.0861   -6.8673   -3.5455 H   0  0  0  0  0  0  0  0  0  0  0  0
   -1.3143   -8.4865   -4.5116 O   0  0  0  0  0  0  0  0  0  0  0  0
   -2.1539   -8.4421   -3.3536 C   0  0  0  0  0  0  0  0  0  0  0  0
   -1.5747   -9.2347   -5.0713 H   0  0  0  0  0  0  0  0  0  0  0  0
  1 13  1  0  0  0
  1 18  1  0  0  0
  1  4  1  0  0  0
  5  6  2  0  0  0
  5 10  1  0  0  0
 16 15  1  0  0  0
 16 17  2  0  0  0
  6 11  1  0  0  0
  6  9  1  0  0  0
  7  8  1  0  0  0
  7  9  2  0  0  0
 19 18  1  0  0  0
 19 20  1  0  0  0
 19 23  1  0  0  0
  2  4  2  0  0  0
  3  4  2  0  0  0
 11 12  1  0  0  0
 22 23  1  0  0  0
 14 15  2  0  0  0
 15 13  1  0  0  0
  4  8  1  0  0  0
  8 10  2  0  0  0
 22 24  1  0  0  0
 20 21  1  0  0  0
M  END
> <minimizedAffinity>
-5.60427

$$$$
