3WVM_STE_A_200
  RCSB PDB12061711253D
Coordinates from PDB:3WVM:A:200 Model:1 without hydrogens
 20 19  0  0  0  0            999 V2000
    5.8020  -16.5780   -1.5630   C 0  0  0  0  0  0  0  0  0  0  0  0
    6.8590  -15.9210   -1.4970   O 0  0  0  0  0  0  0  0  0  0  0  0
    4.7810  -16.3510   -0.8460   O 0  0  0  0  0  0  0  0  0  0  0  0
    5.6830  -17.6950   -2.5740   C 0  0  0  0  0  0  0  0  0  0  0  0
    6.9570  -18.0980   -3.2800   C 0  0  0  0  0  0  0  0  0  0  0  0
    6.7950  -19.2040   -4.2910   C 0  0  0  0  0  0  0  0  0  0  0  0
    8.1130  -19.6940   -4.8260   C 0  0  0  0  0  0  0  0  0  0  0  0
    8.0210  -20.6320   -6.0410   C 0  0  0  0  0  0  0  0  0  0  0  0
    7.1100  -21.8260   -5.8630   C 0  0  0  0  0  0  0  0  0  0  0  0
    7.5580  -22.8080   -4.7830   C 0  0  0  0  0  0  0  0  0  0  0  0
    6.5040  -23.8460   -4.5350   C 0  0  0  0  0  0  0  0  0  0  0  0
    6.8610  -25.0090   -3.6460   C 0  0  0  0  0  0  0  0  0  0  0  0
    7.4210  -24.6230   -2.3470   C 0  0  0  0  0  0  0  0  0  0  0  0
    6.6000  -23.5870   -1.5450   C 0  0  0  0  0  0  0  0  0  0  0  0
    7.0560  -23.4450   -0.1130   C 0  0  0  0  0  0  0  0  0  0  0  0
    6.3870  -22.3600    0.6600   C 0  0  0  0  0  0  0  0  0  0  0  0
    6.5790  -20.9580    0.1070   C 0  0  0  0  0  0  0  0  0  0  0  0
    8.0420  -20.5480   -0.1650   C 0  0  0  0  0  0  0  0  0  0  0  0
    8.9420  -20.5470    1.1090   C 0  0  0  0  0  0  0  0  0  0  0  0
   10.3910  -20.2580    0.7490   C 0  0  0  0  0  0  0  0  0  0  0  0
  1  2  2  0  0  0  0
  1  3  1  0  0  0  0
  1  4  1  0  0  0  0
  4  5  1  0  0  0  0
  5  6  1  0  0  0  0
  6  7  1  0  0  0  0
  7  8  1  0  0  0  0
  8  9  1  0  0  0  0
  9 10  1  0  0  0  0
 10 11  1  0  0  0  0
 11 12  1  0  0  0  0
 12 13  1  0  0  0  0
 13 14  1  0  0  0  0
 14 15  1  0  0  0  0
 15 16  1  0  0  0  0
 16 17  1  0  0  0  0
 17 18  1  0  0  0  0
 18 19  1  0  0  0  0
 19 20  1  0  0  0  0
A    1
C1
A    2
O1
A    3
O2
A    4
C2
A    5
C3
A    6
C4
A    7
C5
A    8
C6
A    9
C7
A   10
C8
A   11
C9
A   12
C10
A   13
C11
A   14
C12
A   15
C13
A   16
C14
A   17
C15
A   18
C16
A   19
C17
A   20
C18
M  END
>  <InstanceId>
3WVM_STE_A_200

>  <ChemCompId>
STE

>  <PdbId>
3WVM

>  <ChainId>
A

>  <ResidueNumber>
200

>  <InsertionCode>


>  <Model>
1

>  <AltIds>


>  <MissingHeavyAtoms>
0

>  <ObservedFormula>
C18 O2

>  <Name>
STEARIC ACID

>  <SystematicName>
octadecanoic acid

>  <Synonyms>


>  <Type>
NON-POLYMER

>  <Formula>
C18 H36 O2

>  <MolecularWeight>
284.477

>  <ModifiedDate>
2011-06-04

>  <Parent>


>  <OneLetterCode>


>  <SubcomponentList>


>  <AmbiguousFlag>
N

>  <InChI>
InChI=1S/C18H36O2/c1-2-3-4-5-6-7-8-9-10-11-12-13-14-15-16-17-18(19)20/h2-17H2,1H3,(H,19,20)

>  <InChIKey>
QIQXTHQIDYTFRH-UHFFFAOYSA-N

>  <SMILES>
CCCCCCCCCCCCCCCCCC(=O)O

$$$$
