3WVM_STE_A_200


 21 20  0  0  0  0  0  0  0  0999 V2000
    6.3663  -23.5623   -5.8349 C   0  0  0  0  0  0  0  0  0  0  0  0
    6.2944  -23.8160   -4.3583 C   0  0  0  0  0  0  0  0  0  0  0  0
    6.7360  -25.1664   -3.8567 C   0  0  0  0  0  0  0  0  0  0  0  0
    8.1586  -25.2431   -3.5099 C   0  0  0  0  0  0  0  0  0  0  0  0
    8.4912  -25.0865   -2.0081 C   0  0  0  0  0  0  0  0  0  0  0  0
    7.2655  -25.0366   -1.1285 C   0  0  0  0  0  0  0  0  0  0  0  0
    7.1768  -23.8483   -0.2327 C   0  0  0  0  0  0  0  0  0  0  0  0
    6.7139  -22.5656   -0.9025 C   0  0  0  0  0  0  0  0  0  0  0  0
    7.6736  -21.3642   -0.7672 C   0  0  0  0  0  0  0  0  0  0  0  0
    8.5570  -21.4067    0.5177 C   0  0  0  0  0  0  0  0  0  0  0  0
    9.9209  -20.7859    0.2586 C   0  0  0  0  0  0  0  0  0  0  0  0
    7.1129  -22.2628   -6.1272 C   0  0  0  0  0  0  0  0  0  0  0  0
    8.0110  -21.7904   -5.0058 C   0  0  0  0  0  0  0  0  0  0  0  0
    7.5718  -20.4841   -4.3237 C   0  0  0  0  0  0  0  0  0  0  0  0
    6.4088  -19.7813   -4.9696 C   0  0  0  0  0  0  0  0  0  0  0  0
    6.8310  -18.5626   -5.7495 C   0  0  0  0  0  0  0  0  0  0  0  0
    8.3150  -18.4669   -6.0187 C   0  0  0  0  0  0  0  0  0  0  0  0
    8.7713  -18.8620   -7.4042 C   0  0  0  0  0  0  0  0  0  0  0  0
    9.9903  -18.8971   -7.6614 O   0  0  0  0  0  0  0  0  0  0  0  0
    7.8633  -19.1721   -8.2333 O   0  0  0  0  0  0  0  0  0  0  0  0
    6.9622  -19.1255   -7.9806 H   0  0  0  0  0  0  0  0  0  0  0  0
 18 19  2  0  0  0
 18 20  1  0  0  0
 18 17  1  0  0  0
 17 16  1  0  0  0
 16 15  1  0  0  0
 15 14  1  0  0  0
 14 13  1  0  0  0
 13 12  1  0  0  0
 12  1  1  0  0  0
  1  2  1  0  0  0
  2  3  1  0  0  0
  3  4  1  0  0  0
  4  5  1  0  0  0
  5  6  1  0  0  0
  6  7  1  0  0  0
  7  8  1  0  0  0
  8  9  1  0  0  0
  9 10  1  0  0  0
 10 11  1  0  0  0
 20 21  1  0  0  0
M  END
> <minimizedAffinity>
-6.15759

$$$$
3WVM_STE_A_200


 21 20  0  0  0  0  0  0  0  0999 V2000
    6.3983  -23.4353   -2.6767 C   0  0  0  0  0  0  0  0  0  0  0  0
    7.4914  -22.4129   -2.5788 C   0  0  0  0  0  0  0  0  0  0  0  0
    7.0902  -20.9755   -2.3712 C   0  0  0  0  0  0  0  0  0  0  0  0
    8.2182  -20.0424   -2.2884 C   0  0  0  0  0  0  0  0  0  0  0  0
    8.9354  -19.9785   -0.9201 C   0  0  0  0  0  0  0  0  0  0  0  0
    7.9882  -20.0517    0.2530 C   0  0  0  0  0  0  0  0  0  0  0  0
    8.5873  -20.5602    1.5198 C   0  0  0  0  0  0  0  0  0  0  0  0
    8.2546  -22.0030    1.8601 C   0  0  0  0  0  0  0  0  0  0  0  0
    7.2760  -22.7027    0.8929 C   0  0  0  0  0  0  0  0  0  0  0  0
    5.8528  -22.9261    1.4910 C   0  0  0  0  0  0  0  0  0  0  0  0
    4.9071  -21.8118    1.0708 C   0  0  0  0  0  0  0  0  0  0  0  0
    6.5397  -24.2613   -3.9531 C   0  0  0  0  0  0  0  0  0  0  0  0
    7.0854  -23.4956   -5.1377 C   0  0  0  0  0  0  0  0  0  0  0  0
    6.0529  -22.6477   -5.8989 C   0  0  0  0  0  0  0  0  0  0  0  0
    6.2961  -21.1632   -5.8736 C   0  0  0  0  0  0  0  0  0  0  0  0
    7.4199  -20.7462   -6.7873 C   0  0  0  0  0  0  0  0  0  0  0  0
    8.0579  -19.4208   -6.4407 C   0  0  0  0  0  0  0  0  0  0  0  0
    8.8907  -18.7747   -7.5237 C   0  0  0  0  0  0  0  0  0  0  0  0
   10.0502  -18.3990   -7.2634 O   0  0  0  0  0  0  0  0  0  0  0  0
    8.3560  -18.6801   -8.6697 O   0  0  0  0  0  0  0  0  0  0  0  0
    7.4788  -18.9808   -8.8036 H   0  0  0  0  0  0  0  0  0  0  0  0
 18 19  2  0  0  0
 18 20  1  0  0  0
 18 17  1  0  0  0
 17 16  1  0  0  0
 16 15  1  0  0  0
 15 14  1  0  0  0
 14 13  1  0  0  0
 13 12  1  0  0  0
 12  1  1  0  0  0
  1  2  1  0  0  0
  2  3  1  0  0  0
  3  4  1  0  0  0
  4  5  1  0  0  0
  5  6  1  0  0  0
  6  7  1  0  0  0
  7  8  1  0  0  0
  8  9  1  0  0  0
  9 10  1  0  0  0
 10 11  1  0  0  0
 20 21  1  0  0  0
M  END
> <minimizedAffinity>
-6.07883

$$$$
3WVM_STE_A_200


 21 20  0  0  0  0  0  0  0  0999 V2000
    7.6814  -21.2004    1.8302 C   0  0  0  0  0  0  0  0  0  0  0  0
    7.7138  -22.6548    1.4648 C   0  0  0  0  0  0  0  0  0  0  0  0
    6.5294  -23.2176    0.7226 C   0  0  0  0  0  0  0  0  0  0  0  0
    6.7864  -23.5013   -0.6928 C   0  0  0  0  0  0  0  0  0  0  0  0
    8.1561  -24.1452   -1.0088 C   0  0  0  0  0  0  0  0  0  0  0  0
    8.2137  -24.7822   -2.3762 C   0  0  0  0  0  0  0  0  0  0  0  0
    7.0972  -24.4154   -3.2933 C   0  0  0  0  0  0  0  0  0  0  0  0
    7.4880  -23.5384   -4.4708 C   0  0  0  0  0  0  0  0  0  0  0  0
    6.4680  -23.4907   -5.6283 C   0  0  0  0  0  0  0  0  0  0  0  0
    5.7874  -22.0989   -5.8096 C   0  0  0  0  0  0  0  0  0  0  0  0
    6.6005  -21.0056   -5.1343 C   0  0  0  0  0  0  0  0  0  0  0  0
    8.9803  -20.5089    1.4228 C   0  0  0  0  0  0  0  0  0  0  0  0
    9.4495  -20.8320    0.0219 C   0  0  0  0  0  0  0  0  0  0  0  0
    9.0133  -19.8301   -1.0601 C   0  0  0  0  0  0  0  0  0  0  0  0
    7.6945  -20.1297   -1.7194 C   0  0  0  0  0  0  0  0  0  0  0  0
    6.5547  -19.3541   -1.1104 C   0  0  0  0  0  0  0  0  0  0  0  0
    6.0575  -18.1985   -1.9478 C   0  0  0  0  0  0  0  0  0  0  0  0
    5.9755  -16.8570   -1.2567 C   0  0  0  0  0  0  0  0  0  0  0  0
    7.0196  -16.3140   -0.8465 O   0  0  0  0  0  0  0  0  0  0  0  0
    4.8226  -16.3376   -1.1618 O   0  0  0  0  0  0  0  0  0  0  0  0
    4.0739  -16.7957   -1.4896 H   0  0  0  0  0  0  0  0  0  0  0  0
 18 19  2  0  0  0
 18 20  1  0  0  0
 18 17  1  0  0  0
 17 16  1  0  0  0
 16 15  1  0  0  0
 15 14  1  0  0  0
 14 13  1  0  0  0
 13 12  1  0  0  0
 12  1  1  0  0  0
  1  2  1  0  0  0
  2  3  1  0  0  0
  3  4  1  0  0  0
  4  5  1  0  0  0
  5  6  1  0  0  0
  6  7  1  0  0  0
  7  8  1  0  0  0
  8  9  1  0  0  0
  9 10  1  0  0  0
 10 11  1  0  0  0
 20 21  1  0  0  0
M  END
> <minimizedAffinity>
-6.07438

$$$$
3WVM_STE_A_200


 21 20  0  0  0  0  0  0  0  0999 V2000
    6.6840  -25.0822   -3.8032 C   0  0  0  0  0  0  0  0  0  0  0  0
    6.5654  -24.1134   -4.9421 C   0  0  0  0  0  0  0  0  0  0  0  0
    6.2935  -22.6694   -4.6085 C   0  0  0  0  0  0  0  0  0  0  0  0
    6.0324  -21.8216   -5.7760 C   0  0  0  0  0  0  0  0  0  0  0  0
    7.0476  -20.6803   -6.0154 C   0  0  0  0  0  0  0  0  0  0  0  0
    6.4757  -19.3087   -5.7498 C   0  0  0  0  0  0  0  0  0  0  0  0
    7.2796  -18.4547   -4.8296 C   0  0  0  0  0  0  0  0  0  0  0  0
    7.8732  -19.1750   -3.6308 C   0  0  0  0  0  0  0  0  0  0  0  0
    6.8555  -19.6436   -2.5691 C   0  0  0  0  0  0  0  0  0  0  0  0
    6.0867  -18.4763   -1.8767 C   0  0  0  0  0  0  0  0  0  0  0  0
    6.6317  -18.2213   -0.4800 C   0  0  0  0  0  0  0  0  0  0  0  0
    8.1492  -25.3796   -3.4931 C   0  0  0  0  0  0  0  0  0  0  0  0
    8.4750  -25.4529   -2.0180 C   0  0  0  0  0  0  0  0  0  0  0  0
    7.4789  -24.7346   -1.0928 C   0  0  0  0  0  0  0  0  0  0  0  0
    7.7957  -23.2927   -0.8029 C   0  0  0  0  0  0  0  0  0  0  0  0
    6.5755  -22.5011   -0.4078 C   0  0  0  0  0  0  0  0  0  0  0  0
    6.6739  -21.8160    0.9357 C   0  0  0  0  0  0  0  0  0  0  0  0
    7.8847  -22.1557    1.7738 C   0  0  0  0  0  0  0  0  0  0  0  0
    7.9207  -23.2397    2.3877 O   0  0  0  0  0  0  0  0  0  0  0  0
    8.8284  -21.3087    1.7762 O   0  0  0  0  0  0  0  0  0  0  0  0
    8.7422  -20.5098    1.2941 H   0  0  0  0  0  0  0  0  0  0  0  0
 18 19  2  0  0  0
 18 20  1  0  0  0
 18 17  1  0  0  0
 17 16  1  0  0  0
 16 15  1  0  0  0
 15 14  1  0  0  0
 14 13  1  0  0  0
 13 12  1  0  0  0
 12  1  1  0  0  0
  1  2  1  0  0  0
  2  3  1  0  0  0
  3  4  1  0  0  0
  4  5  1  0  0  0
  5  6  1  0  0  0
  6  7  1  0  0  0
  7  8  1  0  0  0
  8  9  1  0  0  0
  9 10  1  0  0  0
 10 11  1  0  0  0
 20 21  1  0  0  0
M  END
> <minimizedAffinity>
-6.04288

$$$$
3WVM_STE_A_200


 21 20  0  0  0  0  0  0  0  0999 V2000
    6.4851  -22.2524   -4.6702 C   0  0  0  0  0  0  0  0  0  0  0  0
    6.9672  -23.6225   -5.0447 C   0  0  0  0  0  0  0  0  0  0  0  0
    6.8063  -24.7241   -4.0293 C   0  0  0  0  0  0  0  0  0  0  0  0
    8.0631  -25.1640   -3.4154 C   0  0  0  0  0  0  0  0  0  0  0  0
    8.2360  -24.8141   -1.9193 C   0  0  0  0  0  0  0  0  0  0  0  0
    6.9246  -24.6706   -1.1855 C   0  0  0  0  0  0  0  0  0  0  0  0
    6.7176  -23.3583   -0.5093 C   0  0  0  0  0  0  0  0  0  0  0  0
    7.9051  -22.8465    0.2884 C   0  0  0  0  0  0  0  0  0  0  0  0
    7.5578  -21.9138    1.4682 C   0  0  0  0  0  0  0  0  0  0  0  0
    8.4618  -20.6455    1.5543 C   0  0  0  0  0  0  0  0  0  0  0  0
    9.5133  -20.6536    0.4556 C   0  0  0  0  0  0  0  0  0  0  0  0
    7.6476  -21.3726   -4.2163 C   0  0  0  0  0  0  0  0  0  0  0  0
    7.5197  -20.8446   -2.8049 C   0  0  0  0  0  0  0  0  0  0  0  0
    6.7896  -19.4974   -2.6754 C   0  0  0  0  0  0  0  0  0  0  0  0
    6.3191  -19.1521   -1.2887 C   0  0  0  0  0  0  0  0  0  0  0  0
    6.9143  -17.8639   -0.7807 C   0  0  0  0  0  0  0  0  0  0  0  0
    6.6847  -16.6660   -1.6731 C   0  0  0  0  0  0  0  0  0  0  0  0
    7.5451  -15.4536   -1.4013 C   0  0  0  0  0  0  0  0  0  0  0  0
    7.1257  -14.5633   -0.6367 O   0  0  0  0  0  0  0  0  0  0  0  0
    8.6842  -15.4305   -1.9580 O   0  0  0  0  0  0  0  0  0  0  0  0
    8.9434  -16.1307   -2.5240 H   0  0  0  0  0  0  0  0  0  0  0  0
 18 19  2  0  0  0
 18 20  1  0  0  0
 18 17  1  0  0  0
 17 16  1  0  0  0
 16 15  1  0  0  0
 15 14  1  0  0  0
 14 13  1  0  0  0
 13 12  1  0  0  0
 12  1  1  0  0  0
  1  2  1  0  0  0
  2  3  1  0  0  0
  3  4  1  0  0  0
  4  5  1  0  0  0
  5  6  1  0  0  0
  6  7  1  0  0  0
  7  8  1  0  0  0
  8  9  1  0  0  0
  9 10  1  0  0  0
 10 11  1  0  0  0
 20 21  1  0  0  0
M  END
> <minimizedAffinity>
-6.03912

$$$$
3WVM_STE_A_200


 21 20  0  0  0  0  0  0  0  0999 V2000
    5.9269  -22.7132    0.2625 C   0  0  0  0  0  0  0  0  0  0  0  0
    6.5829  -23.0996   -1.0299 C   0  0  0  0  0  0  0  0  0  0  0  0
    7.0680  -24.5190   -1.1728 C   0  0  0  0  0  0  0  0  0  0  0  0
    8.2630  -24.6645   -2.0100 C   0  0  0  0  0  0  0  0  0  0  0  0
    8.0580  -25.4175   -3.3447 C   0  0  0  0  0  0  0  0  0  0  0  0
    6.7223  -25.1353   -3.9890 C   0  0  0  0  0  0  0  0  0  0  0  0
    6.7459  -24.1131   -5.0738 C   0  0  0  0  0  0  0  0  0  0  0  0
    6.1344  -22.7703   -4.7117 C   0  0  0  0  0  0  0  0  0  0  0  0
    7.1421  -21.6235   -4.4842 C   0  0  0  0  0  0  0  0  0  0  0  0
    7.1584  -20.5644   -5.6293 C   0  0  0  0  0  0  0  0  0  0  0  0
    6.2956  -19.3646   -5.2705 C   0  0  0  0  0  0  0  0  0  0  0  0
    6.9237  -22.7753    1.4175 C   0  0  0  0  0  0  0  0  0  0  0  0
    8.1723  -21.9469    1.2127 C   0  0  0  0  0  0  0  0  0  0  0  0
    7.9261  -20.4801    0.8223 C   0  0  0  0  0  0  0  0  0  0  0  0
    8.7581  -19.9714   -0.3233 C   0  0  0  0  0  0  0  0  0  0  0  0
    7.9292  -19.6445   -1.5389 C   0  0  0  0  0  0  0  0  0  0  0  0
    6.4736  -19.3558   -1.2528 C   0  0  0  0  0  0  0  0  0  0  0  0
    6.0679  -17.9000   -1.2478 C   0  0  0  0  0  0  0  0  0  0  0  0
    6.0223  -17.2801   -0.1675 O   0  0  0  0  0  0  0  0  0  0  0  0
    5.8225  -17.3758   -2.3761 O   0  0  0  0  0  0  0  0  0  0  0  0
    5.8734  -17.8946   -3.1547 H   0  0  0  0  0  0  0  0  0  0  0  0
 18 19  2  0  0  0
 18 20  1  0  0  0
 18 17  1  0  0  0
 17 16  1  0  0  0
 16 15  1  0  0  0
 15 14  1  0  0  0
 14 13  1  0  0  0
 13 12  1  0  0  0
 12  1  1  0  0  0
  1  2  1  0  0  0
  2  3  1  0  0  0
  3  4  1  0  0  0
  4  5  1  0  0  0
  5  6  1  0  0  0
  6  7  1  0  0  0
  7  8  1  0  0  0
  8  9  1  0  0  0
  9 10  1  0  0  0
 10 11  1  0  0  0
 20 21  1  0  0  0
M  END
> <minimizedAffinity>
-6.01640

$$$$
3WVM_STE_A_200


 21 20  0  0  0  0  0  0  0  0999 V2000
    7.6187  -19.8754   -0.2822 C   0  0  0  0  0  0  0  0  0  0  0  0
    8.6262  -20.3730    0.7114 C   0  0  0  0  0  0  0  0  0  0  0  0
    8.3578  -21.6970    1.3787 C   0  0  0  0  0  0  0  0  0  0  0  0
    6.9503  -21.9227    1.7221 C   0  0  0  0  0  0  0  0  0  0  0  0
    6.2331  -23.0294    0.9149 C   0  0  0  0  0  0  0  0  0  0  0  0
    7.1855  -23.9730    0.2212 C   0  0  0  0  0  0  0  0  0  0  0  0
    7.0751  -24.0049   -1.2651 C   0  0  0  0  0  0  0  0  0  0  0  0
    8.2690  -24.6022   -1.9904 C   0  0  0  0  0  0  0  0  0  0  0  0
    7.9969  -25.0784   -3.4333 C   0  0  0  0  0  0  0  0  0  0  0  0
    6.5929  -24.6694   -3.9762 C   0  0  0  0  0  0  0  0  0  0  0  0
    6.7241  -23.7622   -5.1897 C   0  0  0  0  0  0  0  0  0  0  0  0
    8.2082  -19.8560   -1.6905 C   0  0  0  0  0  0  0  0  0  0  0  0
    7.5528  -20.8166   -2.6574 C   0  0  0  0  0  0  0  0  0  0  0  0
    6.8517  -20.1586   -3.8574 C   0  0  0  0  0  0  0  0  0  0  0  0
    7.3807  -18.8054   -4.2480 C   0  0  0  0  0  0  0  0  0  0  0  0
    6.3146  -17.7403   -4.2273 C   0  0  0  0  0  0  0  0  0  0  0  0
    5.4503  -17.7347   -2.9875 C   0  0  0  0  0  0  0  0  0  0  0  0
    5.9212  -16.8627   -1.8466 C   0  0  0  0  0  0  0  0  0  0  0  0
    7.0301  -16.2989   -1.9232 O   0  0  0  0  0  0  0  0  0  0  0  0
    5.1249  -16.7292   -0.8688 O   0  0  0  0  0  0  0  0  0  0  0  0
    4.3034  -17.1800   -0.8687 H   0  0  0  0  0  0  0  0  0  0  0  0
 18 19  2  0  0  0
 18 20  1  0  0  0
 18 17  1  0  0  0
 17 16  1  0  0  0
 16 15  1  0  0  0
 15 14  1  0  0  0
 14 13  1  0  0  0
 13 12  1  0  0  0
 12  1  1  0  0  0
  1  2  1  0  0  0
  2  3  1  0  0  0
  3  4  1  0  0  0
  4  5  1  0  0  0
  5  6  1  0  0  0
  6  7  1  0  0  0
  7  8  1  0  0  0
  8  9  1  0  0  0
  9 10  1  0  0  0
 10 11  1  0  0  0
 20 21  1  0  0  0
M  END
> <minimizedAffinity>
-6.00866

$$$$
3WVM_STE_A_200


 21 20  0  0  0  0  0  0  0  0999 V2000
    6.8845  -24.6342   -1.1381 C   0  0  0  0  0  0  0  0  0  0  0  0
    7.3619  -23.7282   -0.0421 C   0  0  0  0  0  0  0  0  0  0  0  0
    6.3214  -23.0735    0.8291 C   0  0  0  0  0  0  0  0  0  0  0  0
    6.8244  -21.9490    1.6244 C   0  0  0  0  0  0  0  0  0  0  0  0
    8.3622  -21.8561    1.7552 C   0  0  0  0  0  0  0  0  0  0  0  0
    8.9182  -20.5235    1.3149 C   0  0  0  0  0  0  0  0  0  0  0  0
    9.6366  -20.5375    0.0088 C   0  0  0  0  0  0  0  0  0  0  0  0
    8.9865  -19.7227   -1.0965 C   0  0  0  0  0  0  0  0  0  0  0  0
    7.7240  -20.3491   -1.7260 C   0  0  0  0  0  0  0  0  0  0  0  0
    6.3911  -19.7015   -1.2390 C   0  0  0  0  0  0  0  0  0  0  0  0
    6.6491  -18.3471   -0.5974 C   0  0  0  0  0  0  0  0  0  0  0  0
    6.4521  -23.8274   -2.3603 C   0  0  0  0  0  0  0  0  0  0  0  0
    6.7049  -24.5125   -3.6847 C   0  0  0  0  0  0  0  0  0  0  0  0
    7.3081  -23.6161   -4.7788 C   0  0  0  0  0  0  0  0  0  0  0  0
    6.3093  -22.8800   -5.6298 C   0  0  0  0  0  0  0  0  0  0  0  0
    6.3926  -21.3852   -5.4560 C   0  0  0  0  0  0  0  0  0  0  0  0
    7.3933  -20.6987   -6.3567 C   0  0  0  0  0  0  0  0  0  0  0  0
    8.7634  -20.4504   -5.7692 C   0  0  0  0  0  0  0  0  0  0  0  0
    8.9114  -19.5536   -4.9165 O   0  0  0  0  0  0  0  0  0  0  0  0
    9.6972  -21.2104   -6.1671 O   0  0  0  0  0  0  0  0  0  0  0  0
    9.5237  -21.8677   -6.8120 H   0  0  0  0  0  0  0  0  0  0  0  0
 18 19  2  0  0  0
 18 20  1  0  0  0
 18 17  1  0  0  0
 17 16  1  0  0  0
 16 15  1  0  0  0
 15 14  1  0  0  0
 14 13  1  0  0  0
 13 12  1  0  0  0
 12  1  1  0  0  0
  1  2  1  0  0  0
  2  3  1  0  0  0
  3  4  1  0  0  0
  4  5  1  0  0  0
  5  6  1  0  0  0
  6  7  1  0  0  0
  7  8  1  0  0  0
  8  9  1  0  0  0
  9 10  1  0  0  0
 10 11  1  0  0  0
 20 21  1  0  0  0
M  END
> <minimizedAffinity>
-6.00013

$$$$
3WVM_STE_A_200


 21 20  0  0  0  0  0  0  0  0999 V2000
    6.6254  -23.9996   -5.1665 C   0  0  0  0  0  0  0  0  0  0  0  0
    6.1674  -22.6145   -4.8180 C   0  0  0  0  0  0  0  0  0  0  0  0
    7.0571  -21.7849   -3.9288 C   0  0  0  0  0  0  0  0  0  0  0  0
    8.0998  -21.0435   -4.6452 C   0  0  0  0  0  0  0  0  0  0  0  0
    7.7349  -20.5898   -6.0775 C   0  0  0  0  0  0  0  0  0  0  0  0
    7.6030  -19.0921   -6.2126 C   0  0  0  0  0  0  0  0  0  0  0  0
    6.3415  -18.5156   -5.6663 C   0  0  0  0  0  0  0  0  0  0  0  0
    6.5088  -17.6429   -4.4340 C   0  0  0  0  0  0  0  0  0  0  0  0
    5.7840  -18.1418   -3.1659 C   0  0  0  0  0  0  0  0  0  0  0  0
    6.6194  -17.9784   -1.8588 C   0  0  0  0  0  0  0  0  0  0  0  0
    8.0428  -18.4748   -2.0595 C   0  0  0  0  0  0  0  0  0  0  0  0
    6.6046  -24.9043   -3.9366 C   0  0  0  0  0  0  0  0  0  0  0  0
    7.9680  -25.3752   -3.4822 C   0  0  0  0  0  0  0  0  0  0  0  0
    8.4006  -24.8788   -2.0926 C   0  0  0  0  0  0  0  0  0  0  0  0
    7.3159  -24.8607   -1.0502 C   0  0  0  0  0  0  0  0  0  0  0  0
    7.0346  -23.4731   -0.5332 C   0  0  0  0  0  0  0  0  0  0  0  0
    7.5374  -23.2059    0.8667 C   0  0  0  0  0  0  0  0  0  0  0  0
    7.8738  -21.7695    1.1947 C   0  0  0  0  0  0  0  0  0  0  0  0
    7.2524  -20.8496    0.6282 O   0  0  0  0  0  0  0  0  0  0  0  0
    8.7697  -21.5832    2.0726 O   0  0  0  0  0  0  0  0  0  0  0  0
    9.2024  -22.3167    2.4634 H   0  0  0  0  0  0  0  0  0  0  0  0
 18 19  2  0  0  0
 18 20  1  0  0  0
 18 17  1  0  0  0
 17 16  1  0  0  0
 16 15  1  0  0  0
 15 14  1  0  0  0
 14 13  1  0  0  0
 13 12  1  0  0  0
 12  1  1  0  0  0
  1  2  1  0  0  0
  2  3  1  0  0  0
  3  4  1  0  0  0
  4  5  1  0  0  0
  5  6  1  0  0  0
  6  7  1  0  0  0
  7  8  1  0  0  0
  8  9  1  0  0  0
  9 10  1  0  0  0
 10 11  1  0  0  0
 20 21  1  0  0  0
M  END
> <minimizedAffinity>
-5.97945

$$$$
3WVM_STE_A_200


 21 20  0  0  0  0  0  0  0  0999 V2000
    8.9149  -20.1357   -1.0096 C   0  0  0  0  0  0  0  0  0  0  0  0
    9.1896  -20.6116    0.3861 C   0  0  0  0  0  0  0  0  0  0  0  0
    8.0075  -20.8697    1.2840 C   0  0  0  0  0  0  0  0  0  0  0  0
    7.8778  -22.2631    1.7215 C   0  0  0  0  0  0  0  0  0  0  0  0
    6.6237  -23.0108    1.2128 C   0  0  0  0  0  0  0  0  0  0  0  0
    6.6095  -23.2002   -0.2847 C   0  0  0  0  0  0  0  0  0  0  0  0
    7.8150  -23.8709   -0.8496 C   0  0  0  0  0  0  0  0  0  0  0  0
    7.5380  -25.1274   -1.6576 C   0  0  0  0  0  0  0  0  0  0  0  0
    8.0957  -25.1257   -3.0968 C   0  0  0  0  0  0  0  0  0  0  0  0
    7.8938  -23.7735   -3.8478 C   0  0  0  0  0  0  0  0  0  0  0  0
    6.4401  -23.5919   -4.2561 C   0  0  0  0  0  0  0  0  0  0  0  0
    7.4596  -19.6983   -1.1580 C   0  0  0  0  0  0  0  0  0  0  0  0
    6.9038  -19.8351   -2.5579 C   0  0  0  0  0  0  0  0  0  0  0  0
    7.9537  -20.0657   -3.6575 C   0  0  0  0  0  0  0  0  0  0  0  0
    7.4050  -20.2007   -5.0518 C   0  0  0  0  0  0  0  0  0  0  0  0
    8.4572  -20.6118   -6.0496 C   0  0  0  0  0  0  0  0  0  0  0  0
    9.7880  -19.9139   -5.8890 C   0  0  0  0  0  0  0  0  0  0  0  0
   10.1092  -18.8421   -6.9049 C   0  0  0  0  0  0  0  0  0  0  0  0
   10.8956  -17.9246   -6.6002 O   0  0  0  0  0  0  0  0  0  0  0  0
    9.5690  -18.9622   -8.0459 O   0  0  0  0  0  0  0  0  0  0  0  0
    8.9848  -19.6751   -8.2150 H   0  0  0  0  0  0  0  0  0  0  0  0
 18 19  2  0  0  0
 18 20  1  0  0  0
 18 17  1  0  0  0
 17 16  1  0  0  0
 16 15  1  0  0  0
 15 14  1  0  0  0
 14 13  1  0  0  0
 13 12  1  0  0  0
 12  1  1  0  0  0
  1  2  1  0  0  0
  2  3  1  0  0  0
  3  4  1  0  0  0
  4  5  1  0  0  0
  5  6  1  0  0  0
  6  7  1  0  0  0
  7  8  1  0  0  0
  8  9  1  0  0  0
  9 10  1  0  0  0
 10 11  1  0  0  0
 20 21  1  0  0  0
M  END
> <minimizedAffinity>
-5.96740

$$$$
