1S19_MC9_A_500


 33 36  0  0  0  0  0  0  0  0999 V2000
   14.3744   22.5127   33.9202 C   0  0  0  0  0  0  0  0  0  0  0  0
   14.1052   23.6613   33.3461 C   0  0  0  0  0  0  0  0  0  0  0  0
   14.3702   23.9625   31.7817 C   0  0  0  0  0  0  0  0  0  0  0  0
   13.0229   24.4073   30.9947 C   0  0  0  0  0  0  0  0  0  0  0  0
   12.1855   25.4684   31.8844 C   0  0  0  0  0  0  0  0  0  0  0  0
   11.9641   25.2019   33.5367 C   0  0  0  0  0  0  0  0  0  0  0  0
   13.4758   24.8667   34.1062 C   0  0  0  0  0  0  0  0  0  0  0  0
   13.1197   24.7058   35.7483 C   0  0  0  0  0  0  0  0  0  0  0  0
   11.9252   25.7483   35.9317 C   0  0  0  0  0  0  0  0  0  0  0  0
   11.7021   26.3776   34.5032 C   0  0  0  0  0  0  0  0  0  0  0  0
   10.9048   23.8437   33.5101 C   0  0  0  0  0  0  0  0  0  0  0  0
   17.0361   18.1376   34.6201 O   0  0  0  0  0  0  0  0  0  0  0  0
   13.0863   17.7913   36.5182 O   0  0  0  0  0  0  0  0  0  0  0  0
   14.1473   18.2513   35.6148 C   0  0  0  0  0  0  0  0  0  0  0  0
   14.7916   17.0706   34.7620 C   0  0  0  0  0  0  0  0  0  0  0  0
   15.9605   17.6057   33.7880 C   0  0  0  0  0  0  0  0  0  0  0  0
   15.4099   18.7515   32.8231 C   0  0  0  0  0  0  0  0  0  0  0  0
   14.6914   19.9283   33.5640 C   0  0  0  0  0  0  0  0  0  0  0  0
   14.9498   21.2726   33.3314 C   0  0  0  0  0  0  0  0  0  0  0  0
   13.6067   19.3735   34.6242 C   0  0  0  0  0  0  0  0  0  0  0  0
   12.2871   19.8147   34.6726 C   0  0  0  0  0  0  0  0  0  0  0  0
   17.3682   17.4387   35.2051 H   0  0  0  0  0  0  0  0  0  0  0  0
   13.4392   17.1092   37.1107 H   0  0  0  0  0  0  0  0  0  0  0  0
   10.1976   27.0663   34.3082 C   0  0  0  0  0  0  0  0  0  0  0  0
   10.1595   28.4307   35.0295 C   0  0  0  0  0  0  0  0  0  0  0  0
    8.9033   26.3226   34.7557 C   0  0  0  0  0  0  0  0  0  0  0  0
    7.9240   25.8699   33.9228 C   0  0  0  0  0  0  0  0  0  0  0  0
    6.5346   25.3702   34.3360 C   0  0  0  0  0  0  0  0  0  0  0  0
    5.7084   26.4914   34.7498 O   0  0  0  0  0  0  0  0  0  0  0  0
    5.6182   27.1158   34.0130 H   0  0  0  0  0  0  0  0  0  0  0  0
    5.9210   24.4555   33.1556 C   0  0  0  0  0  0  0  0  0  0  0  0
    5.9569   25.4062   31.9371 C   0  0  0  0  0  0  0  0  0  0  0  0
    4.7539   24.5719   32.5428 C   0  0  0  0  0  0  0  0  0  0  0  0
 12 16  1  0  0  0
 13 14  1  0  0  0
 14 15  1  0  0  0
 14 20  1  0  0  0
 15 16  1  0  0  0
 16 17  1  0  0  0
 17 18  1  0  0  0
 18 19  2  0  0  0
 18 20  1  0  0  0
 19  1  1  0  0  0
  1  2  2  0  0  0
  2  3  1  0  0  0
  2  7  1  0  0  0
  3  4  1  0  0  0
 20 21  2  0  0  0
  4  5  1  0  0  0
  5  6  1  0  0  0
  6  7  1  0  0  0
  6 10  1  0  0  0
  6 11  1  0  0  0
  7  8  1  0  0  0
  8  9  1  0  0  0
  9 10  1  0  0  0
 10 24  1  0  0  0
 24 26  1  0  0  0
 24 25  1  0  0  0
 26 27  2  0  0  0
 28 31  1  0  0  0
 28 29  1  0  0  0
 28 27  1  0  0  0
 31 32  1  0  0  0
 31 33  1  0  0  0
 32 33  1  0  0  0
 12 22  1  0  0  0
 13 23  1  0  0  0
 29 30  1  0  0  0
M  END
> <minimizedAffinity>
-13.63159

$$$$
1S19_MC9_A_500


 33 36  0  0  0  0  0  0  0  0999 V2000
    8.2449   25.2297   34.0774 C   0  0  0  0  0  0  0  0  0  0  0  0
    9.3593   25.1350   34.7634 C   0  0  0  0  0  0  0  0  0  0  0  0
    9.4520   24.4640   36.2296 C   0  0  0  0  0  0  0  0  0  0  0  0
   10.5020   23.2285   36.2855 C   0  0  0  0  0  0  0  0  0  0  0  0
   11.8594   23.6179   35.4951 C   0  0  0  0  0  0  0  0  0  0  0  0
   11.7764   24.3865   33.9943 C   0  0  0  0  0  0  0  0  0  0  0  0
   10.7329   25.6422   34.2315 C   0  0  0  0  0  0  0  0  0  0  0  0
   10.8089   26.3533   32.7026 C   0  0  0  0  0  0  0  0  0  0  0  0
   12.3166   26.0543   32.2730 C   0  0  0  0  0  0  0  0  0  0  0  0
   12.9423   25.2611   33.4837 C   0  0  0  0  0  0  0  0  0  0  0  0
   11.1426   23.1205   33.0129 C   0  0  0  0  0  0  0  0  0  0  0  0
    3.5112   26.4526   35.7541 O   0  0  0  0  0  0  0  0  0  0  0  0
    4.0944   28.0151   31.6869 O   0  0  0  0  0  0  0  0  0  0  0  0
    4.2637   27.1797   32.8814 C   0  0  0  0  0  0  0  0  0  0  0  0
    2.9141   26.4679   33.3375 C   0  0  0  0  0  0  0  0  0  0  0  0
    3.1301   25.5666   34.6575 C   0  0  0  0  0  0  0  0  0  0  0  0
    4.2766   24.4825   34.4185 C   0  0  0  0  0  0  0  0  0  0  0  0
    5.6276   25.0768   33.8973 C   0  0  0  0  0  0  0  0  0  0  0  0
    6.8725   24.7782   34.4351 C   0  0  0  0  0  0  0  0  0  0  0  0
    5.3832   26.0724   32.6493 C   0  0  0  0  0  0  0  0  0  0  0  0
    6.0738   25.9750   31.4444 C   0  0  0  0  0  0  0  0  0  0  0  0
    2.8122   27.1099   35.8964 H   0  0  0  0  0  0  0  0  0  0  0  0
    3.4086   28.6808   31.8524 H   0  0  0  0  0  0  0  0  0  0  0  0
   14.2946   24.3790   33.0721 C   0  0  0  0  0  0  0  0  0  0  0  0
   14.3509   24.2099   31.5387 C   0  0  0  0  0  0  0  0  0  0  0  0
   14.5411   22.9558   33.6572 C   0  0  0  0  0  0  0  0  0  0  0  0
   14.7977   21.8344   32.9262 C   0  0  0  0  0  0  0  0  0  0  0  0
   14.7909   20.3898   33.4399 C   0  0  0  0  0  0  0  0  0  0  0  0
   16.1478   19.9641   33.7374 O   0  0  0  0  0  0  0  0  0  0  0  0
   16.5270   20.5439   34.4163 H   0  0  0  0  0  0  0  0  0  0  0  0
   13.7406   20.2594   34.6590 C   0  0  0  0  0  0  0  0  0  0  0  0
   13.4575   18.7402   34.7010 C   0  0  0  0  0  0  0  0  0  0  0  0
   12.4522   19.9614   34.6105 C   0  0  0  0  0  0  0  0  0  0  0  0
 12 16  1  0  0  0
 13 14  1  0  0  0
 14 15  1  0  0  0
 14 20  1  0  0  0
 15 16  1  0  0  0
 16 17  1  0  0  0
 17 18  1  0  0  0
 18 19  2  0  0  0
 18 20  1  0  0  0
 19  1  1  0  0  0
  1  2  2  0  0  0
  2  3  1  0  0  0
  2  7  1  0  0  0
  3  4  1  0  0  0
 20 21  2  0  0  0
  4  5  1  0  0  0
  5  6  1  0  0  0
  6  7  1  0  0  0
  6 10  1  0  0  0
  6 11  1  0  0  0
  7  8  1  0  0  0
  8  9  1  0  0  0
  9 10  1  0  0  0
 10 24  1  0  0  0
 24 26  1  0  0  0
 24 25  1  0  0  0
 26 27  2  0  0  0
 28 31  1  0  0  0
 28 29  1  0  0  0
 28 27  1  0  0  0
 31 32  1  0  0  0
 31 33  1  0  0  0
 32 33  1  0  0  0
 12 22  1  0  0  0
 13 23  1  0  0  0
 29 30  1  0  0  0
M  END
> <minimizedAffinity>
-10.68356

$$$$
