3FV1_DYH_A_1
  RCSB PDB12061708393D
Coordinates from PDB:3FV1:A:1 Model:1 without hydrogens
 21 22  0  0  0  0            999 V2000
   -9.0150   11.3910   19.7050   C 0  0  0  0  0  0  0  0  0  0  0  0
   -9.9920   12.4710   19.8030   N 0  0  0  0  0  0  0  0  0  0  0  0
  -10.0650   13.2430   21.0470   C 0  0  0  0  0  0  0  0  0  0  0  0
  -11.2010   14.2510   20.9770   C 0  0  0  0  0  0  0  0  0  0  0  0
  -11.1390   14.9900   19.7440   O 0  0  0  0  0  0  0  0  0  0  0  0
  -11.1220   15.2350   22.1390   C 0  0  0  0  0  0  0  0  0  0  0  0
   -9.9040   15.9730   22.0770   O 0  0  0  0  0  0  0  0  0  0  0  0
   -8.7580   15.1170   22.2720   C 0  0  0  0  0  0  0  0  0  0  0  0
   -7.5280   15.8850   21.8370   C 0  0  0  0  0  0  0  0  0  0  0  0
   -8.7380   13.9400   21.3060   C 0  0  0  0  0  0  0  0  0  0  0  0
   -8.2900   14.5050   20.0750   O 0  0  0  0  0  0  0  0  0  0  0  0
   -7.4600   15.6540   20.3290   C 0  0  0  0  0  0  0  0  0  0  0  0
   -8.0510   16.8610   19.6090   C 0  0  0  0  0  0  0  0  0  0  0  0
   -9.2220   16.7820   19.1390   O 0  0  0  0  0  0  0  0  0  0  0  0
   -7.3530   17.8920   19.4920   O 0  0  0  0  0  0  0  0  0  0  0  0
   -6.0250   15.3570   19.9050   C 0  0  0  0  0  0  0  0  0  0  0  0
   -5.7980   15.2430   18.3960   C 0  0  0  0  0  0  0  0  0  0  0  0
   -4.3360   15.4470   18.1430   C 0  0  0  0  0  0  0  0  0  0  0  0
   -3.6970   14.5950   17.4910   O 0  0  0  0  0  0  0  0  0  0  0  0
   -3.8250   16.4790   18.6080   O 0  0  0  0  0  0  0  0  0  0  0  0
   -6.2230   13.9540   17.8620   N 0  0  0  0  0  0  0  0  0  0  0  0
  1  2  1  0  0  0  0
  2  3  1  0  0  0  0
  3  4  1  0  0  0  0
  3 10  1  0  0  0  0
  4  5  1  0  0  0  0
  4  6  1  0  0  0  0
  6  7  1  0  0  0  0
  7  8  1  0  0  0  0
  8  9  1  0  0  0  0
  8 10  1  0  0  0  0
  9 12  1  0  0  0  0
 10 11  1  0  0  0  0
 11 12  1  0  0  0  0
 12 13  1  0  0  0  0
 12 16  1  0  0  0  0
 13 14  1  0  0  0  0
 13 15  2  0  0  0  0
 16 17  1  0  0  0  0
 17 18  1  0  0  0  0
 17 21  1  0  0  0  0
 18 19  2  0  0  0  0
 18 20  1  0  0  0  0
A    1
CAA
A    2
NH
A    3
CAH
A    4
CAG
A    5
OAC
A    6
CAP
A    7
OAQ
A    8
CAR
A    9
CAS
A   10
CAI
A   11
OAJ
A   12
CAK
A   13
CAE
A   14
OAB
A   15
OAF
A   16
CB
A   17
CA
A   18
C
A   19
OXT
A   20
O
A   21
N
M  END
>  <InstanceId>
3FV1_DYH_A_1

>  <ChemCompId>
DYH

>  <PdbId>
3FV1

>  <ChainId>
A

>  <ResidueNumber>
1

>  <InsertionCode>


>  <Model>
1

>  <AltIds>


>  <MissingHeavyAtoms>
0

>  <ObservedFormula>
C12 N2 O7

>  <Name>
(2R,3aR,6S,7R,7aR)-2-[(2S)-2-amino-2-carboxyethyl]-6-hydroxy-7-(methylamino)hexahydro-2H-furo[3,2-b]pyran-2-carboxylic acid

>  <SystematicName>
(2R,3aR,6S,7R,7aR)-2-[(2S)-2-amino-3-hydroxy-3-oxo-propyl]-6-hydroxy-7-methylamino-3,3a,5,6,7,7a-hexahydrofuro[4,5-b]pyran-2-carboxylic acid

>  <Synonyms>


>  <Type>
NON-POLYMER

>  <Formula>
C12 H20 N2 O7

>  <MolecularWeight>
304.296

>  <ModifiedDate>
2011-06-04

>  <Parent>


>  <OneLetterCode>


>  <SubcomponentList>


>  <AmbiguousFlag>
N

>  <InChI>
InChI=1S/C12H20N2O7/c1-14-8-6(15)4-20-7-3-12(11(18)19,21-9(7)8)2-5(13)10(16)17/h5-9,14-15H,2-4,13H2,1H3,(H,16,17)(H,18,19)/t5-,6+,7+,8+,9-,12+/m0/s1

>  <InChIKey>
YUSZFKPLFIQTGF-FDNSHYBFSA-N

>  <SMILES>
CN[C@@H]1[C@@H](CO[C@H]2[C@@H]1O[C@@](C2)(C[C@@H](C(=O)O)N)C(=O)O)O

$$$$
