3FV1_DYH_A_1


 27 28  0  0  0  0  0  0  0  0999 V2000
   -9.9769   13.1694   21.1549 C   0  0  0  0  0  0  0  0  0  0  0  0
  -11.1705   14.1103   21.1168 C   0  0  0  0  0  0  0  0  0  0  0  0
  -11.1827   14.8537   19.8850 O   0  0  0  0  0  0  0  0  0  0  0  0
  -11.1189   15.0953   22.2795 C   0  0  0  0  0  0  0  0  0  0  0  0
   -9.9474   15.9025   22.1891 O   0  0  0  0  0  0  0  0  0  0  0  0
   -8.7494   15.1137   22.3523 C   0  0  0  0  0  0  0  0  0  0  0  0
   -7.5772   15.9522   21.8887 C   0  0  0  0  0  0  0  0  0  0  0  0
   -8.6861   13.9415   21.3824 C   0  0  0  0  0  0  0  0  0  0  0  0
   -8.3029   14.5335   20.1422 O   0  0  0  0  0  0  0  0  0  0  0  0
   -7.5344   15.7281   20.3788 C   0  0  0  0  0  0  0  0  0  0  0  0
  -10.3770   15.3904   19.8233 H   0  0  0  0  0  0  0  0  0  0  0  0
   -8.2122   16.9001   19.6778 C   0  0  0  0  0  0  0  0  0  0  0  0
   -9.4694   16.8913   19.5446 O   0  0  0  0  0  0  0  0  0  0  0  0
   -7.5013   17.8319   19.2415 O   0  0  0  0  0  0  0  0  0  0  0  0
   -9.9714   16.1766   19.8839 H   0  0  0  0  0  0  0  0  0  0  0  0
   -8.9520   11.2902   19.8314 C   0  0  0  0  0  0  0  0  0  0  0  0
   -9.8911   12.4050   19.9070 N   0  0  0  0  0  0  0  0  0  0  0  0
  -10.8205   12.0279   19.7215 H   0  0  0  0  0  0  0  0  0  0  0  0
   -6.0959   15.5151   19.9177 C   0  0  0  0  0  0  0  0  0  0  0  0
   -5.9300   15.1287   18.4464 C   0  0  0  0  0  0  0  0  0  0  0  0
   -6.3378   13.7540   18.1795 N   0  0  0  0  0  0  0  0  0  0  0  0
   -5.7606   13.1157   18.7270 H   0  0  0  0  0  0  0  0  0  0  0  0
   -6.2209   13.5513   17.1867 H   0  0  0  0  0  0  0  0  0  0  0  0
   -4.4870   15.3145   18.0910 C   0  0  0  0  0  0  0  0  0  0  0  0
   -3.9121   16.3845   18.3810 O   0  0  0  0  0  0  0  0  0  0  0  0
   -3.9259   14.3702   17.5116 O   0  0  0  0  0  0  0  0  0  0  0  0
   -4.4048   13.5885   17.3177 H   0  0  0  0  0  0  0  0  0  0  0  0
 16 17  1  0  0  0
 17  1  1  0  0  0
  1  2  1  0  0  0
  1  8  1  0  0  0
  2  3  1  0  0  0
  2  4  1  0  0  0
  4  5  1  0  0  0
  5  6  1  0  0  0
  6  7  1  0  0  0
  6  8  1  0  0  0
  7 10  1  0  0  0
  8  9  1  0  0  0
  9 10  1  0  0  0
 10 12  1  0  0  0
 10 19  1  0  0  0
 12 13  1  0  0  0
 12 14  2  0  0  0
 19 20  1  0  0  0
 20 24  1  0  0  0
 20 21  1  0  0  0
 24 25  2  0  0  0
 24 26  1  0  0  0
 17 18  1  0  0  0
  3 11  1  0  0  0
 13 15  1  0  0  0
 26 27  1  0  0  0
 21 22  1  0  0  0
 21 23  1  0  0  0
M  END
> <minimizedAffinity>
-10.90097

$$$$
