1WUQ_8GT_A_811
  RCSB PDB12061704343D
Coordinates from PDB:1WUQ:A:811 Model:1 without hydrogens
 33 35  0  0  0  0            999 V2000
  -29.3670  -16.5930    1.3870   P 0  0  0  0  0  0  0  0  0  0  0  0
  -29.9320  -16.5280   -0.0030   O 0  0  0  0  0  0  0  0  0  0  0  0
  -29.6650  -15.3580    2.1910   O 0  0  0  0  0  0  0  0  0  0  0  0
  -27.8610  -16.8070    1.3080   O 0  0  0  0  0  0  0  0  0  0  0  0
  -30.0460  -17.8300    2.1590   O 0  0  0  0  0  0  0  0  0  0  0  0
  -30.7920  -19.1420    1.5700   P 0  0  0  0  0  0  0  0  0  0  0  0
  -29.9290  -19.8200    0.5830   O 0  0  0  0  0  0  0  0  0  0  0  0
  -32.1090  -18.7760    1.0180   O 0  0  0  0  0  0  0  0  0  0  0  0
  -30.9650  -20.0790    2.8380   O 0  0  0  0  0  0  0  0  0  0  0  0
  -31.5070  -19.8760    4.3520   P 0  0  0  0  0  0  0  0  0  0  0  0
  -31.8460  -21.2250    4.8950   O 0  0  0  0  0  0  0  0  0  0  0  0
  -32.6320  -18.8910    4.3110   O 0  0  0  0  0  0  0  0  0  0  0  0
  -30.2230  -19.2560    5.0610   O 0  0  0  0  0  0  0  0  0  0  0  0
  -29.0590  -20.0250    5.3960   C 0  0  0  0  0  0  0  0  0  0  0  0
  -28.0950  -19.1190    6.1150   C 0  0  0  0  0  0  0  0  0  0  0  0
  -26.8490  -19.7980    6.5070   O 0  0  0  0  0  0  0  0  0  0  0  0
  -27.6400  -17.8860    5.2870   C 0  0  0  0  0  0  0  0  0  0  0  0
  -28.0620  -16.6830    5.9370   O 0  0  0  0  0  0  0  0  0  0  0  0
  -26.1510  -18.0740    5.2390   C 0  0  0  0  0  0  0  0  0  0  0  0
  -25.4680  -16.8210    5.1850   O 0  0  0  0  0  0  0  0  0  0  0  0
  -25.8950  -18.7610    6.5100   C 0  0  0  0  0  0  0  0  0  0  0  0
  -24.5370  -19.2800    6.6830   N 0  0  0  0  0  0  0  0  0  0  0  0
  -23.7640  -19.9790    5.7810   C 0  0  0  0  0  0  0  0  0  0  0  0
  -22.5720  -20.2770    6.2500   N 0  0  0  0  0  0  0  0  0  0  0  0
  -22.5750  -19.7390    7.5370   C 0  0  0  0  0  0  0  0  0  0  0  0
  -21.5700  -19.7220    8.5460   C 0  0  0  0  0  0  0  0  0  0  0  0
  -20.4290  -20.1840    8.5230   O 0  0  0  0  0  0  0  0  0  0  0  0
  -22.0110  -19.0650    9.7090   N 0  0  0  0  0  0  0  0  0  0  0  0
  -23.2690  -18.5000    9.8520   C 0  0  0  0  0  0  0  0  0  0  0  0
  -23.5220  -17.9170   11.0290   N 0  0  0  0  0  0  0  0  0  0  0  0
  -24.1900  -18.5070    8.9200   N 0  0  0  0  0  0  0  0  0  0  0  0
  -23.7840  -19.1380    7.7960   C 0  0  0  0  0  0  0  0  0  0  0  0
  -24.2060  -20.2540    4.6700   O 0  0  0  0  0  0  0  0  0  0  0  0
  1  2  2  0  0  0  0
  1  3  1  0  0  0  0
  1  4  1  0  0  0  0
  1  5  1  0  0  0  0
  5  6  1  0  0  0  0
  6  7  2  0  0  0  0
  6  8  1  0  0  0  0
  6  9  1  0  0  0  0
  9 10  1  0  0  0  0
 10 11  2  0  0  0  0
 10 12  1  0  0  0  0
 10 13  1  0  0  0  0
 13 14  1  0  0  0  0
 14 15  1  0  0  0  0
 15 16  1  0  0  0  0
 15 17  1  0  0  0  0
 16 21  1  0  0  0  0
 17 18  1  0  0  0  0
 17 19  1  0  0  0  0
 19 20  1  0  0  0  0
 19 21  1  0  0  0  0
 21 22  1  0  0  0  0
 22 23  1  0  0  0  0
 22 32  1  0  0  0  0
 23 24  1  0  0  0  0
 23 33  2  0  0  0  0
 24 25  1  0  0  0  0
 25 26  1  0  0  0  0
 25 32  2  0  0  0  0
 26 27  2  0  0  0  0
 26 28  1  0  0  0  0
 28 29  1  0  0  0  0
 29 30  1  0  0  0  0
 29 31  2  0  0  0  0
 31 32  1  0  0  0  0
A    1
PG
A    2
O1G
A    3
O2G
A    4
O3G
A    5
O3B
A    6
PB
A    7
O1B
A    8
O2B
A    9
O3A
A   10
PA
A   11
O1A
A   12
O2A
A   13
O5'
A   14
C5'
A   15
C4'
A   16
O4'
A   17
C3'
A   18
O3'
A   19
C2'
A   20
O2'
A   21
C1'
A   22
N9
A   23
C8
A   24
N7
A   25
C5
A   26
C6
A   27
O6
A   28
N1
A   29
C2
A   30
N2
A   31
N3
A   32
C4
A   33
O8
M  END
>  <InstanceId>
1WUQ_8GT_A_811

>  <ChemCompId>
8GT

>  <PdbId>
1WUQ

>  <ChainId>
A

>  <ResidueNumber>
811

>  <InsertionCode>


>  <Model>
1

>  <AltIds>


>  <MissingHeavyAtoms>
0

>  <ObservedFormula>
C10 N5 O15 P3

>  <Name>
8-OXO-GUANOSINE-5'-TRIPHOSPHATE

>  <SystematicName>
[[(2R,3S,4R,5R)-5-(2-amino-6,8-dioxo-1,7-dihydropurin-9-yl)-3,4-dihydroxy-oxolan-2-yl]methoxy-hydroxy-phosphoryl] phosphono hydrogen phosphate

>  <Synonyms>


>  <Type>
NON-POLYMER

>  <Formula>
C10 H16 N5 O15 P3

>  <MolecularWeight>
539.18

>  <ModifiedDate>
2011-06-04

>  <Parent>


>  <OneLetterCode>


>  <SubcomponentList>


>  <AmbiguousFlag>
N

>  <InChI>
InChI=1S/C10H16N5O15P3/c11-9-13-6-3(7(18)14-9)12-10(19)15(6)8-5(17)4(16)2(28-8)1-27-32(23,24)30-33(25,26)29-31(20,21)22/h2,4-5,8,16-17H,1H2,(H,12,19)(H,23,24)(H,25,26)(H2,20,21,22)(H3,11,13,14,18)/t2-,4-,5-,8-/m1/s1

>  <InChIKey>
JCHLKIQZUXYLPW-UMMCILCDSA-N

>  <SMILES>
C([C@@H]1[C@H]([C@H]([C@@H](O1)N2C3=C(C(=O)NC(=N3)N)NC2=O)O)O)O[P@@](=O)(O)O[P@@](=O)(O)OP(=O)(O)O

$$$$
