4AJL_88W_A_1333


 24 25  0  0  0  0  0  0  0  0999 V2000
   17.4452   -7.0815    1.1676 C   0  0  0  0  0  0  0  0  0  0  0  0
   18.3349   -6.0723    1.0145 N   0  0  0  0  0  0  0  0  0  0  0  0
   17.6178   -8.2282    0.7313 O   0  0  0  0  0  0  0  0  0  0  0  0
   18.0407   -5.1882    1.3322 H   0  0  0  0  0  0  0  0  0  0  0  0
   22.0023   -5.6529    0.6726 C   0  0  0  0  0  0  0  0  0  0  0  0
   20.7002   -5.5145    1.1271 C   0  0  0  0  0  0  0  0  0  0  0  0
   19.8659   -6.8513   -0.7147 C   0  0  0  0  0  0  0  0  0  0  0  0
   22.2495   -6.3922   -0.4877 C   0  0  0  0  0  0  0  0  0  0  0  0
   19.6364   -6.1271    0.4548 C   0  0  0  0  0  0  0  0  0  0  0  0
   21.1713   -6.9688   -1.1700 C   0  0  0  0  0  0  0  0  0  0  0  0
   23.3815   -7.2677   -2.2009 C   0  0  0  0  0  0  0  0  0  0  0  0
   24.5075   -7.5843   -3.1295 C   0  0  0  0  0  0  0  0  0  0  0  0
   23.4940   -6.5878   -1.0842 N   0  0  0  0  0  0  0  0  0  0  0  0
   21.7440   -7.7605   -2.6085 S   0  0  0  0  0  0  0  0  0  0  0  0
   16.2008   -6.6853    1.9406 C   0  0  0  0  0  0  0  0  0  0  0  0
   15.1537   -7.7832    1.9755 C   0  0  0  0  0  0  0  0  0  0  0  0
   14.7978   -9.3974    3.8047 C   0  0  0  0  0  0  0  0  0  0  0  0
   15.3508  -10.4027    4.5147 N   0  0  0  0  0  0  0  0  0  0  0  0
   15.5716   -8.8979    2.8180 N   0  0  0  0  0  0  0  0  0  0  0  0
   13.6610   -8.9678    4.0382 O   0  0  0  0  0  0  0  0  0  0  0  0
   16.2770  -10.6722    4.3177 H   0  0  0  0  0  0  0  0  0  0  0  0
   16.4550   -9.3030    2.6604 H   0  0  0  0  0  0  0  0  0  0  0  0
   15.3559  -12.3076    6.0759 C   0  0  0  0  0  0  0  0  0  0  0  0
   14.6164  -11.1056    5.5695 C   0  0  0  0  0  0  0  0  0  0  0  0
 23 24  1  0  0  0
 24 18  1  0  0  0
 18 17  1  0  0  0
 17 20  2  0  0  0
 17 19  1  0  0  0
 19 16  1  0  0  0
 16 15  1  0  0  0
 15  1  1  0  0  0
  1  3  2  0  0  0
  1  2  1  0  0  0
  2  9  1  0  0  0
  9  6  1  0  0  0
  9  7  2  0  0  0
  6  5  2  0  0  0
  5  8  1  0  0  0
  8 10  2  0  0  0
  8 13  1  0  0  0
 10  7  1  0  0  0
 10 14  1  0  0  0
 14 11  1  0  0  0
 11 13  2  0  0  0
 11 12  1  0  0  0
 18 21  1  0  0  0
  2  4  1  0  0  0
 19 22  1  0  0  0
M  END
> <minimizedAffinity>
-7.30274

$$$$
4AJL_88W_A_1333


 24 25  0  0  0  0  0  0  0  0999 V2000
   14.8745   -9.5354    3.9057 C   0  0  0  0  0  0  0  0  0  0  0  0
   15.2397  -10.2557    4.9926 N   0  0  0  0  0  0  0  0  0  0  0  0
   14.0672   -9.9306    3.0530 O   0  0  0  0  0  0  0  0  0  0  0  0
   15.9534   -9.8651    5.5470 H   0  0  0  0  0  0  0  0  0  0  0  0
   15.1460  -13.7860    6.1200 C   0  0  0  0  0  0  0  0  0  0  0  0
   15.5908  -12.5912    5.5759 C   0  0  0  0  0  0  0  0  0  0  0  0
   13.3831  -11.6152    5.7962 C   0  0  0  0  0  0  0  0  0  0  0  0
   13.8080  -13.9086    6.5057 C   0  0  0  0  0  0  0  0  0  0  0  0
   14.7249  -11.5009    5.4337 C   0  0  0  0  0  0  0  0  0  0  0  0
   12.9448  -12.8213    6.3238 C   0  0  0  0  0  0  0  0  0  0  0  0
   11.9242  -14.8672    7.2235 C   0  0  0  0  0  0  0  0  0  0  0  0
   10.9691  -15.9117    7.7001 C   0  0  0  0  0  0  0  0  0  0  0  0
   13.2090  -15.0524    7.0308 N   0  0  0  0  0  0  0  0  0  0  0  0
   11.3350  -13.2631    6.8110 S   0  0  0  0  0  0  0  0  0  0  0  0
   15.5418   -8.1748    3.8235 C   0  0  0  0  0  0  0  0  0  0  0  0
   15.5899   -7.6260    2.4095 C   0  0  0  0  0  0  0  0  0  0  0  0
   17.7312   -7.0107    1.3542 C   0  0  0  0  0  0  0  0  0  0  0  0
   18.7287   -6.1025    1.3259 N   0  0  0  0  0  0  0  0  0  0  0  0
   16.7297   -6.7369    2.2165 N   0  0  0  0  0  0  0  0  0  0  0  0
   17.7324   -8.0194    0.6373 O   0  0  0  0  0  0  0  0  0  0  0  0
   18.7004   -5.3436    1.9525 H   0  0  0  0  0  0  0  0  0  0  0  0
   16.7702   -5.9022    2.7369 H   0  0  0  0  0  0  0  0  0  0  0  0
   20.9110   -5.1807    0.6523 C   0  0  0  0  0  0  0  0  0  0  0  0
   19.8525   -6.2101    0.3923 C   0  0  0  0  0  0  0  0  0  0  0  0
 23 24  1  0  0  0
 24 18  1  0  0  0
 18 17  1  0  0  0
 17 20  2  0  0  0
 17 19  1  0  0  0
 19 16  1  0  0  0
 16 15  1  0  0  0
 15  1  1  0  0  0
  1  3  2  0  0  0
  1  2  1  0  0  0
  2  9  1  0  0  0
  9  6  1  0  0  0
  9  7  2  0  0  0
  6  5  2  0  0  0
  5  8  1  0  0  0
  8 10  2  0  0  0
  8 13  1  0  0  0
 10  7  1  0  0  0
 10 14  1  0  0  0
 14 11  1  0  0  0
 11 13  2  0  0  0
 11 12  1  0  0  0
 18 21  1  0  0  0
  2  4  1  0  0  0
 19 22  1  0  0  0
M  END
> <minimizedAffinity>
-6.96570

$$$$
4AJL_88W_A_1333


 24 25  0  0  0  0  0  0  0  0999 V2000
   15.3556   -7.1245    2.5431 C   0  0  0  0  0  0  0  0  0  0  0  0
   14.4678   -8.1394    2.6677 N   0  0  0  0  0  0  0  0  0  0  0  0
   16.2479   -6.8806    3.3673 O   0  0  0  0  0  0  0  0  0  0  0  0
   13.7555   -8.1729    1.9890 H   0  0  0  0  0  0  0  0  0  0  0  0
   13.2632  -10.2252    5.4857 C   0  0  0  0  0  0  0  0  0  0  0  0
   13.3951   -9.1762    4.5894 C   0  0  0  0  0  0  0  0  0  0  0  0
   15.3837  -10.1807    3.6346 C   0  0  0  0  0  0  0  0  0  0  0  0
   14.1971  -11.2652    5.4675 C   0  0  0  0  0  0  0  0  0  0  0  0
   14.4338   -9.1598    3.6515 C   0  0  0  0  0  0  0  0  0  0  0  0
   15.2517  -11.2170    4.5477 C   0  0  0  0  0  0  0  0  0  0  0  0
   15.2620  -13.1228    6.0986 C   0  0  0  0  0  0  0  0  0  0  0  0
   15.6300  -14.3349    6.8896 C   0  0  0  0  0  0  0  0  0  0  0  0
   14.2167  -12.3628    6.3264 N   0  0  0  0  0  0  0  0  0  0  0  0
   16.3017  -12.5822    4.7881 S   0  0  0  0  0  0  0  0  0  0  0  0
   15.1683   -6.3021    1.2815 C   0  0  0  0  0  0  0  0  0  0  0  0
   16.1823   -6.6370    0.2032 C   0  0  0  0  0  0  0  0  0  0  0  0
   18.6328   -6.4583    0.4054 C   0  0  0  0  0  0  0  0  0  0  0  0
   19.6666   -5.6146    0.6058 N   0  0  0  0  0  0  0  0  0  0  0  0
   17.4154   -5.8764    0.3702 N   0  0  0  0  0  0  0  0  0  0  0  0
   18.7902   -7.6770    0.2593 O   0  0  0  0  0  0  0  0  0  0  0  0
   19.4800   -4.6610    0.7643 H   0  0  0  0  0  0  0  0  0  0  0  0
   17.3575   -4.8978    0.4610 H   0  0  0  0  0  0  0  0  0  0  0  0
   22.0255   -4.9666    0.8909 C   0  0  0  0  0  0  0  0  0  0  0  0
   21.0580   -6.0730    0.5950 C   0  0  0  0  0  0  0  0  0  0  0  0
 23 24  1  0  0  0
 24 18  1  0  0  0
 18 17  1  0  0  0
 17 20  2  0  0  0
 17 19  1  0  0  0
 19 16  1  0  0  0
 16 15  1  0  0  0
 15  1  1  0  0  0
  1  3  2  0  0  0
  1  2  1  0  0  0
  2  9  1  0  0  0
  9  6  1  0  0  0
  9  7  2  0  0  0
  6  5  2  0  0  0
  5  8  1  0  0  0
  8 10  2  0  0  0
  8 13  1  0  0  0
 10  7  1  0  0  0
 10 14  1  0  0  0
 14 11  1  0  0  0
 11 13  2  0  0  0
 11 12  1  0  0  0
 18 21  1  0  0  0
  2  4  1  0  0  0
 19 22  1  0  0  0
M  END
> <minimizedAffinity>
-6.85356

$$$$
4AJL_88W_A_1333


 24 25  0  0  0  0  0  0  0  0999 V2000
   16.2611   -7.8090    1.6530 C   0  0  0  0  0  0  0  0  0  0  0  0
   16.8232   -7.6509    0.4313 N   0  0  0  0  0  0  0  0  0  0  0  0
   16.9087   -7.9607    2.6983 O   0  0  0  0  0  0  0  0  0  0  0  0
   16.1985   -7.6264   -0.3292 H   0  0  0  0  0  0  0  0  0  0  0  0
   20.0583   -8.1418   -1.3112 C   0  0  0  0  0  0  0  0  0  0  0  0
   18.7527   -8.3303   -0.8855 C   0  0  0  0  0  0  0  0  0  0  0  0
   18.9670   -6.5281    0.7211 C   0  0  0  0  0  0  0  0  0  0  0  0
   20.8358   -7.1423   -0.7191 C   0  0  0  0  0  0  0  0  0  0  0  0
   18.1971   -7.5162    0.1082 C   0  0  0  0  0  0  0  0  0  0  0  0
   20.2780   -6.3597    0.2992 C   0  0  0  0  0  0  0  0  0  0  0  0
   22.6341   -5.9115   -0.2352 C   0  0  0  0  0  0  0  0  0  0  0  0
   24.0447   -5.4211   -0.2303 C   0  0  0  0  0  0  0  0  0  0  0  0
   22.1684   -6.8595   -1.0139 N   0  0  0  0  0  0  0  0  0  0  0  0
   21.4732   -5.2537    0.9095 S   0  0  0  0  0  0  0  0  0  0  0  0
   14.7440   -7.7744    1.6353 C   0  0  0  0  0  0  0  0  0  0  0  0
   14.1228   -8.5561    2.7781 C   0  0  0  0  0  0  0  0  0  0  0  0
   14.8764  -10.3947    4.2374 C   0  0  0  0  0  0  0  0  0  0  0  0
   15.6106  -11.5250    4.3013 N   0  0  0  0  0  0  0  0  0  0  0  0
   14.8341   -9.8054    3.0239 N   0  0  0  0  0  0  0  0  0  0  0  0
   14.2807   -9.9345    5.2197 O   0  0  0  0  0  0  0  0  0  0  0  0
   16.1030  -11.8195    3.5013 H   0  0  0  0  0  0  0  0  0  0  0  0
   15.3028  -10.2369    2.2733 H   0  0  0  0  0  0  0  0  0  0  0  0
   15.9983  -13.7688    5.2398 C   0  0  0  0  0  0  0  0  0  0  0  0
   15.6980  -12.3276    5.5237 C   0  0  0  0  0  0  0  0  0  0  0  0
 23 24  1  0  0  0
 24 18  1  0  0  0
 18 17  1  0  0  0
 17 20  2  0  0  0
 17 19  1  0  0  0
 19 16  1  0  0  0
 16 15  1  0  0  0
 15  1  1  0  0  0
  1  3  2  0  0  0
  1  2  1  0  0  0
  2  9  1  0  0  0
  9  6  1  0  0  0
  9  7  2  0  0  0
  6  5  2  0  0  0
  5  8  1  0  0  0
  8 10  2  0  0  0
  8 13  1  0  0  0
 10  7  1  0  0  0
 10 14  1  0  0  0
 14 11  1  0  0  0
 11 13  2  0  0  0
 11 12  1  0  0  0
 18 21  1  0  0  0
  2  4  1  0  0  0
 19 22  1  0  0  0
M  END
> <minimizedAffinity>
-6.81372

$$$$
4AJL_88W_A_1333


 24 25  0  0  0  0  0  0  0  0999 V2000
   18.1920   -7.2279   -0.2674 C   0  0  0  0  0  0  0  0  0  0  0  0
   19.3426   -7.9388   -0.3317 N   0  0  0  0  0  0  0  0  0  0  0  0
   18.0751   -6.0626   -0.6716 O   0  0  0  0  0  0  0  0  0  0  0  0
   19.3265   -8.8227    0.1017 H   0  0  0  0  0  0  0  0  0  0  0  0
   22.7966   -6.6492   -0.7190 C   0  0  0  0  0  0  0  0  0  0  0  0
   21.5436   -6.9124   -0.1879 C   0  0  0  0  0  0  0  0  0  0  0  0
   20.8267   -7.9354   -2.2651 C   0  0  0  0  0  0  0  0  0  0  0  0
   23.0767   -7.0250   -2.0359 C   0  0  0  0  0  0  0  0  0  0  0  0
   20.5678   -7.5722   -0.9438 C   0  0  0  0  0  0  0  0  0  0  0  0
   22.0786   -7.6516   -2.7919 C   0  0  0  0  0  0  0  0  0  0  0  0
   24.1934   -7.2051   -3.9603 C   0  0  0  0  0  0  0  0  0  0  0  0
   25.2655   -7.0396   -4.9867 C   0  0  0  0  0  0  0  0  0  0  0  0
   24.2716   -6.7957   -2.7160 N   0  0  0  0  0  0  0  0  0  0  0  0
   22.6597   -7.9402   -4.4054 S   0  0  0  0  0  0  0  0  0  0  0  0
   17.0343   -7.9956    0.3437 C   0  0  0  0  0  0  0  0  0  0  0  0
   16.7358   -7.5753    1.7710 C   0  0  0  0  0  0  0  0  0  0  0  0
   15.1519   -5.6861    1.7618 C   0  0  0  0  0  0  0  0  0  0  0  0
   15.0329   -4.3434    1.8225 N   0  0  0  0  0  0  0  0  0  0  0  0
   16.4138   -6.1555    1.8570 N   0  0  0  0  0  0  0  0  0  0  0  0
   14.1739   -6.4333    1.6332 O   0  0  0  0  0  0  0  0  0  0  0  0
   15.8483   -3.7944    1.8764 H   0  0  0  0  0  0  0  0  0  0  0  0
   17.1475   -5.5126    1.9900 H   0  0  0  0  0  0  0  0  0  0  0  0
   13.3028   -3.2800    0.4290 C   0  0  0  0  0  0  0  0  0  0  0  0
   13.7284   -3.6769    1.8107 C   0  0  0  0  0  0  0  0  0  0  0  0
 23 24  1  0  0  0
 24 18  1  0  0  0
 18 17  1  0  0  0
 17 20  2  0  0  0
 17 19  1  0  0  0
 19 16  1  0  0  0
 16 15  1  0  0  0
 15  1  1  0  0  0
  1  3  2  0  0  0
  1  2  1  0  0  0
  2  9  1  0  0  0
  9  6  1  0  0  0
  9  7  2  0  0  0
  6  5  2  0  0  0
  5  8  1  0  0  0
  8 10  2  0  0  0
  8 13  1  0  0  0
 10  7  1  0  0  0
 10 14  1  0  0  0
 14 11  1  0  0  0
 11 13  2  0  0  0
 11 12  1  0  0  0
 18 21  1  0  0  0
  2  4  1  0  0  0
 19 22  1  0  0  0
M  END
> <minimizedAffinity>
-6.51392

$$$$
4AJL_88W_A_1333


 24 25  0  0  0  0  0  0  0  0999 V2000
   14.9515   -9.5832    3.9851 C   0  0  0  0  0  0  0  0  0  0  0  0
   15.2853  -10.3161    5.0737 N   0  0  0  0  0  0  0  0  0  0  0  0
   14.1518   -9.9590    3.1166 O   0  0  0  0  0  0  0  0  0  0  0  0
   15.9964   -9.9416    5.6423 H   0  0  0  0  0  0  0  0  0  0  0  0
   15.1102  -13.8479    6.1868 C   0  0  0  0  0  0  0  0  0  0  0  0
   15.5862  -12.6587    5.6571 C   0  0  0  0  0  0  0  0  0  0  0  0
   13.3896  -11.6485    5.8297 C   0  0  0  0  0  0  0  0  0  0  0  0
   13.7619  -13.9505    6.5412 C   0  0  0  0  0  0  0  0  0  0  0  0
   14.7410  -11.5544    5.4986 C   0  0  0  0  0  0  0  0  0  0  0  0
   12.9203  -12.8491    6.3430 C   0  0  0  0  0  0  0  0  0  0  0  0
   11.8472  -14.8814    7.2122 C   0  0  0  0  0  0  0  0  0  0  0  0
   10.8650  -15.9121    7.6631 C   0  0  0  0  0  0  0  0  0  0  0  0
   13.1330  -15.0863    7.0485 N   0  0  0  0  0  0  0  0  0  0  0  0
   11.2929  -13.2670    6.7916 S   0  0  0  0  0  0  0  0  0  0  0  0
   15.6443   -8.2345    3.9223 C   0  0  0  0  0  0  0  0  0  0  0  0
   16.0172   -7.8283    2.5084 C   0  0  0  0  0  0  0  0  0  0  0  0
   14.8917   -5.7122    1.9314 C   0  0  0  0  0  0  0  0  0  0  0  0
   15.0489   -4.3795    1.7903 N   0  0  0  0  0  0  0  0  0  0  0  0
   15.9910   -6.3798    2.3407 N   0  0  0  0  0  0  0  0  0  0  0  0
   13.8156   -6.2804    1.7066 O   0  0  0  0  0  0  0  0  0  0  0  0
   15.9398   -3.9865    1.9358 H   0  0  0  0  0  0  0  0  0  0  0  0
   16.8093   -5.8677    2.5341 H   0  0  0  0  0  0  0  0  0  0  0  0
   13.9078   -3.1892   -0.0391 C   0  0  0  0  0  0  0  0  0  0  0  0
   13.9356   -3.4991    1.4275 C   0  0  0  0  0  0  0  0  0  0  0  0
 23 24  1  0  0  0
 24 18  1  0  0  0
 18 17  1  0  0  0
 17 20  2  0  0  0
 17 19  1  0  0  0
 19 16  1  0  0  0
 16 15  1  0  0  0
 15  1  1  0  0  0
  1  3  2  0  0  0
  1  2  1  0  0  0
  2  9  1  0  0  0
  9  6  1  0  0  0
  9  7  2  0  0  0
  6  5  2  0  0  0
  5  8  1  0  0  0
  8 10  2  0  0  0
  8 13  1  0  0  0
 10  7  1  0  0  0
 10 14  1  0  0  0
 14 11  1  0  0  0
 11 13  2  0  0  0
 11 12  1  0  0  0
 18 21  1  0  0  0
  2  4  1  0  0  0
 19 22  1  0  0  0
M  END
> <minimizedAffinity>
-6.42753

$$$$
4AJL_88W_A_1333


 24 25  0  0  0  0  0  0  0  0999 V2000
   20.2728   -7.0948   -0.2079 C   0  0  0  0  0  0  0  0  0  0  0  0
   21.1584   -6.4290   -0.9863 N   0  0  0  0  0  0  0  0  0  0  0  0
   20.1543   -8.3281   -0.1938 O   0  0  0  0  0  0  0  0  0  0  0  0
   21.0932   -5.4469   -0.9678 H   0  0  0  0  0  0  0  0  0  0  0  0
   24.4743   -7.6529   -2.1042 C   0  0  0  0  0  0  0  0  0  0  0  0
   23.4873   -7.0237   -1.3617 C   0  0  0  0  0  0  0  0  0  0  0  0
   21.8332   -7.5039   -3.0671 C   0  0  0  0  0  0  0  0  0  0  0  0
   24.1494   -8.2129   -3.3430 C   0  0  0  0  0  0  0  0  0  0  0  0
   22.1677   -6.9666   -1.8245 C   0  0  0  0  0  0  0  0  0  0  0  0
   22.8328   -8.1162   -3.8095 C   0  0  0  0  0  0  0  0  0  0  0  0
   24.4359   -9.1957   -5.3267 C   0  0  0  0  0  0  0  0  0  0  0  0
   25.1093   -9.8205   -6.5042 C   0  0  0  0  0  0  0  0  0  0  0  0
   25.0365   -8.8420   -4.2149 N   0  0  0  0  0  0  0  0  0  0  0  0
   22.7196   -8.8209   -5.3953 S   0  0  0  0  0  0  0  0  0  0  0  0
   19.4289   -6.1878    0.6686 C   0  0  0  0  0  0  0  0  0  0  0  0
   18.2349   -6.8999    1.2771 C   0  0  0  0  0  0  0  0  0  0  0  0
   16.0044   -5.8889    1.5611 C   0  0  0  0  0  0  0  0  0  0  0  0
   14.8872   -5.4799    0.9245 N   0  0  0  0  0  0  0  0  0  0  0  0
   16.9759   -6.3756    0.7604 N   0  0  0  0  0  0  0  0  0  0  0  0
   16.1309   -5.8181    2.7901 O   0  0  0  0  0  0  0  0  0  0  0  0
   14.8211   -5.6041   -0.0499 H   0  0  0  0  0  0  0  0  0  0  0  0
   16.8284   -6.3768   -0.2130 H   0  0  0  0  0  0  0  0  0  0  0  0
   13.9742   -3.3862    1.8459 C   0  0  0  0  0  0  0  0  0  0  0  0
   13.7695   -4.8568    1.6378 C   0  0  0  0  0  0  0  0  0  0  0  0
 23 24  1  0  0  0
 24 18  1  0  0  0
 18 17  1  0  0  0
 17 20  2  0  0  0
 17 19  1  0  0  0
 19 16  1  0  0  0
 16 15  1  0  0  0
 15  1  1  0  0  0
  1  3  2  0  0  0
  1  2  1  0  0  0
  2  9  1  0  0  0
  9  6  1  0  0  0
  9  7  2  0  0  0
  6  5  2  0  0  0
  5  8  1  0  0  0
  8 10  2  0  0  0
  8 13  1  0  0  0
 10  7  1  0  0  0
 10 14  1  0  0  0
 14 11  1  0  0  0
 11 13  2  0  0  0
 11 12  1  0  0  0
 18 21  1  0  0  0
  2  4  1  0  0  0
 19 22  1  0  0  0
M  END
> <minimizedAffinity>
-6.36800

$$$$
4AJL_88W_A_1333


 24 25  0  0  0  0  0  0  0  0999 V2000
   19.5362   -7.2165   -0.4161 C   0  0  0  0  0  0  0  0  0  0  0  0
   20.3469   -6.5081   -1.2374 N   0  0  0  0  0  0  0  0  0  0  0  0
   19.6951   -8.4169   -0.1538 O   0  0  0  0  0  0  0  0  0  0  0  0
   20.0623   -5.5858   -1.4312 H   0  0  0  0  0  0  0  0  0  0  0  0
   23.9369   -7.3223   -1.6751 C   0  0  0  0  0  0  0  0  0  0  0  0
   22.7591   -6.8120   -1.1519 C   0  0  0  0  0  0  0  0  0  0  0  0
   21.5268   -7.5162   -3.1168 C   0  0  0  0  0  0  0  0  0  0  0  0
   23.9216   -7.9339   -2.9320 C   0  0  0  0  0  0  0  0  0  0  0  0
   21.5535   -6.9259   -1.8537 C   0  0  0  0  0  0  0  0  0  0  0  0
   22.7148   -8.0080   -3.6381 C   0  0  0  0  0  0  0  0  0  0  0  0
   24.6936   -8.8978   -4.7915 C   0  0  0  0  0  0  0  0  0  0  0  0
   25.6474   -9.4482   -5.8002 C   0  0  0  0  0  0  0  0  0  0  0  0
   25.0265   -8.4581   -3.6007 N   0  0  0  0  0  0  0  0  0  0  0  0
   22.9888   -8.7411   -5.1911 S   0  0  0  0  0  0  0  0  0  0  0  0
   18.4017   -6.3994    0.1742 C   0  0  0  0  0  0  0  0  0  0  0  0
   18.0925   -6.7724    1.6123 C   0  0  0  0  0  0  0  0  0  0  0  0
   16.2434   -7.9345    2.7561 C   0  0  0  0  0  0  0  0  0  0  0  0
   15.3718   -8.9621    2.6851 N   0  0  0  0  0  0  0  0  0  0  0  0
   17.0616   -7.8011    1.6910 N   0  0  0  0  0  0  0  0  0  0  0  0
   16.2859   -7.1668    3.7257 O   0  0  0  0  0  0  0  0  0  0  0  0
   15.4142   -9.5708    1.9124 H   0  0  0  0  0  0  0  0  0  0  0  0
   16.9583   -8.4241    0.9357 H   0  0  0  0  0  0  0  0  0  0  0  0
   14.7036  -10.3769    4.5871 C   0  0  0  0  0  0  0  0  0  0  0  0
   14.3644   -9.2006    3.7217 C   0  0  0  0  0  0  0  0  0  0  0  0
 23 24  1  0  0  0
 24 18  1  0  0  0
 18 17  1  0  0  0
 17 20  2  0  0  0
 17 19  1  0  0  0
 19 16  1  0  0  0
 16 15  1  0  0  0
 15  1  1  0  0  0
  1  3  2  0  0  0
  1  2  1  0  0  0
  2  9  1  0  0  0
  9  6  1  0  0  0
  9  7  2  0  0  0
  6  5  2  0  0  0
  5  8  1  0  0  0
  8 10  2  0  0  0
  8 13  1  0  0  0
 10  7  1  0  0  0
 10 14  1  0  0  0
 14 11  1  0  0  0
 11 13  2  0  0  0
 11 12  1  0  0  0
 18 21  1  0  0  0
  2  4  1  0  0  0
 19 22  1  0  0  0
M  END
> <minimizedAffinity>
-6.29175

$$$$
4AJL_88W_A_1333


 24 25  0  0  0  0  0  0  0  0999 V2000
   15.4167   -8.5004    3.6056 C   0  0  0  0  0  0  0  0  0  0  0  0
   15.3156   -8.9824    4.8669 N   0  0  0  0  0  0  0  0  0  0  0  0
   14.7746   -8.9422    2.6425 O   0  0  0  0  0  0  0  0  0  0  0  0
   15.9426   -8.6021    5.5238 H   0  0  0  0  0  0  0  0  0  0  0  0
   12.1439  -10.6274    5.8553 C   0  0  0  0  0  0  0  0  0  0  0  0
   13.0629   -9.6555    5.4920 C   0  0  0  0  0  0  0  0  0  0  0  0
   14.8806  -11.2519    5.6421 C   0  0  0  0  0  0  0  0  0  0  0  0
   12.5872  -11.9263    6.1206 C   0  0  0  0  0  0  0  0  0  0  0  0
   14.4216   -9.9652    5.3619 C   0  0  0  0  0  0  0  0  0  0  0  0
   13.9542  -12.2125    6.0217 C   0  0  0  0  0  0  0  0  0  0  0  0
   12.5181  -14.0624    6.7652 C   0  0  0  0  0  0  0  0  0  0  0  0
   11.9942  -15.3572    7.2935 C   0  0  0  0  0  0  0  0  0  0  0  0
   11.7916  -12.9952    6.5299 N   0  0  0  0  0  0  0  0  0  0  0  0
   14.2409  -13.8668    6.4749 S   0  0  0  0  0  0  0  0  0  0  0  0
   16.3929   -7.3464    3.4702 C   0  0  0  0  0  0  0  0  0  0  0  0
   16.3530   -6.6979    2.0988 C   0  0  0  0  0  0  0  0  0  0  0  0
   18.4175   -7.0733    0.8046 C   0  0  0  0  0  0  0  0  0  0  0  0
   19.0086   -7.8398   -0.1354 N   0  0  0  0  0  0  0  0  0  0  0  0
   17.1590   -7.4348    1.1322 N   0  0  0  0  0  0  0  0  0  0  0  0
   18.9900   -6.1112    1.3320 O   0  0  0  0  0  0  0  0  0  0  0  0
   18.4898   -8.5628   -0.5565 H   0  0  0  0  0  0  0  0  0  0  0  0
   16.7689   -8.2290    0.7006 H   0  0  0  0  0  0  0  0  0  0  0  0
   20.5184   -7.3285   -2.0129 C   0  0  0  0  0  0  0  0  0  0  0  0
   20.3982   -7.6299   -0.5491 C   0  0  0  0  0  0  0  0  0  0  0  0
 23 24  1  0  0  0
 24 18  1  0  0  0
 18 17  1  0  0  0
 17 20  2  0  0  0
 17 19  1  0  0  0
 19 16  1  0  0  0
 16 15  1  0  0  0
 15  1  1  0  0  0
  1  3  2  0  0  0
  1  2  1  0  0  0
  2  9  1  0  0  0
  9  6  1  0  0  0
  9  7  2  0  0  0
  6  5  2  0  0  0
  5  8  1  0  0  0
  8 10  2  0  0  0
  8 13  1  0  0  0
 10  7  1  0  0  0
 10 14  1  0  0  0
 14 11  1  0  0  0
 11 13  2  0  0  0
 11 12  1  0  0  0
 18 21  1  0  0  0
  2  4  1  0  0  0
 19 22  1  0  0  0
M  END
> <minimizedAffinity>
-6.15644

$$$$
4AJL_88W_A_1333


 24 25  0  0  0  0  0  0  0  0999 V2000
   17.6480   -7.0075    1.3150 C   0  0  0  0  0  0  0  0  0  0  0  0
   18.5612   -6.0190    1.1648 N   0  0  0  0  0  0  0  0  0  0  0  0
   17.7667   -8.1394    0.8255 O   0  0  0  0  0  0  0  0  0  0  0  0
   18.3079   -5.1408    1.5306 H   0  0  0  0  0  0  0  0  0  0  0  0
   22.2207   -5.6818    0.6780 C   0  0  0  0  0  0  0  0  0  0  0  0
   20.9432   -5.5257    1.1928 C   0  0  0  0  0  0  0  0  0  0  0  0
   19.9958   -6.7783   -0.6535 C   0  0  0  0  0  0  0  0  0  0  0  0
   22.3983   -6.3878   -0.5154 C   0  0  0  0  0  0  0  0  0  0  0  0
   19.8357   -6.0881    0.5477 C   0  0  0  0  0  0  0  0  0  0  0  0
   21.2770   -6.9136   -1.1685 C   0  0  0  0  0  0  0  0  0  0  0  0
   23.4326   -7.2339   -2.3035 C   0  0  0  0  0  0  0  0  0  0  0  0
   24.5091   -7.5478   -3.2898 C   0  0  0  0  0  0  0  0  0  0  0  0
   23.6107   -6.5949   -1.1712 N   0  0  0  0  0  0  0  0  0  0  0  0
   21.7665   -7.6710   -2.6555 S   0  0  0  0  0  0  0  0  0  0  0  0
   16.4499   -6.6080    2.1566 C   0  0  0  0  0  0  0  0  0  0  0  0
   15.1720   -7.3088    1.7335 C   0  0  0  0  0  0  0  0  0  0  0  0
   14.5012   -8.1029   -0.5020 C   0  0  0  0  0  0  0  0  0  0  0  0
   14.3196   -7.7502   -1.7916 N   0  0  0  0  0  0  0  0  0  0  0  0
   14.8899   -7.1033    0.3174 N   0  0  0  0  0  0  0  0  0  0  0  0
   14.3195   -9.2587   -0.0987 O   0  0  0  0  0  0  0  0  0  0  0  0
   14.5254   -6.8277   -2.0671 H   0  0  0  0  0  0  0  0  0  0  0  0
   14.9871   -6.1977   -0.0564 H   0  0  0  0  0  0  0  0  0  0  0  0
   14.9134   -9.1819   -3.7056 C   0  0  0  0  0  0  0  0  0  0  0  0
   13.8258   -8.6968   -2.7948 C   0  0  0  0  0  0  0  0  0  0  0  0
 23 24  1  0  0  0
 24 18  1  0  0  0
 18 17  1  0  0  0
 17 20  2  0  0  0
 17 19  1  0  0  0
 19 16  1  0  0  0
 16 15  1  0  0  0
 15  1  1  0  0  0
  1  3  2  0  0  0
  1  2  1  0  0  0
  2  9  1  0  0  0
  9  6  1  0  0  0
  9  7  2  0  0  0
  6  5  2  0  0  0
  5  8  1  0  0  0
  8 10  2  0  0  0
  8 13  1  0  0  0
 10  7  1  0  0  0
 10 14  1  0  0  0
 14 11  1  0  0  0
 11 13  2  0  0  0
 11 12  1  0  0  0
 18 21  1  0  0  0
  2  4  1  0  0  0
 19 22  1  0  0  0
M  END
> <minimizedAffinity>
-5.91178

$$$$
