6CKS_F5Y_A_201
  RCSB PDB05121802243D
Coordinates from PDB:6CKS:A:201 Model:1 without hydrogens
 31 34  0  0  0  0            999 V2000
   15.5150    6.9840   10.0090   C 0  0  0  0  0  0  0  0  0  0  0  0
   16.4760    5.9330    9.3830   C 0  0  0  0  0  0  0  0  0  0  0  0
   17.7020    6.9060    8.4390   S 0  0  0  0  0  0  0  0  0  0  0  0
   18.8740    6.2300    7.7500   O 0  0  0  0  0  0  0  0  0  0  0  0
   18.1910    7.9080    9.4080   O 0  0  0  0  0  0  0  0  0  0  0  0
   16.8030    7.6340    7.1680   C 0  0  0  0  0  0  0  0  0  0  0  0
   16.2620    8.8690    7.3700   C 0  0  0  0  0  0  0  0  0  0  0  0
   16.7010    7.0010    5.9340   C 0  0  0  0  0  0  0  0  0  0  0  0
   15.9600    7.6760    4.9400   C 0  0  0  0  0  0  0  0  0  0  0  0
   15.3760    8.9550    5.1490   C 0  0  0  0  0  0  0  0  0  0  0  0
   14.6500    9.6680    4.1940   O 0  0  0  0  0  0  0  0  0  0  0  0
   14.5760    9.0910    2.8530   C 0  0  0  0  0  0  0  0  0  0  0  0
   15.5700    9.5840    6.3780   C 0  0  0  0  0  0  0  0  0  0  0  0
   15.0090   10.8590    6.6770   C 0  0  0  0  0  0  0  0  0  0  0  0
   15.4300   12.0600    6.0740   C 0  0  0  0  0  0  0  0  0  0  0  0
   16.4510   12.0680    5.1120   C 0  0  0  0  0  0  0  0  0  0  0  0
   13.9820   10.9540    7.5980   C 0  0  0  0  0  0  0  0  0  0  0  0
   13.3760   12.2000    7.8910   N 0  0  0  0  0  0  0  0  0  0  0  0
   12.2740   12.1510    8.9060   C 0  0  0  0  0  0  0  0  0  0  0  0
   13.7690   13.3760    7.3490   C 0  0  0  0  0  0  0  0  0  0  0  0
   13.1700   14.4340    7.6650   O 0  0  0  0  0  0  0  0  0  0  0  0
   14.8110   13.3140    6.4360   C 0  0  0  0  0  0  0  0  0  0  0  0
   15.2690   14.4900    5.7820   C 0  0  0  0  0  0  0  0  0  0  0  0
   16.2880   14.4610    4.8390   C 0  0  0  0  0  0  0  0  0  0  0  0
   16.9170   13.2590    4.4500   C 0  0  0  0  0  0  0  0  0  0  0  0
   17.9550   13.2360    3.5630   C 0  0  0  0  0  0  0  0  0  0  0  0
   18.5590   14.3290    2.9790   C 0  0  0  0  0  0  0  0  0  0  0  0
   18.6680   12.1460    3.1630   C 0  0  0  0  0  0  0  0  0  0  0  0
   19.6960   12.5630    2.3710   N 0  0  0  0  0  0  0  0  0  0  0  0
   19.6070   13.9030    2.2520   N 0  0  0  0  0  0  0  0  0  0  0  0
   20.5460   14.7620    1.4330   C 0  0  0  0  0  0  0  0  0  0  0  0
 31 30  1  0  0  0  0
 30 29  1  0  0  0  0
 30 27  1  0  0  0  0
 29 28  2  0  0  0  0
 12 11  1  0  0  0  0
 27 26  2  0  0  0  0
 28 26  1  0  0  0  0
 26 25  1  0  0  0  0
 11 10  1  0  0  0  0
 25 24  2  0  0  0  0
 25 16  1  0  0  0  0
 24 23  1  0  0  0  0
  9 10  2  0  0  0  0
  9  8  1  0  0  0  0
 16 15  2  0  0  0  0
 10 13  1  0  0  0  0
 23 22  2  0  0  0  0
  8  6  2  0  0  0  0
 15 22  1  0  0  0  0
 15 14  1  0  0  0  0
 13 14  1  0  0  0  0
 13  7  2  0  0  0  0
 22 20  1  0  0  0  0
 14 17  2  0  0  0  0
  6  7  1  0  0  0  0
  6  3  1  0  0  0  0
 20 21  2  0  0  0  0
 20 18  1  0  0  0  0
 17 18  1  0  0  0  0
  4  3  2  0  0  0  0
 18 19  1  0  0  0  0
  3  2  1  0  0  0  0
  3  5  2  0  0  0  0
  2  1  1  0  0  0  0
A    1
C29
A    2
C28
A    3
S27
A    4
O31
A    5
O30
A    6
C21
A    7
C20
A    8
C22
A    9
C23
A   10
C24
A   11
O25
A   12
C26
A   13
C19
A   14
C10
A   15
C2
A   16
C1
A   17
C9
A   18
N8
A   19
C18
A   20
C7
A   21
O17
A   22
C3
A   23
C4
A   24
C5
A   25
C6
A   26
C11
A   27
C12
A   28
C15
A   29
N14
A   30
N13
A   31
C16
M  END
>  <InstanceId>
6CKS_F5Y_A_201

>  <ChemCompId>
F5Y

>  <PdbId>
6CKS

>  <ChainId>
A

>  <ResidueNumber>
201

>  <InsertionCode>


>  <Model>
1

>  <AltIds>


>  <MissingHeavyAtoms>
0

>  <ObservedFormula>
C23 N3 O4 S

>  <Name>
4-[5-(ethylsulfonyl)-2-methoxyphenyl]-2-methyl-6-(1-methyl-1H-pyrazol-4-yl)isoquinolin-1(2H)-one

>  <SystematicName>
4-(5-ethylsulfonyl-2-methoxy-phenyl)-2-methyl-6-(1-methylpyrazol-4-yl)isoquinolin-1-one

>  <Synonyms>


>  <Type>
NON-POLYMER

>  <Formula>
C23 H23 N3 O4 S

>  <MolecularWeight>
437.511

>  <ModifiedDate>
2018-04-27

>  <Parent>


>  <OneLetterCode>


>  <SubcomponentList>


>  <AmbiguousFlag>
N

>  <InChI>
InChI=1S/C23H23N3O4S/c1-5-31(28,29)17-7-9-22(30-4)20(11-17)21-14-25(2)23(27)18-8-6-15(10-19(18)21)16-12-24-26(3)13-16/h6-14H,5H2,1-4H3

>  <InChIKey>
VFQXMHYHBXHDCR-UHFFFAOYSA-N

>  <SMILES>
CCS(=O)(=O)c1ccc(c(c1)C2=CN(C(=O)c3c2cc(cc3)c4cnn(c4)C)C)OC

$$$$
