2AJ8_SC3_A_1601


 28 31  0  0  0  0  0  0  0  0999 V2000
   -5.9017   23.3585    6.5334 N   0  0  0  0  0  0  0  0  0  0  0  0
   -5.8200   24.5320    5.8296 C   0  0  0  0  0  0  0  0  0  0  0  0
   -5.7480   24.4668    4.4437 N   0  0  0  0  0  0  0  0  0  0  0  0
   -5.7604   23.2313    3.8461 C   0  0  0  0  0  0  0  0  0  0  0  0
   -5.8286   22.0622    4.4873 C   0  0  0  0  0  0  0  0  0  0  0  0
   -5.9128   22.1201    5.9541 C   0  0  0  0  0  0  0  0  0  0  0  0
   -5.8029   21.0599    3.6113 N   0  0  0  0  0  0  0  0  0  0  0  0
   -5.7421   21.5655    2.3775 C   0  0  0  0  0  0  0  0  0  0  0  0
   -5.7051   22.8496    2.4580 N   0  0  0  0  0  0  0  0  0  0  0  0
   -5.9884   21.0876    6.5755 O   0  0  0  0  0  0  0  0  0  0  0  0
   -5.9780   23.4293    7.9997 C   0  0  0  0  0  0  0  0  0  0  0  0
   -5.8137   25.6131    6.4193 O   0  0  0  0  0  0  0  0  0  0  0  0
   -5.6645   25.6853    3.6206 C   0  0  0  0  0  0  0  0  0  0  0  0
   -5.7163   20.7912    1.2245 N   0  0  0  0  0  0  0  0  0  0  0  0
   -4.3813   20.8008    0.5327 C   0  0  0  0  0  0  0  0  0  0  0  0
   -4.2826   21.9892   -0.4470 C   0  0  0  0  0  0  0  0  0  0  0  0
   -5.3321   21.9200   -1.5038 N   0  0  0  0  0  0  0  0  0  0  0  0
   -6.5688   21.1649   -1.1621 C   0  0  0  0  0  0  0  0  0  0  0  0
   -6.8802   21.1852    0.3249 C   0  0  0  0  0  0  0  0  0  0  0  0
   -4.9169   21.4797   -2.3248 H   0  0  0  0  0  0  0  0  0  0  0  0
   -5.6347   22.8834   -1.6478 H   0  0  0  0  0  0  0  0  0  0  0  0
   -5.6291   19.6362    3.9629 C   0  0  0  0  0  0  0  0  0  0  0  0
   -6.7898   18.7051    3.6603 C   0  0  0  0  0  0  0  0  0  0  0  0
   -8.0708   19.0482    4.1218 C   0  0  0  0  0  0  0  0  0  0  0  0
   -9.1626   18.1969    3.8487 C   0  0  0  0  0  0  0  0  0  0  0  0
   -8.9636   16.9950    3.1117 C   0  0  0  0  0  0  0  0  0  0  0  0
   -7.6724   16.6467    2.6455 C   0  0  0  0  0  0  0  0  0  0  0  0
   -6.5811   17.4964    2.9149 C   0  0  0  0  0  0  0  0  0  0  0  0
  1  2  1  0  0  0
  1  6  1  0  0  0
  1 11  1  0  0  0
  2  3  1  0  0  0
  2 12  2  0  0  0
  3  4  1  0  0  0
  3 13  1  0  0  0
  4  5  2  0  0  0
  4  9  1  0  0  0
  5  6  1  0  0  0
  5  7  1  0  0  0
  6 10  2  0  0  0
  7  8  1  0  0  0
  7 22  1  0  0  0
  8  9  2  0  0  0
  8 14  1  0  0  0
 14 15  1  0  0  0
 14 19  1  0  0  0
 15 16  1  0  0  0
 16 17  1  0  0  0
 17 18  1  0  0  0
 18 19  1  0  0  0
 22 23  1  0  0  0
 23 24  1  0  0  0
 23 28  2  0  0  0
 24 25  2  0  0  0
 25 26  1  0  0  0
 26 27  2  0  0  0
 27 28  1  0  0  0
 17 20  1  0  0  0
 17 21  1  0  0  0
M  CHG 1  17   1
M  END
> <minimizedAffinity>
-8.88252

$$$$
2AJ8_SC3_A_1601


 28 31  0  0  0  0  0  0  0  0999 V2000
   -5.8152   21.8562   -1.0781 N   0  0  0  0  0  0  0  0  0  0  0  0
   -4.7193   22.6540   -0.8740 C   0  0  0  0  0  0  0  0  0  0  0  0
   -4.3577   22.9570    0.4328 N   0  0  0  0  0  0  0  0  0  0  0  0
   -5.1156   22.4447    1.4561 C   0  0  0  0  0  0  0  0  0  0  0  0
   -6.1949   21.6729    1.3082 C   0  0  0  0  0  0  0  0  0  0  0  0
   -6.5819   21.3399   -0.0706 C   0  0  0  0  0  0  0  0  0  0  0  0
   -6.7017   21.3651    2.5003 N   0  0  0  0  0  0  0  0  0  0  0  0
   -5.9405   21.9151    3.4488 C   0  0  0  0  0  0  0  0  0  0  0  0
   -4.9899   22.5752    2.8853 N   0  0  0  0  0  0  0  0  0  0  0  0
   -7.5448   20.6344   -0.2523 O   0  0  0  0  0  0  0  0  0  0  0  0
   -6.1963   21.5364   -2.4613 C   0  0  0  0  0  0  0  0  0  0  0  0
   -4.0755   23.0851   -1.8311 O   0  0  0  0  0  0  0  0  0  0  0  0
   -3.1891   23.8027    0.7301 C   0  0  0  0  0  0  0  0  0  0  0  0
   -6.1801   21.7769    4.8101 N   0  0  0  0  0  0  0  0  0  0  0  0
   -6.9193   22.9437    5.4043 C   0  0  0  0  0  0  0  0  0  0  0  0
   -5.9341   24.0467    5.8454 C   0  0  0  0  0  0  0  0  0  0  0  0
   -4.9792   23.5511    6.8778 N   0  0  0  0  0  0  0  0  0  0  0  0
   -4.7189   22.0853    6.8914 C   0  0  0  0  0  0  0  0  0  0  0  0
   -4.8752   21.4459    5.5220 C   0  0  0  0  0  0  0  0  0  0  0  0
   -5.3502   23.8086    7.7923 H   0  0  0  0  0  0  0  0  0  0  0  0
   -4.0841   23.9825    6.6474 H   0  0  0  0  0  0  0  0  0  0  0  0
   -8.0150   20.7265    2.7195 C   0  0  0  0  0  0  0  0  0  0  0  0
   -8.0284   19.2172    2.8850 C   0  0  0  0  0  0  0  0  0  0  0  0
   -9.2445   18.5791    3.1773 C   0  0  0  0  0  0  0  0  0  0  0  0
   -9.2778   17.1769    3.3325 C   0  0  0  0  0  0  0  0  0  0  0  0
   -8.0826   16.4152    3.1963 C   0  0  0  0  0  0  0  0  0  0  0  0
   -6.8547   17.0567    2.9018 C   0  0  0  0  0  0  0  0  0  0  0  0
   -6.8194   18.4564    2.7440 C   0  0  0  0  0  0  0  0  0  0  0  0
  1  2  1  0  0  0
  1  6  1  0  0  0
  1 11  1  0  0  0
  2  3  1  0  0  0
  2 12  2  0  0  0
  3  4  1  0  0  0
  3 13  1  0  0  0
  4  5  2  0  0  0
  4  9  1  0  0  0
  5  6  1  0  0  0
  5  7  1  0  0  0
  6 10  2  0  0  0
  7  8  1  0  0  0
  7 22  1  0  0  0
  8  9  2  0  0  0
  8 14  1  0  0  0
 14 15  1  0  0  0
 14 19  1  0  0  0
 15 16  1  0  0  0
 16 17  1  0  0  0
 17 18  1  0  0  0
 18 19  1  0  0  0
 22 23  1  0  0  0
 23 24  1  0  0  0
 23 28  2  0  0  0
 24 25  2  0  0  0
 25 26  1  0  0  0
 26 27  2  0  0  0
 27 28  1  0  0  0
 17 20  1  0  0  0
 17 21  1  0  0  0
M  CHG 1  17   1
M  END
> <minimizedAffinity>
-8.58082

$$$$
2AJ8_SC3_A_1601


 28 31  0  0  0  0  0  0  0  0999 V2000
   -5.6130   23.9572    7.7500 N   0  0  0  0  0  0  0  0  0  0  0  0
   -5.2549   25.2574    7.5043 C   0  0  0  0  0  0  0  0  0  0  0  0
   -4.8451   25.5979    6.2212 N   0  0  0  0  0  0  0  0  0  0  0  0
   -4.8168   24.6164    5.2622 C   0  0  0  0  0  0  0  0  0  0  0  0
   -5.1460   23.3369    5.4545 C   0  0  0  0  0  0  0  0  0  0  0  0
   -5.5884   22.9674    6.8072 C   0  0  0  0  0  0  0  0  0  0  0  0
   -4.9908   22.6516    4.3236 N   0  0  0  0  0  0  0  0  0  0  0  0
   -4.5795   23.4853    3.3658 C   0  0  0  0  0  0  0  0  0  0  0  0
   -4.4505   24.6628    3.8697 N   0  0  0  0  0  0  0  0  0  0  0  0
   -5.9076   21.8233    7.0246 O   0  0  0  0  0  0  0  0  0  0  0  0
   -6.0466   23.5986    9.1080 C   0  0  0  0  0  0  0  0  0  0  0  0
   -5.3007   26.0969    8.4041 O   0  0  0  0  0  0  0  0  0  0  0  0
   -4.4514   26.9757    5.8809 C   0  0  0  0  0  0  0  0  0  0  0  0
   -4.3349   23.0972    2.0547 N   0  0  0  0  0  0  0  0  0  0  0  0
   -2.8727   23.0756    1.7048 C   0  0  0  0  0  0  0  0  0  0  0  0
   -2.4071   24.4644    1.2188 C   0  0  0  0  0  0  0  0  0  0  0  0
   -3.1507   24.8994    0.0017 N   0  0  0  0  0  0  0  0  0  0  0  0
   -4.5026   24.3081   -0.1964 C   0  0  0  0  0  0  0  0  0  0  0  0
   -5.1827   23.9402    1.1115 C   0  0  0  0  0  0  0  0  0  0  0  0
   -2.5840   24.6569   -0.8110 H   0  0  0  0  0  0  0  0  0  0  0  0
   -3.3084   25.8996    0.1244 H   0  0  0  0  0  0  0  0  0  0  0  0
   -5.0368   21.1796    4.2159 C   0  0  0  0  0  0  0  0  0  0  0  0
   -6.3717   20.5569    3.8473 C   0  0  0  0  0  0  0  0  0  0  0  0
   -7.1086   21.1126    2.7891 C   0  0  0  0  0  0  0  0  0  0  0  0
   -8.3504   20.5466    2.4300 C   0  0  0  0  0  0  0  0  0  0  0  0
   -8.8533   19.4199    3.1404 C   0  0  0  0  0  0  0  0  0  0  0  0
   -8.1120   18.8578    4.2083 C   0  0  0  0  0  0  0  0  0  0  0  0
   -6.8707   19.4198    4.5672 C   0  0  0  0  0  0  0  0  0  0  0  0
  1  2  1  0  0  0
  1  6  1  0  0  0
  1 11  1  0  0  0
  2  3  1  0  0  0
  2 12  2  0  0  0
  3  4  1  0  0  0
  3 13  1  0  0  0
  4  5  2  0  0  0
  4  9  1  0  0  0
  5  6  1  0  0  0
  5  7  1  0  0  0
  6 10  2  0  0  0
  7  8  1  0  0  0
  7 22  1  0  0  0
  8  9  2  0  0  0
  8 14  1  0  0  0
 14 15  1  0  0  0
 14 19  1  0  0  0
 15 16  1  0  0  0
 16 17  1  0  0  0
 17 18  1  0  0  0
 18 19  1  0  0  0
 22 23  1  0  0  0
 23 24  1  0  0  0
 23 28  2  0  0  0
 24 25  2  0  0  0
 25 26  1  0  0  0
 26 27  2  0  0  0
 27 28  1  0  0  0
 17 20  1  0  0  0
 17 21  1  0  0  0
M  CHG 1  17   1
M  END
> <minimizedAffinity>
-7.28881

$$$$
2AJ8_SC3_A_1601


 28 31  0  0  0  0  0  0  0  0999 V2000
   -3.5887   23.9085    5.3229 N   0  0  0  0  0  0  0  0  0  0  0  0
   -4.6453   23.8228    6.1921 C   0  0  0  0  0  0  0  0  0  0  0  0
   -5.6326   22.8785    5.9398 N   0  0  0  0  0  0  0  0  0  0  0  0
   -5.5037   22.0783    4.8321 C   0  0  0  0  0  0  0  0  0  0  0  0
   -4.5007   22.1302    3.9525 C   0  0  0  0  0  0  0  0  0  0  0  0
   -3.4464   23.1211    4.2143 C   0  0  0  0  0  0  0  0  0  0  0  0
   -4.6915   21.2300    2.9902 N   0  0  0  0  0  0  0  0  0  0  0  0
   -5.8163   20.5575    3.2441 C   0  0  0  0  0  0  0  0  0  0  0  0
   -6.3443   21.0261    4.3205 N   0  0  0  0  0  0  0  0  0  0  0  0
   -2.5132   23.1956    3.4517 O   0  0  0  0  0  0  0  0  0  0  0  0
   -2.5448   24.9080    5.5914 C   0  0  0  0  0  0  0  0  0  0  0  0
   -4.7084   24.5669    7.1713 O   0  0  0  0  0  0  0  0  0  0  0  0
   -6.7939   22.7241    6.8323 C   0  0  0  0  0  0  0  0  0  0  0  0
   -6.3024   19.5323    2.4428 N   0  0  0  0  0  0  0  0  0  0  0  0
   -7.7652   19.6709    2.1238 C   0  0  0  0  0  0  0  0  0  0  0  0
   -8.6282   19.0148    3.2223 C   0  0  0  0  0  0  0  0  0  0  0  0
   -8.3365   17.5585    3.3548 N   0  0  0  0  0  0  0  0  0  0  0  0
   -6.9876   17.1092    2.9133 C   0  0  0  0  0  0  0  0  0  0  0  0
   -5.9295   18.1900    3.0579 C   0  0  0  0  0  0  0  0  0  0  0  0
   -9.0283   17.0522    2.8021 H   0  0  0  0  0  0  0  0  0  0  0  0
   -8.3714   17.3659    4.3559 H   0  0  0  0  0  0  0  0  0  0  0  0
   -3.9157   21.1583    1.7358 C   0  0  0  0  0  0  0  0  0  0  0  0
   -4.4304   21.9692    0.5598 C   0  0  0  0  0  0  0  0  0  0  0  0
   -5.2640   21.3432   -0.3808 C   0  0  0  0  0  0  0  0  0  0  0  0
   -5.7545   22.0807   -1.4794 C   0  0  0  0  0  0  0  0  0  0  0  0
   -5.4020   23.4515   -1.6333 C   0  0  0  0  0  0  0  0  0  0  0  0
   -4.5611   24.0851   -0.6860 C   0  0  0  0  0  0  0  0  0  0  0  0
   -4.0721   23.3514    0.4131 C   0  0  0  0  0  0  0  0  0  0  0  0
  1  2  1  0  0  0
  1  6  1  0  0  0
  1 11  1  0  0  0
  2  3  1  0  0  0
  2 12  2  0  0  0
  3  4  1  0  0  0
  3 13  1  0  0  0
  4  5  2  0  0  0
  4  9  1  0  0  0
  5  6  1  0  0  0
  5  7  1  0  0  0
  6 10  2  0  0  0
  7  8  1  0  0  0
  7 22  1  0  0  0
  8  9  2  0  0  0
  8 14  1  0  0  0
 14 15  1  0  0  0
 14 19  1  0  0  0
 15 16  1  0  0  0
 16 17  1  0  0  0
 17 18  1  0  0  0
 18 19  1  0  0  0
 22 23  1  0  0  0
 23 24  1  0  0  0
 23 28  2  0  0  0
 24 25  2  0  0  0
 25 26  1  0  0  0
 26 27  2  0  0  0
 27 28  1  0  0  0
 17 20  1  0  0  0
 17 21  1  0  0  0
M  CHG 1  17   1
M  END
> <minimizedAffinity>
-7.22747

$$$$
2AJ8_SC3_A_1601


 28 31  0  0  0  0  0  0  0  0999 V2000
   -6.3760   21.4722    3.6562 N   0  0  0  0  0  0  0  0  0  0  0  0
   -6.0385   20.1648    3.8924 C   0  0  0  0  0  0  0  0  0  0  0  0
   -5.1045   19.5632    3.0582 N   0  0  0  0  0  0  0  0  0  0  0  0
   -4.5662   20.3058    2.0371 C   0  0  0  0  0  0  0  0  0  0  0  0
   -4.8694   21.5764    1.7611 C   0  0  0  0  0  0  0  0  0  0  0  0
   -5.8513   22.2251    2.6426 C   0  0  0  0  0  0  0  0  0  0  0  0
   -4.1815   21.9885    0.6983 N   0  0  0  0  0  0  0  0  0  0  0  0
   -3.3967   20.9935    0.2788 C   0  0  0  0  0  0  0  0  0  0  0  0
   -3.5914   19.9677    1.0316 N   0  0  0  0  0  0  0  0  0  0  0  0
   -6.1472   23.3777    2.4383 O   0  0  0  0  0  0  0  0  0  0  0  0
   -7.3642   22.1074    4.5399 C   0  0  0  0  0  0  0  0  0  0  0  0
   -6.5536   19.5471    4.8249 O   0  0  0  0  0  0  0  0  0  0  0  0
   -4.6880   18.1642    3.2541 C   0  0  0  0  0  0  0  0  0  0  0  0
   -2.5331   21.0934   -0.8046 N   0  0  0  0  0  0  0  0  0  0  0  0
   -2.4411   19.8265   -1.6092 C   0  0  0  0  0  0  0  0  0  0  0  0
   -1.3606   18.8891   -1.0300 C   0  0  0  0  0  0  0  0  0  0  0  0
   -0.0128   19.5266   -1.0460 N   0  0  0  0  0  0  0  0  0  0  0  0
    0.0173   21.0150   -1.0313 C   0  0  0  0  0  0  0  0  0  0  0  0
   -1.1861   21.6222   -0.3301 C   0  0  0  0  0  0  0  0  0  0  0  0
    0.4675   19.2151   -1.8902 H   0  0  0  0  0  0  0  0  0  0  0  0
    0.4329   19.2387   -0.1749 H   0  0  0  0  0  0  0  0  0  0  0  0
   -4.4279   23.2496   -0.0293 C   0  0  0  0  0  0  0  0  0  0  0  0
   -5.0539   23.1387   -1.4082 C   0  0  0  0  0  0  0  0  0  0  0  0
   -4.7995   24.1483   -2.3503 C   0  0  0  0  0  0  0  0  0  0  0  0
   -5.3703   24.0619   -3.6380 C   0  0  0  0  0  0  0  0  0  0  0  0
   -6.2024   22.9575   -3.9771 C   0  0  0  0  0  0  0  0  0  0  0  0
   -6.4608   21.9380   -3.0284 C   0  0  0  0  0  0  0  0  0  0  0  0
   -5.8900   22.0209   -1.7428 C   0  0  0  0  0  0  0  0  0  0  0  0
  1  2  1  0  0  0
  1  6  1  0  0  0
  1 11  1  0  0  0
  2  3  1  0  0  0
  2 12  2  0  0  0
  3  4  1  0  0  0
  3 13  1  0  0  0
  4  5  2  0  0  0
  4  9  1  0  0  0
  5  6  1  0  0  0
  5  7  1  0  0  0
  6 10  2  0  0  0
  7  8  1  0  0  0
  7 22  1  0  0  0
  8  9  2  0  0  0
  8 14  1  0  0  0
 14 15  1  0  0  0
 14 19  1  0  0  0
 15 16  1  0  0  0
 16 17  1  0  0  0
 17 18  1  0  0  0
 18 19  1  0  0  0
 22 23  1  0  0  0
 23 24  1  0  0  0
 23 28  2  0  0  0
 24 25  2  0  0  0
 25 26  1  0  0  0
 26 27  2  0  0  0
 27 28  1  0  0  0
 17 20  1  0  0  0
 17 21  1  0  0  0
M  CHG 1  17   1
M  END
> <minimizedAffinity>
-7.18195

$$$$
2AJ8_SC3_A_1601


 28 31  0  0  0  0  0  0  0  0999 V2000
   -4.2281   24.0849   -0.3934 N   0  0  0  0  0  0  0  0  0  0  0  0
   -5.0441   23.3842   -1.2432 C   0  0  0  0  0  0  0  0  0  0  0  0
   -5.7758   22.3211   -0.7287 N   0  0  0  0  0  0  0  0  0  0  0  0
   -5.6453   22.0226    0.6046 C   0  0  0  0  0  0  0  0  0  0  0  0
   -4.8581   22.6677    1.4686 C   0  0  0  0  0  0  0  0  0  0  0  0
   -4.0849   23.7994    0.9360 C   0  0  0  0  0  0  0  0  0  0  0  0
   -4.9550   22.1132    2.6752 N   0  0  0  0  0  0  0  0  0  0  0  0
   -5.8314   21.1079    2.6198 C   0  0  0  0  0  0  0  0  0  0  0  0
   -6.2652   21.0033    1.4123 N   0  0  0  0  0  0  0  0  0  0  0  0
   -3.3684   24.4201    1.6839 O   0  0  0  0  0  0  0  0  0  0  0  0
   -3.4548   25.2096   -0.9393 C   0  0  0  0  0  0  0  0  0  0  0  0
   -5.1224   23.6977   -2.4315 O   0  0  0  0  0  0  0  0  0  0  0  0
   -6.6778   21.5263   -1.5795 C   0  0  0  0  0  0  0  0  0  0  0  0
   -6.1800   20.3243    3.7124 N   0  0  0  0  0  0  0  0  0  0  0  0
   -5.3584   19.0704    3.8301 C   0  0  0  0  0  0  0  0  0  0  0  0
   -5.9854   17.9274    3.0042 C   0  0  0  0  0  0  0  0  0  0  0  0
   -7.3638   17.6029    3.4712 N   0  0  0  0  0  0  0  0  0  0  0  0
   -8.1039   18.6940    4.1628 C   0  0  0  0  0  0  0  0  0  0  0  0
   -7.6828   20.0782    3.6991 C   0  0  0  0  0  0  0  0  0  0  0  0
   -7.2952   16.8167    4.1175 H   0  0  0  0  0  0  0  0  0  0  0  0
   -7.8976   17.4090    2.6240 H   0  0  0  0  0  0  0  0  0  0  0  0
   -4.0645   22.4111    3.8148 C   0  0  0  0  0  0  0  0  0  0  0  0
   -4.6533   23.2212    4.9561 C   0  0  0  0  0  0  0  0  0  0  0  0
   -4.8554   22.5953    6.1966 C   0  0  0  0  0  0  0  0  0  0  0  0
   -5.3993   23.3321    7.2702 C   0  0  0  0  0  0  0  0  0  0  0  0
   -5.7440   24.7022    7.0934 C   0  0  0  0  0  0  0  0  0  0  0  0
   -5.5414   25.3356    5.8430 C   0  0  0  0  0  0  0  0  0  0  0  0
   -4.9961   24.6026    4.7702 C   0  0  0  0  0  0  0  0  0  0  0  0
  1  2  1  0  0  0
  1  6  1  0  0  0
  1 11  1  0  0  0
  2  3  1  0  0  0
  2 12  2  0  0  0
  3  4  1  0  0  0
  3 13  1  0  0  0
  4  5  2  0  0  0
  4  9  1  0  0  0
  5  6  1  0  0  0
  5  7  1  0  0  0
  6 10  2  0  0  0
  7  8  1  0  0  0
  7 22  1  0  0  0
  8  9  2  0  0  0
  8 14  1  0  0  0
 14 15  1  0  0  0
 14 19  1  0  0  0
 15 16  1  0  0  0
 16 17  1  0  0  0
 17 18  1  0  0  0
 18 19  1  0  0  0
 22 23  1  0  0  0
 23 24  1  0  0  0
 23 28  2  0  0  0
 24 25  2  0  0  0
 25 26  1  0  0  0
 26 27  2  0  0  0
 27 28  1  0  0  0
 17 20  1  0  0  0
 17 21  1  0  0  0
M  CHG 1  17   1
M  END
> <minimizedAffinity>
-7.10508

$$$$
2AJ8_SC3_A_1601


 28 31  0  0  0  0  0  0  0  0999 V2000
   -5.8855   22.8975    6.3008 N   0  0  0  0  0  0  0  0  0  0  0  0
   -4.5713   23.2301    6.5047 C   0  0  0  0  0  0  0  0  0  0  0  0
   -3.6834   23.0914    5.4452 N   0  0  0  0  0  0  0  0  0  0  0  0
   -4.1639   22.6266    4.2465 C   0  0  0  0  0  0  0  0  0  0  0  0
   -5.4301   22.2810    4.0019 C   0  0  0  0  0  0  0  0  0  0  0  0
   -6.3798   22.4311    5.1144 C   0  0  0  0  0  0  0  0  0  0  0  0
   -5.5523   21.8572    2.7457 N   0  0  0  0  0  0  0  0  0  0  0  0
   -4.3648   21.9447    2.1425 C   0  0  0  0  0  0  0  0  0  0  0  0
   -3.5021   22.3866    2.9895 N   0  0  0  0  0  0  0  0  0  0  0  0
   -7.5384   22.1421    4.9357 O   0  0  0  0  0  0  0  0  0  0  0  0
   -6.8237   23.0451    7.4228 C   0  0  0  0  0  0  0  0  0  0  0  0
   -4.1963   23.6432    7.6025 O   0  0  0  0  0  0  0  0  0  0  0  0
   -2.2582   23.4347    5.5873 C   0  0  0  0  0  0  0  0  0  0  0  0
   -4.1430   21.5954    0.8164 N   0  0  0  0  0  0  0  0  0  0  0  0
   -2.8760   20.8118    0.6129 C   0  0  0  0  0  0  0  0  0  0  0  0
   -1.6756   21.7591    0.4043 C   0  0  0  0  0  0  0  0  0  0  0  0
   -1.8610   22.6267   -0.7942 N   0  0  0  0  0  0  0  0  0  0  0  0
   -3.2654   22.8835   -1.2164 C   0  0  0  0  0  0  0  0  0  0  0  0
   -4.2471   22.8380   -0.0578 C   0  0  0  0  0  0  0  0  0  0  0  0
   -1.3784   22.1831   -1.5757 H   0  0  0  0  0  0  0  0  0  0  0  0
   -1.4876   23.5380   -0.5286 H   0  0  0  0  0  0  0  0  0  0  0  0
   -6.7450   21.1830    2.1948 C   0  0  0  0  0  0  0  0  0  0  0  0
   -6.9112   19.7077    2.5131 C   0  0  0  0  0  0  0  0  0  0  0  0
   -8.2065   19.1943    2.6864 C   0  0  0  0  0  0  0  0  0  0  0  0
   -8.3817   17.8253    2.9803 C   0  0  0  0  0  0  0  0  0  0  0  0
   -7.2492   16.9712    3.1034 C   0  0  0  0  0  0  0  0  0  0  0  0
   -5.9415   17.4868    2.9294 C   0  0  0  0  0  0  0  0  0  0  0  0
   -5.7643   18.8529    2.6335 C   0  0  0  0  0  0  0  0  0  0  0  0
  1  2  1  0  0  0
  1  6  1  0  0  0
  1 11  1  0  0  0
  2  3  1  0  0  0
  2 12  2  0  0  0
  3  4  1  0  0  0
  3 13  1  0  0  0
  4  5  2  0  0  0
  4  9  1  0  0  0
  5  6  1  0  0  0
  5  7  1  0  0  0
  6 10  2  0  0  0
  7  8  1  0  0  0
  7 22  1  0  0  0
  8  9  2  0  0  0
  8 14  1  0  0  0
 14 15  1  0  0  0
 14 19  1  0  0  0
 15 16  1  0  0  0
 16 17  1  0  0  0
 17 18  1  0  0  0
 18 19  1  0  0  0
 22 23  1  0  0  0
 23 24  1  0  0  0
 23 28  2  0  0  0
 24 25  2  0  0  0
 25 26  1  0  0  0
 26 27  2  0  0  0
 27 28  1  0  0  0
 17 20  1  0  0  0
 17 21  1  0  0  0
M  CHG 1  17   1
M  END
> <minimizedAffinity>
-6.99551

$$$$
2AJ8_SC3_A_1601


 28 31  0  0  0  0  0  0  0  0999 V2000
   -2.8563   23.9603    4.3059 N   0  0  0  0  0  0  0  0  0  0  0  0
   -3.3004   23.5460    5.5348 C   0  0  0  0  0  0  0  0  0  0  0  0
   -4.1846   22.4758    5.5908 N   0  0  0  0  0  0  0  0  0  0  0  0
   -4.5722   21.8862    4.4135 C   0  0  0  0  0  0  0  0  0  0  0  0
   -4.1760   22.2588    3.1942 C   0  0  0  0  0  0  0  0  0  0  0  0
   -3.2341   23.3858    3.1241 C   0  0  0  0  0  0  0  0  0  0  0  0
   -4.7518   21.4892    2.2729 N   0  0  0  0  0  0  0  0  0  0  0  0
   -5.5170   20.5822    2.8841 C   0  0  0  0  0  0  0  0  0  0  0  0
   -5.4551   20.7775    4.1549 N   0  0  0  0  0  0  0  0  0  0  0  0
   -2.8391   23.7498    2.0428 O   0  0  0  0  0  0  0  0  0  0  0  0
   -1.9207   25.0925    4.2485 C   0  0  0  0  0  0  0  0  0  0  0  0
   -2.9179   24.1126    6.5591 O   0  0  0  0  0  0  0  0  0  0  0  0
   -4.6996   21.9711    6.8750 C   0  0  0  0  0  0  0  0  0  0  0  0
   -6.2498   19.6106    2.2144 N   0  0  0  0  0  0  0  0  0  0  0  0
   -7.6705   20.0209    1.9422 C   0  0  0  0  0  0  0  0  0  0  0  0
   -8.5801   19.6652    3.1371 C   0  0  0  0  0  0  0  0  0  0  0  0
   -8.5835   18.1991    3.4089 N   0  0  0  0  0  0  0  0  0  0  0  0
   -7.3839   17.4388    2.9623 C   0  0  0  0  0  0  0  0  0  0  0  0
   -6.1211   18.2836    2.9504 C   0  0  0  0  0  0  0  0  0  0  0  0
   -9.3964   17.7988    2.9404 H   0  0  0  0  0  0  0  0  0  0  0  0
   -8.5955   18.1125    4.4251 H   0  0  0  0  0  0  0  0  0  0  0  0
   -4.7309   21.7528    0.8201 C   0  0  0  0  0  0  0  0  0  0  0  0
   -3.7186   20.9794   -0.0061 C   0  0  0  0  0  0  0  0  0  0  0  0
   -3.8810   20.9267   -1.3998 C   0  0  0  0  0  0  0  0  0  0  0  0
   -2.9494   20.2149   -2.1851 C   0  0  0  0  0  0  0  0  0  0  0  0
   -1.8528   19.5514   -1.5652 C   0  0  0  0  0  0  0  0  0  0  0  0
   -1.6870   19.6028   -0.1595 C   0  0  0  0  0  0  0  0  0  0  0  0
   -2.6146   20.3149    0.6265 C   0  0  0  0  0  0  0  0  0  0  0  0
  1  2  1  0  0  0
  1  6  1  0  0  0
  1 11  1  0  0  0
  2  3  1  0  0  0
  2 12  2  0  0  0
  3  4  1  0  0  0
  3 13  1  0  0  0
  4  5  2  0  0  0
  4  9  1  0  0  0
  5  6  1  0  0  0
  5  7  1  0  0  0
  6 10  2  0  0  0
  7  8  1  0  0  0
  7 22  1  0  0  0
  8  9  2  0  0  0
  8 14  1  0  0  0
 14 15  1  0  0  0
 14 19  1  0  0  0
 15 16  1  0  0  0
 16 17  1  0  0  0
 17 18  1  0  0  0
 18 19  1  0  0  0
 22 23  1  0  0  0
 23 24  1  0  0  0
 23 28  2  0  0  0
 24 25  2  0  0  0
 25 26  1  0  0  0
 26 27  2  0  0  0
 27 28  1  0  0  0
 17 20  1  0  0  0
 17 21  1  0  0  0
M  CHG 1  17   1
M  END
> <minimizedAffinity>
-6.95016

$$$$
2AJ8_SC3_A_1601


 28 31  0  0  0  0  0  0  0  0999 V2000
   -5.5778   21.1383    5.2076 N   0  0  0  0  0  0  0  0  0  0  0  0
   -6.3576   20.1082    4.7493 C   0  0  0  0  0  0  0  0  0  0  0  0
   -6.4378   19.9009    3.3779 N   0  0  0  0  0  0  0  0  0  0  0  0
   -5.7345   20.7379    2.5482 C   0  0  0  0  0  0  0  0  0  0  0  0
   -4.9710   21.7587    2.9451 C   0  0  0  0  0  0  0  0  0  0  0  0
   -4.8730   21.9823    4.3950 C   0  0  0  0  0  0  0  0  0  0  0  0
   -4.4463   22.3736    1.8872 N   0  0  0  0  0  0  0  0  0  0  0  0
   -4.8431   21.7430    0.7797 C   0  0  0  0  0  0  0  0  0  0  0  0
   -5.6172   20.7699    1.1126 N   0  0  0  0  0  0  0  0  0  0  0  0
   -4.1838   22.8869    4.8008 O   0  0  0  0  0  0  0  0  0  0  0  0
   -5.4937   21.3562    6.6589 C   0  0  0  0  0  0  0  0  0  0  0  0
   -6.9664   19.3877    5.5409 O   0  0  0  0  0  0  0  0  0  0  0  0
   -7.2504   18.8106    2.8121 C   0  0  0  0  0  0  0  0  0  0  0  0
   -4.4632   22.1182   -0.5027 N   0  0  0  0  0  0  0  0  0  0  0  0
   -5.5843   22.7243   -1.3005 C   0  0  0  0  0  0  0  0  0  0  0  0
   -6.3929   21.6282   -2.0261 C   0  0  0  0  0  0  0  0  0  0  0  0
   -5.5414   20.8514   -2.9721 N   0  0  0  0  0  0  0  0  0  0  0  0
   -4.0831   20.8143   -2.6747 C   0  0  0  0  0  0  0  0  0  0  0  0
   -3.7804   20.9441   -1.1914 C   0  0  0  0  0  0  0  0  0  0  0  0
   -5.6583   21.2582   -3.9001 H   0  0  0  0  0  0  0  0  0  0  0  0
   -5.8586   19.8854   -2.8904 H   0  0  0  0  0  0  0  0  0  0  0  0
   -3.7436   23.6717    1.9282 C   0  0  0  0  0  0  0  0  0  0  0  0
   -4.5905   24.9197    1.7521 C   0  0  0  0  0  0  0  0  0  0  0  0
   -4.4621   25.6632    0.5680 C   0  0  0  0  0  0  0  0  0  0  0  0
   -5.2423   26.8247    0.3847 C   0  0  0  0  0  0  0  0  0  0  0  0
   -6.1520   27.2407    1.3979 C   0  0  0  0  0  0  0  0  0  0  0  0
   -6.2829   26.4925    2.5933 C   0  0  0  0  0  0  0  0  0  0  0  0
   -5.5067   25.3311    2.7776 C   0  0  0  0  0  0  0  0  0  0  0  0
  1  2  1  0  0  0
  1  6  1  0  0  0
  1 11  1  0  0  0
  2  3  1  0  0  0
  2 12  2  0  0  0
  3  4  1  0  0  0
  3 13  1  0  0  0
  4  5  2  0  0  0
  4  9  1  0  0  0
  5  6  1  0  0  0
  5  7  1  0  0  0
  6 10  2  0  0  0
  7  8  1  0  0  0
  7 22  1  0  0  0
  8  9  2  0  0  0
  8 14  1  0  0  0
 14 15  1  0  0  0
 14 19  1  0  0  0
 15 16  1  0  0  0
 16 17  1  0  0  0
 17 18  1  0  0  0
 18 19  1  0  0  0
 22 23  1  0  0  0
 23 24  1  0  0  0
 23 28  2  0  0  0
 24 25  2  0  0  0
 25 26  1  0  0  0
 26 27  2  0  0  0
 27 28  1  0  0  0
 17 20  1  0  0  0
 17 21  1  0  0  0
M  CHG 1  17   1
M  END
> <minimizedAffinity>
-6.82385

$$$$
2AJ8_SC3_A_1601


 28 31  0  0  0  0  0  0  0  0999 V2000
   -5.4342   19.7713    3.3091 N   0  0  0  0  0  0  0  0  0  0  0  0
   -5.9966   20.3170    4.4338 C   0  0  0  0  0  0  0  0  0  0  0  0
   -6.1684   21.6948    4.4837 N   0  0  0  0  0  0  0  0  0  0  0  0
   -5.7655   22.4431    3.4060 C   0  0  0  0  0  0  0  0  0  0  0  0
   -5.2050   21.9600    2.2947 C   0  0  0  0  0  0  0  0  0  0  0  0
   -5.0254   20.5022    2.2283 C   0  0  0  0  0  0  0  0  0  0  0  0
   -4.9209   22.9557    1.4577 N   0  0  0  0  0  0  0  0  0  0  0  0
   -5.3174   24.1069    2.0049 C   0  0  0  0  0  0  0  0  0  0  0  0
   -5.8175   23.8626    3.1656 N   0  0  0  0  0  0  0  0  0  0  0  0
   -4.5335   20.0193    1.2370 O   0  0  0  0  0  0  0  0  0  0  0  0
   -5.2532   18.3134    3.2578 C   0  0  0  0  0  0  0  0  0  0  0  0
   -6.3404   19.5961    5.3711 O   0  0  0  0  0  0  0  0  0  0  0  0
   -6.7710   22.3517    5.6561 C   0  0  0  0  0  0  0  0  0  0  0  0
   -5.1832   25.3439    1.3873 N   0  0  0  0  0  0  0  0  0  0  0  0
   -3.7713   25.8611    1.3947 C   0  0  0  0  0  0  0  0  0  0  0  0
   -3.4851   26.6484    2.6908 C   0  0  0  0  0  0  0  0  0  0  0  0
   -4.3915   27.8239    2.8322 N   0  0  0  0  0  0  0  0  0  0  0  0
   -5.6996   27.7417    2.1262 C   0  0  0  0  0  0  0  0  0  0  0  0
   -6.1990   26.3148    1.9743 C   0  0  0  0  0  0  0  0  0  0  0  0
   -3.8971   28.6414    2.4748 H   0  0  0  0  0  0  0  0  0  0  0  0
   -4.6223   27.8694    3.8247 H   0  0  0  0  0  0  0  0  0  0  0  0
   -4.0928   22.8259    0.2420 C   0  0  0  0  0  0  0  0  0  0  0  0
   -4.8238   22.7815   -1.0881 C   0  0  0  0  0  0  0  0  0  0  0  0
   -5.6799   21.7008   -1.3542 C   0  0  0  0  0  0  0  0  0  0  0  0
   -6.3700   21.6428   -2.5838 C   0  0  0  0  0  0  0  0  0  0  0  0
   -6.1950   22.6741   -3.5497 C   0  0  0  0  0  0  0  0  0  0  0  0
   -5.3317   23.7649   -3.2838 C   0  0  0  0  0  0  0  0  0  0  0  0
   -4.6435   23.8263   -2.0558 C   0  0  0  0  0  0  0  0  0  0  0  0
  1  2  1  0  0  0
  1  6  1  0  0  0
  1 11  1  0  0  0
  2  3  1  0  0  0
  2 12  2  0  0  0
  3  4  1  0  0  0
  3 13  1  0  0  0
  4  5  2  0  0  0
  4  9  1  0  0  0
  5  6  1  0  0  0
  5  7  1  0  0  0
  6 10  2  0  0  0
  7  8  1  0  0  0
  7 22  1  0  0  0
  8  9  2  0  0  0
  8 14  1  0  0  0
 14 15  1  0  0  0
 14 19  1  0  0  0
 15 16  1  0  0  0
 16 17  1  0  0  0
 17 18  1  0  0  0
 18 19  1  0  0  0
 22 23  1  0  0  0
 23 24  1  0  0  0
 23 28  2  0  0  0
 24 25  2  0  0  0
 25 26  1  0  0  0
 26 27  2  0  0  0
 27 28  1  0  0  0
 17 20  1  0  0  0
 17 21  1  0  0  0
M  CHG 1  17   1
M  END
> <minimizedAffinity>
-6.69157

$$$$
