1IF8_SBS_A_555
  RCSB PDB12061702503D
Coordinates from PDB:1IF8:A:555 Model:1 without hydrogens
 26 28  0  0  0  0            999 V2000
   -0.6930    8.1310   12.6340   C 0  0  0  0  0  0  0  0  0  0  0  0
   -1.3240    6.9590   13.4850   C 0  0  0  0  0  0  0  0  0  0  0  0
   -2.6530    6.4880   12.8880   C 0  0  0  0  0  0  0  0  0  0  0  0
   -2.9960    5.1670   13.5830   N 0  0  0  0  0  0  0  0  0  0  0  0
   -4.3520    5.1130   14.1120   C 0  0  0  0  0  0  0  0  0  0  0  0
   -5.0820    6.0970   13.9510   O 0  0  0  0  0  0  0  0  0  0  0  0
   -4.7640    3.9310   14.7890   C 0  0  0  0  0  0  0  0  0  0  0  0
   -3.8710    2.8290   14.9440   C 0  0  0  0  0  0  0  0  0  0  0  0
   -4.2720    1.6380   15.6340   C 0  0  0  0  0  0  0  0  0  0  0  0
   -5.6040    1.5140   16.2020   C 0  0  0  0  0  0  0  0  0  0  0  0
   -6.4850    2.6340   16.0310   C 0  0  0  0  0  0  0  0  0  0  0  0
   -6.0760    3.8090   15.3410   C 0  0  0  0  0  0  0  0  0  0  0  0
   -6.1150    0.2340   17.0070   S 0  0  0  0  0  0  0  0  0  0  0  0
   -5.5220    0.2440   18.3340   O 0  0  0  0  0  0  0  0  0  0  0  0
   -7.5440    0.3170   17.1290   O 0  0  0  0  0  0  0  0  0  0  0  0
   -5.8280   -1.1030   16.2890   N 0  0  0  0  0  0  0  0  0  0  0  0
    0.6010    8.4970   13.2440   N 0  0  0  0  0  0  0  0  0  0  0  0
    1.8200    7.8620   12.9560   C 0  0  0  0  0  0  0  0  0  0  0  0
    2.8840    8.5310   13.7870   C 0  0  0  0  0  0  0  0  0  0  0  0
    0.8390    9.4810   14.1640   C 0  0  0  0  0  0  0  0  0  0  0  0
   -0.0670   10.4270   14.7940   C 0  0  0  0  0  0  0  0  0  0  0  0
    0.4230   11.3670   15.7480   C 0  0  0  0  0  0  0  0  0  0  0  0
    1.8280   11.3810   16.0910   C 0  0  0  0  0  0  0  0  0  0  0  0
    2.7420   10.4390   15.4590   C 0  0  0  0  0  0  0  0  0  0  0  0
    2.2370    9.4860   14.4890   C 0  0  0  0  0  0  0  0  0  0  0  0
   -1.6060    7.4340   14.9370   C 0  0  0  0  0  0  0  0  0  0  0  0
  1  2  1  0  0  0  0
  1 17  1  0  0  0  0
  2  3  1  0  0  0  0
  2 26  1  0  0  0  0
  3  4  1  0  0  0  0
  4  5  1  0  0  0  0
  5  6  2  0  0  0  0
  5  7  1  0  0  0  0
  7  8  2  0  0  0  0
  7 12  1  0  0  0  0
  8  9  1  0  0  0  0
  9 10  2  0  0  0  0
 10 11  1  0  0  0  0
 10 13  1  0  0  0  0
 11 12  2  0  0  0  0
 13 14  2  0  0  0  0
 13 15  2  0  0  0  0
 13 16  1  0  0  0  0
 17 18  1  0  0  0  0
 17 20  1  0  0  0  0
 18 19  2  0  0  0  0
 19 25  1  0  0  0  0
 20 21  2  0  0  0  0
 20 25  1  0  0  0  0
 21 22  1  0  0  0  0
 22 23  2  0  0  0  0
 23 24  1  0  0  0  0
 24 25  2  0  0  0  0
A    1
C01
A    2
C02
A    3
C03
A    4
N04
A    5
C05
A    6
O06
A    7
C07
A    8
C08
A    9
C09
A   10
C10
A   11
C11
A   12
C12
A   13
S13
A   14
O14
A   15
O15
A   16
NP6
A   17
NP7
A   18
C18
A   19
C19
A   20
C20
A   21
C21
A   22
C22
A   23
C23
A   24
C24
A   25
C25
A   26
C26
M  END
>  <InstanceId>
1IF8_SBS_A_555

>  <ChemCompId>
SBS

>  <PdbId>
1IF8

>  <ChainId>
A

>  <ResidueNumber>
555

>  <InsertionCode>


>  <Model>
1

>  <AltIds>


>  <MissingHeavyAtoms>
0

>  <ObservedFormula>
C19 N3 O3 S

>  <Name>
(S)-N-(3-INDOL-1-YL-2-METHYL-PROPYL)-4-SULFAMOYL-BENZAMIDE

>  <SystematicName>
N-[(2S)-3-indol-1-yl-2-methyl-propyl]-4-sulfamoyl-benzamide

>  <Synonyms>


>  <Type>
NON-POLYMER

>  <Formula>
C19 H21 N3 O3 S

>  <MolecularWeight>
371.453

>  <ModifiedDate>
2011-06-04

>  <Parent>


>  <OneLetterCode>


>  <SubcomponentList>


>  <AmbiguousFlag>
N

>  <InChI>
InChI=1S/C19H21N3O3S/c1-14(13-22-11-10-15-4-2-3-5-18(15)22)12-21-19(23)16-6-8-17(9-7-16)26(20,24)25/h2-11,14H,12-13H2,1H3,(H,21,23)(H2,20,24,25)/t14-/m0/s1

>  <InChIKey>
ZFWHOUCRVSOZJE-AWEZNQCLSA-N

>  <SMILES>
C[C@@H](CNC(=O)c1ccc(cc1)S(=O)(=O)N)Cn2ccc3c2cccc3

$$$$
