4OC5_2QM_A_818


 39 40  0  0  0  0  0  0  0  0999 V2000
   20.2565   45.3772   44.3472 C   0  0  0  0  0  0  0  0  0  0  0  0
   17.5126   45.7739   41.9808 N   0  0  0  0  0  0  0  0  0  0  0  0
   18.2947   45.1617   42.8596 C   0  0  0  0  0  0  0  0  0  0  0  0
   17.9429   44.0860   43.3492 O   0  0  0  0  0  0  0  0  0  0  0  0
   19.3643   45.8433   43.2775 N   0  0  0  0  0  0  0  0  0  0  0  0
   17.6504   46.7286   41.7838 H   0  0  0  0  0  0  0  0  0  0  0  0
   19.5657   46.7046   42.8453 H   0  0  0  0  0  0  0  0  0  0  0  0
   16.4385   45.0320   41.2980 C   0  0  0  0  0  0  0  0  0  0  0  0
   14.0553   45.6406   41.2900 C   0  0  0  0  0  0  0  0  0  0  0  0
   13.0061   46.4752   40.9726 C   0  0  0  0  0  0  0  0  0  0  0  0
   13.2186   47.6400   40.2425 C   0  0  0  0  0  0  0  0  0  0  0  0
   12.1467   48.4204   39.9348 O   0  0  0  0  0  0  0  0  0  0  0  0
   14.4942   48.0242   39.8382 C   0  0  0  0  0  0  0  0  0  0  0  0
   15.5605   47.1709   40.1848 C   0  0  0  0  0  0  0  0  0  0  0  0
   15.3461   46.0075   40.9269 C   0  0  0  0  0  0  0  0  0  0  0  0
   12.2671   49.2093   39.4438 H   0  0  0  0  0  0  0  0  0  0  0  0
   17.0299   44.4363   39.9933 C   0  0  0  0  0  0  0  0  0  0  0  0
   16.2799   43.6756   39.2944 O   0  0  0  0  0  0  0  0  0  0  0  0
   18.1919   44.8054   39.6545 O   0  0  0  0  0  0  0  0  0  0  0  0
   18.6882   45.3662   40.2178 H   0  0  0  0  0  0  0  0  0  0  0  0
   20.0819   46.3123   45.5557 C   0  0  0  0  0  0  0  0  0  0  0  0
   20.5702   45.9607   46.6914 O   0  0  0  0  0  0  0  0  0  0  0  0
   19.4955   47.3722   45.2615 O   0  0  0  0  0  0  0  0  0  0  0  0
   19.1838   47.5084   44.3885 H   0  0  0  0  0  0  0  0  0  0  0  0
   21.7457   45.3689   43.9185 C   0  0  0  0  0  0  0  0  0  0  0  0
   21.9899   45.9981   42.5895 C   0  0  0  0  0  0  0  0  0  0  0  0
   23.4842   46.4317   42.4759 C   0  0  0  0  0  0  0  0  0  0  0  0
   23.5476   47.9449   42.5021 C   0  0  0  0  0  0  0  0  0  0  0  0
   23.7834   48.3943   43.8786 N   0  0  0  0  0  0  0  0  0  0  0  0
   22.8484   49.0225   44.5993 C   0  0  0  0  0  0  0  0  0  0  0  0
   21.7117   49.1941   44.1485 O   0  0  0  0  0  0  0  0  0  0  0  0
   24.6633   48.2271   44.2872 H   0  0  0  0  0  0  0  0  0  0  0  0
   23.1393   49.3795   46.0988 C   0  0  0  0  0  0  0  0  0  0  0  0
   23.2387   50.7109   46.5304 C   0  0  0  0  0  0  0  0  0  0  0  0
   23.4683   51.0445   47.8963 C   0  0  0  0  0  0  0  0  0  0  0  0
   23.5501   50.1064   48.9422 C   0  0  0  0  0  0  0  0  0  0  0  0
   23.8550   50.6258   51.0405 I   0  0  0  0  0  0  0  0  0  0  0  0
   23.4013   48.7735   48.4848 C   0  0  0  0  0  0  0  0  0  0  0  0
   23.2100   48.4211   47.1133 C   0  0  0  0  0  0  0  0  0  0  0  0
 18 17  2  0  0  0
 13 11  2  0  0  0
 13 14  1  0  0  0
 12 11  1  0  0  0
 11 10  1  0  0  0
 14 15  2  0  0  0
 17 19  1  0  0  0
 17  8  1  0  0  0
 10  9  2  0  0  0
 15  9  1  0  0  0
 15  8  1  0  0  0
  8  2  1  0  0  0
  4  3  2  0  0  0
  2  3  1  0  0  0
 27 28  1  0  0  0
 27 26  1  0  0  0
 28 29  1  0  0  0
  3  5  1  0  0  0
 26 25  1  0  0  0
 25  1  1  0  0  0
  5  1  1  0  0  0
 31 30  2  0  0  0
 29 30  1  0  0  0
  1 21  1  0  0  0
 30 33  1  0  0  0
 21 22  2  0  0  0
 21 23  1  0  0  0
 33 34  2  0  0  0
 33 39  1  0  0  0
 34 35  1  0  0  0
 39 38  2  0  0  0
 35 36  2  0  0  0
 38 36  1  0  0  0
 36 37  1  0  0  0
 12 16  1  0  0  0
 19 20  1  0  0  0
  2  6  1  0  0  0
  5  7  1  0  0  0
 23 24  1  0  0  0
 29 32  1  0  0  0
M  END
> <minimizedAffinity>
-11.89017

$$$$
4OC5_2QM_A_818


 39 40  0  0  0  0  0  0  0  0999 V2000
   19.9810   45.0698   44.6064 C   0  0  0  0  0  0  0  0  0  0  0  0
   17.4668   45.6225   42.0258 N   0  0  0  0  0  0  0  0  0  0  0  0
   18.1396   44.9659   42.9613 C   0  0  0  0  0  0  0  0  0  0  0  0
   17.6909   43.9097   43.4124 O   0  0  0  0  0  0  0  0  0  0  0  0
   19.2064   45.5870   43.4706 N   0  0  0  0  0  0  0  0  0  0  0  0
   17.6719   46.5688   41.8478 H   0  0  0  0  0  0  0  0  0  0  0  0
   19.4891   46.4373   43.0628 H   0  0  0  0  0  0  0  0  0  0  0  0
   16.4140   44.9422   41.2517 C   0  0  0  0  0  0  0  0  0  0  0  0
   14.0412   45.5899   41.2674 C   0  0  0  0  0  0  0  0  0  0  0  0
   13.0063   46.4541   40.9843 C   0  0  0  0  0  0  0  0  0  0  0  0
   13.2388   47.6446   40.3035 C   0  0  0  0  0  0  0  0  0  0  0  0
   12.1803   48.4547   40.0279 O   0  0  0  0  0  0  0  0  0  0  0  0
   14.5212   48.0243   39.9165 C   0  0  0  0  0  0  0  0  0  0  0  0
   15.5728   47.1398   40.2279 C   0  0  0  0  0  0  0  0  0  0  0  0
   15.3384   45.9503   40.9208 C   0  0  0  0  0  0  0  0  0  0  0  0
   12.3143   49.2613   39.5703 H   0  0  0  0  0  0  0  0  0  0  0  0
   17.0475   44.4458   39.9253 C   0  0  0  0  0  0  0  0  0  0  0  0
   18.1954   44.9048   39.6071 O   0  0  0  0  0  0  0  0  0  0  0  0
   16.4278   43.5522   39.2782 O   0  0  0  0  0  0  0  0  0  0  0  0
   15.5861   43.2614   39.5696 H   0  0  0  0  0  0  0  0  0  0  0  0
   20.1656   46.2132   45.6184 C   0  0  0  0  0  0  0  0  0  0  0  0
   19.9502   45.9834   46.8644 O   0  0  0  0  0  0  0  0  0  0  0  0
   20.5645   47.2666   45.0846 O   0  0  0  0  0  0  0  0  0  0  0  0
   20.6827   47.3057   44.1559 H   0  0  0  0  0  0  0  0  0  0  0  0
   21.3716   44.5326   44.1831 C   0  0  0  0  0  0  0  0  0  0  0  0
   22.2747   44.2376   45.3315 C   0  0  0  0  0  0  0  0  0  0  0  0
   23.4770   43.3682   44.8494 C   0  0  0  0  0  0  0  0  0  0  0  0
   24.6891   44.2649   44.7038 C   0  0  0  0  0  0  0  0  0  0  0  0
   24.3091   45.6457   45.0224 N   0  0  0  0  0  0  0  0  0  0  0  0
   24.4776   46.6542   44.1607 C   0  0  0  0  0  0  0  0  0  0  0  0
   24.9076   46.4477   43.0217 O   0  0  0  0  0  0  0  0  0  0  0  0
   23.9150   45.8369   45.9040 H   0  0  0  0  0  0  0  0  0  0  0  0
   23.9513   48.0844   44.5327 C   0  0  0  0  0  0  0  0  0  0  0  0
   23.3599   48.9212   43.5743 C   0  0  0  0  0  0  0  0  0  0  0  0
   22.8482   50.2074   43.9108 C   0  0  0  0  0  0  0  0  0  0  0  0
   22.8183   50.7363   45.2147 C   0  0  0  0  0  0  0  0  0  0  0  0
   21.9900   52.6887   45.7323 I   0  0  0  0  0  0  0  0  0  0  0  0
   23.3802   49.8523   46.1689 C   0  0  0  0  0  0  0  0  0  0  0  0
   23.9331   48.5762   45.8406 C   0  0  0  0  0  0  0  0  0  0  0  0
 18 17  2  0  0  0
 13 11  2  0  0  0
 13 14  1  0  0  0
 12 11  1  0  0  0
 11 10  1  0  0  0
 14 15  2  0  0  0
 17 19  1  0  0  0
 17  8  1  0  0  0
 10  9  2  0  0  0
 15  9  1  0  0  0
 15  8  1  0  0  0
  8  2  1  0  0  0
  4  3  2  0  0  0
  2  3  1  0  0  0
 27 28  1  0  0  0
 27 26  1  0  0  0
 28 29  1  0  0  0
  3  5  1  0  0  0
 26 25  1  0  0  0
 25  1  1  0  0  0
  5  1  1  0  0  0
 31 30  2  0  0  0
 29 30  1  0  0  0
  1 21  1  0  0  0
 30 33  1  0  0  0
 21 22  2  0  0  0
 21 23  1  0  0  0
 33 34  2  0  0  0
 33 39  1  0  0  0
 34 35  1  0  0  0
 39 38  2  0  0  0
 35 36  2  0  0  0
 38 36  1  0  0  0
 36 37  1  0  0  0
 12 16  1  0  0  0
 19 20  1  0  0  0
  2  6  1  0  0  0
  5  7  1  0  0  0
 23 24  1  0  0  0
 29 32  1  0  0  0
M  END
> <minimizedAffinity>
-10.54998

$$$$
