4BJ8_BTN_A_1123
  RCSB PDB12061711513D
Coordinates from PDB:4BJ8:A:1123 Model:1 without hydrogens
 16 17  0  0  0  0            999 V2000
  198.1890   41.3850   20.0190   C 0  0  0  0  0  0  0  0  0  0  0  0
  198.6540   42.4320   19.5200   O 0  0  0  0  0  0  0  0  0  0  0  0
  197.7530   41.3140   21.1940   O 0  0  0  0  0  0  0  0  0  0  0  0
  198.1230   40.1290   19.1920   C 0  0  0  0  0  0  0  0  0  0  0  0
  197.8790   40.4040   17.7190   C 0  0  0  0  0  0  0  0  0  0  0  0
  196.5240   41.0470   17.4450   C 0  0  0  0  0  0  0  0  0  0  0  0
  196.2750   41.2300   15.9290   C 0  0  0  0  0  0  0  0  0  0  0  0
  194.9590   41.9520   15.6680   C 0  0  0  0  0  0  0  0  0  0  0  0
  193.5240   40.9210   15.8110   S 0  0  0  0  0  0  0  0  0  0  0  0
  192.5620   42.2600   15.1670   C 0  0  0  0  0  0  0  0  0  0  0  0
  193.3590   42.7510   13.9750   C 0  0  0  0  0  0  0  0  0  0  0  0
  193.1150   41.9700   12.7700   N 0  0  0  0  0  0  0  0  0  0  0  0
  194.1910   41.3420   12.3430   C 0  0  0  0  0  0  0  0  0  0  0  0
  194.2400   40.6640   11.3330   O 0  0  0  0  0  0  0  0  0  0  0  0
  195.2040   41.5730   13.1780   N 0  0  0  0  0  0  0  0  0  0  0  0
  194.8360   42.5000   14.2520   C 0  0  0  0  0  0  0  0  0  0  0  0
  1  2  2  0  0  0  0
  1  3  1  0  0  0  0
  1  4  1  0  0  0  0
  4  5  1  0  0  0  0
  5  6  1  0  0  0  0
  6  7  1  0  0  0  0
  7  8  1  0  0  0  0
  8  9  1  0  0  0  0
  8 16  1  0  0  0  0
  9 10  1  0  0  0  0
 10 11  1  0  0  0  0
 11 12  1  0  0  0  0
 11 16  1  0  0  0  0
 12 13  1  0  0  0  0
 13 14  2  0  0  0  0
 13 15  1  0  0  0  0
 15 16  1  0  0  0  0
A    1
C11
A    2
O11
A    3
O12
A    4
C10
A    5
C9
A    6
C8
A    7
C7
A    8
C2
A    9
S1
A   10
C6
A   11
C5
A   12
N1
A   13
C3
A   14
O3
A   15
N2
A   16
C4
M  END
>  <InstanceId>
4BJ8_BTN_A_1123

>  <ChemCompId>
BTN

>  <PdbId>
4BJ8

>  <ChainId>
A

>  <ResidueNumber>
1123

>  <InsertionCode>


>  <Model>
1

>  <AltIds>


>  <MissingHeavyAtoms>
0

>  <ObservedFormula>
C10 N2 O3 S

>  <Name>
BIOTIN

>  <SystematicName>
5-[(3aS,4S,6aR)-2-oxidanylidene-1,3,3a,4,6,6a-hexahydrothieno[3,4-d]imidazol-4-yl]pentanoic acid

>  <Synonyms>


>  <Type>
NON-POLYMER

>  <Formula>
C10 H16 N2 O3 S

>  <MolecularWeight>
244.311

>  <ModifiedDate>
2014-04-29

>  <Parent>


>  <OneLetterCode>


>  <SubcomponentList>


>  <AmbiguousFlag>
N

>  <InChI>
InChI=1S/C10H16N2O3S/c13-8(14)4-2-1-3-7-9-6(5-16-7)11-10(15)12-9/h6-7,9H,1-5H2,(H,13,14)(H2,11,12,15)/t6-,7-,9-/m0/s1

>  <InChIKey>
YBJHBAHKTGYVGT-ZKWXMUAHSA-N

>  <SMILES>
C1[C@H]2[C@@H]([C@@H](S1)CCCCC(=O)O)NC(=O)N2

$$$$
