1MRS_5HU_A_217


 27 28  0  0  0  0  0  0  0  0999 V2000
   24.6951   13.3591    7.6060 C   0  0  0  0  0  0  0  0  0  0  0  0
   24.6673   11.9367    7.4462 O   0  0  0  0  0  0  0  0  0  0  0  0
   23.2695   13.5574    8.2414 C   0  0  0  0  0  0  0  0  0  0  0  0
   22.0306   13.8121    7.4399 O   0  0  0  0  0  0  0  0  0  0  0  0
   23.3880   12.3758    9.2564 C   0  0  0  0  0  0  0  0  0  0  0  0
   23.8778   11.2636    8.4059 C   0  0  0  0  0  0  0  0  0  0  0  0
   21.8533   13.0493    6.8676 H   0  0  0  0  0  0  0  0  0  0  0  0
   24.7563   10.2227    8.9696 N   0  0  0  0  0  0  0  0  0  0  0  0
   24.0972    9.1215    9.4711 C   0  0  0  0  0  0  0  0  0  0  0  0
   22.8086    9.0601    9.4164 O   0  0  0  0  0  0  0  0  0  0  0  0
   24.7655    8.0997   10.0222 N   0  0  0  0  0  0  0  0  0  0  0  0
   26.1124    8.1342   10.0935 C   0  0  0  0  0  0  0  0  0  0  0  0
   26.7316    7.1011   10.6493 O   0  0  0  0  0  0  0  0  0  0  0  0
   26.8418    9.2381    9.5903 C   0  0  0  0  0  0  0  0  0  0  0  0
   26.1192   10.2885    9.0241 C   0  0  0  0  0  0  0  0  0  0  0  0
   24.2738    7.3233   10.3754 H   0  0  0  0  0  0  0  0  0  0  0  0
   28.3360    9.2328    9.6837 C   0  0  0  0  0  0  0  0  0  0  0  0
   28.6454    8.5222    8.9710 O   0  0  0  0  0  0  0  0  0  0  0  0
   28.2419    7.6637    9.1741 H   0  0  0  0  0  0  0  0  0  0  0  0
   25.9631   14.0181    8.2063 C   0  0  0  0  0  0  0  0  0  0  0  0
   25.5256   15.1459    8.8521 O   0  0  0  0  0  0  0  0  0  0  0  0
   26.2836   16.2884    9.5978 P   0  0  0  0  0  0  0  0  0  0  0  0
   26.4606   17.5614    8.6366 O   0  0  0  0  0  0  0  0  0  0  0  0
   27.7886   15.6253    9.9642 O   0  0  0  0  0  0  0  0  0  0  0  0
   25.5293   16.7096   11.0200 O   0  0  0  0  0  0  0  0  0  0  0  0
   28.3255   16.2822   10.4344 H   0  0  0  0  0  0  0  0  0  0  0  0
   26.0284   17.4200   11.4526 H   0  0  0  0  0  0  0  0  0  0  0  0
 22 23  2  0  0  0
 22 24  1  0  0  0
 22 25  1  0  0  0
 22 21  1  0  0  0
 21 20  1  0  0  0
 20  1  1  0  0  0
  1  2  1  0  0  0
  1  3  1  0  0  0
  2  6  1  0  0  0
  3  4  1  0  0  0
  3  5  1  0  0  0
  5  6  1  0  0  0
  6  8  1  0  0  0
  8  9  1  0  0  0
  8 15  1  0  0  0
  9 10  2  0  0  0
  9 11  1  0  0  0
 11 12  1  0  0  0
 12 13  2  0  0  0
 12 14  1  0  0  0
 14 17  1  0  0  0
 14 15  2  0  0  0
 17 18  1  0  0  0
 24 26  1  0  0  0
 25 27  1  0  0  0
  4  7  1  0  0  0
 11 16  1  0  0  0
 18 19  1  0  0  0
M  END
> <minimizedAffinity>
-10.36555

$$$$
1MRS_5HU_A_217


 27 28  0  0  0  0  0  0  0  0999 V2000
   29.0436   18.6865   10.5691 C   0  0  0  0  0  0  0  0  0  0  0  0
   28.7471   17.3633   10.1098 O   0  0  0  0  0  0  0  0  0  0  0  0
   30.2856   18.9868    9.6512 C   0  0  0  0  0  0  0  0  0  0  0  0
   31.6994   18.6856   10.0416 O   0  0  0  0  0  0  0  0  0  0  0  0
   29.6405   18.4423    8.3367 C   0  0  0  0  0  0  0  0  0  0  0  0
   29.0963   17.1292    8.7605 C   0  0  0  0  0  0  0  0  0  0  0  0
   31.8059   17.7285   10.1579 H   0  0  0  0  0  0  0  0  0  0  0  0
   27.8773   16.5876    8.1329 N   0  0  0  0  0  0  0  0  0  0  0  0
   27.5087   15.3357    8.5751 C   0  0  0  0  0  0  0  0  0  0  0  0
   28.2122   14.7364    9.4767 O   0  0  0  0  0  0  0  0  0  0  0  0
   26.4265   14.7145    8.0876 N   0  0  0  0  0  0  0  0  0  0  0  0
   25.6708   15.3151    7.1449 C   0  0  0  0  0  0  0  0  0  0  0  0
   24.6098   14.6616    6.6902 O   0  0  0  0  0  0  0  0  0  0  0  0
   25.9997   16.6026    6.6571 C   0  0  0  0  0  0  0  0  0  0  0  0
   27.1332   17.2243    7.1812 C   0  0  0  0  0  0  0  0  0  0  0  0
   26.1825   13.8196    8.4173 H   0  0  0  0  0  0  0  0  0  0  0  0
   25.1302   17.2354    5.6154 C   0  0  0  0  0  0  0  0  0  0  0  0
   24.1746   17.2781    6.0555 O   0  0  0  0  0  0  0  0  0  0  0  0
   23.8927   16.3837    6.3037 H   0  0  0  0  0  0  0  0  0  0  0  0
   27.8798   19.6966   10.7363 C   0  0  0  0  0  0  0  0  0  0  0  0
   26.7762   19.0843   10.2002 O   0  0  0  0  0  0  0  0  0  0  0  0
   25.4295   18.6102   10.8307 P   0  0  0  0  0  0  0  0  0  0  0  0
   25.1804   19.3461   12.2349 O   0  0  0  0  0  0  0  0  0  0  0  0
   25.6379   16.9557   11.0726 O   0  0  0  0  0  0  0  0  0  0  0  0
   24.1453   18.8373    9.7971 O   0  0  0  0  0  0  0  0  0  0  0  0
   24.8339   16.5828   11.4667 H   0  0  0  0  0  0  0  0  0  0  0  0
   23.3293   18.5317   10.2232 H   0  0  0  0  0  0  0  0  0  0  0  0
 22 23  2  0  0  0
 22 24  1  0  0  0
 22 25  1  0  0  0
 22 21  1  0  0  0
 21 20  1  0  0  0
 20  1  1  0  0  0
  1  2  1  0  0  0
  1  3  1  0  0  0
  2  6  1  0  0  0
  3  4  1  0  0  0
  3  5  1  0  0  0
  5  6  1  0  0  0
  6  8  1  0  0  0
  8  9  1  0  0  0
  8 15  1  0  0  0
  9 10  2  0  0  0
  9 11  1  0  0  0
 11 12  1  0  0  0
 12 13  2  0  0  0
 12 14  1  0  0  0
 14 17  1  0  0  0
 14 15  2  0  0  0
 17 18  1  0  0  0
 24 26  1  0  0  0
 25 27  1  0  0  0
  4  7  1  0  0  0
 11 16  1  0  0  0
 18 19  1  0  0  0
M  END
> <minimizedAffinity>
-8.39025

$$$$
1MRS_5HU_A_217


 27 28  0  0  0  0  0  0  0  0999 V2000
   28.0799   16.3178    9.9320 C   0  0  0  0  0  0  0  0  0  0  0  0
   27.6243   15.1510    9.2387 O   0  0  0  0  0  0  0  0  0  0  0  0
   28.5425   17.1687    8.6922 C   0  0  0  0  0  0  0  0  0  0  0  0
   29.9299   17.1321    8.1303 O   0  0  0  0  0  0  0  0  0  0  0  0
   27.2750   16.8797    7.8259 C   0  0  0  0  0  0  0  0  0  0  0  0
   27.1318   15.4077    7.9391 C   0  0  0  0  0  0  0  0  0  0  0  0
   30.1220   16.2401    7.8011 H   0  0  0  0  0  0  0  0  0  0  0  0
   25.7979   14.7813    7.8992 N   0  0  0  0  0  0  0  0  0  0  0  0
   25.0350   15.1189    6.8025 C   0  0  0  0  0  0  0  0  0  0  0  0
   25.5090   15.9209    5.9085 O   0  0  0  0  0  0  0  0  0  0  0  0
   23.7980   14.6321    6.6369 N   0  0  0  0  0  0  0  0  0  0  0  0
   23.2750   13.7915    7.5536 C   0  0  0  0  0  0  0  0  0  0  0  0
   22.0460   13.3362    7.3490 O   0  0  0  0  0  0  0  0  0  0  0  0
   24.0152   13.4070    8.6973 C   0  0  0  0  0  0  0  0  0  0  0  0
   25.2995   13.9312    8.8446 C   0  0  0  0  0  0  0  0  0  0  0  0
   23.2703   14.8879    5.8461 H   0  0  0  0  0  0  0  0  0  0  0  0
   23.3993   12.4669    9.6864 C   0  0  0  0  0  0  0  0  0  0  0  0
   22.6464   13.0318   10.1583 O   0  0  0  0  0  0  0  0  0  0  0  0
   23.0403   13.8189   10.5660 H   0  0  0  0  0  0  0  0  0  0  0  0
   27.1921   16.9132   11.0544 C   0  0  0  0  0  0  0  0  0  0  0  0
   27.7326   18.1395   11.3447 O   0  0  0  0  0  0  0  0  0  0  0  0
   27.0894   19.4923   11.7831 P   0  0  0  0  0  0  0  0  0  0  0  0
   27.3276   20.6139   10.6602 O   0  0  0  0  0  0  0  0  0  0  0  0
   27.9050   19.9067   13.1980 O   0  0  0  0  0  0  0  0  0  0  0  0
   25.4710   19.3265   12.1331 O   0  0  0  0  0  0  0  0  0  0  0  0
   27.5582   20.7468   13.5369 H   0  0  0  0  0  0  0  0  0  0  0  0
   25.1084   20.1855   12.4005 H   0  0  0  0  0  0  0  0  0  0  0  0
 22 23  2  0  0  0
 22 24  1  0  0  0
 22 25  1  0  0  0
 22 21  1  0  0  0
 21 20  1  0  0  0
 20  1  1  0  0  0
  1  2  1  0  0  0
  1  3  1  0  0  0
  2  6  1  0  0  0
  3  4  1  0  0  0
  3  5  1  0  0  0
  5  6  1  0  0  0
  6  8  1  0  0  0
  8  9  1  0  0  0
  8 15  1  0  0  0
  9 10  2  0  0  0
  9 11  1  0  0  0
 11 12  1  0  0  0
 12 13  2  0  0  0
 12 14  1  0  0  0
 14 17  1  0  0  0
 14 15  2  0  0  0
 17 18  1  0  0  0
 24 26  1  0  0  0
 25 27  1  0  0  0
  4  7  1  0  0  0
 11 16  1  0  0  0
 18 19  1  0  0  0
M  END
> <minimizedAffinity>
-7.80830

$$$$
1MRS_5HU_A_217


 27 28  0  0  0  0  0  0  0  0999 V2000
   24.7539   13.3454    8.3007 C   0  0  0  0  0  0  0  0  0  0  0  0
   25.3888   14.2800    9.1800 O   0  0  0  0  0  0  0  0  0  0  0  0
   24.0130   14.3658    7.3599 C   0  0  0  0  0  0  0  0  0  0  0  0
   22.6227   14.8645    7.6063 O   0  0  0  0  0  0  0  0  0  0  0  0
   25.2330   15.3252    7.1826 C   0  0  0  0  0  0  0  0  0  0  0  0
   25.6998   15.5198    8.5770 C   0  0  0  0  0  0  0  0  0  0  0  0
   22.5999   15.3598    8.4400 H   0  0  0  0  0  0  0  0  0  0  0  0
   27.1288   15.7423    8.8626 N   0  0  0  0  0  0  0  0  0  0  0  0
   27.3982   16.1996   10.1342 C   0  0  0  0  0  0  0  0  0  0  0  0
   26.4324   16.3924   10.9690 O   0  0  0  0  0  0  0  0  0  0  0  0
   28.6516   16.4542   10.5328 N   0  0  0  0  0  0  0  0  0  0  0  0
   29.6822   16.2622    9.6834 C   0  0  0  0  0  0  0  0  0  0  0  0
   30.9056   16.5293   10.1211 O   0  0  0  0  0  0  0  0  0  0  0  0
   29.4646   15.7896    8.3670 C   0  0  0  0  0  0  0  0  0  0  0  0
   28.1491   15.5353    7.9788 C   0  0  0  0  0  0  0  0  0  0  0  0
   28.8207   16.7815   11.4457 H   0  0  0  0  0  0  0  0  0  0  0  0
   30.6373   15.5842    7.4592 C   0  0  0  0  0  0  0  0  0  0  0  0
   31.2378   14.8757    7.9553 O   0  0  0  0  0  0  0  0  0  0  0  0
   31.4810   15.2145    8.8311 H   0  0  0  0  0  0  0  0  0  0  0  0
   25.5862   12.1637    7.7408 C   0  0  0  0  0  0  0  0  0  0  0  0
   25.7504   11.2952    8.7891 O   0  0  0  0  0  0  0  0  0  0  0  0
   24.7688   10.3125    9.5011 P   0  0  0  0  0  0  0  0  0  0  0  0
   24.5118   10.7790   11.0150 O   0  0  0  0  0  0  0  0  0  0  0  0
   25.5689    8.8298    9.4796 O   0  0  0  0  0  0  0  0  0  0  0  0
   23.3361   10.1541    8.6697 O   0  0  0  0  0  0  0  0  0  0  0  0
   25.0165    8.1581    9.9093 H   0  0  0  0  0  0  0  0  0  0  0  0
   22.7547    9.5377    9.1418 H   0  0  0  0  0  0  0  0  0  0  0  0
 22 23  2  0  0  0
 22 24  1  0  0  0
 22 25  1  0  0  0
 22 21  1  0  0  0
 21 20  1  0  0  0
 20  1  1  0  0  0
  1  2  1  0  0  0
  1  3  1  0  0  0
  2  6  1  0  0  0
  3  4  1  0  0  0
  3  5  1  0  0  0
  5  6  1  0  0  0
  6  8  1  0  0  0
  8  9  1  0  0  0
  8 15  1  0  0  0
  9 10  2  0  0  0
  9 11  1  0  0  0
 11 12  1  0  0  0
 12 13  2  0  0  0
 12 14  1  0  0  0
 14 17  1  0  0  0
 14 15  2  0  0  0
 17 18  1  0  0  0
 24 26  1  0  0  0
 25 27  1  0  0  0
  4  7  1  0  0  0
 11 16  1  0  0  0
 18 19  1  0  0  0
M  END
> <minimizedAffinity>
-7.60708

$$$$
1MRS_5HU_A_217


 27 28  0  0  0  0  0  0  0  0999 V2000
   29.3043   18.2508   10.4110 C   0  0  0  0  0  0  0  0  0  0  0  0
   28.9068   16.9276   10.0356 O   0  0  0  0  0  0  0  0  0  0  0  0
   30.4650   18.4576    9.3692 C   0  0  0  0  0  0  0  0  0  0  0  0
   31.8949   18.1030    9.6371 O   0  0  0  0  0  0  0  0  0  0  0  0
   29.6735   17.8976    8.1442 C   0  0  0  0  0  0  0  0  0  0  0  0
   29.1146   16.6283    8.6701 C   0  0  0  0  0  0  0  0  0  0  0  0
   31.9693   17.1467    9.7816 H   0  0  0  0  0  0  0  0  0  0  0  0
   27.8183   16.1237    8.1821 N   0  0  0  0  0  0  0  0  0  0  0  0
   27.2878   16.8268    7.1226 C   0  0  0  0  0  0  0  0  0  0  0  0
   27.9267   17.8364    6.6330 O   0  0  0  0  0  0  0  0  0  0  0  0
   26.1108   16.4879    6.5799 N   0  0  0  0  0  0  0  0  0  0  0  0
   25.4195   15.4375    7.0691 C   0  0  0  0  0  0  0  0  0  0  0  0
   24.2580   15.1400    6.5016 O   0  0  0  0  0  0  0  0  0  0  0  0
   25.9186   14.6766    8.1533 C   0  0  0  0  0  0  0  0  0  0  0  0
   27.1454   15.0540    8.6997 C   0  0  0  0  0  0  0  0  0  0  0  0
   25.7501   17.0053    5.8240 H   0  0  0  0  0  0  0  0  0  0  0  0
   25.1223   13.5148    8.6609 C   0  0  0  0  0  0  0  0  0  0  0  0
   24.3641   13.9478    9.2495 O   0  0  0  0  0  0  0  0  0  0  0  0
   24.7659   14.4792    9.9546 H   0  0  0  0  0  0  0  0  0  0  0  0
   28.2080   19.3210   10.6457 C   0  0  0  0  0  0  0  0  0  0  0  0
   27.0506   18.7839   10.1434 O   0  0  0  0  0  0  0  0  0  0  0  0
   25.7140   18.3506   10.8229 P   0  0  0  0  0  0  0  0  0  0  0  0
   25.7900   16.8124   11.2746 O   0  0  0  0  0  0  0  0  0  0  0  0
   24.5492   18.5444    9.6209 O   0  0  0  0  0  0  0  0  0  0  0  0
   25.3211   19.3349   12.1057 O   0  0  0  0  0  0  0  0  0  0  0  0
   23.6798   18.2923    9.9695 H   0  0  0  0  0  0  0  0  0  0  0  0
   24.4874   19.0346   12.5002 H   0  0  0  0  0  0  0  0  0  0  0  0
 22 23  2  0  0  0
 22 24  1  0  0  0
 22 25  1  0  0  0
 22 21  1  0  0  0
 21 20  1  0  0  0
 20  1  1  0  0  0
  1  2  1  0  0  0
  1  3  1  0  0  0
  2  6  1  0  0  0
  3  4  1  0  0  0
  3  5  1  0  0  0
  5  6  1  0  0  0
  6  8  1  0  0  0
  8  9  1  0  0  0
  8 15  1  0  0  0
  9 10  2  0  0  0
  9 11  1  0  0  0
 11 12  1  0  0  0
 12 13  2  0  0  0
 12 14  1  0  0  0
 14 17  1  0  0  0
 14 15  2  0  0  0
 17 18  1  0  0  0
 24 26  1  0  0  0
 25 27  1  0  0  0
  4  7  1  0  0  0
 11 16  1  0  0  0
 18 19  1  0  0  0
M  END
> <minimizedAffinity>
-7.55695

$$$$
1MRS_5HU_A_217


 27 28  0  0  0  0  0  0  0  0999 V2000
   25.3827   11.3712    8.9550 C   0  0  0  0  0  0  0  0  0  0  0  0
   25.2694   12.7806    9.1794 O   0  0  0  0  0  0  0  0  0  0  0  0
   24.4421   11.2514    7.6996 C   0  0  0  0  0  0  0  0  0  0  0  0
   22.9724   10.9778    7.7855 O   0  0  0  0  0  0  0  0  0  0  0  0
   25.0256   12.4925    6.9514 C   0  0  0  0  0  0  0  0  0  0  0  0
   25.0351   13.5344    8.0071 C   0  0  0  0  0  0  0  0  0  0  0  0
   22.5347   11.7066    8.2526 H   0  0  0  0  0  0  0  0  0  0  0  0
   26.0679   14.5864    8.0095 N   0  0  0  0  0  0  0  0  0  0  0  0
   25.8383   15.6217    7.1298 C   0  0  0  0  0  0  0  0  0  0  0  0
   24.7790   15.6188    6.3917 O   0  0  0  0  0  0  0  0  0  0  0  0
   26.6963   16.6443    7.0170 N   0  0  0  0  0  0  0  0  0  0  0  0
   27.8120   16.6760    7.7751 C   0  0  0  0  0  0  0  0  0  0  0  0
   28.6335   17.7072    7.6281 O   0  0  0  0  0  0  0  0  0  0  0  0
   28.0964   15.6418    8.6987 C   0  0  0  0  0  0  0  0  0  0  0  0
   27.1864   14.5887    8.7930 C   0  0  0  0  0  0  0  0  0  0  0  0
   26.5128   17.3729    6.3808 H   0  0  0  0  0  0  0  0  0  0  0  0
   29.3425   15.7197    9.5249 C   0  0  0  0  0  0  0  0  0  0  0  0
   29.1498   15.1039   10.3571 O   0  0  0  0  0  0  0  0  0  0  0  0
   28.3586   15.4228   10.8190 H   0  0  0  0  0  0  0  0  0  0  0  0
   26.7885   10.7196    8.9960 C   0  0  0  0  0  0  0  0  0  0  0  0
   26.6814    9.6586    9.8580 O   0  0  0  0  0  0  0  0  0  0  0  0
   27.6759    8.5218   10.2512 P   0  0  0  0  0  0  0  0  0  0  0  0
   28.6336    8.1648    9.0138 O   0  0  0  0  0  0  0  0  0  0  0  0
   26.6880    7.2068   10.6173 O   0  0  0  0  0  0  0  0  0  0  0  0
   28.5625    8.9120   11.6042 O   0  0  0  0  0  0  0  0  0  0  0  0
   27.2384    6.4506   10.8743 H   0  0  0  0  0  0  0  0  0  0  0  0
   29.1667    8.1834   11.8161 H   0  0  0  0  0  0  0  0  0  0  0  0
 22 23  2  0  0  0
 22 24  1  0  0  0
 22 25  1  0  0  0
 22 21  1  0  0  0
 21 20  1  0  0  0
 20  1  1  0  0  0
  1  2  1  0  0  0
  1  3  1  0  0  0
  2  6  1  0  0  0
  3  4  1  0  0  0
  3  5  1  0  0  0
  5  6  1  0  0  0
  6  8  1  0  0  0
  8  9  1  0  0  0
  8 15  1  0  0  0
  9 10  2  0  0  0
  9 11  1  0  0  0
 11 12  1  0  0  0
 12 13  2  0  0  0
 12 14  1  0  0  0
 14 17  1  0  0  0
 14 15  2  0  0  0
 17 18  1  0  0  0
 24 26  1  0  0  0
 25 27  1  0  0  0
  4  7  1  0  0  0
 11 16  1  0  0  0
 18 19  1  0  0  0
M  END
> <minimizedAffinity>
-7.44423

$$$$
