3VFA_031_A_201


 45 49  0  0  0  0  0  0  0  0999 V2000
   15.0524   23.9428   17.7222 C   0  0  0  0  0  0  0  0  0  0  0  0
   13.9488   24.6993   18.1809 O   0  0  0  0  0  0  0  0  0  0  0  0
   13.5249   25.1415   17.4288 H   0  0  0  0  0  0  0  0  0  0  0  0
   16.1657   24.8071   17.1405 C   0  0  0  0  0  0  0  0  0  0  0  0
   17.4255   24.0980   17.2295 N   0  0  0  0  0  0  0  0  0  0  0  0
   18.1521   23.6457   15.8454 S   0  0  0  0  0  0  0  0  0  0  0  0
   17.1513   23.2669   14.8238 O   0  0  0  0  0  0  0  0  0  0  0  0
   19.1036   22.5778   16.2855 O   0  0  0  0  0  0  0  0  0  0  0  0
   20.7116   27.1079   14.4143 C   0  0  0  0  0  0  0  0  0  0  0  0
   21.3243   25.9225   14.8367 C   0  0  0  0  0  0  0  0  0  0  0  0
   20.5466   24.8467   15.2441 C   0  0  0  0  0  0  0  0  0  0  0  0
   19.1616   24.9575   15.2515 C   0  0  0  0  0  0  0  0  0  0  0  0
   18.5716   26.1302   14.8243 C   0  0  0  0  0  0  0  0  0  0  0  0
   19.3295   27.2000   14.3792 C   0  0  0  0  0  0  0  0  0  0  0  0
   21.4594   28.1943   14.0596 O   0  0  0  0  0  0  0  0  0  0  0  0
   22.0999   28.7222   15.2275 C   0  0  0  0  0  0  0  0  0  0  0  0
   18.3431   24.6773   18.1971 C   0  0  0  0  0  0  0  0  0  0  0  0
   17.9725   24.1964   19.6017 C   0  0  0  0  0  0  0  0  0  0  0  0
   18.3262   22.7393   19.8103 C   0  0  0  0  0  0  0  0  0  0  0  0
   18.8214   24.9566   20.5318 N   0  0  0  0  0  0  0  0  0  0  0  0
   19.8258   24.2292   20.9508 C   0  0  0  0  0  0  0  0  0  0  0  0
   20.6975   24.6663   21.6758 O   0  0  0  0  0  0  0  0  0  0  0  0
   19.7350   22.8048   20.4275 C   0  0  0  0  0  0  0  0  0  0  0  0
   18.6563   25.8885   20.8031 H   0  0  0  0  0  0  0  0  0  0  0  0
   14.5561   22.8712   16.7679 C   0  0  0  0  0  0  0  0  0  0  0  0
   13.7795   21.8827   17.5265 N   0  0  0  0  0  0  0  0  0  0  0  0
   14.2435   21.0113   18.4132 C   0  0  0  0  0  0  0  0  0  0  0  0
   15.4337   20.9180   18.7670 O   0  0  0  0  0  0  0  0  0  0  0  0
   12.8095   21.8643   17.3592 H   0  0  0  0  0  0  0  0  0  0  0  0
   13.2837   20.2031   18.9637 O   0  0  0  0  0  0  0  0  0  0  0  0
   13.8857   17.9123   18.3407 C   0  0  0  0  0  0  0  0  0  0  0  0
   13.8232   18.9621   19.4633 C   0  0  0  0  0  0  0  0  0  0  0  0
   12.7664   18.4159   20.4206 C   0  0  0  0  0  0  0  0  0  0  0  0
   11.7430   17.7806   19.4971 C   0  0  0  0  0  0  0  0  0  0  0  0
   10.7652   18.6929   19.0109 O   0  0  0  0  0  0  0  0  0  0  0  0
   10.6693   18.6525   17.5917 C   0  0  0  0  0  0  0  0  0  0  0  0
   11.6456   17.6033   17.1040 C   0  0  0  0  0  0  0  0  0  0  0  0
   12.5200   17.2603   18.3093 C   0  0  0  0  0  0  0  0  0  0  0  0
   13.7541   23.4020   15.5772 C   0  0  0  0  0  0  0  0  0  0  0  0
   12.0034   22.0408   14.2959 C   0  0  0  0  0  0  0  0  0  0  0  0
   11.5872   20.9442   13.5358 C   0  0  0  0  0  0  0  0  0  0  0  0
   12.5569   20.1555   12.9376 C   0  0  0  0  0  0  0  0  0  0  0  0
   13.9021   20.3691   13.2430 C   0  0  0  0  0  0  0  0  0  0  0  0
   14.2860   21.4210   14.0889 C   0  0  0  0  0  0  0  0  0  0  0  0
   13.3312   22.2607   14.6427 C   0  0  0  0  0  0  0  0  0  0  0  0
 16 15  1  0  0  0
  9 15  1  0  0  0
 10  9  2  0  0  0
  9 14  1  0  0  0
 11 10  1  0  0  0
 11 12  2  0  0  0
  6 12  1  0  0  0
 12 13  1  0  0  0
 13 14  2  0  0  0
  8  6  2  0  0  0
  5  6  1  0  0  0
  6  7  2  0  0  0
 17  5  1  0  0  0
  5  4  1  0  0  0
 18 17  1  0  0  0
 20 18  1  0  0  0
 19 18  1  0  0  0
 23 19  1  0  0  0
 21 20  1  0  0  0
 22 21  2  0  0  0
 21 23  1  0  0  0
  1  4  1  0  0  0
  1 25  1  0  0  0
  1  2  1  0  0  0
 26 25  1  0  0  0
 25 39  1  0  0  0
 27 26  1  0  0  0
 28 27  2  0  0  0
 30 27  1  0  0  0
 32 30  1  0  0  0
 32 31  1  0  0  0
 31 38  1  0  0  0
 33 32  1  0  0  0
 33 34  1  0  0  0
 34 38  1  0  0  0
 34 35  1  0  0  0
 35 36  1  0  0  0
 37 36  1  0  0  0
 38 37  1  0  0  0
 39 45  1  0  0  0
 45 40  2  0  0  0
 40 41  1  0  0  0
 42 41  2  0  0  0
 43 42  1  0  0  0
 44 43  2  0  0  0
 44 45  1  0  0  0
 20 24  1  0  0  0
  2  3  1  0  0  0
 26 29  1  0  0  0
M  END
> <minimizedAffinity>
-10.43447

$$$$
3VFA_031_A_201


 45 49  0  0  0  0  0  0  0  0999 V2000
   16.8687   24.8524   17.6145 C   0  0  0  0  0  0  0  0  0  0  0  0
   16.0406   25.8699   18.1435 O   0  0  0  0  0  0  0  0  0  0  0  0
   16.4478   26.7352   17.9812 H   0  0  0  0  0  0  0  0  0  0  0  0
   18.2155   24.7534   18.3224 C   0  0  0  0  0  0  0  0  0  0  0  0
   18.0884   23.9028   19.4878 N   0  0  0  0  0  0  0  0  0  0  0  0
   18.1244   22.2905   19.2700 S   0  0  0  0  0  0  0  0  0  0  0  0
   18.4112   21.5928   20.5425 O   0  0  0  0  0  0  0  0  0  0  0  0
   19.1169   22.1114   18.1644 O   0  0  0  0  0  0  0  0  0  0  0  0
   14.1807   20.7683   17.6221 C   0  0  0  0  0  0  0  0  0  0  0  0
   14.1826   21.7857   18.5833 C   0  0  0  0  0  0  0  0  0  0  0  0
   15.3864   22.2801   19.0675 C   0  0  0  0  0  0  0  0  0  0  0  0
   16.5864   21.7483   18.6117 C   0  0  0  0  0  0  0  0  0  0  0  0
   16.5686   20.7508   17.6575 C   0  0  0  0  0  0  0  0  0  0  0  0
   15.3791   20.2713   17.1357 C   0  0  0  0  0  0  0  0  0  0  0  0
   13.0076   20.2329   17.1721 O   0  0  0  0  0  0  0  0  0  0  0  0
   12.3093   19.6432   18.2756 C   0  0  0  0  0  0  0  0  0  0  0  0
   18.8925   24.3483   20.6141 C   0  0  0  0  0  0  0  0  0  0  0  0
   20.1767   25.0002   20.0968 C   0  0  0  0  0  0  0  0  0  0  0  0
   20.5020   26.2758   20.8442 C   0  0  0  0  0  0  0  0  0  0  0  0
   21.2656   24.0606   20.4057 N   0  0  0  0  0  0  0  0  0  0  0  0
   21.9345   24.4493   21.4616 C   0  0  0  0  0  0  0  0  0  0  0  0
   22.8383   23.7967   21.9451 O   0  0  0  0  0  0  0  0  0  0  0  0
   21.4412   25.7960   21.9657 C   0  0  0  0  0  0  0  0  0  0  0  0
   21.4648   23.2478   19.8872 H   0  0  0  0  0  0  0  0  0  0  0  0
   16.9863   25.0405   16.1125 C   0  0  0  0  0  0  0  0  0  0  0  0
   18.0705   25.9913   15.8365 N   0  0  0  0  0  0  0  0  0  0  0  0
   18.3726   26.5421   14.6676 C   0  0  0  0  0  0  0  0  0  0  0  0
   17.7478   26.3541   13.6072 O   0  0  0  0  0  0  0  0  0  0  0  0
   18.6345   26.2480   16.6015 H   0  0  0  0  0  0  0  0  0  0  0  0
   19.4455   27.3934   14.7069 O   0  0  0  0  0  0  0  0  0  0  0  0
   21.2748   25.7661   14.6481 C   0  0  0  0  0  0  0  0  0  0  0  0
   20.5594   26.9188   13.9231 C   0  0  0  0  0  0  0  0  0  0  0  0
   21.5802   28.0542   13.9386 C   0  0  0  0  0  0  0  0  0  0  0  0
   22.2619   27.9026   15.2862 C   0  0  0  0  0  0  0  0  0  0  0  0
   21.5824   28.5602   16.3495 O   0  0  0  0  0  0  0  0  0  0  0  0
   21.3360   27.6791   17.4394 C   0  0  0  0  0  0  0  0  0  0  0  0
   21.9299   26.3350   17.0752 C   0  0  0  0  0  0  0  0  0  0  0  0
   22.2653   26.4210   15.5869 C   0  0  0  0  0  0  0  0  0  0  0  0
   17.1796   23.7440   15.3224 C   0  0  0  0  0  0  0  0  0  0  0  0
   15.7505   22.1848   13.8780 C   0  0  0  0  0  0  0  0  0  0  0  0
   14.5365   21.7404   13.3465 C   0  0  0  0  0  0  0  0  0  0  0  0
   13.3628   22.1725   13.9429 C   0  0  0  0  0  0  0  0  0  0  0  0
   13.4151   23.1567   14.9314 C   0  0  0  0  0  0  0  0  0  0  0  0
   14.6475   23.6566   15.3794 C   0  0  0  0  0  0  0  0  0  0  0  0
   15.8346   23.1856   14.8387 C   0  0  0  0  0  0  0  0  0  0  0  0
 16 15  1  0  0  0
  9 15  1  0  0  0
 10  9  2  0  0  0
  9 14  1  0  0  0
 11 10  1  0  0  0
 11 12  2  0  0  0
  6 12  1  0  0  0
 12 13  1  0  0  0
 13 14  2  0  0  0
  8  6  2  0  0  0
  5  6  1  0  0  0
  6  7  2  0  0  0
 17  5  1  0  0  0
  5  4  1  0  0  0
 18 17  1  0  0  0
 20 18  1  0  0  0
 19 18  1  0  0  0
 23 19  1  0  0  0
 21 20  1  0  0  0
 22 21  2  0  0  0
 21 23  1  0  0  0
  1  4  1  0  0  0
  1 25  1  0  0  0
  1  2  1  0  0  0
 26 25  1  0  0  0
 25 39  1  0  0  0
 27 26  1  0  0  0
 28 27  2  0  0  0
 30 27  1  0  0  0
 32 30  1  0  0  0
 32 31  1  0  0  0
 31 38  1  0  0  0
 33 32  1  0  0  0
 33 34  1  0  0  0
 34 38  1  0  0  0
 34 35  1  0  0  0
 35 36  1  0  0  0
 37 36  1  0  0  0
 38 37  1  0  0  0
 39 45  1  0  0  0
 45 40  2  0  0  0
 40 41  1  0  0  0
 42 41  2  0  0  0
 43 42  1  0  0  0
 44 43  2  0  0  0
 44 45  1  0  0  0
 20 24  1  0  0  0
  2  3  1  0  0  0
 26 29  1  0  0  0
M  END
> <minimizedAffinity>
-10.33901

$$$$
3VFA_031_A_201


 45 49  0  0  0  0  0  0  0  0999 V2000
   17.3150   21.5525   16.6400 C   0  0  0  0  0  0  0  0  0  0  0  0
   18.2806   20.5266   16.5144 O   0  0  0  0  0  0  0  0  0  0  0  0
   19.0644   20.7543   17.0385 H   0  0  0  0  0  0  0  0  0  0  0  0
   17.7737   22.8778   16.0416 C   0  0  0  0  0  0  0  0  0  0  0  0
   16.6593   23.8020   16.0009 N   0  0  0  0  0  0  0  0  0  0  0  0
   16.9559   25.3764   16.2863 S   0  0  0  0  0  0  0  0  0  0  0  0
   16.4762   25.7683   17.6297 O   0  0  0  0  0  0  0  0  0  0  0  0
   16.3254   26.0661   15.1175 O   0  0  0  0  0  0  0  0  0  0  0  0
   21.3765   26.2998   15.8485 C   0  0  0  0  0  0  0  0  0  0  0  0
   20.8170   26.1835   17.1261 C   0  0  0  0  0  0  0  0  0  0  0  0
   19.4722   25.8678   17.2683 C   0  0  0  0  0  0  0  0  0  0  0  0
   18.6804   25.6890   16.1407 C   0  0  0  0  0  0  0  0  0  0  0  0
   19.2484   25.7990   14.8872 C   0  0  0  0  0  0  0  0  0  0  0  0
   20.5954   26.0762   14.7262 C   0  0  0  0  0  0  0  0  0  0  0  0
   22.6839   26.6605   15.6873 O   0  0  0  0  0  0  0  0  0  0  0  0
   23.2789   26.8495   16.9770 C   0  0  0  0  0  0  0  0  0  0  0  0
   15.7708   23.5805   14.8716 C   0  0  0  0  0  0  0  0  0  0  0  0
   14.4329   23.0348   15.3757 C   0  0  0  0  0  0  0  0  0  0  0  0
   13.2582   23.7229   14.7138 C   0  0  0  0  0  0  0  0  0  0  0  0
   14.3753   21.6298   14.9439 N   0  0  0  0  0  0  0  0  0  0  0  0
   13.6106   21.4943   13.8903 C   0  0  0  0  0  0  0  0  0  0  0  0
   13.4641   20.4337   13.3155 O   0  0  0  0  0  0  0  0  0  0  0  0
   12.9454   22.8087   13.5152 C   0  0  0  0  0  0  0  0  0  0  0  0
   14.8489   20.8898   15.3883 H   0  0  0  0  0  0  0  0  0  0  0  0
   16.8915   21.6588   18.0942 C   0  0  0  0  0  0  0  0  0  0  0  0
   15.6706   20.8676   18.2922 N   0  0  0  0  0  0  0  0  0  0  0  0
   14.4757   21.3182   18.6528 C   0  0  0  0  0  0  0  0  0  0  0  0
   14.1947   22.5144   18.8539 O   0  0  0  0  0  0  0  0  0  0  0  0
   15.7468   19.8978   18.1410 H   0  0  0  0  0  0  0  0  0  0  0  0
   13.5178   20.3450   18.7662 O   0  0  0  0  0  0  0  0  0  0  0  0
   13.9835   17.9459   18.6070 C   0  0  0  0  0  0  0  0  0  0  0  0
   13.9797   19.1952   19.5045 C   0  0  0  0  0  0  0  0  0  0  0  0
   12.8883   18.9073   20.5328 C   0  0  0  0  0  0  0  0  0  0  0  0
   11.8322   18.1657   19.7337 C   0  0  0  0  0  0  0  0  0  0  0  0
   10.9129   19.0218   19.0653 O   0  0  0  0  0  0  0  0  0  0  0  0
   10.8203   18.7128   17.6793 C   0  0  0  0  0  0  0  0  0  0  0  0
   11.7337   17.5339   17.4187 C   0  0  0  0  0  0  0  0  0  0  0  0
   12.5812   17.3808   18.6810 C   0  0  0  0  0  0  0  0  0  0  0  0
   17.9724   21.2608   19.1021 C   0  0  0  0  0  0  0  0  0  0  0  0
   20.0390   22.6332   19.7387 C   0  0  0  0  0  0  0  0  0  0  0  0
   20.6811   23.7006   20.3729 C   0  0  0  0  0  0  0  0  0  0  0  0
   19.9088   24.7677   20.8030 C   0  0  0  0  0  0  0  0  0  0  0  0
   18.5170   24.6759   20.7483 C   0  0  0  0  0  0  0  0  0  0  0  0
   17.8952   23.5470   20.1928 C   0  0  0  0  0  0  0  0  0  0  0  0
   18.6563   22.4990   19.6971 C   0  0  0  0  0  0  0  0  0  0  0  0
 16 15  1  0  0  0
  9 15  1  0  0  0
 10  9  2  0  0  0
  9 14  1  0  0  0
 11 10  1  0  0  0
 11 12  2  0  0  0
  6 12  1  0  0  0
 12 13  1  0  0  0
 13 14  2  0  0  0
  8  6  2  0  0  0
  5  6  1  0  0  0
  6  7  2  0  0  0
 17  5  1  0  0  0
  5  4  1  0  0  0
 18 17  1  0  0  0
 20 18  1  0  0  0
 19 18  1  0  0  0
 23 19  1  0  0  0
 21 20  1  0  0  0
 22 21  2  0  0  0
 21 23  1  0  0  0
  1  4  1  0  0  0
  1 25  1  0  0  0
  1  2  1  0  0  0
 26 25  1  0  0  0
 25 39  1  0  0  0
 27 26  1  0  0  0
 28 27  2  0  0  0
 30 27  1  0  0  0
 32 30  1  0  0  0
 32 31  1  0  0  0
 31 38  1  0  0  0
 33 32  1  0  0  0
 33 34  1  0  0  0
 34 38  1  0  0  0
 34 35  1  0  0  0
 35 36  1  0  0  0
 37 36  1  0  0  0
 38 37  1  0  0  0
 39 45  1  0  0  0
 45 40  2  0  0  0
 40 41  1  0  0  0
 42 41  2  0  0  0
 43 42  1  0  0  0
 44 43  2  0  0  0
 44 45  1  0  0  0
 20 24  1  0  0  0
  2  3  1  0  0  0
 26 29  1  0  0  0
M  END
> <minimizedAffinity>
-10.32262

$$$$
3VFA_031_A_201


 45 49  0  0  0  0  0  0  0  0999 V2000
   15.8162   23.9665   17.6741 C   0  0  0  0  0  0  0  0  0  0  0  0
   14.9095   24.9355   18.1636 O   0  0  0  0  0  0  0  0  0  0  0  0
   14.8801   24.8907   19.1321 H   0  0  0  0  0  0  0  0  0  0  0  0
   15.3668   22.5365   17.9533 C   0  0  0  0  0  0  0  0  0  0  0  0
   14.3907   22.1336   16.9620 N   0  0  0  0  0  0  0  0  0  0  0  0
   14.7824   22.2897   15.3903 S   0  0  0  0  0  0  0  0  0  0  0  0
   16.0545   21.5956   15.0923 O   0  0  0  0  0  0  0  0  0  0  0  0
   14.7544   23.7696   15.1706 O   0  0  0  0  0  0  0  0  0  0  0  0
   11.4413   20.5092   12.8896 C   0  0  0  0  0  0  0  0  0  0  0  0
   11.2168   21.6923   13.6030 C   0  0  0  0  0  0  0  0  0  0  0  0
   12.2445   22.2615   14.3434 C   0  0  0  0  0  0  0  0  0  0  0  0
   13.4877   21.6428   14.3913 C   0  0  0  0  0  0  0  0  0  0  0  0
   13.6962   20.4807   13.6758 C   0  0  0  0  0  0  0  0  0  0  0  0
   12.6948   19.9189   12.9021 C   0  0  0  0  0  0  0  0  0  0  0  0
   10.4296   19.9064   12.1981 O   0  0  0  0  0  0  0  0  0  0  0  0
    9.3459   20.8326   12.0531 C   0  0  0  0  0  0  0  0  0  0  0  0
   13.7485   20.8663   17.2707 C   0  0  0  0  0  0  0  0  0  0  0  0
   14.4947   20.1837   18.4192 C   0  0  0  0  0  0  0  0  0  0  0  0
   13.5445   19.6440   19.4669 C   0  0  0  0  0  0  0  0  0  0  0  0
   15.1613   19.0103   17.8338 N   0  0  0  0  0  0  0  0  0  0  0  0
   14.5006   17.9129   18.1036 C   0  0  0  0  0  0  0  0  0  0  0  0
   14.8252   16.8257   17.6689 O   0  0  0  0  0  0  0  0  0  0  0  0
   13.3196   18.1880   19.0203 C   0  0  0  0  0  0  0  0  0  0  0  0
   15.9935   19.0456   17.3090 H   0  0  0  0  0  0  0  0  0  0  0  0
   17.2060   24.2782   18.1999 C   0  0  0  0  0  0  0  0  0  0  0  0
   17.7996   25.3372   17.3740 N   0  0  0  0  0  0  0  0  0  0  0  0
   19.0886   25.6272   17.2510 C   0  0  0  0  0  0  0  0  0  0  0  0
   20.0155   25.0102   17.8084 O   0  0  0  0  0  0  0  0  0  0  0  0
   17.1734   25.8923   16.8553 H   0  0  0  0  0  0  0  0  0  0  0  0
   19.3518   26.6767   16.4104 O   0  0  0  0  0  0  0  0  0  0  0  0
   20.7483   25.7646   14.6170 C   0  0  0  0  0  0  0  0  0  0  0  0
   19.3592   26.2870   15.0216 C   0  0  0  0  0  0  0  0  0  0  0  0
   19.2101   27.5866   14.2341 C   0  0  0  0  0  0  0  0  0  0  0  0
   20.6114   28.1698   14.2398 C   0  0  0  0  0  0  0  0  0  0  0  0
   20.9011   28.9542   15.3911 O   0  0  0  0  0  0  0  0  0  0  0  0
   22.0996   28.5277   16.0289 C   0  0  0  0  0  0  0  0  0  0  0  0
   22.6628   27.3848   15.2113 C   0  0  0  0  0  0  0  0  0  0  0  0
   21.5543   26.9882   14.2370 C   0  0  0  0  0  0  0  0  0  0  0  0
   17.2564   24.6475   19.6843 C   0  0  0  0  0  0  0  0  0  0  0  0
   19.2811   24.2874   21.2110 C   0  0  0  0  0  0  0  0  0  0  0  0
   20.2607   23.4968   21.8185 C   0  0  0  0  0  0  0  0  0  0  0  0
   20.0855   22.1222   21.8198 C   0  0  0  0  0  0  0  0  0  0  0  0
   19.0436   21.5607   21.0797 C   0  0  0  0  0  0  0  0  0  0  0  0
   18.1286   22.3775   20.3978 C   0  0  0  0  0  0  0  0  0  0  0  0
   18.2516   23.7582   20.4417 C   0  0  0  0  0  0  0  0  0  0  0  0
 16 15  1  0  0  0
  9 15  1  0  0  0
 10  9  2  0  0  0
  9 14  1  0  0  0
 11 10  1  0  0  0
 11 12  2  0  0  0
  6 12  1  0  0  0
 12 13  1  0  0  0
 13 14  2  0  0  0
  8  6  2  0  0  0
  5  6  1  0  0  0
  6  7  2  0  0  0
 17  5  1  0  0  0
  5  4  1  0  0  0
 18 17  1  0  0  0
 20 18  1  0  0  0
 19 18  1  0  0  0
 23 19  1  0  0  0
 21 20  1  0  0  0
 22 21  2  0  0  0
 21 23  1  0  0  0
  1  4  1  0  0  0
  1 25  1  0  0  0
  1  2  1  0  0  0
 26 25  1  0  0  0
 25 39  1  0  0  0
 27 26  1  0  0  0
 28 27  2  0  0  0
 30 27  1  0  0  0
 32 30  1  0  0  0
 32 31  1  0  0  0
 31 38  1  0  0  0
 33 32  1  0  0  0
 33 34  1  0  0  0
 34 38  1  0  0  0
 34 35  1  0  0  0
 35 36  1  0  0  0
 37 36  1  0  0  0
 38 37  1  0  0  0
 39 45  1  0  0  0
 45 40  2  0  0  0
 40 41  1  0  0  0
 42 41  2  0  0  0
 43 42  1  0  0  0
 44 43  2  0  0  0
 44 45  1  0  0  0
 20 24  1  0  0  0
  2  3  1  0  0  0
 26 29  1  0  0  0
M  END
> <minimizedAffinity>
-10.31370

$$$$
3VFA_031_A_201


 45 49  0  0  0  0  0  0  0  0999 V2000
   16.1543   24.5982   17.8286 C   0  0  0  0  0  0  0  0  0  0  0  0
   15.5712   25.6697   18.5446 O   0  0  0  0  0  0  0  0  0  0  0  0
   15.6383   25.4967   19.4967 H   0  0  0  0  0  0  0  0  0  0  0  0
   15.4028   23.2837   18.0081 C   0  0  0  0  0  0  0  0  0  0  0  0
   16.0181   22.2589   17.1903 N   0  0  0  0  0  0  0  0  0  0  0  0
   16.6116   20.9375   17.9318 S   0  0  0  0  0  0  0  0  0  0  0  0
   17.3454   21.3079   19.1619 O   0  0  0  0  0  0  0  0  0  0  0  0
   17.3993   20.2594   16.8554 O   0  0  0  0  0  0  0  0  0  0  0  0
   13.1324   18.1804   18.8698 C   0  0  0  0  0  0  0  0  0  0  0  0
   14.1328   17.7568   17.9873 C   0  0  0  0  0  0  0  0  0  0  0  0
   15.2179   18.5814   17.7215 C   0  0  0  0  0  0  0  0  0  0  0  0
   15.2968   19.8346   18.3163 C   0  0  0  0  0  0  0  0  0  0  0  0
   14.3065   20.2351   19.1908 C   0  0  0  0  0  0  0  0  0  0  0  0
   13.2365   19.4116   19.4969 C   0  0  0  0  0  0  0  0  0  0  0  0
   12.0320   17.4061   19.1039 O   0  0  0  0  0  0  0  0  0  0  0  0
   11.4638   17.0101   17.8495 C   0  0  0  0  0  0  0  0  0  0  0  0
   15.2596   21.9511   15.9887 C   0  0  0  0  0  0  0  0  0  0  0  0
   13.8621   22.5651   16.0974 C   0  0  0  0  0  0  0  0  0  0  0  0
   13.5430   23.4532   14.9138 C   0  0  0  0  0  0  0  0  0  0  0  0
   12.9151   21.4416   16.0280 N   0  0  0  0  0  0  0  0  0  0  0  0
   12.3788   21.3537   14.8371 C   0  0  0  0  0  0  0  0  0  0  0  0
   11.6155   20.4618   14.5234 O   0  0  0  0  0  0  0  0  0  0  0  0
   12.8242   22.4992   13.9426 C   0  0  0  0  0  0  0  0  0  0  0  0
   12.7117   20.8363   16.7774 H   0  0  0  0  0  0  0  0  0  0  0  0
   17.6273   24.5075   18.1855 C   0  0  0  0  0  0  0  0  0  0  0  0
   18.3533   25.5704   17.4792 N   0  0  0  0  0  0  0  0  0  0  0  0
   18.5986   25.6418   16.1770 C   0  0  0  0  0  0  0  0  0  0  0  0
   18.2146   24.8121   15.3317 O   0  0  0  0  0  0  0  0  0  0  0  0
   18.6951   26.3103   18.0314 H   0  0  0  0  0  0  0  0  0  0  0  0
   19.3073   26.7514   15.7976 O   0  0  0  0  0  0  0  0  0  0  0  0
   21.1648   25.8611   14.4728 C   0  0  0  0  0  0  0  0  0  0  0  0
   19.8385   26.6404   14.4612 C   0  0  0  0  0  0  0  0  0  0  0  0
   20.2471   28.0579   14.0674 C   0  0  0  0  0  0  0  0  0  0  0  0
   21.5880   28.2461   14.7531 C   0  0  0  0  0  0  0  0  0  0  0  0
   21.4854   28.6986   16.0984 O   0  0  0  0  0  0  0  0  0  0  0  0
   22.2162   27.8643   16.9900 C   0  0  0  0  0  0  0  0  0  0  0  0
   22.8808   26.7885   16.1575 C   0  0  0  0  0  0  0  0  0  0  0  0
   22.2406   26.8826   14.7732 C   0  0  0  0  0  0  0  0  0  0  0  0
   17.9215   24.5468   19.6870 C   0  0  0  0  0  0  0  0  0  0  0  0
   20.0798   25.3787   20.7867 C   0  0  0  0  0  0  0  0  0  0  0  0
   21.4668   25.3940   20.9586 C   0  0  0  0  0  0  0  0  0  0  0  0
   22.2031   24.3413   20.4390 C   0  0  0  0  0  0  0  0  0  0  0  0
   21.5746   23.3980   19.6245 C   0  0  0  0  0  0  0  0  0  0  0  0
   20.1926   23.4625   19.3893 C   0  0  0  0  0  0  0  0  0  0  0  0
   19.4302   24.4725   19.9569 C   0  0  0  0  0  0  0  0  0  0  0  0
 16 15  1  0  0  0
  9 15  1  0  0  0
 10  9  2  0  0  0
  9 14  1  0  0  0
 11 10  1  0  0  0
 11 12  2  0  0  0
  6 12  1  0  0  0
 12 13  1  0  0  0
 13 14  2  0  0  0
  8  6  2  0  0  0
  5  6  1  0  0  0
  6  7  2  0  0  0
 17  5  1  0  0  0
  5  4  1  0  0  0
 18 17  1  0  0  0
 20 18  1  0  0  0
 19 18  1  0  0  0
 23 19  1  0  0  0
 21 20  1  0  0  0
 22 21  2  0  0  0
 21 23  1  0  0  0
  1  4  1  0  0  0
  1 25  1  0  0  0
  1  2  1  0  0  0
 26 25  1  0  0  0
 25 39  1  0  0  0
 27 26  1  0  0  0
 28 27  2  0  0  0
 30 27  1  0  0  0
 32 30  1  0  0  0
 32 31  1  0  0  0
 31 38  1  0  0  0
 33 32  1  0  0  0
 33 34  1  0  0  0
 34 38  1  0  0  0
 34 35  1  0  0  0
 35 36  1  0  0  0
 37 36  1  0  0  0
 38 37  1  0  0  0
 39 45  1  0  0  0
 45 40  2  0  0  0
 40 41  1  0  0  0
 42 41  2  0  0  0
 43 42  1  0  0  0
 44 43  2  0  0  0
 44 45  1  0  0  0
 20 24  1  0  0  0
  2  3  1  0  0  0
 26 29  1  0  0  0
M  END
> <minimizedAffinity>
-10.20278

$$$$
3VFA_031_A_201


 45 49  0  0  0  0  0  0  0  0999 V2000
   16.9750   22.8384   18.4158 C   0  0  0  0  0  0  0  0  0  0  0  0
   16.5575   24.1386   18.7846 O   0  0  0  0  0  0  0  0  0  0  0  0
   16.7553   24.7580   18.0649 H   0  0  0  0  0  0  0  0  0  0  0  0
   18.4863   22.7237   18.2491 C   0  0  0  0  0  0  0  0  0  0  0  0
   19.1326   23.8341   18.9177 N   0  0  0  0  0  0  0  0  0  0  0  0
   19.4756   23.6833   20.5012 S   0  0  0  0  0  0  0  0  0  0  0  0
   19.5841   22.2584   20.8839 O   0  0  0  0  0  0  0  0  0  0  0  0
   18.3984   24.4802   21.1675 O   0  0  0  0  0  0  0  0  0  0  0  0
   23.3054   25.8702   21.5669 C   0  0  0  0  0  0  0  0  0  0  0  0
   23.3682   24.5530   21.0979 C   0  0  0  0  0  0  0  0  0  0  0  0
   22.2032   23.8888   20.7377 C   0  0  0  0  0  0  0  0  0  0  0  0
   20.9754   24.5268   20.8643 C   0  0  0  0  0  0  0  0  0  0  0  0
   20.9303   25.8290   21.3207 C   0  0  0  0  0  0  0  0  0  0  0  0
   22.0844   26.5199   21.6490 C   0  0  0  0  0  0  0  0  0  0  0  0
   24.4340   26.5222   21.9750 O   0  0  0  0  0  0  0  0  0  0  0  0
   25.5437   26.0734   21.1874 C   0  0  0  0  0  0  0  0  0  0  0  0
   20.2208   24.4135   18.1470 C   0  0  0  0  0  0  0  0  0  0  0  0
   19.8963   25.8740   17.8259 C   0  0  0  0  0  0  0  0  0  0  0  0
   20.8363   26.4448   16.7856 C   0  0  0  0  0  0  0  0  0  0  0  0
   18.5616   25.8702   17.2075 N   0  0  0  0  0  0  0  0  0  0  0  0
   18.6474   25.9909   15.9069 C   0  0  0  0  0  0  0  0  0  0  0  0
   17.6772   25.9469   15.1766 O   0  0  0  0  0  0  0  0  0  0  0  0
   20.0860   26.2019   15.4634 C   0  0  0  0  0  0  0  0  0  0  0  0
   17.7163   25.7878   17.7055 H   0  0  0  0  0  0  0  0  0  0  0  0
   16.1952   22.3968   17.1902 C   0  0  0  0  0  0  0  0  0  0  0  0
   15.1841   21.4139   17.5996 N   0  0  0  0  0  0  0  0  0  0  0  0
   14.1645   21.6125   18.4253 C   0  0  0  0  0  0  0  0  0  0  0  0
   13.8865   22.6981   18.9682 O   0  0  0  0  0  0  0  0  0  0  0  0
   15.2722   20.5096   17.2205 H   0  0  0  0  0  0  0  0  0  0  0  0
   13.3821   20.5064   18.6299 O   0  0  0  0  0  0  0  0  0  0  0  0
   14.0746   18.1575   18.5970 C   0  0  0  0  0  0  0  0  0  0  0  0
   14.0591   19.4795   19.3833 C   0  0  0  0  0  0  0  0  0  0  0  0
   13.1533   19.1878   20.5774 C   0  0  0  0  0  0  0  0  0  0  0  0
   12.0840   18.2784   20.0001 C   0  0  0  0  0  0  0  0  0  0  0  0
   10.9971   18.9776   19.4047 O   0  0  0  0  0  0  0  0  0  0  0  0
   10.7517   18.5326   18.0755 C   0  0  0  0  0  0  0  0  0  0  0  0
   11.7418   17.4258   17.7811 C   0  0  0  0  0  0  0  0  0  0  0  0
   12.7633   17.4723   18.9166 C   0  0  0  0  0  0  0  0  0  0  0  0
   15.5588   23.5396   16.3955 C   0  0  0  0  0  0  0  0  0  0  0  0
   13.6201   23.2064   14.7553 C   0  0  0  0  0  0  0  0  0  0  0  0
   13.0335   22.6560   13.6122 C   0  0  0  0  0  0  0  0  0  0  0  0
   13.8626   22.0812   12.6623 C   0  0  0  0  0  0  0  0  0  0  0  0
   15.2197   21.9154   12.9435 C   0  0  0  0  0  0  0  0  0  0  0  0
   15.7655   22.3929   14.1450 C   0  0  0  0  0  0  0  0  0  0  0  0
   14.9605   23.0302   15.0774 C   0  0  0  0  0  0  0  0  0  0  0  0
 16 15  1  0  0  0
  9 15  1  0  0  0
 10  9  2  0  0  0
  9 14  1  0  0  0
 11 10  1  0  0  0
 11 12  2  0  0  0
  6 12  1  0  0  0
 12 13  1  0  0  0
 13 14  2  0  0  0
  8  6  2  0  0  0
  5  6  1  0  0  0
  6  7  2  0  0  0
 17  5  1  0  0  0
  5  4  1  0  0  0
 18 17  1  0  0  0
 20 18  1  0  0  0
 19 18  1  0  0  0
 23 19  1  0  0  0
 21 20  1  0  0  0
 22 21  2  0  0  0
 21 23  1  0  0  0
  1  4  1  0  0  0
  1 25  1  0  0  0
  1  2  1  0  0  0
 26 25  1  0  0  0
 25 39  1  0  0  0
 27 26  1  0  0  0
 28 27  2  0  0  0
 30 27  1  0  0  0
 32 30  1  0  0  0
 32 31  1  0  0  0
 31 38  1  0  0  0
 33 32  1  0  0  0
 33 34  1  0  0  0
 34 38  1  0  0  0
 34 35  1  0  0  0
 35 36  1  0  0  0
 37 36  1  0  0  0
 38 37  1  0  0  0
 39 45  1  0  0  0
 45 40  2  0  0  0
 40 41  1  0  0  0
 42 41  2  0  0  0
 43 42  1  0  0  0
 44 43  2  0  0  0
 44 45  1  0  0  0
 20 24  1  0  0  0
  2  3  1  0  0  0
 26 29  1  0  0  0
M  END
> <minimizedAffinity>
-10.17423

$$$$
3VFA_031_A_201


 45 49  0  0  0  0  0  0  0  0999 V2000
   16.5828   24.5795   17.1407 C   0  0  0  0  0  0  0  0  0  0  0  0
   16.4358   24.6941   18.5429 O   0  0  0  0  0  0  0  0  0  0  0  0
   17.2433   24.3806   18.9794 H   0  0  0  0  0  0  0  0  0  0  0  0
   16.7059   23.1339   16.6716 C   0  0  0  0  0  0  0  0  0  0  0  0
   15.4177   22.4801   16.7753 N   0  0  0  0  0  0  0  0  0  0  0  0
   14.9443   21.9422   18.2364 S   0  0  0  0  0  0  0  0  0  0  0  0
   14.0797   22.9361   18.9095 O   0  0  0  0  0  0  0  0  0  0  0  0
   16.2334   21.6005   18.9152 O   0  0  0  0  0  0  0  0  0  0  0  0
   12.7807   17.9687   17.8961 C   0  0  0  0  0  0  0  0  0  0  0  0
   12.0502   19.1613   17.8420 C   0  0  0  0  0  0  0  0  0  0  0  0
   12.7088   20.3818   17.9115 C   0  0  0  0  0  0  0  0  0  0  0  0
   14.0903   20.4154   18.0562 C   0  0  0  0  0  0  0  0  0  0  0  0
   14.7979   19.2308   18.0999 C   0  0  0  0  0  0  0  0  0  0  0  0
   14.1623   18.0053   17.9944 C   0  0  0  0  0  0  0  0  0  0  0  0
   12.1472   16.7588   17.8817 O   0  0  0  0  0  0  0  0  0  0  0  0
   11.1508   16.7652   16.8520 C   0  0  0  0  0  0  0  0  0  0  0  0
   14.3641   23.1691   16.0480 C   0  0  0  0  0  0  0  0  0  0  0  0
   14.4066   22.7545   14.5756 C   0  0  0  0  0  0  0  0  0  0  0  0
   14.6319   21.2662   14.4153 C   0  0  0  0  0  0  0  0  0  0  0  0
   13.0643   23.0216   14.0364 N   0  0  0  0  0  0  0  0  0  0  0  0
   12.3685   21.9168   13.9429 C   0  0  0  0  0  0  0  0  0  0  0  0
   11.2074   21.8987   13.5851 O   0  0  0  0  0  0  0  0  0  0  0  0
   13.2023   20.7029   14.3199 C   0  0  0  0  0  0  0  0  0  0  0  0
   12.7333   23.9126   13.7800 H   0  0  0  0  0  0  0  0  0  0  0  0
   17.7324   25.4627   16.6894 C   0  0  0  0  0  0  0  0  0  0  0  0
   18.6279   25.6958   17.8293 N   0  0  0  0  0  0  0  0  0  0  0  0
   19.4191   24.8085   18.4188 C   0  0  0  0  0  0  0  0  0  0  0  0
   19.5474   23.6212   18.0664 O   0  0  0  0  0  0  0  0  0  0  0  0
   18.6429   26.6093   18.1961 H   0  0  0  0  0  0  0  0  0  0  0  0
   20.1428   25.3096   19.4689 O   0  0  0  0  0  0  0  0  0  0  0  0
   22.0046   24.7047   20.9407 C   0  0  0  0  0  0  0  0  0  0  0  0
   21.4991   24.8189   19.4924 C   0  0  0  0  0  0  0  0  0  0  0  0
   22.3466   25.9387   18.8931 C   0  0  0  0  0  0  0  0  0  0  0  0
   22.5138   26.9143   20.0438 C   0  0  0  0  0  0  0  0  0  0  0  0
   21.4467   27.8480   20.1632 O   0  0  0  0  0  0  0  0  0  0  0  0
   20.9041   27.8596   21.4788 C   0  0  0  0  0  0  0  0  0  0  0  0
   21.7010   26.8713   22.3034 C   0  0  0  0  0  0  0  0  0  0  0  0
   22.5360   26.0754   21.3012 C   0  0  0  0  0  0  0  0  0  0  0  0
   18.5082   24.9295   15.4826 C   0  0  0  0  0  0  0  0  0  0  0  0
   20.9513   25.5801   15.0729 C   0  0  0  0  0  0  0  0  0  0  0  0
   21.9673   26.4965   14.7871 C   0  0  0  0  0  0  0  0  0  0  0  0
   21.6097   27.7303   14.2674 C   0  0  0  0  0  0  0  0  0  0  0  0
   20.2614   28.0856   14.2041 C   0  0  0  0  0  0  0  0  0  0  0  0
   19.2629   27.1780   14.5900 C   0  0  0  0  0  0  0  0  0  0  0  0
   19.6025   25.9144   15.0498 C   0  0  0  0  0  0  0  0  0  0  0  0
 16 15  1  0  0  0
  9 15  1  0  0  0
 10  9  2  0  0  0
  9 14  1  0  0  0
 11 10  1  0  0  0
 11 12  2  0  0  0
  6 12  1  0  0  0
 12 13  1  0  0  0
 13 14  2  0  0  0
  8  6  2  0  0  0
  5  6  1  0  0  0
  6  7  2  0  0  0
 17  5  1  0  0  0
  5  4  1  0  0  0
 18 17  1  0  0  0
 20 18  1  0  0  0
 19 18  1  0  0  0
 23 19  1  0  0  0
 21 20  1  0  0  0
 22 21  2  0  0  0
 21 23  1  0  0  0
  1  4  1  0  0  0
  1 25  1  0  0  0
  1  2  1  0  0  0
 26 25  1  0  0  0
 25 39  1  0  0  0
 27 26  1  0  0  0
 28 27  2  0  0  0
 30 27  1  0  0  0
 32 30  1  0  0  0
 32 31  1  0  0  0
 31 38  1  0  0  0
 33 32  1  0  0  0
 33 34  1  0  0  0
 34 38  1  0  0  0
 34 35  1  0  0  0
 35 36  1  0  0  0
 37 36  1  0  0  0
 38 37  1  0  0  0
 39 45  1  0  0  0
 45 40  2  0  0  0
 40 41  1  0  0  0
 42 41  2  0  0  0
 43 42  1  0  0  0
 44 43  2  0  0  0
 44 45  1  0  0  0
 20 24  1  0  0  0
  2  3  1  0  0  0
 26 29  1  0  0  0
M  END
> <minimizedAffinity>
-9.95355

$$$$
3VFA_031_A_201


 45 49  0  0  0  0  0  0  0  0999 V2000
   15.5282   23.9400   17.5392 C   0  0  0  0  0  0  0  0  0  0  0  0
   14.5129   24.7352   18.1203 O   0  0  0  0  0  0  0  0  0  0  0  0
   14.0241   25.1970   17.4213 H   0  0  0  0  0  0  0  0  0  0  0  0
   16.6009   24.7649   16.8365 C   0  0  0  0  0  0  0  0  0  0  0  0
   17.7371   24.9335   17.7188 N   0  0  0  0  0  0  0  0  0  0  0  0
   18.1673   23.6818   18.6654 S   0  0  0  0  0  0  0  0  0  0  0  0
   18.3935   22.4631   17.8577 O   0  0  0  0  0  0  0  0  0  0  0  0
   17.0713   23.6227   19.6825 O   0  0  0  0  0  0  0  0  0  0  0  0
   21.9658   24.8055   20.8778 C   0  0  0  0  0  0  0  0  0  0  0  0
   20.7356   25.3106   21.3141 C   0  0  0  0  0  0  0  0  0  0  0  0
   19.5651   24.9443   20.6629 C   0  0  0  0  0  0  0  0  0  0  0  0
   19.6208   24.0936   19.5658 C   0  0  0  0  0  0  0  0  0  0  0  0
   20.8408   23.5971   19.1522 C   0  0  0  0  0  0  0  0  0  0  0  0
   22.0140   23.9214   19.8121 C   0  0  0  0  0  0  0  0  0  0  0  0
   23.1324   25.1945   21.4720 O   0  0  0  0  0  0  0  0  0  0  0  0
   24.2232   24.4906   20.8655 C   0  0  0  0  0  0  0  0  0  0  0  0
   18.8685   25.5854   17.0794 C   0  0  0  0  0  0  0  0  0  0  0  0
   19.0028   25.0784   15.6419 C   0  0  0  0  0  0  0  0  0  0  0  0
   18.7707   26.1812   14.6312 C   0  0  0  0  0  0  0  0  0  0  0  0
   20.4070   24.6706   15.4814 N   0  0  0  0  0  0  0  0  0  0  0  0
   21.0876   25.5798   14.8305 C   0  0  0  0  0  0  0  0  0  0  0  0
   22.2838   25.4923   14.6358 O   0  0  0  0  0  0  0  0  0  0  0  0
   20.1898   26.7121   14.3586 C   0  0  0  0  0  0  0  0  0  0  0  0
   20.7847   23.8262   15.8186 H   0  0  0  0  0  0  0  0  0  0  0  0
   14.8871   22.8931   16.6458 C   0  0  0  0  0  0  0  0  0  0  0  0
   14.0403   22.0207   17.4691 N   0  0  0  0  0  0  0  0  0  0  0  0
   14.4434   21.0651   18.2968 C   0  0  0  0  0  0  0  0  0  0  0  0
   15.6322   20.7764   18.5291 O   0  0  0  0  0  0  0  0  0  0  0  0
   13.0682   22.1598   17.3994 H   0  0  0  0  0  0  0  0  0  0  0  0
   13.4252   20.4049   18.9330 O   0  0  0  0  0  0  0  0  0  0  0  0
   13.9854   18.0286   18.7393 C   0  0  0  0  0  0  0  0  0  0  0  0
   13.8850   19.2515   19.6670 C   0  0  0  0  0  0  0  0  0  0  0  0
   12.7473   18.8975   20.6220 C   0  0  0  0  0  0  0  0  0  0  0  0
   11.7663   18.1426   19.7437 C   0  0  0  0  0  0  0  0  0  0  0  0
   10.8567   18.9848   19.0451 O   0  0  0  0  0  0  0  0  0  0  0  0
   10.8552   18.7116   17.6485 C   0  0  0  0  0  0  0  0  0  0  0  0
   11.8239   17.5726   17.4113 C   0  0  0  0  0  0  0  0  0  0  0  0
   12.6024   17.4136   18.7165 C   0  0  0  0  0  0  0  0  0  0  0  0
   14.1010   23.4621   15.4622 C   0  0  0  0  0  0  0  0  0  0  0  0
   14.4023   21.3536   14.0399 C   0  0  0  0  0  0  0  0  0  0  0  0
   13.9607   20.3887   13.1301 C   0  0  0  0  0  0  0  0  0  0  0  0
   12.5996   20.2889   12.8898 C   0  0  0  0  0  0  0  0  0  0  0  0
   11.7352   21.2478   13.4205 C   0  0  0  0  0  0  0  0  0  0  0  0
   12.2209   22.2659   14.2554 C   0  0  0  0  0  0  0  0  0  0  0  0
   13.5721   22.3399   14.5591 C   0  0  0  0  0  0  0  0  0  0  0  0
 16 15  1  0  0  0
  9 15  1  0  0  0
 10  9  2  0  0  0
  9 14  1  0  0  0
 11 10  1  0  0  0
 11 12  2  0  0  0
  6 12  1  0  0  0
 12 13  1  0  0  0
 13 14  2  0  0  0
  8  6  2  0  0  0
  5  6  1  0  0  0
  6  7  2  0  0  0
 17  5  1  0  0  0
  5  4  1  0  0  0
 18 17  1  0  0  0
 20 18  1  0  0  0
 19 18  1  0  0  0
 23 19  1  0  0  0
 21 20  1  0  0  0
 22 21  2  0  0  0
 21 23  1  0  0  0
  1  4  1  0  0  0
  1 25  1  0  0  0
  1  2  1  0  0  0
 26 25  1  0  0  0
 25 39  1  0  0  0
 27 26  1  0  0  0
 28 27  2  0  0  0
 30 27  1  0  0  0
 32 30  1  0  0  0
 32 31  1  0  0  0
 31 38  1  0  0  0
 33 32  1  0  0  0
 33 34  1  0  0  0
 34 38  1  0  0  0
 34 35  1  0  0  0
 35 36  1  0  0  0
 37 36  1  0  0  0
 38 37  1  0  0  0
 39 45  1  0  0  0
 45 40  2  0  0  0
 40 41  1  0  0  0
 42 41  2  0  0  0
 43 42  1  0  0  0
 44 43  2  0  0  0
 44 45  1  0  0  0
 20 24  1  0  0  0
  2  3  1  0  0  0
 26 29  1  0  0  0
M  END
> <minimizedAffinity>
-9.92239

$$$$
3VFA_031_A_201


 45 49  0  0  0  0  0  0  0  0999 V2000
   15.3648   23.8471   15.5524 C   0  0  0  0  0  0  0  0  0  0  0  0
   14.4482   24.2146   16.5651 O   0  0  0  0  0  0  0  0  0  0  0  0
   14.7644   23.8871   17.4217 H   0  0  0  0  0  0  0  0  0  0  0  0
   15.4535   22.3386   15.3490 C   0  0  0  0  0  0  0  0  0  0  0  0
   14.1406   21.8149   15.0330 N   0  0  0  0  0  0  0  0  0  0  0  0
   13.5026   22.1672   13.5780 S   0  0  0  0  0  0  0  0  0  0  0  0
   14.5353   22.1059   12.5205 O   0  0  0  0  0  0  0  0  0  0  0  0
   12.8425   23.4917   13.7996 O   0  0  0  0  0  0  0  0  0  0  0  0
   10.0775   19.3683   12.5673 C   0  0  0  0  0  0  0  0  0  0  0  0
   11.3884   19.0054   12.2373 C   0  0  0  0  0  0  0  0  0  0  0  0
   12.4451   19.8412   12.5736 C   0  0  0  0  0  0  0  0  0  0  0  0
   12.1959   21.0465   13.2183 C   0  0  0  0  0  0  0  0  0  0  0  0
   10.8984   21.3869   13.5446 C   0  0  0  0  0  0  0  0  0  0  0  0
    9.8360   20.5492   13.2508 C   0  0  0  0  0  0  0  0  0  0  0  0
    9.0209   18.5852   12.1993 O   0  0  0  0  0  0  0  0  0  0  0  0
    8.8235   18.7012   10.7848 C   0  0  0  0  0  0  0  0  0  0  0  0
   13.9721   20.4214   15.4118 C   0  0  0  0  0  0  0  0  0  0  0  0
   13.0503   20.3326   16.6300 C   0  0  0  0  0  0  0  0  0  0  0  0
   13.4799   19.2380   17.5833 C   0  0  0  0  0  0  0  0  0  0  0  0
   13.2180   21.5970   17.3629 N   0  0  0  0  0  0  0  0  0  0  0  0
   13.9952   21.4358   18.4038 C   0  0  0  0  0  0  0  0  0  0  0  0
   14.3311   22.3558   19.1230 O   0  0  0  0  0  0  0  0  0  0  0  0
   14.3884   19.9782   18.5817 C   0  0  0  0  0  0  0  0  0  0  0  0
   12.8012   22.4508   17.1048 H   0  0  0  0  0  0  0  0  0  0  0  0
   16.7058   24.4997   15.8374 C   0  0  0  0  0  0  0  0  0  0  0  0
   17.2171   23.9944   17.1177 N   0  0  0  0  0  0  0  0  0  0  0  0
   16.9004   24.4269   18.3316 C   0  0  0  0  0  0  0  0  0  0  0  0
   16.0783   25.3296   18.5759 O   0  0  0  0  0  0  0  0  0  0  0  0
   17.8650   23.2547   17.0704 H   0  0  0  0  0  0  0  0  0  0  0  0
   17.5405   23.7684   19.3485 O   0  0  0  0  0  0  0  0  0  0  0  0
   18.3209   21.5916   20.1554 C   0  0  0  0  0  0  0  0  0  0  0  0
   18.0757   22.4946   18.9344 C   0  0  0  0  0  0  0  0  0  0  0  0
   19.4781   22.7943   18.4099 C   0  0  0  0  0  0  0  0  0  0  0  0
   20.3133   22.9117   19.6718 C   0  0  0  0  0  0  0  0  0  0  0  0
   20.3006   24.2124   20.2487 O   0  0  0  0  0  0  0  0  0  0  0  0
   19.9434   24.1725   21.6255 C   0  0  0  0  0  0  0  0  0  0  0  0
   19.7318   22.7195   21.9941 C   0  0  0  0  0  0  0  0  0  0  0  0
   19.6965   21.9581   20.6697 C   0  0  0  0  0  0  0  0  0  0  0  0
   17.7448   24.3297   14.7265 C   0  0  0  0  0  0  0  0  0  0  0  0
   18.6157   26.7191   14.4232 C   0  0  0  0  0  0  0  0  0  0  0  0
   19.6254   27.6853   14.3986 C   0  0  0  0  0  0  0  0  0  0  0  0
   20.8441   27.3744   14.9802 C   0  0  0  0  0  0  0  0  0  0  0  0
   21.0862   26.0703   15.4151 C   0  0  0  0  0  0  0  0  0  0  0  0
   20.0827   25.0922   15.3386 C   0  0  0  0  0  0  0  0  0  0  0  0
   18.8352   25.4054   14.8200 C   0  0  0  0  0  0  0  0  0  0  0  0
 16 15  1  0  0  0
  9 15  1  0  0  0
 10  9  2  0  0  0
  9 14  1  0  0  0
 11 10  1  0  0  0
 11 12  2  0  0  0
  6 12  1  0  0  0
 12 13  1  0  0  0
 13 14  2  0  0  0
  8  6  2  0  0  0
  5  6  1  0  0  0
  6  7  2  0  0  0
 17  5  1  0  0  0
  5  4  1  0  0  0
 18 17  1  0  0  0
 20 18  1  0  0  0
 19 18  1  0  0  0
 23 19  1  0  0  0
 21 20  1  0  0  0
 22 21  2  0  0  0
 21 23  1  0  0  0
  1  4  1  0  0  0
  1 25  1  0  0  0
  1  2  1  0  0  0
 26 25  1  0  0  0
 25 39  1  0  0  0
 27 26  1  0  0  0
 28 27  2  0  0  0
 30 27  1  0  0  0
 32 30  1  0  0  0
 32 31  1  0  0  0
 31 38  1  0  0  0
 33 32  1  0  0  0
 33 34  1  0  0  0
 34 38  1  0  0  0
 34 35  1  0  0  0
 35 36  1  0  0  0
 37 36  1  0  0  0
 38 37  1  0  0  0
 39 45  1  0  0  0
 45 40  2  0  0  0
 40 41  1  0  0  0
 42 41  2  0  0  0
 43 42  1  0  0  0
 44 43  2  0  0  0
 44 45  1  0  0  0
 20 24  1  0  0  0
  2  3  1  0  0  0
 26 29  1  0  0  0
M  END
> <minimizedAffinity>
-9.47588

$$$$
3VFA_031_A_201


 45 49  0  0  0  0  0  0  0  0999 V2000
   15.0307   22.4869   17.6562 C   0  0  0  0  0  0  0  0  0  0  0  0
   14.2630   22.4233   18.8424 O   0  0  0  0  0  0  0  0  0  0  0  0
   14.6416   21.7572   19.4373 H   0  0  0  0  0  0  0  0  0  0  0  0
   14.9709   21.2009   16.8391 C   0  0  0  0  0  0  0  0  0  0  0  0
   13.7332   21.1619   16.0879 N   0  0  0  0  0  0  0  0  0  0  0  0
   13.7639   21.6347   14.5311 S   0  0  0  0  0  0  0  0  0  0  0  0
   14.9837   21.1421   13.8544 O   0  0  0  0  0  0  0  0  0  0  0  0
   13.5923   23.1188   14.6153 O   0  0  0  0  0  0  0  0  0  0  0  0
   10.0792   19.9873   12.4587 C   0  0  0  0  0  0  0  0  0  0  0  0
    9.9486   21.0471   13.3636 C   0  0  0  0  0  0  0  0  0  0  0  0
   11.0756   21.5789   13.9762 C   0  0  0  0  0  0  0  0  0  0  0  0
   12.3285   21.0429   13.7051 C   0  0  0  0  0  0  0  0  0  0  0  0
   12.4422   20.0031   12.8041 C   0  0  0  0  0  0  0  0  0  0  0  0
   11.3342   19.4848   12.1554 C   0  0  0  0  0  0  0  0  0  0  0  0
    8.9785   19.4167   11.8858 O   0  0  0  0  0  0  0  0  0  0  0  0
    9.2004   18.0078   11.7487 C   0  0  0  0  0  0  0  0  0  0  0  0
   12.9692   19.9438   16.3033 C   0  0  0  0  0  0  0  0  0  0  0  0
   11.8414   20.2196   17.3001 C   0  0  0  0  0  0  0  0  0  0  0  0
   10.6233   19.3643   17.0239 C   0  0  0  0  0  0  0  0  0  0  0  0
   12.3450   19.7947   18.6154 N   0  0  0  0  0  0  0  0  0  0  0  0
   11.8543   18.6284   18.9506 C   0  0  0  0  0  0  0  0  0  0  0  0
   12.1791   18.0451   19.9659 O   0  0  0  0  0  0  0  0  0  0  0  0
   10.8437   18.1370   17.9269 C   0  0  0  0  0  0  0  0  0  0  0  0
   12.9681   20.3179   19.1696 H   0  0  0  0  0  0  0  0  0  0  0  0
   16.4443   22.9186   18.0035 C   0  0  0  0  0  0  0  0  0  0  0  0
   17.0029   23.6694   16.8721 N   0  0  0  0  0  0  0  0  0  0  0  0
   18.1884   23.4925   16.3027 C   0  0  0  0  0  0  0  0  0  0  0  0
   19.0151   22.6211   16.6308 O   0  0  0  0  0  0  0  0  0  0  0  0
   16.4367   24.3811   16.4952 H   0  0  0  0  0  0  0  0  0  0  0  0
   18.4469   24.3473   15.2634 O   0  0  0  0  0  0  0  0  0  0  0  0
   18.2232   26.5834   14.2897 C   0  0  0  0  0  0  0  0  0  0  0  0
   17.8629   25.6516   15.4594 C   0  0  0  0  0  0  0  0  0  0  0  0
   18.6033   26.2532   16.6517 C   0  0  0  0  0  0  0  0  0  0  0  0
   19.9033   26.7533   16.0488 C   0  0  0  0  0  0  0  0  0  0  0  0
   20.9206   25.7610   15.9762 O   0  0  0  0  0  0  0  0  0  0  0  0
   21.4560   25.6533   14.6621 C   0  0  0  0  0  0  0  0  0  0  0  0
   20.7524   26.6826   13.8033 C   0  0  0  0  0  0  0  0  0  0  0  0
   19.5712   27.1782   14.6365 C   0  0  0  0  0  0  0  0  0  0  0  0
   16.5641   23.7168   19.3040 C   0  0  0  0  0  0  0  0  0  0  0  0
   18.2589   21.9878   20.1394 C   0  0  0  0  0  0  0  0  0  0  0  0
   19.3284   21.5742   20.9386 C   0  0  0  0  0  0  0  0  0  0  0  0
   20.1001   22.5461   21.5549 C   0  0  0  0  0  0  0  0  0  0  0  0
   19.6955   23.8810   21.5032 C   0  0  0  0  0  0  0  0  0  0  0  0
   18.5588   24.2568   20.7708 C   0  0  0  0  0  0  0  0  0  0  0  0
   17.8135   23.3035   20.0932 C   0  0  0  0  0  0  0  0  0  0  0  0
 16 15  1  0  0  0
  9 15  1  0  0  0
 10  9  2  0  0  0
  9 14  1  0  0  0
 11 10  1  0  0  0
 11 12  2  0  0  0
  6 12  1  0  0  0
 12 13  1  0  0  0
 13 14  2  0  0  0
  8  6  2  0  0  0
  5  6  1  0  0  0
  6  7  2  0  0  0
 17  5  1  0  0  0
  5  4  1  0  0  0
 18 17  1  0  0  0
 20 18  1  0  0  0
 19 18  1  0  0  0
 23 19  1  0  0  0
 21 20  1  0  0  0
 22 21  2  0  0  0
 21 23  1  0  0  0
  1  4  1  0  0  0
  1 25  1  0  0  0
  1  2  1  0  0  0
 26 25  1  0  0  0
 25 39  1  0  0  0
 27 26  1  0  0  0
 28 27  2  0  0  0
 30 27  1  0  0  0
 32 30  1  0  0  0
 32 31  1  0  0  0
 31 38  1  0  0  0
 33 32  1  0  0  0
 33 34  1  0  0  0
 34 38  1  0  0  0
 34 35  1  0  0  0
 35 36  1  0  0  0
 37 36  1  0  0  0
 38 37  1  0  0  0
 39 45  1  0  0  0
 45 40  2  0  0  0
 40 41  1  0  0  0
 42 41  2  0  0  0
 43 42  1  0  0  0
 44 43  2  0  0  0
 44 45  1  0  0  0
 20 24  1  0  0  0
  2  3  1  0  0  0
 26 29  1  0  0  0
M  END
> <minimizedAffinity>
-9.46912

$$$$
