1W4Q_UMF_A_1125


 25 26  0  0  0  0  0  0  0  0999 V2000
   38.4981   -0.7647   13.7837 C   0  0  0  0  0  0  0  0  0  0  0  0
   38.2111   -2.0782   13.5710 O   0  0  0  0  0  0  0  0  0  0  0  0
   37.4328    0.1084   13.2491 C   0  0  0  0  0  0  0  0  0  0  0  0
   36.5437   -0.8148   12.2375 C   0  0  0  0  0  0  0  0  0  0  0  0
   36.4887    0.0397   11.2838 F   0  0  0  0  0  0  0  0  0  0  0  0
   37.2878   -2.2703   12.2266 C   0  0  0  0  0  0  0  0  0  0  0  0
   36.2867   -3.4877   12.4798 N   0  0  0  0  0  0  0  0  0  0  0  0
   35.1653   -3.6930   11.6374 C   0  0  0  0  0  0  0  0  0  0  0  0
   34.9376   -2.9741   10.7384 O   0  0  0  0  0  0  0  0  0  0  0  0
   34.4036   -4.8166   11.9952 N   0  0  0  0  0  0  0  0  0  0  0  0
   34.6290   -5.7249   13.0728 C   0  0  0  0  0  0  0  0  0  0  0  0
   33.8455   -6.6398   13.2053 O   0  0  0  0  0  0  0  0  0  0  0  0
   35.8067   -5.4335   13.9013 C   0  0  0  0  0  0  0  0  0  0  0  0
   36.5812   -4.3576   13.5966 C   0  0  0  0  0  0  0  0  0  0  0  0
   33.6165   -5.0008   11.4332 H   0  0  0  0  0  0  0  0  0  0  0  0
   39.6564    0.6726   15.2713 O   0  0  0  0  0  0  0  0  0  0  0  0
   39.4643   -0.8578   14.9913 C   0  0  0  0  0  0  0  0  0  0  0  0
   40.2557    0.7907   16.0248 H   0  0  0  0  0  0  0  0  0  0  0  0
   37.4203    1.5080   12.7027 O   0  0  0  0  0  0  0  0  0  0  0  0
   35.6708    2.2902   13.8652 O   0  0  0  0  0  0  0  0  0  0  0  0
   37.1203    2.6457   13.2960 P   0  0  0  0  0  0  0  0  0  0  0  0
   37.9393    3.1912   14.4377 O   0  0  0  0  0  0  0  0  0  0  0  0
   37.1670    3.5488   12.1233 O   0  0  0  0  0  0  0  0  0  0  0  0
   35.7594    1.6965   14.6272 H   0  0  0  0  0  0  0  0  0  0  0  0
   37.8910    2.5814   15.1905 H   0  0  0  0  0  0  0  0  0  0  0  0
  7  8  1  0  0  0
  7 14  1  0  0  0
  7  6  1  0  0  0
  8  9  2  0  0  0
  8 10  1  0  0  0
 10 11  1  0  0  0
 11 12  2  0  0  0
 11 13  1  0  0  0
 13 14  2  0  0  0
 16 17  1  0  0  0
 17  1  1  0  0  0
  1  2  1  0  0  0
  1  3  1  0  0  0
  2  6  1  0  0  0
  3 19  1  0  0  0
  3  4  1  0  0  0
 19 21  1  0  0  0
  4  5  1  0  0  0
  4  6  1  0  0  0
 20 21  1  0  0  0
 21 22  1  0  0  0
 21 23  2  0  0  0
 10 15  1  0  0  0
 16 18  1  0  0  0
 20 24  1  0  0  0
 22 25  1  0  0  0
M  END
> <minimizedAffinity>
-7.33021

$$$$
1W4Q_UMF_A_1125


 25 26  0  0  0  0  0  0  0  0999 V2000
   37.4672   -3.4239   13.6002 C   0  0  0  0  0  0  0  0  0  0  0  0
   37.2086   -4.7551   13.4825 O   0  0  0  0  0  0  0  0  0  0  0  0
   36.3816   -2.6144   13.0093 C   0  0  0  0  0  0  0  0  0  0  0  0
   35.5104   -3.6263   12.0695 C   0  0  0  0  0  0  0  0  0  0  0  0
   35.4341   -2.8433   11.0578 F   0  0  0  0  0  0  0  0  0  0  0  0
   36.2863   -5.0624   12.1590 C   0  0  0  0  0  0  0  0  0  0  0  0
   35.3128   -6.2802   12.5022 N   0  0  0  0  0  0  0  0  0  0  0  0
   34.4247   -6.7973   11.5260 C   0  0  0  0  0  0  0  0  0  0  0  0
   34.3746   -6.3435   10.4451 O   0  0  0  0  0  0  0  0  0  0  0  0
   33.6558   -7.8746   11.9937 N   0  0  0  0  0  0  0  0  0  0  0  0
   33.6720   -8.4685   13.2915 C   0  0  0  0  0  0  0  0  0  0  0  0
   32.9233   -9.4009   13.4883 O   0  0  0  0  0  0  0  0  0  0  0  0
   34.6139   -7.8658   14.2441 C   0  0  0  0  0  0  0  0  0  0  0  0
   35.3855   -6.8205   13.8414 C   0  0  0  0  0  0  0  0  0  0  0  0
   33.0276   -8.2694   11.3465 H   0  0  0  0  0  0  0  0  0  0  0  0
   37.7057   -4.4487   15.7246 O   0  0  0  0  0  0  0  0  0  0  0  0
   38.4383   -3.4098   14.8073 C   0  0  0  0  0  0  0  0  0  0  0  0
   38.2030   -4.5582   16.5502 H   0  0  0  0  0  0  0  0  0  0  0  0
   36.3368   -1.2578   12.3648 O   0  0  0  0  0  0  0  0  0  0  0  0
   37.4100   -0.0431   13.9130 O   0  0  0  0  0  0  0  0  0  0  0  0
   37.2412   -0.2996   12.3455 P   0  0  0  0  0  0  0  0  0  0  0  0
   38.6163   -0.5109   11.7655 O   0  0  0  0  0  0  0  0  0  0  0  0
   36.4902    0.7253   11.5847 O   0  0  0  0  0  0  0  0  0  0  0  0
   37.9143   -0.7719   14.3074 H   0  0  0  0  0  0  0  0  0  0  0  0
   39.0848   -1.1854   12.2817 H   0  0  0  0  0  0  0  0  0  0  0  0
  7  8  1  0  0  0
  7 14  1  0  0  0
  7  6  1  0  0  0
  8  9  2  0  0  0
  8 10  1  0  0  0
 10 11  1  0  0  0
 11 12  2  0  0  0
 11 13  1  0  0  0
 13 14  2  0  0  0
 16 17  1  0  0  0
 17  1  1  0  0  0
  1  2  1  0  0  0
  1  3  1  0  0  0
  2  6  1  0  0  0
  3 19  1  0  0  0
  3  4  1  0  0  0
 19 21  1  0  0  0
  4  5  1  0  0  0
  4  6  1  0  0  0
 20 21  1  0  0  0
 21 22  1  0  0  0
 21 23  2  0  0  0
 10 15  1  0  0  0
 16 18  1  0  0  0
 20 24  1  0  0  0
 22 25  1  0  0  0
M  END
> <minimizedAffinity>
-6.45149

$$$$
1W4Q_UMF_A_1125


 25 26  0  0  0  0  0  0  0  0999 V2000
   39.2079    1.0179   12.4134 C   0  0  0  0  0  0  0  0  0  0  0  0
   38.7364   -0.2088   12.0585 O   0  0  0  0  0  0  0  0  0  0  0  0
   38.2449    1.7310   13.2775 C   0  0  0  0  0  0  0  0  0  0  0  0
   36.8178    0.9538   13.1177 C   0  0  0  0  0  0  0  0  0  0  0  0
   36.1027    2.0075   12.9724 F   0  0  0  0  0  0  0  0  0  0  0  0
   37.0948   -0.2197   12.0139 C   0  0  0  0  0  0  0  0  0  0  0  0
   36.5934   -1.6586   12.4900 N   0  0  0  0  0  0  0  0  0  0  0  0
   35.4653   -2.2703   11.8879 C   0  0  0  0  0  0  0  0  0  0  0  0
   34.8664   -1.7369   11.0314 O   0  0  0  0  0  0  0  0  0  0  0  0
   35.1756   -3.5378   12.4172 N   0  0  0  0  0  0  0  0  0  0  0  0
   35.8641   -4.2359   13.4544 C   0  0  0  0  0  0  0  0  0  0  0  0
   35.4480   -5.3318   13.7615 O   0  0  0  0  0  0  0  0  0  0  0  0
   37.0148   -3.5265   14.0295 C   0  0  0  0  0  0  0  0  0  0  0  0
   37.3410   -2.2957   13.5510 C   0  0  0  0  0  0  0  0  0  0  0  0
   34.4018   -4.0026   12.0244 H   0  0  0  0  0  0  0  0  0  0  0  0
   41.1334    2.2655   11.8164 O   0  0  0  0  0  0  0  0  0  0  0  0
   40.7352    0.8132   12.2521 C   0  0  0  0  0  0  0  0  0  0  0  0
   42.0914    2.3080   11.6705 H   0  0  0  0  0  0  0  0  0  0  0  0
   37.9382    3.1844   13.5040 O   0  0  0  0  0  0  0  0  0  0  0  0
   39.8483    4.3279   13.7648 O   0  0  0  0  0  0  0  0  0  0  0  0
   38.4724    4.2575   12.9566 P   0  0  0  0  0  0  0  0  0  0  0  0
   38.8007    4.3252   11.4871 O   0  0  0  0  0  0  0  0  0  0  0  0
   37.4393    5.2539   13.3215 O   0  0  0  0  0  0  0  0  0  0  0  0
   40.4466    3.6344   13.4455 H   0  0  0  0  0  0  0  0  0  0  0  0
   39.4781    3.6637   11.2764 H   0  0  0  0  0  0  0  0  0  0  0  0
  7  8  1  0  0  0
  7 14  1  0  0  0
  7  6  1  0  0  0
  8  9  2  0  0  0
  8 10  1  0  0  0
 10 11  1  0  0  0
 11 12  2  0  0  0
 11 13  1  0  0  0
 13 14  2  0  0  0
 16 17  1  0  0  0
 17  1  1  0  0  0
  1  2  1  0  0  0
  1  3  1  0  0  0
  2  6  1  0  0  0
  3 19  1  0  0  0
  3  4  1  0  0  0
 19 21  1  0  0  0
  4  5  1  0  0  0
  4  6  1  0  0  0
 20 21  1  0  0  0
 21 22  1  0  0  0
 21 23  2  0  0  0
 10 15  1  0  0  0
 16 18  1  0  0  0
 20 24  1  0  0  0
 22 25  1  0  0  0
M  END
> <minimizedAffinity>
-6.43068

$$$$
1W4Q_UMF_A_1125


 25 26  0  0  0  0  0  0  0  0999 V2000
   37.9058   -1.3166   14.0506 C   0  0  0  0  0  0  0  0  0  0  0  0
   38.1749   -0.0010   14.2736 O   0  0  0  0  0  0  0  0  0  0  0  0
   37.4512   -1.5413   12.6629 C   0  0  0  0  0  0  0  0  0  0  0  0
   37.0386   -0.0772   12.0696 C   0  0  0  0  0  0  0  0  0  0  0  0
   35.9293   -0.4484   11.5458 F   0  0  0  0  0  0  0  0  0  0  0  0
   37.2522    0.9608   13.3142 C   0  0  0  0  0  0  0  0  0  0  0  0
   38.1153    2.2443   12.9187 N   0  0  0  0  0  0  0  0  0  0  0  0
   37.5070    3.5188   12.7964 C   0  0  0  0  0  0  0  0  0  0  0  0
   36.3566    3.6656   12.9748 O   0  0  0  0  0  0  0  0  0  0  0  0
   38.4152    4.5344   12.4584 N   0  0  0  0  0  0  0  0  0  0  0  0
   39.8193    4.4182   12.2297 C   0  0  0  0  0  0  0  0  0  0  0  0
   40.4251    5.4296   11.9495 O   0  0  0  0  0  0  0  0  0  0  0  0
   40.3659    3.0616   12.3676 C   0  0  0  0  0  0  0  0  0  0  0  0
   39.5294    2.0406   12.6967 C   0  0  0  0  0  0  0  0  0  0  0  0
   38.0369    5.4388   12.3679 H   0  0  0  0  0  0  0  0  0  0  0  0
   37.7948   -3.1416   15.5597 O   0  0  0  0  0  0  0  0  0  0  0  0
   38.7750   -1.9922   15.1407 C   0  0  0  0  0  0  0  0  0  0  0  0
   38.2030   -3.6759   16.2589 H   0  0  0  0  0  0  0  0  0  0  0  0
   36.5434   -2.5536   12.0235 O   0  0  0  0  0  0  0  0  0  0  0  0
   37.0619   -4.5964   12.7865 O   0  0  0  0  0  0  0  0  0  0  0  0
   35.8742   -3.5517   12.5644 P   0  0  0  0  0  0  0  0  0  0  0  0
   35.1422   -3.4056   13.8739 O   0  0  0  0  0  0  0  0  0  0  0  0
   34.9365   -3.8422   11.4556 O   0  0  0  0  0  0  0  0  0  0  0  0
   37.6101   -4.3088   13.5333 H   0  0  0  0  0  0  0  0  0  0  0  0
   35.7789   -3.2162   14.5808 H   0  0  0  0  0  0  0  0  0  0  0  0
  7  8  1  0  0  0
  7 14  1  0  0  0
  7  6  1  0  0  0
  8  9  2  0  0  0
  8 10  1  0  0  0
 10 11  1  0  0  0
 11 12  2  0  0  0
 11 13  1  0  0  0
 13 14  2  0  0  0
 16 17  1  0  0  0
 17  1  1  0  0  0
  1  2  1  0  0  0
  1  3  1  0  0  0
  2  6  1  0  0  0
  3 19  1  0  0  0
  3  4  1  0  0  0
 19 21  1  0  0  0
  4  5  1  0  0  0
  4  6  1  0  0  0
 20 21  1  0  0  0
 21 22  1  0  0  0
 21 23  2  0  0  0
 10 15  1  0  0  0
 16 18  1  0  0  0
 20 24  1  0  0  0
 22 25  1  0  0  0
M  END
> <minimizedAffinity>
-6.42203

$$$$
1W4Q_UMF_A_1125


 25 26  0  0  0  0  0  0  0  0999 V2000
   37.9796    1.5958   13.2400 C   0  0  0  0  0  0  0  0  0  0  0  0
   37.1579    0.5548   13.5465 O   0  0  0  0  0  0  0  0  0  0  0  0
   39.1168    1.1518   12.4078 C   0  0  0  0  0  0  0  0  0  0  0  0
   39.1785   -0.4745   12.5402 C   0  0  0  0  0  0  0  0  0  0  0  0
   40.4438   -0.5494   12.7298 F   0  0  0  0  0  0  0  0  0  0  0  0
   37.9906   -0.8598   13.5952 C   0  0  0  0  0  0  0  0  0  0  0  0
   37.0322   -2.0203   13.0630 N   0  0  0  0  0  0  0  0  0  0  0  0
   36.9040   -3.2396   13.7746 C   0  0  0  0  0  0  0  0  0  0  0  0
   37.5005   -3.4330   14.7664 O   0  0  0  0  0  0  0  0  0  0  0  0
   36.0095   -4.1390   13.1733 N   0  0  0  0  0  0  0  0  0  0  0  0
   35.2580   -3.9614   11.9729 C   0  0  0  0  0  0  0  0  0  0  0  0
   34.5342   -4.8700   11.6276 O   0  0  0  0  0  0  0  0  0  0  0  0
   35.4573   -2.6740   11.2941 C   0  0  0  0  0  0  0  0  0  0  0  0
   36.3116   -1.7646   11.8359 C   0  0  0  0  0  0  0  0  0  0  0  0
   35.8852   -4.9985   13.6369 H   0  0  0  0  0  0  0  0  0  0  0  0
   35.7197    2.0223   13.8154 O   0  0  0  0  0  0  0  0  0  0  0  0
   37.0135    2.7978   13.3886 C   0  0  0  0  0  0  0  0  0  0  0  0
   34.9954    2.6527   13.9527 H   0  0  0  0  0  0  0  0  0  0  0  0
   40.5283    1.6394   12.2409 O   0  0  0  0  0  0  0  0  0  0  0  0
   41.8125    2.4805   10.6078 O   0  0  0  0  0  0  0  0  0  0  0  0
   40.9782    2.8363   11.9225 P   0  0  0  0  0  0  0  0  0  0  0  0
   40.0500    3.9739   11.5817 O   0  0  0  0  0  0  0  0  0  0  0  0
   41.7624    3.1317   13.1437 O   0  0  0  0  0  0  0  0  0  0  0  0
   41.2018    2.3064    9.8746 H   0  0  0  0  0  0  0  0  0  0  0  0
   39.5501    3.7542   10.7800 H   0  0  0  0  0  0  0  0  0  0  0  0
  7  8  1  0  0  0
  7 14  1  0  0  0
  7  6  1  0  0  0
  8  9  2  0  0  0
  8 10  1  0  0  0
 10 11  1  0  0  0
 11 12  2  0  0  0
 11 13  1  0  0  0
 13 14  2  0  0  0
 16 17  1  0  0  0
 17  1  1  0  0  0
  1  2  1  0  0  0
  1  3  1  0  0  0
  2  6  1  0  0  0
  3 19  1  0  0  0
  3  4  1  0  0  0
 19 21  1  0  0  0
  4  5  1  0  0  0
  4  6  1  0  0  0
 20 21  1  0  0  0
 21 22  1  0  0  0
 21 23  2  0  0  0
 10 15  1  0  0  0
 16 18  1  0  0  0
 20 24  1  0  0  0
 22 25  1  0  0  0
M  END
> <minimizedAffinity>
-6.24789

$$$$
1W4Q_UMF_A_1125


 25 26  0  0  0  0  0  0  0  0999 V2000
   36.4714   -1.5888   12.0140 C   0  0  0  0  0  0  0  0  0  0  0  0
   36.7192   -0.2786   11.7404 O   0  0  0  0  0  0  0  0  0  0  0  0
   37.2591   -2.0504   13.1757 C   0  0  0  0  0  0  0  0  0  0  0  0
   38.4326   -0.9392   13.4085 C   0  0  0  0  0  0  0  0  0  0  0  0
   39.3895   -1.7787   13.5578 F   0  0  0  0  0  0  0  0  0  0  0  0
   38.2390    0.1427   12.1985 C   0  0  0  0  0  0  0  0  0  0  0  0
   38.2038    1.6547   12.7095 N   0  0  0  0  0  0  0  0  0  0  0  0
   39.3608    2.4709   12.6424 C   0  0  0  0  0  0  0  0  0  0  0  0
   40.3743    2.0593   12.2179 O   0  0  0  0  0  0  0  0  0  0  0  0
   39.1463    3.7738   13.1190 N   0  0  0  0  0  0  0  0  0  0  0  0
   37.9420    4.3306   13.6450 C   0  0  0  0  0  0  0  0  0  0  0  0
   37.9711    5.4885   14.0012 O   0  0  0  0  0  0  0  0  0  0  0  0
   36.7948    3.4140   13.6874 C   0  0  0  0  0  0  0  0  0  0  0  0
   36.9474    2.1403   13.2351 C   0  0  0  0  0  0  0  0  0  0  0  0
   39.9227    4.3782   13.0864 H   0  0  0  0  0  0  0  0  0  0  0  0
   35.0874   -3.3250   11.1831 O   0  0  0  0  0  0  0  0  0  0  0  0
   35.0689   -1.7701   11.3812 C   0  0  0  0  0  0  0  0  0  0  0  0
   34.2512   -3.6099   10.7825 H   0  0  0  0  0  0  0  0  0  0  0  0
   37.8212   -3.3840   13.5796 O   0  0  0  0  0  0  0  0  0  0  0  0
   37.7297   -4.5533   15.4897 O   0  0  0  0  0  0  0  0  0  0  0  0
   37.2035   -4.4757   13.9836 P   0  0  0  0  0  0  0  0  0  0  0  0
   35.7000   -4.5762   14.0183 O   0  0  0  0  0  0  0  0  0  0  0  0
   37.7839   -5.4482   13.0294 O   0  0  0  0  0  0  0  0  0  0  0  0
   37.2853   -3.8756   16.0228 H   0  0  0  0  0  0  0  0  0  0  0  0
   35.3473   -3.9298   14.6498 H   0  0  0  0  0  0  0  0  0  0  0  0
  7  8  1  0  0  0
  7 14  1  0  0  0
  7  6  1  0  0  0
  8  9  2  0  0  0
  8 10  1  0  0  0
 10 11  1  0  0  0
 11 12  2  0  0  0
 11 13  1  0  0  0
 13 14  2  0  0  0
 16 17  1  0  0  0
 17  1  1  0  0  0
  1  2  1  0  0  0
  1  3  1  0  0  0
  2  6  1  0  0  0
  3 19  1  0  0  0
  3  4  1  0  0  0
 19 21  1  0  0  0
  4  5  1  0  0  0
  4  6  1  0  0  0
 20 21  1  0  0  0
 21 22  1  0  0  0
 21 23  2  0  0  0
 10 15  1  0  0  0
 16 18  1  0  0  0
 20 24  1  0  0  0
 22 25  1  0  0  0
M  END
> <minimizedAffinity>
-6.16062

$$$$
1W4Q_UMF_A_1125


 25 26  0  0  0  0  0  0  0  0999 V2000
   37.1418   -0.3652   12.3373 C   0  0  0  0  0  0  0  0  0  0  0  0
   37.1594    0.9583   12.0200 O   0  0  0  0  0  0  0  0  0  0  0  0
   37.6451   -0.5930   13.7076 C   0  0  0  0  0  0  0  0  0  0  0  0
   38.4243    0.7732   14.1462 C   0  0  0  0  0  0  0  0  0  0  0  0
   39.4599    0.1924   14.6285 F   0  0  0  0  0  0  0  0  0  0  0  0
   38.3501    1.7443   12.8332 C   0  0  0  0  0  0  0  0  0  0  0  0
   37.8341    3.2167   13.1712 N   0  0  0  0  0  0  0  0  0  0  0  0
   36.5039    3.4374   13.6087 C   0  0  0  0  0  0  0  0  0  0  0  0
   35.7456    2.5500   13.7279 O   0  0  0  0  0  0  0  0  0  0  0  0
   36.2266    4.7874   13.8750 N   0  0  0  0  0  0  0  0  0  0  0  0
   37.1033    5.9067   13.7495 C   0  0  0  0  0  0  0  0  0  0  0  0
   36.6609    6.9977   14.0367 O   0  0  0  0  0  0  0  0  0  0  0  0
   38.4594    5.5902   13.2814 C   0  0  0  0  0  0  0  0  0  0  0  0
   38.7820    4.2967   13.0113 C   0  0  0  0  0  0  0  0  0  0  0  0
   35.3144    4.9870   14.1870 H   0  0  0  0  0  0  0  0  0  0  0  0
   36.4744   -2.4054   11.3309 O   0  0  0  0  0  0  0  0  0  0  0  0
   36.0570   -0.8948   11.3661 C   0  0  0  0  0  0  0  0  0  0  0  0
   35.8734   -2.8934   10.7465 H   0  0  0  0  0  0  0  0  0  0  0  0
   38.3498   -1.7414   14.3726 O   0  0  0  0  0  0  0  0  0  0  0  0
   36.3622   -2.7768   14.4094 O   0  0  0  0  0  0  0  0  0  0  0  0
   37.8550   -2.8025   14.9772 P   0  0  0  0  0  0  0  0  0  0  0  0
   38.4092   -4.1849   14.7452 O   0  0  0  0  0  0  0  0  0  0  0  0
   38.0340   -2.3826   16.3860 O   0  0  0  0  0  0  0  0  0  0  0  0
   36.3631   -3.0688   13.4843 H   0  0  0  0  0  0  0  0  0  0  0  0
   38.2789   -4.4338   13.8168 H   0  0  0  0  0  0  0  0  0  0  0  0
  7  8  1  0  0  0
  7 14  1  0  0  0
  7  6  1  0  0  0
  8  9  2  0  0  0
  8 10  1  0  0  0
 10 11  1  0  0  0
 11 12  2  0  0  0
 11 13  1  0  0  0
 13 14  2  0  0  0
 16 17  1  0  0  0
 17  1  1  0  0  0
  1  2  1  0  0  0
  1  3  1  0  0  0
  2  6  1  0  0  0
  3 19  1  0  0  0
  3  4  1  0  0  0
 19 21  1  0  0  0
  4  5  1  0  0  0
  4  6  1  0  0  0
 20 21  1  0  0  0
 21 22  1  0  0  0
 21 23  2  0  0  0
 10 15  1  0  0  0
 16 18  1  0  0  0
 20 24  1  0  0  0
 22 25  1  0  0  0
M  END
> <minimizedAffinity>
-6.15134

$$$$
1W4Q_UMF_A_1125


 25 26  0  0  0  0  0  0  0  0999 V2000
   38.9964    0.3046   14.2047 C   0  0  0  0  0  0  0  0  0  0  0  0
   38.9906   -1.0564   14.1843 O   0  0  0  0  0  0  0  0  0  0  0  0
   37.8122    0.8544   13.5131 C   0  0  0  0  0  0  0  0  0  0  0  0
   37.1875   -0.3661   12.6265 C   0  0  0  0  0  0  0  0  0  0  0  0
   37.0201    0.3146   11.5536 F   0  0  0  0  0  0  0  0  0  0  0  0
   38.2064   -1.6234   12.8575 C   0  0  0  0  0  0  0  0  0  0  0  0
   37.4551   -2.9727   13.2619 N   0  0  0  0  0  0  0  0  0  0  0  0
   38.1745   -4.0742   13.7895 C   0  0  0  0  0  0  0  0  0  0  0  0
   39.3377   -4.0291   13.9372 O   0  0  0  0  0  0  0  0  0  0  0  0
   37.3552   -5.1698   14.1041 N   0  0  0  0  0  0  0  0  0  0  0  0
   35.9411   -5.2838   13.9477 C   0  0  0  0  0  0  0  0  0  0  0  0
   35.4238   -6.3256   14.2879 O   0  0  0  0  0  0  0  0  0  0  0  0
   35.2759   -4.1007   13.3857 C   0  0  0  0  0  0  0  0  0  0  0  0
   36.0231   -3.0100   13.0657 C   0  0  0  0  0  0  0  0  0  0  0  0
   37.8125   -5.9569   14.4790 H   0  0  0  0  0  0  0  0  0  0  0  0
   40.0995    2.1261   15.2467 O   0  0  0  0  0  0  0  0  0  0  0  0
   39.8877    0.5850   15.4406 C   0  0  0  0  0  0  0  0  0  0  0  0
   40.6563    2.4686   15.9634 H   0  0  0  0  0  0  0  0  0  0  0  0
   37.5533    2.1295   12.7614 O   0  0  0  0  0  0  0  0  0  0  0  0
   35.7941    3.4738   13.1109 O   0  0  0  0  0  0  0  0  0  0  0  0
   37.3840    3.3570   13.2099 P   0  0  0  0  0  0  0  0  0  0  0  0
   37.7866    3.7600   14.6053 O   0  0  0  0  0  0  0  0  0  0  0  0
   38.1661    4.0954   12.1919 O   0  0  0  0  0  0  0  0  0  0  0  0
   35.3868    2.9544   13.8217 H   0  0  0  0  0  0  0  0  0  0  0  0
   37.2600    3.2623   15.2502 H   0  0  0  0  0  0  0  0  0  0  0  0
  7  8  1  0  0  0
  7 14  1  0  0  0
  7  6  1  0  0  0
  8  9  2  0  0  0
  8 10  1  0  0  0
 10 11  1  0  0  0
 11 12  2  0  0  0
 11 13  1  0  0  0
 13 14  2  0  0  0
 16 17  1  0  0  0
 17  1  1  0  0  0
  1  2  1  0  0  0
  1  3  1  0  0  0
  2  6  1  0  0  0
  3 19  1  0  0  0
  3  4  1  0  0  0
 19 21  1  0  0  0
  4  5  1  0  0  0
  4  6  1  0  0  0
 20 21  1  0  0  0
 21 22  1  0  0  0
 21 23  2  0  0  0
 10 15  1  0  0  0
 16 18  1  0  0  0
 20 24  1  0  0  0
 22 25  1  0  0  0
M  END
> <minimizedAffinity>
-6.11072

$$$$
1W4Q_UMF_A_1125


 25 26  0  0  0  0  0  0  0  0999 V2000
   38.2563   -2.1669   14.9464 C   0  0  0  0  0  0  0  0  0  0  0  0
   37.9058   -3.4783   14.8446 O   0  0  0  0  0  0  0  0  0  0  0  0
   37.5624   -1.3480   13.9312 C   0  0  0  0  0  0  0  0  0  0  0  0
   36.9823   -2.3897   12.8157 C   0  0  0  0  0  0  0  0  0  0  0  0
   37.3712   -1.7250   11.7912 F   0  0  0  0  0  0  0  0  0  0  0  0
   37.5000   -3.8625   13.3004 C   0  0  0  0  0  0  0  0  0  0  0  0
   36.3342   -4.9520   13.3483 N   0  0  0  0  0  0  0  0  0  0  0  0
   36.5741   -6.2501   13.8648 C   0  0  0  0  0  0  0  0  0  0  0  0
   37.6326   -6.5621   14.2637 O   0  0  0  0  0  0  0  0  0  0  0  0
   35.4361   -7.0716   13.8454 N   0  0  0  0  0  0  0  0  0  0  0  0
   34.1274   -6.7503   13.3750 C   0  0  0  0  0  0  0  0  0  0  0  0
   33.2789   -7.6120   13.4525 O   0  0  0  0  0  0  0  0  0  0  0  0
   33.9686   -5.3883   12.8478 C   0  0  0  0  0  0  0  0  0  0  0  0
   35.0395   -4.5496   12.8458 C   0  0  0  0  0  0  0  0  0  0  0  0
   35.5553   -7.9822   14.2003 H   0  0  0  0  0  0  0  0  0  0  0  0
   37.4953   -2.8070   17.0985 O   0  0  0  0  0  0  0  0  0  0  0  0
   38.7156   -2.0903   16.4241 C   0  0  0  0  0  0  0  0  0  0  0  0
   37.6313   -2.8426   18.0583 H   0  0  0  0  0  0  0  0  0  0  0  0
   37.9132   -0.0755   13.2133 O   0  0  0  0  0  0  0  0  0  0  0  0
   37.9254    1.8883   12.1329 O   0  0  0  0  0  0  0  0  0  0  0  0
   37.6625    1.1767   13.5385 P   0  0  0  0  0  0  0  0  0  0  0  0
   36.3075    1.6184   14.0289 O   0  0  0  0  0  0  0  0  0  0  0  0
   38.6979    1.3671   14.5801 O   0  0  0  0  0  0  0  0  0  0  0  0
   37.1889    1.6976   11.5312 H   0  0  0  0  0  0  0  0  0  0  0  0
   35.6502    1.4830   13.3285 H   0  0  0  0  0  0  0  0  0  0  0  0
  7  8  1  0  0  0
  7 14  1  0  0  0
  7  6  1  0  0  0
  8  9  2  0  0  0
  8 10  1  0  0  0
 10 11  1  0  0  0
 11 12  2  0  0  0
 11 13  1  0  0  0
 13 14  2  0  0  0
 16 17  1  0  0  0
 17  1  1  0  0  0
  1  2  1  0  0  0
  1  3  1  0  0  0
  2  6  1  0  0  0
  3 19  1  0  0  0
  3  4  1  0  0  0
 19 21  1  0  0  0
  4  5  1  0  0  0
  4  6  1  0  0  0
 20 21  1  0  0  0
 21 22  1  0  0  0
 21 23  2  0  0  0
 10 15  1  0  0  0
 16 18  1  0  0  0
 20 24  1  0  0  0
 22 25  1  0  0  0
M  END
> <minimizedAffinity>
-6.08368

$$$$
1W4Q_UMF_A_1125


 25 26  0  0  0  0  0  0  0  0999 V2000
   39.1961   -0.9251   13.6531 C   0  0  0  0  0  0  0  0  0  0  0  0
   39.6753    0.3483   13.6965 O   0  0  0  0  0  0  0  0  0  0  0  0
   37.9980   -1.0161   12.7934 C   0  0  0  0  0  0  0  0  0  0  0  0
   37.4666    0.5128   12.5788 C   0  0  0  0  0  0  0  0  0  0  0  0
   36.2296    0.2612   12.8003 F   0  0  0  0  0  0  0  0  0  0  0  0
   38.4688    1.4406   13.4772 C   0  0  0  0  0  0  0  0  0  0  0  0
   39.0631    2.6836   12.6707 N   0  0  0  0  0  0  0  0  0  0  0  0
   38.3056    3.8700   12.5037 C   0  0  0  0  0  0  0  0  0  0  0  0
   37.2230    3.9700   12.9450 O   0  0  0  0  0  0  0  0  0  0  0  0
   38.9870    4.8640   11.7838 N   0  0  0  0  0  0  0  0  0  0  0  0
   40.2986    4.8016   11.2245 C   0  0  0  0  0  0  0  0  0  0  0  0
   40.7029    5.7821   10.6381 O   0  0  0  0  0  0  0  0  0  0  0  0
   41.0096    3.5336   11.4356 C   0  0  0  0  0  0  0  0  0  0  0  0
   40.3958    2.5374   12.1293 C   0  0  0  0  0  0  0  0  0  0  0  0
   38.4999    5.7087   11.6480 H   0  0  0  0  0  0  0  0  0  0  0  0
   39.8080   -2.8202   14.9393 O   0  0  0  0  0  0  0  0  0  0  0  0
   40.4645   -1.7382   14.0142 C   0  0  0  0  0  0  0  0  0  0  0  0
   40.4916   -3.4290   15.2602 H   0  0  0  0  0  0  0  0  0  0  0  0
   36.7915   -1.9117   12.7929 O   0  0  0  0  0  0  0  0  0  0  0  0
   36.7418   -2.4392   14.9708 O   0  0  0  0  0  0  0  0  0  0  0  0
   36.5474   -3.0035   13.4892 P   0  0  0  0  0  0  0  0  0  0  0  0
   35.2130   -3.7023   13.4370 O   0  0  0  0  0  0  0  0  0  0  0  0
   37.6275   -3.8704   12.9647 O   0  0  0  0  0  0  0  0  0  0  0  0
   35.9801   -1.8879   15.2093 H   0  0  0  0  0  0  0  0  0  0  0  0
   34.5256   -3.1133   13.7856 H   0  0  0  0  0  0  0  0  0  0  0  0
  7  8  1  0  0  0
  7 14  1  0  0  0
  7  6  1  0  0  0
  8  9  2  0  0  0
  8 10  1  0  0  0
 10 11  1  0  0  0
 11 12  2  0  0  0
 11 13  1  0  0  0
 13 14  2  0  0  0
 16 17  1  0  0  0
 17  1  1  0  0  0
  1  2  1  0  0  0
  1  3  1  0  0  0
  2  6  1  0  0  0
  3 19  1  0  0  0
  3  4  1  0  0  0
 19 21  1  0  0  0
  4  5  1  0  0  0
  4  6  1  0  0  0
 20 21  1  0  0  0
 21 22  1  0  0  0
 21 23  2  0  0  0
 10 15  1  0  0  0
 16 18  1  0  0  0
 20 24  1  0  0  0
 22 25  1  0  0  0
M  END
> <minimizedAffinity>
-5.61680

$$$$
