1RNT_2GP_A_105


 31 33  0  0  0  0  0  0  0  0999 V2000
   19.8249   33.1928   22.7558 C   0  0  0  0  0  0  0  0  0  0  0  0
   18.7625   32.4025   22.1114 O   0  0  0  0  0  0  0  0  0  0  0  0
   20.4257   34.0842   21.6468 C   0  0  0  0  0  0  0  0  0  0  0  0
   21.4194   33.3144   20.9926 O   0  0  0  0  0  0  0  0  0  0  0  0
   19.2082   34.2418   20.7199 C   0  0  0  0  0  0  0  0  0  0  0  0
   18.6257   32.8564   20.7481 C   0  0  0  0  0  0  0  0  0  0  0  0
   21.0365   32.4718   20.7021 H   0  0  0  0  0  0  0  0  0  0  0  0
   17.2594   32.5889   20.3606 N   0  0  0  0  0  0  0  0  0  0  0  0
   16.8288   31.5105   19.6829 C   0  0  0  0  0  0  0  0  0  0  0  0
   15.5476   31.3338   19.7613 N   0  0  0  0  0  0  0  0  0  0  0  0
   15.0520   32.3458   20.5797 C   0  0  0  0  0  0  0  0  0  0  0  0
   13.7526   32.6750   21.0295 C   0  0  0  0  0  0  0  0  0  0  0  0
   12.6364   32.1477   20.8151 O   0  0  0  0  0  0  0  0  0  0  0  0
   13.7234   33.7932   21.8421 N   0  0  0  0  0  0  0  0  0  0  0  0
   14.8840   34.5010   22.1465 C   0  0  0  0  0  0  0  0  0  0  0  0
   14.6781   35.5423   22.9604 N   0  0  0  0  0  0  0  0  0  0  0  0
   16.0831   34.2151   21.7465 N   0  0  0  0  0  0  0  0  0  0  0  0
   16.1219   33.1191   20.9560 C   0  0  0  0  0  0  0  0  0  0  0  0
   12.8635   34.0959   22.2138 H   0  0  0  0  0  0  0  0  0  0  0  0
   13.7665   35.7578   23.2631 H   0  0  0  0  0  0  0  0  0  0  0  0
   15.4383   36.0932   23.2568 H   0  0  0  0  0  0  0  0  0  0  0  0
   17.8683   33.5508   24.1285 O   0  0  0  0  0  0  0  0  0  0  0  0
   19.2545   33.8611   23.9838 C   0  0  0  0  0  0  0  0  0  0  0  0
   17.5201   33.9880   24.9213 H   0  0  0  0  0  0  0  0  0  0  0  0
   19.6512   34.6764   19.4446 O   0  0  0  0  0  0  0  0  0  0  0  0
   20.3063   36.0832   19.1879 P   0  0  0  0  0  0  0  0  0  0  0  0
   19.8881   36.8461   20.5395 O   0  0  0  0  0  0  0  0  0  0  0  0
   19.5094   36.7227   18.0766 O   0  0  0  0  0  0  0  0  0  0  0  0
   21.7484   36.0941   19.2124 O   0  0  0  0  0  0  0  0  0  0  0  0
   19.8757   37.5988   17.8788 H   0  0  0  0  0  0  0  0  0  0  0  0
   22.0677   36.9948   19.0462 H   0  0  0  0  0  0  0  0  0  0  0  0
 26 27  2  0  0  0
 26 28  1  0  0  0
 26 29  1  0  0  0
 26 25  1  0  0  0
 22 23  1  0  0  0
 23  1  1  0  0  0
  1  2  1  0  0  0
  1  3  1  0  0  0
  2  6  1  0  0  0
  3  4  1  0  0  0
  3  5  1  0  0  0
  5 25  1  0  0  0
  5  6  1  0  0  0
  6  8  1  0  0  0
  8  9  1  0  0  0
  8 18  1  0  0  0
  9 10  2  0  0  0
 10 11  1  0  0  0
 11 12  1  0  0  0
 11 18  2  0  0  0
 12 13  2  0  0  0
 12 14  1  0  0  0
 14 15  1  0  0  0
 15 16  1  0  0  0
 15 17  2  0  0  0
 17 18  1  0  0  0
 28 30  1  0  0  0
 29 31  1  0  0  0
 22 24  1  0  0  0
  4  7  1  0  0  0
 14 19  1  0  0  0
 16 20  1  0  0  0
 16 21  1  0  0  0
M  END
> <minimizedAffinity>
-8.37753

$$$$
1RNT_2GP_A_105


 31 33  0  0  0  0  0  0  0  0999 V2000
   15.0304   32.5333   20.2274 C   0  0  0  0  0  0  0  0  0  0  0  0
   16.0056   33.5828   19.8867 O   0  0  0  0  0  0  0  0  0  0  0  0
   15.8582   31.3228   20.7119 C   0  0  0  0  0  0  0  0  0  0  0  0
   16.2231   30.5849   19.5584 O   0  0  0  0  0  0  0  0  0  0  0  0
   17.0988   32.0362   21.2763 C   0  0  0  0  0  0  0  0  0  0  0  0
   17.3207   33.1127   20.2509 C   0  0  0  0  0  0  0  0  0  0  0  0
   16.6596   31.1734   18.9229 H   0  0  0  0  0  0  0  0  0  0  0  0
   18.1150   34.2875   20.5294 N   0  0  0  0  0  0  0  0  0  0  0  0
   17.7048   35.3741   21.2068 C   0  0  0  0  0  0  0  0  0  0  0  0
   18.6808   36.1217   21.6157 N   0  0  0  0  0  0  0  0  0  0  0  0
   19.8599   35.4942   21.2214 C   0  0  0  0  0  0  0  0  0  0  0  0
   21.2267   35.8216   21.3757 C   0  0  0  0  0  0  0  0  0  0  0  0
   21.7952   36.7976   21.9180 O   0  0  0  0  0  0  0  0  0  0  0  0
   22.0780   34.8921   20.8074 N   0  0  0  0  0  0  0  0  0  0  0  0
   21.5893   33.7682   20.1453 C   0  0  0  0  0  0  0  0  0  0  0  0
   22.5492   32.9648   19.6740 N   0  0  0  0  0  0  0  0  0  0  0  0
   20.3422   33.4494   19.9946 N   0  0  0  0  0  0  0  0  0  0  0  0
   19.5025   34.3498   20.5528 C   0  0  0  0  0  0  0  0  0  0  0  0
   23.0510   35.0276   20.8720 H   0  0  0  0  0  0  0  0  0  0  0  0
   23.4960   33.2087   19.7895 H   0  0  0  0  0  0  0  0  0  0  0  0
   22.3090   32.1295   19.2116 H   0  0  0  0  0  0  0  0  0  0  0  0
   12.7507   32.4337   21.0236 O   0  0  0  0  0  0  0  0  0  0  0  0
   13.9972   33.1166   21.1614 C   0  0  0  0  0  0  0  0  0  0  0  0
   12.1008   32.8217   21.6303 H   0  0  0  0  0  0  0  0  0  0  0  0
   18.1568   31.0991   21.3954 O   0  0  0  0  0  0  0  0  0  0  0  0
   19.0826   30.9940   22.6625 P   0  0  0  0  0  0  0  0  0  0  0  0
   18.6951   32.3599   23.4160 O   0  0  0  0  0  0  0  0  0  0  0  0
   20.4975   31.1706   22.1665 O   0  0  0  0  0  0  0  0  0  0  0  0
   18.7134   29.9613   23.5993 O   0  0  0  0  0  0  0  0  0  0  0  0
   21.1120   31.1137   22.9149 H   0  0  0  0  0  0  0  0  0  0  0  0
   19.3324   29.9658   24.3461 H   0  0  0  0  0  0  0  0  0  0  0  0
 26 27  2  0  0  0
 26 28  1  0  0  0
 26 29  1  0  0  0
 26 25  1  0  0  0
 22 23  1  0  0  0
 23  1  1  0  0  0
  1  2  1  0  0  0
  1  3  1  0  0  0
  2  6  1  0  0  0
  3  4  1  0  0  0
  3  5  1  0  0  0
  5 25  1  0  0  0
  5  6  1  0  0  0
  6  8  1  0  0  0
  8  9  1  0  0  0
  8 18  1  0  0  0
  9 10  2  0  0  0
 10 11  1  0  0  0
 11 12  1  0  0  0
 11 18  2  0  0  0
 12 13  2  0  0  0
 12 14  1  0  0  0
 14 15  1  0  0  0
 15 16  1  0  0  0
 15 17  2  0  0  0
 17 18  1  0  0  0
 28 30  1  0  0  0
 29 31  1  0  0  0
 22 24  1  0  0  0
  4  7  1  0  0  0
 14 19  1  0  0  0
 16 20  1  0  0  0
 16 21  1  0  0  0
M  END
> <minimizedAffinity>
-7.57313

$$$$
1RNT_2GP_A_105


 31 33  0  0  0  0  0  0  0  0999 V2000
   19.6992   28.9083   20.3211 C   0  0  0  0  0  0  0  0  0  0  0  0
   20.5277   30.0703   20.6844 O   0  0  0  0  0  0  0  0  0  0  0  0
   18.2357   29.3322   20.5738 C   0  0  0  0  0  0  0  0  0  0  0  0
   17.9631   29.0772   21.9408 O   0  0  0  0  0  0  0  0  0  0  0  0
   18.3377   30.8503   20.3472 C   0  0  0  0  0  0  0  0  0  0  0  0
   19.6485   31.1674   21.0111 C   0  0  0  0  0  0  0  0  0  0  0  0
   18.6340   29.5112   22.4907 H   0  0  0  0  0  0  0  0  0  0  0  0
   20.3809   32.3803   20.7263 N   0  0  0  0  0  0  0  0  0  0  0  0
   21.4994   32.4703   19.9857 C   0  0  0  0  0  0  0  0  0  0  0  0
   21.7609   33.6784   19.5971 N   0  0  0  0  0  0  0  0  0  0  0  0
   20.7321   34.4858   20.0758 C   0  0  0  0  0  0  0  0  0  0  0  0
   20.4661   35.8710   19.9780 C   0  0  0  0  0  0  0  0  0  0  0  0
   21.0937   36.8047   19.4265 O   0  0  0  0  0  0  0  0  0  0  0  0
   19.3052   36.2508   20.6259 N   0  0  0  0  0  0  0  0  0  0  0  0
   18.5171   35.3259   21.3070 C   0  0  0  0  0  0  0  0  0  0  0  0
   17.4214   35.8593   21.8585 N   0  0  0  0  0  0  0  0  0  0  0  0
   18.7420   34.0536   21.4069 N   0  0  0  0  0  0  0  0  0  0  0  0
   19.8723   33.6722   20.7709 C   0  0  0  0  0  0  0  0  0  0  0  0
   19.0295   37.1957   20.6054 H   0  0  0  0  0  0  0  0  0  0  0  0
   17.2523   36.8261   21.7815 H   0  0  0  0  0  0  0  0  0  0  0  0
   16.7840   35.2850   22.3413 H   0  0  0  0  0  0  0  0  0  0  0  0
   18.9357   28.3734   18.0915 O   0  0  0  0  0  0  0  0  0  0  0  0
   20.0855   28.4523   18.9345 C   0  0  0  0  0  0  0  0  0  0  0  0
   19.2031   28.0794   17.2066 H   0  0  0  0  0  0  0  0  0  0  0  0
   17.2077   31.4813   20.9271 O   0  0  0  0  0  0  0  0  0  0  0  0
   16.0490   32.1292   20.0835 P   0  0  0  0  0  0  0  0  0  0  0  0
   14.8039   31.2384   20.5733 O   0  0  0  0  0  0  0  0  0  0  0  0
   16.3070   31.7431   18.6470 O   0  0  0  0  0  0  0  0  0  0  0  0
   15.6930   33.4715   20.4729 O   0  0  0  0  0  0  0  0  0  0  0  0
   15.6152   32.1207   18.0815 H   0  0  0  0  0  0  0  0  0  0  0  0
   14.9753   33.7933   19.9052 H   0  0  0  0  0  0  0  0  0  0  0  0
 26 27  2  0  0  0
 26 28  1  0  0  0
 26 29  1  0  0  0
 26 25  1  0  0  0
 22 23  1  0  0  0
 23  1  1  0  0  0
  1  2  1  0  0  0
  1  3  1  0  0  0
  2  6  1  0  0  0
  3  4  1  0  0  0
  3  5  1  0  0  0
  5 25  1  0  0  0
  5  6  1  0  0  0
  6  8  1  0  0  0
  8  9  1  0  0  0
  8 18  1  0  0  0
  9 10  2  0  0  0
 10 11  1  0  0  0
 11 12  1  0  0  0
 11 18  2  0  0  0
 12 13  2  0  0  0
 12 14  1  0  0  0
 14 15  1  0  0  0
 15 16  1  0  0  0
 15 17  2  0  0  0
 17 18  1  0  0  0
 28 30  1  0  0  0
 29 31  1  0  0  0
 22 24  1  0  0  0
  4  7  1  0  0  0
 14 19  1  0  0  0
 16 20  1  0  0  0
 16 21  1  0  0  0
M  END
> <minimizedAffinity>
-7.21282

$$$$
1RNT_2GP_A_105


 31 33  0  0  0  0  0  0  0  0999 V2000
   16.7938   32.7057   20.7403 C   0  0  0  0  0  0  0  0  0  0  0  0
   18.0685   32.0701   21.1142 O   0  0  0  0  0  0  0  0  0  0  0  0
   17.1197   34.1920   20.4755 C   0  0  0  0  0  0  0  0  0  0  0  0
   17.0635   34.8554   21.7264 O   0  0  0  0  0  0  0  0  0  0  0  0
   18.5849   34.0834   20.0196 C   0  0  0  0  0  0  0  0  0  0  0  0
   19.1204   33.0476   20.9682 C   0  0  0  0  0  0  0  0  0  0  0  0
   17.6383   34.3989   22.3606 H   0  0  0  0  0  0  0  0  0  0  0  0
   20.3328   32.3095   20.6959 N   0  0  0  0  0  0  0  0  0  0  0  0
   20.4104   31.1288   20.0576 C   0  0  0  0  0  0  0  0  0  0  0  0
   21.6045   30.8499   19.6392 N   0  0  0  0  0  0  0  0  0  0  0  0
   22.4132   31.9300   19.9840 C   0  0  0  0  0  0  0  0  0  0  0  0
   23.7876   32.2057   19.7984 C   0  0  0  0  0  0  0  0  0  0  0  0
   24.7072   31.5433   19.2642 O   0  0  0  0  0  0  0  0  0  0  0  0
   24.1743   33.4267   20.3190 N   0  0  0  0  0  0  0  0  0  0  0  0
   23.2663   34.2610   20.9670 C   0  0  0  0  0  0  0  0  0  0  0  0
   23.8033   35.4105   21.3906 N   0  0  0  0  0  0  0  0  0  0  0  0
   22.0040   34.0281   21.1457 N   0  0  0  0  0  0  0  0  0  0  0  0
   21.6157   32.8385   20.6342 C   0  0  0  0  0  0  0  0  0  0  0  0
   25.1121   33.7129   20.2297 H   0  0  0  0  0  0  0  0  0  0  0  0
   24.7625   35.5856   21.2539 H   0  0  0  0  0  0  0  0  0  0  0  0
   23.2395   36.0815   21.8390 H   0  0  0  0  0  0  0  0  0  0  0  0
   16.6758   30.5708   19.6138 O   0  0  0  0  0  0  0  0  0  0  0  0
   16.1581   31.9015   19.6317 C   0  0  0  0  0  0  0  0  0  0  0  0
   16.2565   30.0704   18.8964 H   0  0  0  0  0  0  0  0  0  0  0  0
   19.1968   35.3588   20.1222 O   0  0  0  0  0  0  0  0  0  0  0  0
   20.1091   35.9750   18.9989 P   0  0  0  0  0  0  0  0  0  0  0  0
   21.1020   36.8687   19.8928 O   0  0  0  0  0  0  0  0  0  0  0  0
   19.2398   36.9439   18.2342 O   0  0  0  0  0  0  0  0  0  0  0  0
   20.9823   35.0333   18.3424 O   0  0  0  0  0  0  0  0  0  0  0  0
   19.7591   37.3539   17.5249 H   0  0  0  0  0  0  0  0  0  0  0  0
   21.5061   35.4937   17.6682 H   0  0  0  0  0  0  0  0  0  0  0  0
 26 27  2  0  0  0
 26 28  1  0  0  0
 26 29  1  0  0  0
 26 25  1  0  0  0
 22 23  1  0  0  0
 23  1  1  0  0  0
  1  2  1  0  0  0
  1  3  1  0  0  0
  2  6  1  0  0  0
  3  4  1  0  0  0
  3  5  1  0  0  0
  5 25  1  0  0  0
  5  6  1  0  0  0
  6  8  1  0  0  0
  8  9  1  0  0  0
  8 18  1  0  0  0
  9 10  2  0  0  0
 10 11  1  0  0  0
 11 12  1  0  0  0
 11 18  2  0  0  0
 12 13  2  0  0  0
 12 14  1  0  0  0
 14 15  1  0  0  0
 15 16  1  0  0  0
 15 17  2  0  0  0
 17 18  1  0  0  0
 28 30  1  0  0  0
 29 31  1  0  0  0
 22 24  1  0  0  0
  4  7  1  0  0  0
 14 19  1  0  0  0
 16 20  1  0  0  0
 16 21  1  0  0  0
M  END
> <minimizedAffinity>
-7.19342

$$$$
1RNT_2GP_A_105


 31 33  0  0  0  0  0  0  0  0999 V2000
   16.8131   34.6305   24.1543 C   0  0  0  0  0  0  0  0  0  0  0  0
   18.1052   34.6816   23.4498 O   0  0  0  0  0  0  0  0  0  0  0  0
   15.7741   34.1724   23.1074 C   0  0  0  0  0  0  0  0  0  0  0  0
   15.3364   35.3348   22.4254 O   0  0  0  0  0  0  0  0  0  0  0  0
   16.6644   33.3357   22.1727 C   0  0  0  0  0  0  0  0  0  0  0  0
   17.9109   34.1737   22.1128 C   0  0  0  0  0  0  0  0  0  0  0  0
   16.1049   35.8165   22.0814 H   0  0  0  0  0  0  0  0  0  0  0  0
   19.1821   33.6316   21.6900 N   0  0  0  0  0  0  0  0  0  0  0  0
   19.5226   32.3309   21.6867 C   0  0  0  0  0  0  0  0  0  0  0  0
   20.5598   32.0745   20.9539 N   0  0  0  0  0  0  0  0  0  0  0  0
   20.9532   33.2803   20.3787 C   0  0  0  0  0  0  0  0  0  0  0  0
   22.0018   33.6342   19.4987 C   0  0  0  0  0  0  0  0  0  0  0  0
   22.9123   32.9554   18.9695 O   0  0  0  0  0  0  0  0  0  0  0  0
   22.0203   34.9807   19.1854 N   0  0  0  0  0  0  0  0  0  0  0  0
   21.0862   35.8644   19.7211 C   0  0  0  0  0  0  0  0  0  0  0  0
   21.2367   37.1242   19.2975 N   0  0  0  0  0  0  0  0  0  0  0  0
   20.1177   35.5604   20.5267 N   0  0  0  0  0  0  0  0  0  0  0  0
   20.0883   34.2442   20.8338 C   0  0  0  0  0  0  0  0  0  0  0  0
   22.7087   35.3224   18.5702 H   0  0  0  0  0  0  0  0  0  0  0  0
   21.9731   37.3531   18.6855 H   0  0  0  0  0  0  0  0  0  0  0  0
   20.6110   37.8225   19.5976 H   0  0  0  0  0  0  0  0  0  0  0  0
   18.2940   33.2587   25.4832 O   0  0  0  0  0  0  0  0  0  0  0  0
   16.9780   33.8080   25.4098 C   0  0  0  0  0  0  0  0  0  0  0  0
   18.3808   32.7346   26.2948 H   0  0  0  0  0  0  0  0  0  0  0  0
   16.0001   33.1658   20.9312 O   0  0  0  0  0  0  0  0  0  0  0  0
   15.8628   31.7774   20.2049 P   0  0  0  0  0  0  0  0  0  0  0  0
   14.2712   31.5672   20.2846 O   0  0  0  0  0  0  0  0  0  0  0  0
   16.4722   30.7543   21.1327 O   0  0  0  0  0  0  0  0  0  0  0  0
   16.1414   31.8032   18.7899 O   0  0  0  0  0  0  0  0  0  0  0  0
   16.4123   29.8747   20.7282 H   0  0  0  0  0  0  0  0  0  0  0  0
   16.0340   30.9117   18.4230 H   0  0  0  0  0  0  0  0  0  0  0  0
 26 27  2  0  0  0
 26 28  1  0  0  0
 26 29  1  0  0  0
 26 25  1  0  0  0
 22 23  1  0  0  0
 23  1  1  0  0  0
  1  2  1  0  0  0
  1  3  1  0  0  0
  2  6  1  0  0  0
  3  4  1  0  0  0
  3  5  1  0  0  0
  5 25  1  0  0  0
  5  6  1  0  0  0
  6  8  1  0  0  0
  8  9  1  0  0  0
  8 18  1  0  0  0
  9 10  2  0  0  0
 10 11  1  0  0  0
 11 12  1  0  0  0
 11 18  2  0  0  0
 12 13  2  0  0  0
 12 14  1  0  0  0
 14 15  1  0  0  0
 15 16  1  0  0  0
 15 17  2  0  0  0
 17 18  1  0  0  0
 28 30  1  0  0  0
 29 31  1  0  0  0
 22 24  1  0  0  0
  4  7  1  0  0  0
 14 19  1  0  0  0
 16 20  1  0  0  0
 16 21  1  0  0  0
M  END
> <minimizedAffinity>
-7.13005

$$$$
1RNT_2GP_A_105


 31 33  0  0  0  0  0  0  0  0999 V2000
   22.7471   33.0779   21.6209 C   0  0  0  0  0  0  0  0  0  0  0  0
   21.3558   32.7412   21.9668 O   0  0  0  0  0  0  0  0  0  0  0  0
   22.6676   34.0098   20.3919 C   0  0  0  0  0  0  0  0  0  0  0  0
   22.6028   33.1773   19.2470 O   0  0  0  0  0  0  0  0  0  0  0  0
   21.2966   34.6678   20.6240 C   0  0  0  0  0  0  0  0  0  0  0  0
   20.4802   33.5021   21.1079 C   0  0  0  0  0  0  0  0  0  0  0  0
   21.8761   32.5430   19.3492 H   0  0  0  0  0  0  0  0  0  0  0  0
   19.2432   33.6786   21.8341 N   0  0  0  0  0  0  0  0  0  0  0  0
   19.0566   34.4937   22.8869 C   0  0  0  0  0  0  0  0  0  0  0  0
   17.8075   34.7325   23.1351 N   0  0  0  0  0  0  0  0  0  0  0  0
   17.0694   34.0592   22.1648 C   0  0  0  0  0  0  0  0  0  0  0  0
   15.6827   33.9407   21.9153 C   0  0  0  0  0  0  0  0  0  0  0  0
   14.6845   34.4100   22.5096 O   0  0  0  0  0  0  0  0  0  0  0  0
   15.3910   33.1484   20.8205 N   0  0  0  0  0  0  0  0  0  0  0  0
   16.3977   32.5361   20.0774 C   0  0  0  0  0  0  0  0  0  0  0  0
   15.9408   31.8232   19.0420 N   0  0  0  0  0  0  0  0  0  0  0  0
   17.6728   32.6333   20.2881 N   0  0  0  0  0  0  0  0  0  0  0  0
   17.9676   33.4115   21.3535 C   0  0  0  0  0  0  0  0  0  0  0  0
   14.4510   33.0139   20.5603 H   0  0  0  0  0  0  0  0  0  0  0  0
   14.9719   31.7506   18.8836 H   0  0  0  0  0  0  0  0  0  0  0  0
   16.5735   31.3711   18.4382 H   0  0  0  0  0  0  0  0  0  0  0  0
   24.2456   34.7262   22.5581 O   0  0  0  0  0  0  0  0  0  0  0  0
   23.4460   33.5824   22.8606 C   0  0  0  0  0  0  0  0  0  0  0  0
   24.6859   35.0355   23.3651 H   0  0  0  0  0  0  0  0  0  0  0  0
   20.8492   35.2453   19.4083 O   0  0  0  0  0  0  0  0  0  0  0  0
   20.0880   36.6194   19.3303 P   0  0  0  0  0  0  0  0  0  0  0  0
   21.3327   37.6342   19.2620 O   0  0  0  0  0  0  0  0  0  0  0  0
   19.4483   36.8242   20.6824 O   0  0  0  0  0  0  0  0  0  0  0  0
   19.3800   36.8512   18.0953 O   0  0  0  0  0  0  0  0  0  0  0  0
   18.9631   37.6641   20.6866 H   0  0  0  0  0  0  0  0  0  0  0  0
   18.9415   37.7157   18.1313 H   0  0  0  0  0  0  0  0  0  0  0  0
 26 27  2  0  0  0
 26 28  1  0  0  0
 26 29  1  0  0  0
 26 25  1  0  0  0
 22 23  1  0  0  0
 23  1  1  0  0  0
  1  2  1  0  0  0
  1  3  1  0  0  0
  2  6  1  0  0  0
  3  4  1  0  0  0
  3  5  1  0  0  0
  5 25  1  0  0  0
  5  6  1  0  0  0
  6  8  1  0  0  0
  8  9  1  0  0  0
  8 18  1  0  0  0
  9 10  2  0  0  0
 10 11  1  0  0  0
 11 12  1  0  0  0
 11 18  2  0  0  0
 12 13  2  0  0  0
 12 14  1  0  0  0
 14 15  1  0  0  0
 15 16  1  0  0  0
 15 17  2  0  0  0
 17 18  1  0  0  0
 28 30  1  0  0  0
 29 31  1  0  0  0
 22 24  1  0  0  0
  4  7  1  0  0  0
 14 19  1  0  0  0
 16 20  1  0  0  0
 16 21  1  0  0  0
M  END
> <minimizedAffinity>
-7.09176

$$$$
1RNT_2GP_A_105


 31 33  0  0  0  0  0  0  0  0999 V2000
   20.0977   35.8775   20.6930 C   0  0  0  0  0  0  0  0  0  0  0  0
   18.7354   35.3387   20.8425 O   0  0  0  0  0  0  0  0  0  0  0  0
   21.0556   34.6967   20.9643 C   0  0  0  0  0  0  0  0  0  0  0  0
   21.2512   34.6387   22.3666 O   0  0  0  0  0  0  0  0  0  0  0  0
   20.1785   33.5133   20.5209 C   0  0  0  0  0  0  0  0  0  0  0  0
   18.8340   33.9152   21.0598 C   0  0  0  0  0  0  0  0  0  0  0  0
   20.3903   34.6007   22.8119 H   0  0  0  0  0  0  0  0  0  0  0  0
   17.6043   33.3378   20.5669 N   0  0  0  0  0  0  0  0  0  0  0  0
   17.4940   32.1903   19.8750 C   0  0  0  0  0  0  0  0  0  0  0  0
   16.2869   31.7199   19.8517 N   0  0  0  0  0  0  0  0  0  0  0  0
   15.5034   32.5868   20.6094 C   0  0  0  0  0  0  0  0  0  0  0  0
   14.1302   32.6034   20.9459 C   0  0  0  0  0  0  0  0  0  0  0  0
   13.1889   31.8311   20.6503 O   0  0  0  0  0  0  0  0  0  0  0  0
   13.7745   33.6822   21.7340 N   0  0  0  0  0  0  0  0  0  0  0  0
   14.7094   34.6401   22.1198 C   0  0  0  0  0  0  0  0  0  0  0  0
   14.2003   35.6031   22.8961 N   0  0  0  0  0  0  0  0  0  0  0  0
   15.9712   34.6423   21.8239 N   0  0  0  0  0  0  0  0  0  0  0  0
   16.3292   33.5872   21.0583 C   0  0  0  0  0  0  0  0  0  0  0  0
   12.8399   33.7755   22.0291 H   0  0  0  0  0  0  0  0  0  0  0  0
   13.2415   35.5997   23.1197 H   0  0  0  0  0  0  0  0  0  0  0  0
   14.7844   36.3152   23.2439 H   0  0  0  0  0  0  0  0  0  0  0  0
   18.9183   36.6389   18.7258 O   0  0  0  0  0  0  0  0  0  0  0  0
   20.1941   36.5897   19.3651 C   0  0  0  0  0  0  0  0  0  0  0  0
   19.0000   37.0992   17.8759 H   0  0  0  0  0  0  0  0  0  0  0  0
   20.7064   32.3160   21.0681 O   0  0  0  0  0  0  0  0  0  0  0  0
   21.8019   31.4448   20.3507 P   0  0  0  0  0  0  0  0  0  0  0  0
   20.8937   30.2403   19.7957 O   0  0  0  0  0  0  0  0  0  0  0  0
   22.6588   30.8589   21.4468 O   0  0  0  0  0  0  0  0  0  0  0  0
   22.3634   32.0359   19.1608 O   0  0  0  0  0  0  0  0  0  0  0  0
   23.3548   30.3090   21.0541 H   0  0  0  0  0  0  0  0  0  0  0  0
   23.0264   31.4365   18.7840 H   0  0  0  0  0  0  0  0  0  0  0  0
 26 27  2  0  0  0
 26 28  1  0  0  0
 26 29  1  0  0  0
 26 25  1  0  0  0
 22 23  1  0  0  0
 23  1  1  0  0  0
  1  2  1  0  0  0
  1  3  1  0  0  0
  2  6  1  0  0  0
  3  4  1  0  0  0
  3  5  1  0  0  0
  5 25  1  0  0  0
  5  6  1  0  0  0
  6  8  1  0  0  0
  8  9  1  0  0  0
  8 18  1  0  0  0
  9 10  2  0  0  0
 10 11  1  0  0  0
 11 12  1  0  0  0
 11 18  2  0  0  0
 12 13  2  0  0  0
 12 14  1  0  0  0
 14 15  1  0  0  0
 15 16  1  0  0  0
 15 17  2  0  0  0
 17 18  1  0  0  0
 28 30  1  0  0  0
 29 31  1  0  0  0
 22 24  1  0  0  0
  4  7  1  0  0  0
 14 19  1  0  0  0
 16 20  1  0  0  0
 16 21  1  0  0  0
M  END
> <minimizedAffinity>
-7.08761

$$$$
1RNT_2GP_A_105


 31 33  0  0  0  0  0  0  0  0999 V2000
   16.9630   34.2967   21.6853 C   0  0  0  0  0  0  0  0  0  0  0  0
   18.0425   33.4250   22.1787 O   0  0  0  0  0  0  0  0  0  0  0  0
   17.6580   35.5392   21.0865 C   0  0  0  0  0  0  0  0  0  0  0  0
   17.8766   36.4440   22.1549 O   0  0  0  0  0  0  0  0  0  0  0  0
   19.0010   34.9291   20.6499 C   0  0  0  0  0  0  0  0  0  0  0  0
   19.3056   34.0134   21.8024 C   0  0  0  0  0  0  0  0  0  0  0  0
   18.3522   35.9919   22.8692 H   0  0  0  0  0  0  0  0  0  0  0  0
   20.2495   32.9247   21.6906 N   0  0  0  0  0  0  0  0  0  0  0  0
   21.4156   32.8213   22.3517 C   0  0  0  0  0  0  0  0  0  0  0  0
   21.9028   31.6206   22.3467 N   0  0  0  0  0  0  0  0  0  0  0  0
   20.9939   30.8213   21.6579 C   0  0  0  0  0  0  0  0  0  0  0  0
   20.9720   29.4463   21.3293 C   0  0  0  0  0  0  0  0  0  0  0  0
   21.7843   28.5202   21.5584 O   0  0  0  0  0  0  0  0  0  0  0  0
   19.8497   29.0742   20.6127 N   0  0  0  0  0  0  0  0  0  0  0  0
   18.8722   30.0018   20.2598 C   0  0  0  0  0  0  0  0  0  0  0  0
   17.8464   29.4688   19.5868 N   0  0  0  0  0  0  0  0  0  0  0  0
   18.8724   31.2643   20.5523 N   0  0  0  0  0  0  0  0  0  0  0  0
   19.9636   31.6359   21.2585 C   0  0  0  0  0  0  0  0  0  0  0  0
   19.7390   28.1330   20.3460 H   0  0  0  0  0  0  0  0  0  0  0  0
   17.8481   28.5095   19.3656 H   0  0  0  0  0  0  0  0  0  0  0  0
   17.0897   30.0359   19.3128 H   0  0  0  0  0  0  0  0  0  0  0  0
   16.2310   32.0877   21.0331 O   0  0  0  0  0  0  0  0  0  0  0  0
   16.0528   33.4844   20.7955 C   0  0  0  0  0  0  0  0  0  0  0  0
   15.6391   31.5831   20.4535 H   0  0  0  0  0  0  0  0  0  0  0  0
   19.9408   35.9730   20.4534 O   0  0  0  0  0  0  0  0  0  0  0  0
   20.3784   36.4890   19.0334 P   0  0  0  0  0  0  0  0  0  0  0  0
   20.9489   35.1281   18.3961 O   0  0  0  0  0  0  0  0  0  0  0  0
   21.5729   37.3840   19.2599 O   0  0  0  0  0  0  0  0  0  0  0  0
   19.2908   36.8550   18.1596 O   0  0  0  0  0  0  0  0  0  0  0  0
   21.8833   37.7304   18.4087 H   0  0  0  0  0  0  0  0  0  0  0  0
   19.6469   37.1601   17.3105 H   0  0  0  0  0  0  0  0  0  0  0  0
 26 27  2  0  0  0
 26 28  1  0  0  0
 26 29  1  0  0  0
 26 25  1  0  0  0
 22 23  1  0  0  0
 23  1  1  0  0  0
  1  2  1  0  0  0
  1  3  1  0  0  0
  2  6  1  0  0  0
  3  4  1  0  0  0
  3  5  1  0  0  0
  5 25  1  0  0  0
  5  6  1  0  0  0
  6  8  1  0  0  0
  8  9  1  0  0  0
  8 18  1  0  0  0
  9 10  2  0  0  0
 10 11  1  0  0  0
 11 12  1  0  0  0
 11 18  2  0  0  0
 12 13  2  0  0  0
 12 14  1  0  0  0
 14 15  1  0  0  0
 15 16  1  0  0  0
 15 17  2  0  0  0
 17 18  1  0  0  0
 28 30  1  0  0  0
 29 31  1  0  0  0
 22 24  1  0  0  0
  4  7  1  0  0  0
 14 19  1  0  0  0
 16 20  1  0  0  0
 16 21  1  0  0  0
M  END
> <minimizedAffinity>
-6.94536

$$$$
1RNT_2GP_A_105


 31 33  0  0  0  0  0  0  0  0999 V2000
   21.0940   34.1026   23.5650 C   0  0  0  0  0  0  0  0  0  0  0  0
   19.9778   33.2839   23.0627 O   0  0  0  0  0  0  0  0  0  0  0  0
   21.2010   35.3108   22.6089 C   0  0  0  0  0  0  0  0  0  0  0  0
   22.0120   34.9042   21.5203 O   0  0  0  0  0  0  0  0  0  0  0  0
   19.7404   35.4317   22.1414 C   0  0  0  0  0  0  0  0  0  0  0  0
   19.3592   33.9884   21.9653 C   0  0  0  0  0  0  0  0  0  0  0  0
   21.6542   34.0878   21.1378 H   0  0  0  0  0  0  0  0  0  0  0  0
   17.9805   33.5570   21.9245 N   0  0  0  0  0  0  0  0  0  0  0  0
   16.9077   34.3183   22.2018 C   0  0  0  0  0  0  0  0  0  0  0  0
   15.7959   33.8156   21.7658 N   0  0  0  0  0  0  0  0  0  0  0  0
   16.1211   32.6315   21.1088 C   0  0  0  0  0  0  0  0  0  0  0  0
   15.3487   31.6559   20.4374 C   0  0  0  0  0  0  0  0  0  0  0  0
   14.1157   31.5607   20.2360 O   0  0  0  0  0  0  0  0  0  0  0  0
   16.1052   30.6171   19.9274 N   0  0  0  0  0  0  0  0  0  0  0  0
   17.4871   30.5727   20.0973 C   0  0  0  0  0  0  0  0  0  0  0  0
   18.0633   29.5104   19.5239 N   0  0  0  0  0  0  0  0  0  0  0  0
   18.2131   31.4564   20.7069 N   0  0  0  0  0  0  0  0  0  0  0  0
   17.4820   32.4792   21.2037 C   0  0  0  0  0  0  0  0  0  0  0  0
   15.6574   29.8928   19.4332 H   0  0  0  0  0  0  0  0  0  0  0  0
   17.5100   28.8403   19.0613 H   0  0  0  0  0  0  0  0  0  0  0  0
   19.0406   29.3988   19.5645 H   0  0  0  0  0  0  0  0  0  0  0  0
   22.0692   34.1047   25.7764 O   0  0  0  0  0  0  0  0  0  0  0  0
   20.8771   34.3677   25.0356 C   0  0  0  0  0  0  0  0  0  0  0  0
   21.9107   34.2803   26.7171 H   0  0  0  0  0  0  0  0  0  0  0  0
   19.6974   36.2087   20.9556 O   0  0  0  0  0  0  0  0  0  0  0  0
   19.5927   35.5860   19.5151 P   0  0  0  0  0  0  0  0  0  0  0  0
   20.0953   36.8284   18.6275 O   0  0  0  0  0  0  0  0  0  0  0  0
   18.1186   35.4302   19.2294 O   0  0  0  0  0  0  0  0  0  0  0  0
   20.5506   34.5452   19.2333 O   0  0  0  0  0  0  0  0  0  0  0  0
   17.9991   35.0473   18.3462 H   0  0  0  0  0  0  0  0  0  0  0  0
   20.4169   34.2186   18.3298 H   0  0  0  0  0  0  0  0  0  0  0  0
 26 27  2  0  0  0
 26 28  1  0  0  0
 26 29  1  0  0  0
 26 25  1  0  0  0
 22 23  1  0  0  0
 23  1  1  0  0  0
  1  2  1  0  0  0
  1  3  1  0  0  0
  2  6  1  0  0  0
  3  4  1  0  0  0
  3  5  1  0  0  0
  5 25  1  0  0  0
  5  6  1  0  0  0
  6  8  1  0  0  0
  8  9  1  0  0  0
  8 18  1  0  0  0
  9 10  2  0  0  0
 10 11  1  0  0  0
 11 12  1  0  0  0
 11 18  2  0  0  0
 12 13  2  0  0  0
 12 14  1  0  0  0
 14 15  1  0  0  0
 15 16  1  0  0  0
 15 17  2  0  0  0
 17 18  1  0  0  0
 28 30  1  0  0  0
 29 31  1  0  0  0
 22 24  1  0  0  0
  4  7  1  0  0  0
 14 19  1  0  0  0
 16 20  1  0  0  0
 16 21  1  0  0  0
M  END
> <minimizedAffinity>
-6.91941

$$$$
1RNT_2GP_A_105


 31 33  0  0  0  0  0  0  0  0999 V2000
   19.6989   35.1838   20.3790 C   0  0  0  0  0  0  0  0  0  0  0  0
   19.4345   35.2137   21.8273 O   0  0  0  0  0  0  0  0  0  0  0  0
   19.5953   33.7017   19.9569 C   0  0  0  0  0  0  0  0  0  0  0  0
   20.8670   33.1189   20.1835 O   0  0  0  0  0  0  0  0  0  0  0  0
   18.5986   33.1781   21.0052 C   0  0  0  0  0  0  0  0  0  0  0  0
   19.0691   33.8820   22.2473 C   0  0  0  0  0  0  0  0  0  0  0  0
   21.1395   33.2836   21.0998 H   0  0  0  0  0  0  0  0  0  0  0  0
   18.2253   34.0347   23.4107 N   0  0  0  0  0  0  0  0  0  0  0  0
   18.6456   34.2981   24.6603 C   0  0  0  0  0  0  0  0  0  0  0  0
   17.7020   34.7242   25.4393 N   0  0  0  0  0  0  0  0  0  0  0  0
   16.5446   34.7926   24.6677 C   0  0  0  0  0  0  0  0  0  0  0  0
   15.2148   35.1789   24.9533 C   0  0  0  0  0  0  0  0  0  0  0  0
   14.6692   35.5757   26.0091 O   0  0  0  0  0  0  0  0  0  0  0  0
   14.3722   35.0827   23.8613 N   0  0  0  0  0  0  0  0  0  0  0  0
   14.8314   34.6298   22.6266 C   0  0  0  0  0  0  0  0  0  0  0  0
   13.8899   34.6186   21.6765 N   0  0  0  0  0  0  0  0  0  0  0  0
   16.0449   34.2732   22.3441 N   0  0  0  0  0  0  0  0  0  0  0  0
   16.8773   34.3700   23.4048 C   0  0  0  0  0  0  0  0  0  0  0  0
   13.4268   35.3399   23.9586 H   0  0  0  0  0  0  0  0  0  0  0  0
   12.9687   34.8898   21.8932 H   0  0  0  0  0  0  0  0  0  0  0  0
   14.1182   34.3390   20.7606 H   0  0  0  0  0  0  0  0  0  0  0  0
   19.4079   36.6899   18.5114 O   0  0  0  0  0  0  0  0  0  0  0  0
   18.7980   36.1880   19.7010 C   0  0  0  0  0  0  0  0  0  0  0  0
   18.8154   37.3323   18.0906 H   0  0  0  0  0  0  0  0  0  0  0  0
   18.6805   31.7630   21.0547 O   0  0  0  0  0  0  0  0  0  0  0  0
   17.5600   30.8103   20.4974 P   0  0  0  0  0  0  0  0  0  0  0  0
   18.4624   29.7193   19.7364 O   0  0  0  0  0  0  0  0  0  0  0  0
   16.8408   31.5891   19.4226 O   0  0  0  0  0  0  0  0  0  0  0  0
   16.8597   30.0462   21.5004 O   0  0  0  0  0  0  0  0  0  0  0  0
   16.1350   31.0419   19.0442 H   0  0  0  0  0  0  0  0  0  0  0  0
   16.1904   29.4888   21.0734 H   0  0  0  0  0  0  0  0  0  0  0  0
 26 27  2  0  0  0
 26 28  1  0  0  0
 26 29  1  0  0  0
 26 25  1  0  0  0
 22 23  1  0  0  0
 23  1  1  0  0  0
  1  2  1  0  0  0
  1  3  1  0  0  0
  2  6  1  0  0  0
  3  4  1  0  0  0
  3  5  1  0  0  0
  5 25  1  0  0  0
  5  6  1  0  0  0
  6  8  1  0  0  0
  8  9  1  0  0  0
  8 18  1  0  0  0
  9 10  2  0  0  0
 10 11  1  0  0  0
 11 12  1  0  0  0
 11 18  2  0  0  0
 12 13  2  0  0  0
 12 14  1  0  0  0
 14 15  1  0  0  0
 15 16  1  0  0  0
 15 17  2  0  0  0
 17 18  1  0  0  0
 28 30  1  0  0  0
 29 31  1  0  0  0
 22 24  1  0  0  0
  4  7  1  0  0  0
 14 19  1  0  0  0
 16 20  1  0  0  0
 16 21  1  0  0  0
M  END
> <minimizedAffinity>
-6.84942

$$$$
