1RNT_2GP_A_105
  RCSB PDB12061703543D
Coordinates from PDB:1RNT:A:105 Model:1 without hydrogens
 24 26  0  0  0  0            999 V2000
   19.6640   35.4300   19.2180   P 0  0  0  0  0  0  0  0  0  0  0  0
   20.7560   35.1860   18.0640   O 0  0  0  0  0  0  0  0  0  0  0  0
   20.1580   36.6050   20.0270   O 0  0  0  0  0  0  0  0  0  0  0  0
   18.4070   35.4500   18.5110   O 0  0  0  0  0  0  0  0  0  0  0  0
   17.7700   34.7750   23.9900   O 0  0  0  0  0  0  0  0  0  0  0  0
   18.7590   33.9350   24.5860   C 0  0  0  0  0  0  0  0  0  0  0  0
   19.4260   33.0730   23.5410   C 0  0  0  0  0  0  0  0  0  0  0  0
   18.3890   32.3120   22.8240   O 0  0  0  0  0  0  0  0  0  0  0  0
   20.2770   33.7640   22.4530   C 0  0  0  0  0  0  0  0  0  0  0  0
   21.2650   32.8320   22.0490   O 0  0  0  0  0  0  0  0  0  0  0  0
   19.2330   33.9200   21.3340   C 0  0  0  0  0  0  0  0  0  0  0  0
   19.9030   34.1540   20.1060   O 0  0  0  0  0  0  0  0  0  0  0  0
   18.5040   32.6080   21.4160   C 0  0  0  0  0  0  0  0  0  0  0  0
   17.1880   32.4230   20.8480   N 0  0  0  0  0  0  0  0  0  0  0  0
   16.7810   31.3610   20.1310   C 0  0  0  0  0  0  0  0  0  0  0  0
   15.4920   31.2710   20.0350   N 0  0  0  0  0  0  0  0  0  0  0  0
   14.9600   32.3310   20.7650   C 0  0  0  0  0  0  0  0  0  0  0  0
   13.6370   32.7550   21.0280   C 0  0  0  0  0  0  0  0  0  0  0  0
   12.5270   32.2980   20.6690   O 0  0  0  0  0  0  0  0  0  0  0  0
   13.5740   33.8900   21.8150   N 0  0  0  0  0  0  0  0  0  0  0  0
   14.7280   34.5260   22.2670   C 0  0  0  0  0  0  0  0  0  0  0  0
   14.4850   35.5960   23.0320   N 0  0  0  0  0  0  0  0  0  0  0  0
   15.9480   34.1530   22.0390   N 0  0  0  0  0  0  0  0  0  0  0  0
   16.0190   33.0400   21.2750   C 0  0  0  0  0  0  0  0  0  0  0  0
  1  2  2  0  0  0  0
  1  3  1  0  0  0  0
  1  4  1  0  0  0  0
  1 12  1  0  0  0  0
  5  6  1  0  0  0  0
  6  7  1  0  0  0  0
  7  8  1  0  0  0  0
  7  9  1  0  0  0  0
  8 13  1  0  0  0  0
  9 10  1  0  0  0  0
  9 11  1  0  0  0  0
 11 12  1  0  0  0  0
 11 13  1  0  0  0  0
 13 14  1  0  0  0  0
 14 15  1  0  0  0  0
 14 24  1  0  0  0  0
 15 16  2  0  0  0  0
 16 17  1  0  0  0  0
 17 18  1  0  0  0  0
 17 24  2  0  0  0  0
 18 19  2  0  0  0  0
 18 20  1  0  0  0  0
 20 21  1  0  0  0  0
 21 22  1  0  0  0  0
 21 23  2  0  0  0  0
 23 24  1  0  0  0  0
A    1
P
A    2
O1P
A    3
O2P
A    4
O3P
A    5
O5'
A    6
C5'
A    7
C4'
A    8
O4'
A    9
C3'
A   10
O3'
A   11
C2'
A   12
O2'
A   13
C1'
A   14
N9
A   15
C8
A   16
N7
A   17
C5
A   18
C6
A   19
O6
A   20
N1
A   21
C2
A   22
N2
A   23
N3
A   24
C4
M  END
>  <InstanceId>
1RNT_2GP_A_105

>  <ChemCompId>
2GP

>  <PdbId>
1RNT

>  <ChainId>
A

>  <ResidueNumber>
105

>  <InsertionCode>


>  <Model>
1

>  <AltIds>


>  <MissingHeavyAtoms>
0

>  <ObservedFormula>
C10 N5 O8 P

>  <Name>
GUANOSINE-2'-MONOPHOSPHATE

>  <SystematicName>
[(2R,3R,4R,5R)-2-(2-amino-6-oxo-1H-purin-9-yl)-4-hydroxy-5-(hydroxymethyl)oxolan-3-yl] dihydrogen phosphate

>  <Synonyms>


>  <Type>
NON-POLYMER

>  <Formula>
C10 H14 N5 O8 P

>  <MolecularWeight>
363.221

>  <ModifiedDate>
2011-06-04

>  <Parent>


>  <OneLetterCode>


>  <SubcomponentList>


>  <AmbiguousFlag>
N

>  <InChI>
InChI=1S/C10H14N5O8P/c11-10-13-7-4(8(18)14-10)12-2-15(7)9-6(23-24(19,20)21)5(17)3(1-16)22-9/h2-3,5-6,9,16-17H,1H2,(H2,19,20,21)(H3,11,13,14,18)/t3-,5-,6-,9-/m1/s1

>  <InChIKey>
WTIFIAZWCCBCGE-UUOKFMHZSA-N

>  <SMILES>
c1nc2c(n1[C@H]3[C@@H]([C@@H]([C@H](O3)CO)O)OP(=O)(O)O)N=C(NC2=O)N

$$$$
