2YGE_GDM_A_1215
  RCSB PDB12061707363D
Coordinates from PDB:2YGE:A:1215 Model:1 without hydrogens
 40 41  0  0  0  0            999 V2000
   25.4780  -33.1720    0.3660   O 0  0  0  0  0  0  0  0  0  0  0  0
   19.6120  -33.8410   -1.6760   O 0  0  0  0  0  0  0  0  0  0  0  0
   18.9090  -32.7520   -4.0990   O 0  0  0  0  0  0  0  0  0  0  0  0
   17.2740  -33.6370   -5.4820   O 0  0  0  0  0  0  0  0  0  0  0  0
   22.1550  -36.7280   -9.1450   O 0  0  0  0  0  0  0  0  0  0  0  0
   23.0780  -38.5110   -7.1330   O 0  0  0  0  0  0  0  0  0  0  0  0
   25.3620  -33.4160   -7.5710   O 0  0  0  0  0  0  0  0  0  0  0  0
   24.3510  -31.0890   -6.3640   O 0  0  0  0  0  0  0  0  0  0  0  0
   26.5800  -34.7080   -3.0430   O 0  0  0  0  0  0  0  0  0  0  0  0
   25.5520  -32.3130   -1.7690   N 0  0  0  0  0  0  0  0  0  0  0  0
   16.7830  -31.5840   -4.5260   N 0  0  0  0  0  0  0  0  0  0  0  0
   25.2120  -33.3270   -0.7890   C 0  0  0  0  0  0  0  0  0  0  0  0
   24.5100  -34.6060   -1.2390   C 0  0  0  0  0  0  0  0  0  0  0  0
   23.2300  -34.4470   -1.9430   C 0  0  0  0  0  0  0  0  0  0  0  0
   22.3230  -35.6760   -2.0870   C 0  0  0  0  0  0  0  0  0  0  0  0
   21.0130  -35.5220   -2.7370   C 0  0  0  0  0  0  0  0  0  0  0  0
   20.4190  -34.1040   -2.8280   C 0  0  0  0  0  0  0  0  0  0  0  0
   19.5580  -34.0120   -4.0960   C 0  0  0  0  0  0  0  0  0  0  0  0
   20.4830  -34.0080   -5.3080   C 0  0  0  0  0  0  0  0  0  0  0  0
   20.4200  -35.1370   -6.2350   C 0  0  0  0  0  0  0  0  0  0  0  0
   21.3060  -35.1790   -7.4850   C 0  0  0  0  0  0  0  0  0  0  0  0
   21.6530  -36.6490   -7.8100   C 0  0  0  0  0  0  0  0  0  0  0  0
   22.7220  -37.1610   -6.8220   C 0  0  0  0  0  0  0  0  0  0  0  0
   23.9870  -36.2980   -6.9260   C 0  0  0  0  0  0  0  0  0  0  0  0
   24.5910  -36.0570   -5.5350   C 0  0  0  0  0  0  0  0  0  0  0  0
   26.0620  -35.6430   -5.6960   C 0  0  0  0  0  0  0  0  0  0  0  0
   26.0300  -34.1660   -5.2680   C 0  0  0  0  0  0  0  0  0  0  0  0
   25.4150  -33.1840   -6.1650   C 0  0  0  0  0  0  0  0  0  0  0  0
   24.8440  -31.8760   -5.6120   C 0  0  0  0  0  0  0  0  0  0  0  0
   24.8850  -31.6070   -4.1030   C 0  0  0  0  0  0  0  0  0  0  0  0
   25.5010  -32.5830   -3.2040   C 0  0  0  0  0  0  0  0  0  0  0  0
   26.0820  -33.8880   -3.7670   C 0  0  0  0  0  0  0  0  0  0  0  0
   24.7810  -35.8790   -0.4210   C 0  0  0  0  0  0  0  0  0  0  0  0
   18.3790  -34.5610   -1.7420   C 0  0  0  0  0  0  0  0  0  0  0  0
   17.6350  -32.7490   -4.7530   C 0  0  0  0  0  0  0  0  0  0  0  0
   21.4400  -32.8250   -5.5390   C 0  0  0  0  0  0  0  0  0  0  0  0
   20.4700  -34.5870   -8.6320   C 0  0  0  0  0  0  0  0  0  0  0  0
   24.0930  -38.5440   -8.1490   C 0  0  0  0  0  0  0  0  0  0  0  0
   24.4860  -37.2570   -4.5780   C 0  0  0  0  0  0  0  0  0  0  0  0
   26.2530  -32.4960   -8.2170   C 0  0  0  0  0  0  0  0  0  0  0  0
  1 12  2  0  0  0  0
  2 17  1  0  0  0  0
  2 34  1  0  0  0  0
  3 18  1  0  0  0  0
  3 35  1  0  0  0  0
  4 35  2  0  0  0  0
  5 22  1  0  0  0  0
  6 23  1  0  0  0  0
  6 38  1  0  0  0  0
  7 28  1  0  0  0  0
  7 40  1  0  0  0  0
  8 29  2  0  0  0  0
  9 32  2  0  0  0  0
 10 12  1  0  0  0  0
 10 31  1  0  0  0  0
 11 35  1  0  0  0  0
 12 13  1  0  0  0  0
 13 14  2  0  0  0  0
 13 33  1  0  0  0  0
 14 15  1  0  0  0  0
 15 16  2  0  0  0  0
 16 17  1  0  0  0  0
 17 18  1  0  0  0  0
 18 19  1  0  0  0  0
 19 20  2  0  0  0  0
 19 36  1  0  0  0  0
 20 21  1  0  0  0  0
 21 22  1  0  0  0  0
 21 37  1  0  0  0  0
 22 23  1  0  0  0  0
 23 24  1  0  0  0  0
 24 25  1  0  0  0  0
 25 26  1  0  0  0  0
 25 39  1  0  0  0  0
 26 27  1  0  0  0  0
 27 28  2  0  0  0  0
 27 32  1  0  0  0  0
 28 29  1  0  0  0  0
 29 30  1  0  0  0  0
 30 31  2  0  0  0  0
 31 32  1  0  0  0  0
A    1
O1
A    2
O2
A    3
O3
A    4
O4
A    5
O5
A    6
O6
A    7
O7
A    8
O8
A    9
O9
A   10
N1
A   11
N2
A   12
C1
A   13
C2
A   14
C3
A   15
C4
A   16
C5
A   17
C6
A   18
C7
A   19
C8
A   20
C9
A   21
C10
A   22
C11
A   23
C12
A   24
C13
A   25
C14
A   26
C15
A   27
C16
A   28
C17
A   29
C18
A   30
C19
A   31
C20
A   32
C21
A   33
C22
A   34
C23
A   35
C24
A   36
C25
A   37
C26
A   38
C27
A   39
C28
A   40
C29
M  END
>  <InstanceId>
2YGE_GDM_A_1215

>  <ChemCompId>
GDM

>  <PdbId>
2YGE

>  <ChainId>
A

>  <ResidueNumber>
1215

>  <InsertionCode>


>  <Model>
1

>  <AltIds>


>  <MissingHeavyAtoms>
0

>  <ObservedFormula>
C29 N2 O9

>  <Name>
GELDANAMYCIN

>  <SystematicName>
[(3R,5S,6R,7S,8E,10S,11S,12Z,14E)-6-hydroxy-5,11,21-trimethoxy-3,7,9,15-tetramethyl-16,20,22-trioxo-17-azabicyclo[16.3.1]docosa-1(21),8,12,14,18-pentaen-10-yl] carbamate

>  <Synonyms>


>  <Type>
NON-POLYMER

>  <Formula>
C29 H40 N2 O9

>  <MolecularWeight>
560.636

>  <ModifiedDate>
2011-06-04

>  <Parent>


>  <OneLetterCode>


>  <SubcomponentList>


>  <AmbiguousFlag>
N

>  <InChI>
InChI=1S/C29H40N2O9/c1-15-11-19-25(34)20(14-21(32)27(19)39-7)31-28(35)16(2)9-8-10-22(37-5)26(40-29(30)36)18(4)13-17(3)24(33)23(12-15)38-6/h8-10,13-15,17,22-24,26,33H,11-12H2,1-7H3,(H2,30,36)(H,31,35)/b10-8-,16-9+,18-13+/t15-,17+,22+,23+,24-,26+/m1/s1

>  <InChIKey>
QTQAWLPCGQOSGP-KSRBKZBZSA-N

>  <SMILES>
C[C@H]1C[C@@H]([C@@H]([C@H](\C=C(\[C@@H]([C@H](\C=C/C=C(/C(=O)NC2=CC(=O)C(=C(C1)C2=O)OC)\C)OC)OC(=O)N)/C)C)O)OC

$$$$
