1PB9_4AX_A_901
  RCSB PDB12061703383D
Coordinates from PDB:1PB9:A:901 Model:1 without hydrogens
  7  7  0  0  0  0            999 V2000
   23.4730   41.0430   39.0280   O 0  0  0  0  0  0  0  0  0  0  0  0
   21.9920   38.2960   40.5140   O 0  0  0  0  0  0  0  0  0  0  0  0
   21.3880   41.8590   40.7910   N 0  0  0  0  0  0  0  0  0  0  0  0
   23.0850   38.9310   39.7790   N 0  0  0  0  0  0  0  0  0  0  0  0
   21.4040   40.4890   40.2300   C 0  0  0  0  0  0  0  0  0  0  0  0
   21.3000   39.3640   41.2040   C 0  0  0  0  0  0  0  0  0  0  0  0
   22.7620   40.1770   39.6190   C 0  0  0  0  0  0  0  0  0  0  0  0
  1  7  2  0  0  0  0
  2  4  1  0  0  0  0
  2  6  1  0  0  0  0
  3  5  1  0  0  0  0
  4  7  1  0  0  0  0
  5  6  1  0  0  0  0
  5  7  1  0  0  0  0
A    1
OG
A    2
O
A    3
N
A    4
NXT
A    5
CA
A    6
CB
A    7
C3
M  END
>  <InstanceId>
1PB9_4AX_A_901

>  <ChemCompId>
4AX

>  <PdbId>
1PB9

>  <ChainId>
A

>  <ResidueNumber>
901

>  <InsertionCode>


>  <Model>
1

>  <AltIds>


>  <MissingHeavyAtoms>
0

>  <ObservedFormula>
C3 N2 O2

>  <Name>
(R)-4-AMINO-ISOXAZOLIDIN-3-ONE

>  <SystematicName>
(4R)-4-amino-1,2-oxazolidin-3-one

>  <Synonyms>


>  <Type>
NON-POLYMER

>  <Formula>
C3 H6 N2 O2

>  <MolecularWeight>
102.092

>  <ModifiedDate>
2011-06-04

>  <Parent>


>  <OneLetterCode>


>  <SubcomponentList>


>  <AmbiguousFlag>
N

>  <InChI>
InChI=1S/C3H6N2O2/c4-2-1-7-5-3(2)6/h2H,1,4H2,(H,5,6)/t2-/m1/s1

>  <InChIKey>
DYDCUQKUCUHJBH-UWTATZPHSA-N

>  <SMILES>
C1[C@H](C(=O)NO1)N

$$$$
