2SIM_DAN_A_800


 26 26  0  0  0  0  0  0  0  0999 V2000
   43.1454   51.5628   47.1963 C   0  0  0  0  0  0  0  0  0  0  0  0
   41.8701   51.2605   47.6957 C   0  0  0  0  0  0  0  0  0  0  0  0
   41.7079   50.6168   49.0678 C   0  0  0  0  0  0  0  0  0  0  0  0
   42.9524   50.8879   49.9256 C   0  0  0  0  0  0  0  0  0  0  0  0
   44.1851   50.4541   49.1103 C   0  0  0  0  0  0  0  0  0  0  0  0
   40.5720   51.0909   49.7849 O   0  0  0  0  0  0  0  0  0  0  0  0
   44.2732   51.2744   47.9431 O   0  0  0  0  0  0  0  0  0  0  0  0
   40.6733   52.0395   49.9605 H   0  0  0  0  0  0  0  0  0  0  0  0
   42.8429   50.7547   52.3660 C   0  0  0  0  0  0  0  0  0  0  0  0
   42.4761   49.8957   53.5751 C   0  0  0  0  0  0  0  0  0  0  0  0
   42.7796   50.1652   51.1740 N   0  0  0  0  0  0  0  0  0  0  0  0
   43.2792   51.9109   52.4931 O   0  0  0  0  0  0  0  0  0  0  0  0
   42.6080   49.1965   51.1368 H   0  0  0  0  0  0  0  0  0  0  0  0
   43.2907   51.8946   45.8409 C   0  0  0  0  0  0  0  0  0  0  0  0
   42.3508   52.0558   45.0625 O   0  0  0  0  0  0  0  0  0  0  0  0
   44.4298   51.9959   45.3679 O   0  0  0  0  0  0  0  0  0  0  0  0
   45.1782   51.8817   45.9201 H   0  0  0  0  0  0  0  0  0  0  0  0
   45.4830   50.6464   49.8634 C   0  0  0  0  0  0  0  0  0  0  0  0
   45.4269   51.9399   50.4467 O   0  0  0  0  0  0  0  0  0  0  0  0
   45.2912   52.6025   49.7514 H   0  0  0  0  0  0  0  0  0  0  0  0
   46.6501   50.5004   48.8602 C   0  0  0  0  0  0  0  0  0  0  0  0
   46.3682   49.4028   47.9625 O   0  0  0  0  0  0  0  0  0  0  0  0
   46.2709   48.5840   48.4734 H   0  0  0  0  0  0  0  0  0  0  0  0
   47.9835   50.2613   49.6361 C   0  0  0  0  0  0  0  0  0  0  0  0
   47.7334   50.0919   51.0202 O   0  0  0  0  0  0  0  0  0  0  0  0
   47.3129   50.8916   51.3731 H   0  0  0  0  0  0  0  0  0  0  0  0
 14  1  1  0  0  0
 14 15  2  0  0  0
 14 16  1  0  0  0
  1  2  2  0  0  0
  1  7  1  0  0  0
  2  3  1  0  0  0
  3  4  1  0  0  0
  3  6  1  0  0  0
  4  5  1  0  0  0
  4 11  1  0  0  0
  5 18  1  0  0  0
  5  7  1  0  0  0
 18 21  1  0  0  0
 18 19  1  0  0  0
 21 24  1  0  0  0
 21 22  1  0  0  0
 24 25  1  0  0  0
  9 10  1  0  0  0
  9 11  1  0  0  0
  9 12  2  0  0  0
 11 13  1  0  0  0
 16 17  1  0  0  0
  6  8  1  0  0  0
 19 20  1  0  0  0
 22 23  1  0  0  0
 25 26  1  0  0  0
M  END
> <minimizedAffinity>
-7.78190

$$$$
2SIM_DAN_A_800


 26 26  0  0  0  0  0  0  0  0999 V2000
   44.0862   49.4721   49.7438 C   0  0  0  0  0  0  0  0  0  0  0  0
   42.8453   49.9492   49.2967 C   0  0  0  0  0  0  0  0  0  0  0  0
   42.7653   51.1800   48.4011 C   0  0  0  0  0  0  0  0  0  0  0  0
   44.1064   51.3966   47.6851 C   0  0  0  0  0  0  0  0  0  0  0  0
   45.2124   51.4040   48.7572 C   0  0  0  0  0  0  0  0  0  0  0  0
   41.7491   51.0916   47.4067 O   0  0  0  0  0  0  0  0  0  0  0  0
   45.2538   50.1184   49.3804 O   0  0  0  0  0  0  0  0  0  0  0  0
   41.9463   50.3547   46.8076 H   0  0  0  0  0  0  0  0  0  0  0  0
   43.7554   52.6683   45.6248 C   0  0  0  0  0  0  0  0  0  0  0  0
   43.5036   54.0439   45.0096 C   0  0  0  0  0  0  0  0  0  0  0  0
   43.9972   52.6350   46.9336 N   0  0  0  0  0  0  0  0  0  0  0  0
   43.8358   51.6440   44.9263 O   0  0  0  0  0  0  0  0  0  0  0  0
   44.1067   53.4877   47.4134 H   0  0  0  0  0  0  0  0  0  0  0  0
   44.1250   48.5206   50.7741 C   0  0  0  0  0  0  0  0  0  0  0  0
   43.8612   48.7636   51.9517 O   0  0  0  0  0  0  0  0  0  0  0  0
   44.4851   47.3665   50.5101 O   0  0  0  0  0  0  0  0  0  0  0  0
   44.6970   47.1320   49.6280 H   0  0  0  0  0  0  0  0  0  0  0  0
   46.5895   51.6391   48.1767 C   0  0  0  0  0  0  0  0  0  0  0  0
   46.4932   51.3805   46.7837 O   0  0  0  0  0  0  0  0  0  0  0  0
   46.1733   50.4754   46.6442 H   0  0  0  0  0  0  0  0  0  0  0  0
   47.5819   50.6901   48.8869 C   0  0  0  0  0  0  0  0  0  0  0  0
   48.6285   51.4745   49.5031 O   0  0  0  0  0  0  0  0  0  0  0  0
   49.0936   51.9849   48.8219 H   0  0  0  0  0  0  0  0  0  0  0  0
   48.1733   49.6794   47.8545 C   0  0  0  0  0  0  0  0  0  0  0  0
   47.2768   48.6043   47.6370 O   0  0  0  0  0  0  0  0  0  0  0  0
   47.1255   48.1353   48.4725 H   0  0  0  0  0  0  0  0  0  0  0  0
 14  1  1  0  0  0
 14 15  2  0  0  0
 14 16  1  0  0  0
  1  2  2  0  0  0
  1  7  1  0  0  0
  2  3  1  0  0  0
  3  4  1  0  0  0
  3  6  1  0  0  0
  4  5  1  0  0  0
  4 11  1  0  0  0
  5 18  1  0  0  0
  5  7  1  0  0  0
 18 21  1  0  0  0
 18 19  1  0  0  0
 21 24  1  0  0  0
 21 22  1  0  0  0
 24 25  1  0  0  0
  9 10  1  0  0  0
  9 11  1  0  0  0
  9 12  2  0  0  0
 11 13  1  0  0  0
 16 17  1  0  0  0
  6  8  1  0  0  0
 19 20  1  0  0  0
 22 23  1  0  0  0
 25 26  1  0  0  0
M  END
> <minimizedAffinity>
-7.28049

$$$$
2SIM_DAN_A_800


 26 26  0  0  0  0  0  0  0  0999 V2000
   48.3438   50.1494   47.7045 C   0  0  0  0  0  0  0  0  0  0  0  0
   48.5584   49.6819   49.0094 C   0  0  0  0  0  0  0  0  0  0  0  0
   47.4906   49.8615   50.0822 C   0  0  0  0  0  0  0  0  0  0  0  0
   46.1153   50.0558   49.4271 C   0  0  0  0  0  0  0  0  0  0  0  0
   46.2452   51.1935   48.3970 C   0  0  0  0  0  0  0  0  0  0  0  0
   47.3955   48.7571   50.9769 O   0  0  0  0  0  0  0  0  0  0  0  0
   47.1598   50.7851   47.3774 O   0  0  0  0  0  0  0  0  0  0  0  0
   47.1297   47.9644   50.4851 H   0  0  0  0  0  0  0  0  0  0  0  0
   44.0917   49.5671   50.7122 C   0  0  0  0  0  0  0  0  0  0  0  0
   43.2810   49.8767   51.9696 C   0  0  0  0  0  0  0  0  0  0  0  0
   45.1654   50.3232   50.4933 N   0  0  0  0  0  0  0  0  0  0  0  0
   43.7133   48.7253   49.8806 O   0  0  0  0  0  0  0  0  0  0  0  0
   45.3227   51.0980   51.0800 H   0  0  0  0  0  0  0  0  0  0  0  0
   49.4263   50.2228   46.8151 C   0  0  0  0  0  0  0  0  0  0  0  0
   50.3720   49.4348   46.8084 O   0  0  0  0  0  0  0  0  0  0  0  0
   49.4730   51.1566   46.0044 O   0  0  0  0  0  0  0  0  0  0  0  0
   48.7770   51.7830   45.9707 H   0  0  0  0  0  0  0  0  0  0  0  0
   44.9399   51.5026   47.6975 C   0  0  0  0  0  0  0  0  0  0  0  0
   44.3487   50.2538   47.3696 O   0  0  0  0  0  0  0  0  0  0  0  0
   44.9608   49.7410   46.8189 H   0  0  0  0  0  0  0  0  0  0  0  0
   45.2519   52.3556   46.4466 C   0  0  0  0  0  0  0  0  0  0  0  0
   45.9171   53.5719   46.8570 O   0  0  0  0  0  0  0  0  0  0  0  0
   45.3400   54.0694   47.4573 H   0  0  0  0  0  0  0  0  0  0  0  0
   43.9279   52.6717   45.6822 C   0  0  0  0  0  0  0  0  0  0  0  0
   43.5197   51.5582   44.9073 O   0  0  0  0  0  0  0  0  0  0  0  0
   44.2069   51.3482   44.2558 H   0  0  0  0  0  0  0  0  0  0  0  0
 14  1  1  0  0  0
 14 15  2  0  0  0
 14 16  1  0  0  0
  1  2  2  0  0  0
  1  7  1  0  0  0
  2  3  1  0  0  0
  3  4  1  0  0  0
  3  6  1  0  0  0
  4  5  1  0  0  0
  4 11  1  0  0  0
  5 18  1  0  0  0
  5  7  1  0  0  0
 18 21  1  0  0  0
 18 19  1  0  0  0
 21 24  1  0  0  0
 21 22  1  0  0  0
 24 25  1  0  0  0
  9 10  1  0  0  0
  9 11  1  0  0  0
  9 12  2  0  0  0
 11 13  1  0  0  0
 16 17  1  0  0  0
  6  8  1  0  0  0
 19 20  1  0  0  0
 22 23  1  0  0  0
 25 26  1  0  0  0
M  END
> <minimizedAffinity>
-6.86842

$$$$
2SIM_DAN_A_800


 26 26  0  0  0  0  0  0  0  0999 V2000
   43.9180   51.6799   47.4384 C   0  0  0  0  0  0  0  0  0  0  0  0
   45.2472   51.7763   47.0012 C   0  0  0  0  0  0  0  0  0  0  0  0
   46.3934   51.3318   47.9022 C   0  0  0  0  0  0  0  0  0  0  0  0
   45.8788   50.3414   48.9569 C   0  0  0  0  0  0  0  0  0  0  0  0
   44.6721   50.9921   49.6592 C   0  0  0  0  0  0  0  0  0  0  0  0
   47.4580   50.7022   47.1953 O   0  0  0  0  0  0  0  0  0  0  0  0
   43.6323   51.1842   48.6976 O   0  0  0  0  0  0  0  0  0  0  0  0
   47.1330   49.8887   46.7789 H   0  0  0  0  0  0  0  0  0  0  0  0
   47.3407   48.7961   50.1652 C   0  0  0  0  0  0  0  0  0  0  0  0
   48.6299   48.6348   50.9691 C   0  0  0  0  0  0  0  0  0  0  0  0
   46.9909   50.0391   49.8414 N   0  0  0  0  0  0  0  0  0  0  0  0
   46.6001   47.8303   49.9158 O   0  0  0  0  0  0  0  0  0  0  0  0
   47.5088   50.7868   50.2182 H   0  0  0  0  0  0  0  0  0  0  0  0
   42.9095   52.3385   46.7191 C   0  0  0  0  0  0  0  0  0  0  0  0
   42.5387   52.0143   45.5909 O   0  0  0  0  0  0  0  0  0  0  0  0
   42.3741   53.3374   47.2163 O   0  0  0  0  0  0  0  0  0  0  0  0
   42.6223   53.6244   48.0730 H   0  0  0  0  0  0  0  0  0  0  0  0
   44.0876   50.1199   50.7483 C   0  0  0  0  0  0  0  0  0  0  0  0
   43.5945   48.9502   50.1116 O   0  0  0  0  0  0  0  0  0  0  0  0
   42.9440   49.1994   49.4366 H   0  0  0  0  0  0  0  0  0  0  0  0
   42.9732   50.9191   51.4617 C   0  0  0  0  0  0  0  0  0  0  0  0
   43.4039   52.2895   51.6251 O   0  0  0  0  0  0  0  0  0  0  0  0
   44.2151   52.3123   52.1565 H   0  0  0  0  0  0  0  0  0  0  0  0
   42.6571   50.2629   52.8425 C   0  0  0  0  0  0  0  0  0  0  0  0
   43.3112   49.0120   52.9632 O   0  0  0  0  0  0  0  0  0  0  0  0
   43.0017   48.4164   52.2630 H   0  0  0  0  0  0  0  0  0  0  0  0
 14  1  1  0  0  0
 14 15  2  0  0  0
 14 16  1  0  0  0
  1  2  2  0  0  0
  1  7  1  0  0  0
  2  3  1  0  0  0
  3  4  1  0  0  0
  3  6  1  0  0  0
  4  5  1  0  0  0
  4 11  1  0  0  0
  5 18  1  0  0  0
  5  7  1  0  0  0
 18 21  1  0  0  0
 18 19  1  0  0  0
 21 24  1  0  0  0
 21 22  1  0  0  0
 24 25  1  0  0  0
  9 10  1  0  0  0
  9 11  1  0  0  0
  9 12  2  0  0  0
 11 13  1  0  0  0
 16 17  1  0  0  0
  6  8  1  0  0  0
 19 20  1  0  0  0
 22 23  1  0  0  0
 25 26  1  0  0  0
M  END
> <minimizedAffinity>
-6.84857

$$$$
2SIM_DAN_A_800


 26 26  0  0  0  0  0  0  0  0999 V2000
   45.2431   48.8999   50.0533 C   0  0  0  0  0  0  0  0  0  0  0  0
   46.3847   48.2355   49.5816 C   0  0  0  0  0  0  0  0  0  0  0  0
   47.2560   48.8644   48.5007 C   0  0  0  0  0  0  0  0  0  0  0  0
   47.0426   50.3849   48.4725 C   0  0  0  0  0  0  0  0  0  0  0  0
   45.5278   50.6418   48.3626 C   0  0  0  0  0  0  0  0  0  0  0  0
   48.6480   48.6226   48.6836 O   0  0  0  0  0  0  0  0  0  0  0  0
   44.8914   50.1340   49.5374 O   0  0  0  0  0  0  0  0  0  0  0  0
   48.9406   49.0302   49.5138 H   0  0  0  0  0  0  0  0  0  0  0  0
   48.7507   51.8452   47.5058 C   0  0  0  0  0  0  0  0  0  0  0  0
   49.5929   52.1706   46.2733 C   0  0  0  0  0  0  0  0  0  0  0  0
   47.8175   50.9070   47.3602 N   0  0  0  0  0  0  0  0  0  0  0  0
   48.8567   52.4935   48.5603 O   0  0  0  0  0  0  0  0  0  0  0  0
   47.6449   50.5513   46.4586 H   0  0  0  0  0  0  0  0  0  0  0  0
   44.3143   48.1974   50.8358 C   0  0  0  0  0  0  0  0  0  0  0  0
   43.8189   48.6286   51.8769 O   0  0  0  0  0  0  0  0  0  0  0  0
   43.9902   47.0522   50.4967 O   0  0  0  0  0  0  0  0  0  0  0  0
   44.3406   46.6792   49.7118 H   0  0  0  0  0  0  0  0  0  0  0  0
   45.1865   52.1141   48.2974 C   0  0  0  0  0  0  0  0  0  0  0  0
   44.8783   52.5192   49.6231 O   0  0  0  0  0  0  0  0  0  0  0  0
   44.1506   51.9770   49.9659 H   0  0  0  0  0  0  0  0  0  0  0  0
   43.9918   52.2911   47.3323 C   0  0  0  0  0  0  0  0  0  0  0  0
   43.1253   51.1384   47.4354 O   0  0  0  0  0  0  0  0  0  0  0  0
   43.6214   50.3389   47.1996 H   0  0  0  0  0  0  0  0  0  0  0  0
   44.5167   52.4688   45.8729 C   0  0  0  0  0  0  0  0  0  0  0  0
   43.8631   51.5709   44.9934 O   0  0  0  0  0  0  0  0  0  0  0  0
   44.0388   50.6588   45.2732 H   0  0  0  0  0  0  0  0  0  0  0  0
 14  1  1  0  0  0
 14 15  2  0  0  0
 14 16  1  0  0  0
  1  2  2  0  0  0
  1  7  1  0  0  0
  2  3  1  0  0  0
  3  4  1  0  0  0
  3  6  1  0  0  0
  4  5  1  0  0  0
  4 11  1  0  0  0
  5 18  1  0  0  0
  5  7  1  0  0  0
 18 21  1  0  0  0
 18 19  1  0  0  0
 21 24  1  0  0  0
 21 22  1  0  0  0
 24 25  1  0  0  0
  9 10  1  0  0  0
  9 11  1  0  0  0
  9 12  2  0  0  0
 11 13  1  0  0  0
 16 17  1  0  0  0
  6  8  1  0  0  0
 19 20  1  0  0  0
 22 23  1  0  0  0
 25 26  1  0  0  0
M  END
> <minimizedAffinity>
-6.63412

$$$$
2SIM_DAN_A_800


 26 26  0  0  0  0  0  0  0  0999 V2000
   44.4362   52.0693   46.6204 C   0  0  0  0  0  0  0  0  0  0  0  0
   45.4401   52.9669   46.2283 C   0  0  0  0  0  0  0  0  0  0  0  0
   46.8475   52.8543   46.8024 C   0  0  0  0  0  0  0  0  0  0  0  0
   47.0889   51.4312   47.3264 C   0  0  0  0  0  0  0  0  0  0  0  0
   45.9324   51.0833   48.2826 C   0  0  0  0  0  0  0  0  0  0  0  0
   47.8704   53.1501   45.8560 O   0  0  0  0  0  0  0  0  0  0  0  0
   44.7118   51.0728   47.5392 O   0  0  0  0  0  0  0  0  0  0  0  0
   47.8391   52.5036   45.1335 H   0  0  0  0  0  0  0  0  0  0  0  0
   49.3385   50.5245   47.6457 C   0  0  0  0  0  0  0  0  0  0  0  0
   50.7194   50.7430   48.2619 C   0  0  0  0  0  0  0  0  0  0  0  0
   48.4010   51.4196   47.9497 N   0  0  0  0  0  0  0  0  0  0  0  0
   49.0719   49.5094   46.9811 O   0  0  0  0  0  0  0  0  0  0  0  0
   48.6061   52.1040   48.6271 H   0  0  0  0  0  0  0  0  0  0  0  0
   43.0998   52.3511   46.2995 C   0  0  0  0  0  0  0  0  0  0  0  0
   42.3072   52.9068   47.0599 O   0  0  0  0  0  0  0  0  0  0  0  0
   42.6584   51.9890   45.2015 O   0  0  0  0  0  0  0  0  0  0  0  0
   43.2226   51.5614   44.5877 H   0  0  0  0  0  0  0  0  0  0  0  0
   46.0704   49.7055   48.8920 C   0  0  0  0  0  0  0  0  0  0  0  0
   46.2670   48.8020   47.8142 O   0  0  0  0  0  0  0  0  0  0  0  0
   45.5226   48.8694   47.1959 H   0  0  0  0  0  0  0  0  0  0  0  0
   44.7836   49.3999   49.6923 C   0  0  0  0  0  0  0  0  0  0  0  0
   44.4740   50.5293   50.5402 O   0  0  0  0  0  0  0  0  0  0  0  0
   45.2107   50.6862   51.1515 H   0  0  0  0  0  0  0  0  0  0  0  0
   44.9858   48.1033   50.5379 C   0  0  0  0  0  0  0  0  0  0  0  0
   43.8510   47.2608   50.4410 O   0  0  0  0  0  0  0  0  0  0  0  0
   43.0713   47.7284   50.7790 H   0  0  0  0  0  0  0  0  0  0  0  0
 14  1  1  0  0  0
 14 15  2  0  0  0
 14 16  1  0  0  0
  1  2  2  0  0  0
  1  7  1  0  0  0
  2  3  1  0  0  0
  3  4  1  0  0  0
  3  6  1  0  0  0
  4  5  1  0  0  0
  4 11  1  0  0  0
  5 18  1  0  0  0
  5  7  1  0  0  0
 18 21  1  0  0  0
 18 19  1  0  0  0
 21 24  1  0  0  0
 21 22  1  0  0  0
 24 25  1  0  0  0
  9 10  1  0  0  0
  9 11  1  0  0  0
  9 12  2  0  0  0
 11 13  1  0  0  0
 16 17  1  0  0  0
  6  8  1  0  0  0
 19 20  1  0  0  0
 22 23  1  0  0  0
 25 26  1  0  0  0
M  END
> <minimizedAffinity>
-6.62121

$$$$
2SIM_DAN_A_800


 26 26  0  0  0  0  0  0  0  0999 V2000
   42.6979   50.9642   48.9974 C   0  0  0  0  0  0  0  0  0  0  0  0
   43.5877   50.6165   50.0243 C   0  0  0  0  0  0  0  0  0  0  0  0
   45.0351   51.0932   49.9899 C   0  0  0  0  0  0  0  0  0  0  0  0
   45.1577   52.3361   49.0963 C   0  0  0  0  0  0  0  0  0  0  0  0
   44.5183   51.9984   47.7363 C   0  0  0  0  0  0  0  0  0  0  0  0
   45.5520   51.4269   51.2747 O   0  0  0  0  0  0  0  0  0  0  0  0
   43.1267   51.7410   47.9364 O   0  0  0  0  0  0  0  0  0  0  0  0
   45.0491   52.1704   51.6424 H   0  0  0  0  0  0  0  0  0  0  0  0
   47.0805   53.7655   49.5909 C   0  0  0  0  0  0  0  0  0  0  0  0
   48.6024   53.8982   49.5692 C   0  0  0  0  0  0  0  0  0  0  0  0
   46.5683   52.6755   49.0235 N   0  0  0  0  0  0  0  0  0  0  0  0
   46.3506   54.6746   50.0203 O   0  0  0  0  0  0  0  0  0  0  0  0
   47.1724   52.0727   48.5327 H   0  0  0  0  0  0  0  0  0  0  0  0
   41.4656   50.3004   48.9030 C   0  0  0  0  0  0  0  0  0  0  0  0
   40.3740   50.8352   49.0973 O   0  0  0  0  0  0  0  0  0  0  0  0
   41.4557   49.0891   48.6496 O   0  0  0  0  0  0  0  0  0  0  0  0
   42.2612   48.6364   48.4940 H   0  0  0  0  0  0  0  0  0  0  0  0
   44.6011   53.1423   46.7497 C   0  0  0  0  0  0  0  0  0  0  0  0
   44.4652   54.3389   47.5023 O   0  0  0  0  0  0  0  0  0  0  0  0
   43.6272   54.3203   47.9905 H   0  0  0  0  0  0  0  0  0  0  0  0
   43.4710   52.9664   45.7097 C   0  0  0  0  0  0  0  0  0  0  0  0
   43.7220   51.7715   44.9354 O   0  0  0  0  0  0  0  0  0  0  0  0
   44.5753   51.8536   44.4815 H   0  0  0  0  0  0  0  0  0  0  0  0
   43.4023   54.2258   44.7898 C   0  0  0  0  0  0  0  0  0  0  0  0
   42.1826   54.2534   44.0697 O   0  0  0  0  0  0  0  0  0  0  0  0
   42.1187   53.4626   43.5116 H   0  0  0  0  0  0  0  0  0  0  0  0
 14  1  1  0  0  0
 14 15  2  0  0  0
 14 16  1  0  0  0
  1  2  2  0  0  0
  1  7  1  0  0  0
  2  3  1  0  0  0
  3  4  1  0  0  0
  3  6  1  0  0  0
  4  5  1  0  0  0
  4 11  1  0  0  0
  5 18  1  0  0  0
  5  7  1  0  0  0
 18 21  1  0  0  0
 18 19  1  0  0  0
 21 24  1  0  0  0
 21 22  1  0  0  0
 24 25  1  0  0  0
  9 10  1  0  0  0
  9 11  1  0  0  0
  9 12  2  0  0  0
 11 13  1  0  0  0
 16 17  1  0  0  0
  6  8  1  0  0  0
 19 20  1  0  0  0
 22 23  1  0  0  0
 25 26  1  0  0  0
M  END
> <minimizedAffinity>
-6.50450

$$$$
2SIM_DAN_A_800


 26 26  0  0  0  0  0  0  0  0999 V2000
   43.6214   50.4546   50.4119 C   0  0  0  0  0  0  0  0  0  0  0  0
   44.3451   49.2874   50.6962 C   0  0  0  0  0  0  0  0  0  0  0  0
   45.5042   48.8578   49.8045 C   0  0  0  0  0  0  0  0  0  0  0  0
   46.0453   50.0668   49.0275 C   0  0  0  0  0  0  0  0  0  0  0  0
   44.8533   50.7388   48.3202 C   0  0  0  0  0  0  0  0  0  0  0  0
   46.5894   48.2812   50.5250 O   0  0  0  0  0  0  0  0  0  0  0  0
   43.9490   51.2279   49.3130 O   0  0  0  0  0  0  0  0  0  0  0  0
   46.9649   48.9420   51.1277 H   0  0  0  0  0  0  0  0  0  0  0  0
   48.2890   50.1083   48.0535 C   0  0  0  0  0  0  0  0  0  0  0  0
   49.3077   49.3768   47.1808 C   0  0  0  0  0  0  0  0  0  0  0  0
   47.0720   49.5737   48.1258 N   0  0  0  0  0  0  0  0  0  0  0  0
   48.5476   51.2014   48.5843 O   0  0  0  0  0  0  0  0  0  0  0  0
   46.8583   48.8101   47.5422 H   0  0  0  0  0  0  0  0  0  0  0  0
   42.4038   50.6847   51.0700 C   0  0  0  0  0  0  0  0  0  0  0  0
   42.1354   50.2669   52.1963 O   0  0  0  0  0  0  0  0  0  0  0  0
   41.5137   51.3108   50.4808 O   0  0  0  0  0  0  0  0  0  0  0  0
   41.6694   51.6492   49.6210 H   0  0  0  0  0  0  0  0  0  0  0  0
   45.2629   51.9365   47.4918 C   0  0  0  0  0  0  0  0  0  0  0  0
   45.2405   53.0591   48.3612 O   0  0  0  0  0  0  0  0  0  0  0  0
   44.3555   53.1512   48.7476 H   0  0  0  0  0  0  0  0  0  0  0  0
   44.2656   52.0770   46.3190 C   0  0  0  0  0  0  0  0  0  0  0  0
   45.0037   52.2541   45.0885 O   0  0  0  0  0  0  0  0  0  0  0  0
   45.5503   53.0530   45.1514 H   0  0  0  0  0  0  0  0  0  0  0  0
   43.3137   53.2865   46.5803 C   0  0  0  0  0  0  0  0  0  0  0  0
   42.2544   52.9120   47.4432 O   0  0  0  0  0  0  0  0  0  0  0  0
   41.7393   52.1999   47.0327 H   0  0  0  0  0  0  0  0  0  0  0  0
 14  1  1  0  0  0
 14 15  2  0  0  0
 14 16  1  0  0  0
  1  2  2  0  0  0
  1  7  1  0  0  0
  2  3  1  0  0  0
  3  4  1  0  0  0
  3  6  1  0  0  0
  4  5  1  0  0  0
  4 11  1  0  0  0
  5 18  1  0  0  0
  5  7  1  0  0  0
 18 21  1  0  0  0
 18 19  1  0  0  0
 21 24  1  0  0  0
 21 22  1  0  0  0
 24 25  1  0  0  0
  9 10  1  0  0  0
  9 11  1  0  0  0
  9 12  2  0  0  0
 11 13  1  0  0  0
 16 17  1  0  0  0
  6  8  1  0  0  0
 19 20  1  0  0  0
 22 23  1  0  0  0
 25 26  1  0  0  0
M  END
> <minimizedAffinity>
-6.46067

$$$$
2SIM_DAN_A_800


 26 26  0  0  0  0  0  0  0  0999 V2000
   43.0476   50.8590   48.2421 C   0  0  0  0  0  0  0  0  0  0  0  0
   43.5445   51.6799   47.2191 C   0  0  0  0  0  0  0  0  0  0  0  0
   44.9928   52.1543   47.2409 C   0  0  0  0  0  0  0  0  0  0  0  0
   45.8402   51.2150   48.1114 C   0  0  0  0  0  0  0  0  0  0  0  0
   45.1429   51.0901   49.4792 C   0  0  0  0  0  0  0  0  0  0  0  0
   45.5902   52.2089   45.9488 O   0  0  0  0  0  0  0  0  0  0  0  0
   43.8673   50.4744   49.2876 O   0  0  0  0  0  0  0  0  0  0  0  0
   45.6215   51.3169   45.5691 H   0  0  0  0  0  0  0  0  0  0  0  0
   48.2214   51.2345   47.5507 C   0  0  0  0  0  0  0  0  0  0  0  0
   49.5246   52.0317   47.5745 C   0  0  0  0  0  0  0  0  0  0  0  0
   47.1781   51.7777   48.1742 N   0  0  0  0  0  0  0  0  0  0  0  0
   48.1624   50.0915   47.0673 O   0  0  0  0  0  0  0  0  0  0  0  0
   47.3195   52.5972   48.7012 H   0  0  0  0  0  0  0  0  0  0  0  0
   41.6630   50.6611   48.3519 C   0  0  0  0  0  0  0  0  0  0  0  0
   41.1384   49.5899   48.6562 O   0  0  0  0  0  0  0  0  0  0  0  0
   40.9012   51.6005   48.0899 O   0  0  0  0  0  0  0  0  0  0  0  0
   41.2523   52.4362   47.8527 H   0  0  0  0  0  0  0  0  0  0  0  0
   45.9007   50.2057   50.4446 C   0  0  0  0  0  0  0  0  0  0  0  0
   47.0534   50.9330   50.8431 O   0  0  0  0  0  0  0  0  0  0  0  0
   47.5733   51.1698   50.0592 H   0  0  0  0  0  0  0  0  0  0  0  0
   46.2550   48.8885   49.7173 C   0  0  0  0  0  0  0  0  0  0  0  0
   45.2544   47.8922   50.0281 O   0  0  0  0  0  0  0  0  0  0  0  0
   45.2341   47.7423   50.9863 H   0  0  0  0  0  0  0  0  0  0  0  0
   47.6754   48.4116   50.1554 C   0  0  0  0  0  0  0  0  0  0  0  0
   48.4187   47.9603   49.0368 O   0  0  0  0  0  0  0  0  0  0  0  0
   47.9588   47.2132   48.6232 H   0  0  0  0  0  0  0  0  0  0  0  0
 14  1  1  0  0  0
 14 15  2  0  0  0
 14 16  1  0  0  0
  1  2  2  0  0  0
  1  7  1  0  0  0
  2  3  1  0  0  0
  3  4  1  0  0  0
  3  6  1  0  0  0
  4  5  1  0  0  0
  4 11  1  0  0  0
  5 18  1  0  0  0
  5  7  1  0  0  0
 18 21  1  0  0  0
 18 19  1  0  0  0
 21 24  1  0  0  0
 21 22  1  0  0  0
 24 25  1  0  0  0
  9 10  1  0  0  0
  9 11  1  0  0  0
  9 12  2  0  0  0
 11 13  1  0  0  0
 16 17  1  0  0  0
  6  8  1  0  0  0
 19 20  1  0  0  0
 22 23  1  0  0  0
 25 26  1  0  0  0
M  END
> <minimizedAffinity>
-6.38104

$$$$
2SIM_DAN_A_800


 26 26  0  0  0  0  0  0  0  0999 V2000
   46.9289   49.4772   49.1740 C   0  0  0  0  0  0  0  0  0  0  0  0
   47.8556   50.0732   48.3061 C   0  0  0  0  0  0  0  0  0  0  0  0
   47.4552   51.2655   47.4451 C   0  0  0  0  0  0  0  0  0  0  0  0
   46.2373   51.9713   48.0590 C   0  0  0  0  0  0  0  0  0  0  0  0
   45.1506   50.9059   48.2964 C   0  0  0  0  0  0  0  0  0  0  0  0
   48.4916   52.2318   47.2988 O   0  0  0  0  0  0  0  0  0  0  0  0
   45.6363   49.9627   49.2541 O   0  0  0  0  0  0  0  0  0  0  0  0
   48.7083   52.6074   48.1665 H   0  0  0  0  0  0  0  0  0  0  0  0
   45.7412   54.3031   47.5096 C   0  0  0  0  0  0  0  0  0  0  0  0
   45.4822   55.3175   46.3968 C   0  0  0  0  0  0  0  0  0  0  0  0
   45.8455   53.0278   47.1420 N   0  0  0  0  0  0  0  0  0  0  0  0
   45.7493   54.6335   48.7071 O   0  0  0  0  0  0  0  0  0  0  0  0
   45.6484   52.7900   46.2072 H   0  0  0  0  0  0  0  0  0  0  0  0
   47.2264   48.2305   49.7447 C   0  0  0  0  0  0  0  0  0  0  0  0
   47.5733   48.0694   50.9147 O   0  0  0  0  0  0  0  0  0  0  0  0
   47.1833   47.2199   49.0317 O   0  0  0  0  0  0  0  0  0  0  0  0
   46.9251   47.2907   48.1338 H   0  0  0  0  0  0  0  0  0  0  0  0
   43.8794   51.4848   48.8774 C   0  0  0  0  0  0  0  0  0  0  0  0
   44.2702   52.3264   49.9524 O   0  0  0  0  0  0  0  0  0  0  0  0
   44.7806   51.8118   50.5969 H   0  0  0  0  0  0  0  0  0  0  0  0
   42.9820   50.3139   49.3395 C   0  0  0  0  0  0  0  0  0  0  0  0
   42.3254   49.7377   48.1875 O   0  0  0  0  0  0  0  0  0  0  0  0
   41.7832   50.4141   47.7524 H   0  0  0  0  0  0  0  0  0  0  0  0
   41.9384   50.8299   50.3794 C   0  0  0  0  0  0  0  0  0  0  0  0
   40.6637   50.9759   49.7787 O   0  0  0  0  0  0  0  0  0  0  0  0
   40.7191   51.6195   49.0551 H   0  0  0  0  0  0  0  0  0  0  0  0
 14  1  1  0  0  0
 14 15  2  0  0  0
 14 16  1  0  0  0
  1  2  2  0  0  0
  1  7  1  0  0  0
  2  3  1  0  0  0
  3  4  1  0  0  0
  3  6  1  0  0  0
  4  5  1  0  0  0
  4 11  1  0  0  0
  5 18  1  0  0  0
  5  7  1  0  0  0
 18 21  1  0  0  0
 18 19  1  0  0  0
 21 24  1  0  0  0
 21 22  1  0  0  0
 24 25  1  0  0  0
  9 10  1  0  0  0
  9 11  1  0  0  0
  9 12  2  0  0  0
 11 13  1  0  0  0
 16 17  1  0  0  0
  6  8  1  0  0  0
 19 20  1  0  0  0
 22 23  1  0  0  0
 25 26  1  0  0  0
M  END
> <minimizedAffinity>
-6.19432

$$$$
