2SIM_DAN_A_800
  RCSB PDB12061706583D
Coordinates from PDB:2SIM:A:800 Model:1 without hydrogens
 20 20  0  0  0  0            999 V2000
   43.1440   51.8930   45.7220   C 0  0  0  0  0  0  0  0  0  0  0  0
   42.9540   51.5700   47.0740   C 0  0  0  0  0  0  0  0  0  0  0  0
   41.6990   51.1110   47.5000   C 0  0  0  0  0  0  0  0  0  0  0  0
   41.5320   50.4770   48.8760   C 0  0  0  0  0  0  0  0  0  0  0  0
   42.6710   50.9260   49.8030   C 0  0  0  0  0  0  0  0  0  0  0  0
   44.0010   50.6440   49.0790   C 0  0  0  0  0  0  0  0  0  0  0  0
   45.2100   51.0200   49.9070   C 0  0  0  0  0  0  0  0  0  0  0  0
   46.4760   50.7660   49.0570   C 0  0  0  0  0  0  0  0  0  0  0  0
   47.7450   51.1770   49.8680   C 0  0  0  0  0  0  0  0  0  0  0  0
   42.7660   50.7610   52.2420   C 0  0  0  0  0  0  0  0  0  0  0  0
   42.3930   49.9380   53.4740   C 0  0  0  0  0  0  0  0  0  0  0  0
   42.5120   50.2100   51.0570   N 0  0  0  0  0  0  0  0  0  0  0  0
   42.2370   52.2040   44.9500   O 0  0  0  0  0  0  0  0  0  0  0  0
   44.2840   51.8270   45.2450   O 0  0  0  0  0  0  0  0  0  0  0  0
   40.2990   50.8100   49.5070   O 0  0  0  0  0  0  0  0  0  0  0  0
   44.0580   51.4470   47.8980   O 0  0  0  0  0  0  0  0  0  0  0  0
   45.0550   52.3880   50.2550   O 0  0  0  0  0  0  0  0  0  0  0  0
   46.5260   49.3690   48.6880   O 0  0  0  0  0  0  0  0  0  0  0  0
   47.8820   50.3710   51.0250   O 0  0  0  0  0  0  0  0  0  0  0  0
   43.3710   51.8420   52.3360   O 0  0  0  0  0  0  0  0  0  0  0  0
  1  2  1  0  0  0  0
  1 13  2  0  0  0  0
  1 14  1  0  0  0  0
  2  3  2  0  0  0  0
  2 16  1  0  0  0  0
  3  4  1  0  0  0  0
  4  5  1  0  0  0  0
  4 15  1  0  0  0  0
  5  6  1  0  0  0  0
  5 12  1  0  0  0  0
  6  7  1  0  0  0  0
  6 16  1  0  0  0  0
  7  8  1  0  0  0  0
  7 17  1  0  0  0  0
  8  9  1  0  0  0  0
  8 18  1  0  0  0  0
  9 19  1  0  0  0  0
 10 11  1  0  0  0  0
 10 12  1  0  0  0  0
 10 20  2  0  0  0  0
A    1
C1
A    2
C2
A    3
C3
A    4
C4
A    5
C5
A    6
C6
A    7
C7
A    8
C8
A    9
C9
A   10
C10
A   11
C11
A   12
N5
A   13
O1A
A   14
O1B
A   15
O4
A   16
O6
A   17
O7
A   18
O8
A   19
O9
A   20
O10
M  END
>  <InstanceId>
2SIM_DAN_A_800

>  <ChemCompId>
DAN

>  <PdbId>
2SIM

>  <ChainId>
A

>  <ResidueNumber>
800

>  <InsertionCode>


>  <Model>
1

>  <AltIds>


>  <MissingHeavyAtoms>
0

>  <ObservedFormula>
C11 N O8

>  <Name>
2-DEOXY-2,3-DEHYDRO-N-ACETYL-NEURAMINIC ACID

>  <SystematicName>
(4S,5R,6R)-5-acetamido-4-hydroxy-6-[(1R,2R)-1,2,3-trihydroxypropyl]-5,6-dihydro-4H-pyran-2-carboxylic acid

>  <Synonyms>


>  <Type>
NON-POLYMER

>  <Formula>
C11 H17 N O8

>  <MolecularWeight>
291.255

>  <ModifiedDate>
2011-06-04

>  <Parent>


>  <OneLetterCode>


>  <SubcomponentList>


>  <AmbiguousFlag>
N

>  <InChI>
InChI=1S/C11H17NO8/c1-4(14)12-8-5(15)2-7(11(18)19)20-10(8)9(17)6(16)3-13/h2,5-6,8-10,13,15-17H,3H2,1H3,(H,12,14)(H,18,19)/t5-,6+,8+,9+,10+/m0/s1

>  <InChIKey>
JINJZWSZQKHCIP-UFGQHTETSA-N

>  <SMILES>
CC(=O)N[C@@H]1[C@H](C=C(O[C@H]1[C@@H]([C@@H](CO)O)O)C(=O)O)O

$$$$
