1ODJ_GMP_A_1237
  RCSB PDB12061703323D
Coordinates from PDB:1ODJ:A:1237 Model:1 without hydrogens
 20 22  0  0  0  0            999 V2000
   -0.9440  -80.5800 -147.7660   O 0  0  0  0  0  0  0  0  0  0  0  0
    0.2920  -81.2070 -147.4800   C 0  0  0  0  0  0  0  0  0  0  0  0
    1.3310  -80.2020 -147.9780   C 0  0  0  0  0  0  0  0  0  0  0  0
    1.2970  -78.8900 -147.3070   O 0  0  0  0  0  0  0  0  0  0  0  0
    2.7630  -80.6770 -147.7670   C 0  0  0  0  0  0  0  0  0  0  0  0
    3.4690  -80.3250 -148.9910   O 0  0  0  0  0  0  0  0  0  0  0  0
    3.3170  -79.9050 -146.5450   C 0  0  0  0  0  0  0  0  0  0  0  0
    4.5840  -79.2700 -146.7520   O 0  0  0  0  0  0  0  0  0  0  0  0
    2.1360  -78.9680 -146.1380   C 0  0  0  0  0  0  0  0  0  0  0  0
    1.3810  -79.3580 -144.8990   N 0  0  0  0  0  0  0  0  0  0  0  0
    0.3730  -78.6000 -144.3460   C 0  0  0  0  0  0  0  0  0  0  0  0
   -0.1430  -79.1270 -143.2740   N 0  0  0  0  0  0  0  0  0  0  0  0
    0.5570  -80.3140 -143.0910   C 0  0  0  0  0  0  0  0  0  0  0  0
    0.4250  -81.3130 -142.0760   C 0  0  0  0  0  0  0  0  0  0  0  0
   -0.3620  -81.3440 -141.1160   O 0  0  0  0  0  0  0  0  0  0  0  0
    1.3250  -82.3540 -142.2610   N 0  0  0  0  0  0  0  0  0  0  0  0
    2.2380  -82.4320 -143.2770   C 0  0  0  0  0  0  0  0  0  0  0  0
    3.0130  -83.5290 -143.2710   N 0  0  0  0  0  0  0  0  0  0  0  0
    2.3790  -81.5090 -144.2340   N 0  0  0  0  0  0  0  0  0  0  0  0
    1.5090  -80.4810 -144.0790   C 0  0  0  0  0  0  0  0  0  0  0  0
  1  2  1  0  0  0  0
  2  3  1  0  0  0  0
  3  4  1  0  0  0  0
  3  5  1  0  0  0  0
  4  9  1  0  0  0  0
  5  6  1  0  0  0  0
  5  7  1  0  0  0  0
  7  8  1  0  0  0  0
  7  9  1  0  0  0  0
  9 10  1  0  0  0  0
 10 11  1  0  0  0  0
 10 20  1  0  0  0  0
 11 12  2  0  0  0  0
 12 13  1  0  0  0  0
 13 14  1  0  0  0  0
 13 20  2  0  0  0  0
 14 15  2  0  0  0  0
 14 16  1  0  0  0  0
 16 17  1  0  0  0  0
 17 18  1  0  0  0  0
 17 19  2  0  0  0  0
 19 20  1  0  0  0  0
A    1
O5'
A    2
C5'
A    3
C4'
A    4
O4'
A    5
C3'
A    6
O3'
A    7
C2'
A    8
O2'
A    9
C1'
A   10
N9
A   11
C8
A   12
N7
A   13
C5
A   14
C6
A   15
O6
A   16
N1
A   17
C2
A   18
N2
A   19
N3
A   20
C4
M  END
>  <InstanceId>
1ODJ_GMP_A_1237

>  <ChemCompId>
GMP

>  <PdbId>
1ODJ

>  <ChainId>
A

>  <ResidueNumber>
1237

>  <InsertionCode>


>  <Model>
1

>  <AltIds>


>  <MissingHeavyAtoms>
0

>  <ObservedFormula>
C10 N5 O5

>  <Name>
GUANOSINE

>  <SystematicName>
2-amino-9-[(2R,3R,4S,5R)-3,4-dihydroxy-5-(hydroxymethyl)oxolan-2-yl]-1H-purin-6-one

>  <Synonyms>


>  <Type>
NON-POLYMER

>  <Formula>
C10 H13 N5 O5

>  <MolecularWeight>
283.241

>  <ModifiedDate>
2012-01-05

>  <Parent>


>  <OneLetterCode>


>  <SubcomponentList>


>  <AmbiguousFlag>
N

>  <InChI>
InChI=1S/C10H13N5O5/c11-10-13-7-4(8(19)14-10)12-2-15(7)9-6(18)5(17)3(1-16)20-9/h2-3,5-6,9,16-18H,1H2,(H3,11,13,14,19)/t3-,5-,6-,9-/m1/s1

>  <InChIKey>
NYHBQMYGNKIUIF-UUOKFMHZSA-N

>  <SMILES>
c1nc2c(n1[C@H]3[C@@H]([C@@H]([C@H](O3)CO)O)O)N=C(NC2=O)N

$$$$
