3IPQ_965_A_801
  RCSB PDB12061709063D
Coordinates from PDB:3IPQ:A:801 Model:1 without hydrogens
 41 44  0  0  0  0            999 V2000
   50.1600   16.4090   -5.4030   O 0  0  0  0  0  0  0  0  0  0  0  0
   50.4010   16.3250   -4.1820   C 0  0  0  0  0  0  0  0  0  0  0  0
   51.5110   16.5760   -3.7340   O 0  0  0  0  0  0  0  0  0  0  0  0
   49.3570   15.8960   -3.1690   C 0  0  0  0  0  0  0  0  0  0  0  0
   47.9990   16.4340   -3.5080   C 0  0  0  0  0  0  0  0  0  0  0  0
   47.7650   17.8060   -3.4510   C 0  0  0  0  0  0  0  0  0  0  0  0
   46.5030   18.2950   -3.7660   C 0  0  0  0  0  0  0  0  0  0  0  0
   45.4640   17.4320   -4.0960   C 0  0  0  0  0  0  0  0  0  0  0  0
   45.7200   16.0440   -4.1660   C 0  0  0  0  0  0  0  0  0  0  0  0
   44.7580   15.1300   -4.4810   O 0  0  0  0  0  0  0  0  0  0  0  0
   43.4280   15.4160   -4.9060   C 0  0  0  0  0  0  0  0  0  0  0  0
   42.9020   14.2790   -5.7560   C 0  0  0  0  0  0  0  0  0  0  0  0
   41.8150   14.7240   -6.7210   C 0  0  0  0  0  0  0  0  0  0  0  0
   40.5000   14.9460   -6.1380   N 0  0  0  0  0  0  0  0  0  0  0  0
   40.0890   14.2170   -4.9240   C 0  0  0  0  0  0  0  0  0  0  0  0
   38.9910   14.8350   -4.0880   C 0  0  0  0  0  0  0  0  0  0  0  0
   39.2840   16.0210   -3.4390   C 0  0  0  0  0  0  0  0  0  0  0  0
   38.3200   16.6180   -2.6630   C 0  0  0  0  0  0  0  0  0  0  0  0
   37.0720   16.0340   -2.5120   C 0  0  0  0  0  0  0  0  0  0  0  0
   36.7550   14.8450   -3.1620   C 0  0  0  0  0  0  0  0  0  0  0  0
   37.7360   14.2410   -3.9460   C 0  0  0  0  0  0  0  0  0  0  0  0
   37.3800   12.6770   -4.7710  Cl 0  0  0  0  0  0  0  0  0  0  0  0
   35.3790   14.2170   -2.9940   C 0  0  0  0  0  0  0  0  0  0  0  0
   35.5980   12.9670   -2.6130   F 0  0  0  0  0  0  0  0  0  0  0  0
   34.6470   14.8240   -2.0660   F 0  0  0  0  0  0  0  0  0  0  0  0
   34.6800   14.2580   -4.1380   F 0  0  0  0  0  0  0  0  0  0  0  0
   39.5430   15.7540   -6.9170   C 0  0  0  0  0  0  0  0  0  0  0  0
   40.1190   17.1340   -7.3490   C 0  0  0  0  0  0  0  0  0  0  0  0
   40.0100   18.1060   -6.2230   C 0  0  0  0  0  0  0  0  0  0  0  0
   41.1720   18.6150   -5.6670   C 0  0  0  0  0  0  0  0  0  0  0  0
   41.0810   19.5200   -4.6160   C 0  0  0  0  0  0  0  0  0  0  0  0
   39.8510   19.9130   -4.1140   C 0  0  0  0  0  0  0  0  0  0  0  0
   38.6900   19.4130   -4.6650   C 0  0  0  0  0  0  0  0  0  0  0  0
   38.7730   18.5110   -5.7300   C 0  0  0  0  0  0  0  0  0  0  0  0
   39.4520   17.6900   -8.5530   C 0  0  0  0  0  0  0  0  0  0  0  0
   40.2100   18.4840   -9.4100   C 0  0  0  0  0  0  0  0  0  0  0  0
   39.6510   19.0030  -10.5620   C 0  0  0  0  0  0  0  0  0  0  0  0
   38.3160   18.7660  -10.8600   C 0  0  0  0  0  0  0  0  0  0  0  0
   37.5510   17.9920  -10.0040   C 0  0  0  0  0  0  0  0  0  0  0  0
   38.1230   17.4390   -8.8560   C 0  0  0  0  0  0  0  0  0  0  0  0
   46.9690   15.5600   -3.8440   C 0  0  0  0  0  0  0  0  0  0  0  0
  1  2  1  0  0  0  0
  2  3  2  0  0  0  0
  2  4  1  0  0  0  0
  4  5  1  0  0  0  0
  5  6  2  0  0  0  0
  5 41  1  0  0  0  0
  6  7  1  0  0  0  0
  7  8  2  0  0  0  0
  8  9  1  0  0  0  0
  9 10  1  0  0  0  0
  9 41  2  0  0  0  0
 10 11  1  0  0  0  0
 11 12  1  0  0  0  0
 12 13  1  0  0  0  0
 13 14  1  0  0  0  0
 14 15  1  0  0  0  0
 14 27  1  0  0  0  0
 15 16  1  0  0  0  0
 16 17  2  0  0  0  0
 16 21  1  0  0  0  0
 17 18  1  0  0  0  0
 18 19  2  0  0  0  0
 19 20  1  0  0  0  0
 20 21  2  0  0  0  0
 20 23  1  0  0  0  0
 21 22  1  0  0  0  0
 23 24  1  0  0  0  0
 23 25  1  0  0  0  0
 23 26  1  0  0  0  0
 27 28  1  0  0  0  0
 28 29  1  0  0  0  0
 28 35  1  0  0  0  0
 29 30  2  0  0  0  0
 29 34  1  0  0  0  0
 30 31  1  0  0  0  0
 31 32  2  0  0  0  0
 32 33  1  0  0  0  0
 33 34  2  0  0  0  0
 35 36  1  0  0  0  0
 35 40  2  0  0  0  0
 36 37  2  0  0  0  0
 37 38  1  0  0  0  0
 38 39  2  0  0  0  0
 39 40  1  0  0  0  0
A    1
O37
A    2
C35
A    3
O36
A    4
C34
A    5
C32
A    6
C31
A    7
C30
A    8
C29
A    9
C28
A   10
O27
A   11
C26
A   12
C25
A   13
C17
A   14
N09
A   15
C16
A   16
C18
A   17
C23
A   18
C22
A   19
C21
A   20
C20
A   21
C19
A   22
CL4
A   23
C39
A   24
F41
A   25
F40
A   26
F42
A   27
C08
A   28
C07
A   29
C01
A   30
C02
A   31
C03
A   32
C04
A   33
C05
A   34
C06
A   35
C10
A   36
C15
A   37
C14
A   38
C13
A   39
C12
A   40
C11
A   41
C33
M  END
>  <InstanceId>
3IPQ_965_A_801

>  <ChemCompId>
965

>  <PdbId>
3IPQ

>  <ChainId>
A

>  <ResidueNumber>
801

>  <InsertionCode>


>  <Model>
1

>  <AltIds>


>  <MissingHeavyAtoms>
0

>  <ObservedFormula>
C33 N O3 F3 Cl

>  <Name>
[3-(3-{[2-chloro-3-(trifluoromethyl)benzyl](2,2-diphenylethyl)amino}propoxy)phenyl]acetic acid

>  <SystematicName>
2-[3-[3-[[2-chloro-3-(trifluoromethyl)phenyl]methyl-(2,2-diphenylethyl)amino]propoxy]phenyl]ethanoic acid

>  <Synonyms>


>  <Type>
NON-POLYMER

>  <Formula>
C33 H31 Cl F3 N O3

>  <MolecularWeight>
582.052

>  <ModifiedDate>
2011-06-04

>  <Parent>


>  <OneLetterCode>


>  <SubcomponentList>


>  <AmbiguousFlag>
N

>  <InChI>
InChI=1S/C33H31ClF3NO3/c34-32-27(15-8-17-30(32)33(35,36)37)22-38(18-9-19-41-28-16-7-10-24(20-28)21-31(39)40)23-29(25-11-3-1-4-12-25)26-13-5-2-6-14-26/h1-8,10-17,20,29H,9,18-19,21-23H2,(H,39,40)

>  <InChIKey>
NAXSRXHZFIBFMI-UHFFFAOYSA-N

>  <SMILES>
c1ccc(cc1)C(C[N@](CCCOc2cccc(c2)CC(=O)O)Cc3cccc(c3Cl)C(F)(F)F)c4ccccc4

$$$$
