6GFS_F15_A_201
  RCSB PDB06231805483D
Coordinates from PDB:6GFS:A:201 Model:1 without hydrogens
 17 16  0  0  0  0            999 V2000
    2.5620   -0.4540   56.7220   C 0  0  0  0  0  0  0  0  0  0  0  0
    1.7300   -0.1760   57.6270   O 0  0  0  0  0  0  0  0  0  0  0  0
    2.5170    0.0630   55.5770   O 0  0  0  0  0  0  0  0  0  0  0  0
    3.6410   -1.4810   57.0160   C 0  0  0  0  0  0  0  0  0  0  0  0
    5.0040   -1.1560   56.3990   C 0  0  0  0  0  0  0  0  0  0  0  0
    7.3750   -0.2960   56.7710   C 0  0  0  0  0  0  0  0  0  0  0  0
    8.1090   -1.6130   56.5410   C 0  0  0  0  0  0  0  0  0  0  0  0
    5.9920   -0.5210   57.3810   C 0  0  0  0  0  0  0  0  0  0  0  0
    9.4580   -1.3970   55.8830   C 0  0  0  0  0  0  0  0  0  0  0  0
   10.3210   -2.5870   56.2360   C 0  0  0  0  0  0  0  0  0  0  0  0
   11.6140   -2.5920   55.4610   C 0  0  0  0  0  0  0  0  0  0  0  0
   12.4220   -3.8410   55.7440   C 0  0  0  0  0  0  0  0  0  0  0  0
   13.7360   -3.6880   54.9970   C 0  0  0  0  0  0  0  0  0  0  0  0
   14.6170   -4.9060   55.1210   C 0  0  0  0  0  0  0  0  0  0  0  0
   15.6260   -4.7790   53.9970   C 0  0  0  0  0  0  0  0  0  0  0  0
   16.9590   -5.4010   54.3340   C 0  0  0  0  0  0  0  0  0  0  0  0
   17.8300   -5.2960   53.1090   C 0  0  0  0  0  0  0  0  0  0  0  0
  1  2  1  0  0  0  0
  1  3  2  0  0  0  0
  1  4  1  0  0  0  0
  4  5  1  0  0  0  0
  5  8  1  0  0  0  0
  6  7  1  0  0  0  0
  6  8  1  0  0  0  0
  7  9  1  0  0  0  0
  9 10  1  0  0  0  0
 10 11  1  0  0  0  0
 11 12  1  0  0  0  0
 12 13  1  0  0  0  0
 13 14  1  0  0  0  0
 14 15  1  0  0  0  0
 15 16  1  0  0  0  0
 16 17  1  0  0  0  0
A    1
C1
A    2
O2
A    3
O3
A    4
C4
A    5
C5
A    6
C6
A    7
C7
A    8
C8
A    9
C9
A   10
C10
A   11
C11
A   12
C12
A   13
C13
A   14
C2
A   15
C3
A   16
C14
A   17
C15
M  END
>  <InstanceId>
6GFS_F15_A_201

>  <ChemCompId>
F15

>  <PdbId>
6GFS

>  <ChainId>
A

>  <ResidueNumber>
201

>  <InsertionCode>


>  <Model>
1

>  <AltIds>


>  <MissingHeavyAtoms>
0

>  <ObservedFormula>
C15 O2

>  <Name>
PENTADECANOIC ACID

>  <SystematicName>
pentadecanoic acid

>  <Synonyms>


>  <Type>
NON-POLYMER

>  <Formula>
C15 H30 O2

>  <MolecularWeight>
242.397

>  <ModifiedDate>
2011-06-04

>  <Parent>


>  <OneLetterCode>


>  <SubcomponentList>


>  <AmbiguousFlag>
N

>  <InChI>
InChI=1S/C15H30O2/c1-2-3-4-5-6-7-8-9-10-11-12-13-14-15(16)17/h2-14H2,1H3,(H,16,17)

>  <InChIKey>
WQEPLUUGTLDZJY-UHFFFAOYSA-N

>  <SMILES>
CCCCCCCCCCCCCCC(=O)O

$$$$
