6GFS_F15_A_201


 18 17  0  0  0  0  0  0  0  0999 V2000
   10.1772   -3.0748   56.3260 C   0  0  0  0  0  0  0  0  0  0  0  0
   10.0107   -2.6020   54.8855 C   0  0  0  0  0  0  0  0  0  0  0  0
   10.2079   -1.0916   54.7620 C   0  0  0  0  0  0  0  0  0  0  0  0
    8.8879   -0.3161   54.7681 C   0  0  0  0  0  0  0  0  0  0  0  0
    8.6030    0.4100   56.0855 C   0  0  0  0  0  0  0  0  0  0  0  0
    9.0225    1.8692   56.0973 C   0  0  0  0  0  0  0  0  0  0  0  0
    8.2641    2.7114   56.6487 O   0  0  0  0  0  0  0  0  0  0  0  0
   10.0976    2.1925   55.5316 O   0  0  0  0  0  0  0  0  0  0  0  0
    7.4709    2.4290   57.0598 H   0  0  0  0  0  0  0  0  0  0  0  0
   11.6173   -3.4343   56.6364 C   0  0  0  0  0  0  0  0  0  0  0  0
   11.8041   -4.8869   56.2617 C   0  0  0  0  0  0  0  0  0  0  0  0
   13.1859   -5.1539   55.7216 C   0  0  0  0  0  0  0  0  0  0  0  0
   13.7676   -3.9217   55.0611 C   0  0  0  0  0  0  0  0  0  0  0  0
   15.0736   -4.3502   54.4139 C   0  0  0  0  0  0  0  0  0  0  0  0
   15.4654   -5.7599   54.7801 C   0  0  0  0  0  0  0  0  0  0  0  0
   16.9755   -5.7292   54.9075 C   0  0  0  0  0  0  0  0  0  0  0  0
   17.6388   -4.9266   53.8151 C   0  0  0  0  0  0  0  0  0  0  0  0
   18.2488   -5.9029   52.8430 C   0  0  0  0  0  0  0  0  0  0  0  0
  6  7  1  0  0  0
  6  8  2  0  0  0
  6  5  1  0  0  0
  5  4  1  0  0  0
  4  3  1  0  0  0
  2  1  1  0  0  0
  2  3  1  0  0  0
  1 10  1  0  0  0
 10 11  1  0  0  0
 11 12  1  0  0  0
 12 13  1  0  0  0
 13 14  1  0  0  0
 14 15  1  0  0  0
 15 16  1  0  0  0
 16 17  1  0  0  0
 17 18  1  0  0  0
  7  9  1  0  0  0
M  END
> <minimizedAffinity>
-6.70768

$$$$
6GFS_F15_A_201


 18 17  0  0  0  0  0  0  0  0999 V2000
    9.2939   -2.7508   54.9626 C   0  0  0  0  0  0  0  0  0  0  0  0
    8.0813   -1.9797   55.4736 C   0  0  0  0  0  0  0  0  0  0  0  0
    7.7105   -0.8292   54.5386 C   0  0  0  0  0  0  0  0  0  0  0  0
    7.5967    0.5144   55.2634 C   0  0  0  0  0  0  0  0  0  0  0  0
    8.4866    1.6123   54.6746 C   0  0  0  0  0  0  0  0  0  0  0  0
    9.7585    1.8738   55.4615 C   0  0  0  0  0  0  0  0  0  0  0  0
   10.8594    1.5071   54.9695 O   0  0  0  0  0  0  0  0  0  0  0  0
    9.6683    2.4210   56.5897 O   0  0  0  0  0  0  0  0  0  0  0  0
   10.8834    1.1026   54.1247 H   0  0  0  0  0  0  0  0  0  0  0  0
   10.2603   -1.8497   54.2187 C   0  0  0  0  0  0  0  0  0  0  0  0
   11.6304   -2.0770   54.8159 C   0  0  0  0  0  0  0  0  0  0  0  0
   11.7780   -3.4727   55.3662 C   0  0  0  0  0  0  0  0  0  0  0  0
   13.2107   -3.9540   55.2723 C   0  0  0  0  0  0  0  0  0  0  0  0
   13.2243   -5.3834   55.7868 C   0  0  0  0  0  0  0  0  0  0  0  0
   14.5331   -6.0828   55.5170 C   0  0  0  0  0  0  0  0  0  0  0  0
   15.3992   -5.0469   54.8282 C   0  0  0  0  0  0  0  0  0  0  0  0
   16.8454   -5.4661   54.7279 C   0  0  0  0  0  0  0  0  0  0  0  0
   17.5178   -4.5409   53.7471 C   0  0  0  0  0  0  0  0  0  0  0  0
  6  7  1  0  0  0
  6  8  2  0  0  0
  6  5  1  0  0  0
  5  4  1  0  0  0
  4  3  1  0  0  0
  2  1  1  0  0  0
  2  3  1  0  0  0
  1 10  1  0  0  0
 10 11  1  0  0  0
 11 12  1  0  0  0
 12 13  1  0  0  0
 13 14  1  0  0  0
 14 15  1  0  0  0
 15 16  1  0  0  0
 16 17  1  0  0  0
 17 18  1  0  0  0
  7  9  1  0  0  0
M  END
> <minimizedAffinity>
-6.52668

$$$$
6GFS_F15_A_201


 18 17  0  0  0  0  0  0  0  0999 V2000
   11.4048   -2.7742   55.1139 C   0  0  0  0  0  0  0  0  0  0  0  0
   10.3108   -2.2179   54.2084 C   0  0  0  0  0  0  0  0  0  0  0  0
    9.7187   -0.9254   54.7691 C   0  0  0  0  0  0  0  0  0  0  0  0
    8.2246   -0.7760   54.4705 C   0  0  0  0  0  0  0  0  0  0  0  0
    7.3486   -0.6922   55.7234 C   0  0  0  0  0  0  0  0  0  0  0  0
    7.0459   -2.0350   56.3642 C   0  0  0  0  0  0  0  0  0  0  0  0
    5.9522   -2.6002   56.0942 O   0  0  0  0  0  0  0  0  0  0  0  0
    7.8829   -2.5240   57.1646 O   0  0  0  0  0  0  0  0  0  0  0  0
    5.3553   -2.2021   55.4916 H   0  0  0  0  0  0  0  0  0  0  0  0
   10.8651   -3.8207   56.0694 C   0  0  0  0  0  0  0  0  0  0  0  0
   12.0332   -4.6828   56.4912 C   0  0  0  0  0  0  0  0  0  0  0  0
   13.1376   -4.6723   55.4652 C   0  0  0  0  0  0  0  0  0  0  0  0
   13.8420   -6.0111   55.3991 C   0  0  0  0  0  0  0  0  0  0  0  0
   15.3133   -5.7177   55.1602 C   0  0  0  0  0  0  0  0  0  0  0  0
   15.5295   -4.4518   54.3690 C   0  0  0  0  0  0  0  0  0  0  0  0
   17.0208   -4.4034   54.1022 C   0  0  0  0  0  0  0  0  0  0  0  0
   17.6493   -5.7740   54.0407 C   0  0  0  0  0  0  0  0  0  0  0  0
   18.2820   -5.9212   52.6812 C   0  0  0  0  0  0  0  0  0  0  0  0
  6  7  1  0  0  0
  6  8  2  0  0  0
  6  5  1  0  0  0
  5  4  1  0  0  0
  4  3  1  0  0  0
  2  1  1  0  0  0
  2  3  1  0  0  0
  1 10  1  0  0  0
 10 11  1  0  0  0
 11 12  1  0  0  0
 12 13  1  0  0  0
 13 14  1  0  0  0
 14 15  1  0  0  0
 15 16  1  0  0  0
 16 17  1  0  0  0
 17 18  1  0  0  0
  7  9  1  0  0  0
M  END
> <minimizedAffinity>
-6.47755

$$$$
6GFS_F15_A_201


 18 17  0  0  0  0  0  0  0  0999 V2000
    9.6270   -2.6531   54.4009 C   0  0  0  0  0  0  0  0  0  0  0  0
    9.1919   -1.2051   54.6012 C   0  0  0  0  0  0  0  0  0  0  0  0
    7.7168   -1.1087   54.9886 C   0  0  0  0  0  0  0  0  0  0  0  0
    7.4779   -1.3317   56.4842 C   0  0  0  0  0  0  0  0  0  0  0  0
    6.7786   -2.6545   56.8086 C   0  0  0  0  0  0  0  0  0  0  0  0
    5.2628   -2.5693   56.8339 C   0  0  0  0  0  0  0  0  0  0  0  0
    4.5995   -3.4065   56.1648 O   0  0  0  0  0  0  0  0  0  0  0  0
    4.7212   -1.6494   57.4978 O   0  0  0  0  0  0  0  0  0  0  0  0
    5.0419   -4.0775   55.6832 H   0  0  0  0  0  0  0  0  0  0  0  0
   10.6982   -3.0605   55.3938 C   0  0  0  0  0  0  0  0  0  0  0  0
   11.9939   -2.4322   54.9335 C   0  0  0  0  0  0  0  0  0  0  0  0
   13.1917   -3.2476   55.3493 C   0  0  0  0  0  0  0  0  0  0  0  0
   12.8207   -4.6987   55.5725 C   0  0  0  0  0  0  0  0  0  0  0  0
   14.0650   -5.5172   55.2728 C   0  0  0  0  0  0  0  0  0  0  0  0
   15.1694   -4.6891   54.6648 C   0  0  0  0  0  0  0  0  0  0  0  0
   16.4053   -5.5634   54.7408 C   0  0  0  0  0  0  0  0  0  0  0  0
   17.6147   -4.9239   54.1037 C   0  0  0  0  0  0  0  0  0  0  0  0
   18.0901   -5.8446   53.0099 C   0  0  0  0  0  0  0  0  0  0  0  0
  6  7  1  0  0  0
  6  8  2  0  0  0
  6  5  1  0  0  0
  5  4  1  0  0  0
  4  3  1  0  0  0
  2  1  1  0  0  0
  2  3  1  0  0  0
  1 10  1  0  0  0
 10 11  1  0  0  0
 11 12  1  0  0  0
 12 13  1  0  0  0
 13 14  1  0  0  0
 14 15  1  0  0  0
 15 16  1  0  0  0
 16 17  1  0  0  0
 17 18  1  0  0  0
  7  9  1  0  0  0
M  END
> <minimizedAffinity>
-6.46619

$$$$
6GFS_F15_A_201


 18 17  0  0  0  0  0  0  0  0999 V2000
   13.7567   -3.7771   54.9615 C   0  0  0  0  0  0  0  0  0  0  0  0
   13.5805   -5.2223   55.4159 C   0  0  0  0  0  0  0  0  0  0  0  0
   14.9103   -5.9754   55.4266 C   0  0  0  0  0  0  0  0  0  0  0  0
   16.0823   -5.1217   54.9354 C   0  0  0  0  0  0  0  0  0  0  0  0
   17.2593   -5.9387   54.3957 C   0  0  0  0  0  0  0  0  0  0  0  0
   17.8173   -5.4333   53.0772 C   0  0  0  0  0  0  0  0  0  0  0  0
   17.4762   -4.2881   52.6762 O   0  0  0  0  0  0  0  0  0  0  0  0
   18.5774   -6.1851   52.4159 O   0  0  0  0  0  0  0  0  0  0  0  0
   16.9074   -3.7586   53.1997 H   0  0  0  0  0  0  0  0  0  0  0  0
   12.5742   -2.9150   55.3590 C   0  0  0  0  0  0  0  0  0  0  0  0
   11.6284   -3.7927   56.1468 C   0  0  0  0  0  0  0  0  0  0  0  0
   10.2206   -3.2538   56.1337 C   0  0  0  0  0  0  0  0  0  0  0  0
    9.8755   -2.6446   54.7911 C   0  0  0  0  0  0  0  0  0  0  0  0
    8.5752   -1.8821   54.9803 C   0  0  0  0  0  0  0  0  0  0  0  0
    8.7538   -0.6287   55.8003 C   0  0  0  0  0  0  0  0  0  0  0  0
    9.7329    0.2206   55.0143 C   0  0  0  0  0  0  0  0  0  0  0  0
    9.6056    1.6932   55.3182 C   0  0  0  0  0  0  0  0  0  0  0  0
    8.2387    2.1331   54.8615 C   0  0  0  0  0  0  0  0  0  0  0  0
  6  7  1  0  0  0
  6  8  2  0  0  0
  6  5  1  0  0  0
  5  4  1  0  0  0
  4  3  1  0  0  0
  2  1  1  0  0  0
  2  3  1  0  0  0
  1 10  1  0  0  0
 10 11  1  0  0  0
 11 12  1  0  0  0
 12 13  1  0  0  0
 13 14  1  0  0  0
 14 15  1  0  0  0
 15 16  1  0  0  0
 16 17  1  0  0  0
 17 18  1  0  0  0
  7  9  1  0  0  0
M  END
> <minimizedAffinity>
-6.41915

$$$$
6GFS_F15_A_201


 18 17  0  0  0  0  0  0  0  0999 V2000
   13.3402   -3.2843   55.1945 C   0  0  0  0  0  0  0  0  0  0  0  0
   13.0734   -4.7611   55.4665 C   0  0  0  0  0  0  0  0  0  0  0  0
   14.3510   -5.5930   55.3613 C   0  0  0  0  0  0  0  0  0  0  0  0
   15.5404   -4.7927   54.8241 C   0  0  0  0  0  0  0  0  0  0  0  0
   16.8044   -5.6302   54.6119 C   0  0  0  0  0  0  0  0  0  0  0  0
   17.5814   -5.2799   53.3553 C   0  0  0  0  0  0  0  0  0  0  0  0
   18.3955   -6.1241   52.8935 O   0  0  0  0  0  0  0  0  0  0  0  0
   17.4082   -4.1490   52.8344 O   0  0  0  0  0  0  0  0  0  0  0  0
   18.4949   -6.9566   53.3119 H   0  0  0  0  0  0  0  0  0  0  0  0
   12.0579   -2.5228   54.9204 C   0  0  0  0  0  0  0  0  0  0  0  0
   10.9172   -3.3738   55.4304 C   0  0  0  0  0  0  0  0  0  0  0  0
    9.5878   -2.9129   54.8893 C   0  0  0  0  0  0  0  0  0  0  0  0
    8.8688   -2.0205   55.8791 C   0  0  0  0  0  0  0  0  0  0  0  0
    7.7454   -1.3400   55.1156 C   0  0  0  0  0  0  0  0  0  0  0  0
    6.4474   -1.3297   55.8837 C   0  0  0  0  0  0  0  0  0  0  0  0
    6.2825   -2.7459   56.3985 C   0  0  0  0  0  0  0  0  0  0  0  0
    4.8413   -3.1922   56.4327 C   0  0  0  0  0  0  0  0  0  0  0  0
    4.1538   -2.4185   57.5276 C   0  0  0  0  0  0  0  0  0  0  0  0
  6  7  1  0  0  0
  6  8  2  0  0  0
  6  5  1  0  0  0
  5  4  1  0  0  0
  4  3  1  0  0  0
  2  1  1  0  0  0
  2  3  1  0  0  0
  1 10  1  0  0  0
 10 11  1  0  0  0
 11 12  1  0  0  0
 12 13  1  0  0  0
 13 14  1  0  0  0
 14 15  1  0  0  0
 15 16  1  0  0  0
 16 17  1  0  0  0
 17 18  1  0  0  0
  7  9  1  0  0  0
M  END
> <minimizedAffinity>
-6.40230

$$$$
6GFS_F15_A_201


 18 17  0  0  0  0  0  0  0  0999 V2000
    9.7096   -1.4845   55.0749 C   0  0  0  0  0  0  0  0  0  0  0  0
    8.2565   -1.9273   55.2108 C   0  0  0  0  0  0  0  0  0  0  0  0
    7.2915   -0.7562   55.0298 C   0  0  0  0  0  0  0  0  0  0  0  0
    5.8350   -1.1359   55.3094 C   0  0  0  0  0  0  0  0  0  0  0  0
    5.6687   -2.1698   56.4262 C   0  0  0  0  0  0  0  0  0  0  0  0
    4.8476   -1.6853   57.6080 C   0  0  0  0  0  0  0  0  0  0  0  0
    5.3501   -0.8258   58.3808 O   0  0  0  0  0  0  0  0  0  0  0  0
    3.7061   -2.1787   57.7924 O   0  0  0  0  0  0  0  0  0  0  0  0
    6.2046   -0.4827   58.2077 H   0  0  0  0  0  0  0  0  0  0  0  0
   10.6325   -2.6585   54.8110 C   0  0  0  0  0  0  0  0  0  0  0  0
   12.0291   -2.2205   55.1892 C   0  0  0  0  0  0  0  0  0  0  0  0
   13.0432   -3.3095   54.9482 C   0  0  0  0  0  0  0  0  0  0  0  0
   12.7318   -4.5444   55.7673 C   0  0  0  0  0  0  0  0  0  0  0  0
   13.6921   -5.6271   55.3049 C   0  0  0  0  0  0  0  0  0  0  0  0
   14.9128   -5.0639   54.6210 C   0  0  0  0  0  0  0  0  0  0  0  0
   16.0631   -5.9334   55.0882 C   0  0  0  0  0  0  0  0  0  0  0  0
   17.4037   -5.4432   54.5988 C   0  0  0  0  0  0  0  0  0  0  0  0
   17.1595   -4.6153   53.3638 C   0  0  0  0  0  0  0  0  0  0  0  0
  6  7  1  0  0  0
  6  8  2  0  0  0
  6  5  1  0  0  0
  5  4  1  0  0  0
  4  3  1  0  0  0
  2  1  1  0  0  0
  2  3  1  0  0  0
  1 10  1  0  0  0
 10 11  1  0  0  0
 11 12  1  0  0  0
 12 13  1  0  0  0
 13 14  1  0  0  0
 14 15  1  0  0  0
 15 16  1  0  0  0
 16 17  1  0  0  0
 17 18  1  0  0  0
  7  9  1  0  0  0
M  END
> <minimizedAffinity>
-6.01908

$$$$
6GFS_F15_A_201


 18 17  0  0  0  0  0  0  0  0999 V2000
    9.9793   -1.2642   54.9050 C   0  0  0  0  0  0  0  0  0  0  0  0
    8.9988   -0.1034   55.0366 C   0  0  0  0  0  0  0  0  0  0  0  0
    7.5499   -0.5890   55.0520 C   0  0  0  0  0  0  0  0  0  0  0  0
    6.5829    0.4010   54.3972 C   0  0  0  0  0  0  0  0  0  0  0  0
    5.9182    1.3625   55.3860 C   0  0  0  0  0  0  0  0  0  0  0  0
    6.3780    2.8040   55.2597 C   0  0  0  0  0  0  0  0  0  0  0  0
    5.5429    3.6746   54.8948 O   0  0  0  0  0  0  0  0  0  0  0  0
    7.5825    3.0760   55.4953 O   0  0  0  0  0  0  0  0  0  0  0  0
    4.6536    3.4304   54.7291 H   0  0  0  0  0  0  0  0  0  0  0  0
    9.2670   -2.5717   54.6181 C   0  0  0  0  0  0  0  0  0  0  0  0
   10.2245   -3.6870   54.9711 C   0  0  0  0  0  0  0  0  0  0  0  0
   11.3364   -3.2085   55.8696 C   0  0  0  0  0  0  0  0  0  0  0  0
   12.5767   -4.0635   55.7158 C   0  0  0  0  0  0  0  0  0  0  0  0
   13.5581   -3.2603   54.8792 C   0  0  0  0  0  0  0  0  0  0  0  0
   14.7874   -4.0526   54.5103 C   0  0  0  0  0  0  0  0  0  0  0  0
   14.6292   -5.3808   55.2234 C   0  0  0  0  0  0  0  0  0  0  0  0
   15.9089   -6.1797   55.2634 C   0  0  0  0  0  0  0  0  0  0  0  0
   16.9620   -5.3839   54.5367 C   0  0  0  0  0  0  0  0  0  0  0  0
  6  7  1  0  0  0
  6  8  2  0  0  0
  6  5  1  0  0  0
  5  4  1  0  0  0
  4  3  1  0  0  0
  2  1  1  0  0  0
  2  3  1  0  0  0
  1 10  1  0  0  0
 10 11  1  0  0  0
 11 12  1  0  0  0
 12 13  1  0  0  0
 13 14  1  0  0  0
 14 15  1  0  0  0
 15 16  1  0  0  0
 16 17  1  0  0  0
 17 18  1  0  0  0
  7  9  1  0  0  0
M  END
> <minimizedAffinity>
-5.90890

$$$$
6GFS_F15_A_201


 18 17  0  0  0  0  0  0  0  0999 V2000
    9.9434   -2.1900   54.2888 C   0  0  0  0  0  0  0  0  0  0  0  0
    8.6348   -1.9433   55.0323 C   0  0  0  0  0  0  0  0  0  0  0  0
    7.8589   -0.7710   54.4330 C   0  0  0  0  0  0  0  0  0  0  0  0
    7.7612    0.4261   55.3821 C   0  0  0  0  0  0  0  0  0  0  0  0
    6.3398    0.7110   55.8745 C   0  0  0  0  0  0  0  0  0  0  0  0
    6.1608    0.5767   57.3763 C   0  0  0  0  0  0  0  0  0  0  0  0
    6.5059   -0.5008   57.9317 O   0  0  0  0  0  0  0  0  0  0  0  0
    5.6480    1.5331   58.0107 O   0  0  0  0  0  0  0  0  0  0  0  0
    6.8850   -1.1899   57.4225 H   0  0  0  0  0  0  0  0  0  0  0  0
   11.1151   -2.3224   55.2423 C   0  0  0  0  0  0  0  0  0  0  0  0
   10.7545   -3.3954   56.2443 C   0  0  0  0  0  0  0  0  0  0  0  0
   11.7537   -4.5241   56.2417 C   0  0  0  0  0  0  0  0  0  0  0  0
   12.9733   -4.1794   55.4131 C   0  0  0  0  0  0  0  0  0  0  0  0
   13.9299   -5.3531   55.5371 C   0  0  0  0  0  0  0  0  0  0  0  0
   14.9874   -5.3535   54.4616 C   0  0  0  0  0  0  0  0  0  0  0  0
   16.1509   -6.1245   55.0528 C   0  0  0  0  0  0  0  0  0  0  0  0
   17.4829   -5.7021   54.4830 C   0  0  0  0  0  0  0  0  0  0  0  0
   17.3002   -4.3388   53.8680 C   0  0  0  0  0  0  0  0  0  0  0  0
  6  7  1  0  0  0
  6  8  2  0  0  0
  6  5  1  0  0  0
  5  4  1  0  0  0
  4  3  1  0  0  0
  2  1  1  0  0  0
  2  3  1  0  0  0
  1 10  1  0  0  0
 10 11  1  0  0  0
 11 12  1  0  0  0
 12 13  1  0  0  0
 13 14  1  0  0  0
 14 15  1  0  0  0
 15 16  1  0  0  0
 16 17  1  0  0  0
 17 18  1  0  0  0
  7  9  1  0  0  0
M  END
> <minimizedAffinity>
-5.82356

$$$$
6GFS_F15_A_201


 18 17  0  0  0  0  0  0  0  0999 V2000
    7.4125   -1.6327   55.7180 C   0  0  0  0  0  0  0  0  0  0  0  0
    7.8646   -1.2173   57.1141 C   0  0  0  0  0  0  0  0  0  0  0  0
    6.8224   -0.3394   57.8058 C   0  0  0  0  0  0  0  0  0  0  0  0
    6.0917    0.5936   56.8365 C   0  0  0  0  0  0  0  0  0  0  0  0
    6.6156    2.0321   56.8490 C   0  0  0  0  0  0  0  0  0  0  0  0
    7.7512    2.2912   55.8749 C   0  0  0  0  0  0  0  0  0  0  0  0
    8.9354    2.2574   56.3050 O   0  0  0  0  0  0  0  0  0  0  0  0
    7.4710    2.5590   54.6790 O   0  0  0  0  0  0  0  0  0  0  0  0
    9.1017    2.0535   57.2043 H   0  0  0  0  0  0  0  0  0  0  0  0
    8.3889   -1.1753   54.6518 C   0  0  0  0  0  0  0  0  0  0  0  0
    9.7807   -1.3824   55.2045 C   0  0  0  0  0  0  0  0  0  0  0  0
   10.5913   -2.3202   54.3466 C   0  0  0  0  0  0  0  0  0  0  0  0
   12.0142   -2.4385   54.8510 C   0  0  0  0  0  0  0  0  0  0  0  0
   11.9953   -3.4653   55.9705 C   0  0  0  0  0  0  0  0  0  0  0  0
   12.8136   -4.6901   55.6458 C   0  0  0  0  0  0  0  0  0  0  0  0
   14.1036   -4.1571   55.0545 C   0  0  0  0  0  0  0  0  0  0  0  0
   14.7525   -5.1258   54.0965 C   0  0  0  0  0  0  0  0  0  0  0  0
   16.0560   -5.5655   54.7112 C   0  0  0  0  0  0  0  0  0  0  0  0
  6  7  1  0  0  0
  6  8  2  0  0  0
  6  5  1  0  0  0
  5  4  1  0  0  0
  4  3  1  0  0  0
  2  1  1  0  0  0
  2  3  1  0  0  0
  1 10  1  0  0  0
 10 11  1  0  0  0
 11 12  1  0  0  0
 12 13  1  0  0  0
 13 14  1  0  0  0
 14 15  1  0  0  0
 15 16  1  0  0  0
 16 17  1  0  0  0
 17 18  1  0  0  0
  7  9  1  0  0  0
M  END
> <minimizedAffinity>
-5.69507

$$$$
