6H33_FKQ_A_302
  RCSB PDB12151803173D
Coordinates from PDB:6H33:A:302 Model:1 without hydrogens
 25 27  0  0  0  0            999 V2000
   -5.5850    4.3590   14.3100   C 0  0  0  0  0  0  0  0  0  0  0  0
   -6.0600    3.3820   15.1690   C 0  0  0  0  0  0  0  0  0  0  0  0
   -5.2090    2.3720   15.5920   C 0  0  0  0  0  0  0  0  0  0  0  0
   -5.8190    1.0940   16.6550   S 0  0  0  0  0  0  0  0  0  0  0  0
   -5.1920    1.2740   17.9320   O 0  0  0  0  0  0  0  0  0  0  0  0
   -7.2480    1.1300   16.5910   O 0  0  0  0  0  0  0  0  0  0  0  0
   -3.8910    2.3420   15.1660   C 0  0  0  0  0  0  0  0  0  0  0  0
   -3.4270    3.3230   14.3070   C 0  0  0  0  0  0  0  0  0  0  0  0
   -4.2670    4.3400   13.8670   C 0  0  0  0  0  0  0  0  0  0  0  0
   -3.7710    5.3670   12.8930   C 0  0  0  0  0  0  0  0  0  0  0  0
   -4.5370    5.8290   12.0650   O 0  0  0  0  0  0  0  0  0  0  0  0
   -2.4670    5.6890   12.9180   N 0  0  0  0  0  0  0  0  0  0  0  0
   -1.7780    5.9570   14.1900   C 0  0  0  0  0  0  0  0  0  0  0  0
   -1.7530    7.4400   14.5170   C 0  0  0  0  0  0  0  0  0  0  0  0
   -1.8740    6.4560   11.8080   C 0  0  0  0  0  0  0  0  0  0  0  0
   -1.8300    7.9480   12.1030   C 0  0  0  0  0  0  0  0  0  0  0  0
   -1.0780    8.2350   13.4020   C 0  0  0  0  0  0  0  0  0  0  0  0
    0.2440    7.7200   13.2520   O 0  0  0  0  0  0  0  0  0  0  0  0
   -1.0390    9.7280   13.7180   C 0  0  0  0  0  0  0  0  0  0  0  0
   -1.8390   10.6300   13.0270   C 0  0  0  0  0  0  0  0  0  0  0  0
   -1.7480   11.9920   13.2660   C 0  0  0  0  0  0  0  0  0  0  0  0
   -0.8570   12.4730   14.2030   C 0  0  0  0  0  0  0  0  0  0  0  0
   -0.0580   11.5930   14.9010   C 0  0  0  0  0  0  0  0  0  0  0  0
   -0.1490   10.2310   14.6610   C 0  0  0  0  0  0  0  0  0  0  0  0
   -5.3410   -0.3210   16.0850   N 0  0  0  0  0  0  0  0  0  0  0  0
 22 21  2  0  0  0  0
 22 23  1  0  0  0  0
 21 20  1  0  0  0  0
 23 24  2  0  0  0  0
 16 15  1  0  0  0  0
 16 17  1  0  0  0  0
 20 19  2  0  0  0  0
 24 19  1  0  0  0  0
 15 12  1  0  0  0  0
 19 17  1  0  0  0  0
 11 10  2  0  0  0  0
 17 18  1  0  0  0  0
 17 14  1  0  0  0  0
 10 12  1  0  0  0  0
 10  9  1  0  0  0  0
 12 13  1  0  0  0  0
 14 13  1  0  0  0  0
  9  1  2  0  0  0  0
  9  8  1  0  0  0  0
  1  2  1  0  0  0  0
  8  7  2  0  0  0  0
  2  3  2  0  0  0  0
  7  3  1  0  0  0  0
  3  4  1  0  0  0  0
  6  4  2  0  0  0  0
  4  5  2  0  0  0  0
  4 25  1  0  0  0  0
A    1
C3
A    2
C2
A    3
C1
A    4
S1
A    5
O1
A    6
O2
A    7
C6
A    8
C5
A    9
C4
A   10
C7
A   11
O3
A   12
N2
A   13
C12
A   14
C11
A   15
C8
A   16
C9
A   17
C10
A   18
O4
A   19
C13
A   20
C14
A   21
C15
A   22
C16
A   23
C17
A   24
C18
A   25
N1
M  END
>  <InstanceId>
6H33_FKQ_A_302

>  <ChemCompId>
FKQ

>  <PdbId>
6H33

>  <ChainId>
A

>  <ResidueNumber>
302

>  <InsertionCode>


>  <Model>
1

>  <AltIds>


>  <MissingHeavyAtoms>
0

>  <ObservedFormula>
C18 N2 O4 S

>  <Name>
4-(4-oxidanyl-4-phenyl-piperidin-1-yl)carbonylbenzenesulfonamide

>  <SystematicName>
4-(4-oxidanyl-4-phenyl-piperidin-1-yl)carbonylbenzenesulfonamide

>  <Synonyms>


>  <Type>
NON-POLYMER

>  <Formula>
C18 H20 N2 O4 S

>  <MolecularWeight>
360.427

>  <ModifiedDate>
2018-12-14

>  <Parent>


>  <OneLetterCode>


>  <SubcomponentList>


>  <AmbiguousFlag>
N

>  <InChI>
InChI=1S/C18H20N2O4S/c19-25(23,24)16-8-6-14(7-9-16)17(21)20-12-10-18(22,11-13-20)15-4-2-1-3-5-15/h1-9,22H,10-13H2,(H2,19,23,24)

>  <InChIKey>
XEMCUUOBNNOBLG-UHFFFAOYSA-N

>  <SMILES>
c1ccc(cc1)C2(CCN(CC2)C(=O)c3ccc(cc3)S(=O)(=O)N)O

$$$$
