3B68_B68_A_1


 34 35  0  0  0  0  0  0  0  0999 V2000
   29.5711    1.0045    3.9466 C   0  0  0  0  0  0  0  0  0  0  0  0
   30.8059    1.7227    3.8813 O   0  0  0  0  0  0  0  0  0  0  0  0
   29.6369   -0.2434    3.0642 C   0  0  0  0  0  0  0  0  0  0  0  0
   31.5302    1.1479    4.1747 H   0  0  0  0  0  0  0  0  0  0  0  0
   28.4367    1.9187    3.4825 C   0  0  0  0  0  0  0  0  0  0  0  0
   27.7120    1.5860    2.5460 O   0  0  0  0  0  0  0  0  0  0  0  0
   28.3073    3.0410    4.1879 N   0  0  0  0  0  0  0  0  0  0  0  0
   28.9409    3.1842    4.9277 H   0  0  0  0  0  0  0  0  0  0  0  0
   27.3920    3.9866    3.9764 C   0  0  0  0  0  0  0  0  0  0  0  0
   26.0209    3.7406    4.0264 C   0  0  0  0  0  0  0  0  0  0  0  0
   27.8269    5.2833    3.7343 C   0  0  0  0  0  0  0  0  0  0  0  0
   26.8907    6.2986    3.5641 C   0  0  0  0  0  0  0  0  0  0  0  0
   25.5230    6.0470    3.6327 C   0  0  0  0  0  0  0  0  0  0  0  0
   25.0659    4.7431    3.8547 C   0  0  0  0  0  0  0  0  0  0  0  0
   23.5753    4.3546    3.8890 C   0  0  0  0  0  0  0  0  0  0  0  0
   23.1020    4.4239    5.1296 F   0  0  0  0  0  0  0  0  0  0  0  0
   22.8182    5.1261    3.1138 F   0  0  0  0  0  0  0  0  0  0  0  0
   23.3766    3.1076    3.4719 F   0  0  0  0  0  0  0  0  0  0  0  0
   24.7255    7.1070    3.4988 N   0  0  0  0  0  0  0  0  0  0  0  0
   24.1314    7.7761    4.6017 O   0  0  0  0  0  0  0  0  0  0  0  0
   24.5285    7.6733    2.2113 O   0  0  0  0  0  0  0  0  0  0  0  0
   29.3010    0.5946    5.3861 C   0  0  0  0  0  0  0  0  0  0  0  0
   29.8465    1.5710    6.2880 O   0  0  0  0  0  0  0  0  0  0  0  0
   29.4134    0.5433   10.2947 C   0  0  0  0  0  0  0  0  0  0  0  0
   30.1646   -0.2611    9.4396 C   0  0  0  0  0  0  0  0  0  0  0  0
   30.2993    0.0713    8.0945 C   0  0  0  0  0  0  0  0  0  0  0  0
   28.7997    1.6841    9.7868 C   0  0  0  0  0  0  0  0  0  0  0  0
   28.9298    2.0188    8.4418 C   0  0  0  0  0  0  0  0  0  0  0  0
   29.6801    1.2111    7.5902 C   0  0  0  0  0  0  0  0  0  0  0  0
   29.7708   -0.3236   13.8674 C   0  0  0  0  0  0  0  0  0  0  0  0
   30.2304    0.0041   12.4451 C   0  0  0  0  0  0  0  0  0  0  0  0
   31.4292    0.0554   12.1708 O   0  0  0  0  0  0  0  0  0  0  0  0
   29.2443    0.2483   11.5843 N   0  0  0  0  0  0  0  0  0  0  0  0
   28.3216    0.2082   11.9252 H   0  0  0  0  0  0  0  0  0  0  0  0
 30 31  1  0  0  0
 31 32  2  0  0  0
 31 33  1  0  0  0
 33 24  1  0  0  0
 24 25  2  0  0  0
 24 27  1  0  0  0
 25 26  1  0  0  0
 26 29  2  0  0  0
 27 28  2  0  0  0
 28 29  1  0  0  0
 29 23  1  0  0  0
 23 22  1  0  0  0
 22  1  1  0  0  0
  1  2  1  0  0  0
  1  3  1  0  0  0
  1  5  1  0  0  0
  5  6  2  0  0  0
  5  7  1  0  0  0
  7  9  1  0  0  0
  9 10  2  0  0  0
  9 11  1  0  0  0
 10 14  1  0  0  0
 11 12  2  0  0  0
 12 13  1  0  0  0
 13 19  1  0  0  0
 13 14  2  0  0  0
 19 20  1  0  0  0
 19 21  2  0  0  0
 14 15  1  0  0  0
 15 16  1  0  0  0
 15 17  1  0  0  0
 15 18  1  0  0  0
 33 34  1  0  0  0
  2  4  1  0  0  0
  7  8  1  0  0  0
M  CHG 1  19   1
M  CHG 1  20  -1
M  END
> <minimizedAffinity>
-11.77409

$$$$
3B68_B68_A_1


 34 35  0  0  0  0  0  0  0  0999 V2000
   29.6466    1.2589    4.7452 C   0  0  0  0  0  0  0  0  0  0  0  0
   30.8614    1.9354    4.4113 O   0  0  0  0  0  0  0  0  0  0  0  0
   29.2888    0.2447    3.6572 C   0  0  0  0  0  0  0  0  0  0  0  0
   31.5766    1.2871    4.3153 H   0  0  0  0  0  0  0  0  0  0  0  0
   28.5263    2.2889    4.8942 C   0  0  0  0  0  0  0  0  0  0  0  0
   27.9326    2.4133    5.9642 O   0  0  0  0  0  0  0  0  0  0  0  0
   28.2983    3.0195    3.8040 N   0  0  0  0  0  0  0  0  0  0  0  0
   28.8549    2.8352    3.0132 H   0  0  0  0  0  0  0  0  0  0  0  0
   27.3799    3.9792    3.6940 C   0  0  0  0  0  0  0  0  0  0  0  0
   26.0126    3.7393    3.8192 C   0  0  0  0  0  0  0  0  0  0  0  0
   27.8102    5.2831    3.4844 C   0  0  0  0  0  0  0  0  0  0  0  0
   26.8742    6.3107    3.4201 C   0  0  0  0  0  0  0  0  0  0  0  0
   25.5113    6.0644    3.5633 C   0  0  0  0  0  0  0  0  0  0  0  0
   25.0575    4.7543    3.7539 C   0  0  0  0  0  0  0  0  0  0  0  0
   23.5687    4.3735    3.8645 C   0  0  0  0  0  0  0  0  0  0  0  0
   23.3811    3.1079    3.5025 F   0  0  0  0  0  0  0  0  0  0  0  0
   23.0813    4.5290    5.0924 F   0  0  0  0  0  0  0  0  0  0  0  0
   22.8048    5.1170    3.0694 F   0  0  0  0  0  0  0  0  0  0  0  0
   24.7164    7.1341    3.5285 N   0  0  0  0  0  0  0  0  0  0  0  0
   24.1945    7.7521    4.6959 O   0  0  0  0  0  0  0  0  0  0  0  0
   24.4481    7.7634    2.2838 O   0  0  0  0  0  0  0  0  0  0  0  0
   29.8185    0.5389    6.0737 C   0  0  0  0  0  0  0  0  0  0  0  0
   30.2731    1.4593    7.0789 O   0  0  0  0  0  0  0  0  0  0  0  0
   29.2084    0.3505   10.9434 C   0  0  0  0  0  0  0  0  0  0  0  0
   30.2392   -0.3129   10.2802 C   0  0  0  0  0  0  0  0  0  0  0  0
   30.5884    0.0451    8.9811 C   0  0  0  0  0  0  0  0  0  0  0  0
   28.5324    1.3766   10.2904 C   0  0  0  0  0  0  0  0  0  0  0  0
   28.8769    1.7361    8.9903 C   0  0  0  0  0  0  0  0  0  0  0  0
   29.9066    1.0692    8.3304 C   0  0  0  0  0  0  0  0  0  0  0  0
   28.9771   -0.6348   14.4957 C   0  0  0  0  0  0  0  0  0  0  0  0
   29.6628   -0.2827   13.1739 C   0  0  0  0  0  0  0  0  0  0  0  0
   30.8907   -0.2686   13.0900 O   0  0  0  0  0  0  0  0  0  0  0  0
   28.8312    0.0241   12.1802 N   0  0  0  0  0  0  0  0  0  0  0  0
   27.8659    0.0087   12.3730 H   0  0  0  0  0  0  0  0  0  0  0  0
 30 31  1  0  0  0
 31 32  2  0  0  0
 31 33  1  0  0  0
 33 24  1  0  0  0
 24 25  2  0  0  0
 24 27  1  0  0  0
 25 26  1  0  0  0
 26 29  2  0  0  0
 27 28  2  0  0  0
 28 29  1  0  0  0
 29 23  1  0  0  0
 23 22  1  0  0  0
 22  1  1  0  0  0
  1  2  1  0  0  0
  1  3  1  0  0  0
  1  5  1  0  0  0
  5  6  2  0  0  0
  5  7  1  0  0  0
  7  9  1  0  0  0
  9 10  2  0  0  0
  9 11  1  0  0  0
 10 14  1  0  0  0
 11 12  2  0  0  0
 12 13  1  0  0  0
 13 19  1  0  0  0
 13 14  2  0  0  0
 19 20  1  0  0  0
 19 21  2  0  0  0
 14 15  1  0  0  0
 15 16  1  0  0  0
 15 17  1  0  0  0
 15 18  1  0  0  0
 33 34  1  0  0  0
  2  4  1  0  0  0
  7  8  1  0  0  0
M  CHG 1  19   1
M  CHG 1  20  -1
M  END
> <minimizedAffinity>
-10.98220

$$$$
3B68_B68_A_1


 34 35  0  0  0  0  0  0  0  0999 V2000
   29.8135    0.2882    4.0069 C   0  0  0  0  0  0  0  0  0  0  0  0
   30.6129    1.1474    3.1898 O   0  0  0  0  0  0  0  0  0  0  0  0
   29.7932   -1.1268    3.4258 C   0  0  0  0  0  0  0  0  0  0  0  0
   31.5161    0.7975    3.1395 H   0  0  0  0  0  0  0  0  0  0  0  0
   28.3926    0.8483    4.0797 C   0  0  0  0  0  0  0  0  0  0  0  0
   27.4447    0.1102    4.3436 O   0  0  0  0  0  0  0  0  0  0  0  0
   28.3040    2.1604    3.8680 N   0  0  0  0  0  0  0  0  0  0  0  0
   29.1408    2.6449    3.6832 H   0  0  0  0  0  0  0  0  0  0  0  0
   27.1774    2.8724    3.8855 C   0  0  0  0  0  0  0  0  0  0  0  0
   27.1553    4.2613    3.7693 C   0  0  0  0  0  0  0  0  0  0  0  0
   25.9695    2.1938    3.9843 C   0  0  0  0  0  0  0  0  0  0  0  0
   24.7772    2.9103    3.9500 C   0  0  0  0  0  0  0  0  0  0  0  0
   24.7639    4.2962    3.8166 C   0  0  0  0  0  0  0  0  0  0  0  0
   25.9715    4.9989    3.7369 C   0  0  0  0  0  0  0  0  0  0  0  0
   26.0621    6.5343    3.6466 C   0  0  0  0  0  0  0  0  0  0  0  0
   25.1810    7.1041    4.4632 F   0  0  0  0  0  0  0  0  0  0  0  0
   27.2696    7.0033    3.9488 F   0  0  0  0  0  0  0  0  0  0  0  0
   25.7922    6.9772    2.4220 F   0  0  0  0  0  0  0  0  0  0  0  0
   23.5605    4.8663    3.7505 N   0  0  0  0  0  0  0  0  0  0  0  0
   23.1827    5.7654    2.7180 O   0  0  0  0  0  0  0  0  0  0  0  0
   22.5601    4.4937    4.6872 O   0  0  0  0  0  0  0  0  0  0  0  0
   30.3891    0.2509    5.4141 C   0  0  0  0  0  0  0  0  0  0  0  0
   30.0269    1.4443    6.1275 O   0  0  0  0  0  0  0  0  0  0  0  0
   29.3635    0.6424   10.1543 C   0  0  0  0  0  0  0  0  0  0  0  0
   28.7750    1.7531    9.5521 C   0  0  0  0  0  0  0  0  0  0  0  0
   29.0068    2.0334    8.2084 C   0  0  0  0  0  0  0  0  0  0  0  0
   30.1861   -0.1838    9.3947 C   0  0  0  0  0  0  0  0  0  0  0  0
   30.4225    0.0943    8.0512 C   0  0  0  0  0  0  0  0  0  0  0  0
   29.8336    1.2064    7.4538 C   0  0  0  0  0  0  0  0  0  0  0  0
   29.6804   -0.2758   13.7179 C   0  0  0  0  0  0  0  0  0  0  0  0
   30.1531    0.0270   12.2944 C   0  0  0  0  0  0  0  0  0  0  0  0
   31.3503   -0.0102   12.0111 O   0  0  0  0  0  0  0  0  0  0  0  0
   29.1820    0.3513   11.4430 N   0  0  0  0  0  0  0  0  0  0  0  0
   28.2614    0.3783   11.7909 H   0  0  0  0  0  0  0  0  0  0  0  0
 30 31  1  0  0  0
 31 32  2  0  0  0
 31 33  1  0  0  0
 33 24  1  0  0  0
 24 25  2  0  0  0
 24 27  1  0  0  0
 25 26  1  0  0  0
 26 29  2  0  0  0
 27 28  2  0  0  0
 28 29  1  0  0  0
 29 23  1  0  0  0
 23 22  1  0  0  0
 22  1  1  0  0  0
  1  2  1  0  0  0
  1  3  1  0  0  0
  1  5  1  0  0  0
  5  6  2  0  0  0
  5  7  1  0  0  0
  7  9  1  0  0  0
  9 10  2  0  0  0
  9 11  1  0  0  0
 10 14  1  0  0  0
 11 12  2  0  0  0
 12 13  1  0  0  0
 13 19  1  0  0  0
 13 14  2  0  0  0
 19 20  1  0  0  0
 19 21  2  0  0  0
 14 15  1  0  0  0
 15 16  1  0  0  0
 15 17  1  0  0  0
 15 18  1  0  0  0
 33 34  1  0  0  0
  2  4  1  0  0  0
  7  8  1  0  0  0
M  CHG 1  19   1
M  CHG 1  20  -1
M  END
> <minimizedAffinity>
-9.61026

$$$$
