6F05_GTS_A_301
  RCSB PDB08181802393D
Coordinates from PDB:6F05:A:301 Model:1 without hydrogens
 23 22  0  0  0  0            999 V2000
  -61.5170   -7.8570  -48.2140   N 0  0  0  0  0  0  0  0  0  0  0  0
  -62.0320   -9.1410  -48.5560   C 0  0  0  0  0  0  0  0  0  0  0  0
  -61.3150  -10.2380  -47.7650   C 0  0  0  0  0  0  0  0  0  0  0  0
  -60.0770  -10.1320  -47.4820   O 0  0  0  0  0  0  0  0  0  0  0  0
  -61.9490  -11.2760  -47.3480   O 0  0  0  0  0  0  0  0  0  0  0  0
  -61.8830   -9.3370  -50.0730   C 0  0  0  0  0  0  0  0  0  0  0  0
  -62.2140  -10.7620  -50.4850   C 0  0  0  0  0  0  0  0  0  0  0  0
  -62.3280  -10.8440  -52.0260   C 0  0  0  0  0  0  0  0  0  0  0  0
  -62.3560   -9.8510  -52.7040   O 0  0  0  0  0  0  0  0  0  0  0  0
  -62.3770  -12.1040  -52.6740   N 0  0  0  0  0  0  0  0  0  0  0  0
  -62.5090  -12.1960  -54.0810   C 0  0  0  0  0  0  0  0  0  0  0  0
  -64.0010  -12.3200  -54.3020   C 0  0  0  0  0  0  0  0  0  0  0  0
  -64.6930  -12.8410  -53.4690   O 0  0  0  0  0  0  0  0  0  0  0  0
  -61.8980  -13.5030  -54.5640   C 0  0  0  0  0  0  0  0  0  0  0  0
  -60.1230  -13.6490  -54.2150   S 0  0  0  0  0  0  0  0  0  0  0  0
  -59.4410  -12.3160  -54.4670   O 0  0  0  0  0  0  0  0  0  0  0  0
  -59.5370  -14.7980  -54.9980   O 0  0  0  0  0  0  0  0  0  0  0  0
  -59.9000  -13.8930  -52.7470   O 0  0  0  0  0  0  0  0  0  0  0  0
  -64.7070  -11.9210  -55.4760   N 0  0  0  0  0  0  0  0  0  0  0  0
  -64.2290  -11.2500  -56.6320   C 0  0  0  0  0  0  0  0  0  0  0  0
  -65.4460  -10.3690  -56.8400   C 0  0  0  0  0  0  0  0  0  0  0  0
  -65.4370   -9.1990  -56.3920   O 0  0  0  0  0  0  0  0  0  0  0  0
  -66.4650  -10.8240  -57.4030   O 0  0  0  0  0  0  0  0  0  0  0  0
  1  2  1  0  0  0  0
  2  3  1  0  0  0  0
  2  6  1  0  0  0  0
  3  4  2  0  0  0  0
  3  5  1  0  0  0  0
  6  7  1  0  0  0  0
  7  8  1  0  0  0  0
  8  9  2  0  0  0  0
  8 10  1  0  0  0  0
 10 11  1  0  0  0  0
 11 12  1  0  0  0  0
 11 14  1  0  0  0  0
 12 13  2  0  0  0  0
 12 19  1  0  0  0  0
 14 15  1  0  0  0  0
 15 16  2  0  0  0  0
 15 17  2  0  0  0  0
 15 18  1  0  0  0  0
 19 20  1  0  0  0  0
 20 21  1  0  0  0  0
 21 22  1  0  0  0  0
 21 23  2  0  0  0  0
A    1
N1
A    2
CA1
A    3
C1
A    4
O11
A    5
O12
A    6
CB1
A    7
CG1
A    8
CD1
A    9
OE1
A   10
N2
A   11
CA2
A   12
C2
A   13
O2
A   14
CB2
A   15
SG2
A   16
O1S
A   17
O2S
A   18
O3S
A   19
N3
A   20
CA3
A   21
C3
A   22
O31
A   23
O32
M  END
>  <InstanceId>
6F05_GTS_A_301

>  <ChemCompId>
GTS

>  <PdbId>
6F05

>  <ChainId>
A

>  <ResidueNumber>
301

>  <InsertionCode>


>  <Model>
1

>  <AltIds>


>  <MissingHeavyAtoms>
0

>  <ObservedFormula>
C10 N3 O9 S

>  <Name>
GLUTATHIONE SULFONIC ACID

>  <SystematicName>
(2S)-2-amino-5-[[(2R)-1-(carboxymethylamino)-1-oxo-3-sulfo-propan-2-yl]amino]-5-oxo-pentanoic acid

>  <Synonyms>


>  <Type>
NON-POLYMER

>  <Formula>
C10 H17 N3 O9 S

>  <MolecularWeight>
355.322

>  <ModifiedDate>
2011-06-04

>  <Parent>


>  <OneLetterCode>


>  <SubcomponentList>


>  <AmbiguousFlag>
N

>  <InChI>
InChI=1S/C10H17N3O9S/c11-5(10(18)19)1-2-7(14)13-6(4-23(20,21)22)9(17)12-3-8(15)16/h5-6H,1-4,11H2,(H,12,17)(H,13,14)(H,15,16)(H,18,19)(H,20,21,22)/t5-,6-/m0/s1

>  <InChIKey>
QGWRMTHFAZVWAM-WDSKDSINSA-N

>  <SMILES>
C(CC(=O)N[C@@H](CS(=O)(=O)O)C(=O)NCC(=O)O)[C@@H](C(=O)O)N

$$$$
