4M8X_KGQ_B_101


 51 54  0  0  0  0  0  0  0  0999 V2000
  -13.6495   49.9371    3.0824 C   0  0  0  0  0  0  0  0  0  0  0  0
  -13.1339   50.7084    1.9080 N   0  0  0  0  0  0  0  0  0  0  0  0
  -13.2508   50.4223    0.5948 C   0  0  0  0  0  0  0  0  0  0  0  0
  -13.7937   49.4179    0.0894 O   0  0  0  0  0  0  0  0  0  0  0  0
  -12.6439   51.5350    2.1225 H   0  0  0  0  0  0  0  0  0  0  0  0
  -12.6358   51.3483   -0.2258 O   0  0  0  0  0  0  0  0  0  0  0  0
  -13.8608   52.2052   -2.2846 C   0  0  0  0  0  0  0  0  0  0  0  0
  -13.5196   52.3630   -0.7844 C   0  0  0  0  0  0  0  0  0  0  0  0
  -12.6957   53.6315   -0.8230 C   0  0  0  0  0  0  0  0  0  0  0  0
  -11.8505   53.4617   -1.9929 O   0  0  0  0  0  0  0  0  0  0  0  0
  -12.6323   52.7493   -3.0129 C   0  0  0  0  0  0  0  0  0  0  0  0
  -11.9112   51.5717   -3.5006 O   0  0  0  0  0  0  0  0  0  0  0  0
  -12.8879   50.5355   -3.7615 C   0  0  0  0  0  0  0  0  0  0  0  0
  -14.0093   50.7523   -2.7674 C   0  0  0  0  0  0  0  0  0  0  0  0
  -13.8017   50.9080    4.2446 C   0  0  0  0  0  0  0  0  0  0  0  0
  -14.5969   51.9592    3.6984 O   0  0  0  0  0  0  0  0  0  0  0  0
  -14.1302   52.3618    2.9493 H   0  0  0  0  0  0  0  0  0  0  0  0
  -12.4821   51.4991    4.8232 C   0  0  0  0  0  0  0  0  0  0  0  0
  -12.5461   52.9406    5.2191 N   0  0  0  0  0  0  0  0  0  0  0  0
  -11.7048   53.9048    4.0713 S   0  0  0  0  0  0  0  0  0  0  0  0
  -10.2249   53.9285    4.3523 O   0  0  0  0  0  0  0  0  0  0  0  0
  -11.9532   53.4732    2.6351 O   0  0  0  0  0  0  0  0  0  0  0  0
  -12.3720   55.5696    4.0831 C   0  0  0  0  0  0  0  0  0  0  0  0
  -13.7269   55.7717    3.7702 C   0  0  0  0  0  0  0  0  0  0  0  0
  -14.2528   57.0621    3.7989 C   0  0  0  0  0  0  0  0  0  0  0  0
  -13.4248   58.1501    4.1217 C   0  0  0  0  0  0  0  0  0  0  0  0
  -12.0887   57.9442    4.4207 C   0  0  0  0  0  0  0  0  0  0  0  0
  -11.5573   56.6544    4.4046 C   0  0  0  0  0  0  0  0  0  0  0  0
  -13.9109   59.4298    4.1423 O   0  0  0  0  0  0  0  0  0  0  0  0
  -14.0599   59.8992    5.4844 C   0  0  0  0  0  0  0  0  0  0  0  0
  -12.0258   53.1221    6.6002 C   0  0  0  0  0  0  0  0  0  0  0  0
  -12.9207   54.0163    7.4643 C   0  0  0  0  0  0  0  0  0  0  0  0
  -12.7811   53.6314    8.9345 C   0  0  0  0  0  0  0  0  0  0  0  0
  -14.3764   53.9268    7.0087 C   0  0  0  0  0  0  0  0  0  0  0  0
  -12.5524   48.8986    3.4490 C   0  0  0  0  0  0  0  0  0  0  0  0
  -12.6568   47.6546    2.5455 C   0  0  0  0  0  0  0  0  0  0  0  0
  -11.5616   47.2156    1.7835 C   0  0  0  0  0  0  0  0  0  0  0  0
  -11.6701   46.1032    0.9531 C   0  0  0  0  0  0  0  0  0  0  0  0
  -12.8897   45.4295    0.8761 C   0  0  0  0  0  0  0  0  0  0  0  0
  -13.9854   45.8703    1.6189 C   0  0  0  0  0  0  0  0  0  0  0  0
  -13.8676   46.9716    2.4651 C   0  0  0  0  0  0  0  0  0  0  0  0
  -13.0205   44.3506    0.0544 O   0  0  0  0  0  0  0  0  0  0  0  0
  -14.4219   44.0906   -0.0748 C   0  0  0  0  0  0  0  0  0  0  0  0
  -14.9464   44.5261   -1.7814 P   0  0  0  0  0  0  0  0  0  0  0  0
  -14.8452   43.0967   -2.5444 O   0  0  0  0  0  0  0  0  0  0  0  0
  -16.5170   44.9258   -1.8148 O   0  0  0  0  0  0  0  0  0  0  0  0
  -17.1695   45.2903   -0.5840 C   0  0  0  0  0  0  0  0  0  0  0  0
  -17.0324   46.7975   -0.3384 C   0  0  0  0  0  0  0  0  0  0  0  0
  -13.8782   45.5459   -2.4895 O   0  0  0  0  0  0  0  0  0  0  0  0
  -14.0353   46.9732   -2.6249 C   0  0  0  0  0  0  0  0  0  0  0  0
  -14.8746   47.2897   -3.8942 C   0  0  0  0  0  0  0  0  0  0  0  0
  2  1  1  0  0  0
  2  3  1  0  0  0
  7 14  1  0  0  0
  7  8  1  0  0  0
  7 11  1  0  0  0
 42 43  1  0  0  0
 42 39  1  0  0  0
  1 35  1  0  0  0
  1 15  1  0  0  0
 35 36  1  0  0  0
 36 37  2  0  0  0
 36 41  1  0  0  0
 37 38  1  0  0  0
 38 39  2  0  0  0
 39 40  1  0  0  0
 43 44  1  0  0  0
 44 46  1  0  0  0
 44 49  1  0  0  0
 44 45  2  0  0  0
 49 50  1  0  0  0
 50 51  1  0  0  0
 46 47  1  0  0  0
 47 48  1  0  0  0
 40 41  2  0  0  0
 15 18  1  0  0  0
 15 16  1  0  0  0
 18 19  1  0  0  0
 19 20  1  0  0  0
 19 31  1  0  0  0
 31 32  1  0  0  0
 32 34  1  0  0  0
 32 33  1  0  0  0
 20 22  2  0  0  0
 20 23  1  0  0  0
 20 21  2  0  0  0
 23 28  2  0  0  0
 23 24  1  0  0  0
 24 25  2  0  0  0
 25 26  1  0  0  0
 26 29  1  0  0  0
 26 27  2  0  0  0
 29 30  1  0  0  0
 27 28  1  0  0  0
  3  4  2  0  0  0
  3  6  1  0  0  0
  6  8  1  0  0  0
  8  9  1  0  0  0
  9 10  1  0  0  0
 10 11  1  0  0  0
 11 12  1  0  0  0
 12 13  1  0  0  0
 13 14  1  0  0  0
  2  5  1  0  0  0
 16 17  1  0  0  0
M  END
> <minimizedAffinity>
-8.34274

$$$$
4M8X_KGQ_B_101


 51 54  0  0  0  0  0  0  0  0999 V2000
  -12.2455   52.6356    3.8185 C   0  0  0  0  0  0  0  0  0  0  0  0
  -11.9916   52.5067    2.3493 N   0  0  0  0  0  0  0  0  0  0  0  0
  -12.4620   53.2717    1.3425 C   0  0  0  0  0  0  0  0  0  0  0  0
  -13.2469   54.2382    1.4359 O   0  0  0  0  0  0  0  0  0  0  0  0
  -11.4027   51.7645    2.0817 H   0  0  0  0  0  0  0  0  0  0  0  0
  -12.0388   52.8574    0.0942 O   0  0  0  0  0  0  0  0  0  0  0  0
  -13.4151   51.2096   -1.2712 C   0  0  0  0  0  0  0  0  0  0  0  0
  -13.0986   52.6744   -0.8888 C   0  0  0  0  0  0  0  0  0  0  0  0
  -12.5232   53.1797   -2.1938 C   0  0  0  0  0  0  0  0  0  0  0  0
  -11.6694   52.0923   -2.6416 O   0  0  0  0  0  0  0  0  0  0  0  0
  -12.3133   50.8281   -2.2591 C   0  0  0  0  0  0  0  0  0  0  0  0
  -11.3906   49.9743   -1.5080 O   0  0  0  0  0  0  0  0  0  0  0  0
  -12.1611   49.2723   -0.5033 C   0  0  0  0  0  0  0  0  0  0  0  0
  -13.2963   50.1975   -0.1189 C   0  0  0  0  0  0  0  0  0  0  0  0
  -11.4079   53.7971    4.3341 C   0  0  0  0  0  0  0  0  0  0  0  0
  -10.0821   53.4557    3.9322 O   0  0  0  0  0  0  0  0  0  0  0  0
   -9.8262   52.6149    4.3427 H   0  0  0  0  0  0  0  0  0  0  0  0
  -11.4407   54.0380    5.8724 C   0  0  0  0  0  0  0  0  0  0  0  0
  -12.5556   54.9086    6.3602 N   0  0  0  0  0  0  0  0  0  0  0  0
  -13.4100   54.1183    7.6253 S   0  0  0  0  0  0  0  0  0  0  0  0
  -14.8669   53.9473    7.2818 O   0  0  0  0  0  0  0  0  0  0  0  0
  -12.8054   52.7761    8.0041 O   0  0  0  0  0  0  0  0  0  0  0  0
  -13.2296   55.0530    9.1454 C   0  0  0  0  0  0  0  0  0  0  0  0
  -12.6304   56.3234    9.1068 C   0  0  0  0  0  0  0  0  0  0  0  0
  -12.5079   57.0605   10.2833 C   0  0  0  0  0  0  0  0  0  0  0  0
  -12.9661   56.5241   11.4981 C   0  0  0  0  0  0  0  0  0  0  0  0
  -13.5480   55.2681   11.5298 C   0  0  0  0  0  0  0  0  0  0  0  0
  -13.6839   54.5286   10.3547 C   0  0  0  0  0  0  0  0  0  0  0  0
  -12.8444   57.2194   12.6712 O   0  0  0  0  0  0  0  0  0  0  0  0
  -13.9510   58.1049   12.8586 C   0  0  0  0  0  0  0  0  0  0  0  0
  -13.4442   55.2934    5.2317 C   0  0  0  0  0  0  0  0  0  0  0  0
  -13.7166   56.7997    5.1710 C   0  0  0  0  0  0  0  0  0  0  0  0
  -14.1434   57.1977    3.7608 C   0  0  0  0  0  0  0  0  0  0  0  0
  -12.4874   57.5903    5.6167 C   0  0  0  0  0  0  0  0  0  0  0  0
  -11.7279   51.3255    4.4761 C   0  0  0  0  0  0  0  0  0  0  0  0
  -12.3930   50.0936    3.8320 C   0  0  0  0  0  0  0  0  0  0  0  0
  -13.7897   49.9980    3.7178 C   0  0  0  0  0  0  0  0  0  0  0  0
  -14.3841   48.8722    3.1538 C   0  0  0  0  0  0  0  0  0  0  0  0
  -13.5736   47.8269    2.7092 C   0  0  0  0  0  0  0  0  0  0  0  0
  -12.1864   47.9098    2.8341 C   0  0  0  0  0  0  0  0  0  0  0  0
  -11.5935   49.0470    3.3800 C   0  0  0  0  0  0  0  0  0  0  0  0
  -14.1380   46.7092    2.1722 O   0  0  0  0  0  0  0  0  0  0  0  0
  -13.1440   46.0939    1.3466 C   0  0  0  0  0  0  0  0  0  0  0  0
  -13.9587   45.4332   -0.1623 P   0  0  0  0  0  0  0  0  0  0  0  0
  -13.4065   43.9073   -0.2077 O   0  0  0  0  0  0  0  0  0  0  0  0
  -15.5600   45.3091    0.0575 O   0  0  0  0  0  0  0  0  0  0  0  0
  -16.1543   43.9993    0.1255 C   0  0  0  0  0  0  0  0  0  0  0  0
  -17.1297   43.7994   -1.0405 C   0  0  0  0  0  0  0  0  0  0  0  0
  -13.4244   46.1970   -1.5091 O   0  0  0  0  0  0  0  0  0  0  0  0
  -14.1753   46.3891   -2.7255 C   0  0  0  0  0  0  0  0  0  0  0  0
  -14.8441   47.7921   -2.7120 C   0  0  0  0  0  0  0  0  0  0  0  0
  2  1  1  0  0  0
  2  3  1  0  0  0
  7 14  1  0  0  0
  7  8  1  0  0  0
  7 11  1  0  0  0
 42 43  1  0  0  0
 42 39  1  0  0  0
  1 35  1  0  0  0
  1 15  1  0  0  0
 35 36  1  0  0  0
 36 37  2  0  0  0
 36 41  1  0  0  0
 37 38  1  0  0  0
 38 39  2  0  0  0
 39 40  1  0  0  0
 43 44  1  0  0  0
 44 46  1  0  0  0
 44 49  1  0  0  0
 44 45  2  0  0  0
 49 50  1  0  0  0
 50 51  1  0  0  0
 46 47  1  0  0  0
 47 48  1  0  0  0
 40 41  2  0  0  0
 15 18  1  0  0  0
 15 16  1  0  0  0
 18 19  1  0  0  0
 19 20  1  0  0  0
 19 31  1  0  0  0
 31 32  1  0  0  0
 32 34  1  0  0  0
 32 33  1  0  0  0
 20 22  2  0  0  0
 20 23  1  0  0  0
 20 21  2  0  0  0
 23 28  2  0  0  0
 23 24  1  0  0  0
 24 25  2  0  0  0
 25 26  1  0  0  0
 26 29  1  0  0  0
 26 27  2  0  0  0
 29 30  1  0  0  0
 27 28  1  0  0  0
  3  4  2  0  0  0
  3  6  1  0  0  0
  6  8  1  0  0  0
  8  9  1  0  0  0
  9 10  1  0  0  0
 10 11  1  0  0  0
 11 12  1  0  0  0
 12 13  1  0  0  0
 13 14  1  0  0  0
  2  5  1  0  0  0
 16 17  1  0  0  0
M  END
> <minimizedAffinity>
-8.23476

$$$$
4M8X_KGQ_B_101


 51 54  0  0  0  0  0  0  0  0999 V2000
  -12.2421   54.3919    4.3739 C   0  0  0  0  0  0  0  0  0  0  0  0
  -12.0158   54.6438    5.8317 N   0  0  0  0  0  0  0  0  0  0  0  0
  -12.4014   53.8955    6.8860 C   0  0  0  0  0  0  0  0  0  0  0  0
  -13.0680   52.8402    6.8555 O   0  0  0  0  0  0  0  0  0  0  0  0
  -11.5192   55.4652    6.0505 H   0  0  0  0  0  0  0  0  0  0  0  0
  -12.0385   54.4359    8.1048 O   0  0  0  0  0  0  0  0  0  0  0  0
  -13.4584   55.9665    9.5590 C   0  0  0  0  0  0  0  0  0  0  0  0
  -13.1147   54.5360    9.0819 C   0  0  0  0  0  0  0  0  0  0  0  0
  -12.5504   53.9501   10.3576 C   0  0  0  0  0  0  0  0  0  0  0  0
  -11.7193   55.0158   10.8919 O   0  0  0  0  0  0  0  0  0  0  0  0
  -12.3764   56.2943   10.5873 C   0  0  0  0  0  0  0  0  0  0  0  0
  -11.4561   57.2105    9.9107 O   0  0  0  0  0  0  0  0  0  0  0  0
  -12.2226   57.9693    8.9451 C   0  0  0  0  0  0  0  0  0  0  0  0
  -13.3384   57.0571    8.4809 C   0  0  0  0  0  0  0  0  0  0  0  0
  -11.2800   53.2962    3.9374 C   0  0  0  0  0  0  0  0  0  0  0  0
  -10.0166   53.7508    4.4200 O   0  0  0  0  0  0  0  0  0  0  0  0
   -9.8025   54.6041    4.0115 H   0  0  0  0  0  0  0  0  0  0  0  0
  -11.1888   53.0325    2.4052 C   0  0  0  0  0  0  0  0  0  0  0  0
  -12.1908   52.0632    1.8619 N   0  0  0  0  0  0  0  0  0  0  0  0
  -13.2337   52.8557    0.7487 S   0  0  0  0  0  0  0  0  0  0  0  0
  -14.6212   53.0159    1.3135 O   0  0  0  0  0  0  0  0  0  0  0  0
  -12.7014   54.2037    0.2902 O   0  0  0  0  0  0  0  0  0  0  0  0
  -13.2849   51.9309   -0.7872 C   0  0  0  0  0  0  0  0  0  0  0  0
  -14.1362   52.3571   -1.8208 C   0  0  0  0  0  0  0  0  0  0  0  0
  -14.1625   51.6523   -3.0229 C   0  0  0  0  0  0  0  0  0  0  0  0
  -13.3546   50.5148   -3.1870 C   0  0  0  0  0  0  0  0  0  0  0  0
  -12.5244   50.0959   -2.1612 C   0  0  0  0  0  0  0  0  0  0  0  0
  -12.4845   50.8023   -0.9588 C   0  0  0  0  0  0  0  0  0  0  0  0
  -13.3719   49.7946   -4.3512 O   0  0  0  0  0  0  0  0  0  0  0  0
  -14.6828   49.7746   -4.9212 C   0  0  0  0  0  0  0  0  0  0  0  0
  -12.9369   51.4127    2.9715 C   0  0  0  0  0  0  0  0  0  0  0  0
  -12.8285   49.8847    2.9510 C   0  0  0  0  0  0  0  0  0  0  0  0
  -14.1431   49.2608    3.4111 C   0  0  0  0  0  0  0  0  0  0  0  0
  -11.6630   49.4132    3.8193 C   0  0  0  0  0  0  0  0  0  0  0  0
  -11.8631   55.7041    3.6315 C   0  0  0  0  0  0  0  0  0  0  0  0
  -12.5409   56.9192    4.2938 C   0  0  0  0  0  0  0  0  0  0  0  0
  -11.7818   57.9756    4.8237 C   0  0  0  0  0  0  0  0  0  0  0  0
  -12.4008   59.0602    5.4398 C   0  0  0  0  0  0  0  0  0  0  0  0
  -13.7927   59.0831    5.5360 C   0  0  0  0  0  0  0  0  0  0  0  0
  -14.5510   58.0292    5.0252 C   0  0  0  0  0  0  0  0  0  0  0  0
  -13.9295   56.9550    4.3907 C   0  0  0  0  0  0  0  0  0  0  0  0
  -14.4151   60.1266    6.1524 O   0  0  0  0  0  0  0  0  0  0  0  0
  -15.4522   59.5724    6.9682 C   0  0  0  0  0  0  0  0  0  0  0  0
  -15.4583   60.4447    8.5857 P   0  0  0  0  0  0  0  0  0  0  0  0
  -13.9489   61.0380    8.6588 O   0  0  0  0  0  0  0  0  0  0  0  0
  -16.4319   61.7398    8.5359 O   0  0  0  0  0  0  0  0  0  0  0  0
  -17.7796   61.6175    9.0278 C   0  0  0  0  0  0  0  0  0  0  0  0
  -18.7393   61.3112    7.8719 C   0  0  0  0  0  0  0  0  0  0  0  0
  -15.6410   59.3927    9.8276 O   0  0  0  0  0  0  0  0  0  0  0  0
  -14.9210   59.4271   11.0769 C   0  0  0  0  0  0  0  0  0  0  0  0
  -15.3022   58.1888   11.9354 C   0  0  0  0  0  0  0  0  0  0  0  0
  2  1  1  0  0  0
  2  3  1  0  0  0
  7 14  1  0  0  0
  7  8  1  0  0  0
  7 11  1  0  0  0
 42 43  1  0  0  0
 42 39  1  0  0  0
  1 35  1  0  0  0
  1 15  1  0  0  0
 35 36  1  0  0  0
 36 37  2  0  0  0
 36 41  1  0  0  0
 37 38  1  0  0  0
 38 39  2  0  0  0
 39 40  1  0  0  0
 43 44  1  0  0  0
 44 46  1  0  0  0
 44 49  1  0  0  0
 44 45  2  0  0  0
 49 50  1  0  0  0
 50 51  1  0  0  0
 46 47  1  0  0  0
 47 48  1  0  0  0
 40 41  2  0  0  0
 15 18  1  0  0  0
 15 16  1  0  0  0
 18 19  1  0  0  0
 19 20  1  0  0  0
 19 31  1  0  0  0
 31 32  1  0  0  0
 32 34  1  0  0  0
 32 33  1  0  0  0
 20 22  2  0  0  0
 20 23  1  0  0  0
 20 21  2  0  0  0
 23 28  2  0  0  0
 23 24  1  0  0  0
 24 25  2  0  0  0
 25 26  1  0  0  0
 26 29  1  0  0  0
 26 27  2  0  0  0
 29 30  1  0  0  0
 27 28  1  0  0  0
  3  4  2  0  0  0
  3  6  1  0  0  0
  6  8  1  0  0  0
  8  9  1  0  0  0
  9 10  1  0  0  0
 10 11  1  0  0  0
 11 12  1  0  0  0
 12 13  1  0  0  0
 13 14  1  0  0  0
  2  5  1  0  0  0
 16 17  1  0  0  0
M  END
> <minimizedAffinity>
-8.05392

$$$$
4M8X_KGQ_B_101


 51 54  0  0  0  0  0  0  0  0999 V2000
  -12.4670   49.8829    2.9177 C   0  0  0  0  0  0  0  0  0  0  0  0
  -12.4845   50.2322    1.4626 N   0  0  0  0  0  0  0  0  0  0  0  0
  -13.2659   51.1243    0.8194 C   0  0  0  0  0  0  0  0  0  0  0  0
  -14.1726   51.8250    1.3153 O   0  0  0  0  0  0  0  0  0  0  0  0
  -11.8396   49.7461    0.8995 H   0  0  0  0  0  0  0  0  0  0  0  0
  -13.0278   51.1828   -0.5404 O   0  0  0  0  0  0  0  0  0  0  0  0
  -13.9659   52.1105   -2.7159 C   0  0  0  0  0  0  0  0  0  0  0  0
  -13.6214   52.3248   -1.2235 C   0  0  0  0  0  0  0  0  0  0  0  0
  -12.5068   53.3410   -1.3430 C   0  0  0  0  0  0  0  0  0  0  0  0
  -11.7112   52.8550   -2.4578 O   0  0  0  0  0  0  0  0  0  0  0  0
  -12.6286   52.2613   -3.4401 C   0  0  0  0  0  0  0  0  0  0  0  0
  -12.2157   50.9007   -3.7900 O   0  0  0  0  0  0  0  0  0  0  0  0
  -13.4153   50.1168   -3.9956 C   0  0  0  0  0  0  0  0  0  0  0  0
  -14.4638   50.6991   -3.0713 C   0  0  0  0  0  0  0  0  0  0  0  0
  -11.5650   50.8845    3.6246 C   0  0  0  0  0  0  0  0  0  0  0  0
  -10.4821   50.0833    4.0951 O   0  0  0  0  0  0  0  0  0  0  0  0
  -10.8202   49.4081    4.7040 H   0  0  0  0  0  0  0  0  0  0  0  0
  -12.1995   51.6567    4.8190 C   0  0  0  0  0  0  0  0  0  0  0  0
  -12.8967   52.9309    4.4592 N   0  0  0  0  0  0  0  0  0  0  0  0
  -11.7884   54.0228    3.7283 S   0  0  0  0  0  0  0  0  0  0  0  0
  -10.4231   53.9242    4.3578 O   0  0  0  0  0  0  0  0  0  0  0  0
  -11.6797   53.8423    2.2230 O   0  0  0  0  0  0  0  0  0  0  0  0
  -12.4202   55.6962    3.8605 C   0  0  0  0  0  0  0  0  0  0  0  0
  -11.5759   56.7172    4.3287 C   0  0  0  0  0  0  0  0  0  0  0  0
  -12.0582   58.0221    4.4126 C   0  0  0  0  0  0  0  0  0  0  0  0
  -13.3849   58.3045    4.0471 C   0  0  0  0  0  0  0  0  0  0  0  0
  -14.2136   57.2919    3.5945 C   0  0  0  0  0  0  0  0  0  0  0  0
  -13.7350   55.9850    3.4975 C   0  0  0  0  0  0  0  0  0  0  0  0
  -13.8897   59.5742    4.1343 O   0  0  0  0  0  0  0  0  0  0  0  0
  -14.0625   59.9637    5.4989 C   0  0  0  0  0  0  0  0  0  0  0  0
  -13.5601   53.5141    5.6554 C   0  0  0  0  0  0  0  0  0  0  0  0
  -12.6985   53.4282    6.9192 C   0  0  0  0  0  0  0  0  0  0  0  0
  -13.4667   52.7151    8.0285 C   0  0  0  0  0  0  0  0  0  0  0  0
  -12.2533   54.8198    7.3663 C   0  0  0  0  0  0  0  0  0  0  0  0
  -11.8202   48.4737    3.0293 C   0  0  0  0  0  0  0  0  0  0  0  0
  -12.5808   47.4553    2.1581 C   0  0  0  0  0  0  0  0  0  0  0  0
  -13.9408   47.1823    2.3787 C   0  0  0  0  0  0  0  0  0  0  0  0
  -14.6158   46.2450    1.6011 C   0  0  0  0  0  0  0  0  0  0  0  0
  -13.9205   45.5663    0.5996 C   0  0  0  0  0  0  0  0  0  0  0  0
  -12.5657   45.8221    0.3861 C   0  0  0  0  0  0  0  0  0  0  0  0
  -11.8981   46.7760    1.1524 C   0  0  0  0  0  0  0  0  0  0  0  0
  -14.5593   44.6318   -0.1587 O   0  0  0  0  0  0  0  0  0  0  0  0
  -14.4313   45.0421   -1.5239 C   0  0  0  0  0  0  0  0  0  0  0  0
  -15.8692   46.1010   -1.9576 P   0  0  0  0  0  0  0  0  0  0  0  0
  -15.2885   47.5925   -1.6864 O   0  0  0  0  0  0  0  0  0  0  0  0
  -16.1712   46.0353   -3.5489 O   0  0  0  0  0  0  0  0  0  0  0  0
  -15.9851   47.2221   -4.3429 C   0  0  0  0  0  0  0  0  0  0  0  0
  -17.3434   47.8087   -4.7446 C   0  0  0  0  0  0  0  0  0  0  0  0
  -17.1188   45.8576   -0.9272 O   0  0  0  0  0  0  0  0  0  0  0  0
  -18.2702   45.0257   -1.1771 C   0  0  0  0  0  0  0  0  0  0  0  0
  -17.8124   43.5651   -1.4468 C   0  0  0  0  0  0  0  0  0  0  0  0
  2  1  1  0  0  0
  2  3  1  0  0  0
  7 14  1  0  0  0
  7  8  1  0  0  0
  7 11  1  0  0  0
 42 43  1  0  0  0
 42 39  1  0  0  0
  1 35  1  0  0  0
  1 15  1  0  0  0
 35 36  1  0  0  0
 36 37  2  0  0  0
 36 41  1  0  0  0
 37 38  1  0  0  0
 38 39  2  0  0  0
 39 40  1  0  0  0
 43 44  1  0  0  0
 44 46  1  0  0  0
 44 49  1  0  0  0
 44 45  2  0  0  0
 49 50  1  0  0  0
 50 51  1  0  0  0
 46 47  1  0  0  0
 47 48  1  0  0  0
 40 41  2  0  0  0
 15 18  1  0  0  0
 15 16  1  0  0  0
 18 19  1  0  0  0
 19 20  1  0  0  0
 19 31  1  0  0  0
 31 32  1  0  0  0
 32 34  1  0  0  0
 32 33  1  0  0  0
 20 22  2  0  0  0
 20 23  1  0  0  0
 20 21  2  0  0  0
 23 28  2  0  0  0
 23 24  1  0  0  0
 24 25  2  0  0  0
 25 26  1  0  0  0
 26 29  1  0  0  0
 26 27  2  0  0  0
 29 30  1  0  0  0
 27 28  1  0  0  0
  3  4  2  0  0  0
  3  6  1  0  0  0
  6  8  1  0  0  0
  8  9  1  0  0  0
  9 10  1  0  0  0
 10 11  1  0  0  0
 11 12  1  0  0  0
 12 13  1  0  0  0
 13 14  1  0  0  0
  2  5  1  0  0  0
 16 17  1  0  0  0
M  END
> <minimizedAffinity>
-7.94258

$$$$
4M8X_KGQ_B_101


 51 54  0  0  0  0  0  0  0  0999 V2000
  -12.2008   52.7458    3.5189 C   0  0  0  0  0  0  0  0  0  0  0  0
  -11.9689   52.5165    2.0582 N   0  0  0  0  0  0  0  0  0  0  0  0
  -12.4074   53.2451    1.0108 C   0  0  0  0  0  0  0  0  0  0  0  0
  -13.1381   54.2567    1.0517 O   0  0  0  0  0  0  0  0  0  0  0  0
  -11.4236   51.7288    1.8314 H   0  0  0  0  0  0  0  0  0  0  0  0
  -12.0196   52.7351   -0.2134 O   0  0  0  0  0  0  0  0  0  0  0  0
  -13.3784   50.9095   -1.3512 C   0  0  0  0  0  0  0  0  0  0  0  0
  -13.1113   52.4158   -1.1241 C   0  0  0  0  0  0  0  0  0  0  0  0
  -12.6152   52.8159   -2.4964 C   0  0  0  0  0  0  0  0  0  0  0  0
  -11.7338   51.7257   -2.8790 O   0  0  0  0  0  0  0  0  0  0  0  0
  -12.3038   50.4793   -2.3492 C   0  0  0  0  0  0  0  0  0  0  0  0
  -11.3129   49.7396   -1.5648 O   0  0  0  0  0  0  0  0  0  0  0  0
  -12.0077   49.1071   -0.4635 C   0  0  0  0  0  0  0  0  0  0  0  0
  -13.1655   50.0187   -0.1154 C   0  0  0  0  0  0  0  0  0  0  0  0
  -11.3632   53.9451    3.9391 C   0  0  0  0  0  0  0  0  0  0  0  0
  -10.0579   53.3954    4.1120 O   0  0  0  0  0  0  0  0  0  0  0  0
  -10.0832   52.7127    4.8005 H   0  0  0  0  0  0  0  0  0  0  0  0
  -11.8031   54.6655    5.2479 C   0  0  0  0  0  0  0  0  0  0  0  0
  -13.2296   55.1158    5.2820 N   0  0  0  0  0  0  0  0  0  0  0  0
  -13.3716   56.6770    4.5767 S   0  0  0  0  0  0  0  0  0  0  0  0
  -12.2004   56.9839    3.6800 O   0  0  0  0  0  0  0  0  0  0  0  0
  -14.6727   56.8701    3.8148 O   0  0  0  0  0  0  0  0  0  0  0  0
  -13.5093   57.9098    5.8721 C   0  0  0  0  0  0  0  0  0  0  0  0
  -14.7729   58.4331    6.1945 C   0  0  0  0  0  0  0  0  0  0  0  0
  -14.8853   59.3758    7.2149 C   0  0  0  0  0  0  0  0  0  0  0  0
  -13.7377   59.8084    7.8999 C   0  0  0  0  0  0  0  0  0  0  0  0
  -12.4948   59.2944    7.5711 C   0  0  0  0  0  0  0  0  0  0  0  0
  -12.3753   58.3426    6.5583 C   0  0  0  0  0  0  0  0  0  0  0  0
  -13.8167   60.7447    8.8957 O   0  0  0  0  0  0  0  0  0  0  0  0
  -13.9444   60.1210   10.1757 C   0  0  0  0  0  0  0  0  0  0  0  0
  -13.7532   55.0737    6.6731 C   0  0  0  0  0  0  0  0  0  0  0  0
  -12.7721   54.4375    7.6629 C   0  0  0  0  0  0  0  0  0  0  0  0
  -13.3219   53.1034    8.1600 C   0  0  0  0  0  0  0  0  0  0  0  0
  -12.4896   55.3839    8.8287 C   0  0  0  0  0  0  0  0  0  0  0  0
  -11.6642   51.4876    4.2575 C   0  0  0  0  0  0  0  0  0  0  0  0
  -12.3883   50.2187    3.7674 C   0  0  0  0  0  0  0  0  0  0  0  0
  -13.7904   50.1591    3.7074 C   0  0  0  0  0  0  0  0  0  0  0  0
  -14.4379   49.0016    3.2837 C   0  0  0  0  0  0  0  0  0  0  0  0
  -13.6755   47.8888    2.9265 C   0  0  0  0  0  0  0  0  0  0  0  0
  -12.2830   47.9370    2.9988 C   0  0  0  0  0  0  0  0  0  0  0  0
  -11.6372   49.1041    3.4034 C   0  0  0  0  0  0  0  0  0  0  0  0
  -14.2920   46.7410    2.5278 O   0  0  0  0  0  0  0  0  0  0  0  0
  -13.7528   46.3998    1.2467 C   0  0  0  0  0  0  0  0  0  0  0  0
  -15.1316   46.2974    0.0361 P   0  0  0  0  0  0  0  0  0  0  0  0
  -16.3412   47.0291    0.8343 O   0  0  0  0  0  0  0  0  0  0  0  0
  -14.8339   47.2331   -1.2536 O   0  0  0  0  0  0  0  0  0  0  0  0
  -15.8880   47.4599   -2.2080 C   0  0  0  0  0  0  0  0  0  0  0  0
  -15.4316   48.4651   -3.2719 C   0  0  0  0  0  0  0  0  0  0  0  0
  -15.5768   44.7434   -0.2277 O   0  0  0  0  0  0  0  0  0  0  0  0
  -16.7311   44.0879    0.3364 C   0  0  0  0  0  0  0  0  0  0  0  0
  -17.9269   44.1916   -0.6510 C   0  0  0  0  0  0  0  0  0  0  0  0
  2  1  1  0  0  0
  2  3  1  0  0  0
  7 14  1  0  0  0
  7  8  1  0  0  0
  7 11  1  0  0  0
 42 43  1  0  0  0
 42 39  1  0  0  0
  1 35  1  0  0  0
  1 15  1  0  0  0
 35 36  1  0  0  0
 36 37  2  0  0  0
 36 41  1  0  0  0
 37 38  1  0  0  0
 38 39  2  0  0  0
 39 40  1  0  0  0
 43 44  1  0  0  0
 44 46  1  0  0  0
 44 49  1  0  0  0
 44 45  2  0  0  0
 49 50  1  0  0  0
 50 51  1  0  0  0
 46 47  1  0  0  0
 47 48  1  0  0  0
 40 41  2  0  0  0
 15 18  1  0  0  0
 15 16  1  0  0  0
 18 19  1  0  0  0
 19 20  1  0  0  0
 19 31  1  0  0  0
 31 32  1  0  0  0
 32 34  1  0  0  0
 32 33  1  0  0  0
 20 22  2  0  0  0
 20 23  1  0  0  0
 20 21  2  0  0  0
 23 28  2  0  0  0
 23 24  1  0  0  0
 24 25  2  0  0  0
 25 26  1  0  0  0
 26 29  1  0  0  0
 26 27  2  0  0  0
 29 30  1  0  0  0
 27 28  1  0  0  0
  3  4  2  0  0  0
  3  6  1  0  0  0
  6  8  1  0  0  0
  8  9  1  0  0  0
  9 10  1  0  0  0
 10 11  1  0  0  0
 11 12  1  0  0  0
 12 13  1  0  0  0
 13 14  1  0  0  0
  2  5  1  0  0  0
 16 17  1  0  0  0
M  END
> <minimizedAffinity>
-7.83756

$$$$
4M8X_KGQ_B_101


 51 54  0  0  0  0  0  0  0  0999 V2000
  -12.6316   50.0808    2.9623 C   0  0  0  0  0  0  0  0  0  0  0  0
  -12.5762   50.4043    1.5021 N   0  0  0  0  0  0  0  0  0  0  0  0
  -13.3607   51.2433    0.7945 C   0  0  0  0  0  0  0  0  0  0  0  0
  -14.3314   51.9036    1.2198 O   0  0  0  0  0  0  0  0  0  0  0  0
  -11.8733   49.9433    0.9895 H   0  0  0  0  0  0  0  0  0  0  0  0
  -13.0416   51.2915   -0.5490 O   0  0  0  0  0  0  0  0  0  0  0  0
  -13.9462   52.1468   -2.7680 C   0  0  0  0  0  0  0  0  0  0  0  0
  -13.6150   52.4133   -1.2809 C   0  0  0  0  0  0  0  0  0  0  0  0
  -12.4879   53.4122   -1.4262 C   0  0  0  0  0  0  0  0  0  0  0  0
  -11.6860   52.8760   -2.5131 O   0  0  0  0  0  0  0  0  0  0  0  0
  -12.5996   52.2558   -3.4826 C   0  0  0  0  0  0  0  0  0  0  0  0
  -12.1984   50.8785   -3.7766 O   0  0  0  0  0  0  0  0  0  0  0  0
  -13.4045   50.1006   -3.9659 C   0  0  0  0  0  0  0  0  0  0  0  0
  -14.4561   50.7285   -3.0757 C   0  0  0  0  0  0  0  0  0  0  0  0
  -11.9492   51.2141    3.7149 C   0  0  0  0  0  0  0  0  0  0  0  0
  -10.6035   50.7599    3.8521 O   0  0  0  0  0  0  0  0  0  0  0  0
  -10.5917   49.9316    4.3568 H   0  0  0  0  0  0  0  0  0  0  0  0
  -12.5304   51.5539    5.1193 C   0  0  0  0  0  0  0  0  0  0  0  0
  -12.6003   53.0121    5.4472 N   0  0  0  0  0  0  0  0  0  0  0  0
  -11.7501   53.9236    4.2634 S   0  0  0  0  0  0  0  0  0  0  0  0
  -10.2687   53.9347    4.5374 O   0  0  0  0  0  0  0  0  0  0  0  0
  -12.0115   53.4468    2.8439 O   0  0  0  0  0  0  0  0  0  0  0  0
  -12.3924   55.5977    4.2207 C   0  0  0  0  0  0  0  0  0  0  0  0
  -13.7699   55.8032    4.0344 C   0  0  0  0  0  0  0  0  0  0  0  0
  -14.2744   57.1024    4.0216 C   0  0  0  0  0  0  0  0  0  0  0  0
  -13.4043   58.1944    4.1766 C   0  0  0  0  0  0  0  0  0  0  0  0
  -12.0469   57.9845    4.3514 C   0  0  0  0  0  0  0  0  0  0  0  0
  -11.5357   56.6867    4.3761 C   0  0  0  0  0  0  0  0  0  0  0  0
  -13.8702   59.4815    4.1524 O   0  0  0  0  0  0  0  0  0  0  0  0
  -14.0603   59.9821    5.4780 C   0  0  0  0  0  0  0  0  0  0  0  0
  -12.0930   53.2587    6.8230 C   0  0  0  0  0  0  0  0  0  0  0  0
  -13.1864   53.1583    7.8912 C   0  0  0  0  0  0  0  0  0  0  0  0
  -14.4369   53.9026    7.4313 C   0  0  0  0  0  0  0  0  0  0  0  0
  -12.6864   53.6991    9.2300 C   0  0  0  0  0  0  0  0  0  0  0  0
  -11.7975   48.7843    3.1627 C   0  0  0  0  0  0  0  0  0  0  0  0
  -12.2392   47.6938    2.1677 C   0  0  0  0  0  0  0  0  0  0  0  0
  -13.5406   47.1661    2.1979 C   0  0  0  0  0  0  0  0  0  0  0  0
  -13.9257   46.1656    1.3093 C   0  0  0  0  0  0  0  0  0  0  0  0
  -12.9964   45.6807    0.3882 C   0  0  0  0  0  0  0  0  0  0  0  0
  -11.6978   46.1902    0.3638 C   0  0  0  0  0  0  0  0  0  0  0  0
  -11.3216   47.2062    1.2407 C   0  0  0  0  0  0  0  0  0  0  0  0
  -13.3492   44.6885   -0.4763 O   0  0  0  0  0  0  0  0  0  0  0  0
  -14.4147   43.9571    0.1386 C   0  0  0  0  0  0  0  0  0  0  0  0
  -13.8243   42.2567    0.5090 P   0  0  0  0  0  0  0  0  0  0  0  0
  -13.2725   41.7649   -0.9364 O   0  0  0  0  0  0  0  0  0  0  0  0
  -12.5257   42.2983    1.4782 O   0  0  0  0  0  0  0  0  0  0  0  0
  -12.0329   41.0656    2.0361 C   0  0  0  0  0  0  0  0  0  0  0  0
  -11.7052   41.2509    3.5223 C   0  0  0  0  0  0  0  0  0  0  0  0
  -15.0660   41.2747    0.9289 O   0  0  0  0  0  0  0  0  0  0  0  0
  -16.4394   41.6781    1.1064 C   0  0  0  0  0  0  0  0  0  0  0  0
  -17.3783   40.6727    0.3829 C   0  0  0  0  0  0  0  0  0  0  0  0
  2  1  1  0  0  0
  2  3  1  0  0  0
  7 14  1  0  0  0
  7  8  1  0  0  0
  7 11  1  0  0  0
 42 43  1  0  0  0
 42 39  1  0  0  0
  1 35  1  0  0  0
  1 15  1  0  0  0
 35 36  1  0  0  0
 36 37  2  0  0  0
 36 41  1  0  0  0
 37 38  1  0  0  0
 38 39  2  0  0  0
 39 40  1  0  0  0
 43 44  1  0  0  0
 44 46  1  0  0  0
 44 49  1  0  0  0
 44 45  2  0  0  0
 49 50  1  0  0  0
 50 51  1  0  0  0
 46 47  1  0  0  0
 47 48  1  0  0  0
 40 41  2  0  0  0
 15 18  1  0  0  0
 15 16  1  0  0  0
 18 19  1  0  0  0
 19 20  1  0  0  0
 19 31  1  0  0  0
 31 32  1  0  0  0
 32 34  1  0  0  0
 32 33  1  0  0  0
 20 22  2  0  0  0
 20 23  1  0  0  0
 20 21  2  0  0  0
 23 28  2  0  0  0
 23 24  1  0  0  0
 24 25  2  0  0  0
 25 26  1  0  0  0
 26 29  1  0  0  0
 26 27  2  0  0  0
 29 30  1  0  0  0
 27 28  1  0  0  0
  3  4  2  0  0  0
  3  6  1  0  0  0
  6  8  1  0  0  0
  8  9  1  0  0  0
  9 10  1  0  0  0
 10 11  1  0  0  0
 11 12  1  0  0  0
 12 13  1  0  0  0
 13 14  1  0  0  0
  2  5  1  0  0  0
 16 17  1  0  0  0
M  END
> <minimizedAffinity>
-7.80200

$$$$
4M8X_KGQ_B_101


 51 54  0  0  0  0  0  0  0  0999 V2000
  -12.3261   53.7500    4.1891 C   0  0  0  0  0  0  0  0  0  0  0  0
  -12.0717   54.1447    5.6102 N   0  0  0  0  0  0  0  0  0  0  0  0
  -12.4809   53.5330    6.7409 C   0  0  0  0  0  0  0  0  0  0  0  0
  -13.1976   52.5142    6.8277 O   0  0  0  0  0  0  0  0  0  0  0  0
  -11.5339   54.9596    5.7368 H   0  0  0  0  0  0  0  0  0  0  0  0
  -12.0790   54.1819    7.8926 O   0  0  0  0  0  0  0  0  0  0  0  0
  -13.3995   55.8312    9.3102 C   0  0  0  0  0  0  0  0  0  0  0  0
  -13.1214   54.3680    8.8934 C   0  0  0  0  0  0  0  0  0  0  0  0
  -12.5408   53.8226   10.1797 C   0  0  0  0  0  0  0  0  0  0  0  0
  -11.6566   54.8808   10.6384 O   0  0  0  0  0  0  0  0  0  0  0  0
  -12.2765   56.1670   10.2908 C   0  0  0  0  0  0  0  0  0  0  0  0
  -11.3445   57.0154    9.5452 O   0  0  0  0  0  0  0  0  0  0  0  0
  -12.1118   57.7556    8.5658 C   0  0  0  0  0  0  0  0  0  0  0  0
  -13.2728   56.8644    8.1777 C   0  0  0  0  0  0  0  0  0  0  0  0
  -11.3933   52.5948    3.8543 C   0  0  0  0  0  0  0  0  0  0  0  0
  -10.1311   53.2314    3.6610 O   0  0  0  0  0  0  0  0  0  0  0  0
  -10.1976   53.8662    2.9306 H   0  0  0  0  0  0  0  0  0  0  0  0
  -11.7570   51.7630    2.5888 C   0  0  0  0  0  0  0  0  0  0  0  0
  -13.1969   51.3733    2.4712 N   0  0  0  0  0  0  0  0  0  0  0  0
  -13.4415   49.8113    3.1457 S   0  0  0  0  0  0  0  0  0  0  0  0
  -12.4027   49.4944    4.1900 O   0  0  0  0  0  0  0  0  0  0  0  0
  -14.8340   49.6247    3.7260 O   0  0  0  0  0  0  0  0  0  0  0  0
  -13.4121   48.5829    1.8392 C   0  0  0  0  0  0  0  0  0  0  0  0
  -14.6238   48.1357    1.2858 C   0  0  0  0  0  0  0  0  0  0  0  0
  -14.6028   47.1966    0.2562 C   0  0  0  0  0  0  0  0  0  0  0  0
  -13.3768   46.6917   -0.2080 C   0  0  0  0  0  0  0  0  0  0  0  0
  -12.1872   47.1308    0.3479 C   0  0  0  0  0  0  0  0  0  0  0  0
  -12.1993   48.0786    1.3714 C   0  0  0  0  0  0  0  0  0  0  0  0
  -13.3273   45.7571   -1.2072 O   0  0  0  0  0  0  0  0  0  0  0  0
  -14.0657   44.5862   -0.8500 C   0  0  0  0  0  0  0  0  0  0  0  0
  -13.6413   51.4538    1.0545 C   0  0  0  0  0  0  0  0  0  0  0  0
  -12.5341   51.9234    0.1055 C   0  0  0  0  0  0  0  0  0  0  0  0
  -12.9026   53.2749   -0.5001 C   0  0  0  0  0  0  0  0  0  0  0  0
  -12.2792   50.8839   -0.9850 C   0  0  0  0  0  0  0  0  0  0  0  0
  -11.9325   54.9709    3.3110 C   0  0  0  0  0  0  0  0  0  0  0  0
  -12.5065   56.2734    3.9013 C   0  0  0  0  0  0  0  0  0  0  0  0
  -11.6621   57.2888    4.3796 C   0  0  0  0  0  0  0  0  0  0  0  0
  -12.1885   58.4539    4.9312 C   0  0  0  0  0  0  0  0  0  0  0  0
  -13.5737   58.6002    5.0147 C   0  0  0  0  0  0  0  0  0  0  0  0
  -14.4173   57.5882    4.5554 C   0  0  0  0  0  0  0  0  0  0  0  0
  -13.8874   56.4323    3.9847 C   0  0  0  0  0  0  0  0  0  0  0  0
  -14.1070   59.7248    5.5689 O   0  0  0  0  0  0  0  0  0  0  0  0
  -15.1408   59.3008    6.4632 C   0  0  0  0  0  0  0  0  0  0  0  0
  -15.1839   60.4472    7.8988 P   0  0  0  0  0  0  0  0  0  0  0  0
  -13.7598   61.2150    7.7649 O   0  0  0  0  0  0  0  0  0  0  0  0
  -16.3145   61.5894    7.6876 O   0  0  0  0  0  0  0  0  0  0  0  0
  -17.5562   61.4823    8.4089 C   0  0  0  0  0  0  0  0  0  0  0  0
  -18.3852   60.3128    7.8650 C   0  0  0  0  0  0  0  0  0  0  0  0
  -15.1760   59.6258    9.3158 O   0  0  0  0  0  0  0  0  0  0  0  0
  -14.8375   60.1721   10.6071 C   0  0  0  0  0  0  0  0  0  0  0  0
  -14.1225   59.0894   11.4627 C   0  0  0  0  0  0  0  0  0  0  0  0
  2  1  1  0  0  0
  2  3  1  0  0  0
  7 14  1  0  0  0
  7  8  1  0  0  0
  7 11  1  0  0  0
 42 43  1  0  0  0
 42 39  1  0  0  0
  1 35  1  0  0  0
  1 15  1  0  0  0
 35 36  1  0  0  0
 36 37  2  0  0  0
 36 41  1  0  0  0
 37 38  1  0  0  0
 38 39  2  0  0  0
 39 40  1  0  0  0
 43 44  1  0  0  0
 44 46  1  0  0  0
 44 49  1  0  0  0
 44 45  2  0  0  0
 49 50  1  0  0  0
 50 51  1  0  0  0
 46 47  1  0  0  0
 47 48  1  0  0  0
 40 41  2  0  0  0
 15 18  1  0  0  0
 15 16  1  0  0  0
 18 19  1  0  0  0
 19 20  1  0  0  0
 19 31  1  0  0  0
 31 32  1  0  0  0
 32 34  1  0  0  0
 32 33  1  0  0  0
 20 22  2  0  0  0
 20 23  1  0  0  0
 20 21  2  0  0  0
 23 28  2  0  0  0
 23 24  1  0  0  0
 24 25  2  0  0  0
 25 26  1  0  0  0
 26 29  1  0  0  0
 26 27  2  0  0  0
 29 30  1  0  0  0
 27 28  1  0  0  0
  3  4  2  0  0  0
  3  6  1  0  0  0
  6  8  1  0  0  0
  8  9  1  0  0  0
  9 10  1  0  0  0
 10 11  1  0  0  0
 11 12  1  0  0  0
 12 13  1  0  0  0
 13 14  1  0  0  0
  2  5  1  0  0  0
 16 17  1  0  0  0
M  END
> <minimizedAffinity>
-7.74669

$$$$
4M8X_KGQ_B_101


 51 54  0  0  0  0  0  0  0  0999 V2000
  -12.2900   52.5039    3.3511 C   0  0  0  0  0  0  0  0  0  0  0  0
  -12.4002   52.1457    1.9022 N   0  0  0  0  0  0  0  0  0  0  0  0
  -13.4080   52.4062    1.0440 C   0  0  0  0  0  0  0  0  0  0  0  0
  -14.4867   52.9794    1.3025 O   0  0  0  0  0  0  0  0  0  0  0  0
  -11.6350   51.6543    1.5250 H   0  0  0  0  0  0  0  0  0  0  0  0
  -13.1879   51.9122   -0.2275 O   0  0  0  0  0  0  0  0  0  0  0  0
  -13.9080   52.0786   -2.6622 C   0  0  0  0  0  0  0  0  0  0  0  0
  -13.6271   52.7798   -1.3126 C   0  0  0  0  0  0  0  0  0  0  0  0
  -12.4127   53.6043   -1.6799 C   0  0  0  0  0  0  0  0  0  0  0  0
  -11.6085   52.6995   -2.4840 O   0  0  0  0  0  0  0  0  0  0  0  0
  -12.5243   51.8662   -3.2752 C   0  0  0  0  0  0  0  0  0  0  0  0
  -12.2290   50.4433   -3.0949 O   0  0  0  0  0  0  0  0  0  0  0  0
  -13.4869   49.7272   -3.1191 C   0  0  0  0  0  0  0  0  0  0  0  0
  -14.5223   50.6730   -2.5482 C   0  0  0  0  0  0  0  0  0  0  0  0
  -11.2051   53.5627    3.4862 C   0  0  0  0  0  0  0  0  0  0  0  0
   -9.9985   52.8328    3.2686 O   0  0  0  0  0  0  0  0  0  0  0  0
   -9.9138   52.1400    3.9421 H   0  0  0  0  0  0  0  0  0  0  0  0
  -11.1297   54.2978    4.8572 C   0  0  0  0  0  0  0  0  0  0  0  0
  -12.3686   55.0354    5.2568 N   0  0  0  0  0  0  0  0  0  0  0  0
  -12.3982   56.5844    4.5120 S   0  0  0  0  0  0  0  0  0  0  0  0
  -11.0218   57.0085    4.0701 O   0  0  0  0  0  0  0  0  0  0  0  0
  -13.3660   56.6644    3.3426 O   0  0  0  0  0  0  0  0  0  0  0  0
  -13.0882   57.7847    5.6522 C   0  0  0  0  0  0  0  0  0  0  0  0
  -12.2240   58.5598    6.4439 C   0  0  0  0  0  0  0  0  0  0  0  0
  -12.7570   59.5077    7.3157 C   0  0  0  0  0  0  0  0  0  0  0  0
  -14.1493   59.6695    7.4102 C   0  0  0  0  0  0  0  0  0  0  0  0
  -14.9949   58.8963    6.6330 C   0  0  0  0  0  0  0  0  0  0  0  0
  -14.4688   57.9528    5.7502 C   0  0  0  0  0  0  0  0  0  0  0  0
  -14.7006   60.5819    8.2692 O   0  0  0  0  0  0  0  0  0  0  0  0
  -15.9010   60.0728    8.8554 C   0  0  0  0  0  0  0  0  0  0  0  0
  -12.4674   55.1179    6.7382 C   0  0  0  0  0  0  0  0  0  0  0  0
  -13.5138   54.1636    7.3224 C   0  0  0  0  0  0  0  0  0  0  0  0
  -12.8257   52.9605    7.9614 C   0  0  0  0  0  0  0  0  0  0  0  0
  -14.5046   53.7224    6.2462 C   0  0  0  0  0  0  0  0  0  0  0  0
  -11.8204   51.2206    4.0923 C   0  0  0  0  0  0  0  0  0  0  0  0
  -12.5368   49.9762    3.5330 C   0  0  0  0  0  0  0  0  0  0  0  0
  -11.8158   48.9305    2.9332 C   0  0  0  0  0  0  0  0  0  0  0  0
  -12.4722   47.8190    2.4110 C   0  0  0  0  0  0  0  0  0  0  0  0
  -13.8645   47.7579    2.4800 C   0  0  0  0  0  0  0  0  0  0  0  0
  -14.5869   48.8007    3.0608 C   0  0  0  0  0  0  0  0  0  0  0  0
  -13.9256   49.9022    3.6012 C   0  0  0  0  0  0  0  0  0  0  0  0
  -14.5254   46.6873    1.9572 O   0  0  0  0  0  0  0  0  0  0  0  0
  -13.5317   45.7738    1.4814 C   0  0  0  0  0  0  0  0  0  0  0  0
  -13.8994   45.3652   -0.2722 P   0  0  0  0  0  0  0  0  0  0  0  0
  -12.8320   46.2930   -1.0695 O   0  0  0  0  0  0  0  0  0  0  0  0
  -13.4791   43.8355   -0.6056 O   0  0  0  0  0  0  0  0  0  0  0  0
  -14.3453   42.7667   -0.1805 C   0  0  0  0  0  0  0  0  0  0  0  0
  -13.6160   41.8593    0.8173 C   0  0  0  0  0  0  0  0  0  0  0  0
  -15.4027   45.8592   -0.6950 O   0  0  0  0  0  0  0  0  0  0  0  0
  -15.8023   46.3278   -1.9992 C   0  0  0  0  0  0  0  0  0  0  0  0
  -15.8014   45.1425   -3.0046 C   0  0  0  0  0  0  0  0  0  0  0  0
  2  1  1  0  0  0
  2  3  1  0  0  0
  7 14  1  0  0  0
  7  8  1  0  0  0
  7 11  1  0  0  0
 42 43  1  0  0  0
 42 39  1  0  0  0
  1 35  1  0  0  0
  1 15  1  0  0  0
 35 36  1  0  0  0
 36 37  2  0  0  0
 36 41  1  0  0  0
 37 38  1  0  0  0
 38 39  2  0  0  0
 39 40  1  0  0  0
 43 44  1  0  0  0
 44 46  1  0  0  0
 44 49  1  0  0  0
 44 45  2  0  0  0
 49 50  1  0  0  0
 50 51  1  0  0  0
 46 47  1  0  0  0
 47 48  1  0  0  0
 40 41  2  0  0  0
 15 18  1  0  0  0
 15 16  1  0  0  0
 18 19  1  0  0  0
 19 20  1  0  0  0
 19 31  1  0  0  0
 31 32  1  0  0  0
 32 34  1  0  0  0
 32 33  1  0  0  0
 20 22  2  0  0  0
 20 23  1  0  0  0
 20 21  2  0  0  0
 23 28  2  0  0  0
 23 24  1  0  0  0
 24 25  2  0  0  0
 25 26  1  0  0  0
 26 29  1  0  0  0
 26 27  2  0  0  0
 29 30  1  0  0  0
 27 28  1  0  0  0
  3  4  2  0  0  0
  3  6  1  0  0  0
  6  8  1  0  0  0
  8  9  1  0  0  0
  9 10  1  0  0  0
 10 11  1  0  0  0
 11 12  1  0  0  0
 12 13  1  0  0  0
 13 14  1  0  0  0
  2  5  1  0  0  0
 16 17  1  0  0  0
M  END
> <minimizedAffinity>
-7.73733

$$$$
4M8X_KGQ_B_101


 51 54  0  0  0  0  0  0  0  0999 V2000
  -12.2409   52.2518    3.5946 C   0  0  0  0  0  0  0  0  0  0  0  0
  -12.5762   52.0130    2.1557 N   0  0  0  0  0  0  0  0  0  0  0  0
  -13.6439   52.4490    1.4556 C   0  0  0  0  0  0  0  0  0  0  0  0
  -14.6020   53.1232    1.8875 O   0  0  0  0  0  0  0  0  0  0  0  0
  -11.9315   51.4645    1.6529 H   0  0  0  0  0  0  0  0  0  0  0  0
  -13.6487   52.0248    0.1407 O   0  0  0  0  0  0  0  0  0  0  0  0
  -12.0883   51.3037   -1.7352 C   0  0  0  0  0  0  0  0  0  0  0  0
  -12.5074   51.2074   -0.2495 C   0  0  0  0  0  0  0  0  0  0  0  0
  -13.0039   49.7790   -0.1972 C   0  0  0  0  0  0  0  0  0  0  0  0
  -13.7640   49.6298   -1.4267 O   0  0  0  0  0  0  0  0  0  0  0  0
  -13.0889   50.4129   -2.4707 C   0  0  0  0  0  0  0  0  0  0  0  0
  -14.0231   51.3302   -3.1268 O   0  0  0  0  0  0  0  0  0  0  0  0
  -13.2990   52.5436   -3.4417 C   0  0  0  0  0  0  0  0  0  0  0  0
  -12.2455   52.6981   -2.3652 C   0  0  0  0  0  0  0  0  0  0  0  0
  -11.2411   53.3979    3.6541 C   0  0  0  0  0  0  0  0  0  0  0  0
  -10.0382   52.8168    3.1531 O   0  0  0  0  0  0  0  0  0  0  0  0
   -9.7749   52.0770    3.7225 H   0  0  0  0  0  0  0  0  0  0  0  0
  -10.9783   54.0076    5.0629 C   0  0  0  0  0  0  0  0  0  0  0  0
  -12.0047   54.9873    5.5378 N   0  0  0  0  0  0  0  0  0  0  0  0
  -13.0082   54.2586    6.7281 S   0  0  0  0  0  0  0  0  0  0  0  0
  -14.4128   54.0642    6.2191 O   0  0  0  0  0  0  0  0  0  0  0  0
  -12.4569   52.9400    7.2456 O   0  0  0  0  0  0  0  0  0  0  0  0
  -13.0125   55.2701    8.2093 C   0  0  0  0  0  0  0  0  0  0  0  0
  -13.6696   54.8041    9.3606 C   0  0  0  0  0  0  0  0  0  0  0  0
  -13.6567   55.5788   10.5191 C   0  0  0  0  0  0  0  0  0  0  0  0
  -13.0050   56.8233   10.5236 C   0  0  0  0  0  0  0  0  0  0  0  0
  -12.3667   57.2798    9.3829 C   0  0  0  0  0  0  0  0  0  0  0  0
  -12.3660   56.5053    8.2225 C   0  0  0  0  0  0  0  0  0  0  0  0
  -12.9899   57.6120   11.6426 O   0  0  0  0  0  0  0  0  0  0  0  0
  -13.6750   56.9777   12.7252 C   0  0  0  0  0  0  0  0  0  0  0  0
  -12.7844   55.5188    4.3887 C   0  0  0  0  0  0  0  0  0  0  0  0
  -13.0299   57.0283    4.4788 C   0  0  0  0  0  0  0  0  0  0  0  0
  -14.2120   57.4196    3.5963 C   0  0  0  0  0  0  0  0  0  0  0  0
  -11.7730   57.8052    4.0899 C   0  0  0  0  0  0  0  0  0  0  0  0
  -11.5420   50.9618    4.1086 C   0  0  0  0  0  0  0  0  0  0  0  0
  -12.2677   49.7057    3.5888 C   0  0  0  0  0  0  0  0  0  0  0  0
  -11.5680   48.6840    2.9259 C   0  0  0  0  0  0  0  0  0  0  0  0
  -12.2341   47.5619    2.4402 C   0  0  0  0  0  0  0  0  0  0  0  0
  -13.6158   47.4659    2.6100 C   0  0  0  0  0  0  0  0  0  0  0  0
  -14.3184   48.4850    3.2540 C   0  0  0  0  0  0  0  0  0  0  0  0
  -13.6456   49.5971    3.7574 C   0  0  0  0  0  0  0  0  0  0  0  0
  -14.2877   46.3846    2.1245 O   0  0  0  0  0  0  0  0  0  0  0  0
  -13.3997   45.7078    1.2291 C   0  0  0  0  0  0  0  0  0  0  0  0
  -14.3904   44.9457   -0.1181 P   0  0  0  0  0  0  0  0  0  0  0  0
  -15.7397   44.4949    0.6640 O   0  0  0  0  0  0  0  0  0  0  0  0
  -14.8632   46.0678   -1.1882 O   0  0  0  0  0  0  0  0  0  0  0  0
  -14.1006   46.2427   -2.3970 C   0  0  0  0  0  0  0  0  0  0  0  0
  -14.7177   45.4220   -3.5356 C   0  0  0  0  0  0  0  0  0  0  0  0
  -13.6706   43.5910   -0.6919 O   0  0  0  0  0  0  0  0  0  0  0  0
  -14.3432   42.3724   -1.0698 C   0  0  0  0  0  0  0  0  0  0  0  0
  -13.7231   41.8174   -2.3825 C   0  0  0  0  0  0  0  0  0  0  0  0
  2  1  1  0  0  0
  2  3  1  0  0  0
  7 14  1  0  0  0
  7  8  1  0  0  0
  7 11  1  0  0  0
 42 43  1  0  0  0
 42 39  1  0  0  0
  1 35  1  0  0  0
  1 15  1  0  0  0
 35 36  1  0  0  0
 36 37  2  0  0  0
 36 41  1  0  0  0
 37 38  1  0  0  0
 38 39  2  0  0  0
 39 40  1  0  0  0
 43 44  1  0  0  0
 44 46  1  0  0  0
 44 49  1  0  0  0
 44 45  2  0  0  0
 49 50  1  0  0  0
 50 51  1  0  0  0
 46 47  1  0  0  0
 47 48  1  0  0  0
 40 41  2  0  0  0
 15 18  1  0  0  0
 15 16  1  0  0  0
 18 19  1  0  0  0
 19 20  1  0  0  0
 19 31  1  0  0  0
 31 32  1  0  0  0
 32 34  1  0  0  0
 32 33  1  0  0  0
 20 22  2  0  0  0
 20 23  1  0  0  0
 20 21  2  0  0  0
 23 28  2  0  0  0
 23 24  1  0  0  0
 24 25  2  0  0  0
 25 26  1  0  0  0
 26 29  1  0  0  0
 26 27  2  0  0  0
 29 30  1  0  0  0
 27 28  1  0  0  0
  3  4  2  0  0  0
  3  6  1  0  0  0
  6  8  1  0  0  0
  8  9  1  0  0  0
  9 10  1  0  0  0
 10 11  1  0  0  0
 11 12  1  0  0  0
 12 13  1  0  0  0
 13 14  1  0  0  0
  2  5  1  0  0  0
 16 17  1  0  0  0
M  END
> <minimizedAffinity>
-7.42917

$$$$
4M8X_KGQ_B_101


 51 54  0  0  0  0  0  0  0  0999 V2000
  -13.2686   55.4717    3.9723 C   0  0  0  0  0  0  0  0  0  0  0  0
  -12.8824   55.0676    5.3606 N   0  0  0  0  0  0  0  0  0  0  0  0
  -11.7024   54.5827    5.7997 C   0  0  0  0  0  0  0  0  0  0  0  0
  -10.6884   54.3370    5.1139 O   0  0  0  0  0  0  0  0  0  0  0  0
  -13.5829   55.1692    6.0448 H   0  0  0  0  0  0  0  0  0  0  0  0
  -11.6959   54.2947    7.1510 O   0  0  0  0  0  0  0  0  0  0  0  0
  -13.5292   54.9658    8.7826 C   0  0  0  0  0  0  0  0  0  0  0  0
  -12.9978   53.9742    7.7213 C   0  0  0  0  0  0  0  0  0  0  0  0
  -12.7659   52.7511    8.5812 C   0  0  0  0  0  0  0  0  0  0  0  0
  -12.1635   53.2856    9.7909 O   0  0  0  0  0  0  0  0  0  0  0  0
  -12.7798   54.5919   10.0609 C   0  0  0  0  0  0  0  0  0  0  0  0
  -11.7602   55.6283   10.2359 O   0  0  0  0  0  0  0  0  0  0  0  0
  -12.2783   56.8547    9.6674 C   0  0  0  0  0  0  0  0  0  0  0  0
  -13.1813   56.4417    8.5242 C   0  0  0  0  0  0  0  0  0  0  0  0
  -12.7363   54.4140    3.0161 C   0  0  0  0  0  0  0  0  0  0  0  0
  -11.6823   55.0866    2.3287 O   0  0  0  0  0  0  0  0  0  0  0  0
  -12.0422   55.8534    1.8561 H   0  0  0  0  0  0  0  0  0  0  0  0
  -13.7545   53.8475    1.9827 C   0  0  0  0  0  0  0  0  0  0  0  0
  -13.5890   52.3982    1.6496 N   0  0  0  0  0  0  0  0  0  0  0  0
  -13.4568   51.4734    3.0926 S   0  0  0  0  0  0  0  0  0  0  0  0
  -12.1189   51.6761    3.7550 O   0  0  0  0  0  0  0  0  0  0  0  0
  -14.5743   51.7539    4.0841 O   0  0  0  0  0  0  0  0  0  0  0  0
  -13.7146   49.7384    2.7183 C   0  0  0  0  0  0  0  0  0  0  0  0
  -13.4537   48.7737    3.7061 C   0  0  0  0  0  0  0  0  0  0  0  0
  -13.6730   47.4264    3.4246 C   0  0  0  0  0  0  0  0  0  0  0  0
  -14.1346   47.0412    2.1549 C   0  0  0  0  0  0  0  0  0  0  0  0
  -14.3816   47.9967    1.1839 C   0  0  0  0  0  0  0  0  0  0  0  0
  -14.1748   49.3481    1.4614 C   0  0  0  0  0  0  0  0  0  0  0  0
  -14.3438   45.7239    1.8459 O   0  0  0  0  0  0  0  0  0  0  0  0
  -14.1252   45.4838    0.4536 C   0  0  0  0  0  0  0  0  0  0  0  0
  -12.4252   52.2042    0.7446 C   0  0  0  0  0  0  0  0  0  0  0  0
  -12.8207   52.1409   -0.7340 C   0  0  0  0  0  0  0  0  0  0  0  0
  -12.2790   50.8618   -1.3662 C   0  0  0  0  0  0  0  0  0  0  0  0
  -12.3219   53.3769   -1.4810 C   0  0  0  0  0  0  0  0  0  0  0  0
  -12.5379   56.8123    3.6796 C   0  0  0  0  0  0  0  0  0  0  0  0
  -12.9021   57.8727    4.7367 C   0  0  0  0  0  0  0  0  0  0  0  0
  -11.9061   58.5677    5.4424 C   0  0  0  0  0  0  0  0  0  0  0  0
  -12.2433   59.5091    6.4113 C   0  0  0  0  0  0  0  0  0  0  0  0
  -13.5903   59.7502    6.6845 C   0  0  0  0  0  0  0  0  0  0  0  0
  -14.5837   59.0517    5.9975 C   0  0  0  0  0  0  0  0  0  0  0  0
  -14.2432   58.1251    5.0136 C   0  0  0  0  0  0  0  0  0  0  0  0
  -13.9392   60.6538    7.6426 O   0  0  0  0  0  0  0  0  0  0  0  0
  -13.4227   60.1665    8.8852 C   0  0  0  0  0  0  0  0  0  0  0  0
  -14.7821   60.1494   10.1216 P   0  0  0  0  0  0  0  0  0  0  0  0
  -14.1647   61.0542   11.3198 O   0  0  0  0  0  0  0  0  0  0  0  0
  -16.0667   60.9725    9.5738 O   0  0  0  0  0  0  0  0  0  0  0  0
  -17.2932   60.2619    9.3205 C   0  0  0  0  0  0  0  0  0  0  0  0
  -17.5764   60.2149    7.8144 C   0  0  0  0  0  0  0  0  0  0  0  0
  -15.0296   58.6419   10.7121 O   0  0  0  0  0  0  0  0  0  0  0  0
  -15.1306   58.2867   12.1064 C   0  0  0  0  0  0  0  0  0  0  0  0
  -14.8531   56.7675   12.2813 C   0  0  0  0  0  0  0  0  0  0  0  0
  2  1  1  0  0  0
  2  3  1  0  0  0
  7 14  1  0  0  0
  7  8  1  0  0  0
  7 11  1  0  0  0
 42 43  1  0  0  0
 42 39  1  0  0  0
  1 35  1  0  0  0
  1 15  1  0  0  0
 35 36  1  0  0  0
 36 37  2  0  0  0
 36 41  1  0  0  0
 37 38  1  0  0  0
 38 39  2  0  0  0
 39 40  1  0  0  0
 43 44  1  0  0  0
 44 46  1  0  0  0
 44 49  1  0  0  0
 44 45  2  0  0  0
 49 50  1  0  0  0
 50 51  1  0  0  0
 46 47  1  0  0  0
 47 48  1  0  0  0
 40 41  2  0  0  0
 15 18  1  0  0  0
 15 16  1  0  0  0
 18 19  1  0  0  0
 19 20  1  0  0  0
 19 31  1  0  0  0
 31 32  1  0  0  0
 32 34  1  0  0  0
 32 33  1  0  0  0
 20 22  2  0  0  0
 20 23  1  0  0  0
 20 21  2  0  0  0
 23 28  2  0  0  0
 23 24  1  0  0  0
 24 25  2  0  0  0
 25 26  1  0  0  0
 26 29  1  0  0  0
 26 27  2  0  0  0
 29 30  1  0  0  0
 27 28  1  0  0  0
  3  4  2  0  0  0
  3  6  1  0  0  0
  6  8  1  0  0  0
  8  9  1  0  0  0
  9 10  1  0  0  0
 10 11  1  0  0  0
 11 12  1  0  0  0
 12 13  1  0  0  0
 13 14  1  0  0  0
  2  5  1  0  0  0
 16 17  1  0  0  0
M  END
> <minimizedAffinity>
-7.42048

$$$$
