3FCQ_M3S_A_600


 15 15  0  0  0  0  0  0  0  0999 V2000
   35.8292   41.4538   -2.3761 C   0  0  0  0  0  0  0  0  0  0  0  0
   35.9694   40.6668   -1.2183 C   0  0  0  0  0  0  0  0  0  0  0  0
   36.0782   41.3591    0.1399 C   0  0  0  0  0  0  0  0  0  0  0  0
   36.0039   39.2759   -1.3448 C   0  0  0  0  0  0  0  0  0  0  0  0
   35.9065   38.6775   -2.6058 C   0  0  0  0  0  0  0  0  0  0  0  0
   35.7674   39.4662   -3.7622 C   0  0  0  0  0  0  0  0  0  0  0  0
   35.7293   40.8579   -3.6283 C   0  0  0  0  0  0  0  0  0  0  0  0
   35.5746   41.7130   -4.9495 C   0  0  0  0  0  0  0  0  0  0  0  0
   34.3542   42.0903   -5.2404 O   0  0  0  0  0  0  0  0  0  0  0  0
   36.6913   41.9708   -5.5483 O   0  0  0  0  0  0  0  0  0  0  0  0
   33.6383   41.8169   -4.7014 H   0  0  0  0  0  0  0  0  0  0  0  0
   35.7992   42.8188   -2.1809 O   0  0  0  0  0  0  0  0  0  0  0  0
   37.8960   43.0771   -2.7690 O   0  0  0  0  0  0  0  0  0  0  0  0
   36.9689   43.4762   -2.0701 C   0  0  0  0  0  0  0  0  0  0  0  0
   36.9956   44.6626   -1.1540 C   0  0  0  0  0  0  0  0  0  0  0  0
 13 14  2  0  0  0
 14 12  1  0  0  0
 14 15  1  0  0  0
  1 12  1  0  0  0
  7  1  2  0  0  0
  1  2  1  0  0  0
  4  2  2  0  0  0
  2  3  1  0  0  0
  5  4  1  0  0  0
  6  5  2  0  0  0
  6  7  1  0  0  0
  8  7  1  0  0  0
 10  8  2  0  0  0
  8  9  1  0  0  0
  9 11  1  0  0  0
M  END
> <minimizedAffinity>
-6.95425

$$$$
3FCQ_M3S_A_600


 15 15  0  0  0  0  0  0  0  0999 V2000
   35.7473   40.7674   -3.5683 C   0  0  0  0  0  0  0  0  0  0  0  0
   36.0488   39.7335   -2.6630 C   0  0  0  0  0  0  0  0  0  0  0  0
   36.2143   40.0703   -1.1813 C   0  0  0  0  0  0  0  0  0  0  0  0
   36.1869   38.4297   -3.1453 C   0  0  0  0  0  0  0  0  0  0  0  0
   36.0333   38.1599   -4.5097 C   0  0  0  0  0  0  0  0  0  0  0  0
   35.7327   39.1953   -5.4133 C   0  0  0  0  0  0  0  0  0  0  0  0
   35.5917   40.4976   -4.9233 C   0  0  0  0  0  0  0  0  0  0  0  0
   35.2564   41.6367   -5.9678 C   0  0  0  0  0  0  0  0  0  0  0  0
   34.5360   42.6307   -5.5102 O   0  0  0  0  0  0  0  0  0  0  0  0
   35.7842   41.4586   -7.1347 O   0  0  0  0  0  0  0  0  0  0  0  0
   34.2212   42.6138   -4.6278 H   0  0  0  0  0  0  0  0  0  0  0  0
   35.6216   42.0295   -3.0266 O   0  0  0  0  0  0  0  0  0  0  0  0
   37.6803   42.5547   -3.5699 O   0  0  0  0  0  0  0  0  0  0  0  0
   36.7397   42.7459   -2.8043 C   0  0  0  0  0  0  0  0  0  0  0  0
   36.6942   43.7442   -1.6868 C   0  0  0  0  0  0  0  0  0  0  0  0
 13 14  2  0  0  0
 14 12  1  0  0  0
 14 15  1  0  0  0
  1 12  1  0  0  0
  7  1  2  0  0  0
  1  2  1  0  0  0
  4  2  2  0  0  0
  2  3  1  0  0  0
  5  4  1  0  0  0
  6  5  2  0  0  0
  6  7  1  0  0  0
  8  7  1  0  0  0
 10  8  2  0  0  0
  8  9  1  0  0  0
  9 11  1  0  0  0
M  END
> <minimizedAffinity>
-6.85339

$$$$
3FCQ_M3S_A_600


 15 15  0  0  0  0  0  0  0  0999 V2000
   35.9693   40.4290   -2.7716 C   0  0  0  0  0  0  0  0  0  0  0  0
   36.1655   40.2220   -1.3938 C   0  0  0  0  0  0  0  0  0  0  0  0
   36.1705   38.7927   -0.8523 C   0  0  0  0  0  0  0  0  0  0  0  0
   36.3511   41.3290   -0.5622 C   0  0  0  0  0  0  0  0  0  0  0  0
   36.3353   42.6235   -1.0932 C   0  0  0  0  0  0  0  0  0  0  0  0
   36.1380   42.8283   -2.4708 C   0  0  0  0  0  0  0  0  0  0  0  0
   35.9571   41.7155   -3.2985 C   0  0  0  0  0  0  0  0  0  0  0  0
   35.7354   41.9833   -4.8412 C   0  0  0  0  0  0  0  0  0  0  0  0
   34.4869   42.0868   -5.2245 O   0  0  0  0  0  0  0  0  0  0  0  0
   36.8285   42.1145   -5.5194 O   0  0  0  0  0  0  0  0  0  0  0  0
   33.7948   41.9622   -4.6052 H   0  0  0  0  0  0  0  0  0  0  0  0
   35.7955   39.2942   -3.5360 O   0  0  0  0  0  0  0  0  0  0  0  0
   36.4186   38.6865   -5.5489 O   0  0  0  0  0  0  0  0  0  0  0  0
   36.7675   38.9493   -4.4015 C   0  0  0  0  0  0  0  0  0  0  0  0
   38.1758   38.9848   -3.8886 C   0  0  0  0  0  0  0  0  0  0  0  0
 13 14  2  0  0  0
 14 12  1  0  0  0
 14 15  1  0  0  0
  1 12  1  0  0  0
  7  1  2  0  0  0
  1  2  1  0  0  0
  4  2  2  0  0  0
  2  3  1  0  0  0
  5  4  1  0  0  0
  6  5  2  0  0  0
  6  7  1  0  0  0
  8  7  1  0  0  0
 10  8  2  0  0  0
  8  9  1  0  0  0
  9 11  1  0  0  0
M  END
> <minimizedAffinity>
-6.26901

$$$$
3FCQ_M3S_A_600


 15 15  0  0  0  0  0  0  0  0999 V2000
   36.4997   40.2892   -3.4980 C   0  0  0  0  0  0  0  0  0  0  0  0
   36.3988   38.8868   -3.4444 C   0  0  0  0  0  0  0  0  0  0  0  0
   36.4719   38.0882   -4.7455 C   0  0  0  0  0  0  0  0  0  0  0  0
   36.2360   38.2663   -2.2034 C   0  0  0  0  0  0  0  0  0  0  0  0
   36.1682   39.0309   -1.0335 C   0  0  0  0  0  0  0  0  0  0  0  0
   36.2683   40.4329   -1.0893 C   0  0  0  0  0  0  0  0  0  0  0  0
   36.4354   41.0476   -2.3344 C   0  0  0  0  0  0  0  0  0  0  0  0
   36.5415   42.6252   -2.3597 C   0  0  0  0  0  0  0  0  0  0  0  0
   37.5545   43.1141   -3.0314 O   0  0  0  0  0  0  0  0  0  0  0  0
   35.5769   43.2317   -1.7485 O   0  0  0  0  0  0  0  0  0  0  0  0
   38.1798   42.5363   -3.4227 H   0  0  0  0  0  0  0  0  0  0  0  0
   36.6620   40.8375   -4.7530 O   0  0  0  0  0  0  0  0  0  0  0  0
   35.2164   42.4540   -5.0789 O   0  0  0  0  0  0  0  0  0  0  0  0
   35.5769   41.3214   -5.3864 C   0  0  0  0  0  0  0  0  0  0  0  0
   34.9644   40.4516   -6.4426 C   0  0  0  0  0  0  0  0  0  0  0  0
 13 14  2  0  0  0
 14 12  1  0  0  0
 14 15  1  0  0  0
  1 12  1  0  0  0
  7  1  2  0  0  0
  1  2  1  0  0  0
  4  2  2  0  0  0
  2  3  1  0  0  0
  5  4  1  0  0  0
  6  5  2  0  0  0
  6  7  1  0  0  0
  8  7  1  0  0  0
 10  8  2  0  0  0
  8  9  1  0  0  0
  9 11  1  0  0  0
M  END
> <minimizedAffinity>
-5.99869

$$$$
3FCQ_M3S_A_600


 15 15  0  0  0  0  0  0  0  0999 V2000
   33.5521   40.3471   -8.6937 C   0  0  0  0  0  0  0  0  0  0  0  0
   32.8574   39.2609   -9.2568 C   0  0  0  0  0  0  0  0  0  0  0  0
   32.3693   39.3620  -10.7017 C   0  0  0  0  0  0  0  0  0  0  0  0
   32.6354   38.1221   -8.4788 C   0  0  0  0  0  0  0  0  0  0  0  0
   33.0928   38.0676   -7.1576 C   0  0  0  0  0  0  0  0  0  0  0  0
   33.7863   39.1550   -6.5961 C   0  0  0  0  0  0  0  0  0  0  0  0
   34.0089   40.2906   -7.3817 C   0  0  0  0  0  0  0  0  0  0  0  0
   34.7893   41.4948   -6.7172 C   0  0  0  0  0  0  0  0  0  0  0  0
   35.9885   41.7237   -7.1925 O   0  0  0  0  0  0  0  0  0  0  0  0
   34.1147   42.1316   -5.8165 O   0  0  0  0  0  0  0  0  0  0  0  0
   36.3452   41.1636   -7.8536 H   0  0  0  0  0  0  0  0  0  0  0  0
   33.7397   41.4383   -9.5161 O   0  0  0  0  0  0  0  0  0  0  0  0
   32.0173   42.4350   -8.5947 O   0  0  0  0  0  0  0  0  0  0  0  0
   32.7834   42.3853   -9.5527 C   0  0  0  0  0  0  0  0  0  0  0  0
   32.7963   43.3166  -10.7275 C   0  0  0  0  0  0  0  0  0  0  0  0
 13 14  2  0  0  0
 14 12  1  0  0  0
 14 15  1  0  0  0
  1 12  1  0  0  0
  7  1  2  0  0  0
  1  2  1  0  0  0
  4  2  2  0  0  0
  2  3  1  0  0  0
  5  4  1  0  0  0
  6  5  2  0  0  0
  6  7  1  0  0  0
  8  7  1  0  0  0
 10  8  2  0  0  0
  8  9  1  0  0  0
  9 11  1  0  0  0
M  END
> <minimizedAffinity>
-5.94348

$$$$
3FCQ_M3S_A_600


 15 15  0  0  0  0  0  0  0  0999 V2000
   35.6649   40.4196   -2.7578 C   0  0  0  0  0  0  0  0  0  0  0  0
   35.9483   40.7117   -1.4109 C   0  0  0  0  0  0  0  0  0  0  0  0
   35.7425   42.1384   -0.9027 C   0  0  0  0  0  0  0  0  0  0  0  0
   36.4083   39.6887   -0.5782 C   0  0  0  0  0  0  0  0  0  0  0  0
   36.5895   38.3952   -1.0803 C   0  0  0  0  0  0  0  0  0  0  0  0
   36.3065   38.1056   -2.4274 C   0  0  0  0  0  0  0  0  0  0  0  0
   35.8423   39.1333   -3.2547 C   0  0  0  0  0  0  0  0  0  0  0  0
   35.5370   38.7723   -4.7637 C   0  0  0  0  0  0  0  0  0  0  0  0
   34.3446   39.1019   -5.1949 O   0  0  0  0  0  0  0  0  0  0  0  0
   36.5320   38.2377   -5.3932 O   0  0  0  0  0  0  0  0  0  0  0  0
   33.7238   39.4864   -4.6078 H   0  0  0  0  0  0  0  0  0  0  0  0
   35.2119   41.4732   -3.5239 O   0  0  0  0  0  0  0  0  0  0  0  0
   35.4385   42.1432   -5.5997 O   0  0  0  0  0  0  0  0  0  0  0  0
   35.9919   41.9182   -4.5271 C   0  0  0  0  0  0  0  0  0  0  0  0
   37.4383   42.1511   -4.2090 C   0  0  0  0  0  0  0  0  0  0  0  0
 13 14  2  0  0  0
 14 12  1  0  0  0
 14 15  1  0  0  0
  1 12  1  0  0  0
  7  1  2  0  0  0
  1  2  1  0  0  0
  4  2  2  0  0  0
  2  3  1  0  0  0
  5  4  1  0  0  0
  6  5  2  0  0  0
  6  7  1  0  0  0
  8  7  1  0  0  0
 10  8  2  0  0  0
  8  9  1  0  0  0
  9 11  1  0  0  0
M  END
> <minimizedAffinity>
-5.79161

$$$$
3FCQ_M3S_A_600


 15 15  0  0  0  0  0  0  0  0999 V2000
   36.0269   39.8294   -4.6932 C   0  0  0  0  0  0  0  0  0  0  0  0
   35.3020   39.1271   -5.6735 C   0  0  0  0  0  0  0  0  0  0  0  0
   35.3255   37.5990   -5.6602 C   0  0  0  0  0  0  0  0  0  0  0  0
   34.5815   39.8478   -6.6291 C   0  0  0  0  0  0  0  0  0  0  0  0
   34.5875   41.2469   -6.6130 C   0  0  0  0  0  0  0  0  0  0  0  0
   35.3137   41.9471   -5.6326 C   0  0  0  0  0  0  0  0  0  0  0  0
   36.0295   41.2196   -4.6763 C   0  0  0  0  0  0  0  0  0  0  0  0
   36.8364   42.0394   -3.5911 C   0  0  0  0  0  0  0  0  0  0  0  0
   38.1240   41.8023   -3.5440 O   0  0  0  0  0  0  0  0  0  0  0  0
   36.1191   42.8798   -2.9194 O   0  0  0  0  0  0  0  0  0  0  0  0
   38.5014   41.1517   -4.1028 H   0  0  0  0  0  0  0  0  0  0  0  0
   36.7133   39.0581   -3.7788 O   0  0  0  0  0  0  0  0  0  0  0  0
   35.0568   39.3517   -2.3720 O   0  0  0  0  0  0  0  0  0  0  0  0
   36.1769   38.8840   -2.5562 C   0  0  0  0  0  0  0  0  0  0  0  0
   36.9770   38.0840   -1.5726 C   0  0  0  0  0  0  0  0  0  0  0  0
 13 14  2  0  0  0
 14 12  1  0  0  0
 14 15  1  0  0  0
  1 12  1  0  0  0
  7  1  2  0  0  0
  1  2  1  0  0  0
  4  2  2  0  0  0
  2  3  1  0  0  0
  5  4  1  0  0  0
  6  5  2  0  0  0
  6  7  1  0  0  0
  8  7  1  0  0  0
 10  8  2  0  0  0
  8  9  1  0  0  0
  9 11  1  0  0  0
M  END
> <minimizedAffinity>
-5.74065

$$$$
3FCQ_M3S_A_600


 15 15  0  0  0  0  0  0  0  0999 V2000
   36.0852   39.6877   -3.1699 C   0  0  0  0  0  0  0  0  0  0  0  0
   36.6251   38.5030   -3.7034 C   0  0  0  0  0  0  0  0  0  0  0  0
   36.5769   38.2814   -5.2150 C   0  0  0  0  0  0  0  0  0  0  0  0
   37.1900   37.5652   -2.8357 C   0  0  0  0  0  0  0  0  0  0  0  0
   37.2116   37.8002   -1.4565 C   0  0  0  0  0  0  0  0  0  0  0  0
   36.6704   38.9849   -0.9250 C   0  0  0  0  0  0  0  0  0  0  0  0
   36.1101   39.9215   -1.7996 C   0  0  0  0  0  0  0  0  0  0  0  0
   35.5087   41.2403   -1.1671 C   0  0  0  0  0  0  0  0  0  0  0  0
   34.4139   41.6898   -1.7290 O   0  0  0  0  0  0  0  0  0  0  0  0
   36.1568   41.6781   -0.1374 O   0  0  0  0  0  0  0  0  0  0  0  0
   34.0618   41.2568   -2.4816 H   0  0  0  0  0  0  0  0  0  0  0  0
   35.5461   40.5718   -4.0808 O   0  0  0  0  0  0  0  0  0  0  0  0
   36.0725   41.7749   -5.8372 O   0  0  0  0  0  0  0  0  0  0  0  0
   36.3699   41.4431   -4.6932 C   0  0  0  0  0  0  0  0  0  0  0  0
   37.5250   41.9623   -3.8909 C   0  0  0  0  0  0  0  0  0  0  0  0
 13 14  2  0  0  0
 14 12  1  0  0  0
 14 15  1  0  0  0
  1 12  1  0  0  0
  7  1  2  0  0  0
  1  2  1  0  0  0
  4  2  2  0  0  0
  2  3  1  0  0  0
  5  4  1  0  0  0
  6  5  2  0  0  0
  6  7  1  0  0  0
  8  7  1  0  0  0
 10  8  2  0  0  0
  8  9  1  0  0  0
  9 11  1  0  0  0
M  END
> <minimizedAffinity>
-5.67203

$$$$
3FCQ_M3S_A_600


 15 15  0  0  0  0  0  0  0  0999 V2000
   36.5918   39.7310   -3.4461 C   0  0  0  0  0  0  0  0  0  0  0  0
   36.7623   39.0356   -2.2349 C   0  0  0  0  0  0  0  0  0  0  0  0
   37.4365   37.6641   -2.2561 C   0  0  0  0  0  0  0  0  0  0  0  0
   36.3113   39.6202   -1.0489 C   0  0  0  0  0  0  0  0  0  0  0  0
   35.6940   40.8757   -1.0690 C   0  0  0  0  0  0  0  0  0  0  0  0
   35.5235   41.5688   -2.2812 C   0  0  0  0  0  0  0  0  0  0  0  0
   35.9811   40.9799   -3.4644 C   0  0  0  0  0  0  0  0  0  0  0  0
   35.7705   41.7862   -4.8084 C   0  0  0  0  0  0  0  0  0  0  0  0
   34.5260   42.0490   -5.1222 O   0  0  0  0  0  0  0  0  0  0  0  0
   36.8685   42.1253   -5.4012 O   0  0  0  0  0  0  0  0  0  0  0  0
   33.8293   41.7277   -4.5843 H   0  0  0  0  0  0  0  0  0  0  0  0
   37.0617   39.0995   -4.5786 O   0  0  0  0  0  0  0  0  0  0  0  0
   35.0619   38.4085   -5.1553 O   0  0  0  0  0  0  0  0  0  0  0  0
   36.2702   38.1927   -5.1820 C   0  0  0  0  0  0  0  0  0  0  0  0
   36.9525   37.0520   -5.8752 C   0  0  0  0  0  0  0  0  0  0  0  0
 13 14  2  0  0  0
 14 12  1  0  0  0
 14 15  1  0  0  0
  1 12  1  0  0  0
  7  1  2  0  0  0
  1  2  1  0  0  0
  4  2  2  0  0  0
  2  3  1  0  0  0
  5  4  1  0  0  0
  6  5  2  0  0  0
  6  7  1  0  0  0
  8  7  1  0  0  0
 10  8  2  0  0  0
  8  9  1  0  0  0
  9 11  1  0  0  0
M  END
> <minimizedAffinity>
-5.60514

$$$$
3FCQ_M3S_A_600


 15 15  0  0  0  0  0  0  0  0999 V2000
   34.1730   39.8225   -8.5059 C   0  0  0  0  0  0  0  0  0  0  0  0
   33.5927   39.3487   -9.6968 C   0  0  0  0  0  0  0  0  0  0  0  0
   33.7832   37.8819  -10.0818 C   0  0  0  0  0  0  0  0  0  0  0  0
   32.8588   40.2330  -10.4913 C   0  0  0  0  0  0  0  0  0  0  0  0
   32.7100   41.5707  -10.1091 C   0  0  0  0  0  0  0  0  0  0  0  0
   33.2918   42.0427   -8.9185 C   0  0  0  0  0  0  0  0  0  0  0  0
   34.0217   41.1513   -8.1255 C   0  0  0  0  0  0  0  0  0  0  0  0
   34.6639   41.7168   -6.7957 C   0  0  0  0  0  0  0  0  0  0  0  0
   33.8156   42.0554   -5.8565 O   0  0  0  0  0  0  0  0  0  0  0  0
   35.9569   41.7250   -6.7926 O   0  0  0  0  0  0  0  0  0  0  0  0
   32.8938   41.9932   -6.0130 H   0  0  0  0  0  0  0  0  0  0  0  0
   34.8813   38.8978   -7.7673 O   0  0  0  0  0  0  0  0  0  0  0  0
   35.1203   38.6595   -5.6005 O   0  0  0  0  0  0  0  0  0  0  0  0
   34.3870   38.5159   -6.5746 C   0  0  0  0  0  0  0  0  0  0  0  0
   32.9737   38.0162   -6.5551 C   0  0  0  0  0  0  0  0  0  0  0  0
 13 14  2  0  0  0
 14 12  1  0  0  0
 14 15  1  0  0  0
  1 12  1  0  0  0
  7  1  2  0  0  0
  1  2  1  0  0  0
  4  2  2  0  0  0
  2  3  1  0  0  0
  5  4  1  0  0  0
  6  5  2  0  0  0
  6  7  1  0  0  0
  8  7  1  0  0  0
 10  8  2  0  0  0
  8  9  1  0  0  0
  9 11  1  0  0  0
M  END
> <minimizedAffinity>
-5.59706

$$$$
