2CBJ_OAN_A_1625


 30 31  0  0  0  0  0  0  0  0999 V2000
   33.0706   42.3922   21.4294 C   0  0  0  0  0  0  0  0  0  0  0  0
   32.4892   42.6802   22.8484 C   0  0  0  0  0  0  0  0  0  0  0  0
   32.6024   44.0615   23.1715 O   0  0  0  0  0  0  0  0  0  0  0  0
   31.0394   42.2442   22.9570 C   0  0  0  0  0  0  0  0  0  0  0  0
   30.5082   42.5810   24.2330 O   0  0  0  0  0  0  0  0  0  0  0  0
   30.9730   40.7211   22.7396 C   0  0  0  0  0  0  0  0  0  0  0  0
   31.4336   40.4387   21.3929 O   0  0  0  0  0  0  0  0  0  0  0  0
   32.2926   41.2734   20.7239 C   0  0  0  0  0  0  0  0  0  0  0  0
   32.4208   41.1217   19.3964 N   0  0  0  0  0  0  0  0  0  0  0  0
   32.0828   44.5846   22.5413 H   0  0  0  0  0  0  0  0  0  0  0  0
   31.0216   42.1353   24.9249 H   0  0  0  0  0  0  0  0  0  0  0  0
   36.5586   41.0576   22.3545 C   0  0  0  0  0  0  0  0  0  0  0  0
   35.0195   41.1210   22.3322 C   0  0  0  0  0  0  0  0  0  0  0  0
   34.3449   40.3236   22.9954 O   0  0  0  0  0  0  0  0  0  0  0  0
   34.5119   42.0925   21.5584 N   0  0  0  0  0  0  0  0  0  0  0  0
   35.1429   42.6435   21.0412 H   0  0  0  0  0  0  0  0  0  0  0  0
   29.6190   39.9805   22.9534 C   0  0  0  0  0  0  0  0  0  0  0  0
   28.7042   40.2959   21.9035 O   0  0  0  0  0  0  0  0  0  0  0  0
   28.5354   41.2511   21.8977 H   0  0  0  0  0  0  0  0  0  0  0  0
   31.7443   40.1578   18.6616 O   0  0  0  0  0  0  0  0  0  0  0  0
   30.5419   40.5877   18.1832 C   0  0  0  0  0  0  0  0  0  0  0  0
   30.1595   40.1995   17.0707 O   0  0  0  0  0  0  0  0  0  0  0  0
   29.8224   41.4231   18.9829 N   0  0  0  0  0  0  0  0  0  0  0  0
   30.2023   41.6515   19.8620 H   0  0  0  0  0  0  0  0  0  0  0  0
   28.6049   41.9712   18.6538 C   0  0  0  0  0  0  0  0  0  0  0  0
   27.3711   41.3273   18.9221 C   0  0  0  0  0  0  0  0  0  0  0  0
   26.1390   41.9056   18.5596 C   0  0  0  0  0  0  0  0  0  0  0  0
   26.1229   43.1444   17.9175 C   0  0  0  0  0  0  0  0  0  0  0  0
   27.3289   43.8102   17.6491 C   0  0  0  0  0  0  0  0  0  0  0  0
   28.5506   43.2272   18.0205 C   0  0  0  0  0  0  0  0  0  0  0  0
 12 13  1  0  0  0
 13 14  2  0  0  0
 13 15  1  0  0  0
 15  1  1  0  0  0
  1  2  1  0  0  0
  1  8  1  0  0  0
  2  3  1  0  0  0
  2  4  1  0  0  0
  4  5  1  0  0  0
  4  6  1  0  0  0
  6 17  1  0  0  0
  6  7  1  0  0  0
 17 18  1  0  0  0
  7  8  1  0  0  0
  8  9  2  0  0  0
  9 20  1  0  0  0
 20 21  1  0  0  0
 21 22  2  0  0  0
 21 23  1  0  0  0
 23 25  1  0  0  0
 25 26  2  0  0  0
 25 30  1  0  0  0
 26 27  1  0  0  0
 27 28  2  0  0  0
 28 29  1  0  0  0
 29 30  2  0  0  0
 15 16  1  0  0  0
  3 10  1  0  0  0
  5 11  1  0  0  0
 18 19  1  0  0  0
 23 24  1  0  0  0
M  END
> <minimizedAffinity>
-9.71020

$$$$
2CBJ_OAN_A_1625


 30 31  0  0  0  0  0  0  0  0999 V2000
   33.0461   42.3486   21.4066 C   0  0  0  0  0  0  0  0  0  0  0  0
   32.4130   42.5887   22.8123 C   0  0  0  0  0  0  0  0  0  0  0  0
   32.4603   43.9677   23.1604 O   0  0  0  0  0  0  0  0  0  0  0  0
   30.9798   42.0925   22.8714 C   0  0  0  0  0  0  0  0  0  0  0  0
   30.3989   42.3859   24.1365 O   0  0  0  0  0  0  0  0  0  0  0  0
   30.9820   40.5719   22.6281 C   0  0  0  0  0  0  0  0  0  0  0  0
   31.4922   40.3313   21.2912 O   0  0  0  0  0  0  0  0  0  0  0  0
   32.3352   41.2113   20.6610 C   0  0  0  0  0  0  0  0  0  0  0  0
   32.5074   41.0875   19.3355 N   0  0  0  0  0  0  0  0  0  0  0  0
   31.9379   44.4800   22.5236 H   0  0  0  0  0  0  0  0  0  0  0  0
   30.9101   41.9496   24.8359 H   0  0  0  0  0  0  0  0  0  0  0  0
   36.5576   41.1343   22.4057 C   0  0  0  0  0  0  0  0  0  0  0  0
   35.0186   41.1345   22.3364 C   0  0  0  0  0  0  0  0  0  0  0  0
   34.3584   40.2918   22.9568 O   0  0  0  0  0  0  0  0  0  0  0  0
   34.4942   42.1053   21.5730 N   0  0  0  0  0  0  0  0  0  0  0  0
   35.1168   42.6961   21.0907 H   0  0  0  0  0  0  0  0  0  0  0  0
   29.6539   39.7736   22.7904 C   0  0  0  0  0  0  0  0  0  0  0  0
   29.0678   40.0302   24.0668 O   0  0  0  0  0  0  0  0  0  0  0  0
   29.6810   39.7535   24.7657 H   0  0  0  0  0  0  0  0  0  0  0  0
   31.8922   40.1097   18.5661 O   0  0  0  0  0  0  0  0  0  0  0  0
   31.1165   40.6170   17.5660 C   0  0  0  0  0  0  0  0  0  0  0  0
   29.9556   40.2058   17.4327 O   0  0  0  0  0  0  0  0  0  0  0  0
   31.6787   41.5702   16.7719 N   0  0  0  0  0  0  0  0  0  0  0  0
   32.6006   41.8483   16.9769 H   0  0  0  0  0  0  0  0  0  0  0  0
   31.0545   42.1729   15.7051 C   0  0  0  0  0  0  0  0  0  0  0  0
   31.1625   41.6924   14.3759 C   0  0  0  0  0  0  0  0  0  0  0  0
   30.5243   42.3393   13.2998 C   0  0  0  0  0  0  0  0  0  0  0  0
   29.7646   43.4852   13.5386 C   0  0  0  0  0  0  0  0  0  0  0  0
   29.6310   43.9772   14.8463 C   0  0  0  0  0  0  0  0  0  0  0  0
   30.2664   43.3207   15.9120 C   0  0  0  0  0  0  0  0  0  0  0  0
 12 13  1  0  0  0
 13 14  2  0  0  0
 13 15  1  0  0  0
 15  1  1  0  0  0
  1  2  1  0  0  0
  1  8  1  0  0  0
  2  3  1  0  0  0
  2  4  1  0  0  0
  4  5  1  0  0  0
  4  6  1  0  0  0
  6 17  1  0  0  0
  6  7  1  0  0  0
 17 18  1  0  0  0
  7  8  1  0  0  0
  8  9  2  0  0  0
  9 20  1  0  0  0
 20 21  1  0  0  0
 21 22  2  0  0  0
 21 23  1  0  0  0
 23 25  1  0  0  0
 25 26  2  0  0  0
 25 30  1  0  0  0
 26 27  1  0  0  0
 27 28  2  0  0  0
 28 29  1  0  0  0
 29 30  2  0  0  0
 15 16  1  0  0  0
  3 10  1  0  0  0
  5 11  1  0  0  0
 18 19  1  0  0  0
 23 24  1  0  0  0
M  END
> <minimizedAffinity>
-9.31588

$$$$
2CBJ_OAN_A_1625


 30 31  0  0  0  0  0  0  0  0999 V2000
   29.5763   41.4415   21.2069 C   0  0  0  0  0  0  0  0  0  0  0  0
   30.1567   41.5993   22.6466 C   0  0  0  0  0  0  0  0  0  0  0  0
   29.5293   40.6942   23.5479 O   0  0  0  0  0  0  0  0  0  0  0  0
   31.6596   41.3881   22.6692 C   0  0  0  0  0  0  0  0  0  0  0  0
   32.1573   41.4648   23.9997 O   0  0  0  0  0  0  0  0  0  0  0  0
   32.3154   42.4722   21.7939 C   0  0  0  0  0  0  0  0  0  0  0  0
   31.8507   42.2914   20.4311 O   0  0  0  0  0  0  0  0  0  0  0  0
   30.6516   41.6914   20.1411 C   0  0  0  0  0  0  0  0  0  0  0  0
   30.4366   41.2768   18.8826 N   0  0  0  0  0  0  0  0  0  0  0  0
   29.7094   39.7829   23.2686 H   0  0  0  0  0  0  0  0  0  0  0  0
   31.9587   42.3394   24.3693 H   0  0  0  0  0  0  0  0  0  0  0  0
   26.3241   43.2394   20.2100 C   0  0  0  0  0  0  0  0  0  0  0  0
   27.3813   42.1190   20.2312 C   0  0  0  0  0  0  0  0  0  0  0  0
   27.2543   41.1173   19.5161 O   0  0  0  0  0  0  0  0  0  0  0  0
   28.4104   42.3381   21.0638 N   0  0  0  0  0  0  0  0  0  0  0  0
   28.3871   43.1520   21.6173 H   0  0  0  0  0  0  0  0  0  0  0  0
   33.8687   42.5891   21.7642 C   0  0  0  0  0  0  0  0  0  0  0  0
   34.3764   42.1976   20.4883 O   0  0  0  0  0  0  0  0  0  0  0  0
   34.1334   41.2751   20.3129 H   0  0  0  0  0  0  0  0  0  0  0  0
   31.3533   41.4332   17.8521 O   0  0  0  0  0  0  0  0  0  0  0  0
   31.3390   40.4063   16.9551 C   0  0  0  0  0  0  0  0  0  0  0  0
   32.2015   40.3666   16.0669 O   0  0  0  0  0  0  0  0  0  0  0  0
   30.3637   39.4677   17.1070 N   0  0  0  0  0  0  0  0  0  0  0  0
   29.7413   39.5754   17.8621 H   0  0  0  0  0  0  0  0  0  0  0  0
   30.1839   38.3807   16.2841 C   0  0  0  0  0  0  0  0  0  0  0  0
   30.9341   37.1848   16.4105 C   0  0  0  0  0  0  0  0  0  0  0  0
   30.7391   36.0923   15.5431 C   0  0  0  0  0  0  0  0  0  0  0  0
   29.7854   36.1812   14.5284 C   0  0  0  0  0  0  0  0  0  0  0  0
   29.0201   37.3491   14.3865 C   0  0  0  0  0  0  0  0  0  0  0  0
   29.2186   38.4293   15.2607 C   0  0  0  0  0  0  0  0  0  0  0  0
 12 13  1  0  0  0
 13 14  2  0  0  0
 13 15  1  0  0  0
 15  1  1  0  0  0
  1  2  1  0  0  0
  1  8  1  0  0  0
  2  3  1  0  0  0
  2  4  1  0  0  0
  4  5  1  0  0  0
  4  6  1  0  0  0
  6 17  1  0  0  0
  6  7  1  0  0  0
 17 18  1  0  0  0
  7  8  1  0  0  0
  8  9  2  0  0  0
  9 20  1  0  0  0
 20 21  1  0  0  0
 21 22  2  0  0  0
 21 23  1  0  0  0
 23 25  1  0  0  0
 25 26  2  0  0  0
 25 30  1  0  0  0
 26 27  1  0  0  0
 27 28  2  0  0  0
 28 29  1  0  0  0
 29 30  2  0  0  0
 15 16  1  0  0  0
  3 10  1  0  0  0
  5 11  1  0  0  0
 18 19  1  0  0  0
 23 24  1  0  0  0
M  END
> <minimizedAffinity>
-9.18868

$$$$
2CBJ_OAN_A_1625


 30 31  0  0  0  0  0  0  0  0999 V2000
   31.1447   41.2278   19.5248 C   0  0  0  0  0  0  0  0  0  0  0  0
   32.1613   41.0519   20.6954 C   0  0  0  0  0  0  0  0  0  0  0  0
   33.2271   41.9884   20.5859 O   0  0  0  0  0  0  0  0  0  0  0  0
   31.4867   41.1967   22.0473 C   0  0  0  0  0  0  0  0  0  0  0  0
   32.4421   41.1049   23.0973 O   0  0  0  0  0  0  0  0  0  0  0  0
   30.4353   40.0803   22.1873 C   0  0  0  0  0  0  0  0  0  0  0  0
   29.4335   40.2744   21.1556 O   0  0  0  0  0  0  0  0  0  0  0  0
   29.7110   40.9252   19.9803 C   0  0  0  0  0  0  0  0  0  0  0  0
   28.6815   41.3425   19.2268 N   0  0  0  0  0  0  0  0  0  0  0  0
   32.8738   42.8894   20.6510 H   0  0  0  0  0  0  0  0  0  0  0  0
   32.8832   40.2418   23.0586 H   0  0  0  0  0  0  0  0  0  0  0  0
   31.9992   39.6868   16.1045 C   0  0  0  0  0  0  0  0  0  0  0  0
   31.5781   40.7766   17.1086 C   0  0  0  0  0  0  0  0  0  0  0  0
   31.2696   41.9096   16.7185 O   0  0  0  0  0  0  0  0  0  0  0  0
   31.5747   40.3828   18.3912 N   0  0  0  0  0  0  0  0  0  0  0  0
   31.8795   39.4682   18.5909 H   0  0  0  0  0  0  0  0  0  0  0  0
   29.6993   39.8948   23.5480 C   0  0  0  0  0  0  0  0  0  0  0  0
   29.7248   41.1077   24.3009 O   0  0  0  0  0  0  0  0  0  0  0  0
   30.6447   41.3579   24.4798 H   0  0  0  0  0  0  0  0  0  0  0  0
   27.3495   41.1406   19.5612 O   0  0  0  0  0  0  0  0  0  0  0  0
   26.5388   42.1765   19.2021 C   0  0  0  0  0  0  0  0  0  0  0  0
   25.6045   41.9692   18.4155 O   0  0  0  0  0  0  0  0  0  0  0  0
   26.8098   43.3921   19.7535 N   0  0  0  0  0  0  0  0  0  0  0  0
   27.5594   43.4471   20.3893 H   0  0  0  0  0  0  0  0  0  0  0  0
   26.1141   44.5483   19.4882 C   0  0  0  0  0  0  0  0  0  0  0  0
   26.5073   45.4731   18.4886 C   0  0  0  0  0  0  0  0  0  0  0  0
   25.7839   46.6576   18.2489 C   0  0  0  0  0  0  0  0  0  0  0  0
   24.6496   46.9373   19.0119 C   0  0  0  0  0  0  0  0  0  0  0  0
   24.2304   46.0341   20.0012 C   0  0  0  0  0  0  0  0  0  0  0  0
   24.9556   44.8537   20.2271 C   0  0  0  0  0  0  0  0  0  0  0  0
 12 13  1  0  0  0
 13 14  2  0  0  0
 13 15  1  0  0  0
 15  1  1  0  0  0
  1  2  1  0  0  0
  1  8  1  0  0  0
  2  3  1  0  0  0
  2  4  1  0  0  0
  4  5  1  0  0  0
  4  6  1  0  0  0
  6 17  1  0  0  0
  6  7  1  0  0  0
 17 18  1  0  0  0
  7  8  1  0  0  0
  8  9  2  0  0  0
  9 20  1  0  0  0
 20 21  1  0  0  0
 21 22  2  0  0  0
 21 23  1  0  0  0
 23 25  1  0  0  0
 25 26  2  0  0  0
 25 30  1  0  0  0
 26 27  1  0  0  0
 27 28  2  0  0  0
 28 29  1  0  0  0
 29 30  2  0  0  0
 15 16  1  0  0  0
  3 10  1  0  0  0
  5 11  1  0  0  0
 18 19  1  0  0  0
 23 24  1  0  0  0
M  END
> <minimizedAffinity>
-8.36648

$$$$
2CBJ_OAN_A_1625


 30 31  0  0  0  0  0  0  0  0999 V2000
   29.6590   41.2375   21.3783 C   0  0  0  0  0  0  0  0  0  0  0  0
   30.3654   41.6397   22.7102 C   0  0  0  0  0  0  0  0  0  0  0  0
   29.6792   41.0957   23.8319 O   0  0  0  0  0  0  0  0  0  0  0  0
   31.8162   41.1943   22.7296 C   0  0  0  0  0  0  0  0  0  0  0  0
   32.4204   41.5064   23.9791 O   0  0  0  0  0  0  0  0  0  0  0  0
   32.5594   41.9110   21.5870 C   0  0  0  0  0  0  0  0  0  0  0  0
   31.9696   41.4863   20.3311 O   0  0  0  0  0  0  0  0  0  0  0  0
   30.6748   41.0411   20.2450 C   0  0  0  0  0  0  0  0  0  0  0  0
   30.3037   40.3765   19.1394 N   0  0  0  0  0  0  0  0  0  0  0  0
   29.6974   40.1271   23.7834 H   0  0  0  0  0  0  0  0  0  0  0  0
   32.3854   42.4647   24.1249 H   0  0  0  0  0  0  0  0  0  0  0  0
   26.6638   43.2625   20.0627 C   0  0  0  0  0  0  0  0  0  0  0  0
   27.5405   42.0215   20.3170 C   0  0  0  0  0  0  0  0  0  0  0  0
   27.2261   40.9197   19.8502 O   0  0  0  0  0  0  0  0  0  0  0  0
   28.6347   42.2534   21.0582 N   0  0  0  0  0  0  0  0  0  0  0  0
   28.7640   43.1625   21.4130 H   0  0  0  0  0  0  0  0  0  0  0  0
   34.1056   41.7584   21.4717 C   0  0  0  0  0  0  0  0  0  0  0  0
   34.5690   42.2783   20.2252 O   0  0  0  0  0  0  0  0  0  0  0  0
   34.1558   41.7885   19.4970 H   0  0  0  0  0  0  0  0  0  0  0  0
   31.1516   40.1255   18.0695 O   0  0  0  0  0  0  0  0  0  0  0  0
   31.2593   41.1760   17.2068 C   0  0  0  0  0  0  0  0  0  0  0  0
   32.3529   41.4130   16.6754 O   0  0  0  0  0  0  0  0  0  0  0  0
   30.1303   41.9016   16.9740 N   0  0  0  0  0  0  0  0  0  0  0  0
   29.3036   41.6155   17.4255 H   0  0  0  0  0  0  0  0  0  0  0  0
   30.0595   43.0041   16.1552 C   0  0  0  0  0  0  0  0  0  0  0  0
   30.1604   42.9246   14.7436 C   0  0  0  0  0  0  0  0  0  0  0  0
   30.0999   44.0729   13.9303 C   0  0  0  0  0  0  0  0  0  0  0  0
   29.9380   45.3267   14.5211 C   0  0  0  0  0  0  0  0  0  0  0  0
   29.8240   45.4345   15.9159 C   0  0  0  0  0  0  0  0  0  0  0  0
   29.8795   44.2826   16.7161 C   0  0  0  0  0  0  0  0  0  0  0  0
 12 13  1  0  0  0
 13 14  2  0  0  0
 13 15  1  0  0  0
 15  1  1  0  0  0
  1  2  1  0  0  0
  1  8  1  0  0  0
  2  3  1  0  0  0
  2  4  1  0  0  0
  4  5  1  0  0  0
  4  6  1  0  0  0
  6 17  1  0  0  0
  6  7  1  0  0  0
 17 18  1  0  0  0
  7  8  1  0  0  0
  8  9  2  0  0  0
  9 20  1  0  0  0
 20 21  1  0  0  0
 21 22  2  0  0  0
 21 23  1  0  0  0
 23 25  1  0  0  0
 25 26  2  0  0  0
 25 30  1  0  0  0
 26 27  1  0  0  0
 27 28  2  0  0  0
 28 29  1  0  0  0
 29 30  2  0  0  0
 15 16  1  0  0  0
  3 10  1  0  0  0
  5 11  1  0  0  0
 18 19  1  0  0  0
 23 24  1  0  0  0
M  END
> <minimizedAffinity>
-8.33691

$$$$
2CBJ_OAN_A_1625


 30 31  0  0  0  0  0  0  0  0999 V2000
   29.9625   41.2445   21.1161 C   0  0  0  0  0  0  0  0  0  0  0  0
   30.5315   41.6966   22.4969 C   0  0  0  0  0  0  0  0  0  0  0  0
   29.6849   41.2695   23.5580 O   0  0  0  0  0  0  0  0  0  0  0  0
   31.9386   41.1731   22.7195 C   0  0  0  0  0  0  0  0  0  0  0  0
   32.4102   41.5353   24.0119 O   0  0  0  0  0  0  0  0  0  0  0  0
   32.8552   41.7675   21.6341 C   0  0  0  0  0  0  0  0  0  0  0  0
   32.3913   41.2917   20.3441 O   0  0  0  0  0  0  0  0  0  0  0  0
   31.0899   40.9148   20.1287 C   0  0  0  0  0  0  0  0  0  0  0  0
   30.8099   40.1981   19.0288 N   0  0  0  0  0  0  0  0  0  0  0  0
   29.6469   40.3004   23.5713 H   0  0  0  0  0  0  0  0  0  0  0  0
   32.4194   42.5019   24.0935 H   0  0  0  0  0  0  0  0  0  0  0  0
   27.1340   43.3083   19.5213 C   0  0  0  0  0  0  0  0  0  0  0  0
   27.8656   42.0513   20.0292 C   0  0  0  0  0  0  0  0  0  0  0  0
   27.3669   40.9283   19.8839 O   0  0  0  0  0  0  0  0  0  0  0  0
   29.0497   42.2919   20.6124 N   0  0  0  0  0  0  0  0  0  0  0  0
   29.3297   43.2305   20.7116 H   0  0  0  0  0  0  0  0  0  0  0  0
   34.3913   41.5211   21.7172 C   0  0  0  0  0  0  0  0  0  0  0  0
   34.6888   40.5431   22.7140 O   0  0  0  0  0  0  0  0  0  0  0  0
   34.3801   40.8578   23.5780 H   0  0  0  0  0  0  0  0  0  0  0  0
   31.7601   39.8277   18.0872 O   0  0  0  0  0  0  0  0  0  0  0  0
   31.4574   40.2389   16.8228 C   0  0  0  0  0  0  0  0  0  0  0  0
   30.7408   39.5236   16.1091 O   0  0  0  0  0  0  0  0  0  0  0  0
   31.9647   41.4391   16.4261 N   0  0  0  0  0  0  0  0  0  0  0  0
   32.5018   41.9447   17.0781 H   0  0  0  0  0  0  0  0  0  0  0  0
   31.7825   41.9971   15.1825 C   0  0  0  0  0  0  0  0  0  0  0  0
   32.6421   41.7359   14.0862 C   0  0  0  0  0  0  0  0  0  0  0  0
   32.4402   42.3339   12.8271 C   0  0  0  0  0  0  0  0  0  0  0  0
   31.3688   43.2093   12.6451 C   0  0  0  0  0  0  0  0  0  0  0  0
   30.4948   43.4779   13.7099 C   0  0  0  0  0  0  0  0  0  0  0  0
   30.7021   42.8713   14.9587 C   0  0  0  0  0  0  0  0  0  0  0  0
 12 13  1  0  0  0
 13 14  2  0  0  0
 13 15  1  0  0  0
 15  1  1  0  0  0
  1  2  1  0  0  0
  1  8  1  0  0  0
  2  3  1  0  0  0
  2  4  1  0  0  0
  4  5  1  0  0  0
  4  6  1  0  0  0
  6 17  1  0  0  0
  6  7  1  0  0  0
 17 18  1  0  0  0
  7  8  1  0  0  0
  8  9  2  0  0  0
  9 20  1  0  0  0
 20 21  1  0  0  0
 21 22  2  0  0  0
 21 23  1  0  0  0
 23 25  1  0  0  0
 25 26  2  0  0  0
 25 30  1  0  0  0
 26 27  1  0  0  0
 27 28  2  0  0  0
 28 29  1  0  0  0
 29 30  2  0  0  0
 15 16  1  0  0  0
  3 10  1  0  0  0
  5 11  1  0  0  0
 18 19  1  0  0  0
 23 24  1  0  0  0
M  END
> <minimizedAffinity>
-8.01419

$$$$
2CBJ_OAN_A_1625


 30 31  0  0  0  0  0  0  0  0999 V2000
   30.0381   41.2252   20.5823 C   0  0  0  0  0  0  0  0  0  0  0  0
   30.4754   41.6580   22.0162 C   0  0  0  0  0  0  0  0  0  0  0  0
   29.5169   41.2461   22.9841 O   0  0  0  0  0  0  0  0  0  0  0  0
   31.8408   41.1011   22.3756 C   0  0  0  0  0  0  0  0  0  0  0  0
   32.1881   41.4468   23.7112 O   0  0  0  0  0  0  0  0  0  0  0  0
   32.8751   41.6788   21.3918 C   0  0  0  0  0  0  0  0  0  0  0  0
   32.5327   41.2195   20.0586 O   0  0  0  0  0  0  0  0  0  0  0  0
   31.2514   40.8738   19.7110 C   0  0  0  0  0  0  0  0  0  0  0  0
   31.0672   40.1685   18.5838 N   0  0  0  0  0  0  0  0  0  0  0  0
   29.4559   40.2781   22.9871 H   0  0  0  0  0  0  0  0  0  0  0  0
   32.2109   42.4125   23.7998 H   0  0  0  0  0  0  0  0  0  0  0  0
   27.2646   43.4117   19.0559 C   0  0  0  0  0  0  0  0  0  0  0  0
   27.8931   42.1812   19.7371 C   0  0  0  0  0  0  0  0  0  0  0  0
   27.2071   41.1856   20.0000 O   0  0  0  0  0  0  0  0  0  0  0  0
   29.2046   42.2956   19.9965 N   0  0  0  0  0  0  0  0  0  0  0  0
   29.6414   43.1514   19.7818 H   0  0  0  0  0  0  0  0  0  0  0  0
   34.3892   41.3966   21.6271 C   0  0  0  0  0  0  0  0  0  0  0  0
   34.5659   40.4776   22.7055 O   0  0  0  0  0  0  0  0  0  0  0  0
   34.1932   40.8560   23.5171 H   0  0  0  0  0  0  0  0  0  0  0  0
   32.0987   39.7803   17.7400 O   0  0  0  0  0  0  0  0  0  0  0  0
   31.9729   40.2672   16.4726 C   0  0  0  0  0  0  0  0  0  0  0  0
   30.9745   40.9391   16.1788 O   0  0  0  0  0  0  0  0  0  0  0  0
   32.9804   39.9856   15.6003 N   0  0  0  0  0  0  0  0  0  0  0  0
   33.7446   39.4656   15.9394 H   0  0  0  0  0  0  0  0  0  0  0  0
   33.0097   40.3736   14.2814 C   0  0  0  0  0  0  0  0  0  0  0  0
   33.5179   41.6268   13.8569 C   0  0  0  0  0  0  0  0  0  0  0  0
   33.5211   42.0042   12.4999 C   0  0  0  0  0  0  0  0  0  0  0  0
   33.0110   41.1282   11.5410 C   0  0  0  0  0  0  0  0  0  0  0  0
   32.5114   39.8760   11.9312 C   0  0  0  0  0  0  0  0  0  0  0  0
   32.5190   39.5079   13.2857 C   0  0  0  0  0  0  0  0  0  0  0  0
 12 13  1  0  0  0
 13 14  2  0  0  0
 13 15  1  0  0  0
 15  1  1  0  0  0
  1  2  1  0  0  0
  1  8  1  0  0  0
  2  3  1  0  0  0
  2  4  1  0  0  0
  4  5  1  0  0  0
  4  6  1  0  0  0
  6 17  1  0  0  0
  6  7  1  0  0  0
 17 18  1  0  0  0
  7  8  1  0  0  0
  8  9  2  0  0  0
  9 20  1  0  0  0
 20 21  1  0  0  0
 21 22  2  0  0  0
 21 23  1  0  0  0
 23 25  1  0  0  0
 25 26  2  0  0  0
 25 30  1  0  0  0
 26 27  1  0  0  0
 27 28  2  0  0  0
 28 29  1  0  0  0
 29 30  2  0  0  0
 15 16  1  0  0  0
  3 10  1  0  0  0
  5 11  1  0  0  0
 18 19  1  0  0  0
 23 24  1  0  0  0
M  END
> <minimizedAffinity>
-7.72207

$$$$
2CBJ_OAN_A_1625


 30 31  0  0  0  0  0  0  0  0999 V2000
   34.0790   41.8745   13.8924 C   0  0  0  0  0  0  0  0  0  0  0  0
   35.4234   41.3312   13.3163 C   0  0  0  0  0  0  0  0  0  0  0  0
   36.3603   42.3869   13.1348 O   0  0  0  0  0  0  0  0  0  0  0  0
   36.0222   40.2608   14.2105 C   0  0  0  0  0  0  0  0  0  0  0  0
   37.2809   39.8313   13.7054 O   0  0  0  0  0  0  0  0  0  0  0  0
   35.0419   39.0747   14.2711 C   0  0  0  0  0  0  0  0  0  0  0  0
   33.8102   39.5404   14.8807 O   0  0  0  0  0  0  0  0  0  0  0  0
   33.4227   40.8556   14.8335 C   0  0  0  0  0  0  0  0  0  0  0  0
   32.4587   41.2644   15.6734 N   0  0  0  0  0  0  0  0  0  0  0  0
   36.5629   42.7905   13.9932 H   0  0  0  0  0  0  0  0  0  0  0  0
   37.1641   39.4655   12.8146 H   0  0  0  0  0  0  0  0  0  0  0  0
   32.1513   43.6472   11.0738 C   0  0  0  0  0  0  0  0  0  0  0  0
   33.2139   43.4647   12.1742 C   0  0  0  0  0  0  0  0  0  0  0  0
   33.9918   44.3835   12.4597 O   0  0  0  0  0  0  0  0  0  0  0  0
   33.2020   42.2614   12.7677 N   0  0  0  0  0  0  0  0  0  0  0  0
   32.5654   41.5902   12.4308 H   0  0  0  0  0  0  0  0  0  0  0  0
   35.4758   37.7655   14.9957 C   0  0  0  0  0  0  0  0  0  0  0  0
   36.6609   37.9856   15.7612 O   0  0  0  0  0  0  0  0  0  0  0  0
   37.3792   38.2644   15.1720 H   0  0  0  0  0  0  0  0  0  0  0  0
   31.8195   40.4287   16.5788 O   0  0  0  0  0  0  0  0  0  0  0  0
   31.4107   41.0696   17.7108 C   0  0  0  0  0  0  0  0  0  0  0  0
   30.7649   42.1220   17.6108 O   0  0  0  0  0  0  0  0  0  0  0  0
   31.7369   40.4907   18.8998 N   0  0  0  0  0  0  0  0  0  0  0  0
   32.2300   39.6390   18.8718 H   0  0  0  0  0  0  0  0  0  0  0  0
   31.4289   41.0074   20.1364 C   0  0  0  0  0  0  0  0  0  0  0  0
   32.3646   41.7153   20.9317 C   0  0  0  0  0  0  0  0  0  0  0  0
   32.0255   42.2204   22.2020 C   0  0  0  0  0  0  0  0  0  0  0  0
   30.7371   42.0222   22.6997 C   0  0  0  0  0  0  0  0  0  0  0  0
   29.7865   41.3345   21.9294 C   0  0  0  0  0  0  0  0  0  0  0  0
   30.1337   40.8409   20.6621 C   0  0  0  0  0  0  0  0  0  0  0  0
 12 13  1  0  0  0
 13 14  2  0  0  0
 13 15  1  0  0  0
 15  1  1  0  0  0
  1  2  1  0  0  0
  1  8  1  0  0  0
  2  3  1  0  0  0
  2  4  1  0  0  0
  4  5  1  0  0  0
  4  6  1  0  0  0
  6 17  1  0  0  0
  6  7  1  0  0  0
 17 18  1  0  0  0
  7  8  1  0  0  0
  8  9  2  0  0  0
  9 20  1  0  0  0
 20 21  1  0  0  0
 21 22  2  0  0  0
 21 23  1  0  0  0
 23 25  1  0  0  0
 25 26  2  0  0  0
 25 30  1  0  0  0
 26 27  1  0  0  0
 27 28  2  0  0  0
 28 29  1  0  0  0
 29 30  2  0  0  0
 15 16  1  0  0  0
  3 10  1  0  0  0
  5 11  1  0  0  0
 18 19  1  0  0  0
 23 24  1  0  0  0
M  END
> <minimizedAffinity>
-7.55783

$$$$
2CBJ_OAN_A_1625


 30 31  0  0  0  0  0  0  0  0999 V2000
   32.6234   38.7411   15.8690 C   0  0  0  0  0  0  0  0  0  0  0  0
   31.8959   37.5735   15.1328 C   0  0  0  0  0  0  0  0  0  0  0  0
   32.4810   36.3204   15.4681 O   0  0  0  0  0  0  0  0  0  0  0  0
   30.4123   37.5501   15.4524 C   0  0  0  0  0  0  0  0  0  0  0  0
   29.7823   36.4369   14.8296 O   0  0  0  0  0  0  0  0  0  0  0  0
   29.7864   38.8641   14.9493 C   0  0  0  0  0  0  0  0  0  0  0  0
   30.3926   39.9601   15.6820 O   0  0  0  0  0  0  0  0  0  0  0  0
   31.6462   39.8673   16.2316 C   0  0  0  0  0  0  0  0  0  0  0  0
   32.0071   40.7791   17.1483 N   0  0  0  0  0  0  0  0  0  0  0  0
   32.3806   36.1610   16.4196 H   0  0  0  0  0  0  0  0  0  0  0  0
   29.8942   36.4983   13.8680 H   0  0  0  0  0  0  0  0  0  0  0  0
   35.9973   39.3991   14.1408 C   0  0  0  0  0  0  0  0  0  0  0  0
   34.9838   38.6907   15.0597 C   0  0  0  0  0  0  0  0  0  0  0  0
   35.3291   37.7300   15.7588 O   0  0  0  0  0  0  0  0  0  0  0  0
   33.7458   39.2069   15.0281 N   0  0  0  0  0  0  0  0  0  0  0  0
   33.5733   39.9467   14.4019 H   0  0  0  0  0  0  0  0  0  0  0  0
   28.2395   39.0406   15.0064 C   0  0  0  0  0  0  0  0  0  0  0  0
   27.5959   38.1031   14.1429 O   0  0  0  0  0  0  0  0  0  0  0  0
   27.8894   38.2499   13.2301 H   0  0  0  0  0  0  0  0  0  0  0  0
   31.1892   41.8212   17.5628 O   0  0  0  0  0  0  0  0  0  0  0  0
   30.5464   41.5694   18.7386 C   0  0  0  0  0  0  0  0  0  0  0  0
   29.3079   41.5564   18.7606 O   0  0  0  0  0  0  0  0  0  0  0  0
   31.3263   41.3326   19.8299 N   0  0  0  0  0  0  0  0  0  0  0  0
   32.3025   41.3391   19.7024 H   0  0  0  0  0  0  0  0  0  0  0  0
   30.8516   41.0852   21.0966 C   0  0  0  0  0  0  0  0  0  0  0  0
   31.1349   41.9232   22.2041 C   0  0  0  0  0  0  0  0  0  0  0  0
   30.6477   41.6367   23.4942 C   0  0  0  0  0  0  0  0  0  0  0  0
   29.8657   40.4989   23.6973 C   0  0  0  0  0  0  0  0  0  0  0  0
   29.5598   39.6570   22.6168 C   0  0  0  0  0  0  0  0  0  0  0  0
   30.0457   39.9558   21.3342 C   0  0  0  0  0  0  0  0  0  0  0  0
 12 13  1  0  0  0
 13 14  2  0  0  0
 13 15  1  0  0  0
 15  1  1  0  0  0
  1  2  1  0  0  0
  1  8  1  0  0  0
  2  3  1  0  0  0
  2  4  1  0  0  0
  4  5  1  0  0  0
  4  6  1  0  0  0
  6 17  1  0  0  0
  6  7  1  0  0  0
 17 18  1  0  0  0
  7  8  1  0  0  0
  8  9  2  0  0  0
  9 20  1  0  0  0
 20 21  1  0  0  0
 21 22  2  0  0  0
 21 23  1  0  0  0
 23 25  1  0  0  0
 25 26  2  0  0  0
 25 30  1  0  0  0
 26 27  1  0  0  0
 27 28  2  0  0  0
 28 29  1  0  0  0
 29 30  2  0  0  0
 15 16  1  0  0  0
  3 10  1  0  0  0
  5 11  1  0  0  0
 18 19  1  0  0  0
 23 24  1  0  0  0
M  END
> <minimizedAffinity>
-7.52749

$$$$
2CBJ_OAN_A_1625


 30 31  0  0  0  0  0  0  0  0999 V2000
   30.0935   41.6131   19.2108 C   0  0  0  0  0  0  0  0  0  0  0  0
   30.1343   42.0612   20.7048 C   0  0  0  0  0  0  0  0  0  0  0  0
   28.8296   42.0502   21.2729 O   0  0  0  0  0  0  0  0  0  0  0  0
   31.0599   41.1826   21.5263 C   0  0  0  0  0  0  0  0  0  0  0  0
   31.0270   41.5623   22.8969 O   0  0  0  0  0  0  0  0  0  0  0  0
   32.4883   41.3280   20.9695 C   0  0  0  0  0  0  0  0  0  0  0  0
   32.4901   40.8389   19.6033 O   0  0  0  0  0  0  0  0  0  0  0  0
   31.3594   40.8356   18.8264 C   0  0  0  0  0  0  0  0  0  0  0  0
   31.3578   40.0903   17.7100 N   0  0  0  0  0  0  0  0  0  0  0  0
   28.4781   41.1463   21.2582 H   0  0  0  0  0  0  0  0  0  0  0  0
   31.3129   42.4852   22.9837 H   0  0  0  0  0  0  0  0  0  0  0  0
   28.7023   44.5110   17.0966 C   0  0  0  0  0  0  0  0  0  0  0  0
   28.6694   43.3088   18.0593 C   0  0  0  0  0  0  0  0  0  0  0  0
   27.5940   42.8724   18.4883 O   0  0  0  0  0  0  0  0  0  0  0  0
   29.8747   42.8039   18.3635 N   0  0  0  0  0  0  0  0  0  0  0  0
   30.6678   43.2578   17.9970 H   0  0  0  0  0  0  0  0  0  0  0  0
   33.6721   40.6547   21.7263 C   0  0  0  0  0  0  0  0  0  0  0  0
   33.6162   40.9627   23.1194 O   0  0  0  0  0  0  0  0  0  0  0  0
   33.6791   41.9230   23.2409 H   0  0  0  0  0  0  0  0  0  0  0  0
   32.4413   39.3326   17.2873 O   0  0  0  0  0  0  0  0  0  0  0  0
   32.9660   39.7539   16.1013 C   0  0  0  0  0  0  0  0  0  0  0  0
   32.5187   40.7810   15.5725 O   0  0  0  0  0  0  0  0  0  0  0  0
   33.9757   39.0076   15.5733 N   0  0  0  0  0  0  0  0  0  0  0  0
   34.2779   38.2228   16.0851 H   0  0  0  0  0  0  0  0  0  0  0  0
   34.6043   39.2690   14.3785 C   0  0  0  0  0  0  0  0  0  0  0  0
   34.1453   38.7602   13.1377 C   0  0  0  0  0  0  0  0  0  0  0  0
   34.8185   39.0316   11.9306 C   0  0  0  0  0  0  0  0  0  0  0  0
   35.9696   39.8201   11.9471 C   0  0  0  0  0  0  0  0  0  0  0  0
   36.4409   40.3466   13.1599 C   0  0  0  0  0  0  0  0  0  0  0  0
   35.7584   40.0747   14.3559 C   0  0  0  0  0  0  0  0  0  0  0  0
 12 13  1  0  0  0
 13 14  2  0  0  0
 13 15  1  0  0  0
 15  1  1  0  0  0
  1  2  1  0  0  0
  1  8  1  0  0  0
  2  3  1  0  0  0
  2  4  1  0  0  0
  4  5  1  0  0  0
  4  6  1  0  0  0
  6 17  1  0  0  0
  6  7  1  0  0  0
 17 18  1  0  0  0
  7  8  1  0  0  0
  8  9  2  0  0  0
  9 20  1  0  0  0
 20 21  1  0  0  0
 21 22  2  0  0  0
 21 23  1  0  0  0
 23 25  1  0  0  0
 25 26  2  0  0  0
 25 30  1  0  0  0
 26 27  1  0  0  0
 27 28  2  0  0  0
 28 29  1  0  0  0
 29 30  2  0  0  0
 15 16  1  0  0  0
  3 10  1  0  0  0
  5 11  1  0  0  0
 18 19  1  0  0  0
 23 24  1  0  0  0
M  END
> <minimizedAffinity>
-7.48113

$$$$
