2J4G_NB1_A_1590


 19 20  0  0  0  0  0  0  0  0999 V2000
    1.4414   -5.8270   33.8046 C   0  0  0  0  0  0  0  0  0  0  0  0
    1.7774   -7.2709   33.3443 C   0  0  0  0  0  0  0  0  0  0  0  0
    2.6209   -7.2693   32.0417 C   0  0  0  0  0  0  0  0  0  0  0  0
    2.0940   -6.2576   31.0064 C   0  0  0  0  0  0  0  0  0  0  0  0
    1.9918   -4.8422   31.6374 C   0  0  0  0  0  0  0  0  0  0  0  0
    3.3808   -7.0430   35.2168 C   0  0  0  0  0  0  0  0  0  0  0  0
    2.6073   -7.8222   34.4552 N   0  0  0  0  0  0  0  0  0  0  0  0
    2.7692   -8.5840   31.5189 O   0  0  0  0  0  0  0  0  0  0  0  0
    3.0426   -6.2952   29.9557 O   0  0  0  0  0  0  0  0  0  0  0  0
    1.1354   -4.9149   32.7755 O   0  0  0  0  0  0  0  0  0  0  0  0
    2.8482   -5.4840   34.8085 S   0  0  0  0  0  0  0  0  0  0  0  0
    1.8985   -8.9348   31.2744 H   0  0  0  0  0  0  0  0  0  0  0  0
    3.9207   -6.0764   30.3048 H   0  0  0  0  0  0  0  0  0  0  0  0
    1.3987   -3.7704   30.6842 C   0  0  0  0  0  0  0  0  0  0  0  0
    0.0744   -4.1434   30.3269 O   0  0  0  0  0  0  0  0  0  0  0  0
    0.0903   -5.0047   29.8809 H   0  0  0  0  0  0  0  0  0  0  0  0
    4.4161   -7.4582   36.2487 C   0  0  0  0  0  0  0  0  0  0  0  0
    5.9523   -6.5698   38.0970 C   0  0  0  0  0  0  0  0  0  0  0  0
    4.8982   -6.2241   37.0383 C   0  0  0  0  0  0  0  0  0  0  0  0
  1  2  1  0  0  0
  1 10  1  0  0  0
  1 11  1  0  0  0
  2  3  1  0  0  0
  2  7  1  0  0  0
  3  4  1  0  0  0
  3  8  1  0  0  0
  4  5  1  0  0  0
  4  9  1  0  0  0
  5 14  1  0  0  0
  5 10  1  0  0  0
 14 15  1  0  0  0
  6 17  1  0  0  0
  6  7  2  0  0  0
  6 11  1  0  0  0
 17 19  1  0  0  0
 18 19  1  0  0  0
  8 12  1  0  0  0
  9 13  1  0  0  0
 15 16  1  0  0  0
M  END
> <minimizedAffinity>
-8.52430

$$$$
2J4G_NB1_A_1590


 19 20  0  0  0  0  0  0  0  0999 V2000
    1.0494   -4.9988   32.5153 C   0  0  0  0  0  0  0  0  0  0  0  0
    1.4584   -5.5733   31.1325 C   0  0  0  0  0  0  0  0  0  0  0  0
    2.1753   -6.9421   31.2763 C   0  0  0  0  0  0  0  0  0  0  0  0
    3.2055   -6.9440   32.4216 C   0  0  0  0  0  0  0  0  0  0  0  0
    2.5384   -6.4918   33.7493 C   0  0  0  0  0  0  0  0  0  0  0  0
   -0.9694   -6.0560   31.0865 C   0  0  0  0  0  0  0  0  0  0  0  0
    0.1599   -5.7812   30.4272 N   0  0  0  0  0  0  0  0  0  0  0  0
    2.7142   -7.3779   30.0340 O   0  0  0  0  0  0  0  0  0  0  0  0
    3.6581   -8.2838   32.4927 O   0  0  0  0  0  0  0  0  0  0  0  0
    1.9787   -5.1945   33.5557 O   0  0  0  0  0  0  0  0  0  0  0  0
   -0.5450   -5.7267   32.6966 S   0  0  0  0  0  0  0  0  0  0  0  0
    3.3915   -6.7500   29.7374 H   0  0  0  0  0  0  0  0  0  0  0  0
    2.9024   -8.8726   32.6452 H   0  0  0  0  0  0  0  0  0  0  0  0
    3.5226   -6.3936   34.9455 C   0  0  0  0  0  0  0  0  0  0  0  0
    3.9222   -7.7020   35.3313 O   0  0  0  0  0  0  0  0  0  0  0  0
    3.1412   -8.2150   35.5917 H   0  0  0  0  0  0  0  0  0  0  0  0
   -2.3158   -6.4761   30.5212 C   0  0  0  0  0  0  0  0  0  0  0  0
   -2.7705   -6.7505   28.0146 C   0  0  0  0  0  0  0  0  0  0  0  0
   -2.5664   -5.7680   29.1740 C   0  0  0  0  0  0  0  0  0  0  0  0
  1  2  1  0  0  0
  1 10  1  0  0  0
  1 11  1  0  0  0
  2  3  1  0  0  0
  2  7  1  0  0  0
  3  4  1  0  0  0
  3  8  1  0  0  0
  4  5  1  0  0  0
  4  9  1  0  0  0
  5 14  1  0  0  0
  5 10  1  0  0  0
 14 15  1  0  0  0
  6 17  1  0  0  0
  6  7  2  0  0  0
  6 11  1  0  0  0
 17 19  1  0  0  0
 18 19  1  0  0  0
  8 12  1  0  0  0
  9 13  1  0  0  0
 15 16  1  0  0  0
M  END
> <minimizedAffinity>
-8.10986

$$$$
2J4G_NB1_A_1590


 19 20  0  0  0  0  0  0  0  0999 V2000
    1.4511   -6.8902   32.0687 C   0  0  0  0  0  0  0  0  0  0  0  0
    2.2730   -5.6169   31.7330 C   0  0  0  0  0  0  0  0  0  0  0  0
    1.3812   -4.3470   31.7428 C   0  0  0  0  0  0  0  0  0  0  0  0
    0.0326   -4.5752   31.0340 C   0  0  0  0  0  0  0  0  0  0  0  0
   -0.6958   -5.8050   31.6416 C   0  0  0  0  0  0  0  0  0  0  0  0
    2.9984   -5.9808   34.0719 C   0  0  0  0  0  0  0  0  0  0  0  0
    3.2623   -5.5195   32.8459 N   0  0  0  0  0  0  0  0  0  0  0  0
    2.0885   -3.2133   31.2547 O   0  0  0  0  0  0  0  0  0  0  0  0
   -0.6917   -3.3779   31.2503 O   0  0  0  0  0  0  0  0  0  0  0  0
    0.1556   -6.9423   31.5176 O   0  0  0  0  0  0  0  0  0  0  0  0
    1.5925   -6.8992   33.8249 S   0  0  0  0  0  0  0  0  0  0  0  0
    2.3357   -3.3606   30.3284 H   0  0  0  0  0  0  0  0  0  0  0  0
   -0.7729   -3.2169   32.2034 H   0  0  0  0  0  0  0  0  0  0  0  0
   -2.0340   -6.1542   30.9370 C   0  0  0  0  0  0  0  0  0  0  0  0
   -2.0666   -5.5317   29.6596 O   0  0  0  0  0  0  0  0  0  0  0  0
   -1.9946   -4.5703   29.7665 H   0  0  0  0  0  0  0  0  0  0  0  0
    3.8056   -5.7950   35.3459 C   0  0  0  0  0  0  0  0  0  0  0  0
    5.0304   -7.0633   37.2051 C   0  0  0  0  0  0  0  0  0  0  0  0
    4.1162   -7.1671   35.9783 C   0  0  0  0  0  0  0  0  0  0  0  0
  1  2  1  0  0  0
  1 10  1  0  0  0
  1 11  1  0  0  0
  2  3  1  0  0  0
  2  7  1  0  0  0
  3  4  1  0  0  0
  3  8  1  0  0  0
  4  5  1  0  0  0
  4  9  1  0  0  0
  5 14  1  0  0  0
  5 10  1  0  0  0
 14 15  1  0  0  0
  6 17  1  0  0  0
  6  7  2  0  0  0
  6 11  1  0  0  0
 17 19  1  0  0  0
 18 19  1  0  0  0
  8 12  1  0  0  0
  9 13  1  0  0  0
 15 16  1  0  0  0
M  END
> <minimizedAffinity>
-7.77791

$$$$
2J4G_NB1_A_1590


 19 20  0  0  0  0  0  0  0  0999 V2000
   -1.0650   -5.4532   32.5904 C   0  0  0  0  0  0  0  0  0  0  0  0
   -0.5949   -4.3526   31.6018 C   0  0  0  0  0  0  0  0  0  0  0  0
    0.8347   -4.6398   31.0709 C   0  0  0  0  0  0  0  0  0  0  0  0
    1.7907   -5.1000   32.1878 C   0  0  0  0  0  0  0  0  0  0  0  0
    1.1926   -6.3182   32.9432 C   0  0  0  0  0  0  0  0  0  0  0  0
   -2.1504   -5.5993   30.1338 C   0  0  0  0  0  0  0  0  0  0  0  0
   -1.5588   -4.4484   30.4667 N   0  0  0  0  0  0  0  0  0  0  0  0
    1.3373   -3.5436   30.3164 O   0  0  0  0  0  0  0  0  0  0  0  0
    2.9896   -5.4384   31.5148 O   0  0  0  0  0  0  0  0  0  0  0  0
   -0.0794   -5.9448   33.4688 O   0  0  0  0  0  0  0  0  0  0  0  0
   -1.7968   -6.5931   31.4636 S   0  0  0  0  0  0  0  0  0  0  0  0
    1.4153   -2.7651   30.8898 H   0  0  0  0  0  0  0  0  0  0  0  0
    2.8061   -6.1214   30.8509 H   0  0  0  0  0  0  0  0  0  0  0  0
    2.0578   -6.8044   34.1365 C   0  0  0  0  0  0  0  0  0  0  0  0
    1.6901   -8.1367   34.4688 O   0  0  0  0  0  0  0  0  0  0  0  0
    0.7519   -8.1617   34.7137 H   0  0  0  0  0  0  0  0  0  0  0  0
   -2.9967   -5.9078   28.9100 C   0  0  0  0  0  0  0  0  0  0  0  0
   -3.1344   -7.8906   27.2930 C   0  0  0  0  0  0  0  0  0  0  0  0
   -3.1654   -7.4333   28.7563 C   0  0  0  0  0  0  0  0  0  0  0  0
  1  2  1  0  0  0
  1 10  1  0  0  0
  1 11  1  0  0  0
  2  3  1  0  0  0
  2  7  1  0  0  0
  3  4  1  0  0  0
  3  8  1  0  0  0
  4  5  1  0  0  0
  4  9  1  0  0  0
  5 14  1  0  0  0
  5 10  1  0  0  0
 14 15  1  0  0  0
  6 17  1  0  0  0
  6  7  2  0  0  0
  6 11  1  0  0  0
 17 19  1  0  0  0
 18 19  1  0  0  0
  8 12  1  0  0  0
  9 13  1  0  0  0
 15 16  1  0  0  0
M  END
> <minimizedAffinity>
-7.55354

$$$$
2J4G_NB1_A_1590


 19 20  0  0  0  0  0  0  0  0999 V2000
   -0.2312   -5.0633   31.4012 C   0  0  0  0  0  0  0  0  0  0  0  0
   -0.8092   -5.4962   32.7753 C   0  0  0  0  0  0  0  0  0  0  0  0
   -1.8078   -6.6746   32.6249 C   0  0  0  0  0  0  0  0  0  0  0  0
   -2.7692   -6.4771   31.4376 C   0  0  0  0  0  0  0  0  0  0  0  0
   -1.9692   -6.2194   30.1316 C   0  0  0  0  0  0  0  0  0  0  0  0
    1.4461   -6.5054   32.9314 C   0  0  0  0  0  0  0  0  0  0  0  0
    0.3830   -5.9692   33.5380 N   0  0  0  0  0  0  0  0  0  0  0  0
   -2.4761   -6.9470   33.8508 O   0  0  0  0  0  0  0  0  0  0  0  0
   -3.5065   -7.6841   31.3705 O   0  0  0  0  0  0  0  0  0  0  0  0
   -1.1416   -5.0744   30.3262 O   0  0  0  0  0  0  0  0  0  0  0  0
    1.1659   -6.1320   31.2995 S   0  0  0  0  0  0  0  0  0  0  0  0
   -3.0066   -6.1768   34.1079 H   0  0  0  0  0  0  0  0  0  0  0  0
   -2.8963   -8.4300   31.2600 H   0  0  0  0  0  0  0  0  0  0  0  0
   -2.8614   -5.9359   28.8935 C   0  0  0  0  0  0  0  0  0  0  0  0
   -2.2238   -6.4470   27.7305 O   0  0  0  0  0  0  0  0  0  0  0  0
   -1.3622   -6.0158   27.6181 H   0  0  0  0  0  0  0  0  0  0  0  0
    2.6428   -7.1996   33.5599 C   0  0  0  0  0  0  0  0  0  0  0  0
    3.9555   -7.1807   35.7603 C   0  0  0  0  0  0  0  0  0  0  0  0
    3.1977   -6.3475   34.7197 C   0  0  0  0  0  0  0  0  0  0  0  0
  1  2  1  0  0  0
  1 10  1  0  0  0
  1 11  1  0  0  0
  2  3  1  0  0  0
  2  7  1  0  0  0
  3  4  1  0  0  0
  3  8  1  0  0  0
  4  5  1  0  0  0
  4  9  1  0  0  0
  5 14  1  0  0  0
  5 10  1  0  0  0
 14 15  1  0  0  0
  6 17  1  0  0  0
  6  7  2  0  0  0
  6 11  1  0  0  0
 17 19  1  0  0  0
 18 19  1  0  0  0
  8 12  1  0  0  0
  9 13  1  0  0  0
 15 16  1  0  0  0
M  END
> <minimizedAffinity>
-7.22448

$$$$
