5UFF_8B7_A_300
  RCSB PDB12061719513D
Coordinates from PDB:5UFF:A:300 Model:1 without hydrogens
 33 35  0  0  0  0            999 V2000
    9.4580    6.6640   25.3960   C 0  0  0  0  0  0  0  0  0  0  0  0
    8.1400    6.9700   25.7010   O 0  0  0  0  0  0  0  0  0  0  0  0
   10.1810    6.4930   26.7020   C 0  0  0  0  0  0  0  0  0  0  0  0
   10.1240    7.7260   27.4540   O 0  0  0  0  0  0  0  0  0  0  0  0
    9.5790    5.3910   27.5210   C 0  0  0  0  0  0  0  0  0  0  0  0
   10.3780    5.1730   28.7260   O 0  0  0  0  0  0  0  0  0  0  0  0
    9.4490    4.1140   26.7650   C 0  0  0  0  0  0  0  0  0  0  0  0
   10.7780    3.5520   26.6490   O 0  0  0  0  0  0  0  0  0  0  0  0
    8.8260    4.2580   25.3870   C 0  0  0  0  0  0  0  0  0  0  0  0
    9.3450    5.4030   24.6090   O 0  0  0  0  0  0  0  0  0  0  0  0
    9.0080    3.0300   24.5790   C 0  0  0  0  0  0  0  0  0  0  0  0
    6.1540    7.4930   24.4680   C 0  0  0  0  0  0  0  0  0  0  0  0
    6.2210    6.2780   23.7720   O 0  0  0  0  0  0  0  0  0  0  0  0
    7.5490    7.9060   24.7160   C 0  0  0  0  0  0  0  0  0  0  0  0
    7.6260    9.2240   25.3120   C 0  0  0  0  0  0  0  0  0  0  0  0
    9.0330    9.6050   25.5160   O 0  0  0  0  0  0  0  0  0  0  0  0
    6.9200   10.2480   24.5120   C 0  0  0  0  0  0  0  0  0  0  0  0
    7.6600   10.6070   23.3400   O 0  0  0  0  0  0  0  0  0  0  0  0
    5.4680    9.8750   24.1880   C 0  0  0  0  0  0  0  0  0  0  0  0
    5.4500    8.4570   23.6130   O 0  0  0  0  0  0  0  0  0  0  0  0
    4.9170   10.7480   23.2450   C 0  0  0  0  0  0  0  0  0  0  0  0
    3.6680   10.2030   22.9510   O 0  0  0  0  0  0  0  0  0  0  0  0
    4.2180    2.9220   22.9250   C 0  0  0  0  0  0  0  0  0  0  0  0
    3.3280    1.8490   22.6510   O 0  0  0  0  0  0  0  0  0  0  0  0
    3.8650    4.0710   22.1380   C 0  0  0  0  0  0  0  0  0  0  0  0
    3.7070    3.6520   20.7150   O 0  0  0  0  0  0  0  0  0  0  0  0
    4.8840    5.0920   22.2910   C 0  0  0  0  0  0  0  0  0  0  0  0
    4.6030    6.2330   21.3840   O 0  0  0  0  0  0  0  0  0  0  0  0
    4.9600    5.5820   23.7030   C 0  0  0  0  0  0  0  0  0  0  0  0
    5.0530    4.4350   24.7010   C 0  0  0  0  0  0  0  0  0  0  0  0
    4.0910    3.3110   24.3390   O 0  0  0  0  0  0  0  0  0  0  0  0
    4.7230    4.8590   26.0110   C 0  0  0  0  0  0  0  0  0  0  0  0
    5.6420    4.2480   26.8980   O 0  0  0  0  0  0  0  0  0  0  0  0
 26 25  1  0  0  0  0
 28 27  1  0  0  0  0
 25 27  1  0  0  0  0
 25 23  1  0  0  0  0
 27 29  1  0  0  0  0
 24 23  1  0  0  0  0
 23 31  1  0  0  0  0
 22 21  1  0  0  0  0
 21 19  1  0  0  0  0
 18 17  1  0  0  0  0
 20 19  1  0  0  0  0
 20 12  1  0  0  0  0
 29 13  1  0  0  0  0
 29 30  1  0  0  0  0
 13 12  1  0  0  0  0
 19 17  1  0  0  0  0
 31 30  1  0  0  0  0
 12 14  1  0  0  0  0
 17 15  1  0  0  0  0
 11  9  1  0  0  0  0
 10  9  1  0  0  0  0
 10  1  1  0  0  0  0
 30 32  1  0  0  0  0
 14 15  1  0  0  0  0
 14  2  1  0  0  0  0
 15 16  1  0  0  0  0
  9  7  1  0  0  0  0
  1  2  1  0  0  0  0
  1  3  1  0  0  0  0
 32 33  1  0  0  0  0
  8  7  1  0  0  0  0
  3  4  1  0  0  0  0
  3  5  1  0  0  0  0
  7  5  1  0  0  0  0
  5  6  1  0  0  0  0
A    1
CA1
A    2
OA1
A    3
CA2
A    4
OA2
A    5
CA3
A    6
OA3
A    7
CA4
A    8
OA4
A    9
CA5
A   10
OA5
A   11
CA6
A   12
CB1
A   13
OB1
A   14
CB2
A   15
CB3
A   16
OB3
A   17
CB4
A   18
OB4
A   19
CB5
A   20
OB5
A   21
CB6
A   22
OB6
A   23
CC1
A   24
OC1
A   25
CC2
A   26
OC2
A   27
CC3
A   28
OC3
A   29
CC4
A   30
CC5
A   31
OC5
A   32
CC6
A   33
OC6
M  END
>  <InstanceId>
5UFF_8B7_A_300

>  <ChemCompId>
8B7

>  <PdbId>
5UFF

>  <ChainId>
A

>  <ResidueNumber>
300

>  <InsertionCode>


>  <Model>
1

>  <AltIds>


>  <MissingHeavyAtoms>
0

>  <ObservedFormula>
C18 O15

>  <Name>
6-deoxy-alpha-L-galactopyranosyl-(1->2)-beta-D-galactopyranosyl-(1->4)-beta-D-glucopyranose

>  <SystematicName>
(2~{S},3~{S},4~{R},5~{S},6~{S})-2-[(2~{S},3~{R},4~{S},5~{R},6~{R})-6-(hydroxymethyl)-2-[(2~{R},3~{S},4~{R},5~{R},6~{R})-2-(hydroxymethyl)-4,5,6-tris(oxidanyl)oxan-3-yl]oxy-4,5-bis(oxidanyl)oxan-3-yl]oxy-6-methyl-oxane-3,4,5-triol

>  <Synonyms>


>  <Type>
NON-POLYMER

>  <Formula>
C18 H32 O15

>  <MolecularWeight>
488.438

>  <ModifiedDate>
2017-10-13

>  <Parent>


>  <OneLetterCode>


>  <SubcomponentList>


>  <AmbiguousFlag>
N

>  <InChI>
InChI=1S/C18H32O15/c1-4-7(21)9(23)13(27)17(29-4)33-15-10(24)8(22)5(2-19)31-18(15)32-14-6(3-20)30-16(28)12(26)11(14)25/h4-28H,2-3H2,1H3/t4-,5+,6+,7+,8-,9+,10-,11+,12+,13-,14+,15+,16+,17-,18-/m0/s1

>  <InChIKey>
SNFSYLYCDAVZGP-OHWKOEMOSA-N

>  <SMILES>
C[C@H]1[C@H]([C@H]([C@@H]([C@@H](O1)O[C@@H]2[C@H]([C@H]([C@H](O[C@H]2O[C@@H]3[C@H](O[C@H]([C@@H]([C@H]3O)O)O)CO)CO)O)O)O)O)O

$$$$
