2QPQ_CIT_A_302
  RCSB PDB12061706503D
Coordinates from PDB:2QPQ:A:302 Model:1 without hydrogens
 13 12  0  0  0  0            999 V2000
   17.7600   -2.0790   63.6750   C 0  0  0  0  0  0  0  0  0  0  0  0
   17.1360   -2.7910   64.4770   O 0  0  0  0  0  0  0  0  0  0  0  0
   19.0030   -2.2360   63.5230   O 0  0  0  0  0  0  0  0  0  0  0  0
   17.0030   -1.0520   62.8600   C 0  0  0  0  0  0  0  0  0  0  0  0
   16.4370   -1.7890   61.6530   C 0  0  0  0  0  0  0  0  0  0  0  0
   15.5850   -2.8390   62.1850   O 0  0  0  0  0  0  0  0  0  0  0  0
   17.5140   -2.4930   60.7930   C 0  0  0  0  0  0  0  0  0  0  0  0
   16.9450   -3.0100   59.4810   C 0  0  0  0  0  0  0  0  0  0  0  0
   17.7080   -3.4240   58.5750   O 0  0  0  0  0  0  0  0  0  0  0  0
   15.7030   -3.0450   59.2730   O 0  0  0  0  0  0  0  0  0  0  0  0
   15.6000   -0.7730   60.8610   C 0  0  0  0  0  0  0  0  0  0  0  0
   16.0900    0.1050   60.1210   O 0  0  0  0  0  0  0  0  0  0  0  0
   14.3760   -0.8310   60.9510   O 0  0  0  0  0  0  0  0  0  0  0  0
  1  2  2  0  0  0  0
  1  3  1  0  0  0  0
  1  4  1  0  0  0  0
  4  5  1  0  0  0  0
  5  6  1  0  0  0  0
  5  7  1  0  0  0  0
  5 11  1  0  0  0  0
  7  8  1  0  0  0  0
  8  9  2  0  0  0  0
  8 10  1  0  0  0  0
 11 12  2  0  0  0  0
 11 13  1  0  0  0  0
A    1
C1
A    2
O1
A    3
O2
A    4
C2
A    5
C3
A    6
O7
A    7
C4
A    8
C5
A    9
O3
A   10
O4
A   11
C6
A   12
O5
A   13
O6
M  END
>  <InstanceId>
2QPQ_CIT_A_302

>  <ChemCompId>
CIT

>  <PdbId>
2QPQ

>  <ChainId>
A

>  <ResidueNumber>
302

>  <InsertionCode>


>  <Model>
1

>  <AltIds>


>  <MissingHeavyAtoms>
0

>  <ObservedFormula>
C6 O7

>  <Name>
CITRIC ACID

>  <SystematicName>
2-hydroxypropane-1,2,3-tricarboxylic acid

>  <Synonyms>


>  <Type>
NON-POLYMER

>  <Formula>
C6 H8 O7

>  <MolecularWeight>
192.124

>  <ModifiedDate>
2011-06-04

>  <Parent>


>  <OneLetterCode>


>  <SubcomponentList>


>  <AmbiguousFlag>
N

>  <InChI>
InChI=1S/C6H8O7/c7-3(8)1-6(13,5(11)12)2-4(9)10/h13H,1-2H2,(H,7,8)(H,9,10)(H,11,12)

>  <InChIKey>
KRKNYBCHXYNGOX-UHFFFAOYSA-N

>  <SMILES>
C(C(=O)O)C(CC(=O)O)(C(=O)O)O

$$$$
