2QPQ_CIT_A_302


 17 16  0  0  0  0  0  0  0  0999 V2000
   16.1434   -1.3418   61.5585 C   0  0  0  0  0  0  0  0  0  0  0  0
   15.1046   -1.1044   62.5464 O   0  0  0  0  0  0  0  0  0  0  0  0
   15.0772   -1.8457   63.1714 H   0  0  0  0  0  0  0  0  0  0  0  0
   16.2037   -0.1778   60.5577 C   0  0  0  0  0  0  0  0  0  0  0  0
   17.2634    0.3759   60.1984 O   0  0  0  0  0  0  0  0  0  0  0  0
   15.1503    0.2283   60.0729 O   0  0  0  0  0  0  0  0  0  0  0  0
   14.3375   -0.1659   60.3216 H   0  0  0  0  0  0  0  0  0  0  0  0
   17.4614   -1.3385   62.3222 C   0  0  0  0  0  0  0  0  0  0  0  0
   17.1253   -1.6649   63.7618 C   0  0  0  0  0  0  0  0  0  0  0  0
   16.9962   -0.7374   64.5758 O   0  0  0  0  0  0  0  0  0  0  0  0
   16.9463   -2.8591   64.1288 O   0  0  0  0  0  0  0  0  0  0  0  0
   17.0442   -3.5582   63.5127 H   0  0  0  0  0  0  0  0  0  0  0  0
   15.8132   -2.6999   60.8940 C   0  0  0  0  0  0  0  0  0  0  0  0
   14.3221   -2.9972   60.9190 C   0  0  0  0  0  0  0  0  0  0  0  0
   13.9088   -4.1819   60.9283 O   0  0  0  0  0  0  0  0  0  0  0  0
   13.4686   -2.0707   60.9402 O   0  0  0  0  0  0  0  0  0  0  0  0
   13.7478   -1.1763   60.9340 H   0  0  0  0  0  0  0  0  0  0  0  0
  9 10  2  0  0  0
  9 11  1  0  0  0
  9  8  1  0  0  0
  8  1  1  0  0  0
  1  2  1  0  0  0
  1 13  1  0  0  0
  1  4  1  0  0  0
 13 14  1  0  0  0
 14 15  2  0  0  0
 14 16  1  0  0  0
  4  5  2  0  0  0
  4  6  1  0  0  0
 11 12  1  0  0  0
  2  3  1  0  0  0
 16 17  1  0  0  0
  6  7  1  0  0  0
M  END
> <minimizedAffinity>
-7.01894

$$$$
2QPQ_CIT_A_302


 17 16  0  0  0  0  0  0  0  0999 V2000
   16.8985   -1.3032   62.4624 C   0  0  0  0  0  0  0  0  0  0  0  0
   16.1251   -0.0751   62.5327 O   0  0  0  0  0  0  0  0  0  0  0  0
   16.1505    0.3727   61.6727 H   0  0  0  0  0  0  0  0  0  0  0  0
   16.8713   -2.0289   63.8162 C   0  0  0  0  0  0  0  0  0  0  0  0
   16.7700   -1.4460   64.9155 O   0  0  0  0  0  0  0  0  0  0  0  0
   16.9434   -3.2555   63.8207 O   0  0  0  0  0  0  0  0  0  0  0  0
   17.0202   -3.7233   63.0125 H   0  0  0  0  0  0  0  0  0  0  0  0
   16.1775   -2.2000   61.4642 C   0  0  0  0  0  0  0  0  0  0  0  0
   14.9030   -1.4787   61.0803 C   0  0  0  0  0  0  0  0  0  0  0  0
   14.9405   -0.6278   60.1780 O   0  0  0  0  0  0  0  0  0  0  0  0
   13.8084   -1.7565   61.6437 O   0  0  0  0  0  0  0  0  0  0  0  0
   13.7821   -2.3994   62.3249 H   0  0  0  0  0  0  0  0  0  0  0  0
   18.3242   -0.8977   62.0174 C   0  0  0  0  0  0  0  0  0  0  0  0
   18.3740   -0.5198   60.5453 C   0  0  0  0  0  0  0  0  0  0  0  0
   19.0477   -1.2012   59.7352 O   0  0  0  0  0  0  0  0  0  0  0  0
   17.7389    0.4734   60.1010 O   0  0  0  0  0  0  0  0  0  0  0  0
   17.2273    1.0006   60.6826 H   0  0  0  0  0  0  0  0  0  0  0  0
  9 10  2  0  0  0
  9 11  1  0  0  0
  9  8  1  0  0  0
  8  1  1  0  0  0
  1  2  1  0  0  0
  1 13  1  0  0  0
  1  4  1  0  0  0
 13 14  1  0  0  0
 14 15  2  0  0  0
 14 16  1  0  0  0
  4  5  2  0  0  0
  4  6  1  0  0  0
 11 12  1  0  0  0
  2  3  1  0  0  0
 16 17  1  0  0  0
  6  7  1  0  0  0
M  END
> <minimizedAffinity>
-6.86162

$$$$
2QPQ_CIT_A_302


 17 16  0  0  0  0  0  0  0  0999 V2000
   17.1614   -1.4550   62.1185 C   0  0  0  0  0  0  0  0  0  0  0  0
   16.3720   -0.4340   62.7861 O   0  0  0  0  0  0  0  0  0  0  0  0
   15.6543   -0.8548   63.2849 H   0  0  0  0  0  0  0  0  0  0  0  0
   18.3050   -0.8089   61.3217 C   0  0  0  0  0  0  0  0  0  0  0  0
   19.5138   -1.0464   61.5236 O   0  0  0  0  0  0  0  0  0  0  0  0
   18.0165   -0.0189   60.4259 O   0  0  0  0  0  0  0  0  0  0  0  0
   17.1184    0.1810   60.2488 H   0  0  0  0  0  0  0  0  0  0  0  0
   17.8040   -2.2825   63.2242 C   0  0  0  0  0  0  0  0  0  0  0  0
   17.4416   -1.6096   64.5311 C   0  0  0  0  0  0  0  0  0  0  0  0
   18.2367   -0.7999   65.0329 O   0  0  0  0  0  0  0  0  0  0  0  0
   16.3344   -1.8401   65.0913 O   0  0  0  0  0  0  0  0  0  0  0  0
   15.7353   -2.4518   64.7109 H   0  0  0  0  0  0  0  0  0  0  0  0
   16.1791   -2.2576   61.2320 C   0  0  0  0  0  0  0  0  0  0  0  0
   14.9063   -1.4771   60.9435 C   0  0  0  0  0  0  0  0  0  0  0  0
   14.9406   -0.4421   60.2349 O   0  0  0  0  0  0  0  0  0  0  0  0
   13.7913   -1.8497   61.3963 O   0  0  0  0  0  0  0  0  0  0  0  0
   13.7351   -2.6189   61.9284 H   0  0  0  0  0  0  0  0  0  0  0  0
  9 10  2  0  0  0
  9 11  1  0  0  0
  9  8  1  0  0  0
  8  1  1  0  0  0
  1  2  1  0  0  0
  1 13  1  0  0  0
  1  4  1  0  0  0
 13 14  1  0  0  0
 14 15  2  0  0  0
 14 16  1  0  0  0
  4  5  2  0  0  0
  4  6  1  0  0  0
 11 12  1  0  0  0
  2  3  1  0  0  0
 16 17  1  0  0  0
  6  7  1  0  0  0
M  END
> <minimizedAffinity>
-6.84534

$$$$
2QPQ_CIT_A_302


 17 16  0  0  0  0  0  0  0  0999 V2000
   16.5954   -1.9091   61.4478 C   0  0  0  0  0  0  0  0  0  0  0  0
   16.4498   -2.9956   62.4016 O   0  0  0  0  0  0  0  0  0  0  0  0
   17.3004   -3.4497   62.5068 H   0  0  0  0  0  0  0  0  0  0  0  0
   15.2577   -1.1758   61.2662 C   0  0  0  0  0  0  0  0  0  0  0  0
   14.9935   -0.4430   60.2907 O   0  0  0  0  0  0  0  0  0  0  0  0
   14.3911   -1.3246   62.1244 O   0  0  0  0  0  0  0  0  0  0  0  0
   14.5578   -1.8683   62.8692 H   0  0  0  0  0  0  0  0  0  0  0  0
   17.5621   -0.9171   62.0817 C   0  0  0  0  0  0  0  0  0  0  0  0
   17.5705   -1.2135   63.5663 C   0  0  0  0  0  0  0  0  0  0  0  0
   18.4785   -1.9170   64.0354 O   0  0  0  0  0  0  0  0  0  0  0  0
   16.6876   -0.7290   64.3270 O   0  0  0  0  0  0  0  0  0  0  0  0
   16.0027   -0.1979   63.9710 H   0  0  0  0  0  0  0  0  0  0  0  0
   17.1247   -2.5436   60.1392 C   0  0  0  0  0  0  0  0  0  0  0  0
   16.1943   -3.6267   59.6160 C   0  0  0  0  0  0  0  0  0  0  0  0
   16.6430   -4.5717   58.9231 O   0  0  0  0  0  0  0  0  0  0  0  0
   14.9603   -3.6100   59.8689 O   0  0  0  0  0  0  0  0  0  0  0  0
   14.5970   -2.9167   60.3840 H   0  0  0  0  0  0  0  0  0  0  0  0
  9 10  2  0  0  0
  9 11  1  0  0  0
  9  8  1  0  0  0
  8  1  1  0  0  0
  1  2  1  0  0  0
  1 13  1  0  0  0
  1  4  1  0  0  0
 13 14  1  0  0  0
 14 15  2  0  0  0
 14 16  1  0  0  0
  4  5  2  0  0  0
  4  6  1  0  0  0
 11 12  1  0  0  0
  2  3  1  0  0  0
 16 17  1  0  0  0
  6  7  1  0  0  0
M  END
> <minimizedAffinity>
-6.58939

$$$$
2QPQ_CIT_A_302


 17 16  0  0  0  0  0  0  0  0999 V2000
   16.8229   -1.3456   61.5220 C   0  0  0  0  0  0  0  0  0  0  0  0
   16.9769   -2.7898   61.5658 O   0  0  0  0  0  0  0  0  0  0  0  0
   17.9007   -3.0107   61.7623 H   0  0  0  0  0  0  0  0  0  0  0  0
   15.3650   -0.9738   61.2117 C   0  0  0  0  0  0  0  0  0  0  0  0
   15.0076   -0.3594   60.1853 O   0  0  0  0  0  0  0  0  0  0  0  0
   14.4958   -1.3074   62.0135 O   0  0  0  0  0  0  0  0  0  0  0  0
   14.7309   -1.7698   62.7938 H   0  0  0  0  0  0  0  0  0  0  0  0
   17.1174   -0.8464   62.9307 C   0  0  0  0  0  0  0  0  0  0  0  0
   17.7382   -2.0077   63.6776 C   0  0  0  0  0  0  0  0  0  0  0  0
   18.9511   -2.2318   63.5427 O   0  0  0  0  0  0  0  0  0  0  0  0
   17.0445   -2.7224   64.4528 O   0  0  0  0  0  0  0  0  0  0  0  0
   16.1287   -2.5516   64.5534 H   0  0  0  0  0  0  0  0  0  0  0  0
   17.8223   -0.8310   60.4582 C   0  0  0  0  0  0  0  0  0  0  0  0
   18.7420   -1.9354   59.9613 C   0  0  0  0  0  0  0  0  0  0  0  0
   18.4452   -2.5995   58.9388 O   0  0  0  0  0  0  0  0  0  0  0  0
   19.8216   -2.2055   60.5517 O   0  0  0  0  0  0  0  0  0  0  0  0
   20.0692   -1.7261   61.3178 H   0  0  0  0  0  0  0  0  0  0  0  0
  9 10  2  0  0  0
  9 11  1  0  0  0
  9  8  1  0  0  0
  8  1  1  0  0  0
  1  2  1  0  0  0
  1 13  1  0  0  0
  1  4  1  0  0  0
 13 14  1  0  0  0
 14 15  2  0  0  0
 14 16  1  0  0  0
  4  5  2  0  0  0
  4  6  1  0  0  0
 11 12  1  0  0  0
  2  3  1  0  0  0
 16 17  1  0  0  0
  6  7  1  0  0  0
M  END
> <minimizedAffinity>
-6.58800

$$$$
2QPQ_CIT_A_302


 17 16  0  0  0  0  0  0  0  0999 V2000
   17.8209   -1.4223   61.5423 C   0  0  0  0  0  0  0  0  0  0  0  0
   17.0339   -2.6402   61.4484 O   0  0  0  0  0  0  0  0  0  0  0  0
   16.3844   -2.6618   62.1685 H   0  0  0  0  0  0  0  0  0  0  0  0
   18.8572   -1.3682   60.4095 C   0  0  0  0  0  0  0  0  0  0  0  0
   19.7288   -2.2421   60.2223 O   0  0  0  0  0  0  0  0  0  0  0  0
   18.8231   -0.4154   59.6345 O   0  0  0  0  0  0  0  0  0  0  0  0
   18.1811    0.2577   59.7474 H   0  0  0  0  0  0  0  0  0  0  0  0
   16.8493   -0.2725   61.3095 C   0  0  0  0  0  0  0  0  0  0  0  0
   15.4590   -0.8709   61.3413 C   0  0  0  0  0  0  0  0  0  0  0  0
   14.8476   -1.0320   60.2737 O   0  0  0  0  0  0  0  0  0  0  0  0
   14.9358   -1.2324   62.4314 O   0  0  0  0  0  0  0  0  0  0  0  0
   15.3990   -1.1100   63.2367 H   0  0  0  0  0  0  0  0  0  0  0  0
   18.4592   -1.4213   62.9522 C   0  0  0  0  0  0  0  0  0  0  0  0
   17.4372   -1.7166   64.0389 C   0  0  0  0  0  0  0  0  0  0  0  0
   17.0289   -0.8020   64.7946 O   0  0  0  0  0  0  0  0  0  0  0  0
   16.9700   -2.8749   64.2029 O   0  0  0  0  0  0  0  0  0  0  0  0
   17.2564   -3.5778   63.6533 H   0  0  0  0  0  0  0  0  0  0  0  0
  9 10  2  0  0  0
  9 11  1  0  0  0
  9  8  1  0  0  0
  8  1  1  0  0  0
  1  2  1  0  0  0
  1 13  1  0  0  0
  1  4  1  0  0  0
 13 14  1  0  0  0
 14 15  2  0  0  0
 14 16  1  0  0  0
  4  5  2  0  0  0
  4  6  1  0  0  0
 11 12  1  0  0  0
  2  3  1  0  0  0
 16 17  1  0  0  0
  6  7  1  0  0  0
M  END
> <minimizedAffinity>
-6.48991

$$$$
2QPQ_CIT_A_302


 17 16  0  0  0  0  0  0  0  0999 V2000
   17.2575   -1.4962   62.0869 C   0  0  0  0  0  0  0  0  0  0  0  0
   17.3857   -2.7713   61.4019 O   0  0  0  0  0  0  0  0  0  0  0  0
   17.5304   -2.6166   60.4553 H   0  0  0  0  0  0  0  0  0  0  0  0
   17.0275   -1.7187   63.5895 C   0  0  0  0  0  0  0  0  0  0  0  0
   16.9189   -0.7935   64.4207 O   0  0  0  0  0  0  0  0  0  0  0  0
   16.9347   -2.8732   63.9995 O   0  0  0  0  0  0  0  0  0  0  0  0
   17.0116   -3.5904   63.4014 H   0  0  0  0  0  0  0  0  0  0  0  0
   18.6057   -0.8018   61.9430 C   0  0  0  0  0  0  0  0  0  0  0  0
   19.2399   -1.3507   60.6827 C   0  0  0  0  0  0  0  0  0  0  0  0
   18.9717   -0.8212   59.5931 O   0  0  0  0  0  0  0  0  0  0  0  0
   20.0552   -2.3126   60.7357 O   0  0  0  0  0  0  0  0  0  0  0  0
   20.2565   -2.7113   61.5594 H   0  0  0  0  0  0  0  0  0  0  0  0
   16.0939   -0.7441   61.3975 C   0  0  0  0  0  0  0  0  0  0  0  0
   14.9368   -1.6722   61.0623 C   0  0  0  0  0  0  0  0  0  0  0  0
   15.0399   -2.5085   60.1326 O   0  0  0  0  0  0  0  0  0  0  0  0
   13.8562   -1.6334   61.7086 O   0  0  0  0  0  0  0  0  0  0  0  0
   13.7505   -1.0191   62.4083 H   0  0  0  0  0  0  0  0  0  0  0  0
  9 10  2  0  0  0
  9 11  1  0  0  0
  9  8  1  0  0  0
  8  1  1  0  0  0
  1  2  1  0  0  0
  1 13  1  0  0  0
  1  4  1  0  0  0
 13 14  1  0  0  0
 14 15  2  0  0  0
 14 16  1  0  0  0
  4  5  2  0  0  0
  4  6  1  0  0  0
 11 12  1  0  0  0
  2  3  1  0  0  0
 16 17  1  0  0  0
  6  7  1  0  0  0
M  END
> <minimizedAffinity>
-6.18606

$$$$
2QPQ_CIT_A_302


 17 16  0  0  0  0  0  0  0  0999 V2000
   16.4602   -1.6457   61.6349 C   0  0  0  0  0  0  0  0  0  0  0  0
   16.3981   -0.2845   62.1396 O   0  0  0  0  0  0  0  0  0  0  0  0
   17.2732   -0.0194   62.4632 H   0  0  0  0  0  0  0  0  0  0  0  0
   15.0826   -2.0858   61.1168 C   0  0  0  0  0  0  0  0  0  0  0  0
   14.6867   -3.2698   61.1140 O   0  0  0  0  0  0  0  0  0  0  0  0
   14.3192   -1.2237   60.6882 O   0  0  0  0  0  0  0  0  0  0  0  0
   14.5860   -0.3256   60.6766 H   0  0  0  0  0  0  0  0  0  0  0  0
   17.3948   -1.6082   60.4326 C   0  0  0  0  0  0  0  0  0  0  0  0
   18.1231   -0.2825   60.4950 C   0  0  0  0  0  0  0  0  0  0  0  0
   19.1547   -0.1931   61.1785 O   0  0  0  0  0  0  0  0  0  0  0  0
   17.7103    0.7131   59.8383 O   0  0  0  0  0  0  0  0  0  0  0  0
   16.9311    0.6438   59.3226 H   0  0  0  0  0  0  0  0  0  0  0  0
   16.9808   -2.5211   62.8001 C   0  0  0  0  0  0  0  0  0  0  0  0
   17.2041   -1.7084   64.0658 C   0  0  0  0  0  0  0  0  0  0  0  0
   18.3063   -1.1467   64.2759 O   0  0  0  0  0  0  0  0  0  0  0  0
   16.2941   -1.5704   64.9260 O   0  0  0  0  0  0  0  0  0  0  0  0
   15.4607   -1.9784   64.7959 H   0  0  0  0  0  0  0  0  0  0  0  0
  9 10  2  0  0  0
  9 11  1  0  0  0
  9  8  1  0  0  0
  8  1  1  0  0  0
  1  2  1  0  0  0
  1 13  1  0  0  0
  1  4  1  0  0  0
 13 14  1  0  0  0
 14 15  2  0  0  0
 14 16  1  0  0  0
  4  5  2  0  0  0
  4  6  1  0  0  0
 11 12  1  0  0  0
  2  3  1  0  0  0
 16 17  1  0  0  0
  6  7  1  0  0  0
M  END
> <minimizedAffinity>
-6.15094

$$$$
2QPQ_CIT_A_302


 17 16  0  0  0  0  0  0  0  0999 V2000
   18.7358   -1.3512   62.2859 C   0  0  0  0  0  0  0  0  0  0  0  0
   18.7925   -2.7383   61.8566 O   0  0  0  0  0  0  0  0  0  0  0  0
   17.9804   -3.1941   62.1281 H   0  0  0  0  0  0  0  0  0  0  0  0
   20.0141   -0.6101   61.8654 C   0  0  0  0  0  0  0  0  0  0  0  0
   20.2043   -0.1458   60.7222 O   0  0  0  0  0  0  0  0  0  0  0  0
   20.8993   -0.4548   62.7032 O   0  0  0  0  0  0  0  0  0  0  0  0
   20.7876   -0.7913   63.5706 H   0  0  0  0  0  0  0  0  0  0  0  0
   17.5831   -0.7178   61.5174 C   0  0  0  0  0  0  0  0  0  0  0  0
   17.1337   -1.7407   60.4958 C   0  0  0  0  0  0  0  0  0  0  0  0
   16.1325   -2.4331   60.7363 O   0  0  0  0  0  0  0  0  0  0  0  0
   17.7450   -1.8707   59.3993 O   0  0  0  0  0  0  0  0  0  0  0  0
   18.5009   -1.3470   59.2195 H   0  0  0  0  0  0  0  0  0  0  0  0
   18.5223   -1.3758   63.8185 C   0  0  0  0  0  0  0  0  0  0  0  0
   17.2206   -2.0631   64.2000 C   0  0  0  0  0  0  0  0  0  0  0  0
   16.3957   -1.4919   64.9534 O   0  0  0  0  0  0  0  0  0  0  0  0
   16.9332   -3.2107   63.7670 O   0  0  0  0  0  0  0  0  0  0  0  0
   17.5301   -3.6615   63.2026 H   0  0  0  0  0  0  0  0  0  0  0  0
  9 10  2  0  0  0
  9 11  1  0  0  0
  9  8  1  0  0  0
  8  1  1  0  0  0
  1  2  1  0  0  0
  1 13  1  0  0  0
  1  4  1  0  0  0
 13 14  1  0  0  0
 14 15  2  0  0  0
 14 16  1  0  0  0
  4  5  2  0  0  0
  4  6  1  0  0  0
 11 12  1  0  0  0
  2  3  1  0  0  0
 16 17  1  0  0  0
  6  7  1  0  0  0
M  END
> <minimizedAffinity>
-5.82498

$$$$
2QPQ_CIT_A_302


 17 16  0  0  0  0  0  0  0  0999 V2000
   17.7658   -2.0787   60.6884 C   0  0  0  0  0  0  0  0  0  0  0  0
   17.3087   -3.2083   61.4799 O   0  0  0  0  0  0  0  0  0  0  0  0
   16.3401   -3.2519   61.4518 H   0  0  0  0  0  0  0  0  0  0  0  0
   19.2993   -1.9912   60.7196 C   0  0  0  0  0  0  0  0  0  0  0  0
   19.9574   -1.6811   61.7341 O   0  0  0  0  0  0  0  0  0  0  0  0
   19.9182   -2.2505   59.6903 O   0  0  0  0  0  0  0  0  0  0  0  0
   19.4540   -2.4868   58.9115 H   0  0  0  0  0  0  0  0  0  0  0  0
   17.3684   -2.3826   59.2496 C   0  0  0  0  0  0  0  0  0  0  0  0
   16.4257   -3.5659   59.3045 C   0  0  0  0  0  0  0  0  0  0  0  0
   16.8398   -4.6830   58.9577 O   0  0  0  0  0  0  0  0  0  0  0  0
   15.2437   -3.4315   59.7260 O   0  0  0  0  0  0  0  0  0  0  0  0
   14.9327   -2.5872   59.9874 H   0  0  0  0  0  0  0  0  0  0  0  0
   17.0723   -0.8250   61.2735 C   0  0  0  0  0  0  0  0  0  0  0  0
   15.9552   -1.1916   62.2380 C   0  0  0  0  0  0  0  0  0  0  0  0
   14.7907   -1.3933   61.8168 O   0  0  0  0  0  0  0  0  0  0  0  0
   16.1683   -1.3106   63.4739 O   0  0  0  0  0  0  0  0  0  0  0  0
   17.0281   -1.1660   63.8172 H   0  0  0  0  0  0  0  0  0  0  0  0
  9 10  2  0  0  0
  9 11  1  0  0  0
  9  8  1  0  0  0
  8  1  1  0  0  0
  1  2  1  0  0  0
  1 13  1  0  0  0
  1  4  1  0  0  0
 13 14  1  0  0  0
 14 15  2  0  0  0
 14 16  1  0  0  0
  4  5  2  0  0  0
  4  6  1  0  0  0
 11 12  1  0  0  0
  2  3  1  0  0  0
 16 17  1  0  0  0
  6  7  1  0  0  0
M  END
> <minimizedAffinity>
-5.76959

$$$$
