2EWS_ANP_A_1001


 40 42  0  0  0  0  0  0  0  0999 V2000
   15.1726   28.5345   -5.1490 C   0  0  0  0  0  0  0  0  0  0  0  0
   14.2768   28.4863   -6.2741 O   0  0  0  0  0  0  0  0  0  0  0  0
   14.5489   29.5454   -4.2256 C   0  0  0  0  0  0  0  0  0  0  0  0
   15.5357   30.1088   -3.3567 O   0  0  0  0  0  0  0  0  0  0  0  0
   13.9195   30.4747   -5.1978 C   0  0  0  0  0  0  0  0  0  0  0  0
   14.8886   31.4751   -5.6082 O   0  0  0  0  0  0  0  0  0  0  0  0
   13.5384   29.6235   -6.3543 C   0  0  0  0  0  0  0  0  0  0  0  0
   16.2571   30.4830   -3.8863 H   0  0  0  0  0  0  0  0  0  0  0  0
   15.6667   31.0358   -5.9856 H   0  0  0  0  0  0  0  0  0  0  0  0
   12.0955   29.2912   -6.5216 N   0  0  0  0  0  0  0  0  0  0  0  0
   11.1366   29.3305   -5.5991 C   0  0  0  0  0  0  0  0  0  0  0  0
    9.9492   28.9486   -6.0379 N   0  0  0  0  0  0  0  0  0  0  0  0
   10.1435   28.6401   -7.3569 C   0  0  0  0  0  0  0  0  0  0  0  0
    9.2493   28.1486   -8.4039 C   0  0  0  0  0  0  0  0  0  0  0  0
    7.9988   27.8776   -8.3687 N   0  0  0  0  0  0  0  0  0  0  0  0
    9.8985   27.9769   -9.5882 N   0  0  0  0  0  0  0  0  0  0  0  0
   11.2346   28.2151   -9.8174 C   0  0  0  0  0  0  0  0  0  0  0  0
   12.0568   28.6541   -8.8842 N   0  0  0  0  0  0  0  0  0  0  0  0
   11.4716   28.8474   -7.6667 C   0  0  0  0  0  0  0  0  0  0  0  0
    7.4944   27.9890   -7.5306 H   0  0  0  0  0  0  0  0  0  0  0  0
    7.5414   27.5577   -9.1797 H   0  0  0  0  0  0  0  0  0  0  0  0
   15.2176   27.1240   -4.5589 C   0  0  0  0  0  0  0  0  0  0  0  0
   16.3243   27.0760   -3.6323 O   0  0  0  0  0  0  0  0  0  0  0  0
   17.1023   25.6796   -3.4625 P   0  0  0  0  0  0  0  0  0  0  0  0
   17.7380   25.3209   -4.8493 O   0  0  0  0  0  0  0  0  0  0  0  0
   16.1944   24.6178   -2.9260 O   0  0  0  0  0  0  0  0  0  0  0  0
   16.6873   23.7875   -2.8332 H   0  0  0  0  0  0  0  0  0  0  0  0
   18.2850   25.9902   -2.4187 O   0  0  0  0  0  0  0  0  0  0  0  0
   18.9500   25.0731   -1.2623 P   0  0  0  0  0  0  0  0  0  0  0  0
   18.5242   23.7293   -1.4558 O   0  0  0  0  0  0  0  0  0  0  0  0
   18.5477   25.5895    0.1075 O   0  0  0  0  0  0  0  0  0  0  0  0
   18.9504   25.0343    0.7934 H   0  0  0  0  0  0  0  0  0  0  0  0
   20.6120   25.2456   -1.4338 N   0  0  0  0  0  0  0  0  0  0  0  0
   20.8702   25.8708   -0.6704 H   0  0  0  0  0  0  0  0  0  0  0  0
   21.5362   25.7736   -2.7036 P   0  0  0  0  0  0  0  0  0  0  0  0
   22.8157   24.9835   -2.6724 O   0  0  0  0  0  0  0  0  0  0  0  0
   20.7593   25.5568   -3.9658 O   0  0  0  0  0  0  0  0  0  0  0  0
   21.7837   27.3005   -2.6748 O   0  0  0  0  0  0  0  0  0  0  0  0
   21.2830   25.8597   -4.7239 H   0  0  0  0  0  0  0  0  0  0  0  0
   22.3274   27.5543   -3.4369 H   0  0  0  0  0  0  0  0  0  0  0  0
 35 36  2  0  0  0
 35 37  1  0  0  0
 35 38  1  0  0  0
 35 33  1  0  0  0
 29 30  2  0  0  0
 29 31  1  0  0  0
 29 33  1  0  0  0
 29 28  1  0  0  0
 24 25  2  0  0  0
 24 26  1  0  0  0
 24 28  1  0  0  0
 24 23  1  0  0  0
 23 22  1  0  0  0
 22  1  1  0  0  0
  1  2  1  0  0  0
  1  3  1  0  0  0
  2  7  1  0  0  0
  3  4  1  0  0  0
  3  5  1  0  0  0
  5  6  1  0  0  0
  5  7  1  0  0  0
  7 10  1  0  0  0
 10 11  1  0  0  0
 10 19  1  0  0  0
 11 12  2  0  0  0
 12 13  1  0  0  0
 13 14  1  0  0  0
 13 19  2  0  0  0
 14 15  1  0  0  0
 14 16  2  0  0  0
 16 17  1  0  0  0
 17 18  2  0  0  0
 18 19  1  0  0  0
 37 39  1  0  0  0
 38 40  1  0  0  0
 31 32  1  0  0  0
 33 34  1  0  0  0
 26 27  1  0  0  0
  4  8  1  0  0  0
  6  9  1  0  0  0
 15 20  1  0  0  0
 15 21  1  0  0  0
M  END
> <minimizedAffinity>
-10.34216

$$$$
2EWS_ANP_A_1001


 40 42  0  0  0  0  0  0  0  0999 V2000
   15.1866   28.4351   -5.1290 C   0  0  0  0  0  0  0  0  0  0  0  0
   14.2971   28.4046   -6.2597 O   0  0  0  0  0  0  0  0  0  0  0  0
   14.5675   29.4451   -4.2015 C   0  0  0  0  0  0  0  0  0  0  0  0
   15.5547   29.9919   -3.3224 O   0  0  0  0  0  0  0  0  0  0  0  0
   13.9533   30.3882   -5.1701 C   0  0  0  0  0  0  0  0  0  0  0  0
   14.9347   31.3819   -5.5671 O   0  0  0  0  0  0  0  0  0  0  0  0
   13.5706   29.5497   -6.3355 C   0  0  0  0  0  0  0  0  0  0  0  0
   16.2830   30.3629   -3.8449 H   0  0  0  0  0  0  0  0  0  0  0  0
   15.7107   30.9377   -5.9433 H   0  0  0  0  0  0  0  0  0  0  0  0
   12.1255   29.2332   -6.5139 N   0  0  0  0  0  0  0  0  0  0  0  0
   11.1629   29.2682   -5.5951 C   0  0  0  0  0  0  0  0  0  0  0  0
    9.9740   28.9036   -6.0445 N   0  0  0  0  0  0  0  0  0  0  0  0
   10.1714   28.6123   -7.3670 C   0  0  0  0  0  0  0  0  0  0  0  0
    9.2775   28.1441   -8.4248 C   0  0  0  0  0  0  0  0  0  0  0  0
    8.0244   27.8842   -8.3990 N   0  0  0  0  0  0  0  0  0  0  0  0
    9.9304   27.9834   -9.6086 N   0  0  0  0  0  0  0  0  0  0  0  0
   11.2697   28.2124   -9.8285 C   0  0  0  0  0  0  0  0  0  0  0  0
   12.0917   28.6303   -8.8855 N   0  0  0  0  0  0  0  0  0  0  0  0
   11.5028   28.8116   -7.6679 C   0  0  0  0  0  0  0  0  0  0  0  0
    7.5172   27.9883   -7.5616 H   0  0  0  0  0  0  0  0  0  0  0  0
    7.5678   27.5802   -9.2165 H   0  0  0  0  0  0  0  0  0  0  0  0
   15.2140   27.0198   -4.5495 C   0  0  0  0  0  0  0  0  0  0  0  0
   16.3109   26.9553   -3.6123 O   0  0  0  0  0  0  0  0  0  0  0  0
   16.9286   25.5097   -3.2766 P   0  0  0  0  0  0  0  0  0  0  0  0
   17.9687   25.1681   -4.3980 O   0  0  0  0  0  0  0  0  0  0  0  0
   15.8497   24.4835   -3.1263 O   0  0  0  0  0  0  0  0  0  0  0  0
   16.2482   23.6225   -2.9245 H   0  0  0  0  0  0  0  0  0  0  0  0
   17.7146   25.7088   -1.8884 O   0  0  0  0  0  0  0  0  0  0  0  0
   19.2002   25.2541   -1.4335 P   0  0  0  0  0  0  0  0  0  0  0  0
   19.5468   25.9708   -0.2542 O   0  0  0  0  0  0  0  0  0  0  0  0
   20.1911   25.5180   -2.5530 O   0  0  0  0  0  0  0  0  0  0  0  0
   21.0776   25.2427   -2.2717 H   0  0  0  0  0  0  0  0  0  0  0  0
   19.1165   23.5973   -1.1705 N   0  0  0  0  0  0  0  0  0  0  0  0
   18.1174   23.4187   -1.0694 H   0  0  0  0  0  0  0  0  0  0  0  0
   19.8070   22.6325   -0.0139 P   0  0  0  0  0  0  0  0  0  0  0  0
   18.8583   22.6000    1.1529 O   0  0  0  0  0  0  0  0  0  0  0  0
   20.0278   21.2765   -0.6110 O   0  0  0  0  0  0  0  0  0  0  0  0
   21.2257   23.0981    0.3908 O   0  0  0  0  0  0  0  0  0  0  0  0
   20.4323   20.6939    0.0507 H   0  0  0  0  0  0  0  0  0  0  0  0
   21.5813   22.5008    1.0673 H   0  0  0  0  0  0  0  0  0  0  0  0
 35 36  2  0  0  0
 35 37  1  0  0  0
 35 38  1  0  0  0
 35 33  1  0  0  0
 29 30  2  0  0  0
 29 31  1  0  0  0
 29 33  1  0  0  0
 29 28  1  0  0  0
 24 25  2  0  0  0
 24 26  1  0  0  0
 24 28  1  0  0  0
 24 23  1  0  0  0
 23 22  1  0  0  0
 22  1  1  0  0  0
  1  2  1  0  0  0
  1  3  1  0  0  0
  2  7  1  0  0  0
  3  4  1  0  0  0
  3  5  1  0  0  0
  5  6  1  0  0  0
  5  7  1  0  0  0
  7 10  1  0  0  0
 10 11  1  0  0  0
 10 19  1  0  0  0
 11 12  2  0  0  0
 12 13  1  0  0  0
 13 14  1  0  0  0
 13 19  2  0  0  0
 14 15  1  0  0  0
 14 16  2  0  0  0
 16 17  1  0  0  0
 17 18  2  0  0  0
 18 19  1  0  0  0
 37 39  1  0  0  0
 38 40  1  0  0  0
 31 32  1  0  0  0
 33 34  1  0  0  0
 26 27  1  0  0  0
  4  8  1  0  0  0
  6  9  1  0  0  0
 15 20  1  0  0  0
 15 21  1  0  0  0
M  END
> <minimizedAffinity>
-9.76522

$$$$
2EWS_ANP_A_1001


 40 42  0  0  0  0  0  0  0  0999 V2000
   20.1424   25.9327   -1.6571 C   0  0  0  0  0  0  0  0  0  0  0  0
   20.4176   26.8785   -0.6081 O   0  0  0  0  0  0  0  0  0  0  0  0
   21.4989   25.4119   -2.0474 C   0  0  0  0  0  0  0  0  0  0  0  0
   21.4769   24.9045   -3.3848 O   0  0  0  0  0  0  0  0  0  0  0  0
   22.3465   26.6079   -1.8107 C   0  0  0  0  0  0  0  0  0  0  0  0
   22.3464   27.4440   -2.9977 O   0  0  0  0  0  0  0  0  0  0  0  0
   21.6995   27.3215   -0.6794 C   0  0  0  0  0  0  0  0  0  0  0  0
   21.1549   25.5936   -3.9868 H   0  0  0  0  0  0  0  0  0  0  0  0
   21.4348   27.6900   -3.2199 H   0  0  0  0  0  0  0  0  0  0  0  0
   22.3518   27.2317    0.6574 N   0  0  0  0  0  0  0  0  0  0  0  0
   22.8557   28.2239    1.3879 C   0  0  0  0  0  0  0  0  0  0  0  0
   23.4018   27.8324    2.5268 N   0  0  0  0  0  0  0  0  0  0  0  0
   23.2368   26.4741    2.5480 C   0  0  0  0  0  0  0  0  0  0  0  0
   23.6208   25.4422    3.5097 C   0  0  0  0  0  0  0  0  0  0  0  0
   24.2244   25.5380    4.6345 N   0  0  0  0  0  0  0  0  0  0  0  0
   23.2454   24.1994    3.0996 N   0  0  0  0  0  0  0  0  0  0  0  0
   22.5904   23.9010    1.9264 C   0  0  0  0  0  0  0  0  0  0  0  0
   22.2404   24.8180    1.0454 N   0  0  0  0  0  0  0  0  0  0  0  0
   22.5883   26.0911    1.3924 C   0  0  0  0  0  0  0  0  0  0  0  0
   24.5117   26.4196    4.9654 H   0  0  0  0  0  0  0  0  0  0  0  0
   24.4013   24.7301    5.1686 H   0  0  0  0  0  0  0  0  0  0  0  0
   19.2328   24.8592   -1.0572 C   0  0  0  0  0  0  0  0  0  0  0  0
   18.4606   24.2911   -2.1374 O   0  0  0  0  0  0  0  0  0  0  0  0
   16.9726   24.8515   -2.3733 P   0  0  0  0  0  0  0  0  0  0  0  0
   16.4034   25.2832   -0.9784 O   0  0  0  0  0  0  0  0  0  0  0  0
   16.1227   23.8444   -3.0825 O   0  0  0  0  0  0  0  0  0  0  0  0
   15.2322   24.2066   -3.2120 H   0  0  0  0  0  0  0  0  0  0  0  0
   17.1651   26.1652   -3.2799 O   0  0  0  0  0  0  0  0  0  0  0  0
   16.4889   26.5940   -4.6868 P   0  0  0  0  0  0  0  0  0  0  0  0
   15.9805   27.9164   -4.5551 O   0  0  0  0  0  0  0  0  0  0  0  0
   15.3908   25.6131   -5.0570 O   0  0  0  0  0  0  0  0  0  0  0  0
   14.9917   25.8778   -5.9005 H   0  0  0  0  0  0  0  0  0  0  0  0
   17.7092   26.4922   -5.8365 N   0  0  0  0  0  0  0  0  0  0  0  0
   17.2095   26.5406   -6.7244 H   0  0  0  0  0  0  0  0  0  0  0  0
   18.8738   25.3443   -6.1034 P   0  0  0  0  0  0  0  0  0  0  0  0
   18.7065   24.8719   -7.5215 O   0  0  0  0  0  0  0  0  0  0  0  0
   20.2113   25.9745   -5.8632 O   0  0  0  0  0  0  0  0  0  0  0  0
   18.8197   24.1824   -5.0832 O   0  0  0  0  0  0  0  0  0  0  0  0
   20.9097   25.3184   -6.0142 H   0  0  0  0  0  0  0  0  0  0  0  0
   19.5198   23.5421   -5.2850 H   0  0  0  0  0  0  0  0  0  0  0  0
 35 36  2  0  0  0
 35 37  1  0  0  0
 35 38  1  0  0  0
 35 33  1  0  0  0
 29 30  2  0  0  0
 29 31  1  0  0  0
 29 33  1  0  0  0
 29 28  1  0  0  0
 24 25  2  0  0  0
 24 26  1  0  0  0
 24 28  1  0  0  0
 24 23  1  0  0  0
 23 22  1  0  0  0
 22  1  1  0  0  0
  1  2  1  0  0  0
  1  3  1  0  0  0
  2  7  1  0  0  0
  3  4  1  0  0  0
  3  5  1  0  0  0
  5  6  1  0  0  0
  5  7  1  0  0  0
  7 10  1  0  0  0
 10 11  1  0  0  0
 10 19  1  0  0  0
 11 12  2  0  0  0
 12 13  1  0  0  0
 13 14  1  0  0  0
 13 19  2  0  0  0
 14 15  1  0  0  0
 14 16  2  0  0  0
 16 17  1  0  0  0
 17 18  2  0  0  0
 18 19  1  0  0  0
 37 39  1  0  0  0
 38 40  1  0  0  0
 31 32  1  0  0  0
 33 34  1  0  0  0
 26 27  1  0  0  0
  4  8  1  0  0  0
  6  9  1  0  0  0
 15 20  1  0  0  0
 15 21  1  0  0  0
M  END
> <minimizedAffinity>
-9.67298

$$$$
2EWS_ANP_A_1001


 40 42  0  0  0  0  0  0  0  0999 V2000
   21.6142   26.4211   -2.6669 C   0  0  0  0  0  0  0  0  0  0  0  0
   20.6656   26.9322   -1.7132 O   0  0  0  0  0  0  0  0  0  0  0  0
   22.7240   25.8627   -1.8182 C   0  0  0  0  0  0  0  0  0  0  0  0
   23.9480   25.8178   -2.5572 O   0  0  0  0  0  0  0  0  0  0  0  0
   22.6902   26.7852   -0.6552 C   0  0  0  0  0  0  0  0  0  0  0  0
   23.5142   27.9474   -0.9351 O   0  0  0  0  0  0  0  0  0  0  0  0
   21.2656   27.1854   -0.5212 C   0  0  0  0  0  0  0  0  0  0  0  0
   24.1506   26.7018   -2.9012 H   0  0  0  0  0  0  0  0  0  0  0  0
   23.1989   28.3801   -1.7440 H   0  0  0  0  0  0  0  0  0  0  0  0
   20.4798   26.5804    0.5910 N   0  0  0  0  0  0  0  0  0  0  0  0
   20.1501   27.1371    1.7543 C   0  0  0  0  0  0  0  0  0  0  0  0
   19.4692   26.3403    2.5605 N   0  0  0  0  0  0  0  0  0  0  0  0
   19.3359   25.1681    1.8670 C   0  0  0  0  0  0  0  0  0  0  0  0
   18.7056   23.8893    2.1906 C   0  0  0  0  0  0  0  0  0  0  0  0
   18.0771   23.5150    3.2410 N   0  0  0  0  0  0  0  0  0  0  0  0
   18.8276   22.9906    1.1751 N   0  0  0  0  0  0  0  0  0  0  0  0
   19.4657   23.2108   -0.0244 C   0  0  0  0  0  0  0  0  0  0  0  0
   20.0434   24.3560   -0.3315 N   0  0  0  0  0  0  0  0  0  0  0  0
   19.9607   25.3057    0.6450 C   0  0  0  0  0  0  0  0  0  0  0  0
   17.9679   24.1363    3.9969 H   0  0  0  0  0  0  0  0  0  0  0  0
   17.7029   22.6058    3.2931 H   0  0  0  0  0  0  0  0  0  0  0  0
   20.8859   25.3550   -3.4871 C   0  0  0  0  0  0  0  0  0  0  0  0
   20.2177   26.0269   -4.5770 O   0  0  0  0  0  0  0  0  0  0  0  0
   19.2111   25.1651   -5.4870 P   0  0  0  0  0  0  0  0  0  0  0  0
   19.9809   23.8852   -5.9615 O   0  0  0  0  0  0  0  0  0  0  0  0
   18.6624   25.9865   -6.6112 O   0  0  0  0  0  0  0  0  0  0  0  0
   18.0595   25.4443   -7.1435 H   0  0  0  0  0  0  0  0  0  0  0  0
   18.0330   24.7171   -4.4888 O   0  0  0  0  0  0  0  0  0  0  0  0
   16.8815   25.5810   -3.7484 P   0  0  0  0  0  0  0  0  0  0  0  0
   17.4640   26.2370   -2.6282 O   0  0  0  0  0  0  0  0  0  0  0  0
   15.7400   24.6733   -3.3264 O   0  0  0  0  0  0  0  0  0  0  0  0
   15.0554   25.1992   -2.8840 H   0  0  0  0  0  0  0  0  0  0  0  0
   16.3082   26.6663   -4.8950 N   0  0  0  0  0  0  0  0  0  0  0  0
   17.1342   26.8905   -5.4499 H   0  0  0  0  0  0  0  0  0  0  0  0
   15.5333   28.1224   -4.7383 P   0  0  0  0  0  0  0  0  0  0  0  0
   16.2362   29.0928   -5.6474 O   0  0  0  0  0  0  0  0  0  0  0  0
   14.0957   27.9264   -5.1109 O   0  0  0  0  0  0  0  0  0  0  0  0
   15.4754   28.6197   -3.2745 O   0  0  0  0  0  0  0  0  0  0  0  0
   13.6220   28.7686   -5.0261 H   0  0  0  0  0  0  0  0  0  0  0  0
   15.0133   29.4719   -3.2405 H   0  0  0  0  0  0  0  0  0  0  0  0
 35 36  2  0  0  0
 35 37  1  0  0  0
 35 38  1  0  0  0
 35 33  1  0  0  0
 29 30  2  0  0  0
 29 31  1  0  0  0
 29 33  1  0  0  0
 29 28  1  0  0  0
 24 25  2  0  0  0
 24 26  1  0  0  0
 24 28  1  0  0  0
 24 23  1  0  0  0
 23 22  1  0  0  0
 22  1  1  0  0  0
  1  2  1  0  0  0
  1  3  1  0  0  0
  2  7  1  0  0  0
  3  4  1  0  0  0
  3  5  1  0  0  0
  5  6  1  0  0  0
  5  7  1  0  0  0
  7 10  1  0  0  0
 10 11  1  0  0  0
 10 19  1  0  0  0
 11 12  2  0  0  0
 12 13  1  0  0  0
 13 14  1  0  0  0
 13 19  2  0  0  0
 14 15  1  0  0  0
 14 16  2  0  0  0
 16 17  1  0  0  0
 17 18  2  0  0  0
 18 19  1  0  0  0
 37 39  1  0  0  0
 38 40  1  0  0  0
 31 32  1  0  0  0
 33 34  1  0  0  0
 26 27  1  0  0  0
  4  8  1  0  0  0
  6  9  1  0  0  0
 15 20  1  0  0  0
 15 21  1  0  0  0
M  END
> <minimizedAffinity>
-9.53738

$$$$
2EWS_ANP_A_1001


 40 42  0  0  0  0  0  0  0  0999 V2000
   21.3088   26.9762   -1.1365 C   0  0  0  0  0  0  0  0  0  0  0  0
   21.0390   26.3689    0.1398 O   0  0  0  0  0  0  0  0  0  0  0  0
   22.8011   26.8623   -1.2896 C   0  0  0  0  0  0  0  0  0  0  0  0
   23.2914   27.8581   -2.1920 O   0  0  0  0  0  0  0  0  0  0  0  0
   23.2458   26.9768    0.1224 C   0  0  0  0  0  0  0  0  0  0  0  0
   23.4069   28.3780    0.4671 O   0  0  0  0  0  0  0  0  0  0  0  0
   22.1489   26.3734    0.9226 C   0  0  0  0  0  0  0  0  0  0  0  0
   23.0141   28.7360   -1.8865 H   0  0  0  0  0  0  0  0  0  0  0  0
   22.5708   28.8462    0.3164 H   0  0  0  0  0  0  0  0  0  0  0  0
   22.3792   25.0190    1.4996 N   0  0  0  0  0  0  0  0  0  0  0  0
   23.4675   24.2601    1.3915 C   0  0  0  0  0  0  0  0  0  0  0  0
   23.3679   23.0849    1.9892 N   0  0  0  0  0  0  0  0  0  0  0  0
   22.1149   23.0747    2.5395 C   0  0  0  0  0  0  0  0  0  0  0  0
   21.3794   22.0777    3.3156 C   0  0  0  0  0  0  0  0  0  0  0  0
   21.7274   20.9115    3.7123 N   0  0  0  0  0  0  0  0  0  0  0  0
   20.1339   22.5125    3.6521 N   0  0  0  0  0  0  0  0  0  0  0  0
   19.5870   23.7304    3.3173 C   0  0  0  0  0  0  0  0  0  0  0  0
   20.2338   24.6398    2.6143 N   0  0  0  0  0  0  0  0  0  0  0  0
   21.4927   24.2688    2.2402 C   0  0  0  0  0  0  0  0  0  0  0  0
   22.6202   20.5617    3.4890 H   0  0  0  0  0  0  0  0  0  0  0  0
   21.1024   20.3644    4.2407 H   0  0  0  0  0  0  0  0  0  0  0  0
   20.5312   26.1739   -2.1812 C   0  0  0  0  0  0  0  0  0  0  0  0
   19.9113   25.0610   -1.5010 O   0  0  0  0  0  0  0  0  0  0  0  0
   18.3324   24.8396   -1.7065 P   0  0  0  0  0  0  0  0  0  0  0  0
   17.6286   25.1618   -0.3438 O   0  0  0  0  0  0  0  0  0  0  0  0
   18.0428   23.4644   -2.2210 O   0  0  0  0  0  0  0  0  0  0  0  0
   17.0856   23.3572   -2.3359 H   0  0  0  0  0  0  0  0  0  0  0  0
   17.8970   25.9487   -2.7859 O   0  0  0  0  0  0  0  0  0  0  0  0
   16.6567   25.9907   -3.8253 P   0  0  0  0  0  0  0  0  0  0  0  0
   15.9143   27.1814   -3.5892 O   0  0  0  0  0  0  0  0  0  0  0  0
   15.7911   24.7554   -3.6532 O   0  0  0  0  0  0  0  0  0  0  0  0
   15.0512   24.7892   -4.2795 H   0  0  0  0  0  0  0  0  0  0  0  0
   17.3382   25.9588   -5.3602 N   0  0  0  0  0  0  0  0  0  0  0  0
   16.6224   25.5120   -5.9333 H   0  0  0  0  0  0  0  0  0  0  0  0
   18.7541   25.3050   -5.9199 P   0  0  0  0  0  0  0  0  0  0  0  0
   18.9577   24.0078   -5.1863 O   0  0  0  0  0  0  0  0  0  0  0  0
   18.6241   25.1122   -7.3997 O   0  0  0  0  0  0  0  0  0  0  0  0
   19.9599   26.2629   -5.7723 O   0  0  0  0  0  0  0  0  0  0  0  0
   19.4440   24.7295   -7.7491 H   0  0  0  0  0  0  0  0  0  0  0  0
   20.7589   25.8319   -6.1138 H   0  0  0  0  0  0  0  0  0  0  0  0
 35 36  2  0  0  0
 35 37  1  0  0  0
 35 38  1  0  0  0
 35 33  1  0  0  0
 29 30  2  0  0  0
 29 31  1  0  0  0
 29 33  1  0  0  0
 29 28  1  0  0  0
 24 25  2  0  0  0
 24 26  1  0  0  0
 24 28  1  0  0  0
 24 23  1  0  0  0
 23 22  1  0  0  0
 22  1  1  0  0  0
  1  2  1  0  0  0
  1  3  1  0  0  0
  2  7  1  0  0  0
  3  4  1  0  0  0
  3  5  1  0  0  0
  5  6  1  0  0  0
  5  7  1  0  0  0
  7 10  1  0  0  0
 10 11  1  0  0  0
 10 19  1  0  0  0
 11 12  2  0  0  0
 12 13  1  0  0  0
 13 14  1  0  0  0
 13 19  2  0  0  0
 14 15  1  0  0  0
 14 16  2  0  0  0
 16 17  1  0  0  0
 17 18  2  0  0  0
 18 19  1  0  0  0
 37 39  1  0  0  0
 38 40  1  0  0  0
 31 32  1  0  0  0
 33 34  1  0  0  0
 26 27  1  0  0  0
  4  8  1  0  0  0
  6  9  1  0  0  0
 15 20  1  0  0  0
 15 21  1  0  0  0
M  END
> <minimizedAffinity>
-9.45882

$$$$
2EWS_ANP_A_1001


 40 42  0  0  0  0  0  0  0  0999 V2000
   22.7894   27.6576    0.4379 C   0  0  0  0  0  0  0  0  0  0  0  0
   22.0489   26.6248    1.1128 O   0  0  0  0  0  0  0  0  0  0  0  0
   23.9356   27.9545    1.3661 C   0  0  0  0  0  0  0  0  0  0  0  0
   24.4378   29.2745    1.1386 O   0  0  0  0  0  0  0  0  0  0  0  0
   23.3073   27.7078    2.6887 C   0  0  0  0  0  0  0  0  0  0  0  0
   22.6484   28.9184    3.1451 O   0  0  0  0  0  0  0  0  0  0  0  0
   22.3056   26.6375    2.4465 C   0  0  0  0  0  0  0  0  0  0  0  0
   23.7142   29.9149    1.2233 H   0  0  0  0  0  0  0  0  0  0  0  0
   21.9949   29.1992    2.4856 H   0  0  0  0  0  0  0  0  0  0  0  0
   22.6336   25.2640    2.9221 N   0  0  0  0  0  0  0  0  0  0  0  0
   23.8343   24.7622    3.2020 C   0  0  0  0  0  0  0  0  0  0  0  0
   23.8158   23.4943    3.5767 N   0  0  0  0  0  0  0  0  0  0  0  0
   22.4950   23.1373    3.5465 C   0  0  0  0  0  0  0  0  0  0  0  0
   21.7982   21.8847    3.8339 C   0  0  0  0  0  0  0  0  0  0  0  0
   22.2519   20.7504    4.2161 N   0  0  0  0  0  0  0  0  0  0  0  0
   20.4528   21.9995    3.6604 N   0  0  0  0  0  0  0  0  0  0  0  0
   19.7856   23.1335    3.2560 C   0  0  0  0  0  0  0  0  0  0  0  0
   20.3980   24.2705    2.9881 N   0  0  0  0  0  0  0  0  0  0  0  0
   21.7534   24.2271    3.1400 C   0  0  0  0  0  0  0  0  0  0  0  0
   23.2191   20.6278    4.3527 H   0  0  0  0  0  0  0  0  0  0  0  0
   21.6336   20.0006    4.3734 H   0  0  0  0  0  0  0  0  0  0  0  0
   23.2346   27.0768   -0.9053 C   0  0  0  0  0  0  0  0  0  0  0  0
   22.4595   25.8810   -1.1397 O   0  0  0  0  0  0  0  0  0  0  0  0
   21.7626   25.7069   -2.5778 P   0  0  0  0  0  0  0  0  0  0  0  0
   22.1760   24.3022   -3.1365 O   0  0  0  0  0  0  0  0  0  0  0  0
   22.1133   26.8416   -3.4883 O   0  0  0  0  0  0  0  0  0  0  0  0
   21.6811   26.7125   -4.3471 H   0  0  0  0  0  0  0  0  0  0  0  0
   20.1841   25.6958   -2.2730 O   0  0  0  0  0  0  0  0  0  0  0  0
   19.3679   25.4110   -0.9043 P   0  0  0  0  0  0  0  0  0  0  0  0
   19.2427   26.6373   -0.1937 O   0  0  0  0  0  0  0  0  0  0  0  0
   20.0894   24.3627   -0.0765 O   0  0  0  0  0  0  0  0  0  0  0  0
   19.5936   24.1986    0.7409 H   0  0  0  0  0  0  0  0  0  0  0  0
   17.8788   24.7921   -1.3741 N   0  0  0  0  0  0  0  0  0  0  0  0
   17.9887   23.7845   -1.2595 H   0  0  0  0  0  0  0  0  0  0  0  0
   17.0259   24.9360   -2.7874 P   0  0  0  0  0  0  0  0  0  0  0  0
   16.5984   26.3739   -2.8966 O   0  0  0  0  0  0  0  0  0  0  0  0
   17.9194   24.5165   -3.9142 O   0  0  0  0  0  0  0  0  0  0  0  0
   15.8317   23.9562   -2.8729 O   0  0  0  0  0  0  0  0  0  0  0  0
   17.4391   24.5931   -4.7534 H   0  0  0  0  0  0  0  0  0  0  0  0
   15.3696   24.0826   -3.7164 H   0  0  0  0  0  0  0  0  0  0  0  0
 35 36  2  0  0  0
 35 37  1  0  0  0
 35 38  1  0  0  0
 35 33  1  0  0  0
 29 30  2  0  0  0
 29 31  1  0  0  0
 29 33  1  0  0  0
 29 28  1  0  0  0
 24 25  2  0  0  0
 24 26  1  0  0  0
 24 28  1  0  0  0
 24 23  1  0  0  0
 23 22  1  0  0  0
 22  1  1  0  0  0
  1  2  1  0  0  0
  1  3  1  0  0  0
  2  7  1  0  0  0
  3  4  1  0  0  0
  3  5  1  0  0  0
  5  6  1  0  0  0
  5  7  1  0  0  0
  7 10  1  0  0  0
 10 11  1  0  0  0
 10 19  1  0  0  0
 11 12  2  0  0  0
 12 13  1  0  0  0
 13 14  1  0  0  0
 13 19  2  0  0  0
 14 15  1  0  0  0
 14 16  2  0  0  0
 16 17  1  0  0  0
 17 18  2  0  0  0
 18 19  1  0  0  0
 37 39  1  0  0  0
 38 40  1  0  0  0
 31 32  1  0  0  0
 33 34  1  0  0  0
 26 27  1  0  0  0
  4  8  1  0  0  0
  6  9  1  0  0  0
 15 20  1  0  0  0
 15 21  1  0  0  0
M  END
> <minimizedAffinity>
-9.40152

$$$$
2EWS_ANP_A_1001


 40 42  0  0  0  0  0  0  0  0999 V2000
   20.9987   23.4103    0.8132 C   0  0  0  0  0  0  0  0  0  0  0  0
   22.1678   24.0651    1.3379 O   0  0  0  0  0  0  0  0  0  0  0  0
   19.9029   23.7915    1.7710 C   0  0  0  0  0  0  0  0  0  0  0  0
   18.8432   22.8315    1.7303 O   0  0  0  0  0  0  0  0  0  0  0  0
   20.6557   23.8879    3.0473 C   0  0  0  0  0  0  0  0  0  0  0  0
   20.7202   22.5785    3.6713 O   0  0  0  0  0  0  0  0  0  0  0  0
   22.0168   24.3400    2.6594 C   0  0  0  0  0  0  0  0  0  0  0  0
   19.2010   21.9473    1.9063 H   0  0  0  0  0  0  0  0  0  0  0  0
   21.1326   21.9487    3.0596 H   0  0  0  0  0  0  0  0  0  0  0  0
   22.3784   25.7589    2.9360 N   0  0  0  0  0  0  0  0  0  0  0  0
   22.3281   26.4017    4.1006 C   0  0  0  0  0  0  0  0  0  0  0  0
   22.6844   27.6732    4.0313 N   0  0  0  0  0  0  0  0  0  0  0  0
   23.0002   27.8794    2.7158 C   0  0  0  0  0  0  0  0  0  0  0  0
   23.4511   29.0567    1.9756 C   0  0  0  0  0  0  0  0  0  0  0  0
   23.6912   30.2484    2.3765 N   0  0  0  0  0  0  0  0  0  0  0  0
   23.6390   28.7860    0.6546 N   0  0  0  0  0  0  0  0  0  0  0  0
   23.4336   27.5700    0.0434 C   0  0  0  0  0  0  0  0  0  0  0  0
   23.0230   26.4988    0.6941 N   0  0  0  0  0  0  0  0  0  0  0  0
   22.8121   26.6988    2.0274 C   0  0  0  0  0  0  0  0  0  0  0  0
   23.5673   30.4832    3.3245 H   0  0  0  0  0  0  0  0  0  0  0  0
   23.9999   30.9301    1.7368 H   0  0  0  0  0  0  0  0  0  0  0  0
   20.7831   23.9557   -0.5996 C   0  0  0  0  0  0  0  0  0  0  0  0
   19.3932   23.7535   -0.9357 O   0  0  0  0  0  0  0  0  0  0  0  0
   18.4941   25.0533   -1.2289 P   0  0  0  0  0  0  0  0  0  0  0  0
   19.3569   26.3138   -0.8784 O   0  0  0  0  0  0  0  0  0  0  0  0
   17.1957   24.9899   -0.4874 O   0  0  0  0  0  0  0  0  0  0  0  0
   16.6735   25.7840   -0.6812 H   0  0  0  0  0  0  0  0  0  0  0  0
   18.2386   25.0292   -2.8160 O   0  0  0  0  0  0  0  0  0  0  0  0
   16.9440   25.4530   -3.6907 P   0  0  0  0  0  0  0  0  0  0  0  0
   16.4698   26.7059   -3.2112 O   0  0  0  0  0  0  0  0  0  0  0  0
   15.8739   24.3808   -3.5897 O   0  0  0  0  0  0  0  0  0  0  0  0
   15.1027   24.6430   -4.1164 H   0  0  0  0  0  0  0  0  0  0  0  0
   17.4697   25.5380   -5.2836 N   0  0  0  0  0  0  0  0  0  0  0  0
   16.7988   24.9609   -5.7908 H   0  0  0  0  0  0  0  0  0  0  0  0
   18.9229   25.1570   -5.9825 P   0  0  0  0  0  0  0  0  0  0  0  0
   19.3307   23.8143   -5.4412 O   0  0  0  0  0  0  0  0  0  0  0  0
   18.7345   25.1428   -7.4685 O   0  0  0  0  0  0  0  0  0  0  0  0
   20.0040   26.2397   -5.7533 O   0  0  0  0  0  0  0  0  0  0  0  0
   19.5751   24.9214   -7.8989 H   0  0  0  0  0  0  0  0  0  0  0  0
   20.8306   25.9670   -6.1815 H   0  0  0  0  0  0  0  0  0  0  0  0
 35 36  2  0  0  0
 35 37  1  0  0  0
 35 38  1  0  0  0
 35 33  1  0  0  0
 29 30  2  0  0  0
 29 31  1  0  0  0
 29 33  1  0  0  0
 29 28  1  0  0  0
 24 25  2  0  0  0
 24 26  1  0  0  0
 24 28  1  0  0  0
 24 23  1  0  0  0
 23 22  1  0  0  0
 22  1  1  0  0  0
  1  2  1  0  0  0
  1  3  1  0  0  0
  2  7  1  0  0  0
  3  4  1  0  0  0
  3  5  1  0  0  0
  5  6  1  0  0  0
  5  7  1  0  0  0
  7 10  1  0  0  0
 10 11  1  0  0  0
 10 19  1  0  0  0
 11 12  2  0  0  0
 12 13  1  0  0  0
 13 14  1  0  0  0
 13 19  2  0  0  0
 14 15  1  0  0  0
 14 16  2  0  0  0
 16 17  1  0  0  0
 17 18  2  0  0  0
 18 19  1  0  0  0
 37 39  1  0  0  0
 38 40  1  0  0  0
 31 32  1  0  0  0
 33 34  1  0  0  0
 26 27  1  0  0  0
  4  8  1  0  0  0
  6  9  1  0  0  0
 15 20  1  0  0  0
 15 21  1  0  0  0
M  END
> <minimizedAffinity>
-9.32148

$$$$
2EWS_ANP_A_1001


 40 42  0  0  0  0  0  0  0  0999 V2000
   20.1074   26.0879   -1.6843 C   0  0  0  0  0  0  0  0  0  0  0  0
   20.4203   26.8716   -0.5188 O   0  0  0  0  0  0  0  0  0  0  0  0
   21.4336   25.5211   -2.1129 C   0  0  0  0  0  0  0  0  0  0  0  0
   21.4122   25.1885   -3.5041 O   0  0  0  0  0  0  0  0  0  0  0  0
   22.3573   26.6119   -1.7106 C   0  0  0  0  0  0  0  0  0  0  0  0
   22.4493   27.5879   -2.7816 O   0  0  0  0  0  0  0  0  0  0  0  0
   21.7320   27.2239   -0.5098 C   0  0  0  0  0  0  0  0  0  0  0  0
   21.1567   25.9696   -4.0193 H   0  0  0  0  0  0  0  0  0  0  0  0
   21.5640   27.9267   -2.9873 H   0  0  0  0  0  0  0  0  0  0  0  0
   22.3392   26.9191    0.8164 N   0  0  0  0  0  0  0  0  0  0  0  0
   23.0229   27.7412    1.6093 C   0  0  0  0  0  0  0  0  0  0  0  0
   23.4682   27.1755    2.7184 N   0  0  0  0  0  0  0  0  0  0  0  0
   23.0358   25.8788    2.6506 C   0  0  0  0  0  0  0  0  0  0  0  0
   23.1966   24.7307    3.5412 C   0  0  0  0  0  0  0  0  0  0  0  0
   23.7953   24.6309    4.6682 N   0  0  0  0  0  0  0  0  0  0  0  0
   22.5856   23.6172    3.0511 N   0  0  0  0  0  0  0  0  0  0  0  0
   21.8967   23.5323    1.8626 C   0  0  0  0  0  0  0  0  0  0  0  0
   21.7455   24.5560    1.0449 N   0  0  0  0  0  0  0  0  0  0  0  0
   22.3362   25.7088    1.4740 C   0  0  0  0  0  0  0  0  0  0  0  0
   24.2489   25.4141    5.0557 H   0  0  0  0  0  0  0  0  0  0  0  0
   23.8022   23.7710    5.1475 H   0  0  0  0  0  0  0  0  0  0  0  0
   19.1075   25.0180   -1.2425 C   0  0  0  0  0  0  0  0  0  0  0  0
   18.3747   24.5981   -2.4139 O   0  0  0  0  0  0  0  0  0  0  0  0
   16.8245   25.0104   -2.5185 P   0  0  0  0  0  0  0  0  0  0  0  0
   16.3200   25.3243   -1.0683 O   0  0  0  0  0  0  0  0  0  0  0  0
   16.0298   23.9499   -3.2138 O   0  0  0  0  0  0  0  0  0  0  0  0
   15.1003   24.2228   -3.2636 H   0  0  0  0  0  0  0  0  0  0  0  0
   16.8162   26.3723   -3.3728 O   0  0  0  0  0  0  0  0  0  0  0  0
   16.1825   26.7134   -4.8229 P   0  0  0  0  0  0  0  0  0  0  0  0
   15.8303   25.4895   -5.4572 O   0  0  0  0  0  0  0  0  0  0  0  0
   17.1791   27.5011   -5.6543 O   0  0  0  0  0  0  0  0  0  0  0  0
   16.7911   27.7008   -6.5206 H   0  0  0  0  0  0  0  0  0  0  0  0
   14.8449   27.6850   -4.5260 N   0  0  0  0  0  0  0  0  0  0  0  0
   14.1176   27.2821   -5.1169 H   0  0  0  0  0  0  0  0  0  0  0  0
   14.6177   29.3188   -4.6823 P   0  0  0  0  0  0  0  0  0  0  0  0
   13.1569   29.5324   -4.9698 O   0  0  0  0  0  0  0  0  0  0  0  0
   15.0524   29.9727   -3.4067 O   0  0  0  0  0  0  0  0  0  0  0  0
   15.5307   29.9540   -5.7577 O   0  0  0  0  0  0  0  0  0  0  0  0
   14.9276   30.9321   -3.4763 H   0  0  0  0  0  0  0  0  0  0  0  0
   15.3571   30.9070   -5.8073 H   0  0  0  0  0  0  0  0  0  0  0  0
 35 36  2  0  0  0
 35 37  1  0  0  0
 35 38  1  0  0  0
 35 33  1  0  0  0
 29 30  2  0  0  0
 29 31  1  0  0  0
 29 33  1  0  0  0
 29 28  1  0  0  0
 24 25  2  0  0  0
 24 26  1  0  0  0
 24 28  1  0  0  0
 24 23  1  0  0  0
 23 22  1  0  0  0
 22  1  1  0  0  0
  1  2  1  0  0  0
  1  3  1  0  0  0
  2  7  1  0  0  0
  3  4  1  0  0  0
  3  5  1  0  0  0
  5  6  1  0  0  0
  5  7  1  0  0  0
  7 10  1  0  0  0
 10 11  1  0  0  0
 10 19  1  0  0  0
 11 12  2  0  0  0
 12 13  1  0  0  0
 13 14  1  0  0  0
 13 19  2  0  0  0
 14 15  1  0  0  0
 14 16  2  0  0  0
 16 17  1  0  0  0
 17 18  2  0  0  0
 18 19  1  0  0  0
 37 39  1  0  0  0
 38 40  1  0  0  0
 31 32  1  0  0  0
 33 34  1  0  0  0
 26 27  1  0  0  0
  4  8  1  0  0  0
  6  9  1  0  0  0
 15 20  1  0  0  0
 15 21  1  0  0  0
M  END
> <minimizedAffinity>
-9.25856

$$$$
2EWS_ANP_A_1001


 40 42  0  0  0  0  0  0  0  0999 V2000
   21.0739   26.7848   -1.7509 C   0  0  0  0  0  0  0  0  0  0  0  0
   20.6381   26.8533   -0.3812 O   0  0  0  0  0  0  0  0  0  0  0  0
   22.4800   26.2569   -1.6632 C   0  0  0  0  0  0  0  0  0  0  0  0
   23.2306   26.6310   -2.8221 O   0  0  0  0  0  0  0  0  0  0  0  0
   22.9271   26.8393   -0.3726 C   0  0  0  0  0  0  0  0  0  0  0  0
   23.4609   28.1701   -0.6011 O   0  0  0  0  0  0  0  0  0  0  0  0
   21.7006   26.9138    0.4627 C   0  0  0  0  0  0  0  0  0  0  0  0
   23.2004   27.5946   -2.9298 H   0  0  0  0  0  0  0  0  0  0  0  0
   22.7853   28.7207   -1.0269 H   0  0  0  0  0  0  0  0  0  0  0  0
   21.5483   25.9140    1.5570 N   0  0  0  0  0  0  0  0  0  0  0  0
   21.8255   26.0701    2.8496 C   0  0  0  0  0  0  0  0  0  0  0  0
   21.6159   24.9889    3.5812 N   0  0  0  0  0  0  0  0  0  0  0  0
   21.1579   24.0492    2.6980 C   0  0  0  0  0  0  0  0  0  0  0  0
   20.7567   22.6521    2.8540 C   0  0  0  0  0  0  0  0  0  0  0  0
   20.7133   21.9117    3.8973 N   0  0  0  0  0  0  0  0  0  0  0  0
   20.3677   22.0995    1.6721 N   0  0  0  0  0  0  0  0  0  0  0  0
   20.3465   22.7365    0.4522 C   0  0  0  0  0  0  0  0  0  0  0  0
   20.7091   23.9945    0.2920 N   0  0  0  0  0  0  0  0  0  0  0  0
   21.1140   24.6122    1.4394 C   0  0  0  0  0  0  0  0  0  0  0  0
   20.9866   22.2751    4.7705 H   0  0  0  0  0  0  0  0  0  0  0  0
   20.4066   20.9789    3.8264 H   0  0  0  0  0  0  0  0  0  0  0  0
   20.1160   25.8356   -2.4728 C   0  0  0  0  0  0  0  0  0  0  0  0
   18.7926   26.0689   -1.9440 O   0  0  0  0  0  0  0  0  0  0  0  0
   17.5505   25.3783   -2.6951 P   0  0  0  0  0  0  0  0  0  0  0  0
   16.6384   24.7269   -1.5997 O   0  0  0  0  0  0  0  0  0  0  0  0
   18.0196   24.4122   -3.7374 O   0  0  0  0  0  0  0  0  0  0  0  0
   17.2525   24.0104   -4.1745 H   0  0  0  0  0  0  0  0  0  0  0  0
   16.7500   26.5958   -3.3745 O   0  0  0  0  0  0  0  0  0  0  0  0
   16.1842   26.7876   -4.8790 P   0  0  0  0  0  0  0  0  0  0  0  0
   15.8829   25.5031   -5.4117 O   0  0  0  0  0  0  0  0  0  0  0  0
   17.2087   27.5142   -5.7318 O   0  0  0  0  0  0  0  0  0  0  0  0
   16.8613   27.6245   -6.6308 H   0  0  0  0  0  0  0  0  0  0  0  0
   14.8186   27.7557   -4.7397 N   0  0  0  0  0  0  0  0  0  0  0  0
   14.2536   27.4945   -5.5477 H   0  0  0  0  0  0  0  0  0  0  0  0
   14.6428   29.4010   -4.6529 P   0  0  0  0  0  0  0  0  0  0  0  0
   15.5472   29.9939   -5.6983 O   0  0  0  0  0  0  0  0  0  0  0  0
   13.2004   29.7275   -4.8908 O   0  0  0  0  0  0  0  0  0  0  0  0
   14.9250   29.9634   -3.2396 O   0  0  0  0  0  0  0  0  0  0  0  0
   13.0744   30.6882   -4.8444 H   0  0  0  0  0  0  0  0  0  0  0  0
   14.8081   30.9263   -3.2455 H   0  0  0  0  0  0  0  0  0  0  0  0
 35 36  2  0  0  0
 35 37  1  0  0  0
 35 38  1  0  0  0
 35 33  1  0  0  0
 29 30  2  0  0  0
 29 31  1  0  0  0
 29 33  1  0  0  0
 29 28  1  0  0  0
 24 25  2  0  0  0
 24 26  1  0  0  0
 24 28  1  0  0  0
 24 23  1  0  0  0
 23 22  1  0  0  0
 22  1  1  0  0  0
  1  2  1  0  0  0
  1  3  1  0  0  0
  2  7  1  0  0  0
  3  4  1  0  0  0
  3  5  1  0  0  0
  5  6  1  0  0  0
  5  7  1  0  0  0
  7 10  1  0  0  0
 10 11  1  0  0  0
 10 19  1  0  0  0
 11 12  2  0  0  0
 12 13  1  0  0  0
 13 14  1  0  0  0
 13 19  2  0  0  0
 14 15  1  0  0  0
 14 16  2  0  0  0
 16 17  1  0  0  0
 17 18  2  0  0  0
 18 19  1  0  0  0
 37 39  1  0  0  0
 38 40  1  0  0  0
 31 32  1  0  0  0
 33 34  1  0  0  0
 26 27  1  0  0  0
  4  8  1  0  0  0
  6  9  1  0  0  0
 15 20  1  0  0  0
 15 21  1  0  0  0
M  END
> <minimizedAffinity>
-9.25763

$$$$
2EWS_ANP_A_1001


 40 42  0  0  0  0  0  0  0  0999 V2000
   19.9708   24.1906    0.4033 C   0  0  0  0  0  0  0  0  0  0  0  0
   21.2040   24.9140    0.5661 O   0  0  0  0  0  0  0  0  0  0  0  0
   19.6035   23.7713    1.8008 C   0  0  0  0  0  0  0  0  0  0  0  0
   18.7477   22.6253    1.7733 O   0  0  0  0  0  0  0  0  0  0  0  0
   20.9454   23.5768    2.4059 C   0  0  0  0  0  0  0  0  0  0  0  0
   21.4047   22.2251    2.1410 O   0  0  0  0  0  0  0  0  0  0  0  0
   21.8235   24.5612    1.7222 C   0  0  0  0  0  0  0  0  0  0  0  0
   19.1756   21.9142    1.2711 H   0  0  0  0  0  0  0  0  0  0  0  0
   21.4182   22.0701    1.1835 H   0  0  0  0  0  0  0  0  0  0  0  0
   22.2234   25.7770    2.4852 N   0  0  0  0  0  0  0  0  0  0  0  0
   22.0539   26.0184    3.7833 C   0  0  0  0  0  0  0  0  0  0  0  0
   22.4866   27.2056    4.1729 N   0  0  0  0  0  0  0  0  0  0  0  0
   22.9865   27.7875    3.0396 C   0  0  0  0  0  0  0  0  0  0  0  0
   23.5972   29.0899    2.7789 C   0  0  0  0  0  0  0  0  0  0  0  0
   23.8478   30.0636    3.5711 N   0  0  0  0  0  0  0  0  0  0  0  0
   23.9446   29.2362    1.4706 N   0  0  0  0  0  0  0  0  0  0  0  0
   23.7553   28.3030    0.4768 C   0  0  0  0  0  0  0  0  0  0  0  0
   23.2022   27.1253    0.6927 N   0  0  0  0  0  0  0  0  0  0  0  0
   22.8265   26.9107    1.9869 C   0  0  0  0  0  0  0  0  0  0  0  0
   23.6115   29.9959    4.5244 H   0  0  0  0  0  0  0  0  0  0  0  0
   24.2767   30.8803    3.2271 H   0  0  0  0  0  0  0  0  0  0  0  0
   18.9670   25.1624   -0.2193 C   0  0  0  0  0  0  0  0  0  0  0  0
   19.0354   24.9985   -1.6525 O   0  0  0  0  0  0  0  0  0  0  0  0
   17.6556   24.8010   -2.4532 P   0  0  0  0  0  0  0  0  0  0  0  0
   16.4852   24.9452   -1.4209 O   0  0  0  0  0  0  0  0  0  0  0  0
   17.6438   23.5019   -3.1960 O   0  0  0  0  0  0  0  0  0  0  0  0
   16.8024   23.4077   -3.6693 H   0  0  0  0  0  0  0  0  0  0  0  0
   17.5928   26.0375   -3.4789 O   0  0  0  0  0  0  0  0  0  0  0  0
   16.4369   26.5037   -4.5120 P   0  0  0  0  0  0  0  0  0  0  0  0
   15.5725   25.3980   -4.7460 O   0  0  0  0  0  0  0  0  0  0  0  0
   17.0623   27.0005   -5.8031 O   0  0  0  0  0  0  0  0  0  0  0  0
   16.3628   27.2774   -6.4155 H   0  0  0  0  0  0  0  0  0  0  0  0
   15.6446   27.7862   -3.7714 N   0  0  0  0  0  0  0  0  0  0  0  0
   14.8563   27.3433   -3.2994 H   0  0  0  0  0  0  0  0  0  0  0  0
   14.9991   29.1820   -4.3882 P   0  0  0  0  0  0  0  0  0  0  0  0
   13.6139   28.8486   -4.8701 O   0  0  0  0  0  0  0  0  0  0  0  0
   14.9951   30.2124   -3.3009 O   0  0  0  0  0  0  0  0  0  0  0  0
   15.8748   29.8123   -5.4970 O   0  0  0  0  0  0  0  0  0  0  0  0
   14.6202   31.0399   -3.6410 H   0  0  0  0  0  0  0  0  0  0  0  0
   15.4521   30.6230   -5.8211 H   0  0  0  0  0  0  0  0  0  0  0  0
 35 36  2  0  0  0
 35 37  1  0  0  0
 35 38  1  0  0  0
 35 33  1  0  0  0
 29 30  2  0  0  0
 29 31  1  0  0  0
 29 33  1  0  0  0
 29 28  1  0  0  0
 24 25  2  0  0  0
 24 26  1  0  0  0
 24 28  1  0  0  0
 24 23  1  0  0  0
 23 22  1  0  0  0
 22  1  1  0  0  0
  1  2  1  0  0  0
  1  3  1  0  0  0
  2  7  1  0  0  0
  3  4  1  0  0  0
  3  5  1  0  0  0
  5  6  1  0  0  0
  5  7  1  0  0  0
  7 10  1  0  0  0
 10 11  1  0  0  0
 10 19  1  0  0  0
 11 12  2  0  0  0
 12 13  1  0  0  0
 13 14  1  0  0  0
 13 19  2  0  0  0
 14 15  1  0  0  0
 14 16  2  0  0  0
 16 17  1  0  0  0
 17 18  2  0  0  0
 18 19  1  0  0  0
 37 39  1  0  0  0
 38 40  1  0  0  0
 31 32  1  0  0  0
 33 34  1  0  0  0
 26 27  1  0  0  0
  4  8  1  0  0  0
  6  9  1  0  0  0
 15 20  1  0  0  0
 15 21  1  0  0  0
M  END
> <minimizedAffinity>
-9.25540

$$$$
