1YEJ_PNF_L_551


 30 30  0  0  0  0  0  0  0  0999 V2000
   15.3918   36.4842   61.9542 C   0  0  0  0  0  0  0  0  0  0  0  0
   14.2171   37.7050   62.2312 P   0  0  0  0  0  0  0  0  0  0  0  0
   14.7111   38.9907   61.8105 O   0  0  0  0  0  0  0  0  0  0  0  0
   13.7487   37.5517   63.6200 O   0  0  0  0  0  0  0  0  0  0  0  0
   14.0348   39.6664   61.9746 H   0  0  0  0  0  0  0  0  0  0  0  0
   12.9942   37.2727   61.2351 O   0  0  0  0  0  0  0  0  0  0  0  0
   11.7079   37.6552   61.5217 C   0  0  0  0  0  0  0  0  0  0  0  0
   11.3247   38.9323   61.1328 C   0  0  0  0  0  0  0  0  0  0  0  0
   10.0430   39.3463   61.4168 C   0  0  0  0  0  0  0  0  0  0  0  0
    9.1665   38.4856   62.0788 C   0  0  0  0  0  0  0  0  0  0  0  0
    9.5957   37.1854   62.4582 C   0  0  0  0  0  0  0  0  0  0  0  0
   10.8984   36.7462   62.1779 C   0  0  0  0  0  0  0  0  0  0  0  0
    7.7827   38.9263   62.3907 N   0  0  0  0  0  0  0  0  0  0  0  0
    7.1320   39.6416   61.6148 O   0  0  0  0  0  0  0  0  0  0  0  0
    7.2665   38.5850   63.4531 O   0  0  0  0  0  0  0  0  0  0  0  0
   16.7263   36.9868   61.5949 C   0  0  0  0  0  0  0  0  0  0  0  0
   17.0364   36.3694   60.2402 C   0  0  0  0  0  0  0  0  0  0  0  0
   17.0017   37.3797   59.1236 C   0  0  0  0  0  0  0  0  0  0  0  0
   17.8233   37.1767   58.0104 N   0  0  0  0  0  0  0  0  0  0  0  0
   16.2173   38.3551   59.2661 O   0  0  0  0  0  0  0  0  0  0  0  0
   18.3958   36.3757   58.0090 H   0  0  0  0  0  0  0  0  0  0  0  0
   17.8944   38.0123   56.9124 C   0  0  0  0  0  0  0  0  0  0  0  0
   17.8488   37.2660   55.5687 C   0  0  0  0  0  0  0  0  0  0  0  0
   16.5530   36.4067   55.4008 C   0  0  0  0  0  0  0  0  0  0  0  0
   16.8028   34.8788   55.3057 C   0  0  0  0  0  0  0  0  0  0  0  0
   16.5934   34.0765   56.6017 C   0  0  0  0  0  0  0  0  0  0  0  0
   17.8550   33.8515   57.4659 C   0  0  0  0  0  0  0  0  0  0  0  0
   18.8888   34.3016   57.1256 O   0  0  0  0  0  0  0  0  0  0  0  0
   17.8642   33.2156   58.5068 O   0  0  0  0  0  0  0  0  0  0  0  0
   17.0719   32.8330   58.8291 H   0  0  0  0  0  0  0  0  0  0  0  0
  7  8  2  0  0  0
  7 12  1  0  0  0
  7  6  1  0  0  0
  8  9  1  0  0  0
  9 10  2  0  0  0
 10 11  1  0  0  0
 10 13  1  0  0  0
 11 12  2  0  0  0
  2  6  1  0  0  0
  2  3  1  0  0  0
  2  4  2  0  0  0
  2  1  1  0  0  0
  1 16  1  0  0  0
 16 17  1  0  0  0
 17 18  1  0  0  0
 18 19  1  0  0  0
 18 20  2  0  0  0
 19 22  1  0  0  0
 22 23  1  0  0  0
 23 24  1  0  0  0
 24 25  1  0  0  0
 25 26  1  0  0  0
 26 27  1  0  0  0
 27 28  2  0  0  0
 27 29  1  0  0  0
 13 14  2  0  0  0
 13 15  1  0  0  0
  3  5  1  0  0  0
 19 21  1  0  0  0
 29 30  1  0  0  0
M  CHG 1  13   1
M  CHG 1  15  -1
M  END
> <minimizedAffinity>
-9.06901

$$$$
1YEJ_PNF_L_551


 30 30  0  0  0  0  0  0  0  0999 V2000
   15.2265   36.5629   61.7928 C   0  0  0  0  0  0  0  0  0  0  0  0
   14.0191   37.6883   62.2645 P   0  0  0  0  0  0  0  0  0  0  0  0
   14.3654   39.0172   61.8308 O   0  0  0  0  0  0  0  0  0  0  0  0
   13.7493   37.4635   63.6957 O   0  0  0  0  0  0  0  0  0  0  0  0
   13.6726   39.6379   62.1059 H   0  0  0  0  0  0  0  0  0  0  0  0
   12.7074   37.1971   61.4201 O   0  0  0  0  0  0  0  0  0  0  0  0
   11.5104   37.8511   61.5702 C   0  0  0  0  0  0  0  0  0  0  0  0
   11.3997   39.1105   60.9952 C   0  0  0  0  0  0  0  0  0  0  0  0
   10.2134   39.7939   61.1389 C   0  0  0  0  0  0  0  0  0  0  0  0
    9.1604   39.2145   61.8478 C   0  0  0  0  0  0  0  0  0  0  0  0
    9.3120   37.9226   62.4193 C   0  0  0  0  0  0  0  0  0  0  0  0
   10.5137   37.2113   62.2840 C   0  0  0  0  0  0  0  0  0  0  0  0
    7.8782   39.9470   62.0090 N   0  0  0  0  0  0  0  0  0  0  0  0
    7.7819   41.1600   61.7711 O   0  0  0  0  0  0  0  0  0  0  0  0
    6.8829   39.3409   62.4008 O   0  0  0  0  0  0  0  0  0  0  0  0
   16.5135   37.1660   61.4151 C   0  0  0  0  0  0  0  0  0  0  0  0
   17.2490   36.0870   60.6357 C   0  0  0  0  0  0  0  0  0  0  0  0
   17.4889   36.4739   59.1999 C   0  0  0  0  0  0  0  0  0  0  0  0
   18.7247   37.0286   58.8528 N   0  0  0  0  0  0  0  0  0  0  0  0
   16.5461   36.2636   58.3912 O   0  0  0  0  0  0  0  0  0  0  0  0
   19.3875   37.1455   59.5713 H   0  0  0  0  0  0  0  0  0  0  0  0
   19.0882   37.4254   57.5802 C   0  0  0  0  0  0  0  0  0  0  0  0
   18.2155   38.5598   57.0179 C   0  0  0  0  0  0  0  0  0  0  0  0
   18.3040   39.8672   57.8714 C   0  0  0  0  0  0  0  0  0  0  0  0
   16.9697   40.2896   58.5403 C   0  0  0  0  0  0  0  0  0  0  0  0
   16.6902   41.8014   58.5985 C   0  0  0  0  0  0  0  0  0  0  0  0
   15.6959   42.2610   59.6889 C   0  0  0  0  0  0  0  0  0  0  0  0
   14.9140   41.4990   60.1306 O   0  0  0  0  0  0  0  0  0  0  0  0
   15.6526   43.3941   60.1386 O   0  0  0  0  0  0  0  0  0  0  0  0
   16.2496   44.0452   59.8264 H   0  0  0  0  0  0  0  0  0  0  0  0
  7  8  2  0  0  0
  7 12  1  0  0  0
  7  6  1  0  0  0
  8  9  1  0  0  0
  9 10  2  0  0  0
 10 11  1  0  0  0
 10 13  1  0  0  0
 11 12  2  0  0  0
  2  6  1  0  0  0
  2  3  1  0  0  0
  2  4  2  0  0  0
  2  1  1  0  0  0
  1 16  1  0  0  0
 16 17  1  0  0  0
 17 18  1  0  0  0
 18 19  1  0  0  0
 18 20  2  0  0  0
 19 22  1  0  0  0
 22 23  1  0  0  0
 23 24  1  0  0  0
 24 25  1  0  0  0
 25 26  1  0  0  0
 26 27  1  0  0  0
 27 28  2  0  0  0
 27 29  1  0  0  0
 13 14  2  0  0  0
 13 15  1  0  0  0
  3  5  1  0  0  0
 19 21  1  0  0  0
 29 30  1  0  0  0
M  CHG 1  13   1
M  CHG 1  15  -1
M  END
> <minimizedAffinity>
-9.00421

$$$$
1YEJ_PNF_L_551


 30 30  0  0  0  0  0  0  0  0999 V2000
   15.3737   36.5486   61.7371 C   0  0  0  0  0  0  0  0  0  0  0  0
   14.2032   37.7486   62.1069 P   0  0  0  0  0  0  0  0  0  0  0  0
   14.6625   39.0504   61.6966 O   0  0  0  0  0  0  0  0  0  0  0  0
   13.8082   37.5532   63.5131 O   0  0  0  0  0  0  0  0  0  0  0  0
   13.9891   39.7141   61.9134 H   0  0  0  0  0  0  0  0  0  0  0  0
   12.9349   37.3297   61.1631 O   0  0  0  0  0  0  0  0  0  0  0  0
   11.6697   37.7507   61.4874 C   0  0  0  0  0  0  0  0  0  0  0  0
   10.8675   36.8628   62.1924 C   0  0  0  0  0  0  0  0  0  0  0  0
    9.5898   37.2549   62.5222 C   0  0  0  0  0  0  0  0  0  0  0  0
    9.1339   38.5196   62.1483 C   0  0  0  0  0  0  0  0  0  0  0  0
    9.9862   39.4004   61.4296 C   0  0  0  0  0  0  0  0  0  0  0  0
   11.2911   39.0180   61.0840 C   0  0  0  0  0  0  0  0  0  0  0  0
    7.7556   38.9487   62.4986 N   0  0  0  0  0  0  0  0  0  0  0  0
    7.1039   39.7156   61.7745 O   0  0  0  0  0  0  0  0  0  0  0  0
    7.2452   38.5444   63.5415 O   0  0  0  0  0  0  0  0  0  0  0  0
   16.0890   36.7591   60.4695 C   0  0  0  0  0  0  0  0  0  0  0  0
   17.5653   36.7426   60.8342 C   0  0  0  0  0  0  0  0  0  0  0  0
   18.3602   35.7891   59.9811 C   0  0  0  0  0  0  0  0  0  0  0  0
   17.7175   34.6630   59.4576 N   0  0  0  0  0  0  0  0  0  0  0  0
   19.5714   36.0769   59.7874 O   0  0  0  0  0  0  0  0  0  0  0  0
   16.7652   34.5415   59.6760 H   0  0  0  0  0  0  0  0  0  0  0  0
   18.3144   33.7074   58.6579 C   0  0  0  0  0  0  0  0  0  0  0  0
   18.0595   33.9172   57.1560 C   0  0  0  0  0  0  0  0  0  0  0  0
   16.5688   34.2706   56.8418 C   0  0  0  0  0  0  0  0  0  0  0  0
   16.3827   35.3856   55.7797 C   0  0  0  0  0  0  0  0  0  0  0  0
   17.5996   36.2932   55.5303 C   0  0  0  0  0  0  0  0  0  0  0  0
   17.8109   37.4326   56.5532 C   0  0  0  0  0  0  0  0  0  0  0  0
   18.8881   37.6503   56.9767 O   0  0  0  0  0  0  0  0  0  0  0  0
   16.9151   38.1447   56.9756 O   0  0  0  0  0  0  0  0  0  0  0  0
   16.0363   38.0197   56.6757 H   0  0  0  0  0  0  0  0  0  0  0  0
  7  8  2  0  0  0
  7 12  1  0  0  0
  7  6  1  0  0  0
  8  9  1  0  0  0
  9 10  2  0  0  0
 10 11  1  0  0  0
 10 13  1  0  0  0
 11 12  2  0  0  0
  2  6  1  0  0  0
  2  3  1  0  0  0
  2  4  2  0  0  0
  2  1  1  0  0  0
  1 16  1  0  0  0
 16 17  1  0  0  0
 17 18  1  0  0  0
 18 19  1  0  0  0
 18 20  2  0  0  0
 19 22  1  0  0  0
 22 23  1  0  0  0
 23 24  1  0  0  0
 24 25  1  0  0  0
 25 26  1  0  0  0
 26 27  1  0  0  0
 27 28  2  0  0  0
 27 29  1  0  0  0
 13 14  2  0  0  0
 13 15  1  0  0  0
  3  5  1  0  0  0
 19 21  1  0  0  0
 29 30  1  0  0  0
M  CHG 1  13   1
M  CHG 1  15  -1
M  END
> <minimizedAffinity>
-8.89206

$$$$
1YEJ_PNF_L_551


 30 30  0  0  0  0  0  0  0  0999 V2000
   15.1592   36.4655   61.8512 C   0  0  0  0  0  0  0  0  0  0  0  0
   13.9876   37.6534   62.2555 P   0  0  0  0  0  0  0  0  0  0  0  0
   14.4153   38.9580   61.8206 O   0  0  0  0  0  0  0  0  0  0  0  0
   13.6461   37.4625   63.6763 O   0  0  0  0  0  0  0  0  0  0  0  0
   13.7417   39.6146   62.0573 H   0  0  0  0  0  0  0  0  0  0  0  0
   12.6916   37.2122   61.3608 O   0  0  0  0  0  0  0  0  0  0  0  0
   11.4831   37.8339   61.5507 C   0  0  0  0  0  0  0  0  0  0  0  0
   11.3426   39.1168   61.0374 C   0  0  0  0  0  0  0  0  0  0  0  0
   10.1442   39.7683   61.2222 C   0  0  0  0  0  0  0  0  0  0  0  0
    9.1088   39.1346   61.9103 C   0  0  0  0  0  0  0  0  0  0  0  0
    9.2908   37.8202   62.4183 C   0  0  0  0  0  0  0  0  0  0  0  0
   10.5053   37.1407   62.2403 C   0  0  0  0  0  0  0  0  0  0  0  0
    7.8136   39.8324   62.1157 N   0  0  0  0  0  0  0  0  0  0  0  0
    7.5287   40.8767   61.5113 O   0  0  0  0  0  0  0  0  0  0  0  0
    7.0014   39.3724   62.9157 O   0  0  0  0  0  0  0  0  0  0  0  0
   15.8850   36.7210   60.5980 C   0  0  0  0  0  0  0  0  0  0  0  0
   17.3585   36.6824   60.9723 C   0  0  0  0  0  0  0  0  0  0  0  0
   18.2181   36.1105   59.8757 C   0  0  0  0  0  0  0  0  0  0  0  0
   19.6078   36.1465   60.0258 N   0  0  0  0  0  0  0  0  0  0  0  0
   17.6178   35.6239   58.8806 O   0  0  0  0  0  0  0  0  0  0  0  0
   19.9650   36.5518   60.8489 H   0  0  0  0  0  0  0  0  0  0  0  0
   20.5190   35.6578   59.1093 C   0  0  0  0  0  0  0  0  0  0  0  0
   20.8246   36.6382   57.9646 C   0  0  0  0  0  0  0  0  0  0  0  0
   20.7062   38.1340   58.4051 C   0  0  0  0  0  0  0  0  0  0  0  0
   19.9155   39.0337   57.4195 C   0  0  0  0  0  0  0  0  0  0  0  0
   18.6906   39.7611   58.0004 C   0  0  0  0  0  0  0  0  0  0  0  0
   17.3318   39.0497   57.8098 C   0  0  0  0  0  0  0  0  0  0  0  0
   16.3950   39.3938   58.4352 O   0  0  0  0  0  0  0  0  0  0  0  0
   17.1498   38.1220   57.0388 O   0  0  0  0  0  0  0  0  0  0  0  0
   17.8575   37.8035   56.5137 H   0  0  0  0  0  0  0  0  0  0  0  0
  7  8  2  0  0  0
  7 12  1  0  0  0
  7  6  1  0  0  0
  8  9  1  0  0  0
  9 10  2  0  0  0
 10 11  1  0  0  0
 10 13  1  0  0  0
 11 12  2  0  0  0
  2  6  1  0  0  0
  2  3  1  0  0  0
  2  4  2  0  0  0
  2  1  1  0  0  0
  1 16  1  0  0  0
 16 17  1  0  0  0
 17 18  1  0  0  0
 18 19  1  0  0  0
 18 20  2  0  0  0
 19 22  1  0  0  0
 22 23  1  0  0  0
 23 24  1  0  0  0
 24 25  1  0  0  0
 25 26  1  0  0  0
 26 27  1  0  0  0
 27 28  2  0  0  0
 27 29  1  0  0  0
 13 14  2  0  0  0
 13 15  1  0  0  0
  3  5  1  0  0  0
 19 21  1  0  0  0
 29 30  1  0  0  0
M  CHG 1  13   1
M  CHG 1  15  -1
M  END
> <minimizedAffinity>
-8.83489

$$$$
1YEJ_PNF_L_551


 30 30  0  0  0  0  0  0  0  0999 V2000
   15.2610   36.3392   61.8645 C   0  0  0  0  0  0  0  0  0  0  0  0
   13.7865   36.8134   62.6046 P   0  0  0  0  0  0  0  0  0  0  0  0
   13.9521   38.0521   63.3203 O   0  0  0  0  0  0  0  0  0  0  0  0
   13.2696   35.6427   63.3353 O   0  0  0  0  0  0  0  0  0  0  0  0
   13.1100   38.3035   63.7308 H   0  0  0  0  0  0  0  0  0  0  0  0
   12.8032   37.0854   61.3263 O   0  0  0  0  0  0  0  0  0  0  0  0
   11.6111   37.7411   61.5049 C   0  0  0  0  0  0  0  0  0  0  0  0
   11.5116   39.0271   60.9899 C   0  0  0  0  0  0  0  0  0  0  0  0
   10.3304   39.7124   61.1636 C   0  0  0  0  0  0  0  0  0  0  0  0
    9.2713   39.1085   61.8424 C   0  0  0  0  0  0  0  0  0  0  0  0
    9.4115   37.7899   62.3525 C   0  0  0  0  0  0  0  0  0  0  0  0
   10.6079   37.0762   62.1859 C   0  0  0  0  0  0  0  0  0  0  0  0
    7.9946   39.8428   62.0358 N   0  0  0  0  0  0  0  0  0  0  0  0
    7.7282   40.8731   61.3997 O   0  0  0  0  0  0  0  0  0  0  0  0
    7.1794   39.4283   62.8575 O   0  0  0  0  0  0  0  0  0  0  0  0
   16.2168   37.4348   61.6435 C   0  0  0  0  0  0  0  0  0  0  0  0
   15.9995   37.8726   60.2034 C   0  0  0  0  0  0  0  0  0  0  0  0
   17.0554   37.3380   59.2718 C   0  0  0  0  0  0  0  0  0  0  0  0
   18.1116   36.5968   59.8107 N   0  0  0  0  0  0  0  0  0  0  0  0
   16.9121   37.5935   58.0465 O   0  0  0  0  0  0  0  0  0  0  0  0
   18.1188   36.4599   60.7856 H   0  0  0  0  0  0  0  0  0  0  0  0
   19.1459   36.0417   59.0819 C   0  0  0  0  0  0  0  0  0  0  0  0
   19.1744   34.5049   59.1287 C   0  0  0  0  0  0  0  0  0  0  0  0
   18.1321   33.8536   58.1617 C   0  0  0  0  0  0  0  0  0  0  0  0
   18.2274   34.3400   56.6919 C   0  0  0  0  0  0  0  0  0  0  0  0
   16.9004   34.7389   56.0232 C   0  0  0  0  0  0  0  0  0  0  0  0
   16.9226   36.0566   55.2157 C   0  0  0  0  0  0  0  0  0  0  0  0
   17.8749   36.3439   54.5851 O   0  0  0  0  0  0  0  0  0  0  0  0
   15.9995   36.8535   55.1854 O   0  0  0  0  0  0  0  0  0  0  0  0
   15.2148   36.6801   55.6672 H   0  0  0  0  0  0  0  0  0  0  0  0
  7  8  2  0  0  0
  7 12  1  0  0  0
  7  6  1  0  0  0
  8  9  1  0  0  0
  9 10  2  0  0  0
 10 11  1  0  0  0
 10 13  1  0  0  0
 11 12  2  0  0  0
  2  6  1  0  0  0
  2  3  1  0  0  0
  2  4  2  0  0  0
  2  1  1  0  0  0
  1 16  1  0  0  0
 16 17  1  0  0  0
 17 18  1  0  0  0
 18 19  1  0  0  0
 18 20  2  0  0  0
 19 22  1  0  0  0
 22 23  1  0  0  0
 23 24  1  0  0  0
 24 25  1  0  0  0
 25 26  1  0  0  0
 26 27  1  0  0  0
 27 28  2  0  0  0
 27 29  1  0  0  0
 13 14  2  0  0  0
 13 15  1  0  0  0
  3  5  1  0  0  0
 19 21  1  0  0  0
 29 30  1  0  0  0
M  CHG 1  13   1
M  CHG 1  15  -1
M  END
> <minimizedAffinity>
-8.35439

$$$$
1YEJ_PNF_L_551


 30 30  0  0  0  0  0  0  0  0999 V2000
   14.9928   36.6339   61.2007 C   0  0  0  0  0  0  0  0  0  0  0  0
   13.7893   37.0708   62.3442 P   0  0  0  0  0  0  0  0  0  0  0  0
   13.8004   38.4921   62.5761 O   0  0  0  0  0  0  0  0  0  0  0  0
   13.9382   36.1685   63.4997 O   0  0  0  0  0  0  0  0  0  0  0  0
   13.1149   38.7194   63.2236 H   0  0  0  0  0  0  0  0  0  0  0  0
   12.3963   36.6854   61.5787 O   0  0  0  0  0  0  0  0  0  0  0  0
   11.3103   37.5194   61.6690 C   0  0  0  0  0  0  0  0  0  0  0  0
   11.4095   38.7586   61.0498 C   0  0  0  0  0  0  0  0  0  0  0  0
   10.3387   39.6197   61.1331 C   0  0  0  0  0  0  0  0  0  0  0  0
    9.1909   39.2345   61.8268 C   0  0  0  0  0  0  0  0  0  0  0  0
    9.1273   37.9568   62.4450 C   0  0  0  0  0  0  0  0  0  0  0  0
   10.2088   37.0661   62.3714 C   0  0  0  0  0  0  0  0  0  0  0  0
    8.0325   40.1594   61.9230 N   0  0  0  0  0  0  0  0  0  0  0  0
    8.0167   41.2530   61.3392 O   0  0  0  0  0  0  0  0  0  0  0  0
    7.0633   39.8421   62.6096 O   0  0  0  0  0  0  0  0  0  0  0  0
   16.3013   37.2704   61.4135 C   0  0  0  0  0  0  0  0  0  0  0  0
   17.3061   36.3644   60.7191 C   0  0  0  0  0  0  0  0  0  0  0  0
   17.1400   36.3583   59.2221 C   0  0  0  0  0  0  0  0  0  0  0  0
   17.1727   35.1330   58.5491 N   0  0  0  0  0  0  0  0  0  0  0  0
   16.9743   37.4765   58.6658 O   0  0  0  0  0  0  0  0  0  0  0  0
   17.3079   34.3217   59.0901 H   0  0  0  0  0  0  0  0  0  0  0  0
   17.0301   34.9720   57.1843 C   0  0  0  0  0  0  0  0  0  0  0  0
   18.2914   34.4248   56.4954 C   0  0  0  0  0  0  0  0  0  0  0  0
   18.0085   33.9013   55.0492 C   0  0  0  0  0  0  0  0  0  0  0  0
   16.9101   32.8093   54.9643 C   0  0  0  0  0  0  0  0  0  0  0  0
   17.1152   31.7244   53.8929 C   0  0  0  0  0  0  0  0  0  0  0  0
   16.6889   30.2936   54.2930 C   0  0  0  0  0  0  0  0  0  0  0  0
   17.3807   29.6484   54.9945 O   0  0  0  0  0  0  0  0  0  0  0  0
   15.6576   29.7597   53.9196 O   0  0  0  0  0  0  0  0  0  0  0  0
   15.0662   30.2231   53.3597 H   0  0  0  0  0  0  0  0  0  0  0  0
  7  8  2  0  0  0
  7 12  1  0  0  0
  7  6  1  0  0  0
  8  9  1  0  0  0
  9 10  2  0  0  0
 10 11  1  0  0  0
 10 13  1  0  0  0
 11 12  2  0  0  0
  2  6  1  0  0  0
  2  3  1  0  0  0
  2  4  2  0  0  0
  2  1  1  0  0  0
  1 16  1  0  0  0
 16 17  1  0  0  0
 17 18  1  0  0  0
 18 19  1  0  0  0
 18 20  2  0  0  0
 19 22  1  0  0  0
 22 23  1  0  0  0
 23 24  1  0  0  0
 24 25  1  0  0  0
 25 26  1  0  0  0
 26 27  1  0  0  0
 27 28  2  0  0  0
 27 29  1  0  0  0
 13 14  2  0  0  0
 13 15  1  0  0  0
  3  5  1  0  0  0
 19 21  1  0  0  0
 29 30  1  0  0  0
M  CHG 1  13   1
M  CHG 1  15  -1
M  END
> <minimizedAffinity>
-7.66298

$$$$
1YEJ_PNF_L_551


 30 30  0  0  0  0  0  0  0  0999 V2000
   14.9556   36.6220   61.2439 C   0  0  0  0  0  0  0  0  0  0  0  0
   13.7564   37.0326   62.4016 P   0  0  0  0  0  0  0  0  0  0  0  0
   13.7598   38.4500   62.6562 O   0  0  0  0  0  0  0  0  0  0  0  0
   13.9185   36.1129   63.5416 O   0  0  0  0  0  0  0  0  0  0  0  0
   13.0769   38.6624   63.3115 H   0  0  0  0  0  0  0  0  0  0  0  0
   12.3613   36.6503   61.6386 O   0  0  0  0  0  0  0  0  0  0  0  0
   11.2821   37.4941   61.7185 C   0  0  0  0  0  0  0  0  0  0  0  0
   11.4042   38.7386   61.1141 C   0  0  0  0  0  0  0  0  0  0  0  0
   10.3407   39.6094   61.1876 C   0  0  0  0  0  0  0  0  0  0  0  0
    9.1770   39.2285   61.8569 C   0  0  0  0  0  0  0  0  0  0  0  0
    9.0900   37.9452   62.4605 C   0  0  0  0  0  0  0  0  0  0  0  0
   10.1638   37.0445   62.3966 C   0  0  0  0  0  0  0  0  0  0  0  0
    8.0262   40.1638   61.9424 N   0  0  0  0  0  0  0  0  0  0  0  0
    8.0313   41.2634   61.3696 O   0  0  0  0  0  0  0  0  0  0  0  0
    7.0420   39.8492   62.6087 O   0  0  0  0  0  0  0  0  0  0  0  0
   16.2825   37.2006   61.5031 C   0  0  0  0  0  0  0  0  0  0  0  0
   17.2411   36.4191   60.6182 C   0  0  0  0  0  0  0  0  0  0  0  0
   16.9681   36.6222   59.1509 C   0  0  0  0  0  0  0  0  0  0  0  0
   16.9347   35.5022   58.3142 N   0  0  0  0  0  0  0  0  0  0  0  0
   16.7791   37.8075   58.7683 O   0  0  0  0  0  0  0  0  0  0  0  0
   17.0965   34.6229   58.7263 H   0  0  0  0  0  0  0  0  0  0  0  0
   16.6923   35.5333   56.9543 C   0  0  0  0  0  0  0  0  0  0  0  0
   17.9172   35.1583   56.1035 C   0  0  0  0  0  0  0  0  0  0  0  0
   18.1077   36.1038   54.8726 C   0  0  0  0  0  0  0  0  0  0  0  0
   16.8518   36.2502   53.9741 C   0  0  0  0  0  0  0  0  0  0  0  0
   17.1130   36.4209   52.4676 C   0  0  0  0  0  0  0  0  0  0  0  0
   16.1148   35.7096   51.5261 C   0  0  0  0  0  0  0  0  0  0  0  0
   16.1927   34.5467   51.3567 O   0  0  0  0  0  0  0  0  0  0  0  0
   15.2249   36.2810   50.9181 O   0  0  0  0  0  0  0  0  0  0  0  0
   15.1127   37.2065   51.0122 H   0  0  0  0  0  0  0  0  0  0  0  0
  7  8  2  0  0  0
  7 12  1  0  0  0
  7  6  1  0  0  0
  8  9  1  0  0  0
  9 10  2  0  0  0
 10 11  1  0  0  0
 10 13  1  0  0  0
 11 12  2  0  0  0
  2  6  1  0  0  0
  2  3  1  0  0  0
  2  4  2  0  0  0
  2  1  1  0  0  0
  1 16  1  0  0  0
 16 17  1  0  0  0
 17 18  1  0  0  0
 18 19  1  0  0  0
 18 20  2  0  0  0
 19 22  1  0  0  0
 22 23  1  0  0  0
 23 24  1  0  0  0
 24 25  1  0  0  0
 25 26  1  0  0  0
 26 27  1  0  0  0
 27 28  2  0  0  0
 27 29  1  0  0  0
 13 14  2  0  0  0
 13 15  1  0  0  0
  3  5  1  0  0  0
 19 21  1  0  0  0
 29 30  1  0  0  0
M  CHG 1  13   1
M  CHG 1  15  -1
M  END
> <minimizedAffinity>
-7.60013

$$$$
1YEJ_PNF_L_551


 30 30  0  0  0  0  0  0  0  0999 V2000
   17.1807   36.6445   58.5226 C   0  0  0  0  0  0  0  0  0  0  0  0
   17.5322   37.3096   56.9795 P   0  0  0  0  0  0  0  0  0  0  0  0
   18.8255   36.8732   56.5204 O   0  0  0  0  0  0  0  0  0  0  0  0
   17.2652   38.7568   57.0578 O   0  0  0  0  0  0  0  0  0  0  0  0
   19.0062   37.2585   55.6487 H   0  0  0  0  0  0  0  0  0  0  0  0
   16.3917   36.6368   56.0196 O   0  0  0  0  0  0  0  0  0  0  0  0
   16.5482   35.3514   55.5656 C   0  0  0  0  0  0  0  0  0  0  0  0
   16.9859   35.1900   54.2574 C   0  0  0  0  0  0  0  0  0  0  0  0
   17.1419   33.9113   53.7722 C   0  0  0  0  0  0  0  0  0  0  0  0
   16.8629   32.8186   54.5938 C   0  0  0  0  0  0  0  0  0  0  0  0
   16.4194   33.0251   55.9278 C   0  0  0  0  0  0  0  0  0  0  0  0
   16.2539   34.3209   56.4395 C   0  0  0  0  0  0  0  0  0  0  0  0
   17.0266   31.4359   54.0763 N   0  0  0  0  0  0  0  0  0  0  0  0
   16.0946   30.8246   53.5333 O   0  0  0  0  0  0  0  0  0  0  0  0
   18.1121   30.8715   54.1976 O   0  0  0  0  0  0  0  0  0  0  0  0
   16.6783   37.6133   59.5083 C   0  0  0  0  0  0  0  0  0  0  0  0
   16.3904   36.7993   60.7603 C   0  0  0  0  0  0  0  0  0  0  0  0
   15.2651   37.3767   61.5783 C   0  0  0  0  0  0  0  0  0  0  0  0
   13.9576   37.2590   61.0967 N   0  0  0  0  0  0  0  0  0  0  0  0
   15.5809   37.9325   62.6639 O   0  0  0  0  0  0  0  0  0  0  0  0
   13.8313   36.8022   60.2338 H   0  0  0  0  0  0  0  0  0  0  0  0
   12.8292   37.7336   61.7374 C   0  0  0  0  0  0  0  0  0  0  0  0
   11.6545   36.7412   61.7279 C   0  0  0  0  0  0  0  0  0  0  0  0
   10.3763   37.3144   62.4230 C   0  0  0  0  0  0  0  0  0  0  0  0
    9.2975   37.8487   61.4448 C   0  0  0  0  0  0  0  0  0  0  0  0
    8.2377   38.7848   62.0510 C   0  0  0  0  0  0  0  0  0  0  0  0
    8.3912   40.2850   61.7122 C   0  0  0  0  0  0  0  0  0  0  0  0
    7.5613   41.0511   62.0458 O   0  0  0  0  0  0  0  0  0  0  0  0
    9.3361   40.7524   61.0984 O   0  0  0  0  0  0  0  0  0  0  0  0
   10.0283   40.1924   60.8064 H   0  0  0  0  0  0  0  0  0  0  0  0
  7  8  2  0  0  0
  7 12  1  0  0  0
  7  6  1  0  0  0
  8  9  1  0  0  0
  9 10  2  0  0  0
 10 11  1  0  0  0
 10 13  1  0  0  0
 11 12  2  0  0  0
  2  6  1  0  0  0
  2  3  1  0  0  0
  2  4  2  0  0  0
  2  1  1  0  0  0
  1 16  1  0  0  0
 16 17  1  0  0  0
 17 18  1  0  0  0
 18 19  1  0  0  0
 18 20  2  0  0  0
 19 22  1  0  0  0
 22 23  1  0  0  0
 23 24  1  0  0  0
 24 25  1  0  0  0
 25 26  1  0  0  0
 26 27  1  0  0  0
 27 28  2  0  0  0
 27 29  1  0  0  0
 13 14  2  0  0  0
 13 15  1  0  0  0
  3  5  1  0  0  0
 19 21  1  0  0  0
 29 30  1  0  0  0
M  CHG 1  13   1
M  CHG 1  15  -1
M  END
> <minimizedAffinity>
-7.57629

$$$$
1YEJ_PNF_L_551


 30 30  0  0  0  0  0  0  0  0999 V2000
   17.6710   36.4277   60.0172 C   0  0  0  0  0  0  0  0  0  0  0  0
   17.9307   35.3952   58.6705 P   0  0  0  0  0  0  0  0  0  0  0  0
   17.8819   34.0132   59.0725 O   0  0  0  0  0  0  0  0  0  0  0  0
   19.1340   35.8829   57.9735 O   0  0  0  0  0  0  0  0  0  0  0  0
   18.0305   33.4462   58.2996 H   0  0  0  0  0  0  0  0  0  0  0  0
   16.6368   35.6998   57.7176 O   0  0  0  0  0  0  0  0  0  0  0  0
   16.7322   35.5371   56.3584 C   0  0  0  0  0  0  0  0  0  0  0  0
   16.8520   36.6873   55.5892 C   0  0  0  0  0  0  0  0  0  0  0  0
   16.9393   36.5543   54.2219 C   0  0  0  0  0  0  0  0  0  0  0  0
   16.9080   35.2842   53.6448 C   0  0  0  0  0  0  0  0  0  0  0  0
   16.7868   34.1313   54.4663 C   0  0  0  0  0  0  0  0  0  0  0  0
   16.6960   34.2471   55.8616 C   0  0  0  0  0  0  0  0  0  0  0  0
   16.9992   35.1331   52.1699 N   0  0  0  0  0  0  0  0  0  0  0  0
   16.0187   34.8129   51.4819 O   0  0  0  0  0  0  0  0  0  0  0  0
   18.0783   35.3182   51.6107 O   0  0  0  0  0  0  0  0  0  0  0  0
   16.2852   36.8939   60.1747 C   0  0  0  0  0  0  0  0  0  0  0  0
   16.1228   37.1754   61.6604 C   0  0  0  0  0  0  0  0  0  0  0  0
   14.7525   37.6989   62.0025 C   0  0  0  0  0  0  0  0  0  0  0  0
   13.6746   37.3378   61.1882 N   0  0  0  0  0  0  0  0  0  0  0  0
   14.6653   38.4359   63.0206 O   0  0  0  0  0  0  0  0  0  0  0  0
   13.8633   36.7544   60.4179 H   0  0  0  0  0  0  0  0  0  0  0  0
   12.3655   37.7358   61.3802 C   0  0  0  0  0  0  0  0  0  0  0  0
   11.5273   36.7245   62.1799 C   0  0  0  0  0  0  0  0  0  0  0  0
   10.0926   37.2552   62.5051 C   0  0  0  0  0  0  0  0  0  0  0  0
    9.6272   38.4370   61.6146 C   0  0  0  0  0  0  0  0  0  0  0  0
    8.1065   38.6073   61.4559 C   0  0  0  0  0  0  0  0  0  0  0  0
    7.4518   39.6820   62.3534 C   0  0  0  0  0  0  0  0  0  0  0  0
    7.5572   40.8222   62.0777 O   0  0  0  0  0  0  0  0  0  0  0  0
    6.8174   39.4319   63.3648 O   0  0  0  0  0  0  0  0  0  0  0  0
    6.6992   38.5427   63.6358 H   0  0  0  0  0  0  0  0  0  0  0  0
  7  8  2  0  0  0
  7 12  1  0  0  0
  7  6  1  0  0  0
  8  9  1  0  0  0
  9 10  2  0  0  0
 10 11  1  0  0  0
 10 13  1  0  0  0
 11 12  2  0  0  0
  2  6  1  0  0  0
  2  3  1  0  0  0
  2  4  2  0  0  0
  2  1  1  0  0  0
  1 16  1  0  0  0
 16 17  1  0  0  0
 17 18  1  0  0  0
 18 19  1  0  0  0
 18 20  2  0  0  0
 19 22  1  0  0  0
 22 23  1  0  0  0
 23 24  1  0  0  0
 24 25  1  0  0  0
 25 26  1  0  0  0
 26 27  1  0  0  0
 27 28  2  0  0  0
 27 29  1  0  0  0
 13 14  2  0  0  0
 13 15  1  0  0  0
  3  5  1  0  0  0
 19 21  1  0  0  0
 29 30  1  0  0  0
M  CHG 1  13   1
M  CHG 1  15  -1
M  END
> <minimizedAffinity>
-7.45459

$$$$
1YEJ_PNF_L_551


 30 30  0  0  0  0  0  0  0  0999 V2000
   18.1914   36.0393   60.3312 C   0  0  0  0  0  0  0  0  0  0  0  0
   16.9440   36.9958   59.6411 P   0  0  0  0  0  0  0  0  0  0  0  0
   15.8945   36.1609   59.1163 O   0  0  0  0  0  0  0  0  0  0  0  0
   17.5882   37.9665   58.7386 O   0  0  0  0  0  0  0  0  0  0  0  0
   15.2001   36.7181   58.7313 H   0  0  0  0  0  0  0  0  0  0  0  0
   16.3542   37.8161   60.9272 O   0  0  0  0  0  0  0  0  0  0  0  0
   15.0329   37.6887   61.2749 C   0  0  0  0  0  0  0  0  0  0  0  0
   14.1403   38.5946   60.7167 C   0  0  0  0  0  0  0  0  0  0  0  0
   12.8098   38.4966   61.0560 C   0  0  0  0  0  0  0  0  0  0  0  0
   12.3907   37.5018   61.9402 C   0  0  0  0  0  0  0  0  0  0  0  0
   13.3345   36.5921   62.4883 C   0  0  0  0  0  0  0  0  0  0  0  0
   14.6947   36.6768   62.1547 C   0  0  0  0  0  0  0  0  0  0  0  0
   10.9570   37.3915   62.3128 N   0  0  0  0  0  0  0  0  0  0  0  0
   10.1059   38.1854   61.8859 O   0  0  0  0  0  0  0  0  0  0  0  0
   10.5998   36.4962   63.0759 O   0  0  0  0  0  0  0  0  0  0  0  0
   19.2099   35.5773   59.3764 C   0  0  0  0  0  0  0  0  0  0  0  0
   18.8107   34.1534   59.0214 C   0  0  0  0  0  0  0  0  0  0  0  0
   18.2324   34.0445   57.6348 C   0  0  0  0  0  0  0  0  0  0  0  0
   16.8738   33.7434   57.4971 N   0  0  0  0  0  0  0  0  0  0  0  0
   19.0232   34.2407   56.6739 O   0  0  0  0  0  0  0  0  0  0  0  0
   16.3524   33.6112   58.3217 H   0  0  0  0  0  0  0  0  0  0  0  0
   16.2060   33.6167   56.2942 C   0  0  0  0  0  0  0  0  0  0  0  0
   15.9999   34.9534   55.5625 C   0  0  0  0  0  0  0  0  0  0  0  0
   16.6626   34.9731   54.1462 C   0  0  0  0  0  0  0  0  0  0  0  0
   17.3596   36.3099   53.7811 C   0  0  0  0  0  0  0  0  0  0  0  0
   17.8042   37.1870   54.9644 C   0  0  0  0  0  0  0  0  0  0  0  0
   18.5344   38.4979   54.5940 C   0  0  0  0  0  0  0  0  0  0  0  0
   19.1626   39.0715   55.4086 O   0  0  0  0  0  0  0  0  0  0  0  0
   18.5038   39.0059   53.4854 O   0  0  0  0  0  0  0  0  0  0  0  0
   18.0203   38.5960   52.7954 H   0  0  0  0  0  0  0  0  0  0  0  0
  7  8  2  0  0  0
  7 12  1  0  0  0
  7  6  1  0  0  0
  8  9  1  0  0  0
  9 10  2  0  0  0
 10 11  1  0  0  0
 10 13  1  0  0  0
 11 12  2  0  0  0
  2  6  1  0  0  0
  2  3  1  0  0  0
  2  4  2  0  0  0
  2  1  1  0  0  0
  1 16  1  0  0  0
 16 17  1  0  0  0
 17 18  1  0  0  0
 18 19  1  0  0  0
 18 20  2  0  0  0
 19 22  1  0  0  0
 22 23  1  0  0  0
 23 24  1  0  0  0
 24 25  1  0  0  0
 25 26  1  0  0  0
 26 27  1  0  0  0
 27 28  2  0  0  0
 27 29  1  0  0  0
 13 14  2  0  0  0
 13 15  1  0  0  0
  3  5  1  0  0  0
 19 21  1  0  0  0
 29 30  1  0  0  0
M  CHG 1  13   1
M  CHG 1  15  -1
M  END
> <minimizedAffinity>
-7.42694

$$$$
