6H36_FKE_A_302


 26 28  0  0  0  0  0  0  0  0999 V2000
   17.3142   24.3143    3.3844 C   0  0  0  0  0  0  0  0  0  0  0  0
   18.6458   22.6366    2.2254 C   0  0  0  0  0  0  0  0  0  0  0  0
   19.8202   23.2864    1.5111 C   0  0  0  0  0  0  0  0  0  0  0  0
   21.0297   23.4014    2.4359 C   0  0  0  0  0  0  0  0  0  0  0  0
   20.5979   24.1889    3.6698 C   0  0  0  0  0  0  0  0  0  0  0  0
   19.4167   23.5224    4.3534 C   0  0  0  0  0  0  0  0  0  0  0  0
   16.6620   24.5087    2.3717 O   0  0  0  0  0  0  0  0  0  0  0  0
   18.2726   23.3761    3.4416 N   0  0  0  0  0  0  0  0  0  0  0  0
   16.3898   26.5417    6.9195 C   0  0  0  0  0  0  0  0  0  0  0  0
   16.6069   27.2043    5.7224 C   0  0  0  0  0  0  0  0  0  0  0  0
   16.9147   26.4791    4.5848 C   0  0  0  0  0  0  0  0  0  0  0  0
   17.0028   25.0931    4.6262 C   0  0  0  0  0  0  0  0  0  0  0  0
   16.7762   24.4436    5.8358 C   0  0  0  0  0  0  0  0  0  0  0  0
   16.4712   25.1604    6.9819 C   0  0  0  0  0  0  0  0  0  0  0  0
   16.0189   27.4722    8.3807 S   0  0  0  0  0  0  0  0  0  0  0  0
   14.9477   28.3634    8.0521 O   0  0  0  0  0  0  0  0  0  0  0  0
   15.8225   26.5310    9.4419 O   0  0  0  0  0  0  0  0  0  0  0  0
   17.2886   28.3718    8.7629 N   0  0  0  0  0  0  0  0  0  0  0  0
   18.0738   27.7668    9.0036 H   0  0  0  0  0  0  0  0  0  0  0  0
   17.0582   28.9635    9.5611 H   0  0  0  0  0  0  0  0  0  0  0  0
   22.2125   24.0638    1.7353 C   0  0  0  0  0  0  0  0  0  0  0  0
   23.1259   24.8376    2.4439 C   0  0  0  0  0  0  0  0  0  0  0  0
   24.2208   25.3999    1.8105 C   0  0  0  0  0  0  0  0  0  0  0  0
   24.4189   25.1994    0.4595 C   0  0  0  0  0  0  0  0  0  0  0  0
   23.5228   24.4366   -0.2588 C   0  0  0  0  0  0  0  0  0  0  0  0
   22.4266   23.8738    0.3745 C   0  0  0  0  0  0  0  0  0  0  0  0
  2  3  1  0  0  0
  2  8  1  0  0  0
  7  1  2  0  0  0
  3  4  1  0  0  0
  1  8  1  0  0  0
  1 12  1  0  0  0
  8  6  1  0  0  0
 22 23  2  0  0  0
 22 21  1  0  0  0
  4 21  1  0  0  0
  4  5  1  0  0  0
 23 24  1  0  0  0
 21 26  2  0  0  0
 12 13  2  0  0  0
 12 11  1  0  0  0
  6  5  1  0  0  0
 13 14  1  0  0  0
 11 10  2  0  0  0
 24 25  2  0  0  0
 26 25  1  0  0  0
 14  9  2  0  0  0
 10  9  1  0  0  0
  9 15  1  0  0  0
 18 15  1  0  0  0
 17 15  2  0  0  0
 15 16  2  0  0  0
 18 19  1  0  0  0
 18 20  1  0  0  0
M  END
> <minimizedAffinity>
-8.52039

$$$$
6H36_FKE_A_302


 26 28  0  0  0  0  0  0  0  0999 V2000
   16.4988   23.2643    4.6864 C   0  0  0  0  0  0  0  0  0  0  0  0
   17.7698   21.5274    3.5468 C   0  0  0  0  0  0  0  0  0  0  0  0
   18.1703   21.9853    2.1533 C   0  0  0  0  0  0  0  0  0  0  0  0
   19.4983   22.7382    2.1834 C   0  0  0  0  0  0  0  0  0  0  0  0
   19.3480   23.9067    3.1536 C   0  0  0  0  0  0  0  0  0  0  0  0
   18.9358   23.4189    4.5315 C   0  0  0  0  0  0  0  0  0  0  0  0
   15.4655   22.8449    4.1914 O   0  0  0  0  0  0  0  0  0  0  0  0
   17.6790   22.6572    4.4852 N   0  0  0  0  0  0  0  0  0  0  0  0
   16.3338   26.6598    7.2857 C   0  0  0  0  0  0  0  0  0  0  0  0
   16.4483   26.8422    5.9172 C   0  0  0  0  0  0  0  0  0  0  0  0
   16.5107   25.7402    5.0827 C   0  0  0  0  0  0  0  0  0  0  0  0
   16.4536   24.4517    5.5995 C   0  0  0  0  0  0  0  0  0  0  0  0
   16.3330   24.2871    6.9760 C   0  0  0  0  0  0  0  0  0  0  0  0
   16.2737   25.3838    7.8210 C   0  0  0  0  0  0  0  0  0  0  0  0
   16.2777   28.0708    8.3555 S   0  0  0  0  0  0  0  0  0  0  0  0
   14.9941   28.6805    8.1817 O   0  0  0  0  0  0  0  0  0  0  0  0
   16.6492   27.6233    9.6641 O   0  0  0  0  0  0  0  0  0  0  0  0
   17.3793   29.1319    7.8780 N   0  0  0  0  0  0  0  0  0  0  0  0
   18.3098   28.7290    7.9886 H   0  0  0  0  0  0  0  0  0  0  0  0
   17.3052   29.9770    8.4443 H   0  0  0  0  0  0  0  0  0  0  0  0
   19.9064   23.2150    0.7925 C   0  0  0  0  0  0  0  0  0  0  0  0
   21.0385   24.0014    0.6059 C   0  0  0  0  0  0  0  0  0  0  0  0
   21.4277   24.3944   -0.6630 C   0  0  0  0  0  0  0  0  0  0  0  0
   20.6908   24.0094   -1.7646 C   0  0  0  0  0  0  0  0  0  0  0  0
   19.5649   23.2313   -1.5981 C   0  0  0  0  0  0  0  0  0  0  0  0
   19.1747   22.8379   -0.3283 C   0  0  0  0  0  0  0  0  0  0  0  0
  2  3  1  0  0  0
  2  8  1  0  0  0
  7  1  2  0  0  0
  3  4  1  0  0  0
  1  8  1  0  0  0
  1 12  1  0  0  0
  8  6  1  0  0  0
 22 23  2  0  0  0
 22 21  1  0  0  0
  4 21  1  0  0  0
  4  5  1  0  0  0
 23 24  1  0  0  0
 21 26  2  0  0  0
 12 13  2  0  0  0
 12 11  1  0  0  0
  6  5  1  0  0  0
 13 14  1  0  0  0
 11 10  2  0  0  0
 24 25  2  0  0  0
 26 25  1  0  0  0
 14  9  2  0  0  0
 10  9  1  0  0  0
  9 15  1  0  0  0
 18 15  1  0  0  0
 17 15  2  0  0  0
 15 16  2  0  0  0
 18 19  1  0  0  0
 18 20  1  0  0  0
M  END
> <minimizedAffinity>
-8.02954

$$$$
6H36_FKE_A_302


 26 28  0  0  0  0  0  0  0  0999 V2000
   19.1260   22.5625    4.1336 C   0  0  0  0  0  0  0  0  0  0  0  0
   16.8331   22.8353    4.9076 C   0  0  0  0  0  0  0  0  0  0  0  0
   16.7531   23.9205    5.9696 C   0  0  0  0  0  0  0  0  0  0  0  0
   16.5518   25.2950    5.3358 C   0  0  0  0  0  0  0  0  0  0  0  0
   17.7002   25.5284    4.3581 C   0  0  0  0  0  0  0  0  0  0  0  0
   17.7616   24.4229    3.3186 C   0  0  0  0  0  0  0  0  0  0  0  0
   19.3460   21.7721    5.0367 O   0  0  0  0  0  0  0  0  0  0  0  0
   17.9108   23.0991    3.9409 N   0  0  0  0  0  0  0  0  0  0  0  0
   22.2195   23.5515    1.3469 C   0  0  0  0  0  0  0  0  0  0  0  0
   21.3693   22.4890    1.0870 C   0  0  0  0  0  0  0  0  0  0  0  0
   20.3769   22.1683    1.9965 C   0  0  0  0  0  0  0  0  0  0  0  0
   20.2180   22.9027    3.1652 C   0  0  0  0  0  0  0  0  0  0  0  0
   21.0773   23.9700    3.4074 C   0  0  0  0  0  0  0  0  0  0  0  0
   22.0769   24.2973    2.5052 C   0  0  0  0  0  0  0  0  0  0  0  0
   23.5046   23.9469    0.1933 S   0  0  0  0  0  0  0  0  0  0  0  0
   24.6221   23.1074    0.5034 O   0  0  0  0  0  0  0  0  0  0  0  0
   22.9340   23.8674   -1.1177 O   0  0  0  0  0  0  0  0  0  0  0  0
   23.9669   25.4632    0.4267 N   0  0  0  0  0  0  0  0  0  0  0  0
   23.1920   26.0915    0.2143 H   0  0  0  0  0  0  0  0  0  0  0  0
   24.7549   25.6764   -0.1849 H   0  0  0  0  0  0  0  0  0  0  0  0
   16.4823   26.3958    6.3902 C   0  0  0  0  0  0  0  0  0  0  0  0
   16.3914   26.0894    7.7441 C   0  0  0  0  0  0  0  0  0  0  0  0
   16.3726   27.0920    8.6984 C   0  0  0  0  0  0  0  0  0  0  0  0
   16.4422   28.4159    8.3146 C   0  0  0  0  0  0  0  0  0  0  0  0
   16.5311   28.7379    6.9770 C   0  0  0  0  0  0  0  0  0  0  0  0
   16.5497   27.7350    6.0214 C   0  0  0  0  0  0  0  0  0  0  0  0
  2  3  1  0  0  0
  2  8  1  0  0  0
  7  1  2  0  0  0
  3  4  1  0  0  0
  1  8  1  0  0  0
  1 12  1  0  0  0
  8  6  1  0  0  0
 22 23  2  0  0  0
 22 21  1  0  0  0
  4 21  1  0  0  0
  4  5  1  0  0  0
 23 24  1  0  0  0
 21 26  2  0  0  0
 12 13  2  0  0  0
 12 11  1  0  0  0
  6  5  1  0  0  0
 13 14  1  0  0  0
 11 10  2  0  0  0
 24 25  2  0  0  0
 26 25  1  0  0  0
 14  9  2  0  0  0
 10  9  1  0  0  0
  9 15  1  0  0  0
 18 15  1  0  0  0
 17 15  2  0  0  0
 15 16  2  0  0  0
 18 19  1  0  0  0
 18 20  1  0  0  0
M  END
> <minimizedAffinity>
-7.67094

$$$$
6H36_FKE_A_302


 26 28  0  0  0  0  0  0  0  0999 V2000
   18.5679   25.0503    3.3761 C   0  0  0  0  0  0  0  0  0  0  0  0
   18.6325   23.3847    1.6005 C   0  0  0  0  0  0  0  0  0  0  0  0
   19.5946   22.2621    1.9555 C   0  0  0  0  0  0  0  0  0  0  0  0
   18.8919   21.1705    2.7592 C   0  0  0  0  0  0  0  0  0  0  0  0
   18.2851   21.8233    3.9980 C   0  0  0  0  0  0  0  0  0  0  0  0
   17.3396   22.9473    3.6115 C   0  0  0  0  0  0  0  0  0  0  0  0
   19.5175   25.6316    2.8771 O   0  0  0  0  0  0  0  0  0  0  0  0
   18.0148   23.9710    2.8005 N   0  0  0  0  0  0  0  0  0  0  0  0
   16.7752   26.5528    6.9596 C   0  0  0  0  0  0  0  0  0  0  0  0
   16.3935   27.0632    5.7296 C   0  0  0  0  0  0  0  0  0  0  0  0
   16.9837   26.5799    4.5751 C   0  0  0  0  0  0  0  0  0  0  0  0
   17.9507   25.5839    4.6331 C   0  0  0  0  0  0  0  0  0  0  0  0
   18.3179   25.0788    5.8766 C   0  0  0  0  0  0  0  0  0  0  0  0
   17.7361   25.5584    7.0392 C   0  0  0  0  0  0  0  0  0  0  0  0
   16.0363   27.1885    8.4389 S   0  0  0  0  0  0  0  0  0  0  0  0
   14.9739   28.0605    8.0381 O   0  0  0  0  0  0  0  0  0  0  0  0
   15.7209   26.0653    9.2695 O   0  0  0  0  0  0  0  0  0  0  0  0
   17.1155   28.0783    9.2207 N   0  0  0  0  0  0  0  0  0  0  0  0
   17.8898   27.4866    9.5221 H   0  0  0  0  0  0  0  0  0  0  0  0
   16.6769   28.5059   10.0363 H   0  0  0  0  0  0  0  0  0  0  0  0
   19.8494   20.0427    3.1334 C   0  0  0  0  0  0  0  0  0  0  0  0
   21.1589   20.0267    2.6644 C   0  0  0  0  0  0  0  0  0  0  0  0
   22.0353   19.0240    3.0424 C   0  0  0  0  0  0  0  0  0  0  0  0
   21.6162   18.0213    3.8931 C   0  0  0  0  0  0  0  0  0  0  0  0
   20.3213   18.0206    4.3664 C   0  0  0  0  0  0  0  0  0  0  0  0
   19.4436   19.0236    3.9881 C   0  0  0  0  0  0  0  0  0  0  0  0
  2  3  1  0  0  0
  2  8  1  0  0  0
  7  1  2  0  0  0
  3  4  1  0  0  0
  1  8  1  0  0  0
  1 12  1  0  0  0
  8  6  1  0  0  0
 22 23  2  0  0  0
 22 21  1  0  0  0
  4 21  1  0  0  0
  4  5  1  0  0  0
 23 24  1  0  0  0
 21 26  2  0  0  0
 12 13  2  0  0  0
 12 11  1  0  0  0
  6  5  1  0  0  0
 13 14  1  0  0  0
 11 10  2  0  0  0
 24 25  2  0  0  0
 26 25  1  0  0  0
 14  9  2  0  0  0
 10  9  1  0  0  0
  9 15  1  0  0  0
 18 15  1  0  0  0
 17 15  2  0  0  0
 15 16  2  0  0  0
 18 19  1  0  0  0
 18 20  1  0  0  0
M  END
> <minimizedAffinity>
-7.50129

$$$$
6H36_FKE_A_302


 26 28  0  0  0  0  0  0  0  0999 V2000
   18.7806   23.7227    2.5520 C   0  0  0  0  0  0  0  0  0  0  0  0
   19.5784   23.9476    4.8420 C   0  0  0  0  0  0  0  0  0  0  0  0
   18.9468   25.1578    5.5115 C   0  0  0  0  0  0  0  0  0  0  0  0
   17.6149   24.7923    6.1624 C   0  0  0  0  0  0  0  0  0  0  0  0
   16.7171   24.1975    5.0811 C   0  0  0  0  0  0  0  0  0  0  0  0
   17.3799   22.9997    4.4233 C   0  0  0  0  0  0  0  0  0  0  0  0
   19.6638   24.4686    2.1619 O   0  0  0  0  0  0  0  0  0  0  0  0
   18.6820   23.3521    3.8384 N   0  0  0  0  0  0  0  0  0  0  0  0
   16.0254   22.0944   -0.2888 C   0  0  0  0  0  0  0  0  0  0  0  0
   15.7732   23.3277    0.2895 C   0  0  0  0  0  0  0  0  0  0  0  0
   16.6632   23.8446    1.2145 C   0  0  0  0  0  0  0  0  0  0  0  0
   17.8108   23.1448    1.5664 C   0  0  0  0  0  0  0  0  0  0  0  0
   18.0510   21.9101    0.9715 C   0  0  0  0  0  0  0  0  0  0  0  0
   17.1644   21.3814    0.0470 C   0  0  0  0  0  0  0  0  0  0  0  0
   14.8738   21.4224   -1.4554 S   0  0  0  0  0  0  0  0  0  0  0  0
   15.6395   20.8312   -2.5107 O   0  0  0  0  0  0  0  0  0  0  0  0
   13.9665   20.5917   -0.7222 O   0  0  0  0  0  0  0  0  0  0  0  0
   14.0217   22.6188   -2.0958 N   0  0  0  0  0  0  0  0  0  0  0  0
   13.4617   23.0644   -1.3690 H   0  0  0  0  0  0  0  0  0  0  0  0
   13.4062   22.2482   -2.8199 H   0  0  0  0  0  0  0  0  0  0  0  0
   16.9634   26.0012    6.8277 C   0  0  0  0  0  0  0  0  0  0  0  0
   16.4911   27.0695    6.0722 C   0  0  0  0  0  0  0  0  0  0  0  0
   15.8621   28.1434    6.6782 C   0  0  0  0  0  0  0  0  0  0  0  0
   15.6971   28.1674    8.0482 C   0  0  0  0  0  0  0  0  0  0  0  0
   16.1605   27.1179    8.8128 C   0  0  0  0  0  0  0  0  0  0  0  0
   16.7905   26.0429    8.2069 C   0  0  0  0  0  0  0  0  0  0  0  0
  2  3  1  0  0  0
  2  8  1  0  0  0
  7  1  2  0  0  0
  3  4  1  0  0  0
  1  8  1  0  0  0
  1 12  1  0  0  0
  8  6  1  0  0  0
 22 23  2  0  0  0
 22 21  1  0  0  0
  4 21  1  0  0  0
  4  5  1  0  0  0
 23 24  1  0  0  0
 21 26  2  0  0  0
 12 13  2  0  0  0
 12 11  1  0  0  0
  6  5  1  0  0  0
 13 14  1  0  0  0
 11 10  2  0  0  0
 24 25  2  0  0  0
 26 25  1  0  0  0
 14  9  2  0  0  0
 10  9  1  0  0  0
  9 15  1  0  0  0
 18 15  1  0  0  0
 17 15  2  0  0  0
 15 16  2  0  0  0
 18 19  1  0  0  0
 18 20  1  0  0  0
M  END
> <minimizedAffinity>
-7.38609

$$$$
6H36_FKE_A_302


 26 28  0  0  0  0  0  0  0  0999 V2000
   17.0821   23.9453    3.3688 C   0  0  0  0  0  0  0  0  0  0  0  0
   17.8690   21.8669    2.3728 C   0  0  0  0  0  0  0  0  0  0  0  0
   19.3175   22.0010    1.9304 C   0  0  0  0  0  0  0  0  0  0  0  0
   20.2736   21.6512    3.0683 C   0  0  0  0  0  0  0  0  0  0  0  0
   19.9443   22.5614    4.2482 C   0  0  0  0  0  0  0  0  0  0  0  0
   18.4893   22.4141    4.6581 C   0  0  0  0  0  0  0  0  0  0  0  0
   16.7649   24.3631    2.2673 O   0  0  0  0  0  0  0  0  0  0  0  0
   17.5777   22.7100    3.5431 N   0  0  0  0  0  0  0  0  0  0  0  0
   16.4735   26.3822    6.8335 C   0  0  0  0  0  0  0  0  0  0  0  0
   16.4077   25.0024    6.9391 C   0  0  0  0  0  0  0  0  0  0  0  0
   16.5960   24.2202    5.8133 C   0  0  0  0  0  0  0  0  0  0  0  0
   16.8568   24.8009    4.5783 C   0  0  0  0  0  0  0  0  0  0  0  0
   16.9250   26.1881    4.4917 C   0  0  0  0  0  0  0  0  0  0  0  0
   16.7341   26.9810    5.6121 C   0  0  0  0  0  0  0  0  0  0  0  0
   16.2091   27.3839    8.2706 S   0  0  0  0  0  0  0  0  0  0  0  0
   15.7120   26.5216    9.2997 O   0  0  0  0  0  0  0  0  0  0  0  0
   17.4226   28.1051    8.5114 O   0  0  0  0  0  0  0  0  0  0  0  0
   15.0640   28.4591    7.9538 N   0  0  0  0  0  0  0  0  0  0  0  0
   15.3855   29.0925    7.2218 H   0  0  0  0  0  0  0  0  0  0  0  0
   14.8557   28.9926    8.7978 H   0  0  0  0  0  0  0  0  0  0  0  0
   21.7318   21.7939    2.6418 C   0  0  0  0  0  0  0  0  0  0  0  0
   22.1990   22.9684    2.0611 C   0  0  0  0  0  0  0  0  0  0  0  0
   23.5324   23.1074    1.7163 C   0  0  0  0  0  0  0  0  0  0  0  0
   24.4188   22.0745    1.9444 C   0  0  0  0  0  0  0  0  0  0  0  0
   23.9728   20.9026    2.5175 C   0  0  0  0  0  0  0  0  0  0  0  0
   22.6383   20.7627    2.8626 C   0  0  0  0  0  0  0  0  0  0  0  0
  2  3  1  0  0  0
  2  8  1  0  0  0
  7  1  2  0  0  0
  3  4  1  0  0  0
  1  8  1  0  0  0
  1 12  1  0  0  0
  8  6  1  0  0  0
 22 23  2  0  0  0
 22 21  1  0  0  0
  4 21  1  0  0  0
  4  5  1  0  0  0
 23 24  1  0  0  0
 21 26  2  0  0  0
 12 13  2  0  0  0
 12 11  1  0  0  0
  6  5  1  0  0  0
 13 14  1  0  0  0
 11 10  2  0  0  0
 24 25  2  0  0  0
 26 25  1  0  0  0
 14  9  2  0  0  0
 10  9  1  0  0  0
  9 15  1  0  0  0
 18 15  1  0  0  0
 17 15  2  0  0  0
 15 16  2  0  0  0
 18 19  1  0  0  0
 18 20  1  0  0  0
M  END
> <minimizedAffinity>
-7.23165

$$$$
6H36_FKE_A_302


 26 28  0  0  0  0  0  0  0  0999 V2000
   18.7321   24.4591    4.7443 C   0  0  0  0  0  0  0  0  0  0  0  0
   19.8510   25.7446    3.0046 C   0  0  0  0  0  0  0  0  0  0  0  0
   20.8202   24.8656    2.2301 C   0  0  0  0  0  0  0  0  0  0  0  0
   20.1194   24.1692    1.0660 C   0  0  0  0  0  0  0  0  0  0  0  0
   18.9492   23.3734    1.6371 C   0  0  0  0  0  0  0  0  0  0  0  0
   18.0068   24.2756    2.4146 C   0  0  0  0  0  0  0  0  0  0  0  0
   19.6472   24.6919    5.5169 O   0  0  0  0  0  0  0  0  0  0  0  0
   18.7009   24.9755    3.5056 N   0  0  0  0  0  0  0  0  0  0  0  0
   15.4359   22.0783    6.0784 C   0  0  0  0  0  0  0  0  0  0  0  0
   16.5790   21.4650    5.5922 C   0  0  0  0  0  0  0  0  0  0  0  0
   17.6378   22.2405    5.1535 C   0  0  0  0  0  0  0  0  0  0  0  0
   17.5717   23.6275    5.2001 C   0  0  0  0  0  0  0  0  0  0  0  0
   16.4181   24.2266    5.6967 C   0  0  0  0  0  0  0  0  0  0  0  0
   15.3505   23.4596    6.1350 C   0  0  0  0  0  0  0  0  0  0  0  0
   14.0715   21.0854    6.6180 S   0  0  0  0  0  0  0  0  0  0  0  0
   14.4240   19.7187    6.3779 O   0  0  0  0  0  0  0  0  0  0  0  0
   13.7624   21.4853    7.9579 O   0  0  0  0  0  0  0  0  0  0  0  0
   12.7939   21.4160    5.7093 N   0  0  0  0  0  0  0  0  0  0  0  0
   12.5142   22.3859    5.8559 H   0  0  0  0  0  0  0  0  0  0  0  0
   12.0245   20.7977    5.9667 H   0  0  0  0  0  0  0  0  0  0  0  0
   21.0781   23.2732    0.2871 C   0  0  0  0  0  0  0  0  0  0  0  0
   22.2217   23.7927   -0.3106 C   0  0  0  0  0  0  0  0  0  0  0  0
   23.1099   22.9675   -0.9787 C   0  0  0  0  0  0  0  0  0  0  0  0
   22.8680   21.6113   -1.0617 C   0  0  0  0  0  0  0  0  0  0  0  0
   21.7386   21.0795   -0.4766 C   0  0  0  0  0  0  0  0  0  0  0  0
   20.8491   21.9049    0.1920 C   0  0  0  0  0  0  0  0  0  0  0  0
  2  3  1  0  0  0
  2  8  1  0  0  0
  7  1  2  0  0  0
  3  4  1  0  0  0
  1  8  1  0  0  0
  1 12  1  0  0  0
  8  6  1  0  0  0
 22 23  2  0  0  0
 22 21  1  0  0  0
  4 21  1  0  0  0
  4  5  1  0  0  0
 23 24  1  0  0  0
 21 26  2  0  0  0
 12 13  2  0  0  0
 12 11  1  0  0  0
  6  5  1  0  0  0
 13 14  1  0  0  0
 11 10  2  0  0  0
 24 25  2  0  0  0
 26 25  1  0  0  0
 14  9  2  0  0  0
 10  9  1  0  0  0
  9 15  1  0  0  0
 18 15  1  0  0  0
 17 15  2  0  0  0
 15 16  2  0  0  0
 18 19  1  0  0  0
 18 20  1  0  0  0
M  END
> <minimizedAffinity>
-7.10919

$$$$
6H36_FKE_A_302


 26 28  0  0  0  0  0  0  0  0999 V2000
   17.9506   22.0821    4.8464 C   0  0  0  0  0  0  0  0  0  0  0  0
   15.8254   22.9610    5.6477 C   0  0  0  0  0  0  0  0  0  0  0  0
   16.0519   24.1448    6.5746 C   0  0  0  0  0  0  0  0  0  0  0  0
   16.1324   25.4507    5.7875 C   0  0  0  0  0  0  0  0  0  0  0  0
   17.2480   25.3037    4.7565 C   0  0  0  0  0  0  0  0  0  0  0  0
   16.9999   24.1069    3.8548 C   0  0  0  0  0  0  0  0  0  0  0  0
   18.0355   21.3661    5.8306 O   0  0  0  0  0  0  0  0  0  0  0  0
   16.8797   22.8609    4.6261 N   0  0  0  0  0  0  0  0  0  0  0  0
   21.0690   21.9729    1.9178 C   0  0  0  0  0  0  0  0  0  0  0  0
   21.2192   22.7446    3.0585 C   0  0  0  0  0  0  0  0  0  0  0  0
   20.2033   22.7832    3.9973 C   0  0  0  0  0  0  0  0  0  0  0  0
   19.0360   22.0524    3.8135 C   0  0  0  0  0  0  0  0  0  0  0  0
   18.9044   21.2784    2.6647 C   0  0  0  0  0  0  0  0  0  0  0  0
   19.9139   21.2356    1.7163 C   0  0  0  0  0  0  0  0  0  0  0  0
   22.3601   21.9424    0.7050 S   0  0  0  0  0  0  0  0  0  0  0  0
   22.8080   23.2912    0.5324 O   0  0  0  0  0  0  0  0  0  0  0  0
   23.3098   20.9561    1.1245 O   0  0  0  0  0  0  0  0  0  0  0  0
   21.7494   21.4588   -0.6952 N   0  0  0  0  0  0  0  0  0  0  0  0
   21.4192   20.4977   -0.6083 H   0  0  0  0  0  0  0  0  0  0  0  0
   22.4703   21.5068   -1.4152 H   0  0  0  0  0  0  0  0  0  0  0  0
   16.3724   26.6464    6.7047 C   0  0  0  0  0  0  0  0  0  0  0  0
   16.3445   26.5075    8.0885 C   0  0  0  0  0  0  0  0  0  0  0  0
   16.6059   27.5869    8.9149 C   0  0  0  0  0  0  0  0  0  0  0  0
   16.8972   28.8216    8.3715 C   0  0  0  0  0  0  0  0  0  0  0  0
   16.9275   28.9778    7.0020 C   0  0  0  0  0  0  0  0  0  0  0  0
   16.6656   27.8980    6.1744 C   0  0  0  0  0  0  0  0  0  0  0  0
  2  3  1  0  0  0
  2  8  1  0  0  0
  7  1  2  0  0  0
  3  4  1  0  0  0
  1  8  1  0  0  0
  1 12  1  0  0  0
  8  6  1  0  0  0
 22 23  2  0  0  0
 22 21  1  0  0  0
  4 21  1  0  0  0
  4  5  1  0  0  0
 23 24  1  0  0  0
 21 26  2  0  0  0
 12 13  2  0  0  0
 12 11  1  0  0  0
  6  5  1  0  0  0
 13 14  1  0  0  0
 11 10  2  0  0  0
 24 25  2  0  0  0
 26 25  1  0  0  0
 14  9  2  0  0  0
 10  9  1  0  0  0
  9 15  1  0  0  0
 18 15  1  0  0  0
 17 15  2  0  0  0
 15 16  2  0  0  0
 18 19  1  0  0  0
 18 20  1  0  0  0
M  END
> <minimizedAffinity>
-7.08169

$$$$
6H36_FKE_A_302


 26 28  0  0  0  0  0  0  0  0999 V2000
   18.3169   22.1214    3.0220 C   0  0  0  0  0  0  0  0  0  0  0  0
   17.2243   24.2678    2.6609 C   0  0  0  0  0  0  0  0  0  0  0  0
   16.6380   24.7945    3.9611 C   0  0  0  0  0  0  0  0  0  0  0  0
   17.6688   25.6110    4.7371 C   0  0  0  0  0  0  0  0  0  0  0  0
   18.8856   24.7203    4.9722 C   0  0  0  0  0  0  0  0  0  0  0  0
   19.4401   24.2003    3.6573 C   0  0  0  0  0  0  0  0  0  0  0  0
   17.2579   21.5425    2.8435 O   0  0  0  0  0  0  0  0  0  0  0  0
   18.4269   23.4535    2.8974 N   0  0  0  0  0  0  0  0  0  0  0  0
   21.8610   19.8890    3.8991 C   0  0  0  0  0  0  0  0  0  0  0  0
   21.7543   20.5726    2.6988 C   0  0  0  0  0  0  0  0  0  0  0  0
   20.6019   21.2849    2.4170 C   0  0  0  0  0  0  0  0  0  0  0  0
   19.5519   21.3287    3.3258 C   0  0  0  0  0  0  0  0  0  0  0  0
   19.6784   20.6409    4.5288 C   0  0  0  0  0  0  0  0  0  0  0  0
   20.8264   19.9213    4.8194 C   0  0  0  0  0  0  0  0  0  0  0  0
   23.3270   18.9580    4.2493 S   0  0  0  0  0  0  0  0  0  0  0  0
   23.1979   18.4548    5.5833 O   0  0  0  0  0  0  0  0  0  0  0  0
   23.4973   18.0211    3.1797 O   0  0  0  0  0  0  0  0  0  0  0  0
   24.5889   19.9452    4.2310 N   0  0  0  0  0  0  0  0  0  0  0  0
   24.7109   20.3237    3.2917 H   0  0  0  0  0  0  0  0  0  0  0  0
   25.4270   19.4307    4.5017 H   0  0  0  0  0  0  0  0  0  0  0  0
   17.0974   26.1356    6.0512 C   0  0  0  0  0  0  0  0  0  0  0  0
   17.2736   25.4369    7.2411 C   0  0  0  0  0  0  0  0  0  0  0  0
   16.7903   25.9397    8.4368 C   0  0  0  0  0  0  0  0  0  0  0  0
   16.1221   27.1470    8.4618 C   0  0  0  0  0  0  0  0  0  0  0  0
   15.9370   27.8522    7.2916 C   0  0  0  0  0  0  0  0  0  0  0  0
   16.4202   27.3494    6.0945 C   0  0  0  0  0  0  0  0  0  0  0  0
  2  3  1  0  0  0
  2  8  1  0  0  0
  7  1  2  0  0  0
  3  4  1  0  0  0
  1  8  1  0  0  0
  1 12  1  0  0  0
  8  6  1  0  0  0
 22 23  2  0  0  0
 22 21  1  0  0  0
  4 21  1  0  0  0
  4  5  1  0  0  0
 23 24  1  0  0  0
 21 26  2  0  0  0
 12 13  2  0  0  0
 12 11  1  0  0  0
  6  5  1  0  0  0
 13 14  1  0  0  0
 11 10  2  0  0  0
 24 25  2  0  0  0
 26 25  1  0  0  0
 14  9  2  0  0  0
 10  9  1  0  0  0
  9 15  1  0  0  0
 18 15  1  0  0  0
 17 15  2  0  0  0
 15 16  2  0  0  0
 18 19  1  0  0  0
 18 20  1  0  0  0
M  END
> <minimizedAffinity>
-6.74471

$$$$
6H36_FKE_A_302


 26 28  0  0  0  0  0  0  0  0999 V2000
   18.7535   22.7537    0.9847 C   0  0  0  0  0  0  0  0  0  0  0  0
   16.3829   22.9943    1.4879 C   0  0  0  0  0  0  0  0  0  0  0  0
   16.0240   22.2273    2.7507 C   0  0  0  0  0  0  0  0  0  0  0  0
   16.2296   23.0896    3.9939 C   0  0  0  0  0  0  0  0  0  0  0  0
   17.6813   23.5604    3.9980 C   0  0  0  0  0  0  0  0  0  0  0  0
   18.0122   24.3113    2.7200 C   0  0  0  0  0  0  0  0  0  0  0  0
   18.5264   21.7284    0.3637 O   0  0  0  0  0  0  0  0  0  0  0  0
   17.7688   23.4875    1.5268 N   0  0  0  0  0  0  0  0  0  0  0  0
   22.7617   24.2138    1.3247 C   0  0  0  0  0  0  0  0  0  0  0  0
   21.9290   24.7058    0.3328 C   0  0  0  0  0  0  0  0  0  0  0  0
   20.6370   24.2228    0.2221 C   0  0  0  0  0  0  0  0  0  0  0  0
   20.1615   23.2544    1.0976 C   0  0  0  0  0  0  0  0  0  0  0  0
   21.0098   22.7756    2.0914 C   0  0  0  0  0  0  0  0  0  0  0  0
   22.3067   23.2495    2.2087 C   0  0  0  0  0  0  0  0  0  0  0  0
   24.4232   24.8155    1.4511 S   0  0  0  0  0  0  0  0  0  0  0  0
   24.4083   25.9014    2.3840 O   0  0  0  0  0  0  0  0  0  0  0  0
   25.2604   23.6876    1.7299 O   0  0  0  0  0  0  0  0  0  0  0  0
   24.8723   25.4103    0.0327 N   0  0  0  0  0  0  0  0  0  0  0  0
   24.8939   24.6609   -0.6588 H   0  0  0  0  0  0  0  0  0  0  0  0
   25.8013   25.8231    0.1159 H   0  0  0  0  0  0  0  0  0  0  0  0
   15.8851   22.3277    5.2703 C   0  0  0  0  0  0  0  0  0  0  0  0
   14.8343   22.7322    6.0872 C   0  0  0  0  0  0  0  0  0  0  0  0
   14.4992   22.0116    7.2207 C   0  0  0  0  0  0  0  0  0  0  0  0
   15.2099   20.8772    7.5563 C   0  0  0  0  0  0  0  0  0  0  0  0
   16.2555   20.4625    6.7590 C   0  0  0  0  0  0  0  0  0  0  0  0
   16.5915   21.1835    5.6246 C   0  0  0  0  0  0  0  0  0  0  0  0
  2  3  1  0  0  0
  2  8  1  0  0  0
  7  1  2  0  0  0
  3  4  1  0  0  0
  1  8  1  0  0  0
  1 12  1  0  0  0
  8  6  1  0  0  0
 22 23  2  0  0  0
 22 21  1  0  0  0
  4 21  1  0  0  0
  4  5  1  0  0  0
 23 24  1  0  0  0
 21 26  2  0  0  0
 12 13  2  0  0  0
 12 11  1  0  0  0
  6  5  1  0  0  0
 13 14  1  0  0  0
 11 10  2  0  0  0
 24 25  2  0  0  0
 26 25  1  0  0  0
 14  9  2  0  0  0
 10  9  1  0  0  0
  9 15  1  0  0  0
 18 15  1  0  0  0
 17 15  2  0  0  0
 15 16  2  0  0  0
 18 19  1  0  0  0
 18 20  1  0  0  0
M  END
> <minimizedAffinity>
-6.66598

$$$$
