6H36_FKE_A_302
  RCSB PDB12151803173D
Coordinates from PDB:6H36:A:302 Model:1 without hydrogens
 24 26  0  0  0  0            999 V2000
   16.3760   26.4320    6.8610   C 0  0  0  0  0  0  0  0  0  0  0  0
   16.6640   27.1440    5.7080   C 0  0  0  0  0  0  0  0  0  0  0  0
   16.9570   26.4640    4.5390   C 0  0  0  0  0  0  0  0  0  0  0  0
   16.9600   25.0750    4.5050   C 0  0  0  0  0  0  0  0  0  0  0  0
   16.6630   24.3760    5.6710   C 0  0  0  0  0  0  0  0  0  0  0  0
   16.3720   25.0470    6.8480   C 0  0  0  0  0  0  0  0  0  0  0  0
   17.2560   24.3470    3.2290   C 0  0  0  0  0  0  0  0  0  0  0  0
   18.3180   22.4970    2.0540   C 0  0  0  0  0  0  0  0  0  0  0  0
   19.6980   22.9000    1.5590   C 0  0  0  0  0  0  0  0  0  0  0  0
   20.7600   22.6450    2.6260   C 0  0  0  0  0  0  0  0  0  0  0  0
   20.3510   23.4110    3.8810   C 0  0  0  0  0  0  0  0  0  0  0  0
   18.9650   22.9960    4.3430   C 0  0  0  0  0  0  0  0  0  0  0  0
   22.1490   23.0570    2.1470   C 0  0  0  0  0  0  0  0  0  0  0  0
   22.4840   24.3970    1.9820   C 0  0  0  0  0  0  0  0  0  0  0  0
   23.7590   24.7660    1.5890   C 0  0  0  0  0  0  0  0  0  0  0  0
   24.7180   23.8020    1.3530   C 0  0  0  0  0  0  0  0  0  0  0  0
   24.4030   22.4690    1.5100   C 0  0  0  0  0  0  0  0  0  0  0  0
   23.1270   22.0990    1.9030   C 0  0  0  0  0  0  0  0  0  0  0  0
   16.0240   27.3030    8.3630   S 0  0  0  0  0  0  0  0  0  0  0  0
   17.2590   27.8590    8.8270   O 0  0  0  0  0  0  0  0  0  0  0  0
   14.9350   28.1920    8.0900   O 0  0  0  0  0  0  0  0  0  0  0  0
   16.8140   24.7740    2.1750   O 0  0  0  0  0  0  0  0  0  0  0  0
   17.9570   23.2040    3.2930   N 0  0  0  0  0  0  0  0  0  0  0  0
   15.5260   26.2560    9.4690   N 0  0  0  0  0  0  0  0  0  0  0  0
  8  9  1  0  0  0  0
  8 23  1  0  0  0  0
 22  7  2  0  0  0  0
  9 10  1  0  0  0  0
  7 23  1  0  0  0  0
  7  4  1  0  0  0  0
 23 12  1  0  0  0  0
 14 15  2  0  0  0  0
 14 13  1  0  0  0  0
 10 13  1  0  0  0  0
 10 11  1  0  0  0  0
 15 16  1  0  0  0  0
 13 18  2  0  0  0  0
  4  5  2  0  0  0  0
  4  3  1  0  0  0  0
 12 11  1  0  0  0  0
  5  6  1  0  0  0  0
  3  2  2  0  0  0  0
 16 17  2  0  0  0  0
 18 17  1  0  0  0  0
  6  1  2  0  0  0  0
  2  1  1  0  0  0  0
  1 19  1  0  0  0  0
 24 19  1  0  0  0  0
 21 19  2  0  0  0  0
 19 20  2  0  0  0  0
A    1
C1
A    2
C2
A    3
C3
A    4
C4
A    5
C5
A    6
C6
A    7
C7
A    8
C8
A    9
C9
A   10
C10
A   11
C11
A   12
C12
A   13
C13
A   14
C14
A   15
C15
A   16
C16
A   17
C17
A   18
C18
A   19
S1
A   20
O1
A   21
O2
A   22
O3
A   23
N2
A   24
N1
M  END
>  <InstanceId>
6H36_FKE_A_302

>  <ChemCompId>
FKE

>  <PdbId>
6H36

>  <ChainId>
A

>  <ResidueNumber>
302

>  <InsertionCode>


>  <Model>
1

>  <AltIds>


>  <MissingHeavyAtoms>
0

>  <ObservedFormula>
C18 N2 O3 S

>  <Name>
4-(4-phenylpiperidin-1-yl)carbonylbenzenesulfonamide

>  <SystematicName>
4-(4-phenylpiperidin-1-yl)carbonylbenzenesulfonamide

>  <Synonyms>


>  <Type>
NON-POLYMER

>  <Formula>
C18 H20 N2 O3 S

>  <MolecularWeight>
344.428

>  <ModifiedDate>
2018-12-14

>  <Parent>


>  <OneLetterCode>


>  <SubcomponentList>


>  <AmbiguousFlag>
N

>  <InChI>
InChI=1S/C18H20N2O3S/c19-24(22,23)17-8-6-16(7-9-17)18(21)20-12-10-15(11-13-20)14-4-2-1-3-5-14/h1-9,15H,10-13H2,(H2,19,22,23)

>  <InChIKey>
JYNGEJUBPGKEKV-UHFFFAOYSA-N

>  <SMILES>
c1ccc(cc1)C2CCN(CC2)C(=O)c3ccc(cc3)S(=O)(=O)N

$$$$
