1JN4_139_A_901


 50 54  0  0  0  0  0  0  0  0999 V2000
   38.7932   -5.3254   22.7087 P   0  0  0  0  0  0  0  0  0  0  0  0
   40.0350   -5.8522   23.4290 O   0  0  0  0  0  0  0  0  0  0  0  0
   39.0963   -4.2886   21.6641 O   0  0  0  0  0  0  0  0  0  0  0  0
   39.6782   -4.6706   20.9886 H   0  0  0  0  0  0  0  0  0  0  0  0
   37.9401   -6.4942   22.0246 O   0  0  0  0  0  0  0  0  0  0  0  0
   36.9833   -6.2002   21.0017 C   0  0  0  0  0  0  0  0  0  0  0  0
   37.2546   -7.0251   19.7581 C   0  0  0  0  0  0  0  0  0  0  0  0
   36.3388   -6.6342   18.7086 O   0  0  0  0  0  0  0  0  0  0  0  0
   36.9015   -7.0016   17.4646 C   0  0  0  0  0  0  0  0  0  0  0  0
   38.3948   -7.3043   17.6656 C   0  0  0  0  0  0  0  0  0  0  0  0
   38.6626   -8.6865   17.4593 O   0  0  0  0  0  0  0  0  0  0  0  0
   38.6271   -6.8543   19.1120 C   0  0  0  0  0  0  0  0  0  0  0  0
   39.7030   -7.5935   19.7348 O   0  0  0  0  0  0  0  0  0  0  0  0
   38.1066   -9.2156   18.0523 H   0  0  0  0  0  0  0  0  0  0  0  0
   39.5037   -8.5423   19.7037 H   0  0  0  0  0  0  0  0  0  0  0  0
   36.4863   -6.0582   16.4144 N   0  0  0  0  0  0  0  0  0  0  0  0
   36.9507   -4.7922   16.1079 C   0  0  0  0  0  0  0  0  0  0  0  0
   37.9074   -4.0718   16.7487 N   0  0  0  0  0  0  0  0  0  0  0  0
   38.0900   -2.8734   16.1525 C   0  0  0  0  0  0  0  0  0  0  0  0
   37.4643   -2.3626   15.0682 N   0  0  0  0  0  0  0  0  0  0  0  0
   36.5226   -3.1233   14.4419 C   0  0  0  0  0  0  0  0  0  0  0  0
   35.9219   -2.6456   13.3514 N   0  0  0  0  0  0  0  0  0  0  0  0
   36.2328   -4.3990   14.9791 C   0  0  0  0  0  0  0  0  0  0  0  0
   35.3345   -5.3830   14.5946 N   0  0  0  0  0  0  0  0  0  0  0  0
   35.5137   -6.3327   15.4792 C   0  0  0  0  0  0  0  0  0  0  0  0
   36.1553   -1.7511   13.0127 H   0  0  0  0  0  0  0  0  0  0  0  0
   35.2450   -3.1874   12.8850 H   0  0  0  0  0  0  0  0  0  0  0  0
   37.8380   -4.6196   23.7735 O   0  0  0  0  0  0  0  0  0  0  0  0
   37.0487   -3.2345   23.8455 P   0  0  0  0  0  0  0  0  0  0  0  0
   36.1270   -3.1911   22.6620 O   0  0  0  0  0  0  0  0  0  0  0  0
   36.4749   -3.1622   25.2166 O   0  0  0  0  0  0  0  0  0  0  0  0
   35.7633   -3.8156   25.3043 H   0  0  0  0  0  0  0  0  0  0  0  0
   38.2263   -2.1044   23.8062 O   0  0  0  0  0  0  0  0  0  0  0  0
   39.3441   -0.0441   23.0988 C   0  0  0  0  0  0  0  0  0  0  0  0
   38.8514    1.0583   23.9107 O   0  0  0  0  0  0  0  0  0  0  0  0
   37.4833    0.8473   24.2291 C   0  0  0  0  0  0  0  0  0  0  0  0
   36.9559   -0.1027   23.1668 C   0  0  0  0  0  0  0  0  0  0  0  0
   38.1560   -0.9924   22.8888 C   0  0  0  0  0  0  0  0  0  0  0  0
   36.7852    2.1472   24.2509 N   0  0  0  0  0  0  0  0  0  0  0  0
   37.2345    3.2358   23.5056 C   0  0  0  0  0  0  0  0  0  0  0  0
   35.6217    2.2408   25.0263 C   0  0  0  0  0  0  0  0  0  0  0  0
   35.1940    1.3235   25.7049 O   0  0  0  0  0  0  0  0  0  0  0  0
   34.9735    3.4533   24.9549 N   0  0  0  0  0  0  0  0  0  0  0  0
   35.3347    4.5559   24.1932 C   0  0  0  0  0  0  0  0  0  0  0  0
   34.5254    5.4788   24.0637 O   0  0  0  0  0  0  0  0  0  0  0  0
   36.5668    4.4003   23.4483 C   0  0  0  0  0  0  0  0  0  0  0  0
   34.1631    3.5489   25.5057 H   0  0  0  0  0  0  0  0  0  0  0  0
   39.7810   -0.4102   20.7446 O   0  0  0  0  0  0  0  0  0  0  0  0
   39.9400    0.5206   21.8294 C   0  0  0  0  0  0  0  0  0  0  0  0
   40.1673   -0.0353   19.9377 H   0  0  0  0  0  0  0  0  0  0  0  0
  1  2  2  0  0  0
  1  3  1  0  0  0
  1  5  1  0  0  0
  1 28  1  0  0  0
  5  6  1  0  0  0
 29 30  2  0  0  0
 29 31  1  0  0  0
 29 28  1  0  0  0
 29 33  1  0  0  0
 16 17  1  0  0  0
 16 25  1  0  0  0
 16  9  1  0  0  0
 17 18  1  0  0  0
 17 23  2  0  0  0
 18 19  2  0  0  0
 19 20  1  0  0  0
 20 21  2  0  0  0
 21 22  1  0  0  0
 21 23  1  0  0  0
 23 24  1  0  0  0
 24 25  2  0  0  0
  6  7  1  0  0  0
  7  8  1  0  0  0
  7 12  1  0  0  0
  8  9  1  0  0  0
  9 10  1  0  0  0
 10 11  1  0  0  0
 10 12  1  0  0  0
 12 13  1  0  0  0
 48 49  1  0  0  0
 49 34  1  0  0  0
 34 35  1  0  0  0
 34 38  1  0  0  0
 35 36  1  0  0  0
 36 37  1  0  0  0
 36 39  1  0  0  0
 37 38  1  0  0  0
 38 33  1  0  0  0
 39 40  1  0  0  0
 39 41  1  0  0  0
 40 46  2  0  0  0
 41 42  2  0  0  0
 41 43  1  0  0  0
 43 44  1  0  0  0
 44 45  2  0  0  0
 44 46  1  0  0  0
  3  4  1  0  0  0
 31 32  1  0  0  0
 22 26  1  0  0  0
 22 27  1  0  0  0
 11 14  1  0  0  0
 13 15  1  0  0  0
 48 50  1  0  0  0
 43 47  1  0  0  0
M  END
> <minimizedAffinity>
-9.55411

$$$$
1JN4_139_A_901


 50 54  0  0  0  0  0  0  0  0999 V2000
   36.7947   -2.6324   23.2213 P   0  0  0  0  0  0  0  0  0  0  0  0
   35.5899   -1.9951   22.5278 O   0  0  0  0  0  0  0  0  0  0  0  0
   36.4246   -3.5399   24.3602 O   0  0  0  0  0  0  0  0  0  0  0  0
   35.8692   -4.2633   24.0299 H   0  0  0  0  0  0  0  0  0  0  0  0
   37.7228   -3.4515   22.2066 O   0  0  0  0  0  0  0  0  0  0  0  0
   37.2679   -4.6774   21.6247 C   0  0  0  0  0  0  0  0  0  0  0  0
   38.2469   -5.1713   20.5768 C   0  0  0  0  0  0  0  0  0  0  0  0
   37.5920   -5.2208   19.2876 O   0  0  0  0  0  0  0  0  0  0  0  0
   38.5834   -5.1739   18.2807 C   0  0  0  0  0  0  0  0  0  0  0  0
   39.9054   -4.7032   18.9074 C   0  0  0  0  0  0  0  0  0  0  0  0
   40.8696   -5.7496   18.8991 O   0  0  0  0  0  0  0  0  0  0  0  0
   39.4702   -4.2952   20.3191 C   0  0  0  0  0  0  0  0  0  0  0  0
   40.5484   -4.4382   21.2723 O   0  0  0  0  0  0  0  0  0  0  0  0
   40.5103   -6.5240   19.3596 H   0  0  0  0  0  0  0  0  0  0  0  0
   40.8645   -5.3552   21.2677 H   0  0  0  0  0  0  0  0  0  0  0  0
   38.0659   -4.4960   17.0815 N   0  0  0  0  0  0  0  0  0  0  0  0
   37.0888   -4.8812   16.1818 C   0  0  0  0  0  0  0  0  0  0  0  0
   36.3738   -6.0357   16.1634 N   0  0  0  0  0  0  0  0  0  0  0  0
   35.5061   -6.0500   15.1281 C   0  0  0  0  0  0  0  0  0  0  0  0
   35.2970   -5.1040   14.1850 N   0  0  0  0  0  0  0  0  0  0  0  0
   36.0217   -3.9513   14.2477 C   0  0  0  0  0  0  0  0  0  0  0  0
   35.8016   -2.9956   13.3441 N   0  0  0  0  0  0  0  0  0  0  0  0
   36.9744   -3.8199   15.2847 C   0  0  0  0  0  0  0  0  0  0  0  0
   37.8620   -2.8031   15.6027 N   0  0  0  0  0  0  0  0  0  0  0  0
   38.4901   -3.2557   16.6597 C   0  0  0  0  0  0  0  0  0  0  0  0
   35.1278   -3.1306   12.6391 H   0  0  0  0  0  0  0  0  0  0  0  0
   36.3128   -2.1551   13.3820 H   0  0  0  0  0  0  0  0  0  0  0  0
   37.7012   -1.4787   23.8470 O   0  0  0  0  0  0  0  0  0  0  0  0
   39.0359   -0.7219   23.4079 P   0  0  0  0  0  0  0  0  0  0  0  0
   40.0942   -1.0789   24.4102 O   0  0  0  0  0  0  0  0  0  0  0  0
   39.2468   -1.0639   21.9751 O   0  0  0  0  0  0  0  0  0  0  0  0
   39.4988   -1.9975   21.8992 H   0  0  0  0  0  0  0  0  0  0  0  0
   38.6196    0.8567   23.4220 O   0  0  0  0  0  0  0  0  0  0  0  0
   38.3580    2.4316   21.5657 C   0  0  0  0  0  0  0  0  0  0  0  0
   37.9883    3.7320   22.1037 O   0  0  0  0  0  0  0  0  0  0  0  0
   37.1726    3.5624   23.2541 C   0  0  0  0  0  0  0  0  0  0  0  0
   36.5683    2.1739   23.1283 C   0  0  0  0  0  0  0  0  0  0  0  0
   37.6815    1.3843   22.4604 C   0  0  0  0  0  0  0  0  0  0  0  0
   36.1638    4.6387   23.2953 N   0  0  0  0  0  0  0  0  0  0  0  0
   36.1260    5.6483   22.3352 C   0  0  0  0  0  0  0  0  0  0  0  0
   35.2121    4.5907   24.3227 C   0  0  0  0  0  0  0  0  0  0  0  0
   35.2086    3.7375   25.1926 O   0  0  0  0  0  0  0  0  0  0  0  0
   34.2544    5.5786   24.2722 N   0  0  0  0  0  0  0  0  0  0  0  0
   34.1267    6.5774   23.3171 C   0  0  0  0  0  0  0  0  0  0  0  0
   33.0857    7.2399   23.2865 O   0  0  0  0  0  0  0  0  0  0  0  0
   35.1664    6.5882   22.3090 C   0  0  0  0  0  0  0  0  0  0  0  0
   33.5853    5.5761   24.9945 H   0  0  0  0  0  0  0  0  0  0  0  0
   38.9985    1.7776   19.3231 O   0  0  0  0  0  0  0  0  0  0  0  0
   37.9557    2.3802   20.1094 C   0  0  0  0  0  0  0  0  0  0  0  0
   38.7272    1.7512   18.3922 H   0  0  0  0  0  0  0  0  0  0  0  0
  1  2  2  0  0  0
  1  3  1  0  0  0
  1  5  1  0  0  0
  1 28  1  0  0  0
  5  6  1  0  0  0
 29 30  2  0  0  0
 29 31  1  0  0  0
 29 28  1  0  0  0
 29 33  1  0  0  0
 16 17  1  0  0  0
 16 25  1  0  0  0
 16  9  1  0  0  0
 17 18  1  0  0  0
 17 23  2  0  0  0
 18 19  2  0  0  0
 19 20  1  0  0  0
 20 21  2  0  0  0
 21 22  1  0  0  0
 21 23  1  0  0  0
 23 24  1  0  0  0
 24 25  2  0  0  0
  6  7  1  0  0  0
  7  8  1  0  0  0
  7 12  1  0  0  0
  8  9  1  0  0  0
  9 10  1  0  0  0
 10 11  1  0  0  0
 10 12  1  0  0  0
 12 13  1  0  0  0
 48 49  1  0  0  0
 49 34  1  0  0  0
 34 35  1  0  0  0
 34 38  1  0  0  0
 35 36  1  0  0  0
 36 37  1  0  0  0
 36 39  1  0  0  0
 37 38  1  0  0  0
 38 33  1  0  0  0
 39 40  1  0  0  0
 39 41  1  0  0  0
 40 46  2  0  0  0
 41 42  2  0  0  0
 41 43  1  0  0  0
 43 44  1  0  0  0
 44 45  2  0  0  0
 44 46  1  0  0  0
  3  4  1  0  0  0
 31 32  1  0  0  0
 22 26  1  0  0  0
 22 27  1  0  0  0
 11 14  1  0  0  0
 13 15  1  0  0  0
 48 50  1  0  0  0
 43 47  1  0  0  0
M  END
> <minimizedAffinity>
-9.18503

$$$$
1JN4_139_A_901


 50 54  0  0  0  0  0  0  0  0999 V2000
   35.9914   -4.0281   22.6451 P   0  0  0  0  0  0  0  0  0  0  0  0
   35.2945   -2.7064   22.3196 O   0  0  0  0  0  0  0  0  0  0  0  0
   35.2181   -4.9001   23.5935 O   0  0  0  0  0  0  0  0  0  0  0  0
   34.3577   -5.1191   23.2029 H   0  0  0  0  0  0  0  0  0  0  0  0
   36.3252   -4.8834   21.3340 O   0  0  0  0  0  0  0  0  0  0  0  0
   36.7551   -6.2446   21.4372 C   0  0  0  0  0  0  0  0  0  0  0  0
   37.7742   -6.5699   20.3621 C   0  0  0  0  0  0  0  0  0  0  0  0
   37.2038   -6.3072   19.0588 O   0  0  0  0  0  0  0  0  0  0  0  0
   38.2601   -6.1142   18.1391 C   0  0  0  0  0  0  0  0  0  0  0  0
   39.5604   -5.8699   18.9212 C   0  0  0  0  0  0  0  0  0  0  0  0
   40.4685   -6.9506   18.7424 O   0  0  0  0  0  0  0  0  0  0  0  0
   39.0549   -5.7389   20.3619 C   0  0  0  0  0  0  0  0  0  0  0  0
   40.0595   -6.1461   21.3192 O   0  0  0  0  0  0  0  0  0  0  0  0
   40.0408   -7.7797   19.0081 H   0  0  0  0  0  0  0  0  0  0  0  0
   40.3282   -7.0602   21.1370 H   0  0  0  0  0  0  0  0  0  0  0  0
   37.8576   -5.1693   17.0853 N   0  0  0  0  0  0  0  0  0  0  0  0
   36.9593   -5.3130   16.0437 C   0  0  0  0  0  0  0  0  0  0  0  0
   36.2362   -6.4117   15.7053 N   0  0  0  0  0  0  0  0  0  0  0  0
   35.4629   -6.1671   14.6250 C   0  0  0  0  0  0  0  0  0  0  0  0
   35.3479   -5.0277   13.9061 N   0  0  0  0  0  0  0  0  0  0  0  0
   36.0767   -3.9411   14.2878 C   0  0  0  0  0  0  0  0  0  0  0  0
   35.9474   -2.8009   13.6085 N   0  0  0  0  0  0  0  0  0  0  0  0
   36.9358   -4.0746   15.4033 C   0  0  0  0  0  0  0  0  0  0  0  0
   37.8030   -3.1825   16.0157 N   0  0  0  0  0  0  0  0  0  0  0  0
   38.3307   -3.8795   16.9916 C   0  0  0  0  0  0  0  0  0  0  0  0
   35.3369   -2.7538   12.8376 H   0  0  0  0  0  0  0  0  0  0  0  0
   36.4625   -2.0063   13.8778 H   0  0  0  0  0  0  0  0  0  0  0  0
   37.3831   -3.7167   23.3596 O   0  0  0  0  0  0  0  0  0  0  0  0
   38.7471   -3.0109   22.9261 P   0  0  0  0  0  0  0  0  0  0  0  0
   39.8679   -3.8715   23.4314 O   0  0  0  0  0  0  0  0  0  0  0  0
   38.6285   -2.7557   21.4649 O   0  0  0  0  0  0  0  0  0  0  0  0
   38.6651   -3.5981   20.9855 H   0  0  0  0  0  0  0  0  0  0  0  0
   38.6746   -1.5406   23.6321 O   0  0  0  0  0  0  0  0  0  0  0  0
   39.7098    0.6601   23.3497 C   0  0  0  0  0  0  0  0  0  0  0  0
   38.9932    1.6235   24.1715 O   0  0  0  0  0  0  0  0  0  0  0  0
   37.6150    1.2834   24.2202 C   0  0  0  0  0  0  0  0  0  0  0  0
   37.3585    0.4302   22.9892 C   0  0  0  0  0  0  0  0  0  0  0  0
   38.6616   -0.3363   22.8366 C   0  0  0  0  0  0  0  0  0  0  0  0
   36.8117    2.5208   24.2530 N   0  0  0  0  0  0  0  0  0  0  0  0
   37.2048    3.6710   23.5710 C   0  0  0  0  0  0  0  0  0  0  0  0
   35.6086    2.4892   24.9708 C   0  0  0  0  0  0  0  0  0  0  0  0
   35.2261    1.5141   25.5934 O   0  0  0  0  0  0  0  0  0  0  0  0
   34.8667    3.6474   24.9098 N   0  0  0  0  0  0  0  0  0  0  0  0
   35.1717    4.8050   24.2075 C   0  0  0  0  0  0  0  0  0  0  0  0
   34.2962    5.6640   24.0701 O   0  0  0  0  0  0  0  0  0  0  0  0
   36.4468    4.7791   23.5214 C   0  0  0  0  0  0  0  0  0  0  0  0
   34.0257    3.6552   25.4216 H   0  0  0  0  0  0  0  0  0  0  0  0
   40.3395    2.8282   22.4721 O   0  0  0  0  0  0  0  0  0  0  0  0
   40.4581    1.4090   22.2705 C   0  0  0  0  0  0  0  0  0  0  0  0
   40.8236    3.2956   21.7735 H   0  0  0  0  0  0  0  0  0  0  0  0
  1  2  2  0  0  0
  1  3  1  0  0  0
  1  5  1  0  0  0
  1 28  1  0  0  0
  5  6  1  0  0  0
 29 30  2  0  0  0
 29 31  1  0  0  0
 29 28  1  0  0  0
 29 33  1  0  0  0
 16 17  1  0  0  0
 16 25  1  0  0  0
 16  9  1  0  0  0
 17 18  1  0  0  0
 17 23  2  0  0  0
 18 19  2  0  0  0
 19 20  1  0  0  0
 20 21  2  0  0  0
 21 22  1  0  0  0
 21 23  1  0  0  0
 23 24  1  0  0  0
 24 25  2  0  0  0
  6  7  1  0  0  0
  7  8  1  0  0  0
  7 12  1  0  0  0
  8  9  1  0  0  0
  9 10  1  0  0  0
 10 11  1  0  0  0
 10 12  1  0  0  0
 12 13  1  0  0  0
 48 49  1  0  0  0
 49 34  1  0  0  0
 34 35  1  0  0  0
 34 38  1  0  0  0
 35 36  1  0  0  0
 36 37  1  0  0  0
 36 39  1  0  0  0
 37 38  1  0  0  0
 38 33  1  0  0  0
 39 40  1  0  0  0
 39 41  1  0  0  0
 40 46  2  0  0  0
 41 42  2  0  0  0
 41 43  1  0  0  0
 43 44  1  0  0  0
 44 45  2  0  0  0
 44 46  1  0  0  0
  3  4  1  0  0  0
 31 32  1  0  0  0
 22 26  1  0  0  0
 22 27  1  0  0  0
 11 14  1  0  0  0
 13 15  1  0  0  0
 48 50  1  0  0  0
 43 47  1  0  0  0
M  END
> <minimizedAffinity>
-9.11906

$$$$
1JN4_139_A_901


 50 54  0  0  0  0  0  0  0  0999 V2000
   36.8381   -1.0289   23.0622 P   0  0  0  0  0  0  0  0  0  0  0  0
   36.7347   -0.7055   24.5532 O   0  0  0  0  0  0  0  0  0  0  0  0
   35.5815   -1.6154   22.4836 O   0  0  0  0  0  0  0  0  0  0  0  0
   34.8519   -0.9850   22.5895 H   0  0  0  0  0  0  0  0  0  0  0  0
   37.2479    0.2464   22.1860 O   0  0  0  0  0  0  0  0  0  0  0  0
   38.6006    0.7129   22.1596 C   0  0  0  0  0  0  0  0  0  0  0  0
   38.6550    2.1853   21.7995 C   0  0  0  0  0  0  0  0  0  0  0  0
   37.3233    2.7475   21.8578 O   0  0  0  0  0  0  0  0  0  0  0  0
   37.4357    4.1460   22.0320 C   0  0  0  0  0  0  0  0  0  0  0  0
   38.8691    4.4769   22.4772 C   0  0  0  0  0  0  0  0  0  0  0  0
   39.5581    5.2019   21.4651 O   0  0  0  0  0  0  0  0  0  0  0  0
   39.4608    3.0864   22.7318 C   0  0  0  0  0  0  0  0  0  0  0  0
   40.8924    3.0699   22.5274 O   0  0  0  0  0  0  0  0  0  0  0  0
   39.5476    4.6934   20.6391 H   0  0  0  0  0  0  0  0  0  0  0  0
   41.0936    3.3628   21.6248 H   0  0  0  0  0  0  0  0  0  0  0  0
   36.2967    4.6601   22.8089 N   0  0  0  0  0  0  0  0  0  0  0  0
   35.5358    5.8026   22.6408 C   0  0  0  0  0  0  0  0  0  0  0  0
   35.6857    6.7808   21.7105 N   0  0  0  0  0  0  0  0  0  0  0  0
   34.7458    7.7393   21.8619 C   0  0  0  0  0  0  0  0  0  0  0  0
   33.7512    7.8138   22.7748 N   0  0  0  0  0  0  0  0  0  0  0  0
   33.6225    6.8036   23.6807 C   0  0  0  0  0  0  0  0  0  0  0  0
   32.6254    6.8474   24.5651 N   0  0  0  0  0  0  0  0  0  0  0  0
   34.5565    5.7428   23.6316 C   0  0  0  0  0  0  0  0  0  0  0  0
   34.7047    4.6033   24.4079 N   0  0  0  0  0  0  0  0  0  0  0  0
   35.7507    4.0071   23.8913 C   0  0  0  0  0  0  0  0  0  0  0  0
   31.9982    7.6062   24.5627 H   0  0  0  0  0  0  0  0  0  0  0  0
   32.5165    6.1208   25.2205 H   0  0  0  0  0  0  0  0  0  0  0  0
   37.9800   -2.1220   22.8480 O   0  0  0  0  0  0  0  0  0  0  0  0
   38.5053   -3.3878   23.6657 P   0  0  0  0  0  0  0  0  0  0  0  0
   39.9336   -3.1118   24.0342 O   0  0  0  0  0  0  0  0  0  0  0  0
   37.5077   -3.6193   24.7454 O   0  0  0  0  0  0  0  0  0  0  0  0
   37.5677   -2.9056   25.3995 H   0  0  0  0  0  0  0  0  0  0  0  0
   38.3209   -4.6346   22.6279 O   0  0  0  0  0  0  0  0  0  0  0  0
   36.2203   -5.8834   22.7783 C   0  0  0  0  0  0  0  0  0  0  0  0
   36.3943   -7.1723   22.1260 O   0  0  0  0  0  0  0  0  0  0  0  0
   37.2771   -7.0373   21.0215 C   0  0  0  0  0  0  0  0  0  0  0  0
   37.2308   -5.5683   20.6356 C   0  0  0  0  0  0  0  0  0  0  0  0
   37.0556   -4.8760   21.9768 C   0  0  0  0  0  0  0  0  0  0  0  0
   36.8408   -7.9411   19.9396 N   0  0  0  0  0  0  0  0  0  0  0  0
   36.3438   -7.4557   18.7315 C   0  0  0  0  0  0  0  0  0  0  0  0
   36.9787   -9.3187   20.1561 C   0  0  0  0  0  0  0  0  0  0  0  0
   37.3957   -9.7942   21.1976 O   0  0  0  0  0  0  0  0  0  0  0  0
   36.6221  -10.1118   19.0886 N   0  0  0  0  0  0  0  0  0  0  0  0
   36.1736   -9.6934   17.8436 C   0  0  0  0  0  0  0  0  0  0  0  0
   36.1169  -10.5166   16.9257 O   0  0  0  0  0  0  0  0  0  0  0  0
   36.0196   -8.2601   17.7054 C   0  0  0  0  0  0  0  0  0  0  0  0
   36.6932  -11.0844   19.2235 H   0  0  0  0  0  0  0  0  0  0  0  0
   34.5043   -4.1946   22.5130 O   0  0  0  0  0  0  0  0  0  0  0  0
   34.7423   -5.5732   22.8467 C   0  0  0  0  0  0  0  0  0  0  0  0
   33.5532   -4.0099   22.5608 H   0  0  0  0  0  0  0  0  0  0  0  0
  1  2  2  0  0  0
  1  3  1  0  0  0
  1  5  1  0  0  0
  1 28  1  0  0  0
  5  6  1  0  0  0
 29 30  2  0  0  0
 29 31  1  0  0  0
 29 28  1  0  0  0
 29 33  1  0  0  0
 16 17  1  0  0  0
 16 25  1  0  0  0
 16  9  1  0  0  0
 17 18  1  0  0  0
 17 23  2  0  0  0
 18 19  2  0  0  0
 19 20  1  0  0  0
 20 21  2  0  0  0
 21 22  1  0  0  0
 21 23  1  0  0  0
 23 24  1  0  0  0
 24 25  2  0  0  0
  6  7  1  0  0  0
  7  8  1  0  0  0
  7 12  1  0  0  0
  8  9  1  0  0  0
  9 10  1  0  0  0
 10 11  1  0  0  0
 10 12  1  0  0  0
 12 13  1  0  0  0
 48 49  1  0  0  0
 49 34  1  0  0  0
 34 35  1  0  0  0
 34 38  1  0  0  0
 35 36  1  0  0  0
 36 37  1  0  0  0
 36 39  1  0  0  0
 37 38  1  0  0  0
 38 33  1  0  0  0
 39 40  1  0  0  0
 39 41  1  0  0  0
 40 46  2  0  0  0
 41 42  2  0  0  0
 41 43  1  0  0  0
 43 44  1  0  0  0
 44 45  2  0  0  0
 44 46  1  0  0  0
  3  4  1  0  0  0
 31 32  1  0  0  0
 22 26  1  0  0  0
 22 27  1  0  0  0
 11 14  1  0  0  0
 13 15  1  0  0  0
 48 50  1  0  0  0
 43 47  1  0  0  0
M  END
> <minimizedAffinity>
-8.96616

$$$$
1JN4_139_A_901


 50 54  0  0  0  0  0  0  0  0999 V2000
   39.2047   -1.0163   22.9817 P   0  0  0  0  0  0  0  0  0  0  0  0
   40.2166   -1.6037   21.9972 O   0  0  0  0  0  0  0  0  0  0  0  0
   39.7305   -0.8900   24.3836 O   0  0  0  0  0  0  0  0  0  0  0  0
   40.5050   -0.3060   24.3871 H   0  0  0  0  0  0  0  0  0  0  0  0
   38.6594    0.4153   22.5181 O   0  0  0  0  0  0  0  0  0  0  0  0
   38.9559    1.5926   23.2760 C   0  0  0  0  0  0  0  0  0  0  0  0
   37.7182    2.0964   23.9936 C   0  0  0  0  0  0  0  0  0  0  0  0
   37.6139    3.5301   23.8305 O   0  0  0  0  0  0  0  0  0  0  0  0
   36.2660    3.9060   24.0326 C   0  0  0  0  0  0  0  0  0  0  0  0
   35.3839    2.6497   23.9574 C   0  0  0  0  0  0  0  0  0  0  0  0
   34.8134    2.3558   25.2273 O   0  0  0  0  0  0  0  0  0  0  0  0
   36.3754    1.5830   23.4802 C   0  0  0  0  0  0  0  0  0  0  0  0
   35.9996    0.2630   23.9361 O   0  0  0  0  0  0  0  0  0  0  0  0
   35.5201    2.2588   25.8846 H   0  0  0  0  0  0  0  0  0  0  0  0
   35.9399    0.2601   24.9042 H   0  0  0  0  0  0  0  0  0  0  0  0
   35.9311    5.0793   23.2100 N   0  0  0  0  0  0  0  0  0  0  0  0
   34.9326    6.0248   23.3563 C   0  0  0  0  0  0  0  0  0  0  0  0
   33.9612    6.0791   24.3040 N   0  0  0  0  0  0  0  0  0  0  0  0
   33.1674    7.1567   24.1208 C   0  0  0  0  0  0  0  0  0  0  0  0
   33.2396    8.1092   23.1639 N   0  0  0  0  0  0  0  0  0  0  0  0
   34.2396    8.0298   22.2411 C   0  0  0  0  0  0  0  0  0  0  0  0
   34.3432    8.9809   21.3121 N   0  0  0  0  0  0  0  0  0  0  0  0
   35.1333    6.9367   22.3207 C   0  0  0  0  0  0  0  0  0  0  0  0
   36.2178    6.5688   21.5387 N   0  0  0  0  0  0  0  0  0  0  0  0
   36.6440    5.4623   22.0960 C   0  0  0  0  0  0  0  0  0  0  0  0
   33.6979    9.7243   21.2946 H   0  0  0  0  0  0  0  0  0  0  0  0
   35.0649    8.9398   20.6439 H   0  0  0  0  0  0  0  0  0  0  0  0
   37.9412   -1.9864   23.0652 O   0  0  0  0  0  0  0  0  0  0  0  0
   37.6987   -3.4951   23.5253 P   0  0  0  0  0  0  0  0  0  0  0  0
   38.7725   -3.8301   24.5187 O   0  0  0  0  0  0  0  0  0  0  0  0
   36.2725   -3.5704   23.9435 O   0  0  0  0  0  0  0  0  0  0  0  0
   36.1510   -3.0757   24.7689 H   0  0  0  0  0  0  0  0  0  0  0  0
   37.7918   -4.3524   22.1391 O   0  0  0  0  0  0  0  0  0  0  0  0
   36.5939   -6.4611   22.4750 C   0  0  0  0  0  0  0  0  0  0  0  0
   37.2037   -7.4842   21.6391 O   0  0  0  0  0  0  0  0  0  0  0  0
   37.6686   -6.9029   20.4294 C   0  0  0  0  0  0  0  0  0  0  0  0
   36.8669   -5.6241   20.2532 C   0  0  0  0  0  0  0  0  0  0  0  0
   36.6775   -5.1488   21.6840 C   0  0  0  0  0  0  0  0  0  0  0  0
   37.4842   -7.8664   19.3270 N   0  0  0  0  0  0  0  0  0  0  0  0
   36.2210   -8.3163   18.9472 C   0  0  0  0  0  0  0  0  0  0  0  0
   38.6315   -8.2906   18.6434 C   0  0  0  0  0  0  0  0  0  0  0  0
   39.7585   -7.9372   18.9433 O   0  0  0  0  0  0  0  0  0  0  0  0
   38.3948   -9.1338   17.5811 N   0  0  0  0  0  0  0  0  0  0  0  0
   37.1637   -9.5756   17.1168 C   0  0  0  0  0  0  0  0  0  0  0  0
   37.1102  -10.1389   16.0199 O   0  0  0  0  0  0  0  0  0  0  0  0
   36.0269   -9.1282   17.8945 C   0  0  0  0  0  0  0  0  0  0  0  0
   39.1874   -9.4598   17.0965 H   0  0  0  0  0  0  0  0  0  0  0  0
   34.3996   -5.7713   23.2340 O   0  0  0  0  0  0  0  0  0  0  0  0
   35.1923   -6.9017   22.8311 C   0  0  0  0  0  0  0  0  0  0  0  0
   33.5040   -6.0682   23.4592 H   0  0  0  0  0  0  0  0  0  0  0  0
  1  2  2  0  0  0
  1  3  1  0  0  0
  1  5  1  0  0  0
  1 28  1  0  0  0
  5  6  1  0  0  0
 29 30  2  0  0  0
 29 31  1  0  0  0
 29 28  1  0  0  0
 29 33  1  0  0  0
 16 17  1  0  0  0
 16 25  1  0  0  0
 16  9  1  0  0  0
 17 18  1  0  0  0
 17 23  2  0  0  0
 18 19  2  0  0  0
 19 20  1  0  0  0
 20 21  2  0  0  0
 21 22  1  0  0  0
 21 23  1  0  0  0
 23 24  1  0  0  0
 24 25  2  0  0  0
  6  7  1  0  0  0
  7  8  1  0  0  0
  7 12  1  0  0  0
  8  9  1  0  0  0
  9 10  1  0  0  0
 10 11  1  0  0  0
 10 12  1  0  0  0
 12 13  1  0  0  0
 48 49  1  0  0  0
 49 34  1  0  0  0
 34 35  1  0  0  0
 34 38  1  0  0  0
 35 36  1  0  0  0
 36 37  1  0  0  0
 36 39  1  0  0  0
 37 38  1  0  0  0
 38 33  1  0  0  0
 39 40  1  0  0  0
 39 41  1  0  0  0
 40 46  2  0  0  0
 41 42  2  0  0  0
 41 43  1  0  0  0
 43 44  1  0  0  0
 44 45  2  0  0  0
 44 46  1  0  0  0
  3  4  1  0  0  0
 31 32  1  0  0  0
 22 26  1  0  0  0
 22 27  1  0  0  0
 11 14  1  0  0  0
 13 15  1  0  0  0
 48 50  1  0  0  0
 43 47  1  0  0  0
M  END
> <minimizedAffinity>
-8.67071

$$$$
1JN4_139_A_901


 50 54  0  0  0  0  0  0  0  0999 V2000
   38.9194   -0.1818   23.9867 P   0  0  0  0  0  0  0  0  0  0  0  0
   40.1646   -0.0927   24.8698 O   0  0  0  0  0  0  0  0  0  0  0  0
   37.7144    0.4982   24.5728 O   0  0  0  0  0  0  0  0  0  0  0  0
   37.9060    1.4402   24.7027 H   0  0  0  0  0  0  0  0  0  0  0  0
   39.1658    0.4081   22.5193 O   0  0  0  0  0  0  0  0  0  0  0  0
   38.0874    0.9714   21.7657 C   0  0  0  0  0  0  0  0  0  0  0  0
   38.2790    2.4652   21.5864 C   0  0  0  0  0  0  0  0  0  0  0  0
   37.0003    3.1336   21.6925 O   0  0  0  0  0  0  0  0  0  0  0  0
   37.2299    4.4859   22.0354 C   0  0  0  0  0  0  0  0  0  0  0  0
   38.6749    4.6318   22.5381 C   0  0  0  0  0  0  0  0  0  0  0  0
   39.4498    5.4072   21.6308 O   0  0  0  0  0  0  0  0  0  0  0  0
   39.1365    3.1736   22.6321 C   0  0  0  0  0  0  0  0  0  0  0  0
   40.5660    3.0532   22.4481 O   0  0  0  0  0  0  0  0  0  0  0  0
   39.4158    5.0033   20.7496 H   0  0  0  0  0  0  0  0  0  0  0  0
   40.8146    3.4319   21.5903 H   0  0  0  0  0  0  0  0  0  0  0  0
   36.1207    5.0041   22.8520 N   0  0  0  0  0  0  0  0  0  0  0  0
   35.3322    6.1283   22.6880 C   0  0  0  0  0  0  0  0  0  0  0  0
   35.4191    7.0805   21.7234 N   0  0  0  0  0  0  0  0  0  0  0  0
   34.4706    8.0273   21.8926 C   0  0  0  0  0  0  0  0  0  0  0  0
   33.5202    8.1127   22.8506 N   0  0  0  0  0  0  0  0  0  0  0  0
   33.4538    7.1282   23.7908 C   0  0  0  0  0  0  0  0  0  0  0  0
   32.5002    7.1819   24.7214 N   0  0  0  0  0  0  0  0  0  0  0  0
   34.4033    6.0820   23.7269 C   0  0  0  0  0  0  0  0  0  0  0  0
   34.6095    4.9690   24.5280 N   0  0  0  0  0  0  0  0  0  0  0  0
   35.6398    4.3749   23.9783 C   0  0  0  0  0  0  0  0  0  0  0  0
   31.8600    7.9299   24.7275 H   0  0  0  0  0  0  0  0  0  0  0  0
   32.4363    6.4737   25.4022 H   0  0  0  0  0  0  0  0  0  0  0  0
   38.5219   -1.7161   23.8064 O   0  0  0  0  0  0  0  0  0  0  0  0
   37.1575   -2.5163   23.5946 P   0  0  0  0  0  0  0  0  0  0  0  0
   36.9387   -3.3466   24.8254 O   0  0  0  0  0  0  0  0  0  0  0  0
   36.1413   -1.4977   23.2148 O   0  0  0  0  0  0  0  0  0  0  0  0
   35.9413   -0.9388   23.9819 H   0  0  0  0  0  0  0  0  0  0  0  0
   37.4189   -3.3953   22.2439 O   0  0  0  0  0  0  0  0  0  0  0  0
   39.0478   -5.0922   21.5645 C   0  0  0  0  0  0  0  0  0  0  0  0
   38.6546   -5.6266   20.2695 O   0  0  0  0  0  0  0  0  0  0  0  0
   37.2379   -5.6574   20.1718 C   0  0  0  0  0  0  0  0  0  0  0  0
   36.7273   -5.6625   21.6030 C   0  0  0  0  0  0  0  0  0  0  0  0
   37.7477   -4.7983   22.3248 C   0  0  0  0  0  0  0  0  0  0  0  0
   36.8315   -6.8480   19.4006 N   0  0  0  0  0  0  0  0  0  0  0  0
   36.5160   -8.0547   20.0227 C   0  0  0  0  0  0  0  0  0  0  0  0
   36.7371   -6.7130   18.0091 C   0  0  0  0  0  0  0  0  0  0  0  0
   37.0130   -5.6849   17.4160 O   0  0  0  0  0  0  0  0  0  0  0  0
   36.2869   -7.8332   17.3472 N   0  0  0  0  0  0  0  0  0  0  0  0
   35.9049   -9.0440   17.9079 C   0  0  0  0  0  0  0  0  0  0  0  0
   35.3102   -9.8636   17.2022 O   0  0  0  0  0  0  0  0  0  0  0  0
   36.0652   -9.1235   19.3450 C   0  0  0  0  0  0  0  0  0  0  0  0
   36.2297   -7.7682   16.3665 H   0  0  0  0  0  0  0  0  0  0  0  0
   40.0497   -5.8168   23.6474 O   0  0  0  0  0  0  0  0  0  0  0  0
   39.9679   -6.0856   22.2368 C   0  0  0  0  0  0  0  0  0  0  0  0
   40.6425   -6.4608   24.0654 H   0  0  0  0  0  0  0  0  0  0  0  0
  1  2  2  0  0  0
  1  3  1  0  0  0
  1  5  1  0  0  0
  1 28  1  0  0  0
  5  6  1  0  0  0
 29 30  2  0  0  0
 29 31  1  0  0  0
 29 28  1  0  0  0
 29 33  1  0  0  0
 16 17  1  0  0  0
 16 25  1  0  0  0
 16  9  1  0  0  0
 17 18  1  0  0  0
 17 23  2  0  0  0
 18 19  2  0  0  0
 19 20  1  0  0  0
 20 21  2  0  0  0
 21 22  1  0  0  0
 21 23  1  0  0  0
 23 24  1  0  0  0
 24 25  2  0  0  0
  6  7  1  0  0  0
  7  8  1  0  0  0
  7 12  1  0  0  0
  8  9  1  0  0  0
  9 10  1  0  0  0
 10 11  1  0  0  0
 10 12  1  0  0  0
 12 13  1  0  0  0
 48 49  1  0  0  0
 49 34  1  0  0  0
 34 35  1  0  0  0
 34 38  1  0  0  0
 35 36  1  0  0  0
 36 37  1  0  0  0
 36 39  1  0  0  0
 37 38  1  0  0  0
 38 33  1  0  0  0
 39 40  1  0  0  0
 39 41  1  0  0  0
 40 46  2  0  0  0
 41 42  2  0  0  0
 41 43  1  0  0  0
 43 44  1  0  0  0
 44 45  2  0  0  0
 44 46  1  0  0  0
  3  4  1  0  0  0
 31 32  1  0  0  0
 22 26  1  0  0  0
 22 27  1  0  0  0
 11 14  1  0  0  0
 13 15  1  0  0  0
 48 50  1  0  0  0
 43 47  1  0  0  0
M  END
> <minimizedAffinity>
-8.62556

$$$$
1JN4_139_A_901


 50 54  0  0  0  0  0  0  0  0999 V2000
   38.1986   -5.2254   22.6726 P   0  0  0  0  0  0  0  0  0  0  0  0
   38.4034   -5.2154   21.1572 O   0  0  0  0  0  0  0  0  0  0  0  0
   36.8981   -5.8440   23.1014 O   0  0  0  0  0  0  0  0  0  0  0  0
   36.8645   -6.7661   22.8022 H   0  0  0  0  0  0  0  0  0  0  0  0
   39.3876   -5.9668   23.4462 O   0  0  0  0  0  0  0  0  0  0  0  0
   40.6178   -5.2890   23.7206 C   0  0  0  0  0  0  0  0  0  0  0  0
   40.7828   -5.0554   25.2101 C   0  0  0  0  0  0  0  0  0  0  0  0
   39.8929   -5.9326   25.9393 O   0  0  0  0  0  0  0  0  0  0  0  0
   40.3940   -6.0866   27.2524 C   0  0  0  0  0  0  0  0  0  0  0  0
   41.8524   -5.6031   27.2868 C   0  0  0  0  0  0  0  0  0  0  0  0
   41.9759   -4.4248   28.0748 O   0  0  0  0  0  0  0  0  0  0  0  0
   42.1541   -5.3703   25.8024 C   0  0  0  0  0  0  0  0  0  0  0  0
   43.1607   -4.3487   25.6161 O   0  0  0  0  0  0  0  0  0  0  0  0
   41.3798   -3.7415   27.7304 H   0  0  0  0  0  0  0  0  0  0  0  0
   42.8662   -3.5246   26.0345 H   0  0  0  0  0  0  0  0  0  0  0  0
   40.0578   -7.4196   27.7774 N   0  0  0  0  0  0  0  0  0  0  0  0
   40.4516   -8.6770   27.3577 C   0  0  0  0  0  0  0  0  0  0  0  0
   41.2385   -8.9996   26.2987 N   0  0  0  0  0  0  0  0  0  0  0  0
   41.4028  -10.3375   26.2089 C   0  0  0  0  0  0  0  0  0  0  0  0
   40.9013  -11.3079   27.0057 N   0  0  0  0  0  0  0  0  0  0  0  0
   40.1306  -10.9431   28.0690 C   0  0  0  0  0  0  0  0  0  0  0  0
   39.6575  -11.8877   28.8828 N   0  0  0  0  0  0  0  0  0  0  0  0
   39.8759   -9.5658   28.2648 C   0  0  0  0  0  0  0  0  0  0  0  0
   39.1316   -8.8886   29.2190 N   0  0  0  0  0  0  0  0  0  0  0  0
   39.2601   -7.6296   28.8799 C   0  0  0  0  0  0  0  0  0  0  0  0
   39.8603  -12.8350   28.7077 H   0  0  0  0  0  0  0  0  0  0  0  0
   39.1054  -11.6377   29.6587 H   0  0  0  0  0  0  0  0  0  0  0  0
   38.1721   -3.7205   23.2009 O   0  0  0  0  0  0  0  0  0  0  0  0
   37.0462   -2.7307   23.7478 P   0  0  0  0  0  0  0  0  0  0  0  0
   36.0277   -2.5768   22.6564 O   0  0  0  0  0  0  0  0  0  0  0  0
   36.6233   -3.2805   25.0644 O   0  0  0  0  0  0  0  0  0  0  0  0
   36.1313   -4.1051   24.9274 H   0  0  0  0  0  0  0  0  0  0  0  0
   37.8585   -1.3566   24.0904 O   0  0  0  0  0  0  0  0  0  0  0  0
   39.1895    0.5883   23.4269 C   0  0  0  0  0  0  0  0  0  0  0  0
   38.6629    1.7670   24.0980 O   0  0  0  0  0  0  0  0  0  0  0  0
   37.2538    1.6528   24.2359 C   0  0  0  0  0  0  0  0  0  0  0  0
   36.8151    0.6655   23.1674 C   0  0  0  0  0  0  0  0  0  0  0  0
   37.9828   -0.3050   23.1096 C   0  0  0  0  0  0  0  0  0  0  0  0
   36.6429    2.9878   24.0862 N   0  0  0  0  0  0  0  0  0  0  0  0
   37.2358    3.9855   23.3145 C   0  0  0  0  0  0  0  0  0  0  0  0
   35.4146    3.2093   24.7233 C   0  0  0  0  0  0  0  0  0  0  0  0
   34.8611    2.3755   25.4184 O   0  0  0  0  0  0  0  0  0  0  0  0
   34.8571    4.4469   24.4929 N   0  0  0  0  0  0  0  0  0  0  0  0
   35.3651    5.4622   23.6946 C   0  0  0  0  0  0  0  0  0  0  0  0
   34.6349    6.4160   23.4109 O   0  0  0  0  0  0  0  0  0  0  0  0
   36.6543    5.1774   23.0996 C   0  0  0  0  0  0  0  0  0  0  0  0
   34.0024    4.6324   24.9451 H   0  0  0  0  0  0  0  0  0  0  0  0
   40.9146    0.0103   21.8278 O   0  0  0  0  0  0  0  0  0  0  0  0
   39.9854    1.0350   22.2217 C   0  0  0  0  0  0  0  0  0  0  0  0
   41.4177    0.3100   21.0545 H   0  0  0  0  0  0  0  0  0  0  0  0
  1  2  2  0  0  0
  1  3  1  0  0  0
  1  5  1  0  0  0
  1 28  1  0  0  0
  5  6  1  0  0  0
 29 30  2  0  0  0
 29 31  1  0  0  0
 29 28  1  0  0  0
 29 33  1  0  0  0
 16 17  1  0  0  0
 16 25  1  0  0  0
 16  9  1  0  0  0
 17 18  1  0  0  0
 17 23  2  0  0  0
 18 19  2  0  0  0
 19 20  1  0  0  0
 20 21  2  0  0  0
 21 22  1  0  0  0
 21 23  1  0  0  0
 23 24  1  0  0  0
 24 25  2  0  0  0
  6  7  1  0  0  0
  7  8  1  0  0  0
  7 12  1  0  0  0
  8  9  1  0  0  0
  9 10  1  0  0  0
 10 11  1  0  0  0
 10 12  1  0  0  0
 12 13  1  0  0  0
 48 49  1  0  0  0
 49 34  1  0  0  0
 34 35  1  0  0  0
 34 38  1  0  0  0
 35 36  1  0  0  0
 36 37  1  0  0  0
 36 39  1  0  0  0
 37 38  1  0  0  0
 38 33  1  0  0  0
 39 40  1  0  0  0
 39 41  1  0  0  0
 40 46  2  0  0  0
 41 42  2  0  0  0
 41 43  1  0  0  0
 43 44  1  0  0  0
 44 45  2  0  0  0
 44 46  1  0  0  0
  3  4  1  0  0  0
 31 32  1  0  0  0
 22 26  1  0  0  0
 22 27  1  0  0  0
 11 14  1  0  0  0
 13 15  1  0  0  0
 48 50  1  0  0  0
 43 47  1  0  0  0
M  END
> <minimizedAffinity>
-8.61175

$$$$
1JN4_139_A_901


 50 54  0  0  0  0  0  0  0  0999 V2000
   41.3336   -3.2488   23.2170 P   0  0  0  0  0  0  0  0  0  0  0  0
   42.6342   -3.8177   22.6487 O   0  0  0  0  0  0  0  0  0  0  0  0
   41.2907   -3.2259   24.7188 O   0  0  0  0  0  0  0  0  0  0  0  0
   42.0147   -2.6746   25.0546 H   0  0  0  0  0  0  0  0  0  0  0  0
   41.0261   -1.7718   22.6824 O   0  0  0  0  0  0  0  0  0  0  0  0
   40.3819   -0.8083   23.5220 C   0  0  0  0  0  0  0  0  0  0  0  0
   38.9049   -1.1219   23.6658 C   0  0  0  0  0  0  0  0  0  0  0  0
   38.2661   -0.0927   24.4568 O   0  0  0  0  0  0  0  0  0  0  0  0
   36.8829   -0.0980   24.1642 C   0  0  0  0  0  0  0  0  0  0  0  0
   36.6524   -0.8959   22.8711 C   0  0  0  0  0  0  0  0  0  0  0  0
   35.9387   -2.0974   23.1388 O   0  0  0  0  0  0  0  0  0  0  0  0
   38.0830   -1.1410   22.3794 C   0  0  0  0  0  0  0  0  0  0  0  0
   38.1788   -2.3549   21.5992 O   0  0  0  0  0  0  0  0  0  0  0  0
   36.4197   -2.6185   23.8006 H   0  0  0  0  0  0  0  0  0  0  0  0
   37.8705   -3.1058   22.1302 H   0  0  0  0  0  0  0  0  0  0  0  0
   36.3260    1.2582   24.2902 N   0  0  0  0  0  0  0  0  0  0  0  0
   36.5626    2.4002   23.5470 C   0  0  0  0  0  0  0  0  0  0  0  0
   37.4254    2.5628   22.5108 N   0  0  0  0  0  0  0  0  0  0  0  0
   37.3757    3.8260   22.0346 C   0  0  0  0  0  0  0  0  0  0  0  0
   36.6128    4.8603   22.4546 N   0  0  0  0  0  0  0  0  0  0  0  0
   35.7461    4.6527   23.4859 C   0  0  0  0  0  0  0  0  0  0  0  0
   34.9633    5.6545   23.8881 N   0  0  0  0  0  0  0  0  0  0  0  0
   35.7121    3.3690   24.0784 C   0  0  0  0  0  0  0  0  0  0  0  0
   34.9721    2.8555   25.1328 N   0  0  0  0  0  0  0  0  0  0  0  0
   35.3802    1.6140   25.2256 C   0  0  0  0  0  0  0  0  0  0  0  0
   35.0210    6.5323   23.4461 H   0  0  0  0  0  0  0  0  0  0  0  0
   34.3276    5.5164   24.6271 H   0  0  0  0  0  0  0  0  0  0  0  0
   40.1183   -4.1707   22.7503 O   0  0  0  0  0  0  0  0  0  0  0  0
   39.1888   -5.2620   23.4516 P   0  0  0  0  0  0  0  0  0  0  0  0
   39.9439   -5.7865   24.6377 O   0  0  0  0  0  0  0  0  0  0  0  0
   37.8717   -4.6021   23.6623 O   0  0  0  0  0  0  0  0  0  0  0  0
   37.9565   -3.9234   24.3501 H   0  0  0  0  0  0  0  0  0  0  0  0
   38.9360   -6.3761   22.2853 O   0  0  0  0  0  0  0  0  0  0  0  0
   37.5128   -7.8832   20.9823 C   0  0  0  0  0  0  0  0  0  0  0  0
   37.7792   -7.6721   19.5675 O   0  0  0  0  0  0  0  0  0  0  0  0
   38.0828   -6.3043   19.3340 C   0  0  0  0  0  0  0  0  0  0  0  0
   37.4719   -5.5432   20.4987 C   0  0  0  0  0  0  0  0  0  0  0  0
   37.6435   -6.5112   21.6572 C   0  0  0  0  0  0  0  0  0  0  0  0
   37.5375   -5.9045   18.0224 N   0  0  0  0  0  0  0  0  0  0  0  0
   36.5062   -6.6125   17.4079 C   0  0  0  0  0  0  0  0  0  0  0  0
   38.0723   -4.7549   17.4256 C   0  0  0  0  0  0  0  0  0  0  0  0
   38.9818   -4.1081   17.9148 O   0  0  0  0  0  0  0  0  0  0  0  0
   37.4794   -4.3889   16.2381 N   0  0  0  0  0  0  0  0  0  0  0  0
   36.4169   -5.0148   15.6012 C   0  0  0  0  0  0  0  0  0  0  0  0
   35.8570   -4.4317   14.6686 O   0  0  0  0  0  0  0  0  0  0  0  0
   35.9415   -6.2164   16.2550 C   0  0  0  0  0  0  0  0  0  0  0  0
   37.8506   -3.5944   15.7908 H   0  0  0  0  0  0  0  0  0  0  0  0
   35.3826   -7.8663   22.1352 O   0  0  0  0  0  0  0  0  0  0  0  0
   36.1570   -8.5365   21.1254 C   0  0  0  0  0  0  0  0  0  0  0  0
   34.5164   -8.2953   22.2162 H   0  0  0  0  0  0  0  0  0  0  0  0
  1  2  2  0  0  0
  1  3  1  0  0  0
  1  5  1  0  0  0
  1 28  1  0  0  0
  5  6  1  0  0  0
 29 30  2  0  0  0
 29 31  1  0  0  0
 29 28  1  0  0  0
 29 33  1  0  0  0
 16 17  1  0  0  0
 16 25  1  0  0  0
 16  9  1  0  0  0
 17 18  1  0  0  0
 17 23  2  0  0  0
 18 19  2  0  0  0
 19 20  1  0  0  0
 20 21  2  0  0  0
 21 22  1  0  0  0
 21 23  1  0  0  0
 23 24  1  0  0  0
 24 25  2  0  0  0
  6  7  1  0  0  0
  7  8  1  0  0  0
  7 12  1  0  0  0
  8  9  1  0  0  0
  9 10  1  0  0  0
 10 11  1  0  0  0
 10 12  1  0  0  0
 12 13  1  0  0  0
 48 49  1  0  0  0
 49 34  1  0  0  0
 34 35  1  0  0  0
 34 38  1  0  0  0
 35 36  1  0  0  0
 36 37  1  0  0  0
 36 39  1  0  0  0
 37 38  1  0  0  0
 38 33  1  0  0  0
 39 40  1  0  0  0
 39 41  1  0  0  0
 40 46  2  0  0  0
 41 42  2  0  0  0
 41 43  1  0  0  0
 43 44  1  0  0  0
 44 45  2  0  0  0
 44 46  1  0  0  0
  3  4  1  0  0  0
 31 32  1  0  0  0
 22 26  1  0  0  0
 22 27  1  0  0  0
 11 14  1  0  0  0
 13 15  1  0  0  0
 48 50  1  0  0  0
 43 47  1  0  0  0
M  END
> <minimizedAffinity>
-8.52057

$$$$
1JN4_139_A_901


 50 54  0  0  0  0  0  0  0  0999 V2000
   37.9213   -1.4882   23.3099 P   0  0  0  0  0  0  0  0  0  0  0  0
   39.3411   -1.3078   23.8485 O   0  0  0  0  0  0  0  0  0  0  0  0
   36.9219   -1.8773   24.3622 O   0  0  0  0  0  0  0  0  0  0  0  0
   36.8839   -1.1873   25.0429 H   0  0  0  0  0  0  0  0  0  0  0  0
   37.3800   -0.1815   22.5607 O   0  0  0  0  0  0  0  0  0  0  0  0
   38.0614    1.0707   22.6874 C   0  0  0  0  0  0  0  0  0  0  0  0
   37.3874    1.9473   23.7256 C   0  0  0  0  0  0  0  0  0  0  0  0
   37.5159    3.3366   23.3433 O   0  0  0  0  0  0  0  0  0  0  0  0
   36.4958    4.0737   23.9876 C   0  0  0  0  0  0  0  0  0  0  0  0
   35.4338    3.0955   24.5141 C   0  0  0  0  0  0  0  0  0  0  0  0
   35.4231    3.0785   25.9368 O   0  0  0  0  0  0  0  0  0  0  0  0
   35.8815    1.7654   23.8983 C   0  0  0  0  0  0  0  0  0  0  0  0
   35.4813    0.6389   24.7122 O   0  0  0  0  0  0  0  0  0  0  0  0
   36.3087    2.8563   26.2642 H   0  0  0  0  0  0  0  0  0  0  0  0
   35.8475    0.7385   25.6048 H   0  0  0  0  0  0  0  0  0  0  0  0
   36.0834    5.2154   23.1559 N   0  0  0  0  0  0  0  0  0  0  0  0
   35.0458    6.1157   23.3151 C   0  0  0  0  0  0  0  0  0  0  0  0
   34.0995    6.1413   24.2890 N   0  0  0  0  0  0  0  0  0  0  0  0
   33.2510    7.1772   24.1108 C   0  0  0  0  0  0  0  0  0  0  0  0
   33.2518    8.1151   23.1368 N   0  0  0  0  0  0  0  0  0  0  0  0
   34.2285    8.0662   22.1874 C   0  0  0  0  0  0  0  0  0  0  0  0
   34.2614    9.0047   21.2405 N   0  0  0  0  0  0  0  0  0  0  0  0
   35.1747    7.0176   22.2595 C   0  0  0  0  0  0  0  0  0  0  0  0
   36.2533    6.6870   21.4530 N   0  0  0  0  0  0  0  0  0  0  0  0
   36.7464    5.6116   22.0159 C   0  0  0  0  0  0  0  0  0  0  0  0
   33.5816    9.7166   21.2292 H   0  0  0  0  0  0  0  0  0  0  0  0
   34.9656    8.9855   20.5528 H   0  0  0  0  0  0  0  0  0  0  0  0
   37.9213   -2.6685   22.2369 O   0  0  0  0  0  0  0  0  0  0  0  0
   37.5698   -4.2250   22.2637 P   0  0  0  0  0  0  0  0  0  0  0  0
   37.9038   -4.7279   23.6376 O   0  0  0  0  0  0  0  0  0  0  0  0
   36.1706   -4.3363   21.7692 O   0  0  0  0  0  0  0  0  0  0  0  0
   35.5635   -3.9712   22.4318 H   0  0  0  0  0  0  0  0  0  0  0  0
   38.5006   -4.8622   21.0835 O   0  0  0  0  0  0  0  0  0  0  0  0
   39.2815   -6.7272   19.7028 C   0  0  0  0  0  0  0  0  0  0  0  0
   39.2842   -6.3089   18.3092 O   0  0  0  0  0  0  0  0  0  0  0  0
   38.2086   -5.4114   18.0742 C   0  0  0  0  0  0  0  0  0  0  0  0
   37.1962   -5.6865   19.1735 C   0  0  0  0  0  0  0  0  0  0  0  0
   38.0784   -6.0374   20.3599 C   0  0  0  0  0  0  0  0  0  0  0  0
   37.6759   -5.6390   16.7170 N   0  0  0  0  0  0  0  0  0  0  0  0
   37.4070   -6.9198   16.2377 C   0  0  0  0  0  0  0  0  0  0  0  0
   37.4120   -4.5095   15.9306 C   0  0  0  0  0  0  0  0  0  0  0  0
   37.6403   -3.3702   16.2976 O   0  0  0  0  0  0  0  0  0  0  0  0
   36.8516   -4.7768   14.7018 N   0  0  0  0  0  0  0  0  0  0  0  0
   36.5088   -6.0192   14.1866 C   0  0  0  0  0  0  0  0  0  0  0  0
   35.8079   -6.0682   13.1719 O   0  0  0  0  0  0  0  0  0  0  0  0
   36.8453   -7.1416   15.0376 C   0  0  0  0  0  0  0  0  0  0  0  0
   36.6740   -3.9998   14.1239 H   0  0  0  0  0  0  0  0  0  0  0  0
   38.5572   -8.6875   20.9275 O   0  0  0  0  0  0  0  0  0  0  0  0
   39.2545   -8.2379   19.7527 C   0  0  0  0  0  0  0  0  0  0  0  0
   38.5476   -9.6573   20.9465 H   0  0  0  0  0  0  0  0  0  0  0  0
  1  2  2  0  0  0
  1  3  1  0  0  0
  1  5  1  0  0  0
  1 28  1  0  0  0
  5  6  1  0  0  0
 29 30  2  0  0  0
 29 31  1  0  0  0
 29 28  1  0  0  0
 29 33  1  0  0  0
 16 17  1  0  0  0
 16 25  1  0  0  0
 16  9  1  0  0  0
 17 18  1  0  0  0
 17 23  2  0  0  0
 18 19  2  0  0  0
 19 20  1  0  0  0
 20 21  2  0  0  0
 21 22  1  0  0  0
 21 23  1  0  0  0
 23 24  1  0  0  0
 24 25  2  0  0  0
  6  7  1  0  0  0
  7  8  1  0  0  0
  7 12  1  0  0  0
  8  9  1  0  0  0
  9 10  1  0  0  0
 10 11  1  0  0  0
 10 12  1  0  0  0
 12 13  1  0  0  0
 48 49  1  0  0  0
 49 34  1  0  0  0
 34 35  1  0  0  0
 34 38  1  0  0  0
 35 36  1  0  0  0
 36 37  1  0  0  0
 36 39  1  0  0  0
 37 38  1  0  0  0
 38 33  1  0  0  0
 39 40  1  0  0  0
 39 41  1  0  0  0
 40 46  2  0  0  0
 41 42  2  0  0  0
 41 43  1  0  0  0
 43 44  1  0  0  0
 44 45  2  0  0  0
 44 46  1  0  0  0
  3  4  1  0  0  0
 31 32  1  0  0  0
 22 26  1  0  0  0
 22 27  1  0  0  0
 11 14  1  0  0  0
 13 15  1  0  0  0
 48 50  1  0  0  0
 43 47  1  0  0  0
M  END
> <minimizedAffinity>
-8.49414

$$$$
1JN4_139_A_901


 50 54  0  0  0  0  0  0  0  0999 V2000
   36.8686   -2.1358   23.2434 P   0  0  0  0  0  0  0  0  0  0  0  0
   36.8194   -2.6305   24.6896 O   0  0  0  0  0  0  0  0  0  0  0  0
   35.6141   -2.4184   22.4663 O   0  0  0  0  0  0  0  0  0  0  0  0
   34.8628   -1.9781   22.8937 H   0  0  0  0  0  0  0  0  0  0  0  0
   37.1807   -0.5691   23.1425 O   0  0  0  0  0  0  0  0  0  0  0  0
   38.5258   -0.0968   23.0166 C   0  0  0  0  0  0  0  0  0  0  0  0
   38.5611    1.2442   22.3089 C   0  0  0  0  0  0  0  0  0  0  0  0
   37.2543    1.8613   22.3753 O   0  0  0  0  0  0  0  0  0  0  0  0
   37.4083    3.2550   22.1943 C   0  0  0  0  0  0  0  0  0  0  0  0
   38.8888    3.6198   22.3873 C   0  0  0  0  0  0  0  0  0  0  0  0
   39.4666    4.0533   21.1614 O   0  0  0  0  0  0  0  0  0  0  0  0
   39.4841    2.3052   22.9031 C   0  0  0  0  0  0  0  0  0  0  0  0
   40.8818    2.1787   22.5535 O   0  0  0  0  0  0  0  0  0  0  0  0
   39.3520    3.3643   20.4884 H   0  0  0  0  0  0  0  0  0  0  0  0
   40.9810    2.2400   21.5905 H   0  0  0  0  0  0  0  0  0  0  0  0
   36.3758    3.9876   22.9443 N   0  0  0  0  0  0  0  0  0  0  0  0
   35.7999    5.2228   22.7094 C   0  0  0  0  0  0  0  0  0  0  0  0
   36.0860    6.1069   21.7189 N   0  0  0  0  0  0  0  0  0  0  0  0
   35.3097    7.2083   21.8154 C   0  0  0  0  0  0  0  0  0  0  0  0
   34.3533    7.4932   22.7278 N   0  0  0  0  0  0  0  0  0  0  0  0
   34.0828    6.5728   23.6960 C   0  0  0  0  0  0  0  0  0  0  0  0
   33.1187    6.8261   24.5818 N   0  0  0  0  0  0  0  0  0  0  0  0
   34.8389    5.3777   23.7078 C   0  0  0  0  0  0  0  0  0  0  0  0
   34.8197    4.2786   24.5531 N   0  0  0  0  0  0  0  0  0  0  0  0
   35.7516    3.4954   24.0686 C   0  0  0  0  0  0  0  0  0  0  0  0
   32.6176    7.6722   24.5356 H   0  0  0  0  0  0  0  0  0  0  0  0
   32.9081    6.1669   25.2821 H   0  0  0  0  0  0  0  0  0  0  0  0
   38.0468   -2.8911   22.4781 O   0  0  0  0  0  0  0  0  0  0  0  0
   38.3051   -4.3887   21.9910 P   0  0  0  0  0  0  0  0  0  0  0  0
   39.2821   -5.0015   22.9511 O   0  0  0  0  0  0  0  0  0  0  0  0
   36.9596   -5.0040   21.8313 O   0  0  0  0  0  0  0  0  0  0  0  0
   36.5571   -5.1324   22.7044 H   0  0  0  0  0  0  0  0  0  0  0  0
   38.8882   -4.2178   20.4757 O   0  0  0  0  0  0  0  0  0  0  0  0
   40.2280   -5.1263   18.6388 C   0  0  0  0  0  0  0  0  0  0  0  0
   39.6227   -4.7287   17.3767 O   0  0  0  0  0  0  0  0  0  0  0  0
   38.2098   -4.6814   17.5145 C   0  0  0  0  0  0  0  0  0  0  0  0
   37.8820   -5.5784   18.6965 C   0  0  0  0  0  0  0  0  0  0  0  0
   39.0709   -5.3643   19.6182 C   0  0  0  0  0  0  0  0  0  0  0  0
   37.5852   -5.1234   16.2528 N   0  0  0  0  0  0  0  0  0  0  0  0
   37.1324   -6.4293   16.0743 C   0  0  0  0  0  0  0  0  0  0  0  0
   37.4276   -4.1658   15.2419 C   0  0  0  0  0  0  0  0  0  0  0  0
   37.8166   -3.0155   15.3430 O   0  0  0  0  0  0  0  0  0  0  0  0
   36.7769   -4.6147   14.1146 N   0  0  0  0  0  0  0  0  0  0  0  0
   36.2541   -5.8813   13.8942 C   0  0  0  0  0  0  0  0  0  0  0  0
   35.5027   -6.0539   12.9304 O   0  0  0  0  0  0  0  0  0  0  0  0
   36.4877   -6.8279   14.9651 C   0  0  0  0  0  0  0  0  0  0  0  0
   36.6706   -3.9645   13.3831 H   0  0  0  0  0  0  0  0  0  0  0  0
   40.9221   -6.8225   17.0550 O   0  0  0  0  0  0  0  0  0  0  0  0
   41.1111   -6.3283   18.3924 C   0  0  0  0  0  0  0  0  0  0  0  0
   41.4941   -7.5926   16.9110 H   0  0  0  0  0  0  0  0  0  0  0  0
  1  2  2  0  0  0
  1  3  1  0  0  0
  1  5  1  0  0  0
  1 28  1  0  0  0
  5  6  1  0  0  0
 29 30  2  0  0  0
 29 31  1  0  0  0
 29 28  1  0  0  0
 29 33  1  0  0  0
 16 17  1  0  0  0
 16 25  1  0  0  0
 16  9  1  0  0  0
 17 18  1  0  0  0
 17 23  2  0  0  0
 18 19  2  0  0  0
 19 20  1  0  0  0
 20 21  2  0  0  0
 21 22  1  0  0  0
 21 23  1  0  0  0
 23 24  1  0  0  0
 24 25  2  0  0  0
  6  7  1  0  0  0
  7  8  1  0  0  0
  7 12  1  0  0  0
  8  9  1  0  0  0
  9 10  1  0  0  0
 10 11  1  0  0  0
 10 12  1  0  0  0
 12 13  1  0  0  0
 48 49  1  0  0  0
 49 34  1  0  0  0
 34 35  1  0  0  0
 34 38  1  0  0  0
 35 36  1  0  0  0
 36 37  1  0  0  0
 36 39  1  0  0  0
 37 38  1  0  0  0
 38 33  1  0  0  0
 39 40  1  0  0  0
 39 41  1  0  0  0
 40 46  2  0  0  0
 41 42  2  0  0  0
 41 43  1  0  0  0
 43 44  1  0  0  0
 44 45  2  0  0  0
 44 46  1  0  0  0
  3  4  1  0  0  0
 31 32  1  0  0  0
 22 26  1  0  0  0
 22 27  1  0  0  0
 11 14  1  0  0  0
 13 15  1  0  0  0
 48 50  1  0  0  0
 43 47  1  0  0  0
M  END
> <minimizedAffinity>
-8.19945

$$$$
