4DJP_M73_A_200
  RCSB PDB12061712133D
Coordinates from PDB:4DJP:A:200 Model:1 without hydrogens
 39 40  0  0  0  0            999 V2000
   20.8290   29.5300   11.8510   O 0  0  0  0  0  0  0  0  0  0  0  0
   21.0400   28.5350   12.5210   C 0  0  0  0  0  0  0  0  0  0  0  0
   21.7910   27.4770   11.9620   O 0  0  0  0  0  0  0  0  0  0  0  0
   22.0280   27.5610   10.5510   C 0  0  0  0  0  0  0  0  0  0  0  0
   22.7890   26.3110   10.1390   C 0  0  0  0  0  0  0  0  0  0  0  0
   21.9370   25.0630   10.2850   C 0  0  0  0  0  0  0  0  0  0  0  0
   24.0200   26.2660   10.9700   C 0  0  0  0  0  0  0  0  0  0  0  0
   24.3350   25.3320   11.6870   O 0  0  0  0  0  0  0  0  0  0  0  0
   24.8710   27.3890   10.9130   O 0  0  0  0  0  0  0  0  0  0  0  0
   26.0620   27.4600   11.7110   C 0  0  0  0  0  0  0  0  0  0  0  0
   20.5700   28.2480   13.7160   N 0  0  0  0  0  0  0  0  0  0  0  0
   19.4860   29.0290   14.3020   C 0  0  0  0  0  0  0  0  0  0  0  0
   18.1920   28.1990   14.2110   C 0  0  0  0  0  0  0  0  0  0  0  0
   17.9070   27.8950   12.7510   C 0  0  0  0  0  0  0  0  0  0  0  0
   17.3260   28.8620   11.9470   C 0  0  0  0  0  0  0  0  0  0  0  0
   17.1310   28.6110   10.5950   C 0  0  0  0  0  0  0  0  0  0  0  0
   17.4910   27.3790   10.0540   C 0  0  0  0  0  0  0  0  0  0  0  0
   18.0610   26.4000   10.8520   C 0  0  0  0  0  0  0  0  0  0  0  0
   18.2660   26.6600   12.2000   C 0  0  0  0  0  0  0  0  0  0  0  0
   19.8820   29.4910   15.7060   C 0  0  0  0  0  0  0  0  0  0  0  0
   19.8470   28.3480   16.5930   O 0  0  0  0  0  0  0  0  0  0  0  0
   18.9640   30.5750   16.3000   C 0  0  0  0  0  0  0  0  0  0  0  0
   19.1430   31.8060   15.5050   N 0  0  0  0  0  0  0  0  0  0  0  0
   19.9520   32.8370   16.2060   C 0  0  0  0  0  0  0  0  0  0  0  0
   21.4550   32.5400   16.1410   C 0  0  0  0  0  0  0  0  0  0  0  0
   21.9510   32.4930   14.6970   C 0  0  0  0  0  0  0  0  0  0  0  0
   22.2050   33.5590   17.0110   C 0  0  0  0  0  0  0  0  0  0  0  0
   22.0170   34.9940   16.5720   C 0  0  0  0  0  0  0  0  0  0  0  0
   17.8340   32.3970   14.7510   S 0  0  0  0  0  0  0  0  0  0  0  0
   18.3480   33.2390   13.6900   O 0  0  0  0  0  0  0  0  0  0  0  0
   17.0480   31.2990   14.3430   O 0  0  0  0  0  0  0  0  0  0  0  0
   16.9430   33.3280   15.7780   C 0  0  0  0  0  0  0  0  0  0  0  0
   17.1450   34.7210   15.9140   C 0  0  0  0  0  0  0  0  0  0  0  0
   16.4470   35.5010   16.8360   C 0  0  0  0  0  0  0  0  0  0  0  0
   15.9830   32.7550   16.6240   C 0  0  0  0  0  0  0  0  0  0  0  0
   15.2980   33.5280   17.5740   C 0  0  0  0  0  0  0  0  0  0  0  0
   15.5220   34.8950   17.6760   C 0  0  0  0  0  0  0  0  0  0  0  0
   14.8160   35.6090   18.6190   O 0  0  0  0  0  0  0  0  0  0  0  0
   15.1220   36.9940   18.8160   C 0  0  0  0  0  0  0  0  0  0  0  0
 17 16  2  0  0  0  0
 17 18  1  0  0  0  0
  5  6  1  0  0  0  0
  5  4  1  0  0  0  0
  5  7  1  0  0  0  0
  4  3  1  0  0  0  0
 16 15  1  0  0  0  0
 18 19  2  0  0  0  0
  9  7  1  0  0  0  0
  9 10  1  0  0  0  0
  7  8  2  0  0  0  0
  1  2  2  0  0  0  0
 15 14  2  0  0  0  0
  3  2  1  0  0  0  0
 19 14  1  0  0  0  0
  2 11  1  0  0  0  0
 14 13  1  0  0  0  0
 30 29  2  0  0  0  0
 11 12  1  0  0  0  0
 13 12  1  0  0  0  0
 12 20  1  0  0  0  0
 31 29  2  0  0  0  0
 26 25  1  0  0  0  0
 29 23  1  0  0  0  0
 29 32  1  0  0  0  0
 23 24  1  0  0  0  0
 23 22  1  0  0  0  0
 20 22  1  0  0  0  0
 20 21  1  0  0  0  0
 32 33  2  0  0  0  0
 32 35  1  0  0  0  0
 33 34  1  0  0  0  0
 25 24  1  0  0  0  0
 25 27  1  0  0  0  0
 28 27  1  0  0  0  0
 35 36  2  0  0  0  0
 34 37  2  0  0  0  0
 36 37  1  0  0  0  0
 37 38  1  0  0  0  0
 38 39  1  0  0  0  0
A    1
O22
A    2
C21
A    3
O23
A    4
C22
A    5
C23
A    6
C24
A    7
C25
A    8
O26
A    9
O27
A   10
C28
A   11
N20
A   12
C19
A   13
C32
A   14
C38
A   15
C37
A   16
C36
A   17
C35
A   18
C34
A   19
C33
A   20
C17
A   21
O18
A   22
C16
A   23
N11
A   24
C12
A   25
C13
A   26
C14
A   27
C15
A   28
C18
A   29
S8
A   30
O9
A   31
O10
A   32
C5
A   33
C4
A   34
C3
A   35
C6
A   36
C7
A   37
C2
A   38
O1
A   39
C1
M  END
>  <InstanceId>
4DJP_M73_A_200

>  <ChemCompId>
M73

>  <PdbId>
4DJP

>  <ChainId>
A

>  <ResidueNumber>
200

>  <InsertionCode>


>  <Model>
1

>  <AltIds>


>  <MissingHeavyAtoms>
0

>  <ObservedFormula>
C28 N2 O8 S

>  <Name>
methyl (2S)-3-({[(2S,3R)-3-hydroxy-4-{[(4-methoxyphenyl)sulfonyl][(2S)-2-methylbutyl]amino}-1-phenylbutan-2-yl]carbamoyl}oxy)-2-methylpropanoate

>  <SystematicName>
methyl (2S)-3-[[(2S,3R)-4-[(4-methoxyphenyl)sulfonyl-[(2S)-2-methylbutyl]amino]-3-oxidanyl-1-phenyl-butan-2-yl]carbamoyloxy]-2-methyl-propanoate

>  <Synonyms>


>  <Type>
NON-POLYMER

>  <Formula>
C28 H40 N2 O8 S

>  <MolecularWeight>
564.691

>  <ModifiedDate>
2012-07-27

>  <Parent>


>  <OneLetterCode>


>  <SubcomponentList>


>  <AmbiguousFlag>
N

>  <InChI>
InChI=1S/C28H40N2O8S/c1-6-20(2)17-30(39(34,35)24-14-12-23(36-4)13-15-24)18-26(31)25(16-22-10-8-7-9-11-22)29-28(33)38-19-21(3)27(32)37-5/h7-15,20-21,25-26,31H,6,16-19H2,1-5H3,(H,29,33)/t20-,21-,25-,26+/m0/s1

>  <InChIKey>
CVWATNIEMLNMNA-KZHJIPFUSA-N

>  <SMILES>
CC[C@H](C)CN(C[C@H]([C@H](Cc1ccccc1)NC(=O)OC[C@H](C)C(=O)OC)O)S(=O)(=O)c2ccc(cc2)OC

$$$$
