4WOP_CTP_A_301
  RCSB PDB12061716003D
Coordinates from PDB:4WOP:A:301 Model:1 without hydrogens
 29 30  0  0  0  0            999 V2000
   14.1930   36.7950  -24.3360   N 0  0  0  0  0  0  0  0  0  0  0  0
   12.9200   37.3140  -24.4510   C 0  0  0  0  0  0  0  0  0  0  0  0
   11.8310   36.5280  -24.1490   N 0  0  0  0  0  0  0  0  0  0  0  0
   11.9800   35.1580  -24.1690   C 0  0  0  0  0  0  0  0  0  0  0  0
   13.2530   34.6080  -24.3110   C 0  0  0  0  0  0  0  0  0  0  0  0
   14.3640   35.4410  -24.3540   C 0  0  0  0  0  0  0  0  0  0  0  0
   12.7670   38.4750  -24.8270   O 0  0  0  0  0  0  0  0  0  0  0  0
   10.9100   34.3740  -24.0510   N 0  0  0  0  0  0  0  0  0  0  0  0
   15.3450   37.7040  -24.5430   C 0  0  0  0  0  0  0  0  0  0  0  0
   16.0110   38.0300  -23.2150   C 0  0  0  0  0  0  0  0  0  0  0  0
   15.5620   39.2410  -22.6630   O 0  0  0  0  0  0  0  0  0  0  0  0
   17.4890   38.0760  -23.5410   C 0  0  0  0  0  0  0  0  0  0  0  0
   17.6130   37.2060  -24.7840   C 0  0  0  0  0  0  0  0  0  0  0  0
   16.3270   37.0960  -25.3630   O 0  0  0  0  0  0  0  0  0  0  0  0
   17.9230   39.3970  -23.7910   O 0  0  0  0  0  0  0  0  0  0  0  0
   18.1120   35.8030  -24.4400   C 0  0  0  0  0  0  0  0  0  0  0  0
   17.5840   35.4210  -23.1790   O 0  0  0  0  0  0  0  0  0  0  0  0
   18.5380   35.0270  -21.9390   P 0  0  0  0  0  0  0  0  0  0  0  0
   19.3180   36.2080  -21.4070   O 0  0  0  0  0  0  0  0  0  0  0  0
   17.6850   34.4200  -20.8560   O 0  0  0  0  0  0  0  0  0  0  0  0
   19.5540   34.0040  -22.6520   O 0  0  0  0  0  0  0  0  0  0  0  0
   20.4840   33.0260  -21.7980   P 0  0  0  0  0  0  0  0  0  0  0  0
   20.2000   31.6090  -22.2580   O 0  0  0  0  0  0  0  0  0  0  0  0
   20.1670   33.2330  -20.3340   O 0  0  0  0  0  0  0  0  0  0  0  0
   22.0080   33.4610  -22.1760   O 0  0  0  0  0  0  0  0  0  0  0  0
   23.2580   33.5420  -21.1440   P 0  0  0  0  0  0  0  0  0  0  0  0
   24.1200   34.7150  -21.5330   O 0  0  0  0  0  0  0  0  0  0  0  0
   24.1130   32.2980  -21.2300   O 0  0  0  0  0  0  0  0  0  0  0  0
   22.7730   33.7810  -19.7240   O 0  0  0  0  0  0  0  0  0  0  0  0
  1  2  1  0  0  0  0
  1  6  1  0  0  0  0
  1  9  1  0  0  0  0
  2  3  1  0  0  0  0
  2  7  2  0  0  0  0
  3  4  2  0  0  0  0
  4  5  1  0  0  0  0
  4  8  1  0  0  0  0
  5  6  2  0  0  0  0
  9 10  1  0  0  0  0
  9 14  1  0  0  0  0
 10 11  1  0  0  0  0
 10 12  1  0  0  0  0
 12 13  1  0  0  0  0
 12 15  1  0  0  0  0
 13 14  1  0  0  0  0
 13 16  1  0  0  0  0
 16 17  1  0  0  0  0
 17 18  1  0  0  0  0
 18 19  2  0  0  0  0
 18 20  1  0  0  0  0
 18 21  1  0  0  0  0
 21 22  1  0  0  0  0
 22 23  2  0  0  0  0
 22 24  1  0  0  0  0
 22 25  1  0  0  0  0
 25 26  1  0  0  0  0
 26 27  2  0  0  0  0
 26 28  1  0  0  0  0
 26 29  1  0  0  0  0
A    1
N1
A    2
C2
A    3
N3
A    4
C4
A    5
C5
A    6
C6
A    7
O2
A    8
N4
A    9
C1'
A   10
C2'
A   11
O2'
A   12
C3'
A   13
C4'
A   14
O4'
A   15
O3'
A   16
C5'
A   17
O5'
A   18
PA
A   19
O1A
A   20
O2A
A   21
O3A
A   22
PB
A   23
O1B
A   24
O2B
A   25
O3B
A   26
PG
A   27
O1G
A   28
O2G
A   29
O3G
M  END
>  <InstanceId>
4WOP_CTP_A_301

>  <ChemCompId>
CTP

>  <PdbId>
4WOP

>  <ChainId>
A

>  <ResidueNumber>
301

>  <InsertionCode>


>  <Model>
1

>  <AltIds>


>  <MissingHeavyAtoms>
0

>  <ObservedFormula>
C9 N3 O14 P3

>  <Name>
CYTIDINE-5'-TRIPHOSPHATE

>  <SystematicName>
[(2R,3S,4R,5R)-5-(4-amino-2-oxo-pyrimidin-1-yl)-3,4-dihydroxy-oxolan-2-yl]methyl (hydroxy-phosphonooxy-phosphoryl) hydrogen phosphate

>  <Synonyms>


>  <Type>
NON-POLYMER

>  <Formula>
C9 H16 N3 O14 P3

>  <MolecularWeight>
483.156

>  <ModifiedDate>
2011-06-04

>  <Parent>


>  <OneLetterCode>


>  <SubcomponentList>


>  <AmbiguousFlag>
N

>  <InChI>
InChI=1S/C9H16N3O14P3/c10-5-1-2-12(9(15)11-5)8-7(14)6(13)4(24-8)3-23-28(19,20)26-29(21,22)25-27(16,17)18/h1-2,4,6-8,13-14H,3H2,(H,19,20)(H,21,22)(H2,10,11,15)(H2,16,17,18)/t4-,6-,7-,8-/m1/s1

>  <InChIKey>
PCDQPRRSZKQHHS-XVFCMESISA-N

>  <SMILES>
C1=CN(C(=O)N=C1N)[C@H]2[C@@H]([C@@H]([C@H](O2)CO[P@](=O)(O)O[P@](=O)(O)OP(=O)(O)O)O)O

$$$$
