4WOP_CTP_A_301


 37 38  0  0  0  0  0  0  0  0999 V2000
   27.0899   35.1893  -20.9168 C   0  0  0  0  0  0  0  0  0  0  0  0
   26.3132   35.8165  -19.7694 C   0  0  0  0  0  0  0  0  0  0  0  0
   26.8912   37.0108  -19.3086 O   0  0  0  0  0  0  0  0  0  0  0  0
   26.3045   34.7473  -18.6972 C   0  0  0  0  0  0  0  0  0  0  0  0
   26.4937   33.4526  -19.4752 C   0  0  0  0  0  0  0  0  0  0  0  0
   27.0313   33.7850  -20.7407 O   0  0  0  0  0  0  0  0  0  0  0  0
   27.3452   34.9436  -17.7621 O   0  0  0  0  0  0  0  0  0  0  0  0
   27.7979   36.8373  -19.0108 H   0  0  0  0  0  0  0  0  0  0  0  0
   28.1981   34.9491  -18.2240 H   0  0  0  0  0  0  0  0  0  0  0  0
   26.5010   35.5836  -22.2183 N   0  0  0  0  0  0  0  0  0  0  0  0
   26.9182   36.7653  -22.7951 C   0  0  0  0  0  0  0  0  0  0  0  0
   26.3071   37.2199  -23.9417 N   0  0  0  0  0  0  0  0  0  0  0  0
   25.6236   36.3173  -24.7277 C   0  0  0  0  0  0  0  0  0  0  0  0
   25.4121   35.0215  -24.2593 C   0  0  0  0  0  0  0  0  0  0  0  0
   25.8230   34.6749  -22.9783 C   0  0  0  0  0  0  0  0  0  0  0  0
   27.8369   37.4025  -22.2825 O   0  0  0  0  0  0  0  0  0  0  0  0
   25.1711   36.6903  -25.9233 N   0  0  0  0  0  0  0  0  0  0  0  0
   25.3264   37.6081  -26.2440 H   0  0  0  0  0  0  0  0  0  0  0  0
   24.6814   36.0483  -26.4865 H   0  0  0  0  0  0  0  0  0  0  0  0
   25.1661   32.7259  -19.6875 C   0  0  0  0  0  0  0  0  0  0  0  0
   24.0999   33.6305  -19.4431 O   0  0  0  0  0  0  0  0  0  0  0  0
   22.8769   33.8074  -20.4803 P   0  0  0  0  0  0  0  0  0  0  0  0
   23.0468   32.9705  -21.7281 O   0  0  0  0  0  0  0  0  0  0  0  0
   21.5960   33.4532  -19.7713 O   0  0  0  0  0  0  0  0  0  0  0  0
   21.5859   32.5028  -19.5773 H   0  0  0  0  0  0  0  0  0  0  0  0
   23.0288   35.3617  -20.8650 O   0  0  0  0  0  0  0  0  0  0  0  0
   21.7500   36.2803  -21.1328 P   0  0  0  0  0  0  0  0  0  0  0  0
   22.2408   37.5795  -21.7421 O   0  0  0  0  0  0  0  0  0  0  0  0
   21.0377   36.4922  -19.8158 O   0  0  0  0  0  0  0  0  0  0  0  0
   21.6115   36.9925  -19.2147 H   0  0  0  0  0  0  0  0  0  0  0  0
   20.8504   35.4442  -22.2035 O   0  0  0  0  0  0  0  0  0  0  0  0
   19.2863   35.0483  -22.0280 P   0  0  0  0  0  0  0  0  0  0  0  0
   18.7523   34.6158  -23.3689 O   0  0  0  0  0  0  0  0  0  0  0  0
   18.4734   36.2399  -21.5749 O   0  0  0  0  0  0  0  0  0  0  0  0
   19.1282   33.8773  -21.0727 O   0  0  0  0  0  0  0  0  0  0  0  0
   18.5933   36.9703  -22.2019 H   0  0  0  0  0  0  0  0  0  0  0  0
   19.6594   33.1292  -21.3876 H   0  0  0  0  0  0  0  0  0  0  0  0
 10 11  1  0  0  0
 10 15  1  0  0  0
 10  1  1  0  0  0
 11 12  1  0  0  0
 11 16  2  0  0  0
 12 13  2  0  0  0
 13 14  1  0  0  0
 13 17  1  0  0  0
 14 15  2  0  0  0
  1  2  1  0  0  0
  1  6  1  0  0  0
  2  3  1  0  0  0
  2  4  1  0  0  0
  4  5  1  0  0  0
  4  7  1  0  0  0
  5  6  1  0  0  0
  5 20  1  0  0  0
 20 21  1  0  0  0
 21 22  1  0  0  0
 22 23  2  0  0  0
 22 24  1  0  0  0
 22 26  1  0  0  0
 26 27  1  0  0  0
 27 28  2  0  0  0
 27 29  1  0  0  0
 27 31  1  0  0  0
 31 32  1  0  0  0
 32 33  2  0  0  0
 32 34  1  0  0  0
 32 35  1  0  0  0
 17 18  1  0  0  0
 17 19  1  0  0  0
  3  8  1  0  0  0
  7  9  1  0  0  0
 24 25  1  0  0  0
 29 30  1  0  0  0
 34 36  1  0  0  0
 35 37  1  0  0  0
M  END
> <minimizedAffinity>
-8.88257

$$$$
4WOP_CTP_A_301


 37 38  0  0  0  0  0  0  0  0999 V2000
   20.5731   36.6095  -20.4536 C   0  0  0  0  0  0  0  0  0  0  0  0
   19.9629   35.9561  -21.6841 C   0  0  0  0  0  0  0  0  0  0  0  0
   18.5630   36.0651  -21.7212 O   0  0  0  0  0  0  0  0  0  0  0  0
   20.4111   34.5122  -21.5999 C   0  0  0  0  0  0  0  0  0  0  0  0
   21.6760   34.5741  -20.7553 C   0  0  0  0  0  0  0  0  0  0  0  0
   21.6637   35.8005  -20.0504 O   0  0  0  0  0  0  0  0  0  0  0  0
   19.4267   33.6991  -20.9951 O   0  0  0  0  0  0  0  0  0  0  0  0
   18.1853   35.6497  -20.9302 H   0  0  0  0  0  0  0  0  0  0  0  0
   19.2248   34.0402  -20.1098 H   0  0  0  0  0  0  0  0  0  0  0  0
   21.0239   37.9860  -20.7671 N   0  0  0  0  0  0  0  0  0  0  0  0
   20.4220   39.0383  -20.1087 C   0  0  0  0  0  0  0  0  0  0  0  0
   20.7318   40.3325  -20.4609 N   0  0  0  0  0  0  0  0  0  0  0  0
   21.9171   40.5707  -21.1227 C   0  0  0  0  0  0  0  0  0  0  0  0
   22.6774   39.4946  -21.5777 C   0  0  0  0  0  0  0  0  0  0  0  0
   22.1986   38.1990  -21.4285 C   0  0  0  0  0  0  0  0  0  0  0  0
   19.6154   38.8124  -19.2081 O   0  0  0  0  0  0  0  0  0  0  0  0
   22.3235   41.8230  -21.3227 N   0  0  0  0  0  0  0  0  0  0  0  0
   21.7784   42.5754  -20.9969 H   0  0  0  0  0  0  0  0  0  0  0  0
   23.1690   41.9965  -21.7963 H   0  0  0  0  0  0  0  0  0  0  0  0
   22.9334   34.5255  -21.6227 C   0  0  0  0  0  0  0  0  0  0  0  0
   24.0759   34.5190  -20.7804 O   0  0  0  0  0  0  0  0  0  0  0  0
   24.7356   33.1460  -20.2487 P   0  0  0  0  0  0  0  0  0  0  0  0
   24.0454   32.6084  -19.0155 O   0  0  0  0  0  0  0  0  0  0  0  0
   24.6962   32.1353  -21.3649 O   0  0  0  0  0  0  0  0  0  0  0  0
   23.7760   31.8846  -21.5418 H   0  0  0  0  0  0  0  0  0  0  0  0
   26.2084   33.6532  -19.8480 O   0  0  0  0  0  0  0  0  0  0  0  0
   26.4284   34.7456  -18.7039 P   0  0  0  0  0  0  0  0  0  0  0  0
   27.2822   34.1097  -17.6238 O   0  0  0  0  0  0  0  0  0  0  0  0
   25.0709   35.1717  -18.1916 O   0  0  0  0  0  0  0  0  0  0  0  0
   24.6339   34.4168  -17.7673 H   0  0  0  0  0  0  0  0  0  0  0  0
   27.2316   35.9608  -19.4338 O   0  0  0  0  0  0  0  0  0  0  0  0
   26.9507   36.5234  -20.9300 P   0  0  0  0  0  0  0  0  0  0  0  0
   28.1141   37.3896  -21.3381 O   0  0  0  0  0  0  0  0  0  0  0  0
   25.7076   37.3834  -20.9609 O   0  0  0  0  0  0  0  0  0  0  0  0
   26.8569   35.3821  -21.9288 O   0  0  0  0  0  0  0  0  0  0  0  0
   25.7953   38.1019  -20.3151 H   0  0  0  0  0  0  0  0  0  0  0  0
   27.6660   34.8487  -21.8870 H   0  0  0  0  0  0  0  0  0  0  0  0
 10 11  1  0  0  0
 10 15  1  0  0  0
 10  1  1  0  0  0
 11 12  1  0  0  0
 11 16  2  0  0  0
 12 13  2  0  0  0
 13 14  1  0  0  0
 13 17  1  0  0  0
 14 15  2  0  0  0
  1  2  1  0  0  0
  1  6  1  0  0  0
  2  3  1  0  0  0
  2  4  1  0  0  0
  4  5  1  0  0  0
  4  7  1  0  0  0
  5  6  1  0  0  0
  5 20  1  0  0  0
 20 21  1  0  0  0
 21 22  1  0  0  0
 22 23  2  0  0  0
 22 24  1  0  0  0
 22 26  1  0  0  0
 26 27  1  0  0  0
 27 28  2  0  0  0
 27 29  1  0  0  0
 27 31  1  0  0  0
 31 32  1  0  0  0
 32 33  2  0  0  0
 32 34  1  0  0  0
 32 35  1  0  0  0
 17 18  1  0  0  0
 17 19  1  0  0  0
  3  8  1  0  0  0
  7  9  1  0  0  0
 24 25  1  0  0  0
 29 30  1  0  0  0
 34 36  1  0  0  0
 35 37  1  0  0  0
M  END
> <minimizedAffinity>
-8.71173

$$$$
4WOP_CTP_A_301


 37 38  0  0  0  0  0  0  0  0999 V2000
   27.0491   34.9925  -20.6677 C   0  0  0  0  0  0  0  0  0  0  0  0
   26.1873   35.6515  -19.6017 C   0  0  0  0  0  0  0  0  0  0  0  0
   26.8138   36.7552  -19.0000 O   0  0  0  0  0  0  0  0  0  0  0  0
   25.9194   34.5453  -18.6030 C   0  0  0  0  0  0  0  0  0  0  0  0
   26.0827   33.2717  -19.4208 C   0  0  0  0  0  0  0  0  0  0  0  0
   26.8234   33.5968  -20.5813 O   0  0  0  0  0  0  0  0  0  0  0  0
   26.8333   34.5874  -17.5265 O   0  0  0  0  0  0  0  0  0  0  0  0
   27.6474   36.4716  -18.5930 H   0  0  0  0  0  0  0  0  0  0  0  0
   27.7387   34.5196  -17.8681 H   0  0  0  0  0  0  0  0  0  0  0  0
   26.6917   35.5032  -22.0122 N   0  0  0  0  0  0  0  0  0  0  0  0
   27.3042   36.6555  -22.4595 C   0  0  0  0  0  0  0  0  0  0  0  0
   26.9094   37.2221  -23.6503 N   0  0  0  0  0  0  0  0  0  0  0  0
   26.2540   36.4334  -24.5712 C   0  0  0  0  0  0  0  0  0  0  0  0
   25.8474   35.1499  -24.2099 C   0  0  0  0  0  0  0  0  0  0  0  0
   26.0373   34.7068  -22.9069 C   0  0  0  0  0  0  0  0  0  0  0  0
   28.2024   37.1664  -21.7925 O   0  0  0  0  0  0  0  0  0  0  0  0
   26.0139   36.9037  -25.7937 N   0  0  0  0  0  0  0  0  0  0  0  0
   26.3056   37.8117  -26.0380 H   0  0  0  0  0  0  0  0  0  0  0  0
   25.5448   36.3433  -26.4533 H   0  0  0  0  0  0  0  0  0  0  0  0
   24.7308   32.7035  -19.8512 C   0  0  0  0  0  0  0  0  0  0  0  0
   23.7095   33.6247  -19.5004 O   0  0  0  0  0  0  0  0  0  0  0  0
   22.4509   33.9118  -20.4681 P   0  0  0  0  0  0  0  0  0  0  0  0
   22.8189   33.8545  -21.9335 O   0  0  0  0  0  0  0  0  0  0  0  0
   21.3687   32.9133  -20.1508 O   0  0  0  0  0  0  0  0  0  0  0  0
   21.6572   32.0273  -20.4201 H   0  0  0  0  0  0  0  0  0  0  0  0
   22.1052   35.4319  -20.0719 O   0  0  0  0  0  0  0  0  0  0  0  0
   21.1297   36.3231  -20.9691 P   0  0  0  0  0  0  0  0  0  0  0  0
   20.1723   37.0353  -20.0330 O   0  0  0  0  0  0  0  0  0  0  0  0
   20.4163   35.4095  -21.9402 O   0  0  0  0  0  0  0  0  0  0  0  0
   19.8491   34.7949  -21.4489 H   0  0  0  0  0  0  0  0  0  0  0  0
   22.1071   37.3908  -21.7169 O   0  0  0  0  0  0  0  0  0  0  0  0
   23.2284   38.3190  -20.9990 P   0  0  0  0  0  0  0  0  0  0  0  0
   22.6826   39.7185  -20.8818 O   0  0  0  0  0  0  0  0  0  0  0  0
   24.4885   38.3881  -21.8317 O   0  0  0  0  0  0  0  0  0  0  0  0
   23.5226   37.8229  -19.5933 O   0  0  0  0  0  0  0  0  0  0  0  0
   24.2709   38.7070  -22.7216 H   0  0  0  0  0  0  0  0  0  0  0  0
   22.6982   37.7888  -19.0833 H   0  0  0  0  0  0  0  0  0  0  0  0
 10 11  1  0  0  0
 10 15  1  0  0  0
 10  1  1  0  0  0
 11 12  1  0  0  0
 11 16  2  0  0  0
 12 13  2  0  0  0
 13 14  1  0  0  0
 13 17  1  0  0  0
 14 15  2  0  0  0
  1  2  1  0  0  0
  1  6  1  0  0  0
  2  3  1  0  0  0
  2  4  1  0  0  0
  4  5  1  0  0  0
  4  7  1  0  0  0
  5  6  1  0  0  0
  5 20  1  0  0  0
 20 21  1  0  0  0
 21 22  1  0  0  0
 22 23  2  0  0  0
 22 24  1  0  0  0
 22 26  1  0  0  0
 26 27  1  0  0  0
 27 28  2  0  0  0
 27 29  1  0  0  0
 27 31  1  0  0  0
 31 32  1  0  0  0
 32 33  2  0  0  0
 32 34  1  0  0  0
 32 35  1  0  0  0
 17 18  1  0  0  0
 17 19  1  0  0  0
  3  8  1  0  0  0
  7  9  1  0  0  0
 24 25  1  0  0  0
 29 30  1  0  0  0
 34 36  1  0  0  0
 35 37  1  0  0  0
M  END
> <minimizedAffinity>
-8.71099

$$$$
4WOP_CTP_A_301


 37 38  0  0  0  0  0  0  0  0999 V2000
   15.7927   37.4926  -24.2835 C   0  0  0  0  0  0  0  0  0  0  0  0
   16.0358   38.3491  -23.0504 C   0  0  0  0  0  0  0  0  0  0  0  0
   15.5745   39.6670  -23.2028 O   0  0  0  0  0  0  0  0  0  0  0  0
   17.5362   38.2994  -22.8522 C   0  0  0  0  0  0  0  0  0  0  0  0
   17.9488   37.0026  -23.5344 C   0  0  0  0  0  0  0  0  0  0  0  0
   16.9089   36.6309  -24.4184 O   0  0  0  0  0  0  0  0  0  0  0  0
   18.1730   39.4157  -23.4387 O   0  0  0  0  0  0  0  0  0  0  0  0
   16.0194   40.0798  -23.9595 H   0  0  0  0  0  0  0  0  0  0  0  0
   17.9601   39.4495  -24.3845 H   0  0  0  0  0  0  0  0  0  0  0  0
   14.5398   36.7150  -24.1360 N   0  0  0  0  0  0  0  0  0  0  0  0
   13.3447   37.3352  -24.4363 C   0  0  0  0  0  0  0  0  0  0  0  0
   12.1564   36.6825  -24.1975 N   0  0  0  0  0  0  0  0  0  0  0  0
   12.1681   35.3085  -24.0899 C   0  0  0  0  0  0  0  0  0  0  0  0
   13.3872   34.6342  -24.0416 C   0  0  0  0  0  0  0  0  0  0  0  0
   14.5747   35.3551  -24.0252 C   0  0  0  0  0  0  0  0  0  0  0  0
   13.3496   38.4661  -24.9197 O   0  0  0  0  0  0  0  0  0  0  0  0
   11.0183   34.6393  -24.0313 N   0  0  0  0  0  0  0  0  0  0  0  0
   10.1632   35.1259  -24.0663 H   0  0  0  0  0  0  0  0  0  0  0  0
   11.0233   33.6579  -23.9530 H   0  0  0  0  0  0  0  0  0  0  0  0
   18.1516   35.8754  -22.5224 C   0  0  0  0  0  0  0  0  0  0  0  0
   19.0239   36.3261  -21.4973 O   0  0  0  0  0  0  0  0  0  0  0  0
   20.5830   35.9129  -21.4617 P   0  0  0  0  0  0  0  0  0  0  0  0
   21.4588   36.8804  -22.2253 O   0  0  0  0  0  0  0  0  0  0  0  0
   21.0186   35.8213  -20.0226 O   0  0  0  0  0  0  0  0  0  0  0  0
   21.0153   36.7068  -19.6268 H   0  0  0  0  0  0  0  0  0  0  0  0
   20.5421   34.5092  -22.2460 O   0  0  0  0  0  0  0  0  0  0  0  0
   21.0205   33.1540  -21.5495 P   0  0  0  0  0  0  0  0  0  0  0  0
   20.4274   32.0018  -22.3375 O   0  0  0  0  0  0  0  0  0  0  0  0
   20.5529   33.1723  -20.1116 O   0  0  0  0  0  0  0  0  0  0  0  0
   19.5833   33.1638  -20.0868 H   0  0  0  0  0  0  0  0  0  0  0  0
   22.6446   33.1667  -21.6797 O   0  0  0  0  0  0  0  0  0  0  0  0
   23.6931   33.4660  -20.4776 P   0  0  0  0  0  0  0  0  0  0  0  0
   24.9630   32.7035  -20.7539 O   0  0  0  0  0  0  0  0  0  0  0  0
   23.1495   32.9835  -19.1518 O   0  0  0  0  0  0  0  0  0  0  0  0
   24.0480   34.9425  -20.4239 O   0  0  0  0  0  0  0  0  0  0  0  0
   22.9321   32.0403  -19.2155 H   0  0  0  0  0  0  0  0  0  0  0  0
   24.3932   35.2236  -21.2857 H   0  0  0  0  0  0  0  0  0  0  0  0
 10 11  1  0  0  0
 10 15  1  0  0  0
 10  1  1  0  0  0
 11 12  1  0  0  0
 11 16  2  0  0  0
 12 13  2  0  0  0
 13 14  1  0  0  0
 13 17  1  0  0  0
 14 15  2  0  0  0
  1  2  1  0  0  0
  1  6  1  0  0  0
  2  3  1  0  0  0
  2  4  1  0  0  0
  4  5  1  0  0  0
  4  7  1  0  0  0
  5  6  1  0  0  0
  5 20  1  0  0  0
 20 21  1  0  0  0
 21 22  1  0  0  0
 22 23  2  0  0  0
 22 24  1  0  0  0
 22 26  1  0  0  0
 26 27  1  0  0  0
 27 28  2  0  0  0
 27 29  1  0  0  0
 27 31  1  0  0  0
 31 32  1  0  0  0
 32 33  2  0  0  0
 32 34  1  0  0  0
 32 35  1  0  0  0
 17 18  1  0  0  0
 17 19  1  0  0  0
  3  8  1  0  0  0
  7  9  1  0  0  0
 24 25  1  0  0  0
 29 30  1  0  0  0
 34 36  1  0  0  0
 35 37  1  0  0  0
M  END
> <minimizedAffinity>
-8.68258

$$$$
4WOP_CTP_A_301


 37 38  0  0  0  0  0  0  0  0999 V2000
   25.6938   35.6785  -20.8939 C   0  0  0  0  0  0  0  0  0  0  0  0
   25.8896   35.3937  -19.4127 C   0  0  0  0  0  0  0  0  0  0  0  0
   27.1115   35.8816  -18.9209 O   0  0  0  0  0  0  0  0  0  0  0  0
   25.8054   33.8854  -19.3091 C   0  0  0  0  0  0  0  0  0  0  0  0
   24.9871   33.4838  -20.5283 C   0  0  0  0  0  0  0  0  0  0  0  0
   25.0316   34.5564  -21.4495 O   0  0  0  0  0  0  0  0  0  0  0  0
   27.0876   33.2927  -19.3308 O   0  0  0  0  0  0  0  0  0  0  0  0
   27.8428   35.4774  -19.4135 H   0  0  0  0  0  0  0  0  0  0  0  0
   27.5482   33.5482  -20.1453 H   0  0  0  0  0  0  0  0  0  0  0  0
   24.8938   36.9114  -21.0836 N   0  0  0  0  0  0  0  0  0  0  0  0
   24.9580   37.5529  -22.3032 C   0  0  0  0  0  0  0  0  0  0  0  0
   24.3229   38.7622  -22.4743 N   0  0  0  0  0  0  0  0  0  0  0  0
   23.2982   39.0968  -21.6156 C   0  0  0  0  0  0  0  0  0  0  0  0
   23.0523   38.3015  -20.4975 C   0  0  0  0  0  0  0  0  0  0  0  0
   23.8870   37.2268  -20.2177 C   0  0  0  0  0  0  0  0  0  0  0  0
   25.5791   37.0371  -23.2310 O   0  0  0  0  0  0  0  0  0  0  0  0
   22.5553   40.1748  -21.8598 N   0  0  0  0  0  0  0  0  0  0  0  0
   22.7380   40.7292  -22.6526 H   0  0  0  0  0  0  0  0  0  0  0  0
   21.8234   40.4173  -21.2476 H   0  0  0  0  0  0  0  0  0  0  0  0
   23.5271   33.2187  -20.1622 C   0  0  0  0  0  0  0  0  0  0  0  0
   22.7652   33.1047  -21.3544 O   0  0  0  0  0  0  0  0  0  0  0  0
   21.1524   33.1483  -21.3432 P   0  0  0  0  0  0  0  0  0  0  0  0
   20.5363   32.1183  -22.2628 O   0  0  0  0  0  0  0  0  0  0  0  0
   20.6805   32.9485  -19.9267 O   0  0  0  0  0  0  0  0  0  0  0  0
   20.8793   32.0420  -19.6445 H   0  0  0  0  0  0  0  0  0  0  0  0
   20.8852   34.6163  -21.9438 O   0  0  0  0  0  0  0  0  0  0  0  0
   19.4023   35.1697  -22.1564 P   0  0  0  0  0  0  0  0  0  0  0  0
   18.5546   34.6563  -21.0084 O   0  0  0  0  0  0  0  0  0  0  0  0
   18.9073   34.6873  -23.5013 O   0  0  0  0  0  0  0  0  0  0  0  0
   18.8384   33.7198  -23.4925 H   0  0  0  0  0  0  0  0  0  0  0  0
   19.5464   36.7912  -22.0874 O   0  0  0  0  0  0  0  0  0  0  0  0
   19.2051   37.7228  -20.8030 P   0  0  0  0  0  0  0  0  0  0  0  0
   19.6601   39.1280  -21.1010 O   0  0  0  0  0  0  0  0  0  0  0  0
   19.9533   37.2504  -19.5770 O   0  0  0  0  0  0  0  0  0  0  0  0
   17.7074   37.7701  -20.5512 O   0  0  0  0  0  0  0  0  0  0  0  0
   20.9044   37.2302  -19.7664 H   0  0  0  0  0  0  0  0  0  0  0  0
   17.2543   38.0758  -21.3525 H   0  0  0  0  0  0  0  0  0  0  0  0
 10 11  1  0  0  0
 10 15  1  0  0  0
 10  1  1  0  0  0
 11 12  1  0  0  0
 11 16  2  0  0  0
 12 13  2  0  0  0
 13 14  1  0  0  0
 13 17  1  0  0  0
 14 15  2  0  0  0
  1  2  1  0  0  0
  1  6  1  0  0  0
  2  3  1  0  0  0
  2  4  1  0  0  0
  4  5  1  0  0  0
  4  7  1  0  0  0
  5  6  1  0  0  0
  5 20  1  0  0  0
 20 21  1  0  0  0
 21 22  1  0  0  0
 22 23  2  0  0  0
 22 24  1  0  0  0
 22 26  1  0  0  0
 26 27  1  0  0  0
 27 28  2  0  0  0
 27 29  1  0  0  0
 27 31  1  0  0  0
 31 32  1  0  0  0
 32 33  2  0  0  0
 32 34  1  0  0  0
 32 35  1  0  0  0
 17 18  1  0  0  0
 17 19  1  0  0  0
  3  8  1  0  0  0
  7  9  1  0  0  0
 24 25  1  0  0  0
 29 30  1  0  0  0
 34 36  1  0  0  0
 35 37  1  0  0  0
M  END
> <minimizedAffinity>
-8.67304

$$$$
4WOP_CTP_A_301


 37 38  0  0  0  0  0  0  0  0999 V2000
   22.9123   33.9457  -21.4301 C   0  0  0  0  0  0  0  0  0  0  0  0
   21.6005   34.0491  -20.6672 C   0  0  0  0  0  0  0  0  0  0  0  0
   21.1400   32.8056  -20.2042 O   0  0  0  0  0  0  0  0  0  0  0  0
   20.6399   34.6686  -21.6604 C   0  0  0  0  0  0  0  0  0  0  0  0
   21.5491   35.4162  -22.6257 C   0  0  0  0  0  0  0  0  0  0  0  0
   22.8527   34.8839  -22.4897 O   0  0  0  0  0  0  0  0  0  0  0  0
   19.8786   33.6833  -22.3277 O   0  0  0  0  0  0  0  0  0  0  0  0
   21.0145   32.2066  -20.9567 H   0  0  0  0  0  0  0  0  0  0  0  0
   20.4744   33.0643  -22.7780 H   0  0  0  0  0  0  0  0  0  0  0  0
   24.0573   34.2328  -20.5341 N   0  0  0  0  0  0  0  0  0  0  0  0
   24.6760   33.1741  -19.9020 C   0  0  0  0  0  0  0  0  0  0  0  0
   25.6633   33.4143  -18.9733 N   0  0  0  0  0  0  0  0  0  0  0  0
   26.3177   34.6268  -19.0043 C   0  0  0  0  0  0  0  0  0  0  0  0
   25.8495   35.6382  -19.8416 C   0  0  0  0  0  0  0  0  0  0  0  0
   24.6874   35.4427  -20.5774 C   0  0  0  0  0  0  0  0  0  0  0  0
   24.3436   32.0221  -20.1762 O   0  0  0  0  0  0  0  0  0  0  0  0
   27.3871   34.8217  -18.2351 N   0  0  0  0  0  0  0  0  0  0  0  0
   27.7089   34.1002  -17.6475 H   0  0  0  0  0  0  0  0  0  0  0  0
   27.8560   35.6872  -18.2539 H   0  0  0  0  0  0  0  0  0  0  0  0
   21.5992   36.9101  -22.3070 C   0  0  0  0  0  0  0  0  0  0  0  0
   21.2963   37.1001  -20.9334 O   0  0  0  0  0  0  0  0  0  0  0  0
   20.0259   37.9708  -20.4528 P   0  0  0  0  0  0  0  0  0  0  0  0
   18.7654   37.6305  -21.2154 O   0  0  0  0  0  0  0  0  0  0  0  0
   19.8304   37.7525  -18.9753 O   0  0  0  0  0  0  0  0  0  0  0  0
   19.5445   36.8389  -18.8184 H   0  0  0  0  0  0  0  0  0  0  0  0
   20.5029   39.4520  -20.8597 O   0  0  0  0  0  0  0  0  0  0  0  0
   21.8030   40.1141  -20.2101 P   0  0  0  0  0  0  0  0  0  0  0  0
   22.7094   40.5493  -21.3456 O   0  0  0  0  0  0  0  0  0  0  0  0
   22.4551   39.0883  -19.3106 O   0  0  0  0  0  0  0  0  0  0  0  0
   22.7677   38.3416  -19.8452 H   0  0  0  0  0  0  0  0  0  0  0  0
   21.2483   41.4060  -19.3868 O   0  0  0  0  0  0  0  0  0  0  0  0
   20.6757   41.3923  -17.8682 P   0  0  0  0  0  0  0  0  0  0  0  0
   19.2904   41.9848  -17.8775 O   0  0  0  0  0  0  0  0  0  0  0  0
   21.5314   42.2449  -16.9589 O   0  0  0  0  0  0  0  0  0  0  0  0
   20.5621   39.9702  -17.3454 O   0  0  0  0  0  0  0  0  0  0  0  0
   21.5860   43.1449  -17.3165 H   0  0  0  0  0  0  0  0  0  0  0  0
   20.0091   39.4477  -17.9471 H   0  0  0  0  0  0  0  0  0  0  0  0
 10 11  1  0  0  0
 10 15  1  0  0  0
 10  1  1  0  0  0
 11 12  1  0  0  0
 11 16  2  0  0  0
 12 13  2  0  0  0
 13 14  1  0  0  0
 13 17  1  0  0  0
 14 15  2  0  0  0
  1  2  1  0  0  0
  1  6  1  0  0  0
  2  3  1  0  0  0
  2  4  1  0  0  0
  4  5  1  0  0  0
  4  7  1  0  0  0
  5  6  1  0  0  0
  5 20  1  0  0  0
 20 21  1  0  0  0
 21 22  1  0  0  0
 22 23  2  0  0  0
 22 24  1  0  0  0
 22 26  1  0  0  0
 26 27  1  0  0  0
 27 28  2  0  0  0
 27 29  1  0  0  0
 27 31  1  0  0  0
 31 32  1  0  0  0
 32 33  2  0  0  0
 32 34  1  0  0  0
 32 35  1  0  0  0
 17 18  1  0  0  0
 17 19  1  0  0  0
  3  8  1  0  0  0
  7  9  1  0  0  0
 24 25  1  0  0  0
 29 30  1  0  0  0
 34 36  1  0  0  0
 35 37  1  0  0  0
M  END
> <minimizedAffinity>
-8.35888

$$$$
4WOP_CTP_A_301


 37 38  0  0  0  0  0  0  0  0999 V2000
   20.1091   35.3437  -21.4271 C   0  0  0  0  0  0  0  0  0  0  0  0
   20.5978   33.9034  -21.4336 C   0  0  0  0  0  0  0  0  0  0  0  0
   19.9334   33.0983  -20.4939 O   0  0  0  0  0  0  0  0  0  0  0  0
   22.0781   34.0110  -21.1333 C   0  0  0  0  0  0  0  0  0  0  0  0
   22.4372   35.4206  -21.5823 C   0  0  0  0  0  0  0  0  0  0  0  0
   21.2382   36.1674  -21.6575 O   0  0  0  0  0  0  0  0  0  0  0  0
   22.3420   33.8252  -19.7579 O   0  0  0  0  0  0  0  0  0  0  0  0
   20.0622   33.4652  -19.6052 H   0  0  0  0  0  0  0  0  0  0  0  0
   21.8461   34.4802  -19.2421 H   0  0  0  0  0  0  0  0  0  0  0  0
   19.0831   35.5479  -22.4768 N   0  0  0  0  0  0  0  0  0  0  0  0
   17.7563   35.5736  -22.1000 C   0  0  0  0  0  0  0  0  0  0  0  0
   16.7734   35.6419  -23.0613 N   0  0  0  0  0  0  0  0  0  0  0  0
   17.1047   36.1188  -24.3112 C   0  0  0  0  0  0  0  0  0  0  0  0
   18.4436   36.3444  -24.6271 C   0  0  0  0  0  0  0  0  0  0  0  0
   19.4340   36.0157  -23.7101 C   0  0  0  0  0  0  0  0  0  0  0  0
   17.4611   35.5395  -20.9065 O   0  0  0  0  0  0  0  0  0  0  0  0
   16.1460   36.3573  -25.2042 N   0  0  0  0  0  0  0  0  0  0  0  0
   15.2037   36.1943  -24.9702 H   0  0  0  0  0  0  0  0  0  0  0  0
   16.3795   36.6967  -26.0984 H   0  0  0  0  0  0  0  0  0  0  0  0
   23.0959   35.4200  -22.9614 C   0  0  0  0  0  0  0  0  0  0  0  0
   24.2355   34.5743  -22.9288 O   0  0  0  0  0  0  0  0  0  0  0  0
   25.7274   35.1446  -23.1568 P   0  0  0  0  0  0  0  0  0  0  0  0
   26.0237   35.4334  -24.6111 O   0  0  0  0  0  0  0  0  0  0  0  0
   25.8952   36.3869  -22.3217 O   0  0  0  0  0  0  0  0  0  0  0  0
   25.3319   37.0929  -22.6756 H   0  0  0  0  0  0  0  0  0  0  0  0
   26.6085   33.8861  -22.6806 O   0  0  0  0  0  0  0  0  0  0  0  0
   26.6367   33.4221  -21.1526 P   0  0  0  0  0  0  0  0  0  0  0  0
   27.7068   32.3557  -21.0191 O   0  0  0  0  0  0  0  0  0  0  0  0
   25.2611   32.9093  -20.7901 O   0  0  0  0  0  0  0  0  0  0  0  0
   25.0639   32.1159  -21.3122 H   0  0  0  0  0  0  0  0  0  0  0  0
   27.0467   34.7590  -20.3164 O   0  0  0  0  0  0  0  0  0  0  0  0
   26.3131   35.3047  -18.9754 P   0  0  0  0  0  0  0  0  0  0  0  0
   25.9057   36.7369  -19.2062 O   0  0  0  0  0  0  0  0  0  0  0  0
   27.2568   35.2825  -17.7944 O   0  0  0  0  0  0  0  0  0  0  0  0
   25.0504   34.5100  -18.6876 O   0  0  0  0  0  0  0  0  0  0  0  0
   28.0518   35.7964  -18.0061 H   0  0  0  0  0  0  0  0  0  0  0  0
   24.4652   34.5417  -19.4606 H   0  0  0  0  0  0  0  0  0  0  0  0
 10 11  1  0  0  0
 10 15  1  0  0  0
 10  1  1  0  0  0
 11 12  1  0  0  0
 11 16  2  0  0  0
 12 13  2  0  0  0
 13 14  1  0  0  0
 13 17  1  0  0  0
 14 15  2  0  0  0
  1  2  1  0  0  0
  1  6  1  0  0  0
  2  3  1  0  0  0
  2  4  1  0  0  0
  4  5  1  0  0  0
  4  7  1  0  0  0
  5  6  1  0  0  0
  5 20  1  0  0  0
 20 21  1  0  0  0
 21 22  1  0  0  0
 22 23  2  0  0  0
 22 24  1  0  0  0
 22 26  1  0  0  0
 26 27  1  0  0  0
 27 28  2  0  0  0
 27 29  1  0  0  0
 27 31  1  0  0  0
 31 32  1  0  0  0
 32 33  2  0  0  0
 32 34  1  0  0  0
 32 35  1  0  0  0
 17 18  1  0  0  0
 17 19  1  0  0  0
  3  8  1  0  0  0
  7  9  1  0  0  0
 24 25  1  0  0  0
 29 30  1  0  0  0
 34 36  1  0  0  0
 35 37  1  0  0  0
M  END
> <minimizedAffinity>
-8.33039

$$$$
4WOP_CTP_A_301


 37 38  0  0  0  0  0  0  0  0999 V2000
   25.8599   35.5531  -21.0229 C   0  0  0  0  0  0  0  0  0  0  0  0
   25.7471   35.7106  -19.5143 C   0  0  0  0  0  0  0  0  0  0  0  0
   26.9761   36.0109  -18.9043 O   0  0  0  0  0  0  0  0  0  0  0  0
   25.1960   34.3818  -19.0414 C   0  0  0  0  0  0  0  0  0  0  0  0
   24.4770   33.8316  -20.2652 C   0  0  0  0  0  0  0  0  0  0  0  0
   24.9752   34.5133  -21.4002 O   0  0  0  0  0  0  0  0  0  0  0  0
   26.2278   33.5152  -18.6167 O   0  0  0  0  0  0  0  0  0  0  0  0
   27.6130   35.3047  -19.0954 H   0  0  0  0  0  0  0  0  0  0  0  0
   26.8553   33.3790  -19.3438 H   0  0  0  0  0  0  0  0  0  0  0  0
   25.5066   36.8207  -21.7044 N   0  0  0  0  0  0  0  0  0  0  0  0
   26.2429   37.1985  -22.8082 C   0  0  0  0  0  0  0  0  0  0  0  0
   26.0196   38.4248  -23.3923 N   0  0  0  0  0  0  0  0  0  0  0  0
   24.8136   39.0531  -23.1678 C   0  0  0  0  0  0  0  0  0  0  0  0
   23.9328   38.5302  -22.2224 C   0  0  0  0  0  0  0  0  0  0  0  0
   24.3089   37.4292  -21.4631 C   0  0  0  0  0  0  0  0  0  0  0  0
   27.0912   36.4343  -23.2653 O   0  0  0  0  0  0  0  0  0  0  0  0
   24.5021   40.1518  -23.8527 N   0  0  0  0  0  0  0  0  0  0  0  0
   25.1319   40.5123  -24.5181 H   0  0  0  0  0  0  0  0  0  0  0  0
   23.6420   40.6037  -23.6937 H   0  0  0  0  0  0  0  0  0  0  0  0
   22.9688   34.0645  -20.1824 C   0  0  0  0  0  0  0  0  0  0  0  0
   22.2979   32.9613  -20.7720 O   0  0  0  0  0  0  0  0  0  0  0  0
   20.9095   33.1375  -21.5746 P   0  0  0  0  0  0  0  0  0  0  0  0
   20.5542   31.9192  -22.3967 O   0  0  0  0  0  0  0  0  0  0  0  0
   19.8206   33.4460  -20.5806 O   0  0  0  0  0  0  0  0  0  0  0  0
   19.6584   32.6665  -20.0264 H   0  0  0  0  0  0  0  0  0  0  0  0
   21.2838   34.3488  -22.5644 O   0  0  0  0  0  0  0  0  0  0  0  0
   20.4255   35.6955  -22.5912 P   0  0  0  0  0  0  0  0  0  0  0  0
   20.9223   36.5301  -23.7560 O   0  0  0  0  0  0  0  0  0  0  0  0
   20.6032   36.3943  -21.2620 O   0  0  0  0  0  0  0  0  0  0  0  0
   21.5294   36.6634  -21.1594 H   0  0  0  0  0  0  0  0  0  0  0  0
   18.8909   35.2093  -22.8426 O   0  0  0  0  0  0  0  0  0  0  0  0
   17.5737   35.7916  -22.0941 P   0  0  0  0  0  0  0  0  0  0  0  0
   17.8746   37.1908  -21.6230 O   0  0  0  0  0  0  0  0  0  0  0  0
   17.2317   34.9629  -20.8766 O   0  0  0  0  0  0  0  0  0  0  0  0
   16.3982   35.8741  -23.0533 O   0  0  0  0  0  0  0  0  0  0  0  0
   17.9985   34.9277  -20.2836 H   0  0  0  0  0  0  0  0  0  0  0  0
   16.6458   36.4103  -23.8228 H   0  0  0  0  0  0  0  0  0  0  0  0
 10 11  1  0  0  0
 10 15  1  0  0  0
 10  1  1  0  0  0
 11 12  1  0  0  0
 11 16  2  0  0  0
 12 13  2  0  0  0
 13 14  1  0  0  0
 13 17  1  0  0  0
 14 15  2  0  0  0
  1  2  1  0  0  0
  1  6  1  0  0  0
  2  3  1  0  0  0
  2  4  1  0  0  0
  4  5  1  0  0  0
  4  7  1  0  0  0
  5  6  1  0  0  0
  5 20  1  0  0  0
 20 21  1  0  0  0
 21 22  1  0  0  0
 22 23  2  0  0  0
 22 24  1  0  0  0
 22 26  1  0  0  0
 26 27  1  0  0  0
 27 28  2  0  0  0
 27 29  1  0  0  0
 27 31  1  0  0  0
 31 32  1  0  0  0
 32 33  2  0  0  0
 32 34  1  0  0  0
 32 35  1  0  0  0
 17 18  1  0  0  0
 17 19  1  0  0  0
  3  8  1  0  0  0
  7  9  1  0  0  0
 24 25  1  0  0  0
 29 30  1  0  0  0
 34 36  1  0  0  0
 35 37  1  0  0  0
M  END
> <minimizedAffinity>
-8.31229

$$$$
4WOP_CTP_A_301


 37 38  0  0  0  0  0  0  0  0999 V2000
   20.8911   35.4085  -20.7329 C   0  0  0  0  0  0  0  0  0  0  0  0
   20.8872   34.7848  -22.1201 C   0  0  0  0  0  0  0  0  0  0  0  0
   19.6193   34.8071  -22.7241 O   0  0  0  0  0  0  0  0  0  0  0  0
   21.3757   33.3695  -21.8935 C   0  0  0  0  0  0  0  0  0  0  0  0
   22.1793   33.4659  -20.6042 C   0  0  0  0  0  0  0  0  0  0  0  0
   21.7844   34.6496  -19.9378 O   0  0  0  0  0  0  0  0  0  0  0  0
   20.2985   32.4648  -21.7631 O   0  0  0  0  0  0  0  0  0  0  0  0
   18.9871   34.3270  -22.1666 H   0  0  0  0  0  0  0  0  0  0  0  0
   19.7281   32.7447  -21.0302 H   0  0  0  0  0  0  0  0  0  0  0  0
   21.3194   36.8255  -20.8028 N   0  0  0  0  0  0  0  0  0  0  0  0
   20.4113   37.8026  -20.4508 C   0  0  0  0  0  0  0  0  0  0  0  0
   20.7359   39.1299  -20.6171 N   0  0  0  0  0  0  0  0  0  0  0  0
   22.0666   39.4782  -20.7033 C   0  0  0  0  0  0  0  0  0  0  0  0
   23.0327   38.4784  -20.8040 C   0  0  0  0  0  0  0  0  0  0  0  0
   22.6425   37.1480  -20.8935 C   0  0  0  0  0  0  0  0  0  0  0  0
   19.3190   37.4803  -19.9864 O   0  0  0  0  0  0  0  0  0  0  0  0
   22.4166   40.7631  -20.6914 N   0  0  0  0  0  0  0  0  0  0  0  0
   21.7258   41.4608  -20.6199 H   0  0  0  0  0  0  0  0  0  0  0  0
   23.3662   41.0152  -20.7542 H   0  0  0  0  0  0  0  0  0  0  0  0
   23.6801   33.5431  -20.8823 C   0  0  0  0  0  0  0  0  0  0  0  0
   24.3817   33.4943  -19.6493 O   0  0  0  0  0  0  0  0  0  0  0  0
   25.5383   34.5580  -19.2836 P   0  0  0  0  0  0  0  0  0  0  0  0
   25.1957   35.3967  -18.0731 O   0  0  0  0  0  0  0  0  0  0  0  0
   26.8249   33.8060  -19.0644 O   0  0  0  0  0  0  0  0  0  0  0  0
   26.7534   33.2711  -18.2583 H   0  0  0  0  0  0  0  0  0  0  0  0
   25.5160   35.4915  -20.5933 O   0  0  0  0  0  0  0  0  0  0  0  0
   26.7442   36.4467  -20.9539 P   0  0  0  0  0  0  0  0  0  0  0  0
   27.8970   35.5629  -21.3899 O   0  0  0  0  0  0  0  0  0  0  0  0
   27.0772   37.2691  -19.7294 O   0  0  0  0  0  0  0  0  0  0  0  0
   27.3864   36.6833  -19.0208 H   0  0  0  0  0  0  0  0  0  0  0  0
   26.2148   37.3591  -22.1957 O   0  0  0  0  0  0  0  0  0  0  0  0
   25.7894   36.8132  -23.6637 P   0  0  0  0  0  0  0  0  0  0  0  0
   26.8428   37.2400  -24.6529 O   0  0  0  0  0  0  0  0  0  0  0  0
   24.4756   37.4166  -24.1063 O   0  0  0  0  0  0  0  0  0  0  0  0
   25.7329   35.2949  -23.6813 O   0  0  0  0  0  0  0  0  0  0  0  0
   24.5407   38.3841  -24.0852 H   0  0  0  0  0  0  0  0  0  0  0  0
   26.5870   34.9362  -23.3936 H   0  0  0  0  0  0  0  0  0  0  0  0
 10 11  1  0  0  0
 10 15  1  0  0  0
 10  1  1  0  0  0
 11 12  1  0  0  0
 11 16  2  0  0  0
 12 13  2  0  0  0
 13 14  1  0  0  0
 13 17  1  0  0  0
 14 15  2  0  0  0
  1  2  1  0  0  0
  1  6  1  0  0  0
  2  3  1  0  0  0
  2  4  1  0  0  0
  4  5  1  0  0  0
  4  7  1  0  0  0
  5  6  1  0  0  0
  5 20  1  0  0  0
 20 21  1  0  0  0
 21 22  1  0  0  0
 22 23  2  0  0  0
 22 24  1  0  0  0
 22 26  1  0  0  0
 26 27  1  0  0  0
 27 28  2  0  0  0
 27 29  1  0  0  0
 27 31  1  0  0  0
 31 32  1  0  0  0
 32 33  2  0  0  0
 32 34  1  0  0  0
 32 35  1  0  0  0
 17 18  1  0  0  0
 17 19  1  0  0  0
  3  8  1  0  0  0
  7  9  1  0  0  0
 24 25  1  0  0  0
 29 30  1  0  0  0
 34 36  1  0  0  0
 35 37  1  0  0  0
M  END
> <minimizedAffinity>
-8.16254

$$$$
4WOP_CTP_A_301


 37 38  0  0  0  0  0  0  0  0999 V2000
   22.8677   36.1479  -23.7439 C   0  0  0  0  0  0  0  0  0  0  0  0
   23.1305   37.3119  -24.6870 C   0  0  0  0  0  0  0  0  0  0  0  0
   22.2550   37.3319  -25.7851 O   0  0  0  0  0  0  0  0  0  0  0  0
   24.5691   37.1230  -25.1199 C   0  0  0  0  0  0  0  0  0  0  0  0
   25.1836   36.3092  -23.9897 C   0  0  0  0  0  0  0  0  0  0  0  0
   24.1266   35.7025  -23.2715 O   0  0  0  0  0  0  0  0  0  0  0  0
   24.6529   36.4383  -26.3528 O   0  0  0  0  0  0  0  0  0  0  0  0
   22.3419   36.5040  -26.2830 H   0  0  0  0  0  0  0  0  0  0  0  0
   24.2096   35.5790  -26.2762 H   0  0  0  0  0  0  0  0  0  0  0  0
   22.0030   36.5766  -22.6194 N   0  0  0  0  0  0  0  0  0  0  0  0
   21.2819   35.6141  -21.9436 C   0  0  0  0  0  0  0  0  0  0  0  0
   20.3801   35.9901  -20.9739 N   0  0  0  0  0  0  0  0  0  0  0  0
   20.5189   37.2303  -20.3889 C   0  0  0  0  0  0  0  0  0  0  0  0
   21.4406   38.1363  -20.9112 C   0  0  0  0  0  0  0  0  0  0  0  0
   22.1536   37.8117  -22.0584 C   0  0  0  0  0  0  0  0  0  0  0  0
   21.4532   34.4256  -22.2096 O   0  0  0  0  0  0  0  0  0  0  0  0
   19.7721   37.5520  -19.3342 N   0  0  0  0  0  0  0  0  0  0  0  0
   19.1243   36.9042  -18.9737 H   0  0  0  0  0  0  0  0  0  0  0  0
   19.8679   38.4376  -18.9149 H   0  0  0  0  0  0  0  0  0  0  0  0
   25.9786   37.1930  -23.0291 C   0  0  0  0  0  0  0  0  0  0  0  0
   25.6846   36.8067  -21.6953 O   0  0  0  0  0  0  0  0  0  0  0  0
   26.8315   36.7020  -20.5654 P   0  0  0  0  0  0  0  0  0  0  0  0
   28.1202   37.3752  -20.9805 O   0  0  0  0  0  0  0  0  0  0  0  0
   26.3012   37.3055  -19.2912 O   0  0  0  0  0  0  0  0  0  0  0  0
   26.1920   38.2623  -19.4076 H   0  0  0  0  0  0  0  0  0  0  0  0
   27.0620   35.1110  -20.5147 O   0  0  0  0  0  0  0  0  0  0  0  0
   26.7944   34.2747  -19.1807 P   0  0  0  0  0  0  0  0  0  0  0  0
   27.4351   35.0301  -18.0322 O   0  0  0  0  0  0  0  0  0  0  0  0
   27.3826   32.8937  -19.3639 O   0  0  0  0  0  0  0  0  0  0  0  0
   28.3460   32.9620  -19.4540 H   0  0  0  0  0  0  0  0  0  0  0  0
   25.1731   34.2483  -19.0209 O   0  0  0  0  0  0  0  0  0  0  0  0
   24.1393   33.4092  -19.9490 P   0  0  0  0  0  0  0  0  0  0  0  0
   24.4462   31.9421  -19.7954 O   0  0  0  0  0  0  0  0  0  0  0  0
   24.3128   33.7622  -21.4088 O   0  0  0  0  0  0  0  0  0  0  0  0
   22.7055   33.6272  -19.4954 O   0  0  0  0  0  0  0  0  0  0  0  0
   25.2352   33.6137  -21.6699 H   0  0  0  0  0  0  0  0  0  0  0  0
   22.6240   33.3933  -18.5575 H   0  0  0  0  0  0  0  0  0  0  0  0
 10 11  1  0  0  0
 10 15  1  0  0  0
 10  1  1  0  0  0
 11 12  1  0  0  0
 11 16  2  0  0  0
 12 13  2  0  0  0
 13 14  1  0  0  0
 13 17  1  0  0  0
 14 15  2  0  0  0
  1  2  1  0  0  0
  1  6  1  0  0  0
  2  3  1  0  0  0
  2  4  1  0  0  0
  4  5  1  0  0  0
  4  7  1  0  0  0
  5  6  1  0  0  0
  5 20  1  0  0  0
 20 21  1  0  0  0
 21 22  1  0  0  0
 22 23  2  0  0  0
 22 24  1  0  0  0
 22 26  1  0  0  0
 26 27  1  0  0  0
 27 28  2  0  0  0
 27 29  1  0  0  0
 27 31  1  0  0  0
 31 32  1  0  0  0
 32 33  2  0  0  0
 32 34  1  0  0  0
 32 35  1  0  0  0
 17 18  1  0  0  0
 17 19  1  0  0  0
  3  8  1  0  0  0
  7  9  1  0  0  0
 24 25  1  0  0  0
 29 30  1  0  0  0
 34 36  1  0  0  0
 35 37  1  0  0  0
M  END
> <minimizedAffinity>
-8.11009

$$$$
