1W3J_OXZ_A_1447


 14 14  0  0  0  0  0  0  0  0999 V2000
   -2.2881   10.7509    8.8379 C   0  0  0  0  0  0  0  0  0  0  0  0
   -1.0707   10.7516    7.8837 C   0  0  0  0  0  0  0  0  0  0  0  0
   -0.1239   11.8929    8.3190 C   0  0  0  0  0  0  0  0  0  0  0  0
    0.3586   11.6658    9.7589 C   0  0  0  0  0  0  0  0  0  0  0  0
   -1.7938   10.4413   10.1350 O   0  0  0  0  0  0  0  0  0  0  0  0
   -1.4389   10.8993    6.5258 O   0  0  0  0  0  0  0  0  0  0  0  0
    1.0005   12.0818    7.4739 O   0  0  0  0  0  0  0  0  0  0  0  0
   -0.7715   11.4151   10.6641 N   0  0  0  0  0  0  0  0  0  0  0  0
   -1.8905   11.7491    6.4038 H   0  0  0  0  0  0  0  0  0  0  0  0
    1.5649   11.2935    7.5057 H   0  0  0  0  0  0  0  0  0  0  0  0
   -1.2401   12.3034   10.8419 H   0  0  0  0  0  0  0  0  0  0  0  0
   -3.3245    9.6882    8.4510 C   0  0  0  0  0  0  0  0  0  0  0  0
   -2.9114    8.3813    8.8522 O   0  0  0  0  0  0  0  0  0  0  0  0
   -2.0792    8.1547    8.4083 H   0  0  0  0  0  0  0  0  0  0  0  0
 12  1  1  0  0  0
 12 13  1  0  0  0
  1  2  1  0  0  0
  1  5  1  0  0  0
  2  3  1  0  0  0
  2  6  1  0  0  0
  3  4  1  0  0  0
  3  7  1  0  0  0
  4  8  1  0  0  0
  5  8  1  0  0  0
 13 14  1  0  0  0
  6  9  1  0  0  0
  7 10  1  0  0  0
  8 11  1  0  0  0
M  END
> <minimizedAffinity>
-6.62328

$$$$
1W3J_OXZ_A_1447


 14 14  0  0  0  0  0  0  0  0999 V2000
   -1.5010    9.9078    8.8396 C   0  0  0  0  0  0  0  0  0  0  0  0
   -1.1425   11.0231    9.8495 C   0  0  0  0  0  0  0  0  0  0  0  0
    0.2284   11.6107    9.4450 C   0  0  0  0  0  0  0  0  0  0  0  0
    0.1571   12.2075    8.0320 C   0  0  0  0  0  0  0  0  0  0  0  0
   -1.6480   10.5334    7.5709 O   0  0  0  0  0  0  0  0  0  0  0  0
   -1.1130   10.5626   11.1868 O   0  0  0  0  0  0  0  0  0  0  0  0
    0.7394   12.5870   10.3393 O   0  0  0  0  0  0  0  0  0  0  0  0
   -0.4145   11.2469    7.0782 N   0  0  0  0  0  0  0  0  0  0  0  0
   -0.4349    9.8750   11.2772 H   0  0  0  0  0  0  0  0  0  0  0  0
    0.1532   13.3598   10.3436 H   0  0  0  0  0  0  0  0  0  0  0  0
    0.2960   10.5460    6.8678 H   0  0  0  0  0  0  0  0  0  0  0  0
   -2.8232    9.2139    9.1907 C   0  0  0  0  0  0  0  0  0  0  0  0
   -3.9461    9.9362    8.6835 O   0  0  0  0  0  0  0  0  0  0  0  0
   -3.9658   10.8220    9.0782 H   0  0  0  0  0  0  0  0  0  0  0  0
 12  1  1  0  0  0
 12 13  1  0  0  0
  1  2  1  0  0  0
  1  5  1  0  0  0
  2  3  1  0  0  0
  2  6  1  0  0  0
  3  4  1  0  0  0
  3  7  1  0  0  0
  4  8  1  0  0  0
  5  8  1  0  0  0
 13 14  1  0  0  0
  6  9  1  0  0  0
  7 10  1  0  0  0
  8 11  1  0  0  0
M  END
> <minimizedAffinity>
-6.55620

$$$$
1W3J_OXZ_A_1447


 14 14  0  0  0  0  0  0  0  0999 V2000
   -0.4939   10.9798    9.2362 C   0  0  0  0  0  0  0  0  0  0  0  0
   -1.8444   10.5150    8.6425 C   0  0  0  0  0  0  0  0  0  0  0  0
   -2.1389    9.0962    9.1800 C   0  0  0  0  0  0  0  0  0  0  0  0
   -2.2366    9.1158   10.7123 C   0  0  0  0  0  0  0  0  0  0  0  0
   -0.6732   11.0715   10.6441 O   0  0  0  0  0  0  0  0  0  0  0  0
   -1.8535   10.5245    7.2279 O   0  0  0  0  0  0  0  0  0  0  0  0
   -3.3068    8.4930    8.6451 O   0  0  0  0  0  0  0  0  0  0  0  0
   -1.0691    9.7781   11.3102 N   0  0  0  0  0  0  0  0  0  0  0  0
   -1.1770    9.9136    6.8961 H   0  0  0  0  0  0  0  0  0  0  0  0
   -4.0865    9.0040    8.9132 H   0  0  0  0  0  0  0  0  0  0  0  0
   -0.2774    9.1372   11.2567 H   0  0  0  0  0  0  0  0  0  0  0  0
   -0.0775   12.3602    8.7127 C   0  0  0  0  0  0  0  0  0  0  0  0
    0.6755   12.2579    7.5034 O   0  0  0  0  0  0  0  0  0  0  0  0
    1.4854   11.7503    7.6688 H   0  0  0  0  0  0  0  0  0  0  0  0
 12  1  1  0  0  0
 12 13  1  0  0  0
  1  2  1  0  0  0
  1  5  1  0  0  0
  2  3  1  0  0  0
  2  6  1  0  0  0
  3  4  1  0  0  0
  3  7  1  0  0  0
  4  8  1  0  0  0
  5  8  1  0  0  0
 13 14  1  0  0  0
  6  9  1  0  0  0
  7 10  1  0  0  0
  8 11  1  0  0  0
M  END
> <minimizedAffinity>
-6.49182

$$$$
1W3J_OXZ_A_1447


 14 14  0  0  0  0  0  0  0  0999 V2000
   -1.2805    9.6406    8.9564 C   0  0  0  0  0  0  0  0  0  0  0  0
   -0.7824    9.9525   10.3872 C   0  0  0  0  0  0  0  0  0  0  0  0
   -0.8044    8.6367   11.1976 C   0  0  0  0  0  0  0  0  0  0  0  0
    0.1224    7.5967   10.5516 C   0  0  0  0  0  0  0  0  0  0  0  0
   -0.3346    8.7511    8.3763 O   0  0  0  0  0  0  0  0  0  0  0  0
   -1.5539   10.9481   11.0312 O   0  0  0  0  0  0  0  0  0  0  0  0
   -0.4617    8.7811   12.5672 O   0  0  0  0  0  0  0  0  0  0  0  0
   -0.1628    7.4495    9.1176 N   0  0  0  0  0  0  0  0  0  0  0  0
   -2.4708   10.6431   11.1146 H   0  0  0  0  0  0  0  0  0  0  0  0
    0.4589    9.0779   12.6406 H   0  0  0  0  0  0  0  0  0  0  0  0
   -1.0228    6.9103    9.0177 H   0  0  0  0  0  0  0  0  0  0  0  0
   -1.3559   10.9000    8.0839 C   0  0  0  0  0  0  0  0  0  0  0  0
   -0.9270   10.6389    6.7469 O   0  0  0  0  0  0  0  0  0  0  0  0
   -0.0033   10.3429    6.7557 H   0  0  0  0  0  0  0  0  0  0  0  0
 12  1  1  0  0  0
 12 13  1  0  0  0
  1  2  1  0  0  0
  1  5  1  0  0  0
  2  3  1  0  0  0
  2  6  1  0  0  0
  3  4  1  0  0  0
  3  7  1  0  0  0
  4  8  1  0  0  0
  5  8  1  0  0  0
 13 14  1  0  0  0
  6  9  1  0  0  0
  7 10  1  0  0  0
  8 11  1  0  0  0
M  END
> <minimizedAffinity>
-6.10704

$$$$
1W3J_OXZ_A_1447


 14 14  0  0  0  0  0  0  0  0999 V2000
   -1.6252   10.2228   10.3439 C   0  0  0  0  0  0  0  0  0  0  0  0
   -1.3962    9.7529    8.8882 C   0  0  0  0  0  0  0  0  0  0  0  0
   -1.1452   11.0043    8.0167 C   0  0  0  0  0  0  0  0  0  0  0  0
    0.0988   11.7572    8.5100 C   0  0  0  0  0  0  0  0  0  0  0  0
   -0.4118   10.8243   10.7778 O   0  0  0  0  0  0  0  0  0  0  0  0
   -2.4796    8.9992    8.3787 O   0  0  0  0  0  0  0  0  0  0  0  0
   -1.0115   10.7401    6.6288 O   0  0  0  0  0  0  0  0  0  0  0  0
    0.0281   12.0094    9.9559 N   0  0  0  0  0  0  0  0  0  0  0  0
   -3.2802    9.5469    8.3731 H   0  0  0  0  0  0  0  0  0  0  0  0
   -0.2228   10.1960    6.4777 H   0  0  0  0  0  0  0  0  0  0  0  0
   -0.6330   12.7698   10.1145 H   0  0  0  0  0  0  0  0  0  0  0  0
   -1.9467    9.0541   11.2841 C   0  0  0  0  0  0  0  0  0  0  0  0
   -1.2754    9.1885   12.5374 O   0  0  0  0  0  0  0  0  0  0  0  0
   -0.3164    9.1927   12.3918 H   0  0  0  0  0  0  0  0  0  0  0  0
 12  1  1  0  0  0
 12 13  1  0  0  0
  1  2  1  0  0  0
  1  5  1  0  0  0
  2  3  1  0  0  0
  2  6  1  0  0  0
  3  4  1  0  0  0
  3  7  1  0  0  0
  4  8  1  0  0  0
  5  8  1  0  0  0
 13 14  1  0  0  0
  6  9  1  0  0  0
  7 10  1  0  0  0
  8 11  1  0  0  0
M  END
> <minimizedAffinity>
-6.07248

$$$$
1W3J_OXZ_A_1447


 14 14  0  0  0  0  0  0  0  0999 V2000
   -0.7862   11.1300    9.4967 C   0  0  0  0  0  0  0  0  0  0  0  0
   -0.5038    9.6225    9.2967 C   0  0  0  0  0  0  0  0  0  0  0  0
   -1.7828    8.8428    9.6768 C   0  0  0  0  0  0  0  0  0  0  0  0
   -2.9526    9.2651    8.7763 C   0  0  0  0  0  0  0  0  0  0  0  0
   -1.8076   11.4834    8.5723 O   0  0  0  0  0  0  0  0  0  0  0  0
    0.6016    9.1670   10.0529 O   0  0  0  0  0  0  0  0  0  0  0  0
   -1.6476    7.4307    9.6355 O   0  0  0  0  0  0  0  0  0  0  0  0
   -3.0999   10.7268    8.7479 N   0  0  0  0  0  0  0  0  0  0  0  0
    0.4219    9.2949   10.9975 H   0  0  0  0  0  0  0  0  0  0  0  0
   -1.4723    7.1492    8.7239 H   0  0  0  0  0  0  0  0  0  0  0  0
   -3.5240   11.0212    9.6276 H   0  0  0  0  0  0  0  0  0  0  0  0
    0.4480   11.9926    9.2040 C   0  0  0  0  0  0  0  0  0  0  0  0
    0.7406   12.0337    7.8068 O   0  0  0  0  0  0  0  0  0  0  0  0
    0.9276   11.1365    7.4891 H   0  0  0  0  0  0  0  0  0  0  0  0
 12  1  1  0  0  0
 12 13  1  0  0  0
  1  2  1  0  0  0
  1  5  1  0  0  0
  2  3  1  0  0  0
  2  6  1  0  0  0
  3  4  1  0  0  0
  3  7  1  0  0  0
  4  8  1  0  0  0
  5  8  1  0  0  0
 13 14  1  0  0  0
  6  9  1  0  0  0
  7 10  1  0  0  0
  8 11  1  0  0  0
M  END
> <minimizedAffinity>
-5.79167

$$$$
1W3J_OXZ_A_1447


 14 14  0  0  0  0  0  0  0  0999 V2000
   -0.4043   10.6737    9.3189 C   0  0  0  0  0  0  0  0  0  0  0  0
   -0.5723    9.1480    9.1282 C   0  0  0  0  0  0  0  0  0  0  0  0
   -0.4532    8.4777   10.5157 C   0  0  0  0  0  0  0  0  0  0  0  0
   -1.5513    8.9970   11.4551 C   0  0  0  0  0  0  0  0  0  0  0  0
   -1.4989   11.1119   10.1142 O   0  0  0  0  0  0  0  0  0  0  0  0
    0.3713    8.6011    8.2272 O   0  0  0  0  0  0  0  0  0  0  0  0
   -0.4917    7.0592   10.4913 O   0  0  0  0  0  0  0  0  0  0  0  0
   -1.5827   10.4660   11.4739 N   0  0  0  0  0  0  0  0  0  0  0  0
    1.2669    8.7429    8.5715 H   0  0  0  0  0  0  0  0  0  0  0  0
   -1.3583    6.7647   10.1702 H   0  0  0  0  0  0  0  0  0  0  0  0
   -0.7941   10.7941   12.0315 H   0  0  0  0  0  0  0  0  0  0  0  0
   -0.4446   11.4302    7.9850 C   0  0  0  0  0  0  0  0  0  0  0  0
   -0.9344   10.6046    6.9277 O   0  0  0  0  0  0  0  0  0  0  0  0
   -0.3465    9.8414    6.8145 H   0  0  0  0  0  0  0  0  0  0  0  0
 12  1  1  0  0  0
 12 13  1  0  0  0
  1  2  1  0  0  0
  1  5  1  0  0  0
  2  3  1  0  0  0
  2  6  1  0  0  0
  3  4  1  0  0  0
  3  7  1  0  0  0
  4  8  1  0  0  0
  5  8  1  0  0  0
 13 14  1  0  0  0
  6  9  1  0  0  0
  7 10  1  0  0  0
  8 11  1  0  0  0
M  END
> <minimizedAffinity>
-5.56405

$$$$
1W3J_OXZ_A_1447


 14 14  0  0  0  0  0  0  0  0999 V2000
   -1.7513    8.5459   10.2486 C   0  0  0  0  0  0  0  0  0  0  0  0
   -0.6345    9.6024   10.0784 C   0  0  0  0  0  0  0  0  0  0  0  0
   -0.5090    9.9259    8.5724 C   0  0  0  0  0  0  0  0  0  0  0  0
   -1.8316   10.4928    8.0365 C   0  0  0  0  0  0  0  0  0  0  0  0
   -2.9641    9.1579    9.8279 O   0  0  0  0  0  0  0  0  0  0  0  0
    0.6083    9.1754   10.6023 O   0  0  0  0  0  0  0  0  0  0  0  0
    0.5472   10.8158    8.2458 O   0  0  0  0  0  0  0  0  0  0  0  0
   -2.9640    9.6279    8.3953 N   0  0  0  0  0  0  0  0  0  0  0  0
    0.9017    8.3799   10.1310 H   0  0  0  0  0  0  0  0  0  0  0  0
    0.3781   11.6808    8.6508 H   0  0  0  0  0  0  0  0  0  0  0  0
   -2.9413    8.8066    7.7908 H   0  0  0  0  0  0  0  0  0  0  0  0
   -1.9141    8.1079   11.7096 C   0  0  0  0  0  0  0  0  0  0  0  0
   -1.3738    9.0749   12.6111 O   0  0  0  0  0  0  0  0  0  0  0  0
   -0.4248    9.1810   12.4406 H   0  0  0  0  0  0  0  0  0  0  0  0
 12  1  1  0  0  0
 12 13  1  0  0  0
  1  2  1  0  0  0
  1  5  1  0  0  0
  2  3  1  0  0  0
  2  6  1  0  0  0
  3  4  1  0  0  0
  3  7  1  0  0  0
  4  8  1  0  0  0
  5  8  1  0  0  0
 13 14  1  0  0  0
  6  9  1  0  0  0
  7 10  1  0  0  0
  8 11  1  0  0  0
M  END
> <minimizedAffinity>
-5.52485

$$$$
1W3J_OXZ_A_1447


 14 14  0  0  0  0  0  0  0  0999 V2000
   -2.3264    9.3199    9.5390 C   0  0  0  0  0  0  0  0  0  0  0  0
   -1.3615   10.4088    9.0138 C   0  0  0  0  0  0  0  0  0  0  0  0
   -0.0670   10.3455    9.8555 C   0  0  0  0  0  0  0  0  0  0  0  0
    0.5951    8.9674    9.7132 C   0  0  0  0  0  0  0  0  0  0  0  0
   -1.7035    8.0652    9.2937 O   0  0  0  0  0  0  0  0  0  0  0  0
   -1.9230   11.7065    9.0588 O   0  0  0  0  0  0  0  0  0  0  0  0
    0.8842   11.3542    9.5525 O   0  0  0  0  0  0  0  0  0  0  0  0
   -0.3674    7.8870    9.9692 N   0  0  0  0  0  0  0  0  0  0  0  0
   -2.1313   11.9370    9.9777 H   0  0  0  0  0  0  0  0  0  0  0  0
    1.1990   11.2388    8.6423 H   0  0  0  0  0  0  0  0  0  0  0  0
   -0.5243    7.8323   10.9756 H   0  0  0  0  0  0  0  0  0  0  0  0
   -3.6740    9.3403    8.8063 C   0  0  0  0  0  0  0  0  0  0  0  0
   -3.5755   10.0017    7.5443 O   0  0  0  0  0  0  0  0  0  0  0  0
   -3.3025   10.9222    7.6821 H   0  0  0  0  0  0  0  0  0  0  0  0
 12  1  1  0  0  0
 12 13  1  0  0  0
  1  2  1  0  0  0
  1  5  1  0  0  0
  2  3  1  0  0  0
  2  6  1  0  0  0
  3  4  1  0  0  0
  3  7  1  0  0  0
  4  8  1  0  0  0
  5  8  1  0  0  0
 13 14  1  0  0  0
  6  9  1  0  0  0
  7 10  1  0  0  0
  8 11  1  0  0  0
M  END
> <minimizedAffinity>
-5.48829

$$$$
1W3J_OXZ_A_1447


 14 14  0  0  0  0  0  0  0  0999 V2000
   -0.7885    8.5274   10.7244 C   0  0  0  0  0  0  0  0  0  0  0  0
   -0.1428    8.8105    9.3477 C   0  0  0  0  0  0  0  0  0  0  0  0
   -1.0889    9.7446    8.5599 C   0  0  0  0  0  0  0  0  0  0  0  0
   -1.2811   11.0685    9.3137 C   0  0  0  0  0  0  0  0  0  0  0  0
   -0.8522    9.7704   11.4124 O   0  0  0  0  0  0  0  0  0  0  0  0
    0.1198    7.6308    8.6125 O   0  0  0  0  0  0  0  0  0  0  0  0
   -0.6748   10.0198    7.2307 O   0  0  0  0  0  0  0  0  0  0  0  0
   -1.6626   10.8321   10.7129 N   0  0  0  0  0  0  0  0  0  0  0  0
   -0.7134    7.1651    8.4401 H   0  0  0  0  0  0  0  0  0  0  0  0
    0.1636   10.5072    7.2476 H   0  0  0  0  0  0  0  0  0  0  0  0
   -2.6423   10.5491   10.7323 H   0  0  0  0  0  0  0  0  0  0  0  0
    0.0474    7.5537   11.5650 C   0  0  0  0  0  0  0  0  0  0  0  0
    1.4467    7.7923   11.4081 O   0  0  0  0  0  0  0  0  0  0  0  0
    1.6943    7.6648   10.4789 H   0  0  0  0  0  0  0  0  0  0  0  0
 12  1  1  0  0  0
 12 13  1  0  0  0
  1  2  1  0  0  0
  1  5  1  0  0  0
  2  3  1  0  0  0
  2  6  1  0  0  0
  3  4  1  0  0  0
  3  7  1  0  0  0
  4  8  1  0  0  0
  5  8  1  0  0  0
 13 14  1  0  0  0
  6  9  1  0  0  0
  7 10  1  0  0  0
  8 11  1  0  0  0
M  END
> <minimizedAffinity>
-5.42439

$$$$
