5IA5_GV0_A_1001


 49 54  0  0  0  0  0  0  0  0999 V2000
   17.9474   -7.4931  104.5572 C   0  0  0  0  0  0  0  0  0  0  0  0
   18.3955   -6.5062  105.4276 C   0  0  0  0  0  0  0  0  0  0  0  0
   19.0885   -6.8577  106.5791 C   0  0  0  0  0  0  0  0  0  0  0  0
   19.4919   -5.8934  107.3950 F   0  0  0  0  0  0  0  0  0  0  0  0
   18.2472   -8.8282  104.8542 C   0  0  0  0  0  0  0  0  0  0  0  0
   18.9485   -9.1883  106.0140 C   0  0  0  0  0  0  0  0  0  0  0  0
   19.3884   -8.1836  106.8900 C   0  0  0  0  0  0  0  0  0  0  0  0
   20.0525   -8.3601  108.0584 N   0  0  0  0  0  0  0  0  0  0  0  0
   21.3833   -8.6020  108.1322 C   0  0  0  0  0  0  0  0  0  0  0  0
   22.1462   -8.6485  107.1625 O   0  0  0  0  0  0  0  0  0  0  0  0
   19.5405   -8.3097  108.8979 H   0  0  0  0  0  0  0  0  0  0  0  0
   21.9733   -8.7971  109.5409 C   0  0  0  0  0  0  0  0  0  0  0  0
   23.4099   -9.3829  109.6010 C   0  0  0  0  0  0  0  0  0  0  0  0
   22.2305  -10.2670  109.9937 C   0  0  0  0  0  0  0  0  0  0  0  0
   21.5236   -7.7963  110.6245 C   0  0  0  0  0  0  0  0  0  0  0  0
   20.6728   -6.9309  110.3773 O   0  0  0  0  0  0  0  0  0  0  0  0
   22.1472   -7.9624  111.8248 N   0  0  0  0  0  0  0  0  0  0  0  0
   22.8079   -8.6852  111.9266 H   0  0  0  0  0  0  0  0  0  0  0  0
   21.8801   -7.1571  112.8820 C   0  0  0  0  0  0  0  0  0  0  0  0
   22.9357   -6.5399  113.5246 C   0  0  0  0  0  0  0  0  0  0  0  0
   22.6949   -5.7193  114.6257 C   0  0  0  0  0  0  0  0  0  0  0  0
   21.4035   -5.5427  115.1071 C   0  0  0  0  0  0  0  0  0  0  0  0
   21.1770   -4.7289  116.1854 F   0  0  0  0  0  0  0  0  0  0  0  0
   20.3351   -6.1691  114.4882 C   0  0  0  0  0  0  0  0  0  0  0  0
   20.5865   -6.9933  113.3924 C   0  0  0  0  0  0  0  0  0  0  0  0
   17.2649   -7.1251  103.4200 O   0  0  0  0  0  0  0  0  0  0  0  0
   13.9848   -5.6061  102.6711 C   0  0  0  0  0  0  0  0  0  0  0  0
   15.2979   -6.0715  102.5376 C   0  0  0  0  0  0  0  0  0  0  0  0
   13.3414   -5.8154  103.8283 N   0  0  0  0  0  0  0  0  0  0  0  0
   13.9650   -6.4390  104.9076 C   0  0  0  0  0  0  0  0  0  0  0  0
   15.2804   -6.8618  104.7930 C   0  0  0  0  0  0  0  0  0  0  0  0
   15.9580   -6.6927  103.5909 C   0  0  0  0  0  0  0  0  0  0  0  0
   11.8435   -2.9123   97.3699 C   0  0  0  0  0  0  0  0  0  0  0  0
   12.3476   -1.8276   98.3203 C   0  0  0  0  0  0  0  0  0  0  0  0
   13.4795   -2.4250   99.1053 C   0  0  0  0  0  0  0  0  0  0  0  0
   11.2415   -4.0912   98.1677 C   0  0  0  0  0  0  0  0  0  0  0  0
   11.6619   -4.1302   99.6512 C   0  0  0  0  0  0  0  0  0  0  0  0
   12.9864   -3.5501   99.9179 N   0  0  0  0  0  0  0  0  0  0  0  0
   13.7750   -4.0045  100.9110 C   0  0  0  0  0  0  0  0  0  0  0  0
   14.8712   -3.4677  101.0867 O   0  0  0  0  0  0  0  0  0  0  0  0
   13.2891   -5.0054  101.6694 N   0  0  0  0  0  0  0  0  0  0  0  0
   12.3746   -5.3214  101.4875 H   0  0  0  0  0  0  0  0  0  0  0  0
   11.2726   -1.2659   95.5004 C   0  0  0  0  0  0  0  0  0  0  0  0
   10.7576    0.0601   96.1163 C   0  0  0  0  0  0  0  0  0  0  0  0
    9.3192    0.0015   96.4295 N   0  0  0  0  0  0  0  0  0  0  0  0
    8.9102    1.2457   97.1045 C   0  0  0  0  0  0  0  0  0  0  0  0
    9.0799   -1.1406   97.3226 C   0  0  0  0  0  0  0  0  0  0  0  0
    9.4823   -2.4492   96.6370 C   0  0  0  0  0  0  0  0  0  0  0  0
   10.9162   -2.4721   96.2869 N   0  0  0  0  0  0  0  0  0  0  0  0
 43 44  1  0  0  0
 43 49  1  0  0  0
 44 45  1  0  0  0
 49 48  1  0  0  0
 49 33  1  0  0  0
 45 46  1  0  0  0
 45 47  1  0  0  0
 48 47  1  0  0  0
 33 34  1  0  0  0
 33 36  1  0  0  0
 34 35  1  0  0  0
 36 37  1  0  0  0
 35 38  1  0  0  0
 38 37  1  0  0  0
 38 39  1  0  0  0
 40 39  2  0  0  0
 39 41  1  0  0  0
 41 27  1  0  0  0
 28 27  2  0  0  0
 28 32  1  0  0  0
 27 29  1  0  0  0
 26 32  1  0  0  0
 26  1  1  0  0  0
 32 31  2  0  0  0
 29 30  2  0  0  0
  1  5  2  0  0  0
  1  2  1  0  0  0
  5  6  1  0  0  0
 31 30  1  0  0  0
  2  3  2  0  0  0
  6  7  2  0  0  0
  3  7  1  0  0  0
  3  4  1  0  0  0
  7  8  1  0  0  0
 10  9  2  0  0  0
  8  9  1  0  0  0
  9 12  1  0  0  0
 13 12  1  0  0  0
 13 14  1  0  0  0
 12 14  1  0  0  0
 12 15  1  0  0  0
 16 15  2  0  0  0
 15 17  1  0  0  0
 17 19  1  0  0  0
 19 25  2  0  0  0
 19 20  1  0  0  0
 25 24  1  0  0  0
 20 21  2  0  0  0
 24 22  2  0  0  0
 21 22  1  0  0  0
 22 23  1  0  0  0
 41 42  1  0  0  0
  8 11  1  0  0  0
 17 18  1  0  0  0
M  END
> <minimizedAffinity>
-12.93771

$$$$
5IA5_GV0_A_1001


 49 54  0  0  0  0  0  0  0  0999 V2000
   17.9621   -7.5596  104.5590 C   0  0  0  0  0  0  0  0  0  0  0  0
   18.3806   -6.5630  105.4331 C   0  0  0  0  0  0  0  0  0  0  0  0
   19.0783   -6.8983  106.5865 C   0  0  0  0  0  0  0  0  0  0  0  0
   19.4529   -5.9253  107.4059 F   0  0  0  0  0  0  0  0  0  0  0  0
   18.2961   -8.8869  104.8546 C   0  0  0  0  0  0  0  0  0  0  0  0
   19.0022   -9.2306  106.0165 C   0  0  0  0  0  0  0  0  0  0  0  0
   19.4120   -8.2165  106.8961 C   0  0  0  0  0  0  0  0  0  0  0  0
   20.0761   -8.3776  108.0667 N   0  0  0  0  0  0  0  0  0  0  0  0
   21.4123   -8.5858  108.1451 C   0  0  0  0  0  0  0  0  0  0  0  0
   22.1797   -8.6116  107.1781 O   0  0  0  0  0  0  0  0  0  0  0  0
   19.5600   -8.3414  108.9043 H   0  0  0  0  0  0  0  0  0  0  0  0
   22.0020   -8.7678  109.5556 C   0  0  0  0  0  0  0  0  0  0  0  0
   23.4527   -9.3171  109.6204 C   0  0  0  0  0  0  0  0  0  0  0  0
   22.2948  -10.2314  110.0076 C   0  0  0  0  0  0  0  0  0  0  0  0
   21.5231   -7.7802  110.6389 C   0  0  0  0  0  0  0  0  0  0  0  0
   20.6519   -6.9361  110.3896 O   0  0  0  0  0  0  0  0  0  0  0  0
   22.1461   -7.9323  111.8414 N   0  0  0  0  0  0  0  0  0  0  0  0
   22.8244   -8.6384  111.9447 H   0  0  0  0  0  0  0  0  0  0  0  0
   21.8549   -7.1355  112.8987 C   0  0  0  0  0  0  0  0  0  0  0  0
   22.8959   -6.5300  113.5752 C   0  0  0  0  0  0  0  0  0  0  0  0
   22.6298   -5.7185  114.6772 C   0  0  0  0  0  0  0  0  0  0  0  0
   21.3268   -5.5395  115.1254 C   0  0  0  0  0  0  0  0  0  0  0  0
   21.0756   -4.7346  116.2049 F   0  0  0  0  0  0  0  0  0  0  0  0
   20.2722   -6.1543  114.4721 C   0  0  0  0  0  0  0  0  0  0  0  0
   20.5488   -6.9695  113.3756 C   0  0  0  0  0  0  0  0  0  0  0  0
   17.2745   -7.2076  103.4199 O   0  0  0  0  0  0  0  0  0  0  0  0
   14.0098   -5.6583  102.6656 C   0  0  0  0  0  0  0  0  0  0  0  0
   15.3145   -6.1465  102.5309 C   0  0  0  0  0  0  0  0  0  0  0  0
   13.3751   -5.8293  103.8337 N   0  0  0  0  0  0  0  0  0  0  0  0
   14.0002   -6.4356  104.9220 C   0  0  0  0  0  0  0  0  0  0  0  0
   15.3079   -6.8808  104.8052 C   0  0  0  0  0  0  0  0  0  0  0  0
   15.9759   -6.7515  103.5927 C   0  0  0  0  0  0  0  0  0  0  0  0
   11.8731   -3.0066   97.3413 C   0  0  0  0  0  0  0  0  0  0  0  0
   12.3417   -1.9121   98.2986 C   0  0  0  0  0  0  0  0  0  0  0  0
   13.4771   -2.4852   99.0966 C   0  0  0  0  0  0  0  0  0  0  0  0
   11.2877   -4.1994   98.1309 C   0  0  0  0  0  0  0  0  0  0  0  0
   11.6911   -4.2307   99.6193 C   0  0  0  0  0  0  0  0  0  0  0  0
   12.9993   -3.6218   99.9023 N   0  0  0  0  0  0  0  0  0  0  0  0
   13.7857   -4.0598  100.9044 C   0  0  0  0  0  0  0  0  0  0  0  0
   14.8676   -3.4992  101.0937 O   0  0  0  0  0  0  0  0  0  0  0  0
   13.3130   -5.0720  101.6561 N   0  0  0  0  0  0  0  0  0  0  0  0
   12.4079   -5.4079  101.4630 H   0  0  0  0  0  0  0  0  0  0  0  0
    9.8995   -3.5366   95.8066 C   0  0  0  0  0  0  0  0  0  0  0  0
   10.3590   -4.5038   94.6857 C   0  0  0  0  0  0  0  0  0  0  0  0
   10.9747   -3.7866   93.5556 N   0  0  0  0  0  0  0  0  0  0  0  0
   11.4835   -4.7590   92.5726 C   0  0  0  0  0  0  0  0  0  0  0  0
   12.0904   -2.9777   94.0655 C   0  0  0  0  0  0  0  0  0  0  0  0
   11.5845   -1.9468   95.0784 C   0  0  0  0  0  0  0  0  0  0  0  0
   10.9492   -2.5858   96.2477 N   0  0  0  0  0  0  0  0  0  0  0  0
 43 44  1  0  0  0
 43 49  1  0  0  0
 44 45  1  0  0  0
 49 48  1  0  0  0
 49 33  1  0  0  0
 45 46  1  0  0  0
 45 47  1  0  0  0
 48 47  1  0  0  0
 33 34  1  0  0  0
 33 36  1  0  0  0
 34 35  1  0  0  0
 36 37  1  0  0  0
 35 38  1  0  0  0
 38 37  1  0  0  0
 38 39  1  0  0  0
 40 39  2  0  0  0
 39 41  1  0  0  0
 41 27  1  0  0  0
 28 27  2  0  0  0
 28 32  1  0  0  0
 27 29  1  0  0  0
 26 32  1  0  0  0
 26  1  1  0  0  0
 32 31  2  0  0  0
 29 30  2  0  0  0
  1  5  2  0  0  0
  1  2  1  0  0  0
  5  6  1  0  0  0
 31 30  1  0  0  0
  2  3  2  0  0  0
  6  7  2  0  0  0
  3  7  1  0  0  0
  3  4  1  0  0  0
  7  8  1  0  0  0
 10  9  2  0  0  0
  8  9  1  0  0  0
  9 12  1  0  0  0
 13 12  1  0  0  0
 13 14  1  0  0  0
 12 14  1  0  0  0
 12 15  1  0  0  0
 16 15  2  0  0  0
 15 17  1  0  0  0
 17 19  1  0  0  0
 19 25  2  0  0  0
 19 20  1  0  0  0
 25 24  1  0  0  0
 20 21  2  0  0  0
 24 22  2  0  0  0
 21 22  1  0  0  0
 22 23  1  0  0  0
 41 42  1  0  0  0
  8 11  1  0  0  0
 17 18  1  0  0  0
M  END
> <minimizedAffinity>
-12.92445

$$$$
5IA5_GV0_A_1001


 49 54  0  0  0  0  0  0  0  0999 V2000
   18.2277   -7.9012  104.5144 C   0  0  0  0  0  0  0  0  0  0  0  0
   18.6211   -6.8761  105.3670 C   0  0  0  0  0  0  0  0  0  0  0  0
   19.2720   -7.1738  106.5576 C   0  0  0  0  0  0  0  0  0  0  0  0
   19.6234   -6.1740  107.3547 F   0  0  0  0  0  0  0  0  0  0  0  0
   18.5393   -9.2191  104.8706 C   0  0  0  0  0  0  0  0  0  0  0  0
   19.1982   -9.5249  106.0702 C   0  0  0  0  0  0  0  0  0  0  0  0
   19.5828   -8.4820  106.9273 C   0  0  0  0  0  0  0  0  0  0  0  0
   20.2009   -8.6047  108.1275 N   0  0  0  0  0  0  0  0  0  0  0  0
   21.5463   -8.6682  108.2719 C   0  0  0  0  0  0  0  0  0  0  0  0
   22.3595   -8.5812  107.3469 O   0  0  0  0  0  0  0  0  0  0  0  0
   19.6424   -8.6501  108.9370 H   0  0  0  0  0  0  0  0  0  0  0  0
   22.0806   -8.8270  109.7071 C   0  0  0  0  0  0  0  0  0  0  0  0
   23.5258   -9.3793  109.8372 C   0  0  0  0  0  0  0  0  0  0  0  0
   22.3505  -10.2831  110.1956 C   0  0  0  0  0  0  0  0  0  0  0  0
   21.5641   -7.8189  110.7536 C   0  0  0  0  0  0  0  0  0  0  0  0
   20.6966   -6.9854  110.4597 O   0  0  0  0  0  0  0  0  0  0  0  0
   22.1510   -7.9416  111.9774 N   0  0  0  0  0  0  0  0  0  0  0  0
   22.8293   -8.6413  112.1166 H   0  0  0  0  0  0  0  0  0  0  0  0
   21.8237   -7.1237  113.0078 C   0  0  0  0  0  0  0  0  0  0  0  0
   20.4872   -6.9311  113.2987 C   0  0  0  0  0  0  0  0  0  0  0  0
   20.1182   -6.0825  114.3415 C   0  0  0  0  0  0  0  0  0  0  0  0
   21.0825   -5.3986  115.0715 C   0  0  0  0  0  0  0  0  0  0  0  0
   20.7096   -4.5724  116.0985 F   0  0  0  0  0  0  0  0  0  0  0  0
   22.4262   -5.5635  114.7815 C   0  0  0  0  0  0  0  0  0  0  0  0
   22.7851   -6.4086  113.7325 C   0  0  0  0  0  0  0  0  0  0  0  0
   17.5866   -7.5864  103.3380 O   0  0  0  0  0  0  0  0  0  0  0  0
   14.8761   -5.2548  102.4194 C   0  0  0  0  0  0  0  0  0  0  0  0
   16.0192   -6.0594  102.3534 C   0  0  0  0  0  0  0  0  0  0  0  0
   14.1486   -5.2597  103.5453 N   0  0  0  0  0  0  0  0  0  0  0  0
   14.5312   -6.0068  104.6581 C   0  0  0  0  0  0  0  0  0  0  0  0
   15.6872   -6.7707  104.6108 C   0  0  0  0  0  0  0  0  0  0  0  0
   16.4388   -6.8145  103.4419 C   0  0  0  0  0  0  0  0  0  0  0  0
   11.7126   -1.6130   98.3360 C   0  0  0  0  0  0  0  0  0  0  0  0
   11.4114   -3.0816   98.0422 C   0  0  0  0  0  0  0  0  0  0  0  0
   11.4696   -3.8111   99.3532 C   0  0  0  0  0  0  0  0  0  0  0  0
   13.1592   -1.4527   98.8560 C   0  0  0  0  0  0  0  0  0  0  0  0
   13.7949   -2.7612   99.3686 C   0  0  0  0  0  0  0  0  0  0  0  0
   12.8295   -3.7276   99.9128 N   0  0  0  0  0  0  0  0  0  0  0  0
   13.1539   -4.5716  100.9112 C   0  0  0  0  0  0  0  0  0  0  0  0
   12.2996   -5.3637  101.3155 O   0  0  0  0  0  0  0  0  0  0  0  0
   14.4143   -4.5089  101.3808 N   0  0  0  0  0  0  0  0  0  0  0  0
   15.0394   -3.8850  100.9456 H   0  0  0  0  0  0  0  0  0  0  0  0
   12.5629   -0.1611   96.4123 C   0  0  0  0  0  0  0  0  0  0  0  0
   13.2688    1.0953   96.9834 C   0  0  0  0  0  0  0  0  0  0  0  0
   12.3124    2.1703   97.2996 N   0  0  0  0  0  0  0  0  0  0  0  0
   13.0248    3.2941   97.9324 C   0  0  0  0  0  0  0  0  0  0  0  0
   11.3056    1.6431   98.2311 C   0  0  0  0  0  0  0  0  0  0  0  0
   10.5391    0.4831   97.5898 C   0  0  0  0  0  0  0  0  0  0  0  0
   11.4291   -0.6414   97.2395 N   0  0  0  0  0  0  0  0  0  0  0  0
 43 44  1  0  0  0
 43 49  1  0  0  0
 44 45  1  0  0  0
 49 48  1  0  0  0
 49 33  1  0  0  0
 45 46  1  0  0  0
 45 47  1  0  0  0
 48 47  1  0  0  0
 33 34  1  0  0  0
 33 36  1  0  0  0
 34 35  1  0  0  0
 36 37  1  0  0  0
 35 38  1  0  0  0
 38 37  1  0  0  0
 38 39  1  0  0  0
 40 39  2  0  0  0
 39 41  1  0  0  0
 41 27  1  0  0  0
 28 27  2  0  0  0
 28 32  1  0  0  0
 27 29  1  0  0  0
 26 32  1  0  0  0
 26  1  1  0  0  0
 32 31  2  0  0  0
 29 30  2  0  0  0
  1  5  2  0  0  0
  1  2  1  0  0  0
  5  6  1  0  0  0
 31 30  1  0  0  0
  2  3  2  0  0  0
  6  7  2  0  0  0
  3  7  1  0  0  0
  3  4  1  0  0  0
  7  8  1  0  0  0
 10  9  2  0  0  0
  8  9  1  0  0  0
  9 12  1  0  0  0
 13 12  1  0  0  0
 13 14  1  0  0  0
 12 14  1  0  0  0
 12 15  1  0  0  0
 16 15  2  0  0  0
 15 17  1  0  0  0
 17 19  1  0  0  0
 19 25  2  0  0  0
 19 20  1  0  0  0
 25 24  1  0  0  0
 20 21  2  0  0  0
 24 22  2  0  0  0
 21 22  1  0  0  0
 22 23  1  0  0  0
 41 42  1  0  0  0
  8 11  1  0  0  0
 17 18  1  0  0  0
M  END
> <minimizedAffinity>
-12.44061

$$$$
5IA5_GV0_A_1001


 49 54  0  0  0  0  0  0  0  0999 V2000
   17.6135   -7.5487  104.2410 C   0  0  0  0  0  0  0  0  0  0  0  0
   17.7929   -6.6413  105.2787 C   0  0  0  0  0  0  0  0  0  0  0  0
   18.5459   -6.9970  106.3905 C   0  0  0  0  0  0  0  0  0  0  0  0
   18.6881   -6.1131  107.3687 F   0  0  0  0  0  0  0  0  0  0  0  0
   18.2393   -8.7978  104.3341 C   0  0  0  0  0  0  0  0  0  0  0  0
   19.0025   -9.1611  105.4531 C   0  0  0  0  0  0  0  0  0  0  0  0
   19.1694   -8.2397  106.4987 C   0  0  0  0  0  0  0  0  0  0  0  0
   19.8501   -8.4384  107.6540 N   0  0  0  0  0  0  0  0  0  0  0  0
   21.1977   -8.5610  107.7154 C   0  0  0  0  0  0  0  0  0  0  0  0
   21.9591   -8.4662  106.7480 O   0  0  0  0  0  0  0  0  0  0  0  0
   19.3379   -8.4967  108.4928 H   0  0  0  0  0  0  0  0  0  0  0  0
   21.8070   -8.8025  109.1086 C   0  0  0  0  0  0  0  0  0  0  0  0
   23.2330   -9.4164  109.1298 C   0  0  0  0  0  0  0  0  0  0  0  0
   22.0436  -10.2880  109.5202 C   0  0  0  0  0  0  0  0  0  0  0  0
   21.3944   -7.8211  110.2243 C   0  0  0  0  0  0  0  0  0  0  0  0
   20.5233   -6.9633  110.0266 O   0  0  0  0  0  0  0  0  0  0  0  0
   22.0729   -7.9948  111.3933 N   0  0  0  0  0  0  0  0  0  0  0  0
   22.7459   -8.7105  111.4561 H   0  0  0  0  0  0  0  0  0  0  0  0
   21.8438   -7.2062  112.4719 C   0  0  0  0  0  0  0  0  0  0  0  0
   22.9282   -6.7176  113.1744 C   0  0  0  0  0  0  0  0  0  0  0  0
   22.7251   -5.9180  114.2983 C   0  0  0  0  0  0  0  0  0  0  0  0
   21.4390   -5.6351  114.7417 C   0  0  0  0  0  0  0  0  0  0  0  0
   21.2503   -4.8428  115.8431 F   0  0  0  0  0  0  0  0  0  0  0  0
   20.3401   -6.1324  114.0622 C   0  0  0  0  0  0  0  0  0  0  0  0
   20.5533   -6.9368  112.9437 C   0  0  0  0  0  0  0  0  0  0  0  0
   16.8665   -7.1771  103.1464 O   0  0  0  0  0  0  0  0  0  0  0  0
   16.9227   -4.2258  100.9296 C   0  0  0  0  0  0  0  0  0  0  0  0
   16.4705   -5.2884  101.7202 C   0  0  0  0  0  0  0  0  0  0  0  0
   18.2401   -3.9886  100.8610 N   0  0  0  0  0  0  0  0  0  0  0  0
   19.1631   -4.8013  101.5171 C   0  0  0  0  0  0  0  0  0  0  0  0
   18.7207   -5.8812  102.2655 C   0  0  0  0  0  0  0  0  0  0  0  0
   17.3573   -6.1262  102.3856 C   0  0  0  0  0  0  0  0  0  0  0  0
   14.1628    0.4046   97.6300 C   0  0  0  0  0  0  0  0  0  0  0  0
   14.1223    0.7503   99.1176 C   0  0  0  0  0  0  0  0  0  0  0  0
   15.3540    0.1572   99.7384 C   0  0  0  0  0  0  0  0  0  0  0  0
   14.0553   -1.1240   97.4284 C   0  0  0  0  0  0  0  0  0  0  0  0
   14.3709   -1.9515   98.6912 C   0  0  0  0  0  0  0  0  0  0  0  0
   15.3226   -1.3098   99.6102 N   0  0  0  0  0  0  0  0  0  0  0  0
   16.1714   -2.0280  100.3706 C   0  0  0  0  0  0  0  0  0  0  0  0
   16.9383   -1.4277  101.1271 O   0  0  0  0  0  0  0  0  0  0  0  0
   16.0986   -3.3688  100.2702 N   0  0  0  0  0  0  0  0  0  0  0  0
   15.4067   -3.7517   99.6838 H   0  0  0  0  0  0  0  0  0  0  0  0
   13.6757    1.6178   95.4340 C   0  0  0  0  0  0  0  0  0  0  0  0
   14.2922    3.0393   95.4788 C   0  0  0  0  0  0  0  0  0  0  0  0
   13.4034    4.0060   96.1466 N   0  0  0  0  0  0  0  0  0  0  0  0
   14.0821    5.3095   96.2517 C   0  0  0  0  0  0  0  0  0  0  0  0
   13.0941    3.5059   97.4933 C   0  0  0  0  0  0  0  0  0  0  0  0
   12.3726    2.1580   97.4107 C   0  0  0  0  0  0  0  0  0  0  0  0
   13.1986    1.1279   96.7505 N   0  0  0  0  0  0  0  0  0  0  0  0
 43 44  1  0  0  0
 43 49  1  0  0  0
 44 45  1  0  0  0
 49 48  1  0  0  0
 49 33  1  0  0  0
 45 46  1  0  0  0
 45 47  1  0  0  0
 48 47  1  0  0  0
 33 34  1  0  0  0
 33 36  1  0  0  0
 34 35  1  0  0  0
 36 37  1  0  0  0
 35 38  1  0  0  0
 38 37  1  0  0  0
 38 39  1  0  0  0
 40 39  2  0  0  0
 39 41  1  0  0  0
 41 27  1  0  0  0
 28 27  2  0  0  0
 28 32  1  0  0  0
 27 29  1  0  0  0
 26 32  1  0  0  0
 26  1  1  0  0  0
 32 31  2  0  0  0
 29 30  2  0  0  0
  1  5  2  0  0  0
  1  2  1  0  0  0
  5  6  1  0  0  0
 31 30  1  0  0  0
  2  3  2  0  0  0
  6  7  2  0  0  0
  3  7  1  0  0  0
  3  4  1  0  0  0
  7  8  1  0  0  0
 10  9  2  0  0  0
  8  9  1  0  0  0
  9 12  1  0  0  0
 13 12  1  0  0  0
 13 14  1  0  0  0
 12 14  1  0  0  0
 12 15  1  0  0  0
 16 15  2  0  0  0
 15 17  1  0  0  0
 17 19  1  0  0  0
 19 25  2  0  0  0
 19 20  1  0  0  0
 25 24  1  0  0  0
 20 21  2  0  0  0
 24 22  2  0  0  0
 21 22  1  0  0  0
 22 23  1  0  0  0
 41 42  1  0  0  0
  8 11  1  0  0  0
 17 18  1  0  0  0
M  END
> <minimizedAffinity>
-12.15331

$$$$
5IA5_GV0_A_1001


 49 54  0  0  0  0  0  0  0  0999 V2000
   17.7594   -7.4788  104.1610 C   0  0  0  0  0  0  0  0  0  0  0  0
   18.1142   -8.7483  104.6027 C   0  0  0  0  0  0  0  0  0  0  0  0
   18.8141   -8.8994  105.7931 C   0  0  0  0  0  0  0  0  0  0  0  0
   19.1482  -10.1228  106.1807 F   0  0  0  0  0  0  0  0  0  0  0  0
   18.0906   -6.3792  104.9620 C   0  0  0  0  0  0  0  0  0  0  0  0
   18.7951   -6.5264  106.1656 C   0  0  0  0  0  0  0  0  0  0  0  0
   19.1556   -7.8125  106.5972 C   0  0  0  0  0  0  0  0  0  0  0  0
   19.8547   -8.1265  107.7152 N   0  0  0  0  0  0  0  0  0  0  0  0
   21.1759   -8.4255  107.7109 C   0  0  0  0  0  0  0  0  0  0  0  0
   21.8995   -8.4073  106.7106 O   0  0  0  0  0  0  0  0  0  0  0  0
   19.3770   -8.1379  108.5760 H   0  0  0  0  0  0  0  0  0  0  0  0
   21.8092   -8.7785  109.0691 C   0  0  0  0  0  0  0  0  0  0  0  0
   23.2062   -9.4537  109.0129 C   0  0  0  0  0  0  0  0  0  0  0  0
   21.9892  -10.2953  109.3835 C   0  0  0  0  0  0  0  0  0  0  0  0
   21.4699   -7.8506  110.2532 C   0  0  0  0  0  0  0  0  0  0  0  0
   20.5697   -7.0051  110.1610 O   0  0  0  0  0  0  0  0  0  0  0  0
   22.2439   -8.0547  111.3561 N   0  0  0  0  0  0  0  0  0  0  0  0
   22.9331   -8.7574  111.3356 H   0  0  0  0  0  0  0  0  0  0  0  0
   22.0881   -7.3140  112.4808 C   0  0  0  0  0  0  0  0  0  0  0  0
   23.2160   -6.9308  113.1800 C   0  0  0  0  0  0  0  0  0  0  0  0
   23.0878   -6.1831  114.3498 C   0  0  0  0  0  0  0  0  0  0  0  0
   21.8319   -5.8480  114.8407 C   0  0  0  0  0  0  0  0  0  0  0  0
   21.7171   -5.1073  115.9872 F   0  0  0  0  0  0  0  0  0  0  0  0
   20.6894   -6.2403  114.1642 C   0  0  0  0  0  0  0  0  0  0  0  0
   20.8275   -6.9936  112.9994 C   0  0  0  0  0  0  0  0  0  0  0  0
   17.0637   -7.3494  102.9806 O   0  0  0  0  0  0  0  0  0  0  0  0
   14.8861   -4.5870  101.8605 C   0  0  0  0  0  0  0  0  0  0  0  0
   15.9092   -5.5408  101.9063 C   0  0  0  0  0  0  0  0  0  0  0  0
   13.9731   -4.5735  102.8419 N   0  0  0  0  0  0  0  0  0  0  0  0
   14.0495   -5.4515  103.9218 C   0  0  0  0  0  0  0  0  0  0  0  0
   15.0870   -6.3683  103.9922 C   0  0  0  0  0  0  0  0  0  0  0  0
   16.0250   -6.4301  102.9678 C   0  0  0  0  0  0  0  0  0  0  0  0
   15.3765   -0.3772   97.1721 C   0  0  0  0  0  0  0  0  0  0  0  0
   15.1231    0.3578   98.4872 C   0  0  0  0  0  0  0  0  0  0  0  0
   15.7675   -0.4539   99.5734 C   0  0  0  0  0  0  0  0  0  0  0  0
   14.6589   -1.7461   97.1724 C   0  0  0  0  0  0  0  0  0  0  0  0
   14.2503   -2.2449   98.5735 C   0  0  0  0  0  0  0  0  0  0  0  0
   15.1245   -1.7763   99.6589 N   0  0  0  0  0  0  0  0  0  0  0  0
   15.3490   -2.5171  100.7614 C   0  0  0  0  0  0  0  0  0  0  0  0
   16.0862   -2.0613  101.6386 O   0  0  0  0  0  0  0  0  0  0  0  0
   14.7190   -3.7045  100.8399 N   0  0  0  0  0  0  0  0  0  0  0  0
   14.0999   -3.9484  100.1143 H   0  0  0  0  0  0  0  0  0  0  0  0
   14.5415   -0.3673   94.7566 C   0  0  0  0  0  0  0  0  0  0  0  0
   15.6304   -0.9640   93.8288 C   0  0  0  0  0  0  0  0  0  0  0  0
   16.6289    0.0432   93.4302 N   0  0  0  0  0  0  0  0  0  0  0  0
   17.6909   -0.6014   92.6381 C   0  0  0  0  0  0  0  0  0  0  0  0
   17.2126    0.6308   94.6439 C   0  0  0  0  0  0  0  0  0  0  0  0
   16.1301    1.3221   95.4774 C   0  0  0  0  0  0  0  0  0  0  0  0
   15.0845    0.3780   95.9187 N   0  0  0  0  0  0  0  0  0  0  0  0
 43 44  1  0  0  0
 43 49  1  0  0  0
 44 45  1  0  0  0
 49 48  1  0  0  0
 49 33  1  0  0  0
 45 46  1  0  0  0
 45 47  1  0  0  0
 48 47  1  0  0  0
 33 34  1  0  0  0
 33 36  1  0  0  0
 34 35  1  0  0  0
 36 37  1  0  0  0
 35 38  1  0  0  0
 38 37  1  0  0  0
 38 39  1  0  0  0
 40 39  2  0  0  0
 39 41  1  0  0  0
 41 27  1  0  0  0
 28 27  2  0  0  0
 28 32  1  0  0  0
 27 29  1  0  0  0
 26 32  1  0  0  0
 26  1  1  0  0  0
 32 31  2  0  0  0
 29 30  2  0  0  0
  1  5  2  0  0  0
  1  2  1  0  0  0
  5  6  1  0  0  0
 31 30  1  0  0  0
  2  3  2  0  0  0
  6  7  2  0  0  0
  3  7  1  0  0  0
  3  4  1  0  0  0
  7  8  1  0  0  0
 10  9  2  0  0  0
  8  9  1  0  0  0
  9 12  1  0  0  0
 13 12  1  0  0  0
 13 14  1  0  0  0
 12 14  1  0  0  0
 12 15  1  0  0  0
 16 15  2  0  0  0
 15 17  1  0  0  0
 17 19  1  0  0  0
 19 25  2  0  0  0
 19 20  1  0  0  0
 25 24  1  0  0  0
 20 21  2  0  0  0
 24 22  2  0  0  0
 21 22  1  0  0  0
 22 23  1  0  0  0
 41 42  1  0  0  0
  8 11  1  0  0  0
 17 18  1  0  0  0
M  END
> <minimizedAffinity>
-12.00768

$$$$
5IA5_GV0_A_1001


 49 54  0  0  0  0  0  0  0  0999 V2000
   18.1541   -7.7773  104.2957 C   0  0  0  0  0  0  0  0  0  0  0  0
   18.5990   -9.0121  104.7537 C   0  0  0  0  0  0  0  0  0  0  0  0
   19.2184   -9.1115  105.9931 C   0  0  0  0  0  0  0  0  0  0  0  0
   19.6422  -10.3017  106.3959 F   0  0  0  0  0  0  0  0  0  0  0  0
   18.3126   -6.6626  105.1282 C   0  0  0  0  0  0  0  0  0  0  0  0
   18.9351   -6.7579  106.3812 C   0  0  0  0  0  0  0  0  0  0  0  0
   19.3881   -8.0086  106.8293 C   0  0  0  0  0  0  0  0  0  0  0  0
   20.0283   -8.2691  107.9954 N   0  0  0  0  0  0  0  0  0  0  0  0
   21.3592   -8.5073  108.0799 C   0  0  0  0  0  0  0  0  0  0  0  0
   22.1432   -8.4748  107.1265 O   0  0  0  0  0  0  0  0  0  0  0  0
   19.4981   -8.2862  108.8247 H   0  0  0  0  0  0  0  0  0  0  0  0
   21.9203   -8.8052  109.4823 C   0  0  0  0  0  0  0  0  0  0  0  0
   23.3243   -9.4666  109.5264 C   0  0  0  0  0  0  0  0  0  0  0  0
   22.0965  -10.3078  109.8602 C   0  0  0  0  0  0  0  0  0  0  0  0
   21.5084   -7.8398  110.6123 C   0  0  0  0  0  0  0  0  0  0  0  0
   20.6151   -7.0001  110.4372 O   0  0  0  0  0  0  0  0  0  0  0  0
   22.2132   -8.0057  111.7667 N   0  0  0  0  0  0  0  0  0  0  0  0
   22.9028   -8.7069  111.8117 H   0  0  0  0  0  0  0  0  0  0  0  0
   21.9882   -7.2290  112.8547 C   0  0  0  0  0  0  0  0  0  0  0  0
   20.6840   -7.0229  113.2602 C   0  0  0  0  0  0  0  0  0  0  0  0
   20.4191   -6.2151  114.3652 C   0  0  0  0  0  0  0  0  0  0  0  0
   21.4543   -5.5845  115.0444 C   0  0  0  0  0  0  0  0  0  0  0  0
   21.1838   -4.7984  116.1331 F   0  0  0  0  0  0  0  0  0  0  0  0
   22.7664   -5.7632  114.6406 C   0  0  0  0  0  0  0  0  0  0  0  0
   23.0208   -6.5670  113.5302 C   0  0  0  0  0  0  0  0  0  0  0  0
   17.5403   -7.6991  103.0663 O   0  0  0  0  0  0  0  0  0  0  0  0
   17.0861   -4.2114  101.9452 C   0  0  0  0  0  0  0  0  0  0  0  0
   17.6710   -5.4442  102.2563 C   0  0  0  0  0  0  0  0  0  0  0  0
   15.7607   -4.0724  102.0885 N   0  0  0  0  0  0  0  0  0  0  0  0
   14.9676   -5.1069  102.5821 C   0  0  0  0  0  0  0  0  0  0  0  0
   15.5505   -6.3149  102.9327 C   0  0  0  0  0  0  0  0  0  0  0  0
   16.9174   -6.4990  102.7568 C   0  0  0  0  0  0  0  0  0  0  0  0
   21.2616    0.2197  100.2496 C   0  0  0  0  0  0  0  0  0  0  0  0
   20.4985    0.6909  101.4865 C   0  0  0  0  0  0  0  0  0  0  0  0
   20.1611   -0.5346  102.2856 C   0  0  0  0  0  0  0  0  0  0  0  0
   20.3497   -0.6453   99.3503 C   0  0  0  0  0  0  0  0  0  0  0  0
   19.0960   -1.1931  100.0626 C   0  0  0  0  0  0  0  0  0  0  0  0
   19.2699   -1.4109  101.5064 N   0  0  0  0  0  0  0  0  0  0  0  0
   18.6161   -2.3895  102.1618 C   0  0  0  0  0  0  0  0  0  0  0  0
   18.8004   -2.5125  103.3749 O   0  0  0  0  0  0  0  0  0  0  0  0
   17.7741   -3.1532  101.4401 N   0  0  0  0  0  0  0  0  0  0  0  0
   17.6490   -2.9318  100.4890 H   0  0  0  0  0  0  0  0  0  0  0  0
   22.4187    0.9311   98.0847 C   0  0  0  0  0  0  0  0  0  0  0  0
   23.8476    0.3319   98.0391 C   0  0  0  0  0  0  0  0  0  0  0  0
   24.8194    1.1654   98.7681 N   0  0  0  0  0  0  0  0  0  0  0  0
   26.1324    0.4970   98.7790 C   0  0  0  0  0  0  0  0  0  0  0  0
   24.3469    1.3376  100.1488 C   0  0  0  0  0  0  0  0  0  0  0  0
   22.9895    2.0458  100.1653 C   0  0  0  0  0  0  0  0  0  0  0  0
   21.9538    1.2733   99.4513 N   0  0  0  0  0  0  0  0  0  0  0  0
 43 44  1  0  0  0
 43 49  1  0  0  0
 44 45  1  0  0  0
 49 48  1  0  0  0
 49 33  1  0  0  0
 45 46  1  0  0  0
 45 47  1  0  0  0
 48 47  1  0  0  0
 33 34  1  0  0  0
 33 36  1  0  0  0
 34 35  1  0  0  0
 36 37  1  0  0  0
 35 38  1  0  0  0
 38 37  1  0  0  0
 38 39  1  0  0  0
 40 39  2  0  0  0
 39 41  1  0  0  0
 41 27  1  0  0  0
 28 27  2  0  0  0
 28 32  1  0  0  0
 27 29  1  0  0  0
 26 32  1  0  0  0
 26  1  1  0  0  0
 32 31  2  0  0  0
 29 30  2  0  0  0
  1  5  2  0  0  0
  1  2  1  0  0  0
  5  6  1  0  0  0
 31 30  1  0  0  0
  2  3  2  0  0  0
  6  7  2  0  0  0
  3  7  1  0  0  0
  3  4  1  0  0  0
  7  8  1  0  0  0
 10  9  2  0  0  0
  8  9  1  0  0  0
  9 12  1  0  0  0
 13 12  1  0  0  0
 13 14  1  0  0  0
 12 14  1  0  0  0
 12 15  1  0  0  0
 16 15  2  0  0  0
 15 17  1  0  0  0
 17 19  1  0  0  0
 19 25  2  0  0  0
 19 20  1  0  0  0
 25 24  1  0  0  0
 20 21  2  0  0  0
 24 22  2  0  0  0
 21 22  1  0  0  0
 22 23  1  0  0  0
 41 42  1  0  0  0
  8 11  1  0  0  0
 17 18  1  0  0  0
M  END
> <minimizedAffinity>
-11.96006

$$$$
5IA5_GV0_A_1001


 49 54  0  0  0  0  0  0  0  0999 V2000
   17.6666   -7.7369  104.4043 C   0  0  0  0  0  0  0  0  0  0  0  0
   17.8331   -6.8111  105.4278 C   0  0  0  0  0  0  0  0  0  0  0  0
   18.5956   -7.1369  106.5423 C   0  0  0  0  0  0  0  0  0  0  0  0
   18.7251   -6.2361  107.5068 F   0  0  0  0  0  0  0  0  0  0  0  0
   18.3146   -8.9733  104.5139 C   0  0  0  0  0  0  0  0  0  0  0  0
   19.0873   -9.3064  105.6358 C   0  0  0  0  0  0  0  0  0  0  0  0
   19.2411   -8.3667  106.6670 C   0  0  0  0  0  0  0  0  0  0  0  0
   19.9287   -8.5362  107.8228 N   0  0  0  0  0  0  0  0  0  0  0  0
   21.2789   -8.6279  107.8824 C   0  0  0  0  0  0  0  0  0  0  0  0
   22.0358   -8.5279  106.9119 O   0  0  0  0  0  0  0  0  0  0  0  0
   19.4198   -8.5957  108.6635 H   0  0  0  0  0  0  0  0  0  0  0  0
   21.8965   -8.8389  109.2768 C   0  0  0  0  0  0  0  0  0  0  0  0
   23.3360   -9.4204  109.3018 C   0  0  0  0  0  0  0  0  0  0  0  0
   22.1673  -10.3136  109.7057 C   0  0  0  0  0  0  0  0  0  0  0  0
   21.4645   -7.8536  110.3817 C   0  0  0  0  0  0  0  0  0  0  0  0
   20.5897   -7.0033  110.1689 O   0  0  0  0  0  0  0  0  0  0  0  0
   22.1310   -8.0152  111.5593 N   0  0  0  0  0  0  0  0  0  0  0  0
   22.8083   -8.7257  111.6340 H   0  0  0  0  0  0  0  0  0  0  0  0
   21.8843   -7.2217  112.6303 C   0  0  0  0  0  0  0  0  0  0  0  0
   22.9568   -6.6742  113.3070 C   0  0  0  0  0  0  0  0  0  0  0  0
   22.7363   -5.8678  114.4228 C   0  0  0  0  0  0  0  0  0  0  0  0
   21.4462   -5.6365  114.8841 C   0  0  0  0  0  0  0  0  0  0  0  0
   21.2400   -4.8371  115.9772 F   0  0  0  0  0  0  0  0  0  0  0  0
   20.3598   -6.1930  114.2307 C   0  0  0  0  0  0  0  0  0  0  0  0
   20.5908   -7.0037  113.1203 C   0  0  0  0  0  0  0  0  0  0  0  0
   16.9099   -7.3948  103.3068 O   0  0  0  0  0  0  0  0  0  0  0  0
   16.5989   -4.3968  101.1755 C   0  0  0  0  0  0  0  0  0  0  0  0
   16.3040   -5.5872  101.8496 C   0  0  0  0  0  0  0  0  0  0  0  0
   17.7945   -3.8237  101.3727 N   0  0  0  0  0  0  0  0  0  0  0  0
   18.7587   -4.4099  102.1909 C   0  0  0  0  0  0  0  0  0  0  0  0
   18.4855   -5.6119  102.8254 C   0  0  0  0  0  0  0  0  0  0  0  0
   17.2389   -6.2075  102.6695 C   0  0  0  0  0  0  0  0  0  0  0  0
   11.9106   -1.0745   98.5437 C   0  0  0  0  0  0  0  0  0  0  0  0
   11.5323   -2.5545   98.5635 C   0  0  0  0  0  0  0  0  0  0  0  0
   12.1712   -3.1532   99.7832 C   0  0  0  0  0  0  0  0  0  0  0  0
   13.4361   -0.9101   98.3576 C   0  0  0  0  0  0  0  0  0  0  0  0
   14.2513   -2.1816   98.6704 C   0  0  0  0  0  0  0  0  0  0  0  0
   13.6373   -3.0586   99.6782 N   0  0  0  0  0  0  0  0  0  0  0  0
   14.3796   -3.8104  100.5138 C   0  0  0  0  0  0  0  0  0  0  0  0
   13.8013   -4.5313  101.3303 O   0  0  0  0  0  0  0  0  0  0  0  0
   15.7171   -3.7421  100.3742 N   0  0  0  0  0  0  0  0  0  0  0  0
   16.0783   -3.1843   99.6479 H   0  0  0  0  0  0  0  0  0  0  0  0
   10.5316    1.0328   98.1084 C   0  0  0  0  0  0  0  0  0  0  0  0
    9.0911    0.8299   98.6437 C   0  0  0  0  0  0  0  0  0  0  0  0
    8.2330    0.1333   97.6696 N   0  0  0  0  0  0  0  0  0  0  0  0
    6.9122   -0.1230   98.2702 C   0  0  0  0  0  0  0  0  0  0  0  0
    8.8660   -1.1451   97.3171 C   0  0  0  0  0  0  0  0  0  0  0  0
   10.2352   -0.9049   96.6751 C   0  0  0  0  0  0  0  0  0  0  0  0
   11.1601   -0.2067   97.5896 N   0  0  0  0  0  0  0  0  0  0  0  0
 43 44  1  0  0  0
 43 49  1  0  0  0
 44 45  1  0  0  0
 49 48  1  0  0  0
 49 33  1  0  0  0
 45 46  1  0  0  0
 45 47  1  0  0  0
 48 47  1  0  0  0
 33 34  1  0  0  0
 33 36  1  0  0  0
 34 35  1  0  0  0
 36 37  1  0  0  0
 35 38  1  0  0  0
 38 37  1  0  0  0
 38 39  1  0  0  0
 40 39  2  0  0  0
 39 41  1  0  0  0
 41 27  1  0  0  0
 28 27  2  0  0  0
 28 32  1  0  0  0
 27 29  1  0  0  0
 26 32  1  0  0  0
 26  1  1  0  0  0
 32 31  2  0  0  0
 29 30  2  0  0  0
  1  5  2  0  0  0
  1  2  1  0  0  0
  5  6  1  0  0  0
 31 30  1  0  0  0
  2  3  2  0  0  0
  6  7  2  0  0  0
  3  7  1  0  0  0
  3  4  1  0  0  0
  7  8  1  0  0  0
 10  9  2  0  0  0
  8  9  1  0  0  0
  9 12  1  0  0  0
 13 12  1  0  0  0
 13 14  1  0  0  0
 12 14  1  0  0  0
 12 15  1  0  0  0
 16 15  2  0  0  0
 15 17  1  0  0  0
 17 19  1  0  0  0
 19 25  2  0  0  0
 19 20  1  0  0  0
 25 24  1  0  0  0
 20 21  2  0  0  0
 24 22  2  0  0  0
 21 22  1  0  0  0
 22 23  1  0  0  0
 41 42  1  0  0  0
  8 11  1  0  0  0
 17 18  1  0  0  0
M  END
> <minimizedAffinity>
-11.84495

$$$$
5IA5_GV0_A_1001


 49 54  0  0  0  0  0  0  0  0999 V2000
   17.7900   -8.0938  105.2697 C   0  0  0  0  0  0  0  0  0  0  0  0
   18.2555   -7.1225  106.1486 C   0  0  0  0  0  0  0  0  0  0  0  0
   19.4206   -7.3415  106.8725 C   0  0  0  0  0  0  0  0  0  0  0  0
   19.8315   -6.4004  107.7116 F   0  0  0  0  0  0  0  0  0  0  0  0
   18.5431   -9.2636  105.1115 C   0  0  0  0  0  0  0  0  0  0  0  0
   19.7212   -9.4886  105.8382 C   0  0  0  0  0  0  0  0  0  0  0  0
   20.1768   -8.5044  106.7292 C   0  0  0  0  0  0  0  0  0  0  0  0
   21.2748   -8.5729  107.5212 N   0  0  0  0  0  0  0  0  0  0  0  0
   21.3515   -9.3529  108.6260 C   0  0  0  0  0  0  0  0  0  0  0  0
   20.4606  -10.1145  109.0146 O   0  0  0  0  0  0  0  0  0  0  0  0
   22.0579   -8.0268  107.2807 H   0  0  0  0  0  0  0  0  0  0  0  0
   22.6679   -9.2957  109.4225 C   0  0  0  0  0  0  0  0  0  0  0  0
   23.9573   -9.0652  108.5889 C   0  0  0  0  0  0  0  0  0  0  0  0
   23.6874  -10.4488  109.1717 C   0  0  0  0  0  0  0  0  0  0  0  0
   22.5868   -8.7282  110.8541 C   0  0  0  0  0  0  0  0  0  0  0  0
   23.2636   -9.2143  111.7702 O   0  0  0  0  0  0  0  0  0  0  0  0
   21.7198   -7.6853  110.9880 N   0  0  0  0  0  0  0  0  0  0  0  0
   21.2290   -7.3644  110.1972 H   0  0  0  0  0  0  0  0  0  0  0  0
   21.5165   -7.0790  112.1833 C   0  0  0  0  0  0  0  0  0  0  0  0
   20.2247   -6.7493  112.5448 C   0  0  0  0  0  0  0  0  0  0  0  0
   19.9850   -6.1096  113.7602 C   0  0  0  0  0  0  0  0  0  0  0  0
   21.0385   -5.7674  114.5990 C   0  0  0  0  0  0  0  0  0  0  0  0
   20.7915   -5.1451  115.7940 F   0  0  0  0  0  0  0  0  0  0  0  0
   22.3417   -6.0718  114.2444 C   0  0  0  0  0  0  0  0  0  0  0  0
   22.5720   -6.7051  113.0240 C   0  0  0  0  0  0  0  0  0  0  0  0
   16.6352   -7.8576  104.5591 O   0  0  0  0  0  0  0  0  0  0  0  0
   17.7145   -5.3223  102.1025 C   0  0  0  0  0  0  0  0  0  0  0  0
   17.6853   -6.4630  102.9128 C   0  0  0  0  0  0  0  0  0  0  0  0
   16.6596   -4.4955  102.1153 N   0  0  0  0  0  0  0  0  0  0  0  0
   15.5649   -4.7221  102.9479 C   0  0  0  0  0  0  0  0  0  0  0  0
   15.5524   -5.8278  103.7841 C   0  0  0  0  0  0  0  0  0  0  0  0
   16.6162   -6.7228  103.7616 C   0  0  0  0  0  0  0  0  0  0  0  0
   23.1736   -4.2925   99.0888 C   0  0  0  0  0  0  0  0  0  0  0  0
   22.6970   -2.9907   99.7307 C   0  0  0  0  0  0  0  0  0  0  0  0
   21.9578   -3.3651  100.9828 C   0  0  0  0  0  0  0  0  0  0  0  0
   21.9660   -5.1458   98.6391 C   0  0  0  0  0  0  0  0  0  0  0  0
   20.6299   -4.7467   99.2983 C   0  0  0  0  0  0  0  0  0  0  0  0
   20.7703   -4.1672  100.6424 N   0  0  0  0  0  0  0  0  0  0  0  0
   19.8250   -4.3280  101.5885 C   0  0  0  0  0  0  0  0  0  0  0  0
   20.0008   -3.8081  102.6928 O   0  0  0  0  0  0  0  0  0  0  0  0
   18.7278   -5.0287  101.2449 N   0  0  0  0  0  0  0  0  0  0  0  0
   18.6548   -5.3478  100.3164 H   0  0  0  0  0  0  0  0  0  0  0  0
   25.2589   -3.1629   98.1363 C   0  0  0  0  0  0  0  0  0  0  0  0
   24.8876   -1.7573   97.5985 C   0  0  0  0  0  0  0  0  0  0  0  0
   24.3576   -1.8137   96.2251 N   0  0  0  0  0  0  0  0  0  0  0  0
   23.9269   -0.4682   95.8069 C   0  0  0  0  0  0  0  0  0  0  0  0
   23.2046   -2.7245   96.2045 C   0  0  0  0  0  0  0  0  0  0  0  0
   23.6301   -4.1354   96.6201 C   0  0  0  0  0  0  0  0  0  0  0  0
   24.1766   -4.1670   97.9911 N   0  0  0  0  0  0  0  0  0  0  0  0
 43 44  1  0  0  0
 43 49  1  0  0  0
 44 45  1  0  0  0
 49 48  1  0  0  0
 49 33  1  0  0  0
 45 46  1  0  0  0
 45 47  1  0  0  0
 48 47  1  0  0  0
 33 34  1  0  0  0
 33 36  1  0  0  0
 34 35  1  0  0  0
 36 37  1  0  0  0
 35 38  1  0  0  0
 38 37  1  0  0  0
 38 39  1  0  0  0
 40 39  2  0  0  0
 39 41  1  0  0  0
 41 27  1  0  0  0
 28 27  2  0  0  0
 28 32  1  0  0  0
 27 29  1  0  0  0
 26 32  1  0  0  0
 26  1  1  0  0  0
 32 31  2  0  0  0
 29 30  2  0  0  0
  1  5  2  0  0  0
  1  2  1  0  0  0
  5  6  1  0  0  0
 31 30  1  0  0  0
  2  3  2  0  0  0
  6  7  2  0  0  0
  3  7  1  0  0  0
  3  4  1  0  0  0
  7  8  1  0  0  0
 10  9  2  0  0  0
  8  9  1  0  0  0
  9 12  1  0  0  0
 13 12  1  0  0  0
 13 14  1  0  0  0
 12 14  1  0  0  0
 12 15  1  0  0  0
 16 15  2  0  0  0
 15 17  1  0  0  0
 17 19  1  0  0  0
 19 25  2  0  0  0
 19 20  1  0  0  0
 25 24  1  0  0  0
 20 21  2  0  0  0
 24 22  2  0  0  0
 21 22  1  0  0  0
 22 23  1  0  0  0
 41 42  1  0  0  0
  8 11  1  0  0  0
 17 18  1  0  0  0
M  END
> <minimizedAffinity>
-11.81129

$$$$
5IA5_GV0_A_1001


 49 54  0  0  0  0  0  0  0  0999 V2000
   18.1332   -8.0509  104.8294 C   0  0  0  0  0  0  0  0  0  0  0  0
   18.5894   -9.3422  105.0674 C   0  0  0  0  0  0  0  0  0  0  0  0
   19.5382   -9.5729  106.0555 C   0  0  0  0  0  0  0  0  0  0  0  0
   19.9618  -10.8144  106.2497 F   0  0  0  0  0  0  0  0  0  0  0  0
   18.6240   -7.0135  105.6317 C   0  0  0  0  0  0  0  0  0  0  0  0
   19.5802   -7.2413  106.6320 C   0  0  0  0  0  0  0  0  0  0  0  0
   20.0399   -8.5483  106.8574 C   0  0  0  0  0  0  0  0  0  0  0  0
   20.9733   -8.9351  107.7609 N   0  0  0  0  0  0  0  0  0  0  0  0
   21.1447   -8.3333  108.9624 C   0  0  0  0  0  0  0  0  0  0  0  0
   20.4549   -7.4024  109.3893 O   0  0  0  0  0  0  0  0  0  0  0  0
   21.5577   -9.6936  107.5319 H   0  0  0  0  0  0  0  0  0  0  0  0
   22.2657   -8.8885  109.8599 C   0  0  0  0  0  0  0  0  0  0  0  0
   23.4382   -9.5932  109.1257 C   0  0  0  0  0  0  0  0  0  0  0  0
   22.4292  -10.4389  109.8960 C   0  0  0  0  0  0  0  0  0  0  0  0
   22.5500   -8.1212  111.1671 C   0  0  0  0  0  0  0  0  0  0  0  0
   23.7081   -7.9793  111.5822 O   0  0  0  0  0  0  0  0  0  0  0  0
   21.4318   -7.6475  111.7855 N   0  0  0  0  0  0  0  0  0  0  0  0
   20.5517   -7.8062  111.3738 H   0  0  0  0  0  0  0  0  0  0  0  0
   21.5015   -6.9633  112.9537 C   0  0  0  0  0  0  0  0  0  0  0  0
   20.5571   -5.9868  113.2039 C   0  0  0  0  0  0  0  0  0  0  0  0
   20.6122   -5.2540  114.3887 C   0  0  0  0  0  0  0  0  0  0  0  0
   21.6309   -5.4719  115.3081 C   0  0  0  0  0  0  0  0  0  0  0  0
   21.6720   -4.7512  116.4723 F   0  0  0  0  0  0  0  0  0  0  0  0
   22.5979   -6.4326  115.0655 C   0  0  0  0  0  0  0  0  0  0  0  0
   22.5385   -7.1553  113.8748 C   0  0  0  0  0  0  0  0  0  0  0  0
   17.1909   -7.8425  103.8481 O   0  0  0  0  0  0  0  0  0  0  0  0
   18.5846   -5.0909  101.8199 C   0  0  0  0  0  0  0  0  0  0  0  0
   18.4561   -6.2967  102.5185 C   0  0  0  0  0  0  0  0  0  0  0  0
   17.5180   -4.2847  101.7242 N   0  0  0  0  0  0  0  0  0  0  0  0
   16.3084   -4.5983  102.3417 C   0  0  0  0  0  0  0  0  0  0  0  0
   16.1911   -5.7712  103.0714 C   0  0  0  0  0  0  0  0  0  0  0  0
   17.2700   -6.6443  103.1536 C   0  0  0  0  0  0  0  0  0  0  0  0
   23.0401   -2.9458   97.8840 C   0  0  0  0  0  0  0  0  0  0  0  0
   22.8300   -4.4398   97.6439 C   0  0  0  0  0  0  0  0  0  0  0  0
   21.3854   -4.7305   97.9321 C   0  0  0  0  0  0  0  0  0  0  0  0
   22.8193   -2.6029   99.3748 C   0  0  0  0  0  0  0  0  0  0  0  0
   22.0408   -3.6771  100.1616 C   0  0  0  0  0  0  0  0  0  0  0  0
   21.0911   -4.4504   99.3478 N   0  0  0  0  0  0  0  0  0  0  0  0
   19.9471   -4.9403   99.8634 C   0  0  0  0  0  0  0  0  0  0  0  0
   19.1983   -5.5881   99.1283 O   0  0  0  0  0  0  0  0  0  0  0  0
   19.7160   -4.7096  101.1697 N   0  0  0  0  0  0  0  0  0  0  0  0
   20.4084   -4.2362  101.6852 H   0  0  0  0  0  0  0  0  0  0  0  0
   24.8748   -2.8685   96.1065 C   0  0  0  0  0  0  0  0  0  0  0  0
   25.8037   -4.0991   96.2658 C   0  0  0  0  0  0  0  0  0  0  0  0
   26.8505   -3.8735   97.2777 N   0  0  0  0  0  0  0  0  0  0  0  0
   27.6348   -5.1074   97.4597 C   0  0  0  0  0  0  0  0  0  0  0  0
   26.2051   -3.5127   98.5476 C   0  0  0  0  0  0  0  0  0  0  0  0
   25.3959   -2.2226   98.3887 C   0  0  0  0  0  0  0  0  0  0  0  0
   24.3210   -2.3637   97.3868 N   0  0  0  0  0  0  0  0  0  0  0  0
 43 44  1  0  0  0
 43 49  1  0  0  0
 44 45  1  0  0  0
 49 48  1  0  0  0
 49 33  1  0  0  0
 45 46  1  0  0  0
 45 47  1  0  0  0
 48 47  1  0  0  0
 33 34  1  0  0  0
 33 36  1  0  0  0
 34 35  1  0  0  0
 36 37  1  0  0  0
 35 38  1  0  0  0
 38 37  1  0  0  0
 38 39  1  0  0  0
 40 39  2  0  0  0
 39 41  1  0  0  0
 41 27  1  0  0  0
 28 27  2  0  0  0
 28 32  1  0  0  0
 27 29  1  0  0  0
 26 32  1  0  0  0
 26  1  1  0  0  0
 32 31  2  0  0  0
 29 30  2  0  0  0
  1  5  2  0  0  0
  1  2  1  0  0  0
  5  6  1  0  0  0
 31 30  1  0  0  0
  2  3  2  0  0  0
  6  7  2  0  0  0
  3  7  1  0  0  0
  3  4  1  0  0  0
  7  8  1  0  0  0
 10  9  2  0  0  0
  8  9  1  0  0  0
  9 12  1  0  0  0
 13 12  1  0  0  0
 13 14  1  0  0  0
 12 14  1  0  0  0
 12 15  1  0  0  0
 16 15  2  0  0  0
 15 17  1  0  0  0
 17 19  1  0  0  0
 19 25  2  0  0  0
 19 20  1  0  0  0
 25 24  1  0  0  0
 20 21  2  0  0  0
 24 22  2  0  0  0
 21 22  1  0  0  0
 22 23  1  0  0  0
 41 42  1  0  0  0
  8 11  1  0  0  0
 17 18  1  0  0  0
M  END
> <minimizedAffinity>
-11.77371

$$$$
5IA5_GV0_A_1001


 49 54  0  0  0  0  0  0  0  0999 V2000
   17.5714   -7.6143  104.2958 C   0  0  0  0  0  0  0  0  0  0  0  0
   17.6848   -6.6718  105.3113 C   0  0  0  0  0  0  0  0  0  0  0  0
   18.6572   -6.8208  106.2921 C   0  0  0  0  0  0  0  0  0  0  0  0
   18.7316   -5.9110  107.2540 F   0  0  0  0  0  0  0  0  0  0  0  0
   18.4800   -8.6794  104.2722 C   0  0  0  0  0  0  0  0  0  0  0  0
   19.4649   -8.8332  105.2585 C   0  0  0  0  0  0  0  0  0  0  0  0
   19.5643   -7.8799  106.2840 C   0  0  0  0  0  0  0  0  0  0  0  0
   20.4368   -7.8926  107.3214 N   0  0  0  0  0  0  0  0  0  0  0  0
   20.6422   -8.9734  108.1116 C   0  0  0  0  0  0  0  0  0  0  0  0
   20.0995  -10.0719  107.9588 O   0  0  0  0  0  0  0  0  0  0  0  0
   20.9482   -7.0728  107.5104 H   0  0  0  0  0  0  0  0  0  0  0  0
   21.6563   -8.8084  109.2584 C   0  0  0  0  0  0  0  0  0  0  0  0
   23.1422   -9.0748  108.8955 C   0  0  0  0  0  0  0  0  0  0  0  0
   22.3879  -10.1002  109.7360 C   0  0  0  0  0  0  0  0  0  0  0  0
   21.3222   -7.7524  110.3314 C   0  0  0  0  0  0  0  0  0  0  0  0
   20.5694   -6.8027  110.0763 O   0  0  0  0  0  0  0  0  0  0  0  0
   21.9289   -7.9715  111.5318 N   0  0  0  0  0  0  0  0  0  0  0  0
   22.5077   -8.7604  111.6403 H   0  0  0  0  0  0  0  0  0  0  0  0
   21.7551   -7.1299  112.5802 C   0  0  0  0  0  0  0  0  0  0  0  0
   22.8697   -6.7020  113.2748 C   0  0  0  0  0  0  0  0  0  0  0  0
   22.7223   -5.8497  114.3683 C   0  0  0  0  0  0  0  0  0  0  0  0
   21.4593   -5.4527  114.7901 C   0  0  0  0  0  0  0  0  0  0  0  0
   21.3259   -4.6097  115.8615 F   0  0  0  0  0  0  0  0  0  0  0  0
   20.3293   -5.8873  114.1186 C   0  0  0  0  0  0  0  0  0  0  0  0
   20.4864   -6.7449  113.0308 C   0  0  0  0  0  0  0  0  0  0  0  0
   16.6036   -7.4481  103.3314 O   0  0  0  0  0  0  0  0  0  0  0  0
   17.5096   -4.4538  101.3717 C   0  0  0  0  0  0  0  0  0  0  0  0
   17.5542   -5.7217  101.9626 C   0  0  0  0  0  0  0  0  0  0  0  0
   16.4101   -3.7048  101.5352 N   0  0  0  0  0  0  0  0  0  0  0  0
   15.3398   -4.1403  102.3146 C   0  0  0  0  0  0  0  0  0  0  0  0
   15.3993   -5.3775  102.9374 C   0  0  0  0  0  0  0  0  0  0  0  0
   16.5114   -6.1911  102.7521 C   0  0  0  0  0  0  0  0  0  0  0  0
   22.8682   -2.6341   98.5577 C   0  0  0  0  0  0  0  0  0  0  0  0
   22.3702   -1.5139   99.4694 C   0  0  0  0  0  0  0  0  0  0  0  0
   21.6703   -2.1688  100.6251 C   0  0  0  0  0  0  0  0  0  0  0  0
   21.6749   -3.4108   97.9565 C   0  0  0  0  0  0  0  0  0  0  0  0
   20.3435   -3.2035   98.7071 C   0  0  0  0  0  0  0  0  0  0  0  0
   20.4982   -2.9180  100.1412 N   0  0  0  0  0  0  0  0  0  0  0  0
   19.5794   -3.3060  101.0467 C   0  0  0  0  0  0  0  0  0  0  0  0
   19.7657   -3.0268  102.2333 O   0  0  0  0  0  0  0  0  0  0  0  0
   18.4946   -3.9527  100.5798 N   0  0  0  0  0  0  0  0  0  0  0  0
   18.4095   -4.0698   99.6060 H   0  0  0  0  0  0  0  0  0  0  0  0
   24.0217   -3.1562   96.3377 C   0  0  0  0  0  0  0  0  0  0  0  0
   25.1004   -4.2475   96.5576 C   0  0  0  0  0  0  0  0  0  0  0  0
   26.3762   -3.6768   97.0235 N   0  0  0  0  0  0  0  0  0  0  0  0
   27.3266   -4.7646   97.3137 C   0  0  0  0  0  0  0  0  0  0  0  0
   26.1255   -2.9067   98.2496 C   0  0  0  0  0  0  0  0  0  0  0  0
   25.1520   -1.7584   97.9703 C   0  0  0  0  0  0  0  0  0  0  0  0
   23.8422   -2.2466   97.4957 N   0  0  0  0  0  0  0  0  0  0  0  0
 43 44  1  0  0  0
 43 49  1  0  0  0
 44 45  1  0  0  0
 49 48  1  0  0  0
 49 33  1  0  0  0
 45 46  1  0  0  0
 45 47  1  0  0  0
 48 47  1  0  0  0
 33 34  1  0  0  0
 33 36  1  0  0  0
 34 35  1  0  0  0
 36 37  1  0  0  0
 35 38  1  0  0  0
 38 37  1  0  0  0
 38 39  1  0  0  0
 40 39  2  0  0  0
 39 41  1  0  0  0
 41 27  1  0  0  0
 28 27  2  0  0  0
 28 32  1  0  0  0
 27 29  1  0  0  0
 26 32  1  0  0  0
 26  1  1  0  0  0
 32 31  2  0  0  0
 29 30  2  0  0  0
  1  5  2  0  0  0
  1  2  1  0  0  0
  5  6  1  0  0  0
 31 30  1  0  0  0
  2  3  2  0  0  0
  6  7  2  0  0  0
  3  7  1  0  0  0
  3  4  1  0  0  0
  7  8  1  0  0  0
 10  9  2  0  0  0
  8  9  1  0  0  0
  9 12  1  0  0  0
 13 12  1  0  0  0
 13 14  1  0  0  0
 12 14  1  0  0  0
 12 15  1  0  0  0
 16 15  2  0  0  0
 15 17  1  0  0  0
 17 19  1  0  0  0
 19 25  2  0  0  0
 19 20  1  0  0  0
 25 24  1  0  0  0
 20 21  2  0  0  0
 24 22  2  0  0  0
 21 22  1  0  0  0
 22 23  1  0  0  0
 41 42  1  0  0  0
  8 11  1  0  0  0
 17 18  1  0  0  0
M  END
> <minimizedAffinity>
-11.75854

$$$$
