3H1X_IMN_A_301
  RCSB PDB12061708493D
Coordinates from PDB:3H1X:A:301 Model:1 without hydrogens
 25 27  0  0  0  0            999 V2000
    0.7450  -11.4340    8.4070   C 0  0  0  0  0  0  0  0  0  0  0  0
    1.2510  -12.6140    7.6690   C 0  0  0  0  0  0  0  0  0  0  0  0
    2.5830  -12.6840    7.3070   C 0  0  0  0  0  0  0  0  0  0  0  0
    3.4670  -11.6510    7.6110   C 0  0  0  0  0  0  0  0  0  0  0  0
    3.0020  -10.5440    8.3180   C 0  0  0  0  0  0  0  0  0  0  0  0
    1.6630  -10.4350    8.7020   C 0  0  0  0  0  0  0  0  0  0  0  0
    5.4300  -10.7000    6.4900   C 0  0  0  0  0  0  0  0  0  0  0  0
    0.1170  -13.5310    7.4440   C 0  0  0  0  0  0  0  0  0  0  0  0
   -1.0290  -12.8260    8.1000   C 0  0  0  0  0  0  0  0  0  0  0  0
   -1.5040  -10.8930    9.2380   C 0  0  0  0  0  0  0  0  0  0  0  0
   -1.4230   -9.5470    9.9220   C 0  0  0  0  0  0  0  0  0  0  0  0
   -2.6140   -9.0630   10.4610   C 0  0  0  0  0  0  0  0  0  0  0  0
   -2.6640   -7.8380   11.1110   C 0  0  0  0  0  0  0  0  0  0  0  0
   -1.5250   -7.0720   11.2430   C 0  0  0  0  0  0  0  0  0  0  0  0
   -0.3330   -7.5360   10.7080   C 0  0  0  0  0  0  0  0  0  0  0  0
   -0.2850   -8.7640   10.0540   C 0  0  0  0  0  0  0  0  0  0  0  0
   -2.4320  -13.3020    8.2730   C 0  0  0  0  0  0  0  0  0  0  0  0
    0.3260  -14.8880    6.8070   C 0  0  0  0  0  0  0  0  0  0  0  0
   -0.7900  -15.8200    6.4450   C 0  0  0  0  0  0  0  0  0  0  0  0
   -0.5620  -11.6700    8.6010   N 0  0  0  0  0  0  0  0  0  0  0  0
    4.7610  -11.7320    7.2460   O 0  0  0  0  0  0  0  0  0  0  0  0
   -2.6130  -11.3850    9.2470   O 0  0  0  0  0  0  0  0  0  0  0  0
   -1.6300  -16.2190    7.2410   O 0  0  0  0  0  0  0  0  0  0  0  0
   -0.7810  -16.2810    5.2120   O 0  0  0  0  0  0  0  0  0  0  0  0
   -1.6480   -5.5060   12.1090  Cl 0  0  0  0  0  0  0  0  0  0  0  0
  1  2  2  0  0  0  0
  1  6  1  0  0  0  0
  1 20  1  0  0  0  0
  2  3  1  0  0  0  0
  2  8  1  0  0  0  0
  3  4  2  0  0  0  0
  4  5  1  0  0  0  0
  4 21  1  0  0  0  0
  5  6  2  0  0  0  0
  7 21  1  0  0  0  0
  8  9  2  0  0  0  0
  8 18  1  0  0  0  0
  9 17  1  0  0  0  0
  9 20  1  0  0  0  0
 10 11  1  0  0  0  0
 10 20  1  0  0  0  0
 10 22  2  0  0  0  0
 11 12  2  0  0  0  0
 11 16  1  0  0  0  0
 12 13  1  0  0  0  0
 13 14  2  0  0  0  0
 14 15  1  0  0  0  0
 14 25  1  0  0  0  0
 15 16  2  0  0  0  0
 18 19  1  0  0  0  0
 19 23  2  0  0  0  0
 19 24  1  0  0  0  0
A    1
C
A    2
C1
A    3
C2
A    4
C3
A    5
C4
A    6
C5
A    7
C6
A    8
C7
A    9
C8
A   10
C9
A   11
C10
A   12
C11
A   13
C12
A   14
C13
A   15
C14
A   16
C15
A   17
C16
A   18
C17
A   19
C18
A   20
N
A   21
O
A   22
O1
A   23
O2
A   24
O3
A   25
CL
M  END
>  <InstanceId>
3H1X_IMN_A_301

>  <ChemCompId>
IMN

>  <PdbId>
3H1X

>  <ChainId>
A

>  <ResidueNumber>
301

>  <InsertionCode>


>  <Model>
1

>  <AltIds>


>  <MissingHeavyAtoms>
0

>  <ObservedFormula>
C19 N O4 Cl

>  <Name>
INDOMETHACIN

>  <SystematicName>
2-[1-(4-chlorophenyl)carbonyl-5-methoxy-2-methyl-indol-3-yl]ethanoic acid

>  <Synonyms>


>  <Type>
NON-POLYMER

>  <Formula>
C19 H16 Cl N O4

>  <MolecularWeight>
357.788

>  <ModifiedDate>
2011-06-04

>  <Parent>


>  <OneLetterCode>


>  <SubcomponentList>


>  <AmbiguousFlag>
N

>  <InChI>
InChI=1S/C19H16ClNO4/c1-11-15(10-18(22)23)16-9-14(25-2)7-8-17(16)21(11)19(24)12-3-5-13(20)6-4-12/h3-9H,10H2,1-2H3,(H,22,23)

>  <InChIKey>
CGIGDMFJXJATDK-UHFFFAOYSA-N

>  <SMILES>
Cc1c(c2cc(ccc2n1C(=O)c3ccc(cc3)Cl)OC)CC(=O)O

$$$$
