1EBW_BEI_A_501


 52 53  0  0  0  0  0  0  0  0999 V2000
   13.9294   22.5711    4.8497 C   0  0  0  0  0  0  0  0  0  0  0  0
   14.4895   22.4381    3.4915 O   0  0  0  0  0  0  0  0  0  0  0  0
   15.3529   22.8786    3.4532 H   0  0  0  0  0  0  0  0  0  0  0  0
   13.7488   24.0324    5.1329 C   0  0  0  0  0  0  0  0  0  0  0  0
   14.9600   24.6635    4.6039 O   0  0  0  0  0  0  0  0  0  0  0  0
   15.0536   24.4459    3.6633 H   0  0  0  0  0  0  0  0  0  0  0  0
   12.4199   24.5343    4.4733 C   0  0  0  0  0  0  0  0  0  0  0  0
   11.2629   24.6693    5.4634 C   0  0  0  0  0  0  0  0  0  0  0  0
   10.9594   23.7025    6.1692 O   0  0  0  0  0  0  0  0  0  0  0  0
   10.6008   25.8601    5.5001 N   0  0  0  0  0  0  0  0  0  0  0  0
   10.9109   26.5795    4.9038 H   0  0  0  0  0  0  0  0  0  0  0  0
    9.4415   26.1392    6.3833 C   0  0  0  0  0  0  0  0  0  0  0  0
    8.4394   26.8956    5.5224 C   0  0  0  0  0  0  0  0  0  0  0  0
    8.8289   27.8933    4.8910 O   0  0  0  0  0  0  0  0  0  0  0  0
    7.1499   26.4081    5.5153 N   0  0  0  0  0  0  0  0  0  0  0  0
    6.1750   27.1202    4.7050 C   0  0  0  0  0  0  0  0  0  0  0  0
    6.8997   25.6114    6.0368 H   0  0  0  0  0  0  0  0  0  0  0  0
    9.8220   27.0303    7.6318 C   0  0  0  0  0  0  0  0  0  0  0  0
    8.5437   27.4795    8.4140 C   0  0  0  0  0  0  0  0  0  0  0  0
   10.8192   26.3018    8.6097 C   0  0  0  0  0  0  0  0  0  0  0  0
   10.2207   26.2326   10.0503 C   0  0  0  0  0  0  0  0  0  0  0  0
   12.0056   23.6479    3.3478 O   0  0  0  0  0  0  0  0  0  0  0  0
   11.4491   24.3413    2.1933 C   0  0  0  0  0  0  0  0  0  0  0  0
    9.9265   24.3609    2.2043 C   0  0  0  0  0  0  0  0  0  0  0  0
    9.2271   25.5062    1.7675 C   0  0  0  0  0  0  0  0  0  0  0  0
    7.8093   25.5413    1.7791 C   0  0  0  0  0  0  0  0  0  0  0  0
    7.0866   24.4180    2.2364 C   0  0  0  0  0  0  0  0  0  0  0  0
    7.7700   23.2552    2.6821 C   0  0  0  0  0  0  0  0  0  0  0  0
    9.1949   23.2303    2.6650 C   0  0  0  0  0  0  0  0  0  0  0  0
   14.8421   21.8724    5.8513 C   0  0  0  0  0  0  0  0  0  0  0  0
   15.0987   20.5340    5.2958 C   0  0  0  0  0  0  0  0  0  0  0  0
   14.1246   19.7636    5.2695 O   0  0  0  0  0  0  0  0  0  0  0  0
   16.3503   20.2383    4.8565 N   0  0  0  0  0  0  0  0  0  0  0  0
   17.0525   20.9254    4.9207 H   0  0  0  0  0  0  0  0  0  0  0  0
   16.6864   18.9373    4.2939 C   0  0  0  0  0  0  0  0  0  0  0  0
   17.9864   18.5352    4.9320 C   0  0  0  0  0  0  0  0  0  0  0  0
   18.9578   19.3199    4.8868 O   0  0  0  0  0  0  0  0  0  0  0  0
   17.9906   17.2949    5.5288 N   0  0  0  0  0  0  0  0  0  0  0  0
   19.2446   16.8844    6.1487 C   0  0  0  0  0  0  0  0  0  0  0  0
   17.1927   16.7182    5.5366 H   0  0  0  0  0  0  0  0  0  0  0  0
   16.8350   18.9953    2.7163 C   0  0  0  0  0  0  0  0  0  0  0  0
   17.2682   17.5976    2.1237 C   0  0  0  0  0  0  0  0  0  0  0  0
   15.5114   19.4354    2.0376 C   0  0  0  0  0  0  0  0  0  0  0  0
   14.5187   18.2585    1.9420 C   0  0  0  0  0  0  0  0  0  0  0  0
   14.1998   21.8579    7.1781 O   0  0  0  0  0  0  0  0  0  0  0  0
   14.9267   22.5956    8.2176 C   0  0  0  0  0  0  0  0  0  0  0  0
   16.0719   21.7772    8.7736 C   0  0  0  0  0  0  0  0  0  0  0  0
   15.7974   20.6006    9.5590 C   0  0  0  0  0  0  0  0  0  0  0  0
   16.8695   19.8039   10.0823 C   0  0  0  0  0  0  0  0  0  0  0  0
   18.2035   20.1891    9.8179 C   0  0  0  0  0  0  0  0  0  0  0  0
   18.4840   21.3652    9.0341 C   0  0  0  0  0  0  0  0  0  0  0  0
   17.4150   22.1600    8.5106 C   0  0  0  0  0  0  0  0  0  0  0  0
 24 25  2  0  0  0
 24 29  1  0  0  0
 24 23  1  0  0  0
 25 26  1  0  0  0
 26 27  2  0  0  0
 27 28  1  0  0  0
 28 29  2  0  0  0
 47 48  2  0  0  0
 47 52  1  0  0  0
 47 46  1  0  0  0
 48 49  1  0  0  0
 49 50  2  0  0  0
 50 51  1  0  0  0
 51 52  2  0  0  0
 46 45  1  0  0  0
 45 30  1  0  0  0
 30  1  1  0  0  0
 30 31  1  0  0  0
  1  4  1  0  0  0
  1  2  1  0  0  0
  4  7  1  0  0  0
  4  5  1  0  0  0
  7  8  1  0  0  0
  7 22  1  0  0  0
  8  9  2  0  0  0
  8 10  1  0  0  0
 10 12  1  0  0  0
 12 18  1  0  0  0
 12 13  1  0  0  0
 18 19  1  0  0  0
 18 20  1  0  0  0
 20 21  1  0  0  0
 13 14  2  0  0  0
 13 15  1  0  0  0
 15 16  1  0  0  0
 22 23  1  0  0  0
 31 32  2  0  0  0
 31 33  1  0  0  0
 33 35  1  0  0  0
 35 41  1  0  0  0
 35 36  1  0  0  0
 41 42  1  0  0  0
 41 43  1  0  0  0
 43 44  1  0  0  0
 36 37  2  0  0  0
 36 38  1  0  0  0
 38 39  1  0  0  0
 10 11  1  0  0  0
 15 17  1  0  0  0
  5  6  1  0  0  0
  2  3  1  0  0  0
 33 34  1  0  0  0
 38 40  1  0  0  0
M  END
> <minimizedAffinity>
-10.25770

$$$$
1EBW_BEI_A_501


 52 53  0  0  0  0  0  0  0  0999 V2000
   13.0873   24.0907    5.6405 C   0  0  0  0  0  0  0  0  0  0  0  0
   13.4336   25.1815    6.5712 O   0  0  0  0  0  0  0  0  0  0  0  0
   13.8232   25.9184    6.0751 H   0  0  0  0  0  0  0  0  0  0  0  0
   14.3524   23.6264    4.9829 C   0  0  0  0  0  0  0  0  0  0  0  0
   15.0128   24.8573    4.5426 O   0  0  0  0  0  0  0  0  0  0  0  0
   15.1481   25.4420    5.3047 H   0  0  0  0  0  0  0  0  0  0  0  0
   15.1880   22.7737    5.9964 C   0  0  0  0  0  0  0  0  0  0  0  0
   15.2657   21.2926    5.6258 C   0  0  0  0  0  0  0  0  0  0  0  0
   14.2487   20.5972    5.7107 O   0  0  0  0  0  0  0  0  0  0  0  0
   16.4769   20.8030    5.2373 N   0  0  0  0  0  0  0  0  0  0  0  0
   17.2360   21.4286    5.1953 H   0  0  0  0  0  0  0  0  0  0  0  0
   16.7223   19.3855    4.8738 C   0  0  0  0  0  0  0  0  0  0  0  0
   18.0862   19.0403    5.4552 C   0  0  0  0  0  0  0  0  0  0  0  0
   19.0654   19.7349    5.1320 O   0  0  0  0  0  0  0  0  0  0  0  0
   18.1304   17.9579    6.3079 N   0  0  0  0  0  0  0  0  0  0  0  0
   19.4249   17.6065    6.8689 C   0  0  0  0  0  0  0  0  0  0  0  0
   17.3196   17.4444    6.5276 H   0  0  0  0  0  0  0  0  0  0  0  0
   16.7552   19.1496    3.3115 C   0  0  0  0  0  0  0  0  0  0  0  0
   17.2409   17.7021    2.9703 C   0  0  0  0  0  0  0  0  0  0  0  0
   15.3597   19.4197    2.6325 C   0  0  0  0  0  0  0  0  0  0  0  0
   15.4727   19.2937    1.0802 C   0  0  0  0  0  0  0  0  0  0  0  0
   14.6576   22.9082    7.3838 O   0  0  0  0  0  0  0  0  0  0  0  0
   15.6697   23.1233    8.4097 C   0  0  0  0  0  0  0  0  0  0  0  0
   16.3188   21.8244    8.8683 C   0  0  0  0  0  0  0  0  0  0  0  0
   17.6974   21.6062    8.6594 C   0  0  0  0  0  0  0  0  0  0  0  0
   18.3140   20.3983    9.0747 C   0  0  0  0  0  0  0  0  0  0  0  0
   17.5394   19.3988    9.7024 C   0  0  0  0  0  0  0  0  0  0  0  0
   16.1499   19.5964    9.9214 C   0  0  0  0  0  0  0  0  0  0  0  0
   15.5409   20.8145    9.5012 C   0  0  0  0  0  0  0  0  0  0  0  0
   12.0370   24.5775    4.6483 C   0  0  0  0  0  0  0  0  0  0  0  0
   10.8157   24.8080    5.4364 C   0  0  0  0  0  0  0  0  0  0  0  0
   10.1400   23.7980    5.6944 O   0  0  0  0  0  0  0  0  0  0  0  0
   10.5176   26.0764    5.8226 N   0  0  0  0  0  0  0  0  0  0  0  0
   11.1248   26.8077    5.5662 H   0  0  0  0  0  0  0  0  0  0  0  0
    9.3283   26.3887    6.6039 C   0  0  0  0  0  0  0  0  0  0  0  0
    8.3669   27.0393    5.6493 C   0  0  0  0  0  0  0  0  0  0  0  0
    8.7572   27.9951    4.9453 O   0  0  0  0  0  0  0  0  0  0  0  0
    7.0980   26.5061    5.6367 N   0  0  0  0  0  0  0  0  0  0  0  0
    6.1489   27.1275    4.7210 C   0  0  0  0  0  0  0  0  0  0  0  0
    6.8459   25.7486    6.2128 H   0  0  0  0  0  0  0  0  0  0  0  0
    9.6536   27.3596    7.8146 C   0  0  0  0  0  0  0  0  0  0  0  0
    8.3677   27.6553    8.6813 C   0  0  0  0  0  0  0  0  0  0  0  0
   10.7510   26.7675    8.7375 C   0  0  0  0  0  0  0  0  0  0  0  0
   10.1262   26.0254    9.9369 C   0  0  0  0  0  0  0  0  0  0  0  0
   11.8770   23.5837    3.5712 O   0  0  0  0  0  0  0  0  0  0  0  0
   11.4857   24.1458    2.2735 C   0  0  0  0  0  0  0  0  0  0  0  0
    9.9811   24.2552    2.1530 C   0  0  0  0  0  0  0  0  0  0  0  0
    9.3742   25.5348    1.8865 C   0  0  0  0  0  0  0  0  0  0  0  0
    7.9509   25.6560    1.7546 C   0  0  0  0  0  0  0  0  0  0  0  0
    7.1479   24.5008    1.8904 C   0  0  0  0  0  0  0  0  0  0  0  0
    7.7492   23.2189    2.1579 C   0  0  0  0  0  0  0  0  0  0  0  0
    9.1692   23.0969    2.2886 C   0  0  0  0  0  0  0  0  0  0  0  0
 24 25  2  0  0  0
 24 29  1  0  0  0
 24 23  1  0  0  0
 25 26  1  0  0  0
 26 27  2  0  0  0
 27 28  1  0  0  0
 28 29  2  0  0  0
 47 48  2  0  0  0
 47 52  1  0  0  0
 47 46  1  0  0  0
 48 49  1  0  0  0
 49 50  2  0  0  0
 50 51  1  0  0  0
 51 52  2  0  0  0
 46 45  1  0  0  0
 45 30  1  0  0  0
 30  1  1  0  0  0
 30 31  1  0  0  0
  1  4  1  0  0  0
  1  2  1  0  0  0
  4  7  1  0  0  0
  4  5  1  0  0  0
  7  8  1  0  0  0
  7 22  1  0  0  0
  8  9  2  0  0  0
  8 10  1  0  0  0
 10 12  1  0  0  0
 12 18  1  0  0  0
 12 13  1  0  0  0
 18 19  1  0  0  0
 18 20  1  0  0  0
 20 21  1  0  0  0
 13 14  2  0  0  0
 13 15  1  0  0  0
 15 16  1  0  0  0
 22 23  1  0  0  0
 31 32  2  0  0  0
 31 33  1  0  0  0
 33 35  1  0  0  0
 35 41  1  0  0  0
 35 36  1  0  0  0
 41 42  1  0  0  0
 41 43  1  0  0  0
 43 44  1  0  0  0
 36 37  2  0  0  0
 36 38  1  0  0  0
 38 39  1  0  0  0
 10 11  1  0  0  0
 15 17  1  0  0  0
  5  6  1  0  0  0
  2  3  1  0  0  0
 33 34  1  0  0  0
 38 40  1  0  0  0
M  END
> <minimizedAffinity>
-10.03272

$$$$
1EBW_BEI_A_501


 52 53  0  0  0  0  0  0  0  0999 V2000
   13.7573   22.6511    4.9171 C   0  0  0  0  0  0  0  0  0  0  0  0
   14.0609   22.8326    3.4850 O   0  0  0  0  0  0  0  0  0  0  0  0
   14.6381   23.6039    3.3721 H   0  0  0  0  0  0  0  0  0  0  0  0
   13.0387   23.8773    5.3951 C   0  0  0  0  0  0  0  0  0  0  0  0
   13.4660   24.9366    4.4784 O   0  0  0  0  0  0  0  0  0  0  0  0
   13.2571   24.6791    3.5669 H   0  0  0  0  0  0  0  0  0  0  0  0
   11.4951   23.6126    5.3994 C   0  0  0  0  0  0  0  0  0  0  0  0
   10.7499   24.3428    4.2819 C   0  0  0  0  0  0  0  0  0  0  0  0
   11.2694   24.4220    3.1644 O   0  0  0  0  0  0  0  0  0  0  0  0
    9.5429   24.8973    4.5873 N   0  0  0  0  0  0  0  0  0  0  0  0
    9.2014   24.7845    5.5037 H   0  0  0  0  0  0  0  0  0  0  0  0
    8.7117   25.6607    3.6238 C   0  0  0  0  0  0  0  0  0  0  0  0
    8.1244   26.8215    4.4144 C   0  0  0  0  0  0  0  0  0  0  0  0
    8.7303   27.9072    4.4188 O   0  0  0  0  0  0  0  0  0  0  0  0
    6.9450   26.5705    5.0827 N   0  0  0  0  0  0  0  0  0  0  0  0
    6.3705   27.6639    5.8499 C   0  0  0  0  0  0  0  0  0  0  0  0
    6.5100   25.6883    5.0420 H   0  0  0  0  0  0  0  0  0  0  0  0
    7.5311   24.8026    3.0176 C   0  0  0  0  0  0  0  0  0  0  0  0
    7.3107   25.1366    1.5051 C   0  0  0  0  0  0  0  0  0  0  0  0
    7.7593   23.2542    3.1959 C   0  0  0  0  0  0  0  0  0  0  0  0
    8.5359   22.6709    1.9734 C   0  0  0  0  0  0  0  0  0  0  0  0
   10.8878   23.9707    6.7136 O   0  0  0  0  0  0  0  0  0  0  0  0
   11.5967   25.0050    7.4558 C   0  0  0  0  0  0  0  0  0  0  0  0
   10.6556   25.8982    8.2527 C   0  0  0  0  0  0  0  0  0  0  0  0
   11.1640   26.7510    9.2557 C   0  0  0  0  0  0  0  0  0  0  0  0
   10.2984   27.5830   10.0108 C   0  0  0  0  0  0  0  0  0  0  0  0
    8.9095   27.5566    9.7594 C   0  0  0  0  0  0  0  0  0  0  0  0
    8.3757   26.7049    8.7557 C   0  0  0  0  0  0  0  0  0  0  0  0
    9.2548   25.8739    8.0020 C   0  0  0  0  0  0  0  0  0  0  0  0
   15.0457   22.3719    5.6829 C   0  0  0  0  0  0  0  0  0  0  0  0
   15.3542   20.9525    5.4465 C   0  0  0  0  0  0  0  0  0  0  0  0
   14.4192   20.1569    5.6362 O   0  0  0  0  0  0  0  0  0  0  0  0
   16.6075   20.6151    5.0434 N   0  0  0  0  0  0  0  0  0  0  0  0
   17.2761   21.3271    4.9198 H   0  0  0  0  0  0  0  0  0  0  0  0
   16.9934   19.2337    4.7884 C   0  0  0  0  0  0  0  0  0  0  0  0
   18.2682   19.0136    5.5534 C   0  0  0  0  0  0  0  0  0  0  0  0
   19.2516   19.7507    5.3273 O   0  0  0  0  0  0  0  0  0  0  0  0
   18.2374   17.9831    6.4653 N   0  0  0  0  0  0  0  0  0  0  0  0
   19.4668   17.7501    7.2135 C   0  0  0  0  0  0  0  0  0  0  0  0
   17.4316   17.4348    6.6043 H   0  0  0  0  0  0  0  0  0  0  0  0
   17.2164   18.9571    3.2431 C   0  0  0  0  0  0  0  0  0  0  0  0
   17.6937   17.4750    2.9831 C   0  0  0  0  0  0  0  0  0  0  0  0
   15.9216   19.2136    2.4282 C   0  0  0  0  0  0  0  0  0  0  0  0
   14.8983   18.0790    2.6406 C   0  0  0  0  0  0  0  0  0  0  0  0
   14.8599   22.7164    7.1042 O   0  0  0  0  0  0  0  0  0  0  0  0
   16.0903   23.0980    7.8068 C   0  0  0  0  0  0  0  0  0  0  0  0
   16.6730   21.9281    8.5698 C   0  0  0  0  0  0  0  0  0  0  0  0
   18.1027   21.7741    8.6642 C   0  0  0  0  0  0  0  0  0  0  0  0
   18.6739   20.6799    9.3952 C   0  0  0  0  0  0  0  0  0  0  0  0
   17.8140   19.7505   10.0234 C   0  0  0  0  0  0  0  0  0  0  0  0
   16.3837   19.8989    9.9315 C   0  0  0  0  0  0  0  0  0  0  0  0
   15.8130   20.9909    9.2033 C   0  0  0  0  0  0  0  0  0  0  0  0
 24 25  2  0  0  0
 24 29  1  0  0  0
 24 23  1  0  0  0
 25 26  1  0  0  0
 26 27  2  0  0  0
 27 28  1  0  0  0
 28 29  2  0  0  0
 47 48  2  0  0  0
 47 52  1  0  0  0
 47 46  1  0  0  0
 48 49  1  0  0  0
 49 50  2  0  0  0
 50 51  1  0  0  0
 51 52  2  0  0  0
 46 45  1  0  0  0
 45 30  1  0  0  0
 30  1  1  0  0  0
 30 31  1  0  0  0
  1  4  1  0  0  0
  1  2  1  0  0  0
  4  7  1  0  0  0
  4  5  1  0  0  0
  7  8  1  0  0  0
  7 22  1  0  0  0
  8  9  2  0  0  0
  8 10  1  0  0  0
 10 12  1  0  0  0
 12 18  1  0  0  0
 12 13  1  0  0  0
 18 19  1  0  0  0
 18 20  1  0  0  0
 20 21  1  0  0  0
 13 14  2  0  0  0
 13 15  1  0  0  0
 15 16  1  0  0  0
 22 23  1  0  0  0
 31 32  2  0  0  0
 31 33  1  0  0  0
 33 35  1  0  0  0
 35 41  1  0  0  0
 35 36  1  0  0  0
 41 42  1  0  0  0
 41 43  1  0  0  0
 43 44  1  0  0  0
 36 37  2  0  0  0
 36 38  1  0  0  0
 38 39  1  0  0  0
 10 11  1  0  0  0
 15 17  1  0  0  0
  5  6  1  0  0  0
  2  3  1  0  0  0
 33 34  1  0  0  0
 38 40  1  0  0  0
M  END
> <minimizedAffinity>
-9.78267

$$$$
1EBW_BEI_A_501


 52 53  0  0  0  0  0  0  0  0999 V2000
   14.8215   23.7256    4.9985 C   0  0  0  0  0  0  0  0  0  0  0  0
   15.6280   23.7973    6.2316 O   0  0  0  0  0  0  0  0  0  0  0  0
   15.1034   23.4731    6.9803 H   0  0  0  0  0  0  0  0  0  0  0  0
   13.6237   24.6093    5.1789 C   0  0  0  0  0  0  0  0  0  0  0  0
   13.8232   25.7014    4.2235 O   0  0  0  0  0  0  0  0  0  0  0  0
   13.9210   25.3358    3.3304 H   0  0  0  0  0  0  0  0  0  0  0  0
   12.3178   23.7775    4.9434 C   0  0  0  0  0  0  0  0  0  0  0  0
   11.5223   24.2284    3.7181 C   0  0  0  0  0  0  0  0  0  0  0  0
   12.0024   24.0575    2.5932 O   0  0  0  0  0  0  0  0  0  0  0  0
   10.3166   24.8258    3.9346 N   0  0  0  0  0  0  0  0  0  0  0  0
   10.0083   24.9201    4.8648 H   0  0  0  0  0  0  0  0  0  0  0  0
    9.4399   25.3430    2.8549 C   0  0  0  0  0  0  0  0  0  0  0  0
    8.5522   26.3916    3.5106 C   0  0  0  0  0  0  0  0  0  0  0  0
    8.3455   27.4592    2.9080 O   0  0  0  0  0  0  0  0  0  0  0  0
    8.0415   26.0705    4.7503 N   0  0  0  0  0  0  0  0  0  0  0  0
    7.1967   27.0612    5.3976 C   0  0  0  0  0  0  0  0  0  0  0  0
    8.2403   25.2069    5.1791 H   0  0  0  0  0  0  0  0  0  0  0  0
    8.5260   24.2224    2.2171 C   0  0  0  0  0  0  0  0  0  0  0  0
    8.1639   23.1236    3.2704 C   0  0  0  0  0  0  0  0  0  0  0  0
    7.2095   24.8090    1.5816 C   0  0  0  0  0  0  0  0  0  0  0  0
    5.9497   24.1394    2.2163 C   0  0  0  0  0  0  0  0  0  0  0  0
   11.4334   23.8063    6.1439 O   0  0  0  0  0  0  0  0  0  0  0  0
   12.0049   24.4646    7.3115 C   0  0  0  0  0  0  0  0  0  0  0  0
   10.9856   25.3152    8.0573 C   0  0  0  0  0  0  0  0  0  0  0  0
    9.6043   25.0779    7.8916 C   0  0  0  0  0  0  0  0  0  0  0  0
    8.6435   25.8670    8.5741 C   0  0  0  0  0  0  0  0  0  0  0  0
    9.0726   26.9060    9.4281 C   0  0  0  0  0  0  0  0  0  0  0  0
   10.4579   27.1637    9.6085 C   0  0  0  0  0  0  0  0  0  0  0  0
   11.4147   26.3637    8.9188 C   0  0  0  0  0  0  0  0  0  0  0  0
   14.4596   22.2737    4.7063 C   0  0  0  0  0  0  0  0  0  0  0  0
   14.9117   21.5035    5.8760 C   0  0  0  0  0  0  0  0  0  0  0  0
   14.0550   21.2969    6.7515 O   0  0  0  0  0  0  0  0  0  0  0  0
   16.2016   21.0775    5.9183 N   0  0  0  0  0  0  0  0  0  0  0  0
   16.7998   21.2941    5.1670 H   0  0  0  0  0  0  0  0  0  0  0  0
   16.7275   20.3105    7.0397 C   0  0  0  0  0  0  0  0  0  0  0  0
   16.4873   21.1504    8.2626 C   0  0  0  0  0  0  0  0  0  0  0  0
   17.0916   22.2373    8.3859 O   0  0  0  0  0  0  0  0  0  0  0  0
   15.5930   20.6283    9.1693 N   0  0  0  0  0  0  0  0  0  0  0  0
   15.3508   21.4260   10.3653 C   0  0  0  0  0  0  0  0  0  0  0  0
   15.1427   19.7658    9.0188 H   0  0  0  0  0  0  0  0  0  0  0  0
   18.2735   20.0007    6.8717 C   0  0  0  0  0  0  0  0  0  0  0  0
   18.7923   19.0183    7.9931 C   0  0  0  0  0  0  0  0  0  0  0  0
   18.5799   19.3789    5.4840 C   0  0  0  0  0  0  0  0  0  0  0  0
   19.0936   17.9312    5.6258 C   0  0  0  0  0  0  0  0  0  0  0  0
   15.0810   21.8558    3.4365 O   0  0  0  0  0  0  0  0  0  0  0  0
   14.3951   20.7527    2.7539 C   0  0  0  0  0  0  0  0  0  0  0  0
   15.2193   19.4840    2.7943 C   0  0  0  0  0  0  0  0  0  0  0  0
   16.2186   19.2457    1.7837 C   0  0  0  0  0  0  0  0  0  0  0  0
   17.0197   18.0560    1.8134 C   0  0  0  0  0  0  0  0  0  0  0  0
   16.8154   17.1164    2.8494 C   0  0  0  0  0  0  0  0  0  0  0  0
   15.8169   17.3490    3.8619 C   0  0  0  0  0  0  0  0  0  0  0  0
   15.0181   18.5362    3.8337 C   0  0  0  0  0  0  0  0  0  0  0  0
 24 25  2  0  0  0
 24 29  1  0  0  0
 24 23  1  0  0  0
 25 26  1  0  0  0
 26 27  2  0  0  0
 27 28  1  0  0  0
 28 29  2  0  0  0
 47 48  2  0  0  0
 47 52  1  0  0  0
 47 46  1  0  0  0
 48 49  1  0  0  0
 49 50  2  0  0  0
 50 51  1  0  0  0
 51 52  2  0  0  0
 46 45  1  0  0  0
 45 30  1  0  0  0
 30  1  1  0  0  0
 30 31  1  0  0  0
  1  4  1  0  0  0
  1  2  1  0  0  0
  4  7  1  0  0  0
  4  5  1  0  0  0
  7  8  1  0  0  0
  7 22  1  0  0  0
  8  9  2  0  0  0
  8 10  1  0  0  0
 10 12  1  0  0  0
 12 18  1  0  0  0
 12 13  1  0  0  0
 18 19  1  0  0  0
 18 20  1  0  0  0
 20 21  1  0  0  0
 13 14  2  0  0  0
 13 15  1  0  0  0
 15 16  1  0  0  0
 22 23  1  0  0  0
 31 32  2  0  0  0
 31 33  1  0  0  0
 33 35  1  0  0  0
 35 41  1  0  0  0
 35 36  1  0  0  0
 41 42  1  0  0  0
 41 43  1  0  0  0
 43 44  1  0  0  0
 36 37  2  0  0  0
 36 38  1  0  0  0
 38 39  1  0  0  0
 10 11  1  0  0  0
 15 17  1  0  0  0
  5  6  1  0  0  0
  2  3  1  0  0  0
 33 34  1  0  0  0
 38 40  1  0  0  0
M  END
> <minimizedAffinity>
-9.71885

$$$$
1EBW_BEI_A_501


 52 53  0  0  0  0  0  0  0  0999 V2000
   13.2180   24.3453    5.0254 C   0  0  0  0  0  0  0  0  0  0  0  0
   13.2105   25.3478    3.9433 O   0  0  0  0  0  0  0  0  0  0  0  0
   13.1112   24.9001    3.0885 H   0  0  0  0  0  0  0  0  0  0  0  0
   14.3920   23.4387    4.8060 C   0  0  0  0  0  0  0  0  0  0  0  0
   15.5592   24.3196    4.8874 O   0  0  0  0  0  0  0  0  0  0  0  0
   15.5600   24.7769    5.7428 H   0  0  0  0  0  0  0  0  0  0  0  0
   14.3750   22.2911    5.8716 C   0  0  0  0  0  0  0  0  0  0  0  0
   15.2542   22.5786    7.0888 C   0  0  0  0  0  0  0  0  0  0  0  0
   15.2502   23.7119    7.5793 O   0  0  0  0  0  0  0  0  0  0  0  0
   16.0264   21.5605    7.5627 N   0  0  0  0  0  0  0  0  0  0  0  0
   15.9663   20.6870    7.1125 H   0  0  0  0  0  0  0  0  0  0  0  0
   16.9522   21.6871    8.7155 C   0  0  0  0  0  0  0  0  0  0  0  0
   18.3058   21.2049    8.2128 C   0  0  0  0  0  0  0  0  0  0  0  0
   19.2968   21.3324    8.9526 O   0  0  0  0  0  0  0  0  0  0  0  0
   18.3279   20.6585    6.9472 N   0  0  0  0  0  0  0  0  0  0  0  0
   19.6123   20.1980    6.4447 C   0  0  0  0  0  0  0  0  0  0  0  0
   17.5086   20.5833    6.4065 H   0  0  0  0  0  0  0  0  0  0  0  0
   16.5182   20.8024    9.9510 C   0  0  0  0  0  0  0  0  0  0  0  0
   15.0654   21.1541   10.4132 C   0  0  0  0  0  0  0  0  0  0  0  0
   16.6262   19.2592    9.6538 C   0  0  0  0  0  0  0  0  0  0  0  0
   17.5908   18.5720   10.6712 C   0  0  0  0  0  0  0  0  0  0  0  0
   14.7766   20.9871    5.2696 O   0  0  0  0  0  0  0  0  0  0  0  0
   14.7881   20.9612    3.8128 C   0  0  0  0  0  0  0  0  0  0  0  0
   15.6247   19.8165    3.2575 C   0  0  0  0  0  0  0  0  0  0  0  0
   16.7930   19.3986    3.9299 C   0  0  0  0  0  0  0  0  0  0  0  0
   17.5859   18.3386    3.4204 C   0  0  0  0  0  0  0  0  0  0  0  0
   17.2048   17.6944    2.2235 C   0  0  0  0  0  0  0  0  0  0  0  0
   16.0336   18.0997    1.5293 C   0  0  0  0  0  0  0  0  0  0  0  0
   15.2435   19.1650    2.0509 C   0  0  0  0  0  0  0  0  0  0  0  0
   11.8841   23.6074    5.0500 C   0  0  0  0  0  0  0  0  0  0  0  0
   11.2828   23.8198    3.7236 C   0  0  0  0  0  0  0  0  0  0  0  0
   11.9573   23.4311    2.7556 O   0  0  0  0  0  0  0  0  0  0  0  0
   10.0601   24.4083    3.6477 N   0  0  0  0  0  0  0  0  0  0  0  0
    9.6082   24.6770    4.4801 H   0  0  0  0  0  0  0  0  0  0  0  0
    9.3968   24.6542    2.3743 C   0  0  0  0  0  0  0  0  0  0  0  0
    8.7416   26.0006    2.5037 C   0  0  0  0  0  0  0  0  0  0  0  0
    8.2273   26.5295    1.4951 O   0  0  0  0  0  0  0  0  0  0  0  0
    8.7688   26.5499    3.7655 N   0  0  0  0  0  0  0  0  0  0  0  0
    8.1430   27.8587    3.9102 C   0  0  0  0  0  0  0  0  0  0  0  0
    9.1868   26.0857    4.5264 H   0  0  0  0  0  0  0  0  0  0  0  0
    8.3185   23.5397    2.0437 C   0  0  0  0  0  0  0  0  0  0  0  0
    8.9933   22.2338    1.4680 C   0  0  0  0  0  0  0  0  0  0  0  0
    7.4911   23.1604    3.2999 C   0  0  0  0  0  0  0  0  0  0  0  0
    6.0291   23.6339    3.1652 C   0  0  0  0  0  0  0  0  0  0  0  0
   11.0633   24.1079    6.1675 O   0  0  0  0  0  0  0  0  0  0  0  0
   11.8095   24.8506    7.1897 C   0  0  0  0  0  0  0  0  0  0  0  0
   10.9406   25.8976    7.8525 C   0  0  0  0  0  0  0  0  0  0  0  0
    9.8892   26.5365    7.1022 C   0  0  0  0  0  0  0  0  0  0  0  0
    9.0459   27.5207    7.7171 C   0  0  0  0  0  0  0  0  0  0  0  0
    9.2603   27.8580    9.0729 C   0  0  0  0  0  0  0  0  0  0  0  0
   10.3107   27.2231    9.8277 C   0  0  0  0  0  0  0  0  0  0  0  0
   11.1518   26.2403    9.2153 C   0  0  0  0  0  0  0  0  0  0  0  0
 24 25  2  0  0  0
 24 29  1  0  0  0
 24 23  1  0  0  0
 25 26  1  0  0  0
 26 27  2  0  0  0
 27 28  1  0  0  0
 28 29  2  0  0  0
 47 48  2  0  0  0
 47 52  1  0  0  0
 47 46  1  0  0  0
 48 49  1  0  0  0
 49 50  2  0  0  0
 50 51  1  0  0  0
 51 52  2  0  0  0
 46 45  1  0  0  0
 45 30  1  0  0  0
 30  1  1  0  0  0
 30 31  1  0  0  0
  1  4  1  0  0  0
  1  2  1  0  0  0
  4  7  1  0  0  0
  4  5  1  0  0  0
  7  8  1  0  0  0
  7 22  1  0  0  0
  8  9  2  0  0  0
  8 10  1  0  0  0
 10 12  1  0  0  0
 12 18  1  0  0  0
 12 13  1  0  0  0
 18 19  1  0  0  0
 18 20  1  0  0  0
 20 21  1  0  0  0
 13 14  2  0  0  0
 13 15  1  0  0  0
 15 16  1  0  0  0
 22 23  1  0  0  0
 31 32  2  0  0  0
 31 33  1  0  0  0
 33 35  1  0  0  0
 35 41  1  0  0  0
 35 36  1  0  0  0
 41 42  1  0  0  0
 41 43  1  0  0  0
 43 44  1  0  0  0
 36 37  2  0  0  0
 36 38  1  0  0  0
 38 39  1  0  0  0
 10 11  1  0  0  0
 15 17  1  0  0  0
  5  6  1  0  0  0
  2  3  1  0  0  0
 33 34  1  0  0  0
 38 40  1  0  0  0
M  END
> <minimizedAffinity>
-9.58932

$$$$
1EBW_BEI_A_501


 52 53  0  0  0  0  0  0  0  0999 V2000
   14.3199   23.3858    5.3195 C   0  0  0  0  0  0  0  0  0  0  0  0
   15.6698   23.9690    5.4360 O   0  0  0  0  0  0  0  0  0  0  0  0
   15.7847   24.3436    6.3233 H   0  0  0  0  0  0  0  0  0  0  0  0
   13.3227   24.4873    5.5211 C   0  0  0  0  0  0  0  0  0  0  0  0
   13.7120   25.5188    4.5570 O   0  0  0  0  0  0  0  0  0  0  0  0
   13.7170   25.1409    3.6636 H   0  0  0  0  0  0  0  0  0  0  0  0
   11.8743   23.9277    5.3166 C   0  0  0  0  0  0  0  0  0  0  0  0
   11.2104   24.4150    4.0286 C   0  0  0  0  0  0  0  0  0  0  0  0
   11.8062   24.2776    2.9556 O   0  0  0  0  0  0  0  0  0  0  0  0
    9.9869   25.0060    4.1351 N   0  0  0  0  0  0  0  0  0  0  0  0
    9.5825   25.0726    5.0302 H   0  0  0  0  0  0  0  0  0  0  0  0
    9.2267   25.5553    2.9852 C   0  0  0  0  0  0  0  0  0  0  0  0
    8.2672   26.5790    3.5759 C   0  0  0  0  0  0  0  0  0  0  0  0
    8.1200   27.6658    2.9902 O   0  0  0  0  0  0  0  0  0  0  0  0
    7.6280   26.2152    4.7419 N   0  0  0  0  0  0  0  0  0  0  0  0
    6.7124   27.1814    5.3269 C   0  0  0  0  0  0  0  0  0  0  0  0
    7.7848   25.3381    5.1608 H   0  0  0  0  0  0  0  0  0  0  0  0
    8.3935   24.4532    2.2179 C   0  0  0  0  0  0  0  0  0  0  0  0
    7.9365   23.3147    3.1889 C   0  0  0  0  0  0  0  0  0  0  0  0
    7.1429   25.0546    1.4724 C   0  0  0  0  0  0  0  0  0  0  0  0
    5.8365   24.3252    1.9188 C   0  0  0  0  0  0  0  0  0  0  0  0
   10.9981   24.2555    6.4781 O   0  0  0  0  0  0  0  0  0  0  0  0
   11.6124   25.1055    7.4896 C   0  0  0  0  0  0  0  0  0  0  0  0
   10.5899   25.9458    8.2428 C   0  0  0  0  0  0  0  0  0  0  0  0
   11.0094   26.8445    9.2468 C   0  0  0  0  0  0  0  0  0  0  0  0
   10.0677   27.6281    9.9615 C   0  0  0  0  0  0  0  0  0  0  0  0
    8.6921   27.5062    9.6684 C   0  0  0  0  0  0  0  0  0  0  0  0
    8.2473   26.6068    8.6629 C   0  0  0  0  0  0  0  0  0  0  0  0
    9.2023   25.8252    7.9500 C   0  0  0  0  0  0  0  0  0  0  0  0
   14.1664   22.2448    6.3190 C   0  0  0  0  0  0  0  0  0  0  0  0
   15.3625   22.2964    7.1747 C   0  0  0  0  0  0  0  0  0  0  0  0
   15.3950   23.2211    8.0036 O   0  0  0  0  0  0  0  0  0  0  0  0
   16.3255   21.3519    7.0085 N   0  0  0  0  0  0  0  0  0  0  0  0
   16.1990   20.6583    6.3214 H   0  0  0  0  0  0  0  0  0  0  0  0
   17.5390   21.3329    7.8143 C   0  0  0  0  0  0  0  0  0  0  0  0
   18.4743   20.3766    7.1291 C   0  0  0  0  0  0  0  0  0  0  0  0
   19.6855   20.6690    7.0338 O   0  0  0  0  0  0  0  0  0  0  0  0
   17.8922   19.2249    6.6503 N   0  0  0  0  0  0  0  0  0  0  0  0
   18.7824   18.2869    5.9772 C   0  0  0  0  0  0  0  0  0  0  0  0
   16.9301   19.0449    6.7562 H   0  0  0  0  0  0  0  0  0  0  0  0
   17.2542   20.8637    9.3019 C   0  0  0  0  0  0  0  0  0  0  0  0
   16.1397   19.7468    9.3535 C   0  0  0  0  0  0  0  0  0  0  0  0
   18.5381   20.3178    9.9802 C   0  0  0  0  0  0  0  0  0  0  0  0
   18.2287   19.0668   10.8281 C   0  0  0  0  0  0  0  0  0  0  0  0
   14.0023   20.9718    5.5939 O   0  0  0  0  0  0  0  0  0  0  0  0
   14.1423   21.0754    4.1369 C   0  0  0  0  0  0  0  0  0  0  0  0
   14.8253   19.8534    3.5619 C   0  0  0  0  0  0  0  0  0  0  0  0
   15.2241   19.8397    2.1772 C   0  0  0  0  0  0  0  0  0  0  0  0
   15.8856   18.6963    1.6178 C   0  0  0  0  0  0  0  0  0  0  0  0
   16.1418   17.5787    2.4444 C   0  0  0  0  0  0  0  0  0  0  0  0
   15.7444   17.5864    3.8294 C   0  0  0  0  0  0  0  0  0  0  0  0
   15.0854   18.7272    4.3886 C   0  0  0  0  0  0  0  0  0  0  0  0
 24 25  2  0  0  0
 24 29  1  0  0  0
 24 23  1  0  0  0
 25 26  1  0  0  0
 26 27  2  0  0  0
 27 28  1  0  0  0
 28 29  2  0  0  0
 47 48  2  0  0  0
 47 52  1  0  0  0
 47 46  1  0  0  0
 48 49  1  0  0  0
 49 50  2  0  0  0
 50 51  1  0  0  0
 51 52  2  0  0  0
 46 45  1  0  0  0
 45 30  1  0  0  0
 30  1  1  0  0  0
 30 31  1  0  0  0
  1  4  1  0  0  0
  1  2  1  0  0  0
  4  7  1  0  0  0
  4  5  1  0  0  0
  7  8  1  0  0  0
  7 22  1  0  0  0
  8  9  2  0  0  0
  8 10  1  0  0  0
 10 12  1  0  0  0
 12 18  1  0  0  0
 12 13  1  0  0  0
 18 19  1  0  0  0
 18 20  1  0  0  0
 20 21  1  0  0  0
 13 14  2  0  0  0
 13 15  1  0  0  0
 15 16  1  0  0  0
 22 23  1  0  0  0
 31 32  2  0  0  0
 31 33  1  0  0  0
 33 35  1  0  0  0
 35 41  1  0  0  0
 35 36  1  0  0  0
 41 42  1  0  0  0
 41 43  1  0  0  0
 43 44  1  0  0  0
 36 37  2  0  0  0
 36 38  1  0  0  0
 38 39  1  0  0  0
 10 11  1  0  0  0
 15 17  1  0  0  0
  5  6  1  0  0  0
  2  3  1  0  0  0
 33 34  1  0  0  0
 38 40  1  0  0  0
M  END
> <minimizedAffinity>
-9.46463

$$$$
1EBW_BEI_A_501


 52 53  0  0  0  0  0  0  0  0999 V2000
   13.5803   22.7960    4.4846 C   0  0  0  0  0  0  0  0  0  0  0  0
   13.9099   22.4562    3.0875 O   0  0  0  0  0  0  0  0  0  0  0  0
   14.6196   23.0375    2.7722 H   0  0  0  0  0  0  0  0  0  0  0  0
   13.1013   24.2166    4.5129 C   0  0  0  0  0  0  0  0  0  0  0  0
   12.6811   24.4921    3.1372 O   0  0  0  0  0  0  0  0  0  0  0  0
   12.0079   23.8471    2.8694 H   0  0  0  0  0  0  0  0  0  0  0  0
   11.9616   24.3649    5.5768 C   0  0  0  0  0  0  0  0  0  0  0  0
   10.5571   24.3000    4.9764 C   0  0  0  0  0  0  0  0  0  0  0  0
   10.0369   23.1971    4.7814 O   0  0  0  0  0  0  0  0  0  0  0  0
    9.9517   25.4796    4.6610 N   0  0  0  0  0  0  0  0  0  0  0  0
   10.4379   26.3140    4.8524 H   0  0  0  0  0  0  0  0  0  0  0  0
    8.6049   25.5840    4.0469 C   0  0  0  0  0  0  0  0  0  0  0  0
    8.8383   25.6156    2.5429 C   0  0  0  0  0  0  0  0  0  0  0  0
    9.3465   24.6208    1.9972 O   0  0  0  0  0  0  0  0  0  0  0  0
    8.4654   26.7719    1.8912 N   0  0  0  0  0  0  0  0  0  0  0  0
    8.6863   26.8258    0.4551 C   0  0  0  0  0  0  0  0  0  0  0  0
    8.0664   27.5291    2.3777 H   0  0  0  0  0  0  0  0  0  0  0  0
    7.8355   26.8964    4.4750 C   0  0  0  0  0  0  0  0  0  0  0  0
    6.2978   26.6342    4.5950 C   0  0  0  0  0  0  0  0  0  0  0  0
    8.3818   27.5018    5.8227 C   0  0  0  0  0  0  0  0  0  0  0  0
    7.2228   28.1584    6.6375 C   0  0  0  0  0  0  0  0  0  0  0  0
   12.1080   25.6290    6.3545 O   0  0  0  0  0  0  0  0  0  0  0  0
   12.1530   25.4580    7.8009 C   0  0  0  0  0  0  0  0  0  0  0  0
   10.9125   26.0091    8.4910 C   0  0  0  0  0  0  0  0  0  0  0  0
   10.9853   27.2066    9.2342 C   0  0  0  0  0  0  0  0  0  0  0  0
    9.8398   27.7277    9.8883 C   0  0  0  0  0  0  0  0  0  0  0  0
    8.6107   27.0391    9.7986 C   0  0  0  0  0  0  0  0  0  0  0  0
    8.5148   25.8312    9.0572 C   0  0  0  0  0  0  0  0  0  0  0  0
    9.6718   25.3172    8.4028 C   0  0  0  0  0  0  0  0  0  0  0  0
   14.7961   22.5532    5.3718 C   0  0  0  0  0  0  0  0  0  0  0  0
   15.1362   21.1308    5.2072 C   0  0  0  0  0  0  0  0  0  0  0  0
   14.2071   20.3276    5.3937 O   0  0  0  0  0  0  0  0  0  0  0  0
   16.4096   20.7990    4.8676 N   0  0  0  0  0  0  0  0  0  0  0  0
   17.0712   21.5169    4.7403 H   0  0  0  0  0  0  0  0  0  0  0  0
   16.8271   19.4152    4.6859 C   0  0  0  0  0  0  0  0  0  0  0  0
   18.0776   19.2509    5.5033 C   0  0  0  0  0  0  0  0  0  0  0  0
   19.0577   19.9923    5.2766 O   0  0  0  0  0  0  0  0  0  0  0  0
   18.0298   18.2633    6.4608 N   0  0  0  0  0  0  0  0  0  0  0  0
   19.2356   18.0847    7.2605 C   0  0  0  0  0  0  0  0  0  0  0  0
   17.2275   17.7094    6.5978 H   0  0  0  0  0  0  0  0  0  0  0  0
   17.1091   19.0773    3.1626 C   0  0  0  0  0  0  0  0  0  0  0  0
   17.7381   17.6390    2.9954 C   0  0  0  0  0  0  0  0  0  0  0  0
   15.8125   19.1556    2.3147 C   0  0  0  0  0  0  0  0  0  0  0  0
   14.8028   18.0709    2.7433 C   0  0  0  0  0  0  0  0  0  0  0  0
   14.4794   22.9373    6.7594 O   0  0  0  0  0  0  0  0  0  0  0  0
   15.6390   23.3449    7.5609 C   0  0  0  0  0  0  0  0  0  0  0  0
   16.1205   22.2152    8.4454 C   0  0  0  0  0  0  0  0  0  0  0  0
   15.1782   21.4914    9.2608 C   0  0  0  0  0  0  0  0  0  0  0  0
   15.6132   20.4081   10.0946 C   0  0  0  0  0  0  0  0  0  0  0  0
   16.9827   20.0586   10.1074 C   0  0  0  0  0  0  0  0  0  0  0  0
   17.9295   20.7795    9.2949 C   0  0  0  0  0  0  0  0  0  0  0  0
   17.4962   21.8597    8.4619 C   0  0  0  0  0  0  0  0  0  0  0  0
 24 25  2  0  0  0
 24 29  1  0  0  0
 24 23  1  0  0  0
 25 26  1  0  0  0
 26 27  2  0  0  0
 27 28  1  0  0  0
 28 29  2  0  0  0
 47 48  2  0  0  0
 47 52  1  0  0  0
 47 46  1  0  0  0
 48 49  1  0  0  0
 49 50  2  0  0  0
 50 51  1  0  0  0
 51 52  2  0  0  0
 46 45  1  0  0  0
 45 30  1  0  0  0
 30  1  1  0  0  0
 30 31  1  0  0  0
  1  4  1  0  0  0
  1  2  1  0  0  0
  4  7  1  0  0  0
  4  5  1  0  0  0
  7  8  1  0  0  0
  7 22  1  0  0  0
  8  9  2  0  0  0
  8 10  1  0  0  0
 10 12  1  0  0  0
 12 18  1  0  0  0
 12 13  1  0  0  0
 18 19  1  0  0  0
 18 20  1  0  0  0
 20 21  1  0  0  0
 13 14  2  0  0  0
 13 15  1  0  0  0
 15 16  1  0  0  0
 22 23  1  0  0  0
 31 32  2  0  0  0
 31 33  1  0  0  0
 33 35  1  0  0  0
 35 41  1  0  0  0
 35 36  1  0  0  0
 41 42  1  0  0  0
 41 43  1  0  0  0
 43 44  1  0  0  0
 36 37  2  0  0  0
 36 38  1  0  0  0
 38 39  1  0  0  0
 10 11  1  0  0  0
 15 17  1  0  0  0
  5  6  1  0  0  0
  2  3  1  0  0  0
 33 34  1  0  0  0
 38 40  1  0  0  0
M  END
> <minimizedAffinity>
-9.42123

$$$$
1EBW_BEI_A_501


 52 53  0  0  0  0  0  0  0  0999 V2000
   13.2232   23.5350    6.6815 C   0  0  0  0  0  0  0  0  0  0  0  0
   13.7494   24.5482    7.6157 O   0  0  0  0  0  0  0  0  0  0  0  0
   14.3163   25.1697    7.1328 H   0  0  0  0  0  0  0  0  0  0  0  0
   14.3896   22.7901    6.1043 C   0  0  0  0  0  0  0  0  0  0  0  0
   15.5040   23.7379    6.1739 O   0  0  0  0  0  0  0  0  0  0  0  0
   15.6267   24.0260    7.0920 H   0  0  0  0  0  0  0  0  0  0  0  0
   14.6178   21.4669    6.9103 C   0  0  0  0  0  0  0  0  0  0  0  0
   15.6849   21.5935    7.9977 C   0  0  0  0  0  0  0  0  0  0  0  0
   15.7064   22.6062    8.7042 O   0  0  0  0  0  0  0  0  0  0  0  0
   16.5855   20.5777    8.1179 N   0  0  0  0  0  0  0  0  0  0  0  0
   16.4939   19.8053    7.5143 H   0  0  0  0  0  0  0  0  0  0  0  0
   17.6957   20.5638    9.1024 C   0  0  0  0  0  0  0  0  0  0  0  0
   18.9766   20.6054    8.2808 C   0  0  0  0  0  0  0  0  0  0  0  0
   19.6206   19.5532    8.1264 O   0  0  0  0  0  0  0  0  0  0  0  0
   19.3326   21.8340    7.7666 N   0  0  0  0  0  0  0  0  0  0  0  0
   20.5567   21.8975    6.9845 C   0  0  0  0  0  0  0  0  0  0  0  0
   18.7812   22.6346    7.9224 H   0  0  0  0  0  0  0  0  0  0  0  0
   17.7033   19.2632   10.0002 C   0  0  0  0  0  0  0  0  0  0  0  0
   18.3313   19.5512   11.4039 C   0  0  0  0  0  0  0  0  0  0  0  0
   16.2656   18.6435   10.1741 C   0  0  0  0  0  0  0  0  0  0  0  0
   16.3585   17.2039   10.7715 C   0  0  0  0  0  0  0  0  0  0  0  0
   14.9678   20.3347    6.0048 O   0  0  0  0  0  0  0  0  0  0  0  0
   14.3636   20.3987    4.6804 C   0  0  0  0  0  0  0  0  0  0  0  0
   15.0862   19.5205    3.6679 C   0  0  0  0  0  0  0  0  0  0  0  0
   15.8110   18.3885    4.0979 C   0  0  0  0  0  0  0  0  0  0  0  0
   16.4949   17.5657    3.1669 C   0  0  0  0  0  0  0  0  0  0  0  0
   16.4540   17.8835    1.7920 C   0  0  0  0  0  0  0  0  0  0  0  0
   15.7319   19.0191    1.3370 C   0  0  0  0  0  0  0  0  0  0  0  0
   15.0472   19.8382    2.2811 C   0  0  0  0  0  0  0  0  0  0  0  0
   12.3591   24.2126    5.6238 C   0  0  0  0  0  0  0  0  0  0  0  0
   11.1138   24.5965    6.3078 C   0  0  0  0  0  0  0  0  0  0  0  0
   10.6176   23.7343    7.0518 O   0  0  0  0  0  0  0  0  0  0  0  0
   10.6045   25.8373    6.0887 N   0  0  0  0  0  0  0  0  0  0  0  0
   11.0803   26.4470    5.4796 H   0  0  0  0  0  0  0  0  0  0  0  0
    9.3769   26.2942    6.7265 C   0  0  0  0  0  0  0  0  0  0  0  0
    8.5355   26.8815    5.6284 C   0  0  0  0  0  0  0  0  0  0  0  0
    8.9995   27.8105    4.9333 O   0  0  0  0  0  0  0  0  0  0  0  0
    7.2852   26.3247    5.4826 N   0  0  0  0  0  0  0  0  0  0  0  0
    6.4516   26.8850    4.4260 C   0  0  0  0  0  0  0  0  0  0  0  0
    6.9720   25.5904    6.0587 H   0  0  0  0  0  0  0  0  0  0  0  0
    9.6611   27.3765    7.8499 C   0  0  0  0  0  0  0  0  0  0  0  0
    8.3506   27.7339    8.6543 C   0  0  0  0  0  0  0  0  0  0  0  0
   10.7411   26.8864    8.8497 C   0  0  0  0  0  0  0  0  0  0  0  0
   10.1183   26.0032    9.9505 C   0  0  0  0  0  0  0  0  0  0  0  0
   12.1605   23.2956    4.4868 O   0  0  0  0  0  0  0  0  0  0  0  0
   11.9510   23.9594    3.1950 C   0  0  0  0  0  0  0  0  0  0  0  0
   10.4790   24.0483    2.8550 C   0  0  0  0  0  0  0  0  0  0  0  0
    9.5770   23.0156    3.2985 C   0  0  0  0  0  0  0  0  0  0  0  0
    8.1761   23.0896    2.9984 C   0  0  0  0  0  0  0  0  0  0  0  0
    7.6897   24.1916    2.2588 C   0  0  0  0  0  0  0  0  0  0  0  0
    8.5871   25.2265    1.8119 C   0  0  0  0  0  0  0  0  0  0  0  0
    9.9847   25.1540    2.1118 C   0  0  0  0  0  0  0  0  0  0  0  0
 24 25  2  0  0  0
 24 29  1  0  0  0
 24 23  1  0  0  0
 25 26  1  0  0  0
 26 27  2  0  0  0
 27 28  1  0  0  0
 28 29  2  0  0  0
 47 48  2  0  0  0
 47 52  1  0  0  0
 47 46  1  0  0  0
 48 49  1  0  0  0
 49 50  2  0  0  0
 50 51  1  0  0  0
 51 52  2  0  0  0
 46 45  1  0  0  0
 45 30  1  0  0  0
 30  1  1  0  0  0
 30 31  1  0  0  0
  1  4  1  0  0  0
  1  2  1  0  0  0
  4  7  1  0  0  0
  4  5  1  0  0  0
  7  8  1  0  0  0
  7 22  1  0  0  0
  8  9  2  0  0  0
  8 10  1  0  0  0
 10 12  1  0  0  0
 12 18  1  0  0  0
 12 13  1  0  0  0
 18 19  1  0  0  0
 18 20  1  0  0  0
 20 21  1  0  0  0
 13 14  2  0  0  0
 13 15  1  0  0  0
 15 16  1  0  0  0
 22 23  1  0  0  0
 31 32  2  0  0  0
 31 33  1  0  0  0
 33 35  1  0  0  0
 35 41  1  0  0  0
 35 36  1  0  0  0
 41 42  1  0  0  0
 41 43  1  0  0  0
 43 44  1  0  0  0
 36 37  2  0  0  0
 36 38  1  0  0  0
 38 39  1  0  0  0
 10 11  1  0  0  0
 15 17  1  0  0  0
  5  6  1  0  0  0
  2  3  1  0  0  0
 33 34  1  0  0  0
 38 40  1  0  0  0
M  END
> <minimizedAffinity>
-9.39513

$$$$
1EBW_BEI_A_501


 52 53  0  0  0  0  0  0  0  0999 V2000
   14.9804   23.6616    5.6417 C   0  0  0  0  0  0  0  0  0  0  0  0
   15.1313   23.8470    7.0973 O   0  0  0  0  0  0  0  0  0  0  0  0
   14.3215   23.5573    7.5459 H   0  0  0  0  0  0  0  0  0  0  0  0
   13.8338   24.5130    5.1849 C   0  0  0  0  0  0  0  0  0  0  0  0
   13.4496   23.9502    3.8885 O   0  0  0  0  0  0  0  0  0  0  0  0
   13.2338   23.0105    3.9951 H   0  0  0  0  0  0  0  0  0  0  0  0
   12.6974   24.4846    6.2621 C   0  0  0  0  0  0  0  0  0  0  0  0
   11.3028   24.2811    5.6696 C   0  0  0  0  0  0  0  0  0  0  0  0
   10.8512   23.1357    5.5744 O   0  0  0  0  0  0  0  0  0  0  0  0
   10.6292   25.3888    5.2492 N   0  0  0  0  0  0  0  0  0  0  0  0
   11.0631   26.2649    5.3650 H   0  0  0  0  0  0  0  0  0  0  0  0
    9.2821   25.3559    4.6278 C   0  0  0  0  0  0  0  0  0  0  0  0
    9.4940   24.8446    3.2097 C   0  0  0  0  0  0  0  0  0  0  0  0
    8.5067   24.4541    2.5627 O   0  0  0  0  0  0  0  0  0  0  0  0
   10.7926   24.8491    2.7466 N   0  0  0  0  0  0  0  0  0  0  0  0
   11.0182   24.3579    1.3968 C   0  0  0  0  0  0  0  0  0  0  0  0
   11.5357   25.1712    3.3063 H   0  0  0  0  0  0  0  0  0  0  0  0
    8.6011   26.7806    4.5638 C   0  0  0  0  0  0  0  0  0  0  0  0
    8.6308   27.3544    3.1086 C   0  0  0  0  0  0  0  0  0  0  0  0
    7.1210   26.7649    5.1027 C   0  0  0  0  0  0  0  0  0  0  0  0
    6.9204   27.8731    6.1843 C   0  0  0  0  0  0  0  0  0  0  0  0
   12.7055   25.7245    7.0907 O   0  0  0  0  0  0  0  0  0  0  0  0
   12.3586   25.5284    8.4923 C   0  0  0  0  0  0  0  0  0  0  0  0
   10.9969   26.1132    8.8423 C   0  0  0  0  0  0  0  0  0  0  0  0
   10.9051   27.3695    9.4786 C   0  0  0  0  0  0  0  0  0  0  0  0
    9.6439   27.9232    9.8171 C   0  0  0  0  0  0  0  0  0  0  0  0
    8.4642   27.2081    9.5173 C   0  0  0  0  0  0  0  0  0  0  0  0
    8.5331   25.9412    8.8785 C   0  0  0  0  0  0  0  0  0  0  0  0
    9.8056   25.3948    8.5417 C   0  0  0  0  0  0  0  0  0  0  0  0
   14.7920   22.1811    5.3303 C   0  0  0  0  0  0  0  0  0  0  0  0
   15.4249   21.4529    6.4416 C   0  0  0  0  0  0  0  0  0  0  0  0
   14.6563   21.0448    7.3281 O   0  0  0  0  0  0  0  0  0  0  0  0
   16.7724   21.2765    6.4233 N   0  0  0  0  0  0  0  0  0  0  0  0
   17.2902   21.6394    5.6687 H   0  0  0  0  0  0  0  0  0  0  0  0
   17.4751   20.5678    7.4845 C   0  0  0  0  0  0  0  0  0  0  0  0
   18.1014   21.6291    8.3449 C   0  0  0  0  0  0  0  0  0  0  0  0
   17.4525   22.6641    8.6081 O   0  0  0  0  0  0  0  0  0  0  0  0
   19.3786   21.3568    8.7798 N   0  0  0  0  0  0  0  0  0  0  0  0
   20.0055   22.3772    9.6112 C   0  0  0  0  0  0  0  0  0  0  0  0
   19.8421   20.5212    8.5430 H   0  0  0  0  0  0  0  0  0  0  0  0
   18.5839   19.5906    6.9101 C   0  0  0  0  0  0  0  0  0  0  0  0
   18.6478   18.2424    7.7288 C   0  0  0  0  0  0  0  0  0  0  0  0
   18.3264   19.2553    5.4176 C   0  0  0  0  0  0  0  0  0  0  0  0
   19.0519   17.9572    5.0073 C   0  0  0  0  0  0  0  0  0  0  0  0
   15.3694   21.8772    4.0083 O   0  0  0  0  0  0  0  0  0  0  0  0
   14.5624   20.9722    3.1820 C   0  0  0  0  0  0  0  0  0  0  0  0
   15.2200   19.6156    3.0493 C   0  0  0  0  0  0  0  0  0  0  0  0
   16.1373   19.3662    1.9662 C   0  0  0  0  0  0  0  0  0  0  0  0
   16.7815   18.0916    1.8321 C   0  0  0  0  0  0  0  0  0  0  0  0
   16.5039   17.0790    2.7784 C   0  0  0  0  0  0  0  0  0  0  0  0
   15.5868   17.3224    3.8628 C   0  0  0  0  0  0  0  0  0  0  0  0
   14.9445   18.5942    3.9980 C   0  0  0  0  0  0  0  0  0  0  0  0
 24 25  2  0  0  0
 24 29  1  0  0  0
 24 23  1  0  0  0
 25 26  1  0  0  0
 26 27  2  0  0  0
 27 28  1  0  0  0
 28 29  2  0  0  0
 47 48  2  0  0  0
 47 52  1  0  0  0
 47 46  1  0  0  0
 48 49  1  0  0  0
 49 50  2  0  0  0
 50 51  1  0  0  0
 51 52  2  0  0  0
 46 45  1  0  0  0
 45 30  1  0  0  0
 30  1  1  0  0  0
 30 31  1  0  0  0
  1  4  1  0  0  0
  1  2  1  0  0  0
  4  7  1  0  0  0
  4  5  1  0  0  0
  7  8  1  0  0  0
  7 22  1  0  0  0
  8  9  2  0  0  0
  8 10  1  0  0  0
 10 12  1  0  0  0
 12 18  1  0  0  0
 12 13  1  0  0  0
 18 19  1  0  0  0
 18 20  1  0  0  0
 20 21  1  0  0  0
 13 14  2  0  0  0
 13 15  1  0  0  0
 15 16  1  0  0  0
 22 23  1  0  0  0
 31 32  2  0  0  0
 31 33  1  0  0  0
 33 35  1  0  0  0
 35 41  1  0  0  0
 35 36  1  0  0  0
 41 42  1  0  0  0
 41 43  1  0  0  0
 43 44  1  0  0  0
 36 37  2  0  0  0
 36 38  1  0  0  0
 38 39  1  0  0  0
 10 11  1  0  0  0
 15 17  1  0  0  0
  5  6  1  0  0  0
  2  3  1  0  0  0
 33 34  1  0  0  0
 38 40  1  0  0  0
M  END
> <minimizedAffinity>
-9.25766

$$$$
1EBW_BEI_A_501


 52 53  0  0  0  0  0  0  0  0999 V2000
   12.6584   24.3735    6.1016 C   0  0  0  0  0  0  0  0  0  0  0  0
   13.4096   25.1034    7.1403 O   0  0  0  0  0  0  0  0  0  0  0  0
   13.8372   25.8792    6.7451 H   0  0  0  0  0  0  0  0  0  0  0  0
   13.6358   23.9187    5.0594 C   0  0  0  0  0  0  0  0  0  0  0  0
   14.2498   25.1532    4.5653 O   0  0  0  0  0  0  0  0  0  0  0  0
   14.6490   25.6349    5.3065 H   0  0  0  0  0  0  0  0  0  0  0  0
   14.6469   22.9056    5.6950 C   0  0  0  0  0  0  0  0  0  0  0  0
   15.2841   21.9616    4.6751 C   0  0  0  0  0  0  0  0  0  0  0  0
   15.0616   22.1364    3.4730 O   0  0  0  0  0  0  0  0  0  0  0  0
   16.0575   20.9465    5.1534 N   0  0  0  0  0  0  0  0  0  0  0  0
   16.1842   20.8820    6.1276 H   0  0  0  0  0  0  0  0  0  0  0  0
   16.7204   19.9324    4.2966 C   0  0  0  0  0  0  0  0  0  0  0  0
   15.5939   19.1421    3.6455 C   0  0  0  0  0  0  0  0  0  0  0  0
   14.8649   18.4387    4.3662 O   0  0  0  0  0  0  0  0  0  0  0  0
   15.4720   19.2664    2.2779 N   0  0  0  0  0  0  0  0  0  0  0  0
   14.4068   18.5142    1.6348 C   0  0  0  0  0  0  0  0  0  0  0  0
   16.0805   19.8403    1.7586 H   0  0  0  0  0  0  0  0  0  0  0  0
   17.6364   18.9401    5.1174 C   0  0  0  0  0  0  0  0  0  0  0  0
   18.2623   17.8500    4.1859 C   0  0  0  0  0  0  0  0  0  0  0  0
   18.7761   19.6871    5.9076 C   0  0  0  0  0  0  0  0  0  0  0  0
   19.5558   18.6876    6.8192 C   0  0  0  0  0  0  0  0  0  0  0  0
   14.0032   22.1035    6.7750 O   0  0  0  0  0  0  0  0  0  0  0  0
   14.3760   22.4880    8.1302 C   0  0  0  0  0  0  0  0  0  0  0  0
   15.7085   21.8890    8.5594 C   0  0  0  0  0  0  0  0  0  0  0  0
   15.7542   20.6108    9.1558 C   0  0  0  0  0  0  0  0  0  0  0  0
   16.9873   20.0436    9.5673 C   0  0  0  0  0  0  0  0  0  0  0  0
   18.1853   20.7670    9.3815 C   0  0  0  0  0  0  0  0  0  0  0  0
   18.1627   22.0559    8.7848 C   0  0  0  0  0  0  0  0  0  0  0  0
   16.9181   22.6158    8.3739 C   0  0  0  0  0  0  0  0  0  0  0  0
   11.5558   25.2664    5.5436 C   0  0  0  0  0  0  0  0  0  0  0  0
   10.4431   25.1782    6.5027 C   0  0  0  0  0  0  0  0  0  0  0  0
   10.3267   24.0940    7.0977 O   0  0  0  0  0  0  0  0  0  0  0  0
    9.6399   26.2613    6.6723 N   0  0  0  0  0  0  0  0  0  0  0  0
    9.8222   27.0760    6.1506 H   0  0  0  0  0  0  0  0  0  0  0  0
    8.5178   26.2554    7.6014 C   0  0  0  0  0  0  0  0  0  0  0  0
    7.4992   27.1976    7.0239 C   0  0  0  0  0  0  0  0  0  0  0  0
    7.8780   28.1213    6.2723 O   0  0  0  0  0  0  0  0  0  0  0  0
    6.1951   26.9506    7.3884 N   0  0  0  0  0  0  0  0  0  0  0  0
    5.1926   27.8575    6.8427 C   0  0  0  0  0  0  0  0  0  0  0  0
    5.9533   26.2044    7.9833 H   0  0  0  0  0  0  0  0  0  0  0  0
    8.9493   26.7237    9.0535 C   0  0  0  0  0  0  0  0  0  0  0  0
    9.3754   25.4991    9.9540 C   0  0  0  0  0  0  0  0  0  0  0  0
   10.1251   27.7339    8.9978 C   0  0  0  0  0  0  0  0  0  0  0  0
   11.4172   27.1136    9.5683 C   0  0  0  0  0  0  0  0  0  0  0  0
   11.2080   24.8278    4.1798 O   0  0  0  0  0  0  0  0  0  0  0  0
   10.1128   23.8536    4.1113 C   0  0  0  0  0  0  0  0  0  0  0  0
    9.0230   24.3170    3.1691 C   0  0  0  0  0  0  0  0  0  0  0  0
    7.7441   23.6527    3.1697 C   0  0  0  0  0  0  0  0  0  0  0  0
    6.6939   24.0867    2.2942 C   0  0  0  0  0  0  0  0  0  0  0  0
    6.9299   25.1776    1.4270 C   0  0  0  0  0  0  0  0  0  0  0  0
    8.2070   25.8450    1.4213 C   0  0  0  0  0  0  0  0  0  0  0  0
    9.2549   25.4134    2.2952 C   0  0  0  0  0  0  0  0  0  0  0  0
 24 25  2  0  0  0
 24 29  1  0  0  0
 24 23  1  0  0  0
 25 26  1  0  0  0
 26 27  2  0  0  0
 27 28  1  0  0  0
 28 29  2  0  0  0
 47 48  2  0  0  0
 47 52  1  0  0  0
 47 46  1  0  0  0
 48 49  1  0  0  0
 49 50  2  0  0  0
 50 51  1  0  0  0
 51 52  2  0  0  0
 46 45  1  0  0  0
 45 30  1  0  0  0
 30  1  1  0  0  0
 30 31  1  0  0  0
  1  4  1  0  0  0
  1  2  1  0  0  0
  4  7  1  0  0  0
  4  5  1  0  0  0
  7  8  1  0  0  0
  7 22  1  0  0  0
  8  9  2  0  0  0
  8 10  1  0  0  0
 10 12  1  0  0  0
 12 18  1  0  0  0
 12 13  1  0  0  0
 18 19  1  0  0  0
 18 20  1  0  0  0
 20 21  1  0  0  0
 13 14  2  0  0  0
 13 15  1  0  0  0
 15 16  1  0  0  0
 22 23  1  0  0  0
 31 32  2  0  0  0
 31 33  1  0  0  0
 33 35  1  0  0  0
 35 41  1  0  0  0
 35 36  1  0  0  0
 41 42  1  0  0  0
 41 43  1  0  0  0
 43 44  1  0  0  0
 36 37  2  0  0  0
 36 38  1  0  0  0
 38 39  1  0  0  0
 10 11  1  0  0  0
 15 17  1  0  0  0
  5  6  1  0  0  0
  2  3  1  0  0  0
 33 34  1  0  0  0
 38 40  1  0  0  0
M  END
> <minimizedAffinity>
-9.01799

$$$$
