1KZK_JE2_A_701


 45 48  0  0  0  0  0  0  0  0999 V2000
   20.7965   -0.4860   15.7066 C   0  0  0  0  0  0  0  0  0  0  0  0
   20.4423    0.5491   14.7915 O   0  0  0  0  0  0  0  0  0  0  0  0
   19.4828    0.5404   14.6491 H   0  0  0  0  0  0  0  0  0  0  0  0
   20.3123   -1.8067   15.1087 C   0  0  0  0  0  0  0  0  0  0  0  0
   19.2434   -1.9409   14.4770 O   0  0  0  0  0  0  0  0  0  0  0  0
   21.0904   -2.9159   15.3314 N   0  0  0  0  0  0  0  0  0  0  0  0
   20.6471   -4.2516   14.8747 C   0  0  0  0  0  0  0  0  0  0  0  0
   21.9336   -5.1292   14.8771 C   0  0  0  0  0  0  0  0  0  0  0  0
   22.3882   -2.8729   16.1014 C   0  0  0  0  0  0  0  0  0  0  0  0
   22.7504   -4.7822   13.6310 C   0  0  0  0  0  0  0  0  0  0  0  0
   21.6365   -6.6405   14.8650 C   0  0  0  0  0  0  0  0  0  0  0  0
   22.8236   -4.6093   16.3903 S   0  0  0  0  0  0  0  0  0  0  0  0
   19.5146   -4.7641   15.7886 C   0  0  0  0  0  0  0  0  0  0  0  0
   19.5468   -4.6991   17.0535 O   0  0  0  0  0  0  0  0  0  0  0  0
   18.4527   -5.3581   15.0933 N   0  0  0  0  0  0  0  0  0  0  0  0
   18.4679   -5.3706   14.1090 H   0  0  0  0  0  0  0  0  0  0  0  0
   17.3065   -5.9682   15.8097 C   0  0  0  0  0  0  0  0  0  0  0  0
   16.0471   -5.8975   14.9349 C   0  0  0  0  0  0  0  0  0  0  0  0
   15.2089   -4.7616   14.9309 C   0  0  0  0  0  0  0  0  0  0  0  0
   14.0368   -4.8018   14.1687 C   0  0  0  0  0  0  0  0  0  0  0  0
   13.7262   -5.9538   13.4032 C   0  0  0  0  0  0  0  0  0  0  0  0
   14.5321   -7.0562   13.4051 C   0  0  0  0  0  0  0  0  0  0  0  0
   15.7024   -7.0247   14.1978 C   0  0  0  0  0  0  0  0  0  0  0  0
   15.5122   -3.5804   15.7677 C   0  0  0  0  0  0  0  0  0  0  0  0
   20.0871   -0.2829   17.0685 C   0  0  0  0  0  0  0  0  0  0  0  0
   21.7731    0.2659   18.7714 C   0  0  0  0  0  0  0  0  0  0  0  0
   21.9181   -0.9989   19.0628 O   0  0  0  0  0  0  0  0  0  0  0  0
   20.9311    0.6985   17.8470 N   0  0  0  0  0  0  0  0  0  0  0  0
   20.8543    1.6632   17.6660 H   0  0  0  0  0  0  0  0  0  0  0  0
   23.7611    3.3616   21.0448 C   0  0  0  0  0  0  0  0  0  0  0  0
   22.4231    3.4358   20.7793 C   0  0  0  0  0  0  0  0  0  0  0  0
   21.7584    2.3876   20.0802 C   0  0  0  0  0  0  0  0  0  0  0  0
   22.5088    1.3125   19.5379 C   0  0  0  0  0  0  0  0  0  0  0  0
   23.9167    1.2273   19.7569 C   0  0  0  0  0  0  0  0  0  0  0  0
   24.5133    2.2458   20.5716 C   0  0  0  0  0  0  0  0  0  0  0  0
   24.8140    0.1631   19.1350 C   0  0  0  0  0  0  0  0  0  0  0  0
   25.8642    2.2000   20.7538 O   0  0  0  0  0  0  0  0  0  0  0  0
   26.2882    2.8491   21.2800 H   0  0  0  0  0  0  0  0  0  0  0  0
   18.6390    0.3610   16.9278 C   0  0  0  0  0  0  0  0  0  0  0  0
   18.0851    0.8106   18.2571 C   0  0  0  0  0  0  0  0  0  0  0  0
   17.2287    1.6380   20.8452 C   0  0  0  0  0  0  0  0  0  0  0  0
   18.0758    2.2034   18.5799 C   0  0  0  0  0  0  0  0  0  0  0  0
   17.6749   -0.1175   19.2390 C   0  0  0  0  0  0  0  0  0  0  0  0
   17.6408    2.5817   19.8904 C   0  0  0  0  0  0  0  0  0  0  0  0
   17.2372    0.2845   20.4917 C   0  0  0  0  0  0  0  0  0  0  0  0
 35 37  1  0  0  0
 35 30  2  0  0  0
 35 34  1  0  0  0
 30 31  1  0  0  0
 31 32  2  0  0  0
 32 33  1  0  0  0
 33 34  2  0  0  0
 33 26  1  0  0  0
 34 36  1  0  0  0
 26 27  2  0  0  0
 26 28  1  0  0  0
 28 25  1  0  0  0
 25 39  1  0  0  0
 25  1  1  0  0  0
 39 40  1  0  0  0
 40 42  2  0  0  0
 40 43  1  0  0  0
 42 44  1  0  0  0
 44 41  2  0  0  0
 41 45  1  0  0  0
 45 43  2  0  0  0
  1  2  1  0  0  0
  1  4  1  0  0  0
  4  5  2  0  0  0
  4  6  1  0  0  0
  6  9  1  0  0  0
  6  7  1  0  0  0
  9 12  1  0  0  0
 12  8  1  0  0  0
  8 10  1  0  0  0
  8 11  1  0  0  0
  8  7  1  0  0  0
  7 13  1  0  0  0
 13 14  2  0  0  0
 13 15  1  0  0  0
 15 17  1  0  0  0
 17 18  1  0  0  0
 18 19  2  0  0  0
 18 23  1  0  0  0
 19 20  1  0  0  0
 19 24  1  0  0  0
 20 21  2  0  0  0
 21 22  1  0  0  0
 22 23  2  0  0  0
 37 38  1  0  0  0
 28 29  1  0  0  0
  2  3  1  0  0  0
 15 16  1  0  0  0
M  END
> <minimizedAffinity>
-13.06646

$$$$
1KZK_JE2_A_701


 45 48  0  0  0  0  0  0  0  0999 V2000
   20.5665   -1.0104   15.4529 C   0  0  0  0  0  0  0  0  0  0  0  0
   20.2339    0.0477   14.5561 O   0  0  0  0  0  0  0  0  0  0  0  0
   19.2817    0.0282   14.3721 H   0  0  0  0  0  0  0  0  0  0  0  0
   20.1313   -2.3188   14.7936 C   0  0  0  0  0  0  0  0  0  0  0  0
   19.0811   -2.4557   14.1318 O   0  0  0  0  0  0  0  0  0  0  0  0
   20.9332   -3.4155   14.9923 N   0  0  0  0  0  0  0  0  0  0  0  0
   20.5360   -4.7434   14.4745 C   0  0  0  0  0  0  0  0  0  0  0  0
   21.8449   -5.5872   14.4742 C   0  0  0  0  0  0  0  0  0  0  0  0
   22.2114   -3.3692   15.7943 C   0  0  0  0  0  0  0  0  0  0  0  0
   22.6807   -5.1713   13.2621 C   0  0  0  0  0  0  0  0  0  0  0  0
   21.5884   -7.1040   14.3972 C   0  0  0  0  0  0  0  0  0  0  0  0
   22.6859   -5.1038   16.0270 S   0  0  0  0  0  0  0  0  0  0  0  0
   19.3969   -5.3198   15.3408 C   0  0  0  0  0  0  0  0  0  0  0  0
   19.3079   -5.1469   16.5927 O   0  0  0  0  0  0  0  0  0  0  0  0
   18.4810   -6.1007   14.6229 N   0  0  0  0  0  0  0  0  0  0  0  0
   18.5855   -6.1925   13.6483 H   0  0  0  0  0  0  0  0  0  0  0  0
   17.3577   -6.7916   15.3011 C   0  0  0  0  0  0  0  0  0  0  0  0
   16.0202   -6.2367   14.7919 C   0  0  0  0  0  0  0  0  0  0  0  0
   15.2356   -6.9380   13.8508 C   0  0  0  0  0  0  0  0  0  0  0  0
   14.0683   -6.3326   13.3742 C   0  0  0  0  0  0  0  0  0  0  0  0
   13.6827   -5.0560   13.8549 C   0  0  0  0  0  0  0  0  0  0  0  0
   14.4389   -4.3721   14.7634 C   0  0  0  0  0  0  0  0  0  0  0  0
   15.6330   -4.9732   15.2235 C   0  0  0  0  0  0  0  0  0  0  0  0
   15.6659   -8.2483   13.3166 C   0  0  0  0  0  0  0  0  0  0  0  0
   19.7961   -0.8622   16.7885 C   0  0  0  0  0  0  0  0  0  0  0  0
   21.9641    0.0797   17.4641 C   0  0  0  0  0  0  0  0  0  0  0  0
   22.2748    0.3089   16.2165 O   0  0  0  0  0  0  0  0  0  0  0  0
   20.8183   -0.4720   17.8297 N   0  0  0  0  0  0  0  0  0  0  0  0
   20.6314   -0.6286   18.7836 H   0  0  0  0  0  0  0  0  0  0  0  0
   24.9082    0.8167   20.5451 C   0  0  0  0  0  0  0  0  0  0  0  0
   25.1195   -0.1324   19.5856 C   0  0  0  0  0  0  0  0  0  0  0  0
   24.1753   -0.3344   18.5381 C   0  0  0  0  0  0  0  0  0  0  0  0
   22.9399    0.3630   18.5557 C   0  0  0  0  0  0  0  0  0  0  0  0
   22.6665    1.3291   19.5703 C   0  0  0  0  0  0  0  0  0  0  0  0
   23.7033    1.5801   20.5289 C   0  0  0  0  0  0  0  0  0  0  0  0
   21.3336    2.0538   19.7214 C   0  0  0  0  0  0  0  0  0  0  0  0
   23.4394    2.4697   21.5284 O   0  0  0  0  0  0  0  0  0  0  0  0
   24.0933    2.6583   22.1725 H   0  0  0  0  0  0  0  0  0  0  0  0
   18.7046    0.2949   16.7542 C   0  0  0  0  0  0  0  0  0  0  0  0
   18.1737    0.6166   18.1291 C   0  0  0  0  0  0  0  0  0  0  0  0
   16.9867    1.2547   20.6392 C   0  0  0  0  0  0  0  0  0  0  0  0
   17.6512   -0.4353   18.9447 C   0  0  0  0  0  0  0  0  0  0  0  0
   18.0775    1.9471   18.5919 C   0  0  0  0  0  0  0  0  0  0  0  0
   17.0607   -0.0766   20.1986 C   0  0  0  0  0  0  0  0  0  0  0  0
   17.5198    2.2578   19.8227 C   0  0  0  0  0  0  0  0  0  0  0  0
 35 37  1  0  0  0
 35 30  2  0  0  0
 35 34  1  0  0  0
 30 31  1  0  0  0
 31 32  2  0  0  0
 32 33  1  0  0  0
 33 34  2  0  0  0
 33 26  1  0  0  0
 34 36  1  0  0  0
 26 27  2  0  0  0
 26 28  1  0  0  0
 28 25  1  0  0  0
 25 39  1  0  0  0
 25  1  1  0  0  0
 39 40  1  0  0  0
 40 42  2  0  0  0
 40 43  1  0  0  0
 42 44  1  0  0  0
 44 41  2  0  0  0
 41 45  1  0  0  0
 45 43  2  0  0  0
  1  2  1  0  0  0
  1  4  1  0  0  0
  4  5  2  0  0  0
  4  6  1  0  0  0
  6  9  1  0  0  0
  6  7  1  0  0  0
  9 12  1  0  0  0
 12  8  1  0  0  0
  8 10  1  0  0  0
  8 11  1  0  0  0
  8  7  1  0  0  0
  7 13  1  0  0  0
 13 14  2  0  0  0
 13 15  1  0  0  0
 15 17  1  0  0  0
 17 18  1  0  0  0
 18 19  2  0  0  0
 18 23  1  0  0  0
 19 20  1  0  0  0
 19 24  1  0  0  0
 20 21  2  0  0  0
 21 22  1  0  0  0
 22 23  2  0  0  0
 37 38  1  0  0  0
 28 29  1  0  0  0
  2  3  1  0  0  0
 15 16  1  0  0  0
M  END
> <minimizedAffinity>
-11.87996

$$$$
