1KZK_JE2_A_701
  RCSB PDB12061703083D
Coordinates from PDB:1KZK:A:701 Model:1 without hydrogens
 41 44  0  0  0  0            999 V2000
   23.6870    3.4480   20.9470   C 0  0  0  0  0  0  0  0  0  0  0  0
   22.3390    3.4320   20.7260   C 0  0  0  0  0  0  0  0  0  0  0  0
   21.7270    2.3540   20.0240   C 0  0  0  0  0  0  0  0  0  0  0  0
   22.5330    1.3470   19.4330   C 0  0  0  0  0  0  0  0  0  0  0  0
   23.9500    1.3580   19.6050   C 0  0  0  0  0  0  0  0  0  0  0  0
   24.5000    2.3990   20.4240   C 0  0  0  0  0  0  0  0  0  0  0  0
   24.8990    0.3740   18.9300   C 0  0  0  0  0  0  0  0  0  0  0  0
   21.8480    0.2670   18.6660   C 0  0  0  0  0  0  0  0  0  0  0  0
   25.8560    2.4460   20.5620   O 0  0  0  0  0  0  0  0  0  0  0  0
   22.0690   -0.9900   18.9430   O 0  0  0  0  0  0  0  0  0  0  0  0
   20.3600   -1.7850   14.9420   C 0  0  0  0  0  0  0  0  0  0  0  0
   20.9700    0.6590   17.7570   N 0  0  0  0  0  0  0  0  0  0  0  0
   19.2990   -1.8640   14.2880   O 0  0  0  0  0  0  0  0  0  0  0  0
   20.8680   -0.5040   15.6030   C 0  0  0  0  0  0  0  0  0  0  0  0
   18.1480    0.6370   18.2120   C 0  0  0  0  0  0  0  0  0  0  0  0
   18.6860    0.1940   16.8740   C 0  0  0  0  0  0  0  0  0  0  0  0
   17.3240    1.4600   20.8120   C 0  0  0  0  0  0  0  0  0  0  0  0
   20.1730   -0.3620   16.9800   C 0  0  0  0  0  0  0  0  0  0  0  0
   20.5210    0.5820   14.7460   O 0  0  0  0  0  0  0  0  0  0  0  0
   18.0940    2.0320   18.5210   C 0  0  0  0  0  0  0  0  0  0  0  0
   17.7970   -0.2950   19.2130   C 0  0  0  0  0  0  0  0  0  0  0  0
   17.6770    2.4080   19.8380   C 0  0  0  0  0  0  0  0  0  0  0  0
   17.3750    0.1040   20.4720   C 0  0  0  0  0  0  0  0  0  0  0  0
   19.4740   -4.7460   15.4830   C 0  0  0  0  0  0  0  0  0  0  0  0
   21.1050   -2.9230   15.1300   N 0  0  0  0  0  0  0  0  0  0  0  0
   19.3600   -4.5020   16.7210   O 0  0  0  0  0  0  0  0  0  0  0  0
   20.6350   -4.2260   14.6100   C 0  0  0  0  0  0  0  0  0  0  0  0
   21.8980   -5.1370   14.5960   C 0  0  0  0  0  0  0  0  0  0  0  0
   22.3900   -2.9470   15.9220   C 0  0  0  0  0  0  0  0  0  0  0  0
   22.7450   -4.7600   13.3790   C 0  0  0  0  0  0  0  0  0  0  0  0
   21.5620   -6.6380   14.5150   C 0  0  0  0  0  0  0  0  0  0  0  0
   22.7750   -4.7050   16.1440   S 0  0  0  0  0  0  0  0  0  0  0  0
   18.5680   -5.5610   14.7910   N 0  0  0  0  0  0  0  0  0  0  0  0
   17.4260   -6.2060   15.4830   C 0  0  0  0  0  0  0  0  0  0  0  0
   16.1360   -5.9810   14.6820   C 0  0  0  0  0  0  0  0  0  0  0  0
   15.4800   -4.7310   14.6670   C 0  0  0  0  0  0  0  0  0  0  0  0
   14.2670   -4.6240   13.9790   C 0  0  0  0  0  0  0  0  0  0  0  0
   13.7360   -5.7470   13.2960   C 0  0  0  0  0  0  0  0  0  0  0  0
   14.3650   -6.9590   13.3090   C 0  0  0  0  0  0  0  0  0  0  0  0
   15.5770   -7.0730   14.0280   C 0  0  0  0  0  0  0  0  0  0  0  0
   16.0130   -3.5750   15.4200   C 0  0  0  0  0  0  0  0  0  0  0  0
  6  9  1  0  0  0  0
  6  1  2  0  0  0  0
  6  5  1  0  0  0  0
  1  2  1  0  0  0  0
  2  3  2  0  0  0  0
  3  4  1  0  0  0  0
  4  5  2  0  0  0  0
  4  8  1  0  0  0  0
  5  7  1  0  0  0  0
  8 10  2  0  0  0  0
  8 12  1  0  0  0  0
 12 18  1  0  0  0  0
 18 16  1  0  0  0  0
 18 14  1  0  0  0  0
 16 15  1  0  0  0  0
 15 20  2  0  0  0  0
 15 21  1  0  0  0  0
 20 22  1  0  0  0  0
 22 17  2  0  0  0  0
 17 23  1  0  0  0  0
 23 21  2  0  0  0  0
 14 19  1  0  0  0  0
 14 11  1  0  0  0  0
 11 13  2  0  0  0  0
 11 25  1  0  0  0  0
 25 29  1  0  0  0  0
 25 27  1  0  0  0  0
 29 32  1  0  0  0  0
 32 28  1  0  0  0  0
 28 30  1  0  0  0  0
 28 31  1  0  0  0  0
 28 27  1  0  0  0  0
 27 24  1  0  0  0  0
 24 26  2  0  0  0  0
 24 33  1  0  0  0  0
 33 34  1  0  0  0  0
 34 35  1  0  0  0  0
 35 36  2  0  0  0  0
 35 40  1  0  0  0  0
 36 37  1  0  0  0  0
 36 41  1  0  0  0  0
 37 38  2  0  0  0  0
 38 39  1  0  0  0  0
 39 40  2  0  0  0  0
A    1
C3
A    2
C4
A    3
C5
A    4
C6
A    5
C7
A    6
C1
A    7
C8
A    8
C9
A    9
O2
A   10
O10
A   11
C22
A   12
N11
A   13
O23
A   14
C20
A   15
C14
A   16
C13
A   17
C17
A   18
C12
A   19
O21
A   20
C15
A   21
C19
A   22
C16
A   23
C18
A   24
C31
A   25
N24
A   26
O32
A   27
C30
A   28
C27
A   29
C25
A   30
C28
A   31
C29
A   32
S26
A   33
N33
A   34
C34
A   35
C35
A   36
C36
A   37
C37
A   38
C38
A   39
C39
A   40
C40
A   41
C41
M  END
>  <InstanceId>
1KZK_JE2_A_701

>  <ChemCompId>
JE2

>  <PdbId>
1KZK

>  <ChainId>
A

>  <ResidueNumber>
701

>  <InsertionCode>


>  <Model>
1

>  <AltIds>


>  <MissingHeavyAtoms>
0

>  <ObservedFormula>
C32 N3 O5 S

>  <Name>
(4R)-3-{(2S,3S)-2-hydroxy-3-[(3-hydroxy-2-methylbenzoyl)amino]-4-phenylbutanoyl}-5,5-dimethyl-N-(2-methylbenzyl)-1,3-thiazolidine-4-carboxamide

>  <SystematicName>
(4R)-3-[(2S,3S)-2-hydroxy-3-[(3-hydroxy-2-methyl-phenyl)carbonylamino]-4-phenyl-butanoyl]-5,5-dimethyl-N-[(2-methylphenyl)methyl]-1,3-thiazolidine-4-carboxamide

>  <Synonyms>
JE-2147, AG1776, KNI-764

>  <Type>
peptide-like

>  <Formula>
C32 H37 N3 O5 S

>  <MolecularWeight>
575.718

>  <ModifiedDate>
2011-06-04

>  <Parent>


>  <OneLetterCode>


>  <SubcomponentList>
PF0 005 00B KNN

>  <AmbiguousFlag>
N

>  <InChI>
InChI=1S/C32H37N3O5S/c1-20-11-8-9-14-23(20)18-33-30(39)28-32(3,4)41-19-35(28)31(40)27(37)25(17-22-12-6-5-7-13-22)34-29(38)24-15-10-16-26(36)21(24)2/h5-16,25,27-28,36-37H,17-19H2,1-4H3,(H,33,39)(H,34,38)/t25-,27-,28+/m0/s1

>  <InChIKey>
CUFQBQOBLVLKRF-RZDMPUFOSA-N

>  <SMILES>
Cc1ccccc1CNC(=O)[C@@H]2C(SCN2C(=O)[C@H]([C@H](Cc3ccccc3)NC(=O)c4cccc(c4C)O)O)(C)C

$$$$
