1HI4_A3P_A_301
  RCSB PDB12061702433D
Coordinates from PDB:1HI4:A:301 Model:1 without hydrogens
 27 29  0  0  0  0            999 V2000
   10.0960   17.7550   12.3850   P 0  0  0  0  0  0  0  0  0  0  0  0
   10.5140   16.3440   12.6620   O 0  0  0  0  0  0  0  0  0  0  0  0
    9.4380   17.9850   11.0560   O 0  0  0  0  0  0  0  0  0  0  0  0
    9.7920   18.6320   13.5340   O 0  0  0  0  0  0  0  0  0  0  0  0
   14.4390   14.6320    9.6390   P 0  0  0  0  0  0  0  0  0  0  0  0
   15.6900   13.9260   10.0510   O 0  0  0  0  0  0  0  0  0  0  0  0
   13.2800   13.7430    9.3380   O 0  0  0  0  0  0  0  0  0  0  0  0
   14.5180   15.9220    8.9550   O 0  0  0  0  0  0  0  0  0  0  0  0
   13.9260   15.1580   11.1170   O 0  0  0  0  0  0  0  0  0  0  0  0
   14.6380   16.0680   11.9950   C 0  0  0  0  0  0  0  0  0  0  0  0
   13.7740   17.3130   12.3940   C 0  0  0  0  0  0  0  0  0  0  0  0
   14.7050   18.4580   12.4880   O 0  0  0  0  0  0  0  0  0  0  0  0
   12.6980   17.7600   11.3500   C 0  0  0  0  0  0  0  0  0  0  0  0
   11.5320   18.3890   12.0040   O 0  0  0  0  0  0  0  0  0  0  0  0
   13.4860   18.7190   10.4930   C 0  0  0  0  0  0  0  0  0  0  0  0
   12.7340   19.5170    9.5820   O 0  0  0  0  0  0  0  0  0  0  0  0
   14.2460   19.5000   11.5870   C 0  0  0  0  0  0  0  0  0  0  0  0
   15.3870   20.3150   11.0430   N 0  0  0  0  0  0  0  0  0  0  0  0
   15.5640   20.8240    9.7590   C 0  0  0  0  0  0  0  0  0  0  0  0
   16.6740   21.5130    9.5740   N 0  0  0  0  0  0  0  0  0  0  0  0
   17.3000   21.4780   10.8110   C 0  0  0  0  0  0  0  0  0  0  0  0
   18.5420   22.0350   11.2950   C 0  0  0  0  0  0  0  0  0  0  0  0
   19.3540   22.7430   10.5240   N 0  0  0  0  0  0  0  0  0  0  0  0
   18.8970   21.8150   12.6350   N 0  0  0  0  0  0  0  0  0  0  0  0
   18.0650   21.0780   13.4610   C 0  0  0  0  0  0  0  0  0  0  0  0
   16.8540   20.4930   13.1120   N 0  0  0  0  0  0  0  0  0  0  0  0
   16.5270   20.7350   11.7620   C 0  0  0  0  0  0  0  0  0  0  0  0
  1  2  2  0  0  0  0
  1  3  1  0  0  0  0
  1  4  1  0  0  0  0
  1 14  1  0  0  0  0
  5  6  2  0  0  0  0
  5  7  1  0  0  0  0
  5  8  1  0  0  0  0
  5  9  1  0  0  0  0
  9 10  1  0  0  0  0
 10 11  1  0  0  0  0
 11 12  1  0  0  0  0
 11 13  1  0  0  0  0
 12 17  1  0  0  0  0
 13 14  1  0  0  0  0
 13 15  1  0  0  0  0
 15 16  1  0  0  0  0
 15 17  1  0  0  0  0
 17 18  1  0  0  0  0
 18 19  1  0  0  0  0
 18 27  1  0  0  0  0
 19 20  2  0  0  0  0
 20 21  1  0  0  0  0
 21 22  1  0  0  0  0
 21 27  2  0  0  0  0
 22 23  1  0  0  0  0
 22 24  2  0  0  0  0
 24 25  1  0  0  0  0
 25 26  2  0  0  0  0
 26 27  1  0  0  0  0
A    1
P1
A    2
O1P
A    3
O2P
A    4
O3P
A    5
P2
A    6
O4P
A    7
O5P
A    8
O6P
A    9
O5'
A   10
C5'
A   11
C4'
A   12
O4'
A   13
C3'
A   14
O3'
A   15
C2'
A   16
O2'
A   17
C1'
A   18
N9
A   19
C8
A   20
N7
A   21
C5
A   22
C6
A   23
N6
A   24
N1
A   25
C2
A   26
N3
A   27
C4
M  END
>  <InstanceId>
1HI4_A3P_A_301

>  <ChemCompId>
A3P

>  <PdbId>
1HI4

>  <ChainId>
A

>  <ResidueNumber>
301

>  <InsertionCode>


>  <Model>
1

>  <AltIds>


>  <MissingHeavyAtoms>
0

>  <ObservedFormula>
C10 N5 O10 P2

>  <Name>
ADENOSINE-3'-5'-DIPHOSPHATE

>  <SystematicName>
[(2R,3S,4R,5R)-5-(6-aminopurin-9-yl)-4-hydroxy-2-(phosphonooxymethyl)oxolan-3-yl] dihydrogen phosphate

>  <Synonyms>


>  <Type>
RNA LINKING

>  <Formula>
C10 H15 N5 O10 P2

>  <MolecularWeight>
427.201

>  <ModifiedDate>
2011-06-04

>  <Parent>
A

>  <OneLetterCode>
A

>  <SubcomponentList>


>  <AmbiguousFlag>
N

>  <InChI>
InChI=1S/C10H15N5O10P2/c11-8-5-9(13-2-12-8)15(3-14-5)10-6(16)7(25-27(20,21)22)4(24-10)1-23-26(17,18)19/h2-4,6-7,10,16H,1H2,(H2,11,12,13)(H2,17,18,19)(H2,20,21,22)/t4-,6-,7-,10-/m1/s1

>  <InChIKey>
WHTCPDAXWFLDIH-KQYNXXCUSA-N

>  <SMILES>
c1nc(c2c(n1)n(cn2)[C@H]3[C@@H]([C@@H]([C@H](O3)COP(=O)(O)O)OP(=O)(O)O)O)N

$$$$
