2WEJ_FB2_A_1263


 12 12  0  0  0  0  0  0  0  0999 V2000
   15.0781    6.9072   15.5932 C   0  0  0  0  0  0  0  0  0  0  0  0
   14.4580    5.9288   16.3795 C   0  0  0  0  0  0  0  0  0  0  0  0
   14.9976    4.6299   16.5132 C   0  0  0  0  0  0  0  0  0  0  0  0
   16.1932    4.2512   15.8492 C   0  0  0  0  0  0  0  0  0  0  0  0
   16.7921    5.2599   15.0623 C   0  0  0  0  0  0  0  0  0  0  0  0
   16.2592    6.5680   14.9243 C   0  0  0  0  0  0  0  0  0  0  0  0
   16.8335    2.7462   15.9985 S   0  0  0  0  0  0  0  0  0  0  0  0
   18.1812    2.9033   16.5166 O   0  0  0  0  0  0  0  0  0  0  0  0
   16.7368    2.1891   14.6853 O   0  0  0  0  0  0  0  0  0  0  0  0
   15.9764    1.8581   17.0019 N   0  0  0  0  0  0  0  0  0  0  0  0
   15.0305    1.7490   16.6362 H   0  0  0  0  0  0  0  0  0  0  0  0
   15.9381    2.3152   17.9129 H   0  0  0  0  0  0  0  0  0  0  0  0
  1  2  1  0  0  0
  1  6  2  0  0  0
  2  3  2  0  0  0
  3  4  1  0  0  0
  4  5  2  0  0  0
  4  7  1  0  0  0
  5  6  1  0  0  0
  7  9  2  0  0  0
  7  8  2  0  0  0
  7 10  1  0  0  0
 10 11  1  0  0  0
 10 12  1  0  0  0
M  END
> <minimizedAffinity>
-5.96094

$$$$
2WEJ_FB2_A_1263


 12 12  0  0  0  0  0  0  0  0999 V2000
   15.0963    6.9054   15.5546 C   0  0  0  0  0  0  0  0  0  0  0  0
   16.2797    6.5398   14.9019 C   0  0  0  0  0  0  0  0  0  0  0  0
   16.8313    5.2456   15.0315 C   0  0  0  0  0  0  0  0  0  0  0  0
   16.2148    4.2536   15.8376 C   0  0  0  0  0  0  0  0  0  0  0  0
   15.0248    4.6551   16.4842 C   0  0  0  0  0  0  0  0  0  0  0  0
   14.4617    5.9517   16.3578 C   0  0  0  0  0  0  0  0  0  0  0  0
   16.8430    2.7443   15.9945 S   0  0  0  0  0  0  0  0  0  0  0  0
   18.1897    2.8928   16.5178 O   0  0  0  0  0  0  0  0  0  0  0  0
   16.7476    2.1836   14.6827 O   0  0  0  0  0  0  0  0  0  0  0  0
   15.9749    1.8659   16.9970 N   0  0  0  0  0  0  0  0  0  0  0  0
   15.0297    1.7628   16.6277 H   0  0  0  0  0  0  0  0  0  0  0  0
   15.9363    2.3263   17.9064 H   0  0  0  0  0  0  0  0  0  0  0  0
  1  2  1  0  0  0
  1  6  2  0  0  0
  2  3  2  0  0  0
  3  4  1  0  0  0
  4  5  2  0  0  0
  4  7  1  0  0  0
  5  6  1  0  0  0
  7  9  2  0  0  0
  7  8  2  0  0  0
  7 10  1  0  0  0
 10 11  1  0  0  0
 10 12  1  0  0  0
M  END
> <minimizedAffinity>
-5.93249

$$$$
2WEJ_FB2_A_1263


 12 12  0  0  0  0  0  0  0  0999 V2000
   14.7410    6.6207   16.0085 C   0  0  0  0  0  0  0  0  0  0  0  0
   14.3487    5.5880   16.8686 C   0  0  0  0  0  0  0  0  0  0  0  0
   14.9746    4.3216   16.8442 C   0  0  0  0  0  0  0  0  0  0  0  0
   16.0287    4.0322   15.9393 C   0  0  0  0  0  0  0  0  0  0  0  0
   16.3985    5.0938   15.0839 C   0  0  0  0  0  0  0  0  0  0  0  0
   15.7777    6.3700   15.1031 C   0  0  0  0  0  0  0  0  0  0  0  0
   16.7675    2.5658   15.9025 S   0  0  0  0  0  0  0  0  0  0  0  0
   15.9324    1.6462   16.6550 O   0  0  0  0  0  0  0  0  0  0  0  0
   18.0659    2.8104   16.4488 O   0  0  0  0  0  0  0  0  0  0  0  0
   16.9248    2.0431   14.4085 N   0  0  0  0  0  0  0  0  0  0  0  0
   17.5115    2.6902   13.8818 H   0  0  0  0  0  0  0  0  0  0  0  0
   16.0055    1.9841   13.9704 H   0  0  0  0  0  0  0  0  0  0  0  0
  1  2  1  0  0  0
  1  6  2  0  0  0
  2  3  2  0  0  0
  3  4  1  0  0  0
  4  5  2  0  0  0
  4  7  1  0  0  0
  5  6  1  0  0  0
  7  9  2  0  0  0
  7  8  2  0  0  0
  7 10  1  0  0  0
 10 11  1  0  0  0
 10 12  1  0  0  0
M  END
> <minimizedAffinity>
-5.88107

$$$$
2WEJ_FB2_A_1263


 12 12  0  0  0  0  0  0  0  0999 V2000
   16.8270    6.4174   14.9106 C   0  0  0  0  0  0  0  0  0  0  0  0
   15.4899    6.2724   15.2993 C   0  0  0  0  0  0  0  0  0  0  0  0
   15.0353    5.1246   15.9864 C   0  0  0  0  0  0  0  0  0  0  0  0
   15.9129    4.0574   16.3099 C   0  0  0  0  0  0  0  0  0  0  0  0
   17.2536    4.2336   15.9017 C   0  0  0  0  0  0  0  0  0  0  0  0
   17.7201    5.3840   15.2137 C   0  0  0  0  0  0  0  0  0  0  0  0
   15.3988    2.7192   17.1114 S   0  0  0  0  0  0  0  0  0  0  0  0
   15.8799    2.8266   18.4776 O   0  0  0  0  0  0  0  0  0  0  0  0
   15.9278    1.6283   16.3534 O   0  0  0  0  0  0  0  0  0  0  0  0
   13.8108    2.6280   17.1105 N   0  0  0  0  0  0  0  0  0  0  0  0
   13.4751    2.5527   16.1503 H   0  0  0  0  0  0  0  0  0  0  0  0
   13.4219    3.4665   17.5419 H   0  0  0  0  0  0  0  0  0  0  0  0
  1  2  1  0  0  0
  1  6  2  0  0  0
  2  3  2  0  0  0
  3  4  1  0  0  0
  4  5  2  0  0  0
  4  7  1  0  0  0
  5  6  1  0  0  0
  7  9  2  0  0  0
  7  8  2  0  0  0
  7 10  1  0  0  0
 10 11  1  0  0  0
 10 12  1  0  0  0
M  END
> <minimizedAffinity>
-5.83983

$$$$
2WEJ_FB2_A_1263


 12 12  0  0  0  0  0  0  0  0999 V2000
   16.8578    6.3061   14.7977 C   0  0  0  0  0  0  0  0  0  0  0  0
   17.6133    5.2100   15.2311 C   0  0  0  0  0  0  0  0  0  0  0  0
   17.0549    4.1947   16.0395 C   0  0  0  0  0  0  0  0  0  0  0  0
   15.6999    4.2411   16.4585 C   0  0  0  0  0  0  0  0  0  0  0  0
   14.9664    5.3606   16.0068 C   0  0  0  0  0  0  0  0  0  0  0  0
   15.5177    6.3837   15.1923 C   0  0  0  0  0  0  0  0  0  0  0  0
   15.0370    3.0662   17.3953 S   0  0  0  0  0  0  0  0  0  0  0  0
   13.6745    2.8674   16.9331 O   0  0  0  0  0  0  0  0  0  0  0  0
   15.1713    3.5605   18.7301 O   0  0  0  0  0  0  0  0  0  0  0  0
   15.8490    1.7048   17.2634 N   0  0  0  0  0  0  0  0  0  0  0  0
   16.8054    1.8465   17.5885 H   0  0  0  0  0  0  0  0  0  0  0  0
   15.8620    1.4098   16.2871 H   0  0  0  0  0  0  0  0  0  0  0  0
  1  2  1  0  0  0
  1  6  2  0  0  0
  2  3  2  0  0  0
  3  4  1  0  0  0
  4  5  2  0  0  0
  4  7  1  0  0  0
  5  6  1  0  0  0
  7  9  2  0  0  0
  7  8  2  0  0  0
  7 10  1  0  0  0
 10 11  1  0  0  0
 10 12  1  0  0  0
M  END
> <minimizedAffinity>
-5.70402

$$$$
2WEJ_FB2_A_1263


 12 12  0  0  0  0  0  0  0  0999 V2000
   14.6623    3.5325   18.0004 C   0  0  0  0  0  0  0  0  0  0  0  0
   14.5043    4.6147   17.1263 C   0  0  0  0  0  0  0  0  0  0  0  0
   15.1793    4.6741   15.8865 C   0  0  0  0  0  0  0  0  0  0  0  0
   16.0579    3.6406   15.4698 C   0  0  0  0  0  0  0  0  0  0  0  0
   16.1973    2.5652   16.3751 C   0  0  0  0  0  0  0  0  0  0  0  0
   15.5213    2.4954   17.6211 C   0  0  0  0  0  0  0  0  0  0  0  0
   16.8462    3.6950   14.0300 S   0  0  0  0  0  0  0  0  0  0  0  0
   16.9933    2.3252   13.5699 O   0  0  0  0  0  0  0  0  0  0  0  0
   18.0648    4.3842   14.3199 O   0  0  0  0  0  0  0  0  0  0  0  0
   16.0206    4.5319   12.9584 N   0  0  0  0  0  0  0  0  0  0  0  0
   15.9184    5.4933   13.2833 H   0  0  0  0  0  0  0  0  0  0  0  0
   15.0980    4.1138   12.8380 H   0  0  0  0  0  0  0  0  0  0  0  0
  1  2  1  0  0  0
  1  6  2  0  0  0
  2  3  2  0  0  0
  3  4  1  0  0  0
  4  5  2  0  0  0
  4  7  1  0  0  0
  5  6  1  0  0  0
  7  9  2  0  0  0
  7  8  2  0  0  0
  7 10  1  0  0  0
 10 11  1  0  0  0
 10 12  1  0  0  0
M  END
> <minimizedAffinity>
-5.48482

$$$$
2WEJ_FB2_A_1263


 12 12  0  0  0  0  0  0  0  0999 V2000
   14.6922    3.5233   17.9830 C   0  0  0  0  0  0  0  0  0  0  0  0
   15.5514    2.5165   17.5264 C   0  0  0  0  0  0  0  0  0  0  0  0
   16.2118    2.6105   16.2810 C   0  0  0  0  0  0  0  0  0  0  0  0
   16.0299    3.7294   15.4273 C   0  0  0  0  0  0  0  0  0  0  0  0
   15.1554    4.7255   15.9157 C   0  0  0  0  0  0  0  0  0  0  0  0
   14.4899    4.6412   17.1664 C   0  0  0  0  0  0  0  0  0  0  0  0
   16.7940    3.8535   13.9788 S   0  0  0  0  0  0  0  0  0  0  0  0
   18.0797    4.4826   14.2249 O   0  0  0  0  0  0  0  0  0  0  0  0
   15.8866    4.5991   13.1633 O   0  0  0  0  0  0  0  0  0  0  0  0
   17.0176    2.4200   13.3267 N   0  0  0  0  0  0  0  0  0  0  0  0
   16.1136    1.9800   13.1547 H   0  0  0  0  0  0  0  0  0  0  0  0
   17.5632    1.8385   13.9627 H   0  0  0  0  0  0  0  0  0  0  0  0
  1  2  1  0  0  0
  1  6  2  0  0  0
  2  3  2  0  0  0
  3  4  1  0  0  0
  4  5  2  0  0  0
  4  7  1  0  0  0
  5  6  1  0  0  0
  7  9  2  0  0  0
  7  8  2  0  0  0
  7 10  1  0  0  0
 10 11  1  0  0  0
 10 12  1  0  0  0
M  END
> <minimizedAffinity>
-5.46480

$$$$
2WEJ_FB2_A_1263


 12 12  0  0  0  0  0  0  0  0999 V2000
   14.7411    3.6224   18.0273 C   0  0  0  0  0  0  0  0  0  0  0  0
   14.4823    4.6745   17.1406 C   0  0  0  0  0  0  0  0  0  0  0  0
   15.1168    4.7588   15.8810 C   0  0  0  0  0  0  0  0  0  0  0  0
   16.0549    3.7825   15.4560 C   0  0  0  0  0  0  0  0  0  0  0  0
   16.2955    2.7365   16.3743 C   0  0  0  0  0  0  0  0  0  0  0  0
   15.6610    2.6418   17.6403 C   0  0  0  0  0  0  0  0  0  0  0  0
   16.7971    3.8661   13.9933 S   0  0  0  0  0  0  0  0  0  0  0  0
   18.0910    4.4912   14.2044 O   0  0  0  0  0  0  0  0  0  0  0  0
   15.8826    4.5989   13.1742 O   0  0  0  0  0  0  0  0  0  0  0  0
   17.0002    2.4158   13.3724 N   0  0  0  0  0  0  0  0  0  0  0  0
   16.0905    1.9787   13.2249 H   0  0  0  0  0  0  0  0  0  0  0  0
   17.5515    1.8456   14.0137 H   0  0  0  0  0  0  0  0  0  0  0  0
  1  2  1  0  0  0
  1  6  2  0  0  0
  2  3  2  0  0  0
  3  4  1  0  0  0
  4  5  2  0  0  0
  4  7  1  0  0  0
  5  6  1  0  0  0
  7  9  2  0  0  0
  7  8  2  0  0  0
  7 10  1  0  0  0
 10 11  1  0  0  0
 10 12  1  0  0  0
M  END
> <minimizedAffinity>
-5.45796

$$$$
2WEJ_FB2_A_1263


 12 12  0  0  0  0  0  0  0  0999 V2000
   17.2559    2.9746   11.2856 C   0  0  0  0  0  0  0  0  0  0  0  0
   17.2845    4.1250   12.0830 C   0  0  0  0  0  0  0  0  0  0  0  0
   17.1568    4.0593   13.4885 C   0  0  0  0  0  0  0  0  0  0  0  0
   16.9854    2.8214   14.1608 C   0  0  0  0  0  0  0  0  0  0  0  0
   16.9581    1.6808   13.3279 C   0  0  0  0  0  0  0  0  0  0  0  0
   17.0884    1.7367   11.9158 C   0  0  0  0  0  0  0  0  0  0  0  0
   16.8392    2.7299   15.7941 S   0  0  0  0  0  0  0  0  0  0  0  0
   18.1242    3.1004   16.3608 O   0  0  0  0  0  0  0  0  0  0  0  0
   16.4211    1.3844   16.0368 O   0  0  0  0  0  0  0  0  0  0  0  0
   15.7161    3.7242   16.3234 N   0  0  0  0  0  0  0  0  0  0  0  0
   14.8147    3.4624   15.9243 H   0  0  0  0  0  0  0  0  0  0  0  0
   15.9473    4.6778   16.0445 H   0  0  0  0  0  0  0  0  0  0  0  0
  1  2  1  0  0  0
  1  6  2  0  0  0
  2  3  2  0  0  0
  3  4  1  0  0  0
  4  5  2  0  0  0
  4  7  1  0  0  0
  5  6  1  0  0  0
  7  9  2  0  0  0
  7  8  2  0  0  0
  7 10  1  0  0  0
 10 11  1  0  0  0
 10 12  1  0  0  0
M  END
> <minimizedAffinity>
-5.35989

$$$$
2WEJ_FB2_A_1263


 12 12  0  0  0  0  0  0  0  0999 V2000
   17.3033    3.6698   16.2748 C   0  0  0  0  0  0  0  0  0  0  0  0
   17.4216    4.7124   15.3479 C   0  0  0  0  0  0  0  0  0  0  0  0
   17.2525    4.4981   13.9617 C   0  0  0  0  0  0  0  0  0  0  0  0
   16.9611    3.2109   13.4400 C   0  0  0  0  0  0  0  0  0  0  0  0
   16.8511    2.1811   14.4006 C   0  0  0  0  0  0  0  0  0  0  0  0
   17.0164    2.3872   15.7950 C   0  0  0  0  0  0  0  0  0  0  0  0
   16.7585    2.9481   11.8316 S   0  0  0  0  0  0  0  0  0  0  0  0
   16.5486    1.5220   11.6534 O   0  0  0  0  0  0  0  0  0  0  0  0
   17.9448    3.4779   11.2347 O   0  0  0  0  0  0  0  0  0  0  0  0
   15.4993    3.7461   11.2768 N   0  0  0  0  0  0  0  0  0  0  0  0
   15.6487    4.7472   11.4029 H   0  0  0  0  0  0  0  0  0  0  0  0
   14.6637    3.4602   11.7872 H   0  0  0  0  0  0  0  0  0  0  0  0
  1  2  1  0  0  0
  1  6  2  0  0  0
  2  3  2  0  0  0
  3  4  1  0  0  0
  4  5  2  0  0  0
  4  7  1  0  0  0
  5  6  1  0  0  0
  7  9  2  0  0  0
  7  8  2  0  0  0
  7 10  1  0  0  0
 10 11  1  0  0  0
 10 12  1  0  0  0
M  END
> <minimizedAffinity>
-5.28590

$$$$
