4EOR_4SP_A_301


 32 35  0  0  0  0  0  0  0  0999 V2000
   -4.6690  -24.8864   22.8047 C   0  0  0  0  0  0  0  0  0  0  0  0
   -2.0737  -23.1756   19.8748 C   0  0  0  0  0  0  0  0  0  0  0  0
   -5.3270  -23.7563   22.6136 N   0  0  0  0  0  0  0  0  0  0  0  0
   -4.9291  -22.8394   21.7702 C   0  0  0  0  0  0  0  0  0  0  0  0
   -3.8035  -23.0542   21.0681 C   0  0  0  0  0  0  0  0  0  0  0  0
   -3.1105  -22.4322   20.1673 N   0  0  0  0  0  0  0  0  0  0  0  0
   -2.0663  -24.2998   20.5645 N   0  0  0  0  0  0  0  0  0  0  0  0
   -3.1261  -24.2835   21.3111 C   0  0  0  0  0  0  0  0  0  0  0  0
   -3.5682  -25.1695   22.1685 N   0  0  0  0  0  0  0  0  0  0  0  0
   -1.3883  -25.0123   20.5209 H   0  0  0  0  0  0  0  0  0  0  0  0
   -5.0943  -25.7919   23.6634 N   0  0  0  0  0  0  0  0  0  0  0  0
   -5.6243  -26.5198   23.2651 H   0  0  0  0  0  0  0  0  0  0  0  0
   -3.7045  -26.4157   26.9236 C   0  0  0  0  0  0  0  0  0  0  0  0
   -4.7510  -26.0409   27.7412 C   0  0  0  0  0  0  0  0  0  0  0  0
   -5.8883  -25.5864   27.1428 C   0  0  0  0  0  0  0  0  0  0  0  0
   -5.9749  -25.5238   25.7729 C   0  0  0  0  0  0  0  0  0  0  0  0
   -4.9257  -25.8829   24.9726 C   0  0  0  0  0  0  0  0  0  0  0  0
   -3.7876  -26.3382   25.5576 C   0  0  0  0  0  0  0  0  0  0  0  0
   -4.8756  -24.8474   29.8415 N   0  0  0  0  0  0  0  0  0  0  0  0
   -4.6085  -26.1378   29.2998 S   0  0  0  0  0  0  0  0  0  0  0  0
   -3.3321  -26.4182   29.7188 O   0  0  0  0  0  0  0  0  0  0  0  0
   -5.5099  -26.9850   29.8997 O   0  0  0  0  0  0  0  0  0  0  0  0
   -4.2342  -24.1677   29.4329 H   0  0  0  0  0  0  0  0  0  0  0  0
   -4.7476  -24.8702   30.8532 H   0  0  0  0  0  0  0  0  0  0  0  0
   -5.6329  -21.7299   21.6036 O   0  0  0  0  0  0  0  0  0  0  0  0
   -6.6169  -21.4707   22.5338 C   0  0  0  0  0  0  0  0  0  0  0  0
   -7.7232  -20.6675   21.9361 C   0  0  0  0  0  0  0  0  0  0  0  0
   -9.0585  -21.1566   22.3925 C   0  0  0  0  0  0  0  0  0  0  0  0
  -10.0265  -20.0984   21.9841 C   0  0  0  0  0  0  0  0  0  0  0  0
  -10.0547  -19.9132   20.4822 C   0  0  0  0  0  0  0  0  0  0  0  0
   -8.6680  -19.7753   19.8756 C   0  0  0  0  0  0  0  0  0  0  0  0
   -7.7055  -20.7868   20.4421 C   0  0  0  0  0  0  0  0  0  0  0  0
  1  3  2  0  0  0
  1  9  1  0  0  0
  1 11  1  0  0  0
  2  6  2  0  0  0
  2  7  1  0  0  0
 26 27  1  0  0  0
 26 25  1  0  0  0
 27 28  1  0  0  0
 27 32  1  0  0  0
 28 29  1  0  0  0
 29 30  1  0  0  0
 30 31  1  0  0  0
 31 32  1  0  0  0
 13 14  2  0  0  0
 13 18  1  0  0  0
 14 15  1  0  0  0
 14 20  1  0  0  0
 15 16  2  0  0  0
 16 17  1  0  0  0
 19 20  1  0  0  0
  3  4  1  0  0  0
  4 25  1  0  0  0
  4  5  2  0  0  0
  5  6  1  0  0  0
  5  8  1  0  0  0
  7  8  1  0  0  0
  8  9  2  0  0  0
 11 17  1  0  0  0
 17 18  2  0  0  0
 20 21  2  0  0  0
 20 22  2  0  0  0
 19 23  1  0  0  0
 19 24  1  0  0  0
  7 10  1  0  0  0
 11 12  1  0  0  0
M  END
> <minimizedAffinity>
-9.68780

$$$$
4EOR_4SP_A_301


 32 35  0  0  0  0  0  0  0  0999 V2000
   -3.8983  -23.5361   21.3586 C   0  0  0  0  0  0  0  0  0  0  0  0
   -0.5629  -24.5777   23.8154 C   0  0  0  0  0  0  0  0  0  0  0  0
   -4.4316  -24.5871   21.9568 N   0  0  0  0  0  0  0  0  0  0  0  0
   -3.7887  -25.2965   22.8476 C   0  0  0  0  0  0  0  0  0  0  0  0
   -2.5324  -24.9431   23.1687 C   0  0  0  0  0  0  0  0  0  0  0  0
   -1.6037  -25.3557   23.9723 N   0  0  0  0  0  0  0  0  0  0  0  0
   -0.7850  -23.6366   22.9185 N   0  0  0  0  0  0  0  0  0  0  0  0
   -1.9984  -23.8073   22.4950 C   0  0  0  0  0  0  0  0  0  0  0  0
   -2.6862  -23.1306   21.6092 N   0  0  0  0  0  0  0  0  0  0  0  0
   -0.1528  -22.9403   22.6275 H   0  0  0  0  0  0  0  0  0  0  0  0
   -4.5712  -22.8408   20.4630 N   0  0  0  0  0  0  0  0  0  0  0  0
   -4.2953  -22.9946   19.5306 H   0  0  0  0  0  0  0  0  0  0  0  0
   -7.0835  -20.6891   21.8799 C   0  0  0  0  0  0  0  0  0  0  0  0
   -7.6551  -20.1540   20.7436 C   0  0  0  0  0  0  0  0  0  0  0  0
   -7.1544  -20.5490   19.5389 C   0  0  0  0  0  0  0  0  0  0  0  0
   -6.1261  -21.4585   19.4787 C   0  0  0  0  0  0  0  0  0  0  0  0
   -5.5565  -21.9704   20.6118 C   0  0  0  0  0  0  0  0  0  0  0  0
   -6.0478  -21.5847   21.8179 C   0  0  0  0  0  0  0  0  0  0  0  0
   -8.8927  -18.3913   19.6424 N   0  0  0  0  0  0  0  0  0  0  0  0
   -8.8327  -19.1252   20.8621 S   0  0  0  0  0  0  0  0  0  0  0  0
   -8.6289  -18.1643   21.8204 O   0  0  0  0  0  0  0  0  0  0  0  0
  -10.0734  -19.6987   21.0105 O   0  0  0  0  0  0  0  0  0  0  0  0
   -7.9946  -17.9381   19.4738 H   0  0  0  0  0  0  0  0  0  0  0  0
   -9.6240  -17.6832   19.7073 H   0  0  0  0  0  0  0  0  0  0  0  0
   -4.3733  -26.3323   23.4300 O   0  0  0  0  0  0  0  0  0  0  0  0
   -5.3519  -26.0536   24.3602 C   0  0  0  0  0  0  0  0  0  0  0  0
   -4.7754  -25.9525   25.7327 C   0  0  0  0  0  0  0  0  0  0  0  0
   -4.0479  -27.2009   26.1104 C   0  0  0  0  0  0  0  0  0  0  0  0
   -3.2774  -26.8519   27.3384 C   0  0  0  0  0  0  0  0  0  0  0  0
   -4.1891  -26.4473   28.4767 C   0  0  0  0  0  0  0  0  0  0  0  0
   -5.2307  -25.4197   28.0657 C   0  0  0  0  0  0  0  0  0  0  0  0
   -5.8660  -25.7639   26.7434 C   0  0  0  0  0  0  0  0  0  0  0  0
  1  3  2  0  0  0
  1  9  1  0  0  0
  1 11  1  0  0  0
  2  6  2  0  0  0
  2  7  1  0  0  0
 26 27  1  0  0  0
 26 25  1  0  0  0
 27 28  1  0  0  0
 27 32  1  0  0  0
 28 29  1  0  0  0
 29 30  1  0  0  0
 30 31  1  0  0  0
 31 32  1  0  0  0
 13 14  2  0  0  0
 13 18  1  0  0  0
 14 15  1  0  0  0
 14 20  1  0  0  0
 15 16  2  0  0  0
 16 17  1  0  0  0
 19 20  1  0  0  0
  3  4  1  0  0  0
  4 25  1  0  0  0
  4  5  2  0  0  0
  5  6  1  0  0  0
  5  8  1  0  0  0
  7  8  1  0  0  0
  8  9  2  0  0  0
 11 17  1  0  0  0
 17 18  2  0  0  0
 20 21  2  0  0  0
 20 22  2  0  0  0
 19 23  1  0  0  0
 19 24  1  0  0  0
  7 10  1  0  0  0
 11 12  1  0  0  0
M  END
> <minimizedAffinity>
-8.87758

$$$$
4EOR_4SP_A_301


 32 35  0  0  0  0  0  0  0  0999 V2000
   -3.8695  -23.4366   20.9933 C   0  0  0  0  0  0  0  0  0  0  0  0
    0.1018  -23.2001   22.5485 C   0  0  0  0  0  0  0  0  0  0  0  0
   -3.9527  -24.4293   21.8618 N   0  0  0  0  0  0  0  0  0  0  0  0
   -2.9560  -24.7819   22.6314 C   0  0  0  0  0  0  0  0  0  0  0  0
   -1.7975  -24.1075   22.5355 C   0  0  0  0  0  0  0  0  0  0  0  0
   -0.6316  -24.1336   23.0998 N   0  0  0  0  0  0  0  0  0  0  0  0
   -0.5633  -22.5371   21.6224 N   0  0  0  0  0  0  0  0  0  0  0  0
   -1.7536  -23.0494   21.5827 C   0  0  0  0  0  0  0  0  0  0  0  0
   -2.7826  -22.7366   20.8351 N   0  0  0  0  0  0  0  0  0  0  0  0
   -0.2224  -21.7975   21.0692 H   0  0  0  0  0  0  0  0  0  0  0  0
   -4.8917  -23.1049   20.2295 N   0  0  0  0  0  0  0  0  0  0  0  0
   -4.9756  -23.6322   19.4024 H   0  0  0  0  0  0  0  0  0  0  0  0
   -7.3481  -20.9040   21.6689 C   0  0  0  0  0  0  0  0  0  0  0  0
   -7.7966  -20.2298   20.5515 C   0  0  0  0  0  0  0  0  0  0  0  0
   -7.2370  -20.5537   19.3516 C   0  0  0  0  0  0  0  0  0  0  0  0
   -6.2717  -21.5288   19.2761 C   0  0  0  0  0  0  0  0  0  0  0  0
   -5.8234  -22.1795   20.3923 C   0  0  0  0  0  0  0  0  0  0  0  0
   -6.3744  -21.8657   21.5934 C   0  0  0  0  0  0  0  0  0  0  0  0
   -8.8855  -18.3442   19.4979 N   0  0  0  0  0  0  0  0  0  0  0  0
   -8.9065  -19.1301   20.6860 S   0  0  0  0  0  0  0  0  0  0  0  0
   -8.6652  -18.2253   21.6892 O   0  0  0  0  0  0  0  0  0  0  0  0
  -10.1858  -19.6248   20.7802 O   0  0  0  0  0  0  0  0  0  0  0  0
   -7.9553  -17.9457   19.3702 H   0  0  0  0  0  0  0  0  0  0  0  0
   -9.5700  -17.5919   19.5757 H   0  0  0  0  0  0  0  0  0  0  0  0
   -3.0950  -25.7745   23.4971 O   0  0  0  0  0  0  0  0  0  0  0  0
   -4.3821  -26.1818   23.7766 C   0  0  0  0  0  0  0  0  0  0  0  0
   -4.5901  -26.3349   25.2462 C   0  0  0  0  0  0  0  0  0  0  0  0
   -5.6141  -25.3735   25.7537 C   0  0  0  0  0  0  0  0  0  0  0  0
   -5.9423  -25.8383   27.1319 C   0  0  0  0  0  0  0  0  0  0  0  0
   -4.7327  -25.7976   28.0407 C   0  0  0  0  0  0  0  0  0  0  0  0
   -3.5060  -26.4498   27.4247 C   0  0  0  0  0  0  0  0  0  0  0  0
   -3.3190  -26.0444   25.9855 C   0  0  0  0  0  0  0  0  0  0  0  0
  1  3  2  0  0  0
  1  9  1  0  0  0
  1 11  1  0  0  0
  2  6  2  0  0  0
  2  7  1  0  0  0
 26 27  1  0  0  0
 26 25  1  0  0  0
 27 28  1  0  0  0
 27 32  1  0  0  0
 28 29  1  0  0  0
 29 30  1  0  0  0
 30 31  1  0  0  0
 31 32  1  0  0  0
 13 14  2  0  0  0
 13 18  1  0  0  0
 14 15  1  0  0  0
 14 20  1  0  0  0
 15 16  2  0  0  0
 16 17  1  0  0  0
 19 20  1  0  0  0
  3  4  1  0  0  0
  4 25  1  0  0  0
  4  5  2  0  0  0
  5  6  1  0  0  0
  5  8  1  0  0  0
  7  8  1  0  0  0
  8  9  2  0  0  0
 11 17  1  0  0  0
 17 18  2  0  0  0
 20 21  2  0  0  0
 20 22  2  0  0  0
 19 23  1  0  0  0
 19 24  1  0  0  0
  7 10  1  0  0  0
 11 12  1  0  0  0
M  END
> <minimizedAffinity>
-8.76465

$$$$
4EOR_4SP_A_301


 32 35  0  0  0  0  0  0  0  0999 V2000
   -3.2316  -24.2990   21.8952 C   0  0  0  0  0  0  0  0  0  0  0  0
   -6.4516  -25.3862   24.4828 C   0  0  0  0  0  0  0  0  0  0  0  0
   -4.1188  -23.4193   21.4643 N   0  0  0  0  0  0  0  0  0  0  0  0
   -5.3266  -23.3320   21.9582 C   0  0  0  0  0  0  0  0  0  0  0  0
   -5.6818  -24.1721   22.9451 C   0  0  0  0  0  0  0  0  0  0  0  0
   -6.7276  -24.3919   23.6774 N   0  0  0  0  0  0  0  0  0  0  0  0
   -5.2234  -25.8334   24.3065 N   0  0  0  0  0  0  0  0  0  0  0  0
   -4.6944  -25.1056   23.3731 C   0  0  0  0  0  0  0  0  0  0  0  0
   -3.4972  -25.1511   22.8438 N   0  0  0  0  0  0  0  0  0  0  0  0
   -4.7925  -26.5752   24.7894 H   0  0  0  0  0  0  0  0  0  0  0  0
   -2.0212  -24.3640   21.3765 N   0  0  0  0  0  0  0  0  0  0  0  0
   -1.4129  -24.9922   21.8288 H   0  0  0  0  0  0  0  0  0  0  0  0
   -1.5740  -22.3294   18.4422 C   0  0  0  0  0  0  0  0  0  0  0  0
   -0.2207  -22.4746   18.2148 C   0  0  0  0  0  0  0  0  0  0  0  0
    0.4840  -23.2601   19.0776 C   0  0  0  0  0  0  0  0  0  0  0  0
   -0.1511  -23.8872   20.1225 C   0  0  0  0  0  0  0  0  0  0  0  0
   -1.4901  -23.7235   20.3477 C   0  0  0  0  0  0  0  0  0  0  0  0
   -2.2026  -22.9438   19.4939 C   0  0  0  0  0  0  0  0  0  0  0  0
    1.2212  -20.6597   17.5229 N   0  0  0  0  0  0  0  0  0  0  0  0
    0.4587  -21.7456   17.0039 S   0  0  0  0  0  0  0  0  0  0  0  0
   -0.4346  -21.1485   16.1503 O   0  0  0  0  0  0  0  0  0  0  0  0
    1.3504  -22.5223   16.3027 O   0  0  0  0  0  0  0  0  0  0  0  0
    0.6116  -20.0413   18.0581 H   0  0  0  0  0  0  0  0  0  0  0  0
    1.6407  -20.1398   16.7521 H   0  0  0  0  0  0  0  0  0  0  0  0
   -6.1740  -22.4222   21.5021 O   0  0  0  0  0  0  0  0  0  0  0  0
   -6.1968  -21.2086   22.1558 C   0  0  0  0  0  0  0  0  0  0  0  0
   -7.4183  -20.4292   21.7996 C   0  0  0  0  0  0  0  0  0  0  0  0
   -8.6557  -21.0971   22.3028 C   0  0  0  0  0  0  0  0  0  0  0  0
   -9.7381  -20.0817   22.1586 C   0  0  0  0  0  0  0  0  0  0  0  0
   -9.9443  -19.6829   20.7132 C   0  0  0  0  0  0  0  0  0  0  0  0
   -8.6465  -19.3344   20.0032 C   0  0  0  0  0  0  0  0  0  0  0  0
   -7.5557  -20.3275   20.3105 C   0  0  0  0  0  0  0  0  0  0  0  0
  1  3  2  0  0  0
  1  9  1  0  0  0
  1 11  1  0  0  0
  2  6  2  0  0  0
  2  7  1  0  0  0
 26 27  1  0  0  0
 26 25  1  0  0  0
 27 28  1  0  0  0
 27 32  1  0  0  0
 28 29  1  0  0  0
 29 30  1  0  0  0
 30 31  1  0  0  0
 31 32  1  0  0  0
 13 14  2  0  0  0
 13 18  1  0  0  0
 14 15  1  0  0  0
 14 20  1  0  0  0
 15 16  2  0  0  0
 16 17  1  0  0  0
 19 20  1  0  0  0
  3  4  1  0  0  0
  4 25  1  0  0  0
  4  5  2  0  0  0
  5  6  1  0  0  0
  5  8  1  0  0  0
  7  8  1  0  0  0
  8  9  2  0  0  0
 11 17  1  0  0  0
 17 18  2  0  0  0
 20 21  2  0  0  0
 20 22  2  0  0  0
 19 23  1  0  0  0
 19 24  1  0  0  0
  7 10  1  0  0  0
 11 12  1  0  0  0
M  END
> <minimizedAffinity>
-8.74188

$$$$
4EOR_4SP_A_301


 32 35  0  0  0  0  0  0  0  0999 V2000
   -5.9097  -20.2944   20.5395 C   0  0  0  0  0  0  0  0  0  0  0  0
  -10.0386  -19.5019   19.7846 C   0  0  0  0  0  0  0  0  0  0  0  0
   -6.4166  -20.9871   21.5445 N   0  0  0  0  0  0  0  0  0  0  0  0
   -7.7023  -21.0730   21.7677 C   0  0  0  0  0  0  0  0  0  0  0  0
   -8.5445  -20.4298   20.9411 C   0  0  0  0  0  0  0  0  0  0  0  0
   -9.8252  -20.2798   20.8155 N   0  0  0  0  0  0  0  0  0  0  0  0
   -8.9117  -19.1331   19.2071 N   0  0  0  0  0  0  0  0  0  0  0  0
   -7.9522  -19.6926   19.8757 C   0  0  0  0  0  0  0  0  0  0  0  0
   -6.6558  -19.6392   19.6967 N   0  0  0  0  0  0  0  0  0  0  0  0
   -8.8175  -18.5471   18.4216 H   0  0  0  0  0  0  0  0  0  0  0  0
   -4.6082  -20.2253   20.3407 N   0  0  0  0  0  0  0  0  0  0  0  0
   -4.2867  -19.3516   20.0202 H   0  0  0  0  0  0  0  0  0  0  0  0
   -2.3722  -22.9977   19.8273 C   0  0  0  0  0  0  0  0  0  0  0  0
   -1.6687  -23.0027   21.0145 C   0  0  0  0  0  0  0  0  0  0  0  0
   -1.9862  -22.0542   21.9405 C   0  0  0  0  0  0  0  0  0  0  0  0
   -2.9832  -21.1430   21.6877 C   0  0  0  0  0  0  0  0  0  0  0  0
   -3.6632  -21.1374   20.5012 C   0  0  0  0  0  0  0  0  0  0  0  0
   -3.3561  -22.0784   19.5712 C   0  0  0  0  0  0  0  0  0  0  0  0
   -0.8170  -24.7067   22.5052 N   0  0  0  0  0  0  0  0  0  0  0  0
   -0.5446  -24.0679   21.2611 S   0  0  0  0  0  0  0  0  0  0  0  0
    0.7025  -23.5216   21.4323 O   0  0  0  0  0  0  0  0  0  0  0  0
   -0.5053  -25.0766   20.3278 O   0  0  0  0  0  0  0  0  0  0  0  0
   -0.8592  -24.0060   23.2452 H   0  0  0  0  0  0  0  0  0  0  0  0
   -0.0762  -25.3764   22.7129 H   0  0  0  0  0  0  0  0  0  0  0  0
   -8.1612  -21.7931   22.7801 O   0  0  0  0  0  0  0  0  0  0  0  0
   -7.2498  -22.1600   23.7472 C   0  0  0  0  0  0  0  0  0  0  0  0
   -6.7360  -23.5398   23.5055 C   0  0  0  0  0  0  0  0  0  0  0  0
   -6.8992  -24.4007   24.7149 C   0  0  0  0  0  0  0  0  0  0  0  0
   -6.6456  -25.7929   24.2449 C   0  0  0  0  0  0  0  0  0  0  0  0
   -5.2402  -25.9564   23.7076 C   0  0  0  0  0  0  0  0  0  0  0  0
   -4.8539  -24.8704   22.7171 C   0  0  0  0  0  0  0  0  0  0  0  0
   -5.2703  -23.5031   23.1943 C   0  0  0  0  0  0  0  0  0  0  0  0
  1  3  2  0  0  0
  1  9  1  0  0  0
  1 11  1  0  0  0
  2  6  2  0  0  0
  2  7  1  0  0  0
 26 27  1  0  0  0
 26 25  1  0  0  0
 27 28  1  0  0  0
 27 32  1  0  0  0
 28 29  1  0  0  0
 29 30  1  0  0  0
 30 31  1  0  0  0
 31 32  1  0  0  0
 13 14  2  0  0  0
 13 18  1  0  0  0
 14 15  1  0  0  0
 14 20  1  0  0  0
 15 16  2  0  0  0
 16 17  1  0  0  0
 19 20  1  0  0  0
  3  4  1  0  0  0
  4 25  1  0  0  0
  4  5  2  0  0  0
  5  6  1  0  0  0
  5  8  1  0  0  0
  7  8  1  0  0  0
  8  9  2  0  0  0
 11 17  1  0  0  0
 17 18  2  0  0  0
 20 21  2  0  0  0
 20 22  2  0  0  0
 19 23  1  0  0  0
 19 24  1  0  0  0
  7 10  1  0  0  0
 11 12  1  0  0  0
M  END
> <minimizedAffinity>
-8.73868

$$$$
4EOR_4SP_A_301


 32 35  0  0  0  0  0  0  0  0999 V2000
   -2.7993  -22.5598   19.7875 C   0  0  0  0  0  0  0  0  0  0  0  0
    0.7386  -24.7760   20.6919 C   0  0  0  0  0  0  0  0  0  0  0  0
   -3.2419  -23.1802   20.8673 N   0  0  0  0  0  0  0  0  0  0  0  0
   -2.5068  -24.0143   21.5559 C   0  0  0  0  0  0  0  0  0  0  0  0
   -1.2482  -24.2517   21.1489 C   0  0  0  0  0  0  0  0  0  0  0  0
   -0.2400  -24.9649   21.5405 N   0  0  0  0  0  0  0  0  0  0  0  0
    0.4020  -23.9328   19.7352 N   0  0  0  0  0  0  0  0  0  0  0  0
   -0.8171  -23.5643   19.9780 C   0  0  0  0  0  0  0  0  0  0  0  0
   -1.5950  -22.7378   19.3244 N   0  0  0  0  0  0  0  0  0  0  0  0
    0.9664  -23.6403   18.9834 H   0  0  0  0  0  0  0  0  0  0  0  0
   -3.5648  -21.7248   19.1129 N   0  0  0  0  0  0  0  0  0  0  0  0
   -3.1756  -21.4000   18.2690 H   0  0  0  0  0  0  0  0  0  0  0  0
   -7.1195  -21.1660   19.1481 C   0  0  0  0  0  0  0  0  0  0  0  0
   -7.2211  -20.1192   20.0415 C   0  0  0  0  0  0  0  0  0  0  0  0
   -6.0687  -19.6502   20.5982 C   0  0  0  0  0  0  0  0  0  0  0  0
   -4.8578  -20.2041   20.2588 C   0  0  0  0  0  0  0  0  0  0  0  0
   -4.7704  -21.2518   19.3842 C   0  0  0  0  0  0  0  0  0  0  0  0
   -5.9121  -21.7271   18.8225 C   0  0  0  0  0  0  0  0  0  0  0  0
   -8.5986  -19.1197   21.7604 N   0  0  0  0  0  0  0  0  0  0  0  0
   -8.6247  -19.5140   20.3915 S   0  0  0  0  0  0  0  0  0  0  0  0
   -9.6484  -20.4256   20.3261 O   0  0  0  0  0  0  0  0  0  0  0  0
   -8.9443  -18.3785   19.6853 O   0  0  0  0  0  0  0  0  0  0  0  0
   -8.3653  -19.9247   22.3417 H   0  0  0  0  0  0  0  0  0  0  0  0
   -9.5151  -18.7610   22.0285 H   0  0  0  0  0  0  0  0  0  0  0  0
   -2.9922  -24.5991   22.6404 O   0  0  0  0  0  0  0  0  0  0  0  0
   -4.2651  -25.1209   22.5502 C   0  0  0  0  0  0  0  0  0  0  0  0
   -5.2410  -24.2925   23.3167 C   0  0  0  0  0  0  0  0  0  0  0  0
   -6.3286  -25.1337   23.8999 C   0  0  0  0  0  0  0  0  0  0  0  0
   -7.0320  -24.2494   24.8729 C   0  0  0  0  0  0  0  0  0  0  0  0
   -7.6485  -23.0458   24.1931 C   0  0  0  0  0  0  0  0  0  0  0  0
   -6.6814  -22.3286   23.2656 C   0  0  0  0  0  0  0  0  0  0  0  0
   -5.9015  -23.2958   22.4129 C   0  0  0  0  0  0  0  0  0  0  0  0
  1  3  2  0  0  0
  1  9  1  0  0  0
  1 11  1  0  0  0
  2  6  2  0  0  0
  2  7  1  0  0  0
 26 27  1  0  0  0
 26 25  1  0  0  0
 27 28  1  0  0  0
 27 32  1  0  0  0
 28 29  1  0  0  0
 29 30  1  0  0  0
 30 31  1  0  0  0
 31 32  1  0  0  0
 13 14  2  0  0  0
 13 18  1  0  0  0
 14 15  1  0  0  0
 14 20  1  0  0  0
 15 16  2  0  0  0
 16 17  1  0  0  0
 19 20  1  0  0  0
  3  4  1  0  0  0
  4 25  1  0  0  0
  4  5  2  0  0  0
  5  6  1  0  0  0
  5  8  1  0  0  0
  7  8  1  0  0  0
  8  9  2  0  0  0
 11 17  1  0  0  0
 17 18  2  0  0  0
 20 21  2  0  0  0
 20 22  2  0  0  0
 19 23  1  0  0  0
 19 24  1  0  0  0
  7 10  1  0  0  0
 11 12  1  0  0  0
M  END
> <minimizedAffinity>
-8.56997

$$$$
4EOR_4SP_A_301


 32 35  0  0  0  0  0  0  0  0999 V2000
   -4.2925  -20.4903   20.3299 C   0  0  0  0  0  0  0  0  0  0  0  0
   -1.3360  -21.3905   17.3811 C   0  0  0  0  0  0  0  0  0  0  0  0
   -3.3207  -20.8535   21.1487 N   0  0  0  0  0  0  0  0  0  0  0  0
   -2.1445  -21.2374   20.7250 C   0  0  0  0  0  0  0  0  0  0  0  0
   -1.9133  -21.2645   19.4014 C   0  0  0  0  0  0  0  0  0  0  0  0
   -0.9274  -21.5568   18.6134 N   0  0  0  0  0  0  0  0  0  0  0  0
   -2.5880  -20.9787   17.3311 N   0  0  0  0  0  0  0  0  0  0  0  0
   -2.9914  -20.8693   18.5584 C   0  0  0  0  0  0  0  0  0  0  0  0
   -4.1519  -20.4928   19.0350 N   0  0  0  0  0  0  0  0  0  0  0  0
   -3.1137  -20.7909   16.5201 H   0  0  0  0  0  0  0  0  0  0  0  0
   -5.4690  -20.1091   20.7869 N   0  0  0  0  0  0  0  0  0  0  0  0
   -5.7470  -19.2074   20.5060 H   0  0  0  0  0  0  0  0  0  0  0  0
   -8.5038  -21.2053   22.3799 C   0  0  0  0  0  0  0  0  0  0  0  0
   -8.0183  -22.1293   23.2824 C   0  0  0  0  0  0  0  0  0  0  0  0
   -6.6721  -22.3420   23.3060 C   0  0  0  0  0  0  0  0  0  0  0  0
   -5.8435  -21.6417   22.4626 C   0  0  0  0  0  0  0  0  0  0  0  0
   -6.3372  -20.7397   21.5610 C   0  0  0  0  0  0  0  0  0  0  0  0
   -7.6769  -20.5188   21.5291 C   0  0  0  0  0  0  0  0  0  0  0  0
   -8.6235  -24.2719   24.2284 N   0  0  0  0  0  0  0  0  0  0  0  0
   -9.0023  -22.8984   24.2308 S   0  0  0  0  0  0  0  0  0  0  0  0
  -10.3001  -22.9091   23.7848 O   0  0  0  0  0  0  0  0  0  0  0  0
   -8.9477  -22.5016   25.5461 O   0  0  0  0  0  0  0  0  0  0  0  0
   -8.6443  -24.6285   23.2730 H   0  0  0  0  0  0  0  0  0  0  0  0
   -9.2746  -24.8051   24.8046 H   0  0  0  0  0  0  0  0  0  0  0  0
   -1.1985  -21.5769   21.5874 O   0  0  0  0  0  0  0  0  0  0  0  0
   -0.8691  -22.9138   21.6566 C   0  0  0  0  0  0  0  0  0  0  0  0
   -1.7971  -23.6497   22.5642 C   0  0  0  0  0  0  0  0  0  0  0  0
   -1.0849  -24.7288   23.3117 C   0  0  0  0  0  0  0  0  0  0  0  0
   -2.0316  -25.1586   24.3805 C   0  0  0  0  0  0  0  0  0  0  0  0
   -3.3128  -25.7202   23.8027 C   0  0  0  0  0  0  0  0  0  0  0  0
   -3.9224  -24.8278   22.7341 C   0  0  0  0  0  0  0  0  0  0  0  0
   -2.8822  -24.3145   21.7723 C   0  0  0  0  0  0  0  0  0  0  0  0
  1  3  2  0  0  0
  1  9  1  0  0  0
  1 11  1  0  0  0
  2  6  2  0  0  0
  2  7  1  0  0  0
 26 27  1  0  0  0
 26 25  1  0  0  0
 27 28  1  0  0  0
 27 32  1  0  0  0
 28 29  1  0  0  0
 29 30  1  0  0  0
 30 31  1  0  0  0
 31 32  1  0  0  0
 13 14  2  0  0  0
 13 18  1  0  0  0
 14 15  1  0  0  0
 14 20  1  0  0  0
 15 16  2  0  0  0
 16 17  1  0  0  0
 19 20  1  0  0  0
  3  4  1  0  0  0
  4 25  1  0  0  0
  4  5  2  0  0  0
  5  6  1  0  0  0
  5  8  1  0  0  0
  7  8  1  0  0  0
  8  9  2  0  0  0
 11 17  1  0  0  0
 17 18  2  0  0  0
 20 21  2  0  0  0
 20 22  2  0  0  0
 19 23  1  0  0  0
 19 24  1  0  0  0
  7 10  1  0  0  0
 11 12  1  0  0  0
M  END
> <minimizedAffinity>
-8.36794

$$$$
4EOR_4SP_A_301


 32 35  0  0  0  0  0  0  0  0999 V2000
   -2.7753  -21.5964   18.6337 C   0  0  0  0  0  0  0  0  0  0  0  0
    1.4287  -22.3343   18.4673 C   0  0  0  0  0  0  0  0  0  0  0  0
   -2.7463  -22.6692   19.4050 N   0  0  0  0  0  0  0  0  0  0  0  0
   -1.6409  -23.3088   19.6867 C   0  0  0  0  0  0  0  0  0  0  0  0
   -0.4853  -22.8573   19.1700 C   0  0  0  0  0  0  0  0  0  0  0  0
    0.7680  -23.1822   19.2142 N   0  0  0  0  0  0  0  0  0  0  0  0
    0.6319  -21.4330   17.9265 N   0  0  0  0  0  0  0  0  0  0  0  0
   -0.5667  -21.7016   18.3412 C   0  0  0  0  0  0  0  0  0  0  0  0
   -1.7017  -21.0978   18.0905 N   0  0  0  0  0  0  0  0  0  0  0  0
    0.8959  -20.6995   17.3253 H   0  0  0  0  0  0  0  0  0  0  0  0
   -3.9060  -20.9732   18.3665 N   0  0  0  0  0  0  0  0  0  0  0  0
   -3.9194  -20.4960   17.5055 H   0  0  0  0  0  0  0  0  0  0  0  0
   -7.2689  -21.4362   19.5607 C   0  0  0  0  0  0  0  0  0  0  0  0
   -7.3065  -20.5491   20.6171 C   0  0  0  0  0  0  0  0  0  0  0  0
   -6.1776  -19.8317   20.8797 C   0  0  0  0  0  0  0  0  0  0  0  0
   -5.0570  -19.9904   20.1005 C   0  0  0  0  0  0  0  0  0  0  0  0
   -5.0258  -20.8840   19.0656 C   0  0  0  0  0  0  0  0  0  0  0  0
   -6.1451  -21.6038   18.7941 C   0  0  0  0  0  0  0  0  0  0  0  0
   -8.4387  -21.1538   22.6675 N   0  0  0  0  0  0  0  0  0  0  0  0
   -8.6115  -20.3964   21.4732 S   0  0  0  0  0  0  0  0  0  0  0  0
   -9.7222  -20.9480   20.8856 O   0  0  0  0  0  0  0  0  0  0  0  0
   -8.8719  -19.1107   21.8846 O   0  0  0  0  0  0  0  0  0  0  0  0
   -8.2409  -22.1254   22.4282 H   0  0  0  0  0  0  0  0  0  0  0  0
   -9.2912  -21.1078   23.2256 H   0  0  0  0  0  0  0  0  0  0  0  0
   -1.6629  -24.3706   20.4780 O   0  0  0  0  0  0  0  0  0  0  0  0
   -1.9509  -24.1506   21.8081 C   0  0  0  0  0  0  0  0  0  0  0  0
   -3.4031  -24.3532   22.0841 C   0  0  0  0  0  0  0  0  0  0  0  0
   -4.0900  -23.0566   22.3625 C   0  0  0  0  0  0  0  0  0  0  0  0
   -5.5482  -23.3634   22.3082 C   0  0  0  0  0  0  0  0  0  0  0  0
   -5.9490  -24.3718   23.3633 C   0  0  0  0  0  0  0  0  0  0  0  0
   -5.0430  -25.5917   23.3922 C   0  0  0  0  0  0  0  0  0  0  0  0
   -3.5879  -25.2112   23.2991 C   0  0  0  0  0  0  0  0  0  0  0  0
  1  3  2  0  0  0
  1  9  1  0  0  0
  1 11  1  0  0  0
  2  6  2  0  0  0
  2  7  1  0  0  0
 26 27  1  0  0  0
 26 25  1  0  0  0
 27 28  1  0  0  0
 27 32  1  0  0  0
 28 29  1  0  0  0
 29 30  1  0  0  0
 30 31  1  0  0  0
 31 32  1  0  0  0
 13 14  2  0  0  0
 13 18  1  0  0  0
 14 15  1  0  0  0
 14 20  1  0  0  0
 15 16  2  0  0  0
 16 17  1  0  0  0
 19 20  1  0  0  0
  3  4  1  0  0  0
  4 25  1  0  0  0
  4  5  2  0  0  0
  5  6  1  0  0  0
  5  8  1  0  0  0
  7  8  1  0  0  0
  8  9  2  0  0  0
 11 17  1  0  0  0
 17 18  2  0  0  0
 20 21  2  0  0  0
 20 22  2  0  0  0
 19 23  1  0  0  0
 19 24  1  0  0  0
  7 10  1  0  0  0
 11 12  1  0  0  0
M  END
> <minimizedAffinity>
-8.26599

$$$$
4EOR_4SP_A_301


 32 35  0  0  0  0  0  0  0  0999 V2000
   -2.1497  -24.8322   23.1875 C   0  0  0  0  0  0  0  0  0  0  0  0
    0.7413  -22.1974   21.4712 C   0  0  0  0  0  0  0  0  0  0  0  0
   -2.9887  -23.9735   22.6348 N   0  0  0  0  0  0  0  0  0  0  0  0
   -2.5885  -22.9304   21.9552 C   0  0  0  0  0  0  0  0  0  0  0  0
   -1.2686  -22.7215   21.8127 C   0  0  0  0  0  0  0  0  0  0  0  0
   -0.4994  -21.8555   21.2322 N   0  0  0  0  0  0  0  0  0  0  0  0
    0.8160  -23.2935   22.2010 N   0  0  0  0  0  0  0  0  0  0  0  0
   -0.4033  -23.6702   22.4296 C   0  0  0  0  0  0  0  0  0  0  0  0
   -0.8569  -24.6997   23.1004 N   0  0  0  0  0  0  0  0  0  0  0  0
    1.6373  -23.7387   22.5115 H   0  0  0  0  0  0  0  0  0  0  0  0
   -2.5834  -25.8746   23.8683 N   0  0  0  0  0  0  0  0  0  0  0  0
   -2.5197  -26.7333   23.3910 H   0  0  0  0  0  0  0  0  0  0  0  0
   -4.8470  -26.2373   26.6421 C   0  0  0  0  0  0  0  0  0  0  0  0
   -3.9943  -26.0637   27.7130 C   0  0  0  0  0  0  0  0  0  0  0  0
   -2.6785  -25.8334   27.4416 C   0  0  0  0  0  0  0  0  0  0  0  0
   -2.2389  -25.7667   26.1415 C   0  0  0  0  0  0  0  0  0  0  0  0
   -3.0901  -25.9560   25.0879 C   0  0  0  0  0  0  0  0  0  0  0  0
   -4.4037  -26.1853   25.3461 C   0  0  0  0  0  0  0  0  0  0  0  0
   -5.5610  -27.1375   29.2110 N   0  0  0  0  0  0  0  0  0  0  0  0
   -4.5438  -26.1403   29.1798 S   0  0  0  0  0  0  0  0  0  0  0  0
   -5.1843  -24.9971   29.5874 O   0  0  0  0  0  0  0  0  0  0  0  0
   -3.6136  -26.5311   30.1137 O   0  0  0  0  0  0  0  0  0  0  0  0
   -6.2874  -26.9034   28.5342 H   0  0  0  0  0  0  0  0  0  0  0  0
   -5.9677  -27.1792   30.1455 H   0  0  0  0  0  0  0  0  0  0  0  0
   -3.4699  -22.1077   21.4074 O   0  0  0  0  0  0  0  0  0  0  0  0
   -4.7113  -22.6303   21.1135 C   0  0  0  0  0  0  0  0  0  0  0  0
   -5.7806  -21.9518   21.9024 C   0  0  0  0  0  0  0  0  0  0  0  0
   -6.4186  -22.8901   22.8735 C   0  0  0  0  0  0  0  0  0  0  0  0
   -7.2221  -22.0268   23.7859 C   0  0  0  0  0  0  0  0  0  0  0  0
   -8.3041  -21.2763   23.0398 C   0  0  0  0  0  0  0  0  0  0  0  0
   -7.7887  -20.5771   21.7927 C   0  0  0  0  0  0  0  0  0  0  0  0
   -6.8679  -21.4630   20.9939 C   0  0  0  0  0  0  0  0  0  0  0  0
  1  3  2  0  0  0
  1  9  1  0  0  0
  1 11  1  0  0  0
  2  6  2  0  0  0
  2  7  1  0  0  0
 26 27  1  0  0  0
 26 25  1  0  0  0
 27 28  1  0  0  0
 27 32  1  0  0  0
 28 29  1  0  0  0
 29 30  1  0  0  0
 30 31  1  0  0  0
 31 32  1  0  0  0
 13 14  2  0  0  0
 13 18  1  0  0  0
 14 15  1  0  0  0
 14 20  1  0  0  0
 15 16  2  0  0  0
 16 17  1  0  0  0
 19 20  1  0  0  0
  3  4  1  0  0  0
  4 25  1  0  0  0
  4  5  2  0  0  0
  5  6  1  0  0  0
  5  8  1  0  0  0
  7  8  1  0  0  0
  8  9  2  0  0  0
 11 17  1  0  0  0
 17 18  2  0  0  0
 20 21  2  0  0  0
 20 22  2  0  0  0
 19 23  1  0  0  0
 19 24  1  0  0  0
  7 10  1  0  0  0
 11 12  1  0  0  0
M  END
> <minimizedAffinity>
-7.91265

$$$$
4EOR_4SP_A_301


 32 35  0  0  0  0  0  0  0  0999 V2000
   -5.6310  -25.1522   24.2333 C   0  0  0  0  0  0  0  0  0  0  0  0
   -2.8270  -28.1587   25.3930 C   0  0  0  0  0  0  0  0  0  0  0  0
   -5.9631  -25.2307   25.5101 N   0  0  0  0  0  0  0  0  0  0  0  0
   -5.3716  -26.0434   26.3467 C   0  0  0  0  0  0  0  0  0  0  0  0
   -4.3847  -26.8329   25.8897 C   0  0  0  0  0  0  0  0  0  0  0  0
   -3.5778  -27.7238   26.3730 N   0  0  0  0  0  0  0  0  0  0  0  0
   -3.1144  -27.5610   24.2529 N   0  0  0  0  0  0  0  0  0  0  0  0
   -4.0652  -26.7169   24.5064 C   0  0  0  0  0  0  0  0  0  0  0  0
   -4.6898  -25.8851   23.7104 N   0  0  0  0  0  0  0  0  0  0  0  0
   -2.6897  -27.7240   23.3798 H   0  0  0  0  0  0  0  0  0  0  0  0
   -6.2468  -24.3235   23.4133 N   0  0  0  0  0  0  0  0  0  0  0  0
   -7.2280  -24.4038   23.4074 H   0  0  0  0  0  0  0  0  0  0  0  0
   -4.3841  -22.6378   20.8368 C   0  0  0  0  0  0  0  0  0  0  0  0
   -4.8243  -21.3389   20.9891 C   0  0  0  0  0  0  0  0  0  0  0  0
   -5.7437  -21.0941   21.9652 C   0  0  0  0  0  0  0  0  0  0  0  0
   -6.1937  -22.1151   22.7673 C   0  0  0  0  0  0  0  0  0  0  0  0
   -5.7623  -23.4017   22.5971 C   0  0  0  0  0  0  0  0  0  0  0  0
   -4.8455  -23.6574   21.6282 C   0  0  0  0  0  0  0  0  0  0  0  0
   -3.4026  -19.3882   20.8300 N   0  0  0  0  0  0  0  0  0  0  0  0
   -4.2756  -20.2051   20.0550 S   0  0  0  0  0  0  0  0  0  0  0  0
   -5.2439  -19.3370   19.6168 O   0  0  0  0  0  0  0  0  0  0  0  0
   -3.5196  -20.6571   18.9993 O   0  0  0  0  0  0  0  0  0  0  0  0
   -3.9081  -19.0192   21.6354 H   0  0  0  0  0  0  0  0  0  0  0  0
   -3.0635  -18.6148   20.2579 H   0  0  0  0  0  0  0  0  0  0  0  0
   -5.7312  -26.0734   27.6210 O   0  0  0  0  0  0  0  0  0  0  0  0
   -5.1631  -25.1305   28.4510 C   0  0  0  0  0  0  0  0  0  0  0  0
   -3.7989  -25.5499   28.8863 C   0  0  0  0  0  0  0  0  0  0  0  0
   -3.8643  -26.5311   30.0103 C   0  0  0  0  0  0  0  0  0  0  0  0
   -2.4860  -27.0880   30.1279 C   0  0  0  0  0  0  0  0  0  0  0  0
   -1.4742  -26.0147   30.4667 C   0  0  0  0  0  0  0  0  0  0  0  0
   -1.5908  -24.7879   29.5773 C   0  0  0  0  0  0  0  0  0  0  0  0
   -3.0254  -24.3679   29.3873 C   0  0  0  0  0  0  0  0  0  0  0  0
  1  3  2  0  0  0
  1  9  1  0  0  0
  1 11  1  0  0  0
  2  6  2  0  0  0
  2  7  1  0  0  0
 26 27  1  0  0  0
 26 25  1  0  0  0
 27 28  1  0  0  0
 27 32  1  0  0  0
 28 29  1  0  0  0
 29 30  1  0  0  0
 30 31  1  0  0  0
 31 32  1  0  0  0
 13 14  2  0  0  0
 13 18  1  0  0  0
 14 15  1  0  0  0
 14 20  1  0  0  0
 15 16  2  0  0  0
 16 17  1  0  0  0
 19 20  1  0  0  0
  3  4  1  0  0  0
  4 25  1  0  0  0
  4  5  2  0  0  0
  5  6  1  0  0  0
  5  8  1  0  0  0
  7  8  1  0  0  0
  8  9  2  0  0  0
 11 17  1  0  0  0
 17 18  2  0  0  0
 20 21  2  0  0  0
 20 22  2  0  0  0
 19 23  1  0  0  0
 19 24  1  0  0  0
  7 10  1  0  0  0
 11 12  1  0  0  0
M  END
> <minimizedAffinity>
-7.72927

$$$$
