4EOR_4SP_A_301
  RCSB PDB12061712253D
Coordinates from PDB:4EOR:A:301 Model:1 without hydrogens
 28 31  0  0  0  0            999 V2000
   -7.9070  -23.4500   24.2370   C 0  0  0  0  0  0  0  0  0  0  0  0
  -10.7650  -20.9120   22.3300   C 0  0  0  0  0  0  0  0  0  0  0  0
   -5.2600  -21.3080   22.2460   C 0  0  0  0  0  0  0  0  0  0  0  0
   -4.3640  -21.1010   21.0710   C 0  0  0  0  0  0  0  0  0  0  0  0
   -4.8380  -21.8720   19.8830   C 0  0  0  0  0  0  0  0  0  0  0  0
   -4.0570  -21.3390   18.7300   C 0  0  0  0  0  0  0  0  0  0  0  0
   -2.5710  -21.5660   18.9060   C 0  0  0  0  0  0  0  0  0  0  0  0
   -2.0630  -21.1350   20.2720   C 0  0  0  0  0  0  0  0  0  0  0  0
   -2.9800  -21.5870   21.3790   C 0  0  0  0  0  0  0  0  0  0  0  0
   -4.3900  -25.9490   24.0670   C 0  0  0  0  0  0  0  0  0  0  0  0
   -4.0310  -26.6010   25.2290   C 0  0  0  0  0  0  0  0  0  0  0  0
   -4.8600  -26.4780   26.3040   C 0  0  0  0  0  0  0  0  0  0  0  0
   -6.0140  -25.7380   26.2100   C 0  0  0  0  0  0  0  0  0  0  0  0
   -1.7250  -26.7560   24.5150   N 0  0  0  0  0  0  0  0  0  0  0  0
   -7.0720  -22.7870   23.4560   N 0  0  0  0  0  0  0  0  0  0  0  0
   -7.4650  -21.8480   22.6350   C 0  0  0  0  0  0  0  0  0  0  0  0
   -6.5860  -21.2020   21.8840   O 0  0  0  0  0  0  0  0  0  0  0  0
   -8.7730  -21.5440   22.5820   C 0  0  0  0  0  0  0  0  0  0  0  0
   -9.5310  -20.7100   21.9430   N 0  0  0  0  0  0  0  0  0  0  0  0
  -10.8450  -21.8700   23.2330   N 0  0  0  0  0  0  0  0  0  0  0  0
   -9.6350  -22.2880   23.4380   C 0  0  0  0  0  0  0  0  0  0  0  0
   -9.1890  -23.2200   24.2430   N 0  0  0  0  0  0  0  0  0  0  0  0
   -7.4810  -24.3930   25.0540   N 0  0  0  0  0  0  0  0  0  0  0  0
   -6.3520  -25.0830   25.0580   C 0  0  0  0  0  0  0  0  0  0  0  0
   -5.5340  -25.1990   23.9800   C 0  0  0  0  0  0  0  0  0  0  0  0
   -2.7080  -27.4410   25.2860   S 0  0  0  0  0  0  0  0  0  0  0  0
   -2.8100  -28.6690   24.6820   O 0  0  0  0  0  0  0  0  0  0  0  0
   -2.1700  -27.5660   26.5450   O 0  0  0  0  0  0  0  0  0  0  0  0
  1 15  2  0  0  0  0
  1 22  1  0  0  0  0
  1 23  1  0  0  0  0
  2 19  2  0  0  0  0
  2 20  1  0  0  0  0
  3  4  1  0  0  0  0
  3 17  1  0  0  0  0
  4  5  1  0  0  0  0
  4  9  1  0  0  0  0
  5  6  1  0  0  0  0
  6  7  1  0  0  0  0
  7  8  1  0  0  0  0
  8  9  1  0  0  0  0
 10 11  2  0  0  0  0
 10 25  1  0  0  0  0
 11 12  1  0  0  0  0
 11 26  1  0  0  0  0
 12 13  2  0  0  0  0
 13 24  1  0  0  0  0
 14 26  1  0  0  0  0
 15 16  1  0  0  0  0
 16 17  1  0  0  0  0
 16 18  2  0  0  0  0
 18 19  1  0  0  0  0
 18 21  1  0  0  0  0
 20 21  1  0  0  0  0
 21 22  2  0  0  0  0
 23 24  1  0  0  0  0
 24 25  2  0  0  0  0
 26 27  2  0  0  0  0
 26 28  2  0  0  0  0
A    1
C2
A    2
C8
A    3
C10
A    4
C11
A    5
C12
A    6
C13
A    7
C14
A    8
C15
A    9
C16
A   10
C19
A   11
C20
A   12
C21
A   13
C22
A   14
N26
A   15
N1
A   16
C6
A   17
O6
A   18
C5
A   19
N7
A   20
N9
A   21
C4
A   22
N3
A   23
N2
A   24
C17
A   25
C18
A   26
S23
A   27
O24
A   28
O25
M  END
>  <InstanceId>
4EOR_4SP_A_301

>  <ChemCompId>
4SP

>  <PdbId>
4EOR

>  <ChainId>
A

>  <ResidueNumber>
301

>  <InsertionCode>


>  <Model>
1

>  <AltIds>


>  <MissingHeavyAtoms>
0

>  <ObservedFormula>
C18 N6 O3 S

>  <Name>
O6-CYCLOHEXYLMETHOXY-2-(4'-SULPHAMOYLANILINO) PURINE

>  <SystematicName>
4-[[6-(cyclohexylmethoxy)-9H-purin-2-yl]amino]benzenesulfonamide

>  <Synonyms>


>  <Type>
NON-POLYMER

>  <Formula>
C18 H22 N6 O3 S

>  <MolecularWeight>
402.471

>  <ModifiedDate>
2011-06-04

>  <Parent>


>  <OneLetterCode>


>  <SubcomponentList>


>  <AmbiguousFlag>
N

>  <InChI>
InChI=1S/C18H22N6O3S/c19-28(25,26)14-8-6-13(7-9-14)22-18-23-16-15(20-11-21-16)17(24-18)27-10-12-4-2-1-3-5-12/h6-9,11-12H,1-5,10H2,(H2,19,25,26)(H2,20,21,22,23,24)

>  <InChIKey>
OWXORKPNCHJYOF-UHFFFAOYSA-N

>  <SMILES>
c1cc(ccc1Nc2nc3c(c(n2)OCC4CCCCC4)nc[nH]3)S(=O)(=O)N

$$$$
