2BPY_3IN_B_902


 55 59  0  0  0  0  0  0  0  0999 V2000
    8.7596   25.2179    4.0964 C   0  0  0  0  0  0  0  0  0  0  0  0
   10.1047   25.6673    4.6893 C   0  0  0  0  0  0  0  0  0  0  0  0
    7.9543   26.8285    0.9721 O   0  0  0  0  0  0  0  0  0  0  0  0
   11.1762   25.2946    2.5149 C   0  0  0  0  0  0  0  0  0  0  0  0
    9.8091   24.9366    1.9293 C   0  0  0  0  0  0  0  0  0  0  0  0
    7.7272   26.3788    2.0959 C   0  0  0  0  0  0  0  0  0  0  0  0
    8.7087   25.5584    2.6834 N   0  0  0  0  0  0  0  0  0  0  0  0
   11.2158   24.9941    3.9702 N   0  0  0  0  0  0  0  0  0  0  0  0
    6.3306   27.7244    3.7194 N   0  0  0  0  0  0  0  0  0  0  0  0
    6.4334   26.7209    2.7899 C   0  0  0  0  0  0  0  0  0  0  0  0
    5.1871   27.8831    4.4391 C   0  0  0  0  0  0  0  0  0  0  0  0
    4.0851   27.0330    4.2175 C   0  0  0  0  0  0  0  0  0  0  0  0
    4.1799   26.0992    3.2654 N   0  0  0  0  0  0  0  0  0  0  0  0
    5.3015   25.9065    2.5742 C   0  0  0  0  0  0  0  0  0  0  0  0
    5.1046   29.0943    5.6674 Cl  0  0  0  0  0  0  0  0  0  0  0  0
    1.0992   28.4189    5.9239 C   0  0  0  0  0  0  0  0  0  0  0  0
    2.1157   26.7803    7.3795 C   0  0  0  0  0  0  0  0  0  0  0  0
    1.7712   27.7983    4.6571 C   0  0  0  0  0  0  0  0  0  0  0  0
    0.8211   27.3653    6.9524 N   0  0  0  0  0  0  0  0  0  0  0  0
    2.8220   26.0703    6.1782 C   0  0  0  0  0  0  0  0  0  0  0  0
    2.9465   26.9523    4.9927 N   0  0  0  0  0  0  0  0  0  0  0  0
    0.1119   27.8839    8.1445 C   0  0  0  0  0  0  0  0  0  0  0  0
   10.1155   25.3535    6.1528 C   0  0  0  0  0  0  0  0  0  0  0  0
   10.1047   24.1850    6.5500 O   0  0  0  0  0  0  0  0  0  0  0  0
   10.1106   26.4720    6.9396 N   0  0  0  0  0  0  0  0  0  0  0  0
   10.0959   27.3458    6.4862 H   0  0  0  0  0  0  0  0  0  0  0  0
    8.9110   25.7005    8.9121 C   0  0  0  0  0  0  0  0  0  0  0  0
   10.1256   26.4718    8.3960 C   0  0  0  0  0  0  0  0  0  0  0  0
   10.0523   27.9386    8.9049 C   0  0  0  0  0  0  0  0  0  0  0  0
   11.4175   25.9048    8.9566 C   0  0  0  0  0  0  0  0  0  0  0  0
   12.5639   25.4735    4.3156 C   0  0  0  0  0  0  0  0  0  0  0  0
   13.5489   24.4021    4.7671 C   0  0  0  0  0  0  0  0  0  0  0  0
   14.8170   24.9081    4.4652 O   0  0  0  0  0  0  0  0  0  0  0  0
   14.9788   25.7084    4.9889 H   0  0  0  0  0  0  0  0  0  0  0  0
   13.5836   23.9828    6.2221 C   0  0  0  0  0  0  0  0  0  0  0  0
   14.8355   23.1023    6.5484 C   0  0  0  0  0  0  0  0  0  0  0  0
   14.7380   21.7106    5.7956 C   0  0  0  0  0  0  0  0  0  0  0  0
   13.6917   21.0563    5.8051 O   0  0  0  0  0  0  0  0  0  0  0  0
   15.8733   21.3465    5.1977 N   0  0  0  0  0  0  0  0  0  0  0  0
   16.5470   22.0512    5.0611 H   0  0  0  0  0  0  0  0  0  0  0  0
   18.5040   20.5373    5.0760 O   0  0  0  0  0  0  0  0  0  0  0  0
   16.2255   19.9807    4.7152 C   0  0  0  0  0  0  0  0  0  0  0  0
   17.7097   18.3314    4.2729 C   0  0  0  0  0  0  0  0  0  0  0  0
   15.6511   19.2322    3.4396 C   0  0  0  0  0  0  0  0  0  0  0  0
   17.5846   19.4647    5.3103 C   0  0  0  0  0  0  0  0  0  0  0  0
   16.9890   18.6897    3.0613 C   0  0  0  0  0  0  0  0  0  0  0  0
   15.0759   20.1944    2.4351 C   0  0  0  0  0  0  0  0  0  0  0  0
   18.3835   21.2203    5.7541 H   0  0  0  0  0  0  0  0  0  0  0  0
   14.8361   22.8975    8.0750 C   0  0  0  0  0  0  0  0  0  0  0  0
   15.9508   22.0065    8.5389 C   0  0  0  0  0  0  0  0  0  0  0  0
   15.7210   20.8062    9.2295 C   0  0  0  0  0  0  0  0  0  0  0  0
   18.3534   21.6351    8.5916 C   0  0  0  0  0  0  0  0  0  0  0  0
   17.2678   22.4516    8.2516 C   0  0  0  0  0  0  0  0  0  0  0  0
   16.8099   19.9782    9.5592 C   0  0  0  0  0  0  0  0  0  0  0  0
   18.0882   20.3970    9.1782 C   0  0  0  0  0  0  0  0  0  0  0  0
  1  2  1  0  0  0
  1  7  1  0  0  0
  2 23  1  0  0  0
  2  8  1  0  0  0
 23 24  2  0  0  0
 23 25  1  0  0  0
 41 45  1  0  0  0
  3  6  2  0  0  0
  9 10  2  0  0  0
  9 11  1  0  0  0
 27 28  1  0  0  0
  4  5  1  0  0  0
  4  8  1  0  0  0
  5  7  1  0  0  0
 31 32  1  0  0  0
 31  8  1  0  0  0
 32 35  1  0  0  0
 32 33  1  0  0  0
 35 36  1  0  0  0
 36 49  1  0  0  0
 36 37  1  0  0  0
 49 50  1  0  0  0
 50 51  2  0  0  0
 50 53  1  0  0  0
 51 54  1  0  0  0
 52 53  2  0  0  0
 52 55  1  0  0  0
 37 38  2  0  0  0
 37 39  1  0  0  0
 42 44  1  0  0  0
 42 39  1  0  0  0
 42 45  1  0  0  0
 43 45  1  0  0  0
 43 46  1  0  0  0
 16 18  1  0  0  0
 16 19  1  0  0  0
 44 46  1  0  0  0
 44 47  1  0  0  0
  6 10  1  0  0  0
  6  7  1  0  0  0
 10 14  1  0  0  0
 11 12  2  0  0  0
 11 15  1  0  0  0
 12 13  1  0  0  0
 12 21  1  0  0  0
 17 19  1  0  0  0
 17 20  1  0  0  0
 25 28  1  0  0  0
 28 29  1  0  0  0
 28 30  1  0  0  0
 54 55  2  0  0  0
 13 14  2  0  0  0
 18 21  1  0  0  0
 19 22  1  0  0  0
 20 21  1  0  0  0
 41 48  1  0  0  0
 25 26  1  0  0  0
 33 34  1  0  0  0
 39 40  1  0  0  0
M  END
> <minimizedAffinity>
-11.77379

$$$$
2BPY_3IN_B_902


 55 59  0  0  0  0  0  0  0  0999 V2000
    7.3877   25.2906    4.0443 C   0  0  0  0  0  0  0  0  0  0  0  0
    8.8818   25.6214    4.1891 C   0  0  0  0  0  0  0  0  0  0  0  0
    5.9095   26.6013    1.0276 O   0  0  0  0  0  0  0  0  0  0  0  0
    9.2662   24.8427    1.8955 C   0  0  0  0  0  0  0  0  0  0  0  0
    7.7620   24.6056    1.7492 C   0  0  0  0  0  0  0  0  0  0  0  0
    5.9600   26.3278    2.2274 C   0  0  0  0  0  0  0  0  0  0  0  0
    6.9805   25.4593    2.6583 N   0  0  0  0  0  0  0  0  0  0  0  0
    9.6782   24.7199    3.3185 N   0  0  0  0  0  0  0  0  0  0  0  0
    5.2225   28.0133    3.9628 N   0  0  0  0  0  0  0  0  0  0  0  0
    4.9495   26.9255    3.1730 C   0  0  0  0  0  0  0  0  0  0  0  0
    4.3397   28.4100    4.9190 C   0  0  0  0  0  0  0  0  0  0  0  0
    3.1217   27.7219    5.0898 C   0  0  0  0  0  0  0  0  0  0  0  0
    2.8438   26.7020    4.2714 N   0  0  0  0  0  0  0  0  0  0  0  0
    3.7089   26.2778    3.3524 C   0  0  0  0  0  0  0  0  0  0  0  0
    4.7371   29.7260    5.9641 Cl  0  0  0  0  0  0  0  0  0  0  0  0
    0.2652   29.3376    6.8156 C   0  0  0  0  0  0  0  0  0  0  0  0
    1.9689   28.8495    8.4574 C   0  0  0  0  0  0  0  0  0  0  0  0
    0.8204   28.2589    5.8310 C   0  0  0  0  0  0  0  0  0  0  0  0
    0.5042   28.9361    8.2392 N   0  0  0  0  0  0  0  0  0  0  0  0
    2.5946   27.7339    7.5574 C   0  0  0  0  0  0  0  0  0  0  0  0
    2.2287   27.8874    6.1286 N   0  0  0  0  0  0  0  0  0  0  0  0
   -0.0721   29.8848    9.2195 C   0  0  0  0  0  0  0  0  0  0  0  0
    9.2673   25.4906    5.6295 C   0  0  0  0  0  0  0  0  0  0  0  0
    9.5675   24.3930    6.1074 O   0  0  0  0  0  0  0  0  0  0  0  0
    9.2162   26.6776    6.3067 N   0  0  0  0  0  0  0  0  0  0  0  0
    8.9362   27.4758    5.8029 H   0  0  0  0  0  0  0  0  0  0  0  0
   10.9815   26.3949    7.9587 C   0  0  0  0  0  0  0  0  0  0  0  0
    9.5437   26.8534    7.7148 C   0  0  0  0  0  0  0  0  0  0  0  0
    8.5797   25.9869    8.5726 C   0  0  0  0  0  0  0  0  0  0  0  0
    9.3353   28.2839    8.1784 C   0  0  0  0  0  0  0  0  0  0  0  0
   11.1095   25.0496    3.2219 C   0  0  0  0  0  0  0  0  0  0  0  0
   12.0699   23.9518    3.6629 C   0  0  0  0  0  0  0  0  0  0  0  0
   12.3222   24.1963    5.0163 O   0  0  0  0  0  0  0  0  0  0  0  0
   11.4995   24.0997    5.5211 H   0  0  0  0  0  0  0  0  0  0  0  0
   11.6486   22.5010    3.5546 C   0  0  0  0  0  0  0  0  0  0  0  0
   12.6709   21.5407    4.2488 C   0  0  0  0  0  0  0  0  0  0  0  0
   12.5066   21.6114    5.8240 C   0  0  0  0  0  0  0  0  0  0  0  0
   11.4020   21.4626    6.3538 O   0  0  0  0  0  0  0  0  0  0  0  0
   13.6478   21.8565    6.4692 N   0  0  0  0  0  0  0  0  0  0  0  0
   14.4808   21.7170    5.9632 H   0  0  0  0  0  0  0  0  0  0  0  0
   14.0948   24.5162    7.0321 O   0  0  0  0  0  0  0  0  0  0  0  0
   13.7903   22.3203    7.8788 C   0  0  0  0  0  0  0  0  0  0  0  0
   14.0565   23.9350    9.4410 C   0  0  0  0  0  0  0  0  0  0  0  0
   14.6509   21.6498    9.0308 C   0  0  0  0  0  0  0  0  0  0  0  0
   13.3780   23.8251    8.0613 C   0  0  0  0  0  0  0  0  0  0  0  0
   15.1374   22.9665    9.5379 C   0  0  0  0  0  0  0  0  0  0  0  0
   15.7387   20.7681    8.4788 C   0  0  0  0  0  0  0  0  0  0  0  0
   13.6267   24.4154    6.1885 H   0  0  0  0  0  0  0  0  0  0  0  0
   14.0723   22.0189    3.8249 C   0  0  0  0  0  0  0  0  0  0  0  0
   14.9739   20.8876    3.4263 C   0  0  0  0  0  0  0  0  0  0  0  0
   14.7871   20.1529    2.2449 C   0  0  0  0  0  0  0  0  0  0  0  0
   16.9541   19.5893    3.9797 C   0  0  0  0  0  0  0  0  0  0  0  0
   16.0318   20.5855    4.3232 C   0  0  0  0  0  0  0  0  0  0  0  0
   15.7209   19.1613    1.8916 C   0  0  0  0  0  0  0  0  0  0  0  0
   16.8064   18.9514    2.7473 C   0  0  0  0  0  0  0  0  0  0  0  0
  1  2  1  0  0  0
  1  7  1  0  0  0
  2 23  1  0  0  0
  2  8  1  0  0  0
 23 24  2  0  0  0
 23 25  1  0  0  0
 41 45  1  0  0  0
  3  6  2  0  0  0
  9 10  2  0  0  0
  9 11  1  0  0  0
 27 28  1  0  0  0
  4  5  1  0  0  0
  4  8  1  0  0  0
  5  7  1  0  0  0
 31 32  1  0  0  0
 31  8  1  0  0  0
 32 35  1  0  0  0
 32 33  1  0  0  0
 35 36  1  0  0  0
 36 49  1  0  0  0
 36 37  1  0  0  0
 49 50  1  0  0  0
 50 51  2  0  0  0
 50 53  1  0  0  0
 51 54  1  0  0  0
 52 53  2  0  0  0
 52 55  1  0  0  0
 37 38  2  0  0  0
 37 39  1  0  0  0
 42 44  1  0  0  0
 42 39  1  0  0  0
 42 45  1  0  0  0
 43 45  1  0  0  0
 43 46  1  0  0  0
 16 18  1  0  0  0
 16 19  1  0  0  0
 44 46  1  0  0  0
 44 47  1  0  0  0
  6 10  1  0  0  0
  6  7  1  0  0  0
 10 14  1  0  0  0
 11 12  2  0  0  0
 11 15  1  0  0  0
 12 13  1  0  0  0
 12 21  1  0  0  0
 17 19  1  0  0  0
 17 20  1  0  0  0
 25 28  1  0  0  0
 28 29  1  0  0  0
 28 30  1  0  0  0
 54 55  2  0  0  0
 13 14  2  0  0  0
 18 21  1  0  0  0
 19 22  1  0  0  0
 20 21  1  0  0  0
 41 48  1  0  0  0
 25 26  1  0  0  0
 33 34  1  0  0  0
 39 40  1  0  0  0
M  END
> <minimizedAffinity>
-10.74502

$$$$
2BPY_3IN_B_902


 55 59  0  0  0  0  0  0  0  0999 V2000
    8.3781   25.5954    4.5243 C   0  0  0  0  0  0  0  0  0  0  0  0
    9.8935   25.7375    4.7390 C   0  0  0  0  0  0  0  0  0  0  0  0
    7.1490   27.4381    1.6786 O   0  0  0  0  0  0  0  0  0  0  0  0
   10.2672   25.2219    2.3705 C   0  0  0  0  0  0  0  0  0  0  0  0
    8.7519   25.1736    2.1665 C   0  0  0  0  0  0  0  0  0  0  0  0
    7.1305   27.0089    2.8329 C   0  0  0  0  0  0  0  0  0  0  0  0
    8.0371   25.9847    3.1651 N   0  0  0  0  0  0  0  0  0  0  0  0
   10.6168   24.8727    3.7725 N   0  0  0  0  0  0  0  0  0  0  0  0
    4.8145   27.6960    3.5820 N   0  0  0  0  0  0  0  0  0  0  0  0
    6.1594   27.5885    3.8298 C   0  0  0  0  0  0  0  0  0  0  0  0
    4.0078   28.3778    4.4395 C   0  0  0  0  0  0  0  0  0  0  0  0
    4.5427   28.9587    5.6069 C   0  0  0  0  0  0  0  0  0  0  0  0
    5.8439   28.7925    5.8648 N   0  0  0  0  0  0  0  0  0  0  0  0
    6.6557   28.1579    5.0215 C   0  0  0  0  0  0  0  0  0  0  0  0
    2.3334   28.5800    4.0686 Cl  0  0  0  0  0  0  0  0  0  0  0  0
    1.8254   29.9675    7.9194 C   0  0  0  0  0  0  0  0  0  0  0  0
    2.3825   31.8617    6.5273 C   0  0  0  0  0  0  0  0  0  0  0  0
    3.2157   29.2993    7.6701 C   0  0  0  0  0  0  0  0  0  0  0  0
    1.9357   31.4613    7.8840 N   0  0  0  0  0  0  0  0  0  0  0  0
    3.8075   31.2916    6.2263 C   0  0  0  0  0  0  0  0  0  0  0  0
    3.8930   29.8294    6.4576 N   0  0  0  0  0  0  0  0  0  0  0  0
    0.6614   32.1498    8.1926 C   0  0  0  0  0  0  0  0  0  0  0  0
   10.2152   25.3809    6.1567 C   0  0  0  0  0  0  0  0  0  0  0  0
   10.5385   24.2297    6.4623 O   0  0  0  0  0  0  0  0  0  0  0  0
   10.0817   26.4357    7.0168 N   0  0  0  0  0  0  0  0  0  0  0  0
    9.7925   27.2969    6.6374 H   0  0  0  0  0  0  0  0  0  0  0  0
    9.2334   25.5677    9.1268 C   0  0  0  0  0  0  0  0  0  0  0  0
   10.3341   26.3848    8.4503 C   0  0  0  0  0  0  0  0  0  0  0  0
   10.3195   27.8307    9.0203 C   0  0  0  0  0  0  0  0  0  0  0  0
   11.7097   25.8286    8.7715 C   0  0  0  0  0  0  0  0  0  0  0  0
   12.0775   25.0515    3.7468 C   0  0  0  0  0  0  0  0  0  0  0  0
   12.8994   23.8102    4.0719 C   0  0  0  0  0  0  0  0  0  0  0  0
   12.7009   22.9376    2.9976 O   0  0  0  0  0  0  0  0  0  0  0  0
   13.0590   23.3345    2.1882 H   0  0  0  0  0  0  0  0  0  0  0  0
   14.3972   23.9328    4.2609 C   0  0  0  0  0  0  0  0  0  0  0  0
   14.9251   22.9835    5.3874 C   0  0  0  0  0  0  0  0  0  0  0  0
   14.6819   21.4692    4.9866 C   0  0  0  0  0  0  0  0  0  0  0  0
   13.5853   20.9332    5.1683 O   0  0  0  0  0  0  0  0  0  0  0  0
   15.7589   20.8735    4.4724 N   0  0  0  0  0  0  0  0  0  0  0  0
   16.4840   21.4625    4.1617 H   0  0  0  0  0  0  0  0  0  0  0  0
   18.3029   19.8181    4.5381 O   0  0  0  0  0  0  0  0  0  0  0  0
   15.9760   19.4066    4.3203 C   0  0  0  0  0  0  0  0  0  0  0  0
   17.2956   17.5695    4.2715 C   0  0  0  0  0  0  0  0  0  0  0  0
   15.3074   18.4396    3.2548 C   0  0  0  0  0  0  0  0  0  0  0  0
   17.2967   18.9188    5.0169 C   0  0  0  0  0  0  0  0  0  0  0  0
   16.5822   17.7028    3.0110 C   0  0  0  0  0  0  0  0  0  0  0  0
   14.7978   19.1921    2.0550 C   0  0  0  0  0  0  0  0  0  0  0  0
   18.2599   20.6478    5.0388 H   0  0  0  0  0  0  0  0  0  0  0  0
   14.1386   23.3431    6.6620 C   0  0  0  0  0  0  0  0  0  0  0  0
   14.6832   22.6699    7.8875 C   0  0  0  0  0  0  0  0  0  0  0  0
   13.9346   22.5258    9.0661 C   0  0  0  0  0  0  0  0  0  0  0  0
   16.5638   21.4890    8.8784 C   0  0  0  0  0  0  0  0  0  0  0  0
   16.0165   22.1912    7.7975 C   0  0  0  0  0  0  0  0  0  0  0  0
   14.4780   21.8084   10.1478 C   0  0  0  0  0  0  0  0  0  0  0  0
   15.7573   21.2656    9.9951 C   0  0  0  0  0  0  0  0  0  0  0  0
  1  2  1  0  0  0
  1  7  1  0  0  0
  2 23  1  0  0  0
  2  8  1  0  0  0
 23 24  2  0  0  0
 23 25  1  0  0  0
 41 45  1  0  0  0
  3  6  2  0  0  0
  9 10  2  0  0  0
  9 11  1  0  0  0
 27 28  1  0  0  0
  4  5  1  0  0  0
  4  8  1  0  0  0
  5  7  1  0  0  0
 31 32  1  0  0  0
 31  8  1  0  0  0
 32 35  1  0  0  0
 32 33  1  0  0  0
 35 36  1  0  0  0
 36 49  1  0  0  0
 36 37  1  0  0  0
 49 50  1  0  0  0
 50 51  2  0  0  0
 50 53  1  0  0  0
 51 54  1  0  0  0
 52 53  2  0  0  0
 52 55  1  0  0  0
 37 38  2  0  0  0
 37 39  1  0  0  0
 42 44  1  0  0  0
 42 39  1  0  0  0
 42 45  1  0  0  0
 43 45  1  0  0  0
 43 46  1  0  0  0
 16 18  1  0  0  0
 16 19  1  0  0  0
 44 46  1  0  0  0
 44 47  1  0  0  0
  6 10  1  0  0  0
  6  7  1  0  0  0
 10 14  1  0  0  0
 11 12  2  0  0  0
 11 15  1  0  0  0
 12 13  1  0  0  0
 12 21  1  0  0  0
 17 19  1  0  0  0
 17 20  1  0  0  0
 25 28  1  0  0  0
 28 29  1  0  0  0
 28 30  1  0  0  0
 54 55  2  0  0  0
 13 14  2  0  0  0
 18 21  1  0  0  0
 19 22  1  0  0  0
 20 21  1  0  0  0
 41 48  1  0  0  0
 25 26  1  0  0  0
 33 34  1  0  0  0
 39 40  1  0  0  0
M  END
> <minimizedAffinity>
-10.49669

$$$$
2BPY_3IN_B_902


 55 59  0  0  0  0  0  0  0  0999 V2000
    8.9755   25.0849    4.0889 C   0  0  0  0  0  0  0  0  0  0  0  0
   10.2175   25.6396    4.8048 C   0  0  0  0  0  0  0  0  0  0  0  0
    8.5576   26.3552    0.7400 O   0  0  0  0  0  0  0  0  0  0  0  0
   11.5798   25.0995    2.8382 C   0  0  0  0  0  0  0  0  0  0  0  0
   10.3128   24.6356    2.1174 C   0  0  0  0  0  0  0  0  0  0  0  0
    8.1928   26.0078    1.8638 C   0  0  0  0  0  0  0  0  0  0  0  0
    9.1063   25.2854    2.6543 N   0  0  0  0  0  0  0  0  0  0  0  0
   11.4312   24.9424    4.3089 N   0  0  0  0  0  0  0  0  0  0  0  0
    6.5838   27.2523    3.3669 N   0  0  0  0  0  0  0  0  0  0  0  0
    6.8096   26.3664    2.3442 C   0  0  0  0  0  0  0  0  0  0  0  0
    5.3323   27.4139    3.8753 C   0  0  0  0  0  0  0  0  0  0  0  0
    4.2487   26.6910    3.3373 C   0  0  0  0  0  0  0  0  0  0  0  0
    4.4751   25.8777    2.3007 N   0  0  0  0  0  0  0  0  0  0  0  0
    5.6977   25.6806    1.8113 C   0  0  0  0  0  0  0  0  0  0  0  0
    5.0796   28.4664    5.2209 Cl  0  0  0  0  0  0  0  0  0  0  0  0
    1.1504   24.9121    4.3293 C   0  0  0  0  0  0  0  0  0  0  0  0
    0.5316   27.0419    3.3714 C   0  0  0  0  0  0  0  0  0  0  0  0
    2.5923   25.4134    4.6628 C   0  0  0  0  0  0  0  0  0  0  0  0
    0.1634   26.0373    4.3989 N   0  0  0  0  0  0  0  0  0  0  0  0
    1.9398   27.6505    3.6763 C   0  0  0  0  0  0  0  0  0  0  0  0
    2.9776   26.6088    3.8677 N   0  0  0  0  0  0  0  0  0  0  0  0
   -1.2341   25.6050    4.1686 C   0  0  0  0  0  0  0  0  0  0  0  0
   10.0396   25.4691    6.2811 C   0  0  0  0  0  0  0  0  0  0  0  0
    9.9762   24.3445    6.7855 O   0  0  0  0  0  0  0  0  0  0  0  0
    9.9351   26.6584    6.9481 N   0  0  0  0  0  0  0  0  0  0  0  0
    9.9799   27.4839    6.4135 H   0  0  0  0  0  0  0  0  0  0  0  0
    9.5191   28.2704    8.7239 C   0  0  0  0  0  0  0  0  0  0  0  0
    9.7626   26.7993    8.3873 C   0  0  0  0  0  0  0  0  0  0  0  0
   11.0562   26.3197    9.1033 C   0  0  0  0  0  0  0  0  0  0  0  0
    8.6459   25.9199    8.9205 C   0  0  0  0  0  0  0  0  0  0  0  0
   12.7087   25.5032    4.7780 C   0  0  0  0  0  0  0  0  0  0  0  0
   13.5334   24.5969    5.6838 C   0  0  0  0  0  0  0  0  0  0  0  0
   13.4137   25.1403    6.9665 O   0  0  0  0  0  0  0  0  0  0  0  0
   12.4881   25.0931    7.2526 H   0  0  0  0  0  0  0  0  0  0  0  0
   13.1771   23.1293    5.7987 C   0  0  0  0  0  0  0  0  0  0  0  0
   14.4326   22.2430    6.0937 C   0  0  0  0  0  0  0  0  0  0  0  0
   14.4473   20.9781    5.1382 C   0  0  0  0  0  0  0  0  0  0  0  0
   13.4001   20.3999    4.8352 O   0  0  0  0  0  0  0  0  0  0  0  0
   15.6699   20.6252    4.7386 N   0  0  0  0  0  0  0  0  0  0  0  0
   16.3822   21.2957    4.8497 H   0  0  0  0  0  0  0  0  0  0  0  0
   18.3117   19.8442    4.7044 O   0  0  0  0  0  0  0  0  0  0  0  0
   16.0673   19.3187    4.1407 C   0  0  0  0  0  0  0  0  0  0  0  0
   17.5946   17.7308    3.6267 C   0  0  0  0  0  0  0  0  0  0  0  0
   15.5840   18.7051    2.7597 C   0  0  0  0  0  0  0  0  0  0  0  0
   17.3910   18.7492    4.7659 C   0  0  0  0  0  0  0  0  0  0  0  0
   16.9492   18.2106    2.4147 C   0  0  0  0  0  0  0  0  0  0  0  0
   15.0639   19.7644    1.8255 C   0  0  0  0  0  0  0  0  0  0  0  0
   18.1406   20.4522    5.4406 H   0  0  0  0  0  0  0  0  0  0  0  0
   14.3222   21.8111    7.5681 C   0  0  0  0  0  0  0  0  0  0  0  0
   15.6531   21.4737    8.1735 C   0  0  0  0  0  0  0  0  0  0  0  0
   15.8486   20.3478    8.9888 C   0  0  0  0  0  0  0  0  0  0  0  0
   18.0011   22.0780    8.3594 C   0  0  0  0  0  0  0  0  0  0  0  0
   16.7158   22.3700    7.8867 C   0  0  0  0  0  0  0  0  0  0  0  0
   17.1422   20.0456    9.4527 C   0  0  0  0  0  0  0  0  0  0  0  0
   18.1869   20.8942    9.0745 C   0  0  0  0  0  0  0  0  0  0  0  0
  1  2  1  0  0  0
  1  7  1  0  0  0
  2 23  1  0  0  0
  2  8  1  0  0  0
 23 24  2  0  0  0
 23 25  1  0  0  0
 41 45  1  0  0  0
  3  6  2  0  0  0
  9 10  2  0  0  0
  9 11  1  0  0  0
 27 28  1  0  0  0
  4  5  1  0  0  0
  4  8  1  0  0  0
  5  7  1  0  0  0
 31 32  1  0  0  0
 31  8  1  0  0  0
 32 35  1  0  0  0
 32 33  1  0  0  0
 35 36  1  0  0  0
 36 49  1  0  0  0
 36 37  1  0  0  0
 49 50  1  0  0  0
 50 51  2  0  0  0
 50 53  1  0  0  0
 51 54  1  0  0  0
 52 53  2  0  0  0
 52 55  1  0  0  0
 37 38  2  0  0  0
 37 39  1  0  0  0
 42 44  1  0  0  0
 42 39  1  0  0  0
 42 45  1  0  0  0
 43 45  1  0  0  0
 43 46  1  0  0  0
 16 18  1  0  0  0
 16 19  1  0  0  0
 44 46  1  0  0  0
 44 47  1  0  0  0
  6 10  1  0  0  0
  6  7  1  0  0  0
 10 14  1  0  0  0
 11 12  2  0  0  0
 11 15  1  0  0  0
 12 13  1  0  0  0
 12 21  1  0  0  0
 17 19  1  0  0  0
 17 20  1  0  0  0
 25 28  1  0  0  0
 28 29  1  0  0  0
 28 30  1  0  0  0
 54 55  2  0  0  0
 13 14  2  0  0  0
 18 21  1  0  0  0
 19 22  1  0  0  0
 20 21  1  0  0  0
 41 48  1  0  0  0
 25 26  1  0  0  0
 33 34  1  0  0  0
 39 40  1  0  0  0
M  END
> <minimizedAffinity>
-10.46419

$$$$
2BPY_3IN_B_902


 55 59  0  0  0  0  0  0  0  0999 V2000
    8.5698   25.0532    4.3859 C   0  0  0  0  0  0  0  0  0  0  0  0
    9.7418   25.9238    4.8668 C   0  0  0  0  0  0  0  0  0  0  0  0
    9.0804   23.6352    1.1098 O   0  0  0  0  0  0  0  0  0  0  0  0
   11.3065   24.1363    4.2572 C   0  0  0  0  0  0  0  0  0  0  0  0
   10.1310   23.3279    3.7054 C   0  0  0  0  0  0  0  0  0  0  0  0
    8.4421   24.1782    2.0124 C   0  0  0  0  0  0  0  0  0  0  0  0
    9.0118   24.1932    3.2994 N   0  0  0  0  0  0  0  0  0  0  0  0
   10.8499   25.0530    5.3347 N   0  0  0  0  0  0  0  0  0  0  0  0
    5.9892   24.5784    2.4814 N   0  0  0  0  0  0  0  0  0  0  0  0
    7.1020   24.7992    1.7103 C   0  0  0  0  0  0  0  0  0  0  0  0
    4.7693   25.0221    2.0743 C   0  0  0  0  0  0  0  0  0  0  0  0
    4.6409   25.7377    0.8669 C   0  0  0  0  0  0  0  0  0  0  0  0
    5.7440   25.9975    0.1578 N   0  0  0  0  0  0  0  0  0  0  0  0
    6.9413   25.5430    0.5222 C   0  0  0  0  0  0  0  0  0  0  0  0
    3.3650   24.6594    3.0117 Cl  0  0  0  0  0  0  0  0  0  0  0  0
    2.3940   26.0974   -2.0606 C   0  0  0  0  0  0  0  0  0  0  0  0
    2.1112   28.0324   -0.6419 C   0  0  0  0  0  0  0  0  0  0  0  0
    2.9591   25.2413   -0.8820 C   0  0  0  0  0  0  0  0  0  0  0  0
    1.4057   27.1074   -1.5625 N   0  0  0  0  0  0  0  0  0  0  0  0
    2.6464   27.2617    0.6094 C   0  0  0  0  0  0  0  0  0  0  0  0
    3.4594   26.0777    0.2405 N   0  0  0  0  0  0  0  0  0  0  0  0
    0.7775   27.8960   -2.6471 C   0  0  0  0  0  0  0  0  0  0  0  0
    9.2531   26.8354    5.9487 C   0  0  0  0  0  0  0  0  0  0  0  0
    9.1014   28.0422    5.7393 O   0  0  0  0  0  0  0  0  0  0  0  0
    9.0385   26.1902    7.1353 N   0  0  0  0  0  0  0  0  0  0  0  0
    9.2237   25.2238    7.1663 H   0  0  0  0  0  0  0  0  0  0  0  0
    9.4119   28.0520    8.6582 C   0  0  0  0  0  0  0  0  0  0  0  0
    8.5573   26.8209    8.3566 C   0  0  0  0  0  0  0  0  0  0  0  0
    8.6831   25.8124    9.5327 C   0  0  0  0  0  0  0  0  0  0  0  0
    7.0842   27.1789    8.2760 C   0  0  0  0  0  0  0  0  0  0  0  0
   12.1042   25.7551    5.6514 C   0  0  0  0  0  0  0  0  0  0  0  0
   12.6930   25.4649    7.0266 C   0  0  0  0  0  0  0  0  0  0  0  0
   12.0450   26.3401    7.9036 O   0  0  0  0  0  0  0  0  0  0  0  0
   11.0983   26.1303    7.9290 H   0  0  0  0  0  0  0  0  0  0  0  0
   12.5600   24.0777    7.6199 C   0  0  0  0  0  0  0  0  0  0  0  0
   13.8551   23.2245    7.4109 C   0  0  0  0  0  0  0  0  0  0  0  0
   13.5833   22.0624    6.3674 C   0  0  0  0  0  0  0  0  0  0  0  0
   12.4980   21.4757    6.3399 O   0  0  0  0  0  0  0  0  0  0  0  0
   14.6252   21.8002    5.5771 N   0  0  0  0  0  0  0  0  0  0  0  0
   15.3321   22.4842    5.5356 H   0  0  0  0  0  0  0  0  0  0  0  0
   17.1382   20.7115    5.2767 O   0  0  0  0  0  0  0  0  0  0  0  0
   14.8281   20.5765    4.7503 C   0  0  0  0  0  0  0  0  0  0  0  0
   16.1159   18.9217    3.9006 C   0  0  0  0  0  0  0  0  0  0  0  0
   14.2271   20.2748    3.3132 C   0  0  0  0  0  0  0  0  0  0  0  0
   16.0828   19.7465    5.2025 C   0  0  0  0  0  0  0  0  0  0  0  0
   15.5040   19.6797    2.8205 C   0  0  0  0  0  0  0  0  0  0  0  0
   13.8243   21.5357    2.5967 C   0  0  0  0  0  0  0  0  0  0  0  0
   17.0710   21.2006    6.1116 H   0  0  0  0  0  0  0  0  0  0  0  0
   14.2199   22.6442    8.7903 C   0  0  0  0  0  0  0  0  0  0  0  0
   15.5762   22.0025    8.8079 C   0  0  0  0  0  0  0  0  0  0  0  0
   16.7254   22.6516    8.3297 C   0  0  0  0  0  0  0  0  0  0  0  0
   16.8812   20.0508    9.4409 C   0  0  0  0  0  0  0  0  0  0  0  0
   15.6369   20.6831    9.3278 C   0  0  0  0  0  0  0  0  0  0  0  0
   17.9780   22.0231    8.4556 C   0  0  0  0  0  0  0  0  0  0  0  0
   18.0191   20.7629    9.0595 C   0  0  0  0  0  0  0  0  0  0  0  0
  1  2  1  0  0  0
  1  7  1  0  0  0
  2 23  1  0  0  0
  2  8  1  0  0  0
 23 24  2  0  0  0
 23 25  1  0  0  0
 41 45  1  0  0  0
  3  6  2  0  0  0
  9 10  2  0  0  0
  9 11  1  0  0  0
 27 28  1  0  0  0
  4  5  1  0  0  0
  4  8  1  0  0  0
  5  7  1  0  0  0
 31 32  1  0  0  0
 31  8  1  0  0  0
 32 35  1  0  0  0
 32 33  1  0  0  0
 35 36  1  0  0  0
 36 49  1  0  0  0
 36 37  1  0  0  0
 49 50  1  0  0  0
 50 51  2  0  0  0
 50 53  1  0  0  0
 51 54  1  0  0  0
 52 53  2  0  0  0
 52 55  1  0  0  0
 37 38  2  0  0  0
 37 39  1  0  0  0
 42 44  1  0  0  0
 42 39  1  0  0  0
 42 45  1  0  0  0
 43 45  1  0  0  0
 43 46  1  0  0  0
 16 18  1  0  0  0
 16 19  1  0  0  0
 44 46  1  0  0  0
 44 47  1  0  0  0
  6 10  1  0  0  0
  6  7  1  0  0  0
 10 14  1  0  0  0
 11 12  2  0  0  0
 11 15  1  0  0  0
 12 13  1  0  0  0
 12 21  1  0  0  0
 17 19  1  0  0  0
 17 20  1  0  0  0
 25 28  1  0  0  0
 28 29  1  0  0  0
 28 30  1  0  0  0
 54 55  2  0  0  0
 13 14  2  0  0  0
 18 21  1  0  0  0
 19 22  1  0  0  0
 20 21  1  0  0  0
 41 48  1  0  0  0
 25 26  1  0  0  0
 33 34  1  0  0  0
 39 40  1  0  0  0
M  END
> <minimizedAffinity>
-10.37793

$$$$
2BPY_3IN_B_902


 55 59  0  0  0  0  0  0  0  0999 V2000
   11.3294   25.2822    6.4743 C   0  0  0  0  0  0  0  0  0  0  0  0
   11.6012   23.8260    6.8846 C   0  0  0  0  0  0  0  0  0  0  0  0
   10.6072   27.4518    9.2626 O   0  0  0  0  0  0  0  0  0  0  0  0
   13.1759   24.6117    8.5927 C   0  0  0  0  0  0  0  0  0  0  0  0
   12.8205   26.0530    8.2234 C   0  0  0  0  0  0  0  0  0  0  0  0
   10.4664   26.9965    8.1270 C   0  0  0  0  0  0  0  0  0  0  0  0
   11.4774   26.1527    7.6300 N   0  0  0  0  0  0  0  0  0  0  0  0
   12.9785   23.7102    7.4274 N   0  0  0  0  0  0  0  0  0  0  0  0
    7.9639   27.1788    7.8083 N   0  0  0  0  0  0  0  0  0  0  0  0
    9.2375   27.3491    7.3280 C   0  0  0  0  0  0  0  0  0  0  0  0
    6.8901   27.3509    6.9909 C   0  0  0  0  0  0  0  0  0  0  0  0
    7.0750   27.7328    5.6470 C   0  0  0  0  0  0  0  0  0  0  0  0
    8.3193   27.9543    5.2112 N   0  0  0  0  0  0  0  0  0  0  0  0
    9.3844   27.7586    5.9858 C   0  0  0  0  0  0  0  0  0  0  0  0
    5.2979   27.0465    7.5864 Cl  0  0  0  0  0  0  0  0  0  0  0  0
    3.5859   27.8031    4.3941 C   0  0  0  0  0  0  0  0  0  0  0  0
    4.8700   26.3170    2.9872 C   0  0  0  0  0  0  0  0  0  0  0  0
    4.8693   28.5532    4.8755 C   0  0  0  0  0  0  0  0  0  0  0  0
    3.7558   27.2963    2.9943 N   0  0  0  0  0  0  0  0  0  0  0  0
    6.2139   27.0092    3.3883 C   0  0  0  0  0  0  0  0  0  0  0  0
    6.1069   27.7574    4.6641 N   0  0  0  0  0  0  0  0  0  0  0  0
    2.5399   26.6443    2.4562 C   0  0  0  0  0  0  0  0  0  0  0  0
   11.3942   22.9428    5.6939 C   0  0  0  0  0  0  0  0  0  0  0  0
   11.2070   21.7305    5.8297 O   0  0  0  0  0  0  0  0  0  0  0  0
   11.4652   23.6194    4.5075 N   0  0  0  0  0  0  0  0  0  0  0  0
   11.6442   24.5867    4.5468 H   0  0  0  0  0  0  0  0  0  0  0  0
   12.4127   22.0035    2.9530 C   0  0  0  0  0  0  0  0  0  0  0  0
   11.2967   23.0208    3.1906 C   0  0  0  0  0  0  0  0  0  0  0  0
   11.3845   24.1355    2.1109 C   0  0  0  0  0  0  0  0  0  0  0  0
    9.9278   22.3873    3.0189 C   0  0  0  0  0  0  0  0  0  0  0  0
   13.3054   22.4064    8.0272 C   0  0  0  0  0  0  0  0  0  0  0  0
   14.5036   21.6846    7.4228 C   0  0  0  0  0  0  0  0  0  0  0  0
   14.2281   21.5812    6.0558 O   0  0  0  0  0  0  0  0  0  0  0  0
   14.1816   22.4687    5.6673 H   0  0  0  0  0  0  0  0  0  0  0  0
   15.8841   22.2962    7.5426 C   0  0  0  0  0  0  0  0  0  0  0  0
   16.9302   21.2761    8.1030 C   0  0  0  0  0  0  0  0  0  0  0  0
   17.6735   20.5424    6.9104 C   0  0  0  0  0  0  0  0  0  0  0  0
   18.8960   20.6375    6.7708 O   0  0  0  0  0  0  0  0  0  0  0  0
   16.8536   19.8606    6.1092 N   0  0  0  0  0  0  0  0  0  0  0  0
   15.9536   19.6675    6.4584 H   0  0  0  0  0  0  0  0  0  0  0  0
   14.8423   19.5097    4.2594 O   0  0  0  0  0  0  0  0  0  0  0  0
   17.1617   19.3614    4.7388 C   0  0  0  0  0  0  0  0  0  0  0  0
   16.5688   18.8027    2.6281 C   0  0  0  0  0  0  0  0  0  0  0  0
   18.1079   18.1501    4.3453 C   0  0  0  0  0  0  0  0  0  0  0  0
   16.1081   19.8363    3.6749 C   0  0  0  0  0  0  0  0  0  0  0  0
   17.1681   17.6578    3.2957 C   0  0  0  0  0  0  0  0  0  0  0  0
   18.3004   17.1925    5.4906 C   0  0  0  0  0  0  0  0  0  0  0  0
   14.6007   20.1893    4.9080 H   0  0  0  0  0  0  0  0  0  0  0  0
   16.1383   20.2664    8.9551 C   0  0  0  0  0  0  0  0  0  0  0  0
   17.0113   19.5014    9.9060 C   0  0  0  0  0  0  0  0  0  0  0  0
   18.1591   20.0577   10.4921 C   0  0  0  0  0  0  0  0  0  0  0  0
   17.3468   17.4153   11.1097 C   0  0  0  0  0  0  0  0  0  0  0  0
   16.6194   18.1641   10.1765 C   0  0  0  0  0  0  0  0  0  0  0  0
   18.8828   19.3115   11.4405 C   0  0  0  0  0  0  0  0  0  0  0  0
   18.4176   18.0320   11.7583 C   0  0  0  0  0  0  0  0  0  0  0  0
  1  2  1  0  0  0
  1  7  1  0  0  0
  2 23  1  0  0  0
  2  8  1  0  0  0
 23 24  2  0  0  0
 23 25  1  0  0  0
 41 45  1  0  0  0
  3  6  2  0  0  0
  9 10  2  0  0  0
  9 11  1  0  0  0
 27 28  1  0  0  0
  4  5  1  0  0  0
  4  8  1  0  0  0
  5  7  1  0  0  0
 31 32  1  0  0  0
 31  8  1  0  0  0
 32 35  1  0  0  0
 32 33  1  0  0  0
 35 36  1  0  0  0
 36 49  1  0  0  0
 36 37  1  0  0  0
 49 50  1  0  0  0
 50 51  2  0  0  0
 50 53  1  0  0  0
 51 54  1  0  0  0
 52 53  2  0  0  0
 52 55  1  0  0  0
 37 38  2  0  0  0
 37 39  1  0  0  0
 42 44  1  0  0  0
 42 39  1  0  0  0
 42 45  1  0  0  0
 43 45  1  0  0  0
 43 46  1  0  0  0
 16 18  1  0  0  0
 16 19  1  0  0  0
 44 46  1  0  0  0
 44 47  1  0  0  0
  6 10  1  0  0  0
  6  7  1  0  0  0
 10 14  1  0  0  0
 11 12  2  0  0  0
 11 15  1  0  0  0
 12 13  1  0  0  0
 12 21  1  0  0  0
 17 19  1  0  0  0
 17 20  1  0  0  0
 25 28  1  0  0  0
 28 29  1  0  0  0
 28 30  1  0  0  0
 54 55  2  0  0  0
 13 14  2  0  0  0
 18 21  1  0  0  0
 19 22  1  0  0  0
 20 21  1  0  0  0
 41 48  1  0  0  0
 25 26  1  0  0  0
 33 34  1  0  0  0
 39 40  1  0  0  0
M  END
> <minimizedAffinity>
-10.16800

$$$$
2BPY_3IN_B_902


 55 59  0  0  0  0  0  0  0  0999 V2000
    7.1258   27.1900    4.0400 C   0  0  0  0  0  0  0  0  0  0  0  0
    7.3302   25.9050    3.2216 C   0  0  0  0  0  0  0  0  0  0  0  0
    7.8943   26.8028    7.5420 O   0  0  0  0  0  0  0  0  0  0  0  0
    9.5507   25.6304    4.2261 C   0  0  0  0  0  0  0  0  0  0  0  0
    9.2848   26.8625    5.0929 C   0  0  0  0  0  0  0  0  0  0  0  0
    7.2480   27.1956    6.5699 C   0  0  0  0  0  0  0  0  0  0  0  0
    7.8453   27.0881    5.2999 N   0  0  0  0  0  0  0  0  0  0  0  0
    8.7782   25.7071    2.9584 N   0  0  0  0  0  0  0  0  0  0  0  0
    4.8258   27.0235    7.2774 N   0  0  0  0  0  0  0  0  0  0  0  0
    5.8654   27.7618    6.7716 C   0  0  0  0  0  0  0  0  0  0  0  0
    3.5615   27.5259    7.2820 C   0  0  0  0  0  0  0  0  0  0  0  0
    3.3113   28.8229    6.7906 C   0  0  0  0  0  0  0  0  0  0  0  0
    4.3446   29.5525    6.3578 N   0  0  0  0  0  0  0  0  0  0  0  0
    5.5835   29.0664    6.3140 C   0  0  0  0  0  0  0  0  0  0  0  0
    2.2501   26.5507    7.8400 Cl  0  0  0  0  0  0  0  0  0  0  0  0
   -0.1624   29.7474    7.7000 C   0  0  0  0  0  0  0  0  0  0  0  0
   -0.1494   29.0051    5.4010 C   0  0  0  0  0  0  0  0  0  0  0  0
    1.3641   30.0793    7.6641 C   0  0  0  0  0  0  0  0  0  0  0  0
   -0.7855   29.9490    6.3524 N   0  0  0  0  0  0  0  0  0  0  0  0
    1.3753   29.3192    5.2504 C   0  0  0  0  0  0  0  0  0  0  0  0
    2.0722   29.3834    6.5578 N   0  0  0  0  0  0  0  0  0  0  0  0
   -2.2493   29.7247    6.3450 C   0  0  0  0  0  0  0  0  0  0  0  0
    6.5415   26.0103    1.9538 C   0  0  0  0  0  0  0  0  0  0  0  0
    6.9806   26.6366    0.9851 O   0  0  0  0  0  0  0  0  0  0  0  0
    5.3302   25.3794    2.0235 N   0  0  0  0  0  0  0  0  0  0  0  0
    5.0976   24.9362    2.8713 H   0  0  0  0  0  0  0  0  0  0  0  0
    5.0926   25.1298   -0.3861 C   0  0  0  0  0  0  0  0  0  0  0  0
    4.3575   25.3117    0.9418 C   0  0  0  0  0  0  0  0  0  0  0  0
    3.5507   26.6396    0.9003 C   0  0  0  0  0  0  0  0  0  0  0  0
    3.3326   24.2131    1.1593 C   0  0  0  0  0  0  0  0  0  0  0  0
    9.1298   24.4180    2.3411 C   0  0  0  0  0  0  0  0  0  0  0  0
   10.0054   23.5000    3.1853 C   0  0  0  0  0  0  0  0  0  0  0  0
    9.4710   22.2183    3.0216 O   0  0  0  0  0  0  0  0  0  0  0  0
    9.5558   21.9486    2.0937 H   0  0  0  0  0  0  0  0  0  0  0  0
   11.4863   23.3947    2.8856 C   0  0  0  0  0  0  0  0  0  0  0  0
   12.1352   22.1459    3.5700 C   0  0  0  0  0  0  0  0  0  0  0  0
   11.9437   22.2212    5.1419 C   0  0  0  0  0  0  0  0  0  0  0  0
   11.1348   21.4886    5.7181 O   0  0  0  0  0  0  0  0  0  0  0  0
   12.7124   23.1388    5.7300 N   0  0  0  0  0  0  0  0  0  0  0  0
   13.4723   23.4810    5.2058 H   0  0  0  0  0  0  0  0  0  0  0  0
   12.8251   25.8581    6.1584 O   0  0  0  0  0  0  0  0  0  0  0  0
   12.5378   23.6990    7.1004 C   0  0  0  0  0  0  0  0  0  0  0  0
   12.3619   25.4238    8.5540 C   0  0  0  0  0  0  0  0  0  0  0  0
   13.2067   23.1837    8.4437 C   0  0  0  0  0  0  0  0  0  0  0  0
   11.9782   25.1667    7.0833 C   0  0  0  0  0  0  0  0  0  0  0  0
   13.4769   24.5687    8.9297 C   0  0  0  0  0  0  0  0  0  0  0  0
   14.4489   22.3761    8.1789 C   0  0  0  0  0  0  0  0  0  0  0  0
   12.5413   25.6625    5.2517 H   0  0  0  0  0  0  0  0  0  0  0  0
   13.6303   22.1766    3.2010 C   0  0  0  0  0  0  0  0  0  0  0  0
   14.2942   20.8408    3.3637 C   0  0  0  0  0  0  0  0  0  0  0  0
   15.0752   20.5168    4.4842 C   0  0  0  0  0  0  0  0  0  0  0  0
   14.6310   18.6229    2.4252 C   0  0  0  0  0  0  0  0  0  0  0  0
   14.1003   19.9134    2.3067 C   0  0  0  0  0  0  0  0  0  0  0  0
   15.5972   19.2163    4.6112 C   0  0  0  0  0  0  0  0  0  0  0  0
   15.3094   18.2950    3.5998 C   0  0  0  0  0  0  0  0  0  0  0  0
  1  2  1  0  0  0
  1  7  1  0  0  0
  2 23  1  0  0  0
  2  8  1  0  0  0
 23 24  2  0  0  0
 23 25  1  0  0  0
 41 45  1  0  0  0
  3  6  2  0  0  0
  9 10  2  0  0  0
  9 11  1  0  0  0
 27 28  1  0  0  0
  4  5  1  0  0  0
  4  8  1  0  0  0
  5  7  1  0  0  0
 31 32  1  0  0  0
 31  8  1  0  0  0
 32 35  1  0  0  0
 32 33  1  0  0  0
 35 36  1  0  0  0
 36 49  1  0  0  0
 36 37  1  0  0  0
 49 50  1  0  0  0
 50 51  2  0  0  0
 50 53  1  0  0  0
 51 54  1  0  0  0
 52 53  2  0  0  0
 52 55  1  0  0  0
 37 38  2  0  0  0
 37 39  1  0  0  0
 42 44  1  0  0  0
 42 39  1  0  0  0
 42 45  1  0  0  0
 43 45  1  0  0  0
 43 46  1  0  0  0
 16 18  1  0  0  0
 16 19  1  0  0  0
 44 46  1  0  0  0
 44 47  1  0  0  0
  6 10  1  0  0  0
  6  7  1  0  0  0
 10 14  1  0  0  0
 11 12  2  0  0  0
 11 15  1  0  0  0
 12 13  1  0  0  0
 12 21  1  0  0  0
 17 19  1  0  0  0
 17 20  1  0  0  0
 25 28  1  0  0  0
 28 29  1  0  0  0
 28 30  1  0  0  0
 54 55  2  0  0  0
 13 14  2  0  0  0
 18 21  1  0  0  0
 19 22  1  0  0  0
 20 21  1  0  0  0
 41 48  1  0  0  0
 25 26  1  0  0  0
 33 34  1  0  0  0
 39 40  1  0  0  0
M  END
> <minimizedAffinity>
-10.11734

$$$$
2BPY_3IN_B_902


 55 59  0  0  0  0  0  0  0  0999 V2000
    9.0141   24.7277    4.5601 C   0  0  0  0  0  0  0  0  0  0  0  0
   10.3924   25.4000    4.6643 C   0  0  0  0  0  0  0  0  0  0  0  0
    7.8727   24.3041    1.1658 O   0  0  0  0  0  0  0  0  0  0  0  0
   11.2713   23.8342    2.9938 C   0  0  0  0  0  0  0  0  0  0  0  0
    9.8687   23.2418    2.8459 C   0  0  0  0  0  0  0  0  0  0  0  0
    7.7647   24.5762    2.3620 C   0  0  0  0  0  0  0  0  0  0  0  0
    8.8224   24.2088    3.2150 N   0  0  0  0  0  0  0  0  0  0  0  0
   11.4543   24.4103    4.3519 N   0  0  0  0  0  0  0  0  0  0  0  0
    5.4888   24.6265    3.4641 N   0  0  0  0  0  0  0  0  0  0  0  0
    6.5295   25.2837    2.8586 C   0  0  0  0  0  0  0  0  0  0  0  0
    4.3281   25.2802    3.7405 C   0  0  0  0  0  0  0  0  0  0  0  0
    4.1931   26.6485    3.4311 C   0  0  0  0  0  0  0  0  0  0  0  0
    5.2381   27.2890    2.8974 N   0  0  0  0  0  0  0  0  0  0  0  0
    6.3700   26.6593    2.5886 C   0  0  0  0  0  0  0  0  0  0  0  0
    2.9960   24.4177    4.4215 Cl  0  0  0  0  0  0  0  0  0  0  0  0
    1.3919   28.5661    1.9395 C   0  0  0  0  0  0  0  0  0  0  0  0
    2.0908   29.6882    3.9617 C   0  0  0  0  0  0  0  0  0  0  0  0
    2.0083   27.2090    2.4083 C   0  0  0  0  0  0  0  0  0  0  0  0
    0.9177   29.3713    3.1108 N   0  0  0  0  0  0  0  0  0  0  0  0
    2.7249   28.3785    4.5349 C   0  0  0  0  0  0  0  0  0  0  0  0
    3.0272   27.3851    3.4763 N   0  0  0  0  0  0  0  0  0  0  0  0
    0.2517   30.6352    2.7210 C   0  0  0  0  0  0  0  0  0  0  0  0
   10.5479   25.9706    6.0394 C   0  0  0  0  0  0  0  0  0  0  0  0
   11.6673   26.1600    6.5234 O   0  0  0  0  0  0  0  0  0  0  0  0
    9.3517   26.2111    6.6570 N   0  0  0  0  0  0  0  0  0  0  0  0
    8.5315   25.9898    6.1594 H   0  0  0  0  0  0  0  0  0  0  0  0
    9.8110   25.8114    9.0138 C   0  0  0  0  0  0  0  0  0  0  0  0
    9.1962   26.7691    7.9932 C   0  0  0  0  0  0  0  0  0  0  0  0
    7.6818   26.9380    8.3001 C   0  0  0  0  0  0  0  0  0  0  0  0
    9.7978   28.1581    8.1088 C   0  0  0  0  0  0  0  0  0  0  0  0
   12.8120   24.9670    4.2362 C   0  0  0  0  0  0  0  0  0  0  0  0
   13.9373   24.0695    4.7363 C   0  0  0  0  0  0  0  0  0  0  0  0
   15.1043   24.8304    4.6169 O   0  0  0  0  0  0  0  0  0  0  0  0
   15.0489   25.6015    5.2027 H   0  0  0  0  0  0  0  0  0  0  0  0
   13.9026   23.5474    6.1577 C   0  0  0  0  0  0  0  0  0  0  0  0
   15.2027   22.7569    6.5233 C   0  0  0  0  0  0  0  0  0  0  0  0
   15.2428   21.3773    5.7435 C   0  0  0  0  0  0  0  0  0  0  0  0
   14.4731   20.4591    6.0390 O   0  0  0  0  0  0  0  0  0  0  0  0
   16.1751   21.3296    4.7908 N   0  0  0  0  0  0  0  0  0  0  0  0
   16.5521   22.1904    4.4974 H   0  0  0  0  0  0  0  0  0  0  0  0
   14.4780   19.6067    3.4710 O   0  0  0  0  0  0  0  0  0  0  0  0
   16.7040   20.1051    4.1251 C   0  0  0  0  0  0  0  0  0  0  0  0
   16.4556   18.2396    2.8695 C   0  0  0  0  0  0  0  0  0  0  0  0
   17.7463   19.0634    4.7131 C   0  0  0  0  0  0  0  0  0  0  0  0
   15.8026   19.6347    2.9277 C   0  0  0  0  0  0  0  0  0  0  0  0
   16.9942   17.8920    4.1751 C   0  0  0  0  0  0  0  0  0  0  0  0
   17.8042   19.1141    6.2163 C   0  0  0  0  0  0  0  0  0  0  0  0
   14.1151   20.5062    3.4848 H   0  0  0  0  0  0  0  0  0  0  0  0
   15.1543   22.5219    8.0448 C   0  0  0  0  0  0  0  0  0  0  0  0
   16.3492   21.7696    8.5526 C   0  0  0  0  0  0  0  0  0  0  0  0
   17.6664   22.1825    8.2971 C   0  0  0  0  0  0  0  0  0  0  0  0
   17.1422   19.8850    9.8688 C   0  0  0  0  0  0  0  0  0  0  0  0
   16.0766   20.5963    9.3035 C   0  0  0  0  0  0  0  0  0  0  0  0
   18.7373   21.4769    8.8761 C   0  0  0  0  0  0  0  0  0  0  0  0
   18.4341   20.3814    9.6900 C   0  0  0  0  0  0  0  0  0  0  0  0
  1  2  1  0  0  0
  1  7  1  0  0  0
  2 23  1  0  0  0
  2  8  1  0  0  0
 23 24  2  0  0  0
 23 25  1  0  0  0
 41 45  1  0  0  0
  3  6  2  0  0  0
  9 10  2  0  0  0
  9 11  1  0  0  0
 27 28  1  0  0  0
  4  5  1  0  0  0
  4  8  1  0  0  0
  5  7  1  0  0  0
 31 32  1  0  0  0
 31  8  1  0  0  0
 32 35  1  0  0  0
 32 33  1  0  0  0
 35 36  1  0  0  0
 36 49  1  0  0  0
 36 37  1  0  0  0
 49 50  1  0  0  0
 50 51  2  0  0  0
 50 53  1  0  0  0
 51 54  1  0  0  0
 52 53  2  0  0  0
 52 55  1  0  0  0
 37 38  2  0  0  0
 37 39  1  0  0  0
 42 44  1  0  0  0
 42 39  1  0  0  0
 42 45  1  0  0  0
 43 45  1  0  0  0
 43 46  1  0  0  0
 16 18  1  0  0  0
 16 19  1  0  0  0
 44 46  1  0  0  0
 44 47  1  0  0  0
  6 10  1  0  0  0
  6  7  1  0  0  0
 10 14  1  0  0  0
 11 12  2  0  0  0
 11 15  1  0  0  0
 12 13  1  0  0  0
 12 21  1  0  0  0
 17 19  1  0  0  0
 17 20  1  0  0  0
 25 28  1  0  0  0
 28 29  1  0  0  0
 28 30  1  0  0  0
 54 55  2  0  0  0
 13 14  2  0  0  0
 18 21  1  0  0  0
 19 22  1  0  0  0
 20 21  1  0  0  0
 41 48  1  0  0  0
 25 26  1  0  0  0
 33 34  1  0  0  0
 39 40  1  0  0  0
M  END
> <minimizedAffinity>
-10.08281

$$$$
2BPY_3IN_B_902


 55 59  0  0  0  0  0  0  0  0999 V2000
    8.5672   26.5590    5.4283 C   0  0  0  0  0  0  0  0  0  0  0  0
    9.3977   25.3628    5.9204 C   0  0  0  0  0  0  0  0  0  0  0  0
    6.2003   27.7674    7.8658 O   0  0  0  0  0  0  0  0  0  0  0  0
    9.8986   26.5758    7.9922 C   0  0  0  0  0  0  0  0  0  0  0  0
    8.9950   27.7146    7.5160 C   0  0  0  0  0  0  0  0  0  0  0  0
    6.5924   27.4453    6.7436 C   0  0  0  0  0  0  0  0  0  0  0  0
    7.9742   27.2448    6.5655 N   0  0  0  0  0  0  0  0  0  0  0  0
   10.4677   25.8408    6.8322 N   0  0  0  0  0  0  0  0  0  0  0  0
    4.4767   26.4918    5.7377 N   0  0  0  0  0  0  0  0  0  0  0  0
    5.5965   27.2759    5.6245 C   0  0  0  0  0  0  0  0  0  0  0  0
    3.7011   26.2363    4.6496 C   0  0  0  0  0  0  0  0  0  0  0  0
    4.0264   26.7976    3.3984 C   0  0  0  0  0  0  0  0  0  0  0  0
    5.0860   27.6088    3.3182 N   0  0  0  0  0  0  0  0  0  0  0  0
    5.8764   27.8440    4.3636 C   0  0  0  0  0  0  0  0  0  0  0  0
    2.3453   25.1758    4.7892 Cl  0  0  0  0  0  0  0  0  0  0  0  0
    4.0964   25.8122   -0.1755 C   0  0  0  0  0  0  0  0  0  0  0  0
    2.3616   27.4666    0.1240 C   0  0  0  0  0  0  0  0  0  0  0  0
    4.0708   25.4243    1.3379 C   0  0  0  0  0  0  0  0  0  0  0  0
    2.7408   26.2517   -0.6381 N   0  0  0  0  0  0  0  0  0  0  0  0
    2.2408   27.1441    1.6496 C   0  0  0  0  0  0  0  0  0  0  0  0
    3.4523   26.4775    2.1853 N   0  0  0  0  0  0  0  0  0  0  0  0
    2.6871   26.5570   -2.0862 C   0  0  0  0  0  0  0  0  0  0  0  0
    9.9563   24.6426    4.7331 C   0  0  0  0  0  0  0  0  0  0  0  0
   11.0865   24.1479    4.7667 O   0  0  0  0  0  0  0  0  0  0  0  0
    9.1045   24.6341    3.6632 N   0  0  0  0  0  0  0  0  0  0  0  0
    8.2384   25.0901    3.7692 H   0  0  0  0  0  0  0  0  0  0  0  0
   10.6192   24.6443    1.7578 C   0  0  0  0  0  0  0  0  0  0  0  0
    9.3784   24.0034    2.3794 C   0  0  0  0  0  0  0  0  0  0  0  0
    8.1633   24.2241    1.4355 C   0  0  0  0  0  0  0  0  0  0  0  0
    9.5379   22.4986    2.5015 C   0  0  0  0  0  0  0  0  0  0  0  0
   11.2221   24.7800    7.5194 C   0  0  0  0  0  0  0  0  0  0  0  0
   12.7026   24.6917    7.1697 C   0  0  0  0  0  0  0  0  0  0  0  0
   12.9876   25.8564    6.4504 O   0  0  0  0  0  0  0  0  0  0  0  0
   12.8570   26.6293    7.0217 H   0  0  0  0  0  0  0  0  0  0  0  0
   13.7297   24.6040    8.2794 C   0  0  0  0  0  0  0  0  0  0  0  0
   14.8576   23.5694    7.9532 C   0  0  0  0  0  0  0  0  0  0  0  0
   14.4083   22.6265    6.7607 C   0  0  0  0  0  0  0  0  0  0  0  0
   13.5186   21.7859    6.9175 O   0  0  0  0  0  0  0  0  0  0  0  0
   15.0885   22.8325    5.6320 N   0  0  0  0  0  0  0  0  0  0  0  0
   15.5921   23.6759    5.5667 H   0  0  0  0  0  0  0  0  0  0  0  0
   12.8093   22.1304    4.2526 O   0  0  0  0  0  0  0  0  0  0  0  0
   15.1636   21.9152    4.4593 C   0  0  0  0  0  0  0  0  0  0  0  0
   14.2358   20.8029    2.7213 C   0  0  0  0  0  0  0  0  0  0  0  0
   15.9775   20.5577    4.3492 C   0  0  0  0  0  0  0  0  0  0  0  0
   13.9892   22.1434    3.4413 C   0  0  0  0  0  0  0  0  0  0  0  0
   14.8682   19.8623    3.6329 C   0  0  0  0  0  0  0  0  0  0  0  0
   16.2888   19.9779    5.7029 C   0  0  0  0  0  0  0  0  0  0  0  0
   12.7019   22.9941    4.6808 H   0  0  0  0  0  0  0  0  0  0  0  0
   15.0821   22.7523    9.2394 C   0  0  0  0  0  0  0  0  0  0  0  0
   16.2241   21.7862    9.1194 C   0  0  0  0  0  0  0  0  0  0  0  0
   16.1372   20.4555    9.5580 C   0  0  0  0  0  0  0  0  0  0  0  0
   18.4984   21.4318    8.3354 C   0  0  0  0  0  0  0  0  0  0  0  0
   17.4170   22.2967    8.5439 C   0  0  0  0  0  0  0  0  0  0  0  0
   17.2178   19.5819    9.3363 C   0  0  0  0  0  0  0  0  0  0  0  0
   18.3437   20.0886    8.6805 C   0  0  0  0  0  0  0  0  0  0  0  0
  1  2  1  0  0  0
  1  7  1  0  0  0
  2 23  1  0  0  0
  2  8  1  0  0  0
 23 24  2  0  0  0
 23 25  1  0  0  0
 41 45  1  0  0  0
  3  6  2  0  0  0
  9 10  2  0  0  0
  9 11  1  0  0  0
 27 28  1  0  0  0
  4  5  1  0  0  0
  4  8  1  0  0  0
  5  7  1  0  0  0
 31 32  1  0  0  0
 31  8  1  0  0  0
 32 35  1  0  0  0
 32 33  1  0  0  0
 35 36  1  0  0  0
 36 49  1  0  0  0
 36 37  1  0  0  0
 49 50  1  0  0  0
 50 51  2  0  0  0
 50 53  1  0  0  0
 51 54  1  0  0  0
 52 53  2  0  0  0
 52 55  1  0  0  0
 37 38  2  0  0  0
 37 39  1  0  0  0
 42 44  1  0  0  0
 42 39  1  0  0  0
 42 45  1  0  0  0
 43 45  1  0  0  0
 43 46  1  0  0  0
 16 18  1  0  0  0
 16 19  1  0  0  0
 44 46  1  0  0  0
 44 47  1  0  0  0
  6 10  1  0  0  0
  6  7  1  0  0  0
 10 14  1  0  0  0
 11 12  2  0  0  0
 11 15  1  0  0  0
 12 13  1  0  0  0
 12 21  1  0  0  0
 17 19  1  0  0  0
 17 20  1  0  0  0
 25 28  1  0  0  0
 28 29  1  0  0  0
 28 30  1  0  0  0
 54 55  2  0  0  0
 13 14  2  0  0  0
 18 21  1  0  0  0
 19 22  1  0  0  0
 20 21  1  0  0  0
 41 48  1  0  0  0
 25 26  1  0  0  0
 33 34  1  0  0  0
 39 40  1  0  0  0
M  END
> <minimizedAffinity>
-9.86045

$$$$
2BPY_3IN_B_902


 55 59  0  0  0  0  0  0  0  0999 V2000
    8.6064   27.2999    5.4973 C   0  0  0  0  0  0  0  0  0  0  0  0
    9.4485   26.0437    5.2223 C   0  0  0  0  0  0  0  0  0  0  0  0
    7.4336   27.5297    8.8996 O   0  0  0  0  0  0  0  0  0  0  0  0
   10.7904   26.5183    7.2196 C   0  0  0  0  0  0  0  0  0  0  0  0
    9.8815   27.7121    7.5175 C   0  0  0  0  0  0  0  0  0  0  0  0
    7.3501   27.6157    7.6738 C   0  0  0  0  0  0  0  0  0  0  0  0
    8.5428   27.5433    6.9298 N   0  0  0  0  0  0  0  0  0  0  0  0
   10.8191   26.2351    5.7605 N   0  0  0  0  0  0  0  0  0  0  0  0
    5.0360   26.8104    7.0468 N   0  0  0  0  0  0  0  0  0  0  0  0
    5.9990   27.7870    7.0274 C   0  0  0  0  0  0  0  0  0  0  0  0
    3.9017   26.9457    6.3079 C   0  0  0  0  0  0  0  0  0  0  0  0
    3.6926   28.1052    5.5344 C   0  0  0  0  0  0  0  0  0  0  0  0
    4.6126   29.0744    5.5745 N   0  0  0  0  0  0  0  0  0  0  0  0
    5.7441   28.9462    6.2645 C   0  0  0  0  0  0  0  0  0  0  0  0
    2.7398   25.6686    6.2732 Cl  0  0  0  0  0  0  0  0  0  0  0  0
    0.1792   28.5613    4.4408 C   0  0  0  0  0  0  0  0  0  0  0  0
    1.2879   27.1137    2.8558 C   0  0  0  0  0  0  0  0  0  0  0  0
    1.5355   29.1620    4.9317 C   0  0  0  0  0  0  0  0  0  0  0  0
    0.2581   28.1723    2.9959 N   0  0  0  0  0  0  0  0  0  0  0  0
    2.6969   27.6595    3.2592 C   0  0  0  0  0  0  0  0  0  0  0  0
    2.6960   28.2946    4.5992 N   0  0  0  0  0  0  0  0  0  0  0  0
   -1.0249   27.6688    2.4544 C   0  0  0  0  0  0  0  0  0  0  0  0
    9.4587   25.7832    3.7484 C   0  0  0  0  0  0  0  0  0  0  0  0
    9.5246   26.7145    2.9412 O   0  0  0  0  0  0  0  0  0  0  0  0
    9.3623   24.4544    3.4395 N   0  0  0  0  0  0  0  0  0  0  0  0
    9.2926   23.8185    4.1879 H   0  0  0  0  0  0  0  0  0  0  0  0
    8.0365   24.2699    1.4065 C   0  0  0  0  0  0  0  0  0  0  0  0
    9.3545   23.9065    2.0902 C   0  0  0  0  0  0  0  0  0  0  0  0
    9.4783   22.3592    2.1695 C   0  0  0  0  0  0  0  0  0  0  0  0
   10.5460   24.3743    1.2739 C   0  0  0  0  0  0  0  0  0  0  0  0
   11.6755   25.0385    5.7273 C   0  0  0  0  0  0  0  0  0  0  0  0
   12.7358   25.0169    4.6330 C   0  0  0  0  0  0  0  0  0  0  0  0
   13.1201   26.3498    4.4577 O   0  0  0  0  0  0  0  0  0  0  0  0
   13.5323   26.6773    5.2724 H   0  0  0  0  0  0  0  0  0  0  0  0
   14.0081   24.2214    4.8395 C   0  0  0  0  0  0  0  0  0  0  0  0
   13.7940   22.6943    4.5727 C   0  0  0  0  0  0  0  0  0  0  0  0
   13.5653   21.9258    5.9402 C   0  0  0  0  0  0  0  0  0  0  0  0
   12.4969   21.3549    6.1760 O   0  0  0  0  0  0  0  0  0  0  0  0
   14.6100   21.9855    6.7672 N   0  0  0  0  0  0  0  0  0  0  0  0
   15.4706   22.2573    6.3737 H   0  0  0  0  0  0  0  0  0  0  0  0
   14.4375   24.0164    8.6208 O   0  0  0  0  0  0  0  0  0  0  0  0
   14.6069   21.6824    8.2268 C   0  0  0  0  0  0  0  0  0  0  0  0
   14.4638   22.2922   10.4008 C   0  0  0  0  0  0  0  0  0  0  0  0
   15.5635   20.6840    9.0050 C   0  0  0  0  0  0  0  0  0  0  0  0
   13.8648   22.7823    9.0677 C   0  0  0  0  0  0  0  0  0  0  0  0
   15.7303   21.6202   10.1553 C   0  0  0  0  0  0  0  0  0  0  0  0
   16.8351   20.4173    8.2452 C   0  0  0  0  0  0  0  0  0  0  0  0
   14.0269   24.2783    7.7819 H   0  0  0  0  0  0  0  0  0  0  0  0
   15.0710   22.1929    3.8724 C   0  0  0  0  0  0  0  0  0  0  0  0
   14.9744   20.7555    3.4526 C   0  0  0  0  0  0  0  0  0  0  0  0
   14.0552   20.3098    2.4898 C   0  0  0  0  0  0  0  0  0  0  0  0
   15.8773   18.5115    3.7021 C   0  0  0  0  0  0  0  0  0  0  0  0
   15.8629   19.8550    4.0965 C   0  0  0  0  0  0  0  0  0  0  0  0
   14.0781   18.9631    2.0825 C   0  0  0  0  0  0  0  0  0  0  0  0
   15.0291   18.1202    2.6653 C   0  0  0  0  0  0  0  0  0  0  0  0
  1  2  1  0  0  0
  1  7  1  0  0  0
  2 23  1  0  0  0
  2  8  1  0  0  0
 23 24  2  0  0  0
 23 25  1  0  0  0
 41 45  1  0  0  0
  3  6  2  0  0  0
  9 10  2  0  0  0
  9 11  1  0  0  0
 27 28  1  0  0  0
  4  5  1  0  0  0
  4  8  1  0  0  0
  5  7  1  0  0  0
 31 32  1  0  0  0
 31  8  1  0  0  0
 32 35  1  0  0  0
 32 33  1  0  0  0
 35 36  1  0  0  0
 36 49  1  0  0  0
 36 37  1  0  0  0
 49 50  1  0  0  0
 50 51  2  0  0  0
 50 53  1  0  0  0
 51 54  1  0  0  0
 52 53  2  0  0  0
 52 55  1  0  0  0
 37 38  2  0  0  0
 37 39  1  0  0  0
 42 44  1  0  0  0
 42 39  1  0  0  0
 42 45  1  0  0  0
 43 45  1  0  0  0
 43 46  1  0  0  0
 16 18  1  0  0  0
 16 19  1  0  0  0
 44 46  1  0  0  0
 44 47  1  0  0  0
  6 10  1  0  0  0
  6  7  1  0  0  0
 10 14  1  0  0  0
 11 12  2  0  0  0
 11 15  1  0  0  0
 12 13  1  0  0  0
 12 21  1  0  0  0
 17 19  1  0  0  0
 17 20  1  0  0  0
 25 28  1  0  0  0
 28 29  1  0  0  0
 28 30  1  0  0  0
 54 55  2  0  0  0
 13 14  2  0  0  0
 18 21  1  0  0  0
 19 22  1  0  0  0
 20 21  1  0  0  0
 41 48  1  0  0  0
 25 26  1  0  0  0
 33 34  1  0  0  0
 39 40  1  0  0  0
M  END
> <minimizedAffinity>
-9.84985

$$$$
