2BPY_3IN_B_902
  RCSB PDB12061705093D
Coordinates from PDB:2BPY:B:902 Model:1 without hydrogens
 51 55  0  0  0  0            999 V2000
    8.9220   24.4920    4.0750   C 0  0  0  0  0  0  0  0  0  0  0  0
   10.2030   25.1950    4.5520   C 0  0  0  0  0  0  0  0  0  0  0  0
   10.2540   25.1420    6.0470   C 0  0  0  0  0  0  0  0  0  0  0  0
   18.5660   20.1520    5.1320   O 0  0  0  0  0  0  0  0  0  0  0  0
    7.9220   25.4310    0.7400   O 0  0  0  0  0  0  0  0  0  0  0  0
    5.7000   24.5090    3.2560   N 0  0  0  0  0  0  0  0  0  0  0  0
    8.7100   25.6310    8.6950   C 0  0  0  0  0  0  0  0  0  0  0  0
   11.3090   24.5840    2.4500   C 0  0  0  0  0  0  0  0  0  0  0  0
    9.9950   23.9690    1.9650   C 0  0  0  0  0  0  0  0  0  0  0  0
   12.6670   25.2360    4.1620   C 0  0  0  0  0  0  0  0  0  0  0  0
   13.8060   24.3610    4.6710   C 0  0  0  0  0  0  0  0  0  0  0  0
   13.8440   23.9560    6.1300   C 0  0  0  0  0  0  0  0  0  0  0  0
   15.0610   23.0250    6.4480   C 0  0  0  0  0  0  0  0  0  0  0  0
   15.0920   22.8590    7.9790   C 0  0  0  0  0  0  0  0  0  0  0  0
   16.1630   21.9130    8.4370   C 0  0  0  0  0  0  0  0  0  0  0  0
   17.5280   22.1510    8.2120   C 0  0  0  0  0  0  0  0  0  0  0  0
   16.6670   19.8520    9.6250   C 0  0  0  0  0  0  0  0  0  0  0  0
   15.7190   20.7430    9.1070   C 0  0  0  0  0  0  0  0  0  0  0  0
   14.8780   21.6210    5.7350   C 0  0  0  0  0  0  0  0  0  0  0  0
   16.2580   19.7470    4.7570   C 0  0  0  0  0  0  0  0  0  0  0  0
   17.6250   17.9810    4.3950   C 0  0  0  0  0  0  0  0  0  0  0  0
    0.6960   27.7460    2.5650   C 0  0  0  0  0  0  0  0  0  0  0  0
   15.6470   18.9960    3.5000   C 0  0  0  0  0  0  0  0  0  0  0  0
    7.7530   25.1580    1.9290   C 0  0  0  0  0  0  0  0  0  0  0  0
    6.4280   25.4570    2.5830   C 0  0  0  0  0  0  0  0  0  0  0  0
    4.4370   24.7830    3.6810   C 0  0  0  0  0  0  0  0  0  0  0  0
    3.8730   26.0550    3.4570   C 0  0  0  0  0  0  0  0  0  0  0  0
    1.0430   27.9840    4.9440   C 0  0  0  0  0  0  0  0  0  0  0  0
    8.8280   24.5750    2.6260   N 0  0  0  0  0  0  0  0  0  0  0  0
   10.6290   24.1220    6.6320   O 0  0  0  0  0  0  0  0  0  0  0  0
    9.8270   26.2990    6.6380   N 0  0  0  0  0  0  0  0  0  0  0  0
    9.7740   26.5360    8.0740   C 0  0  0  0  0  0  0  0  0  0  0  0
    9.3930   28.0210    8.3300   C 0  0  0  0  0  0  0  0  0  0  0  0
   11.1240   26.3360    8.7390   C 0  0  0  0  0  0  0  0  0  0  0  0
   11.3870   24.5460    3.9340   N 0  0  0  0  0  0  0  0  0  0  0  0
   14.9750   25.0880    4.4260   O 0  0  0  0  0  0  0  0  0  0  0  0
   18.4820   21.2640    8.7440   C 0  0  0  0  0  0  0  0  0  0  0  0
   18.0180   20.1710    9.4820   C 0  0  0  0  0  0  0  0  0  0  0  0
   13.7840   21.0500    5.7300   O 0  0  0  0  0  0  0  0  0  0  0  0
   15.9990   21.1510    5.1860   N 0  0  0  0  0  0  0  0  0  0  0  0
   17.5690   19.1570    5.3900   C 0  0  0  0  0  0  0  0  0  0  0  0
   16.9470   18.3460    3.1610   C 0  0  0  0  0  0  0  0  0  0  0  0
   15.1550   19.9600    2.4540   C 0  0  0  0  0  0  0  0  0  0  0  0
    4.6180   26.9870    2.8540   N 0  0  0  0  0  0  0  0  0  0  0  0
    5.8430   26.7280    2.4010   C 0  0  0  0  0  0  0  0  0  0  0  0
    3.5010   23.5510    4.4480  Cl 0  0  0  0  0  0  0  0  0  0  0  0
    1.6360   26.5000    2.4920   C 0  0  0  0  0  0  0  0  0  0  0  0
    0.0080   27.8200    3.8940   N 0  0  0  0  0  0  0  0  0  0  0  0
    1.9860   26.7370    4.9870   C 0  0  0  0  0  0  0  0  0  0  0  0
    2.5550   26.4110    3.6570   N 0  0  0  0  0  0  0  0  0  0  0  0
   -0.9570   28.9390    3.9920   C 0  0  0  0  0  0  0  0  0  0  0  0
  1  2  1  0  0  0  0
  1 29  1  0  0  0  0
  2  3  1  0  0  0  0
  2 35  1  0  0  0  0
  3 30  2  0  0  0  0
  3 31  1  0  0  0  0
  4 41  1  0  0  0  0
  5 24  2  0  0  0  0
  6 25  2  0  0  0  0
  6 26  1  0  0  0  0
  7 32  1  0  0  0  0
  8  9  1  0  0  0  0
  8 35  1  0  0  0  0
  9 29  1  0  0  0  0
 10 11  1  0  0  0  0
 10 35  1  0  0  0  0
 11 12  1  0  0  0  0
 11 36  1  0  0  0  0
 12 13  1  0  0  0  0
 13 14  1  0  0  0  0
 13 19  1  0  0  0  0
 14 15  1  0  0  0  0
 15 16  2  0  0  0  0
 15 18  1  0  0  0  0
 16 37  1  0  0  0  0
 17 18  2  0  0  0  0
 17 38  1  0  0  0  0
 19 39  2  0  0  0  0
 19 40  1  0  0  0  0
 20 23  1  0  0  0  0
 20 40  1  0  0  0  0
 20 41  1  0  0  0  0
 21 41  1  0  0  0  0
 21 42  1  0  0  0  0
 22 47  1  0  0  0  0
 22 48  1  0  0  0  0
 23 42  1  0  0  0  0
 23 43  1  0  0  0  0
 24 25  1  0  0  0  0
 24 29  1  0  0  0  0
 25 45  1  0  0  0  0
 26 27  2  0  0  0  0
 26 46  1  0  0  0  0
 27 44  1  0  0  0  0
 27 50  1  0  0  0  0
 28 48  1  0  0  0  0
 28 49  1  0  0  0  0
 31 32  1  0  0  0  0
 32 33  1  0  0  0  0
 32 34  1  0  0  0  0
 37 38  2  0  0  0  0
 44 45  2  0  0  0  0
 47 50  1  0  0  0  0
 48 51  1  0  0  0  0
 49 50  1  0  0  0  0
A    1
C1
A    2
C2
A    3
C3
A    4
O4
A    5
O5
A    6
N6
A    7
C7
A    8
C8
A    9
C9
A   10
C10
A   11
C11
A   12
C12
A   13
C13
A   14
C14
A   15
C15
A   16
C16
A   17
C19
A   18
C20
A   19
C21
A   20
C22
A   21
C24
A   22
C27
A   23
C30
A   24
C31
A   25
C32
A   26
C33
A   27
C34
A   28
C35
A   29
N1
A   30
O1
A   31
N2
A   32
C4
A   33
C5
A   34
C6
A   35
N3
A   36
O2
A   37
C17
A   38
C18
A   39
O3
A   40
N4
A   41
C23
A   42
C25
A   43
C29
A   44
N7
A   45
C36
A   46
CL1
A   47
C26
A   48
N8
A   49
C37
A   50
N5
A   51
C28
M  END
>  <InstanceId>
2BPY_3IN_B_902

>  <ChemCompId>
3IN

>  <PdbId>
2BPY

>  <ChainId>
B

>  <ResidueNumber>
902

>  <InsertionCode>


>  <Model>
1

>  <AltIds>


>  <MissingHeavyAtoms>
0

>  <ObservedFormula>
C37 N8 O5 Cl

>  <Name>
N-[2(S)-CYCLOPENTYL-1(R)-HYDROXY-3(R)METHYL]-5-[(2(S)-TERTIARY-BUTYLAMINO-CARBONYL)-4-(N1-(2)-(N-METHYLPIPERAZINYL)-3-CHLORO-PYRAZINYL-5-CARBONYL)-PIPERAZINO]-4(S)-HYDROXY-2(R)-PHENYLMETHYL-PENTANAMIDE

>  <SystematicName>
(1S,2S)-N-tert-butyl-4-[6-chloro-5-(4-methylpiperazin-1-yl)pyrazin-2-yl]carbonyl-1-[(2S,4R)-2-hydroxy-5-[[(1S,2R,5S)-2-hydroxy-5-methyl-cyclopentyl]amino]-5-oxo-4-(phenylmethyl)pentyl]piperazine-2-carboxamide

>  <Synonyms>


>  <Type>
NON-POLYMER

>  <Formula>
C37 H55 Cl N8 O5

>  <MolecularWeight>
727.336

>  <ModifiedDate>
2011-06-04

>  <Parent>


>  <OneLetterCode>


>  <SubcomponentList>


>  <AmbiguousFlag>
N

>  <InChI>
InChI=1S/C37H55ClN8O5/c1-24-11-12-30(48)31(24)41-34(49)26(19-25-9-7-6-8-10-25)20-27(47)22-45-17-18-46(23-29(45)35(50)42-37(2,3)4)36(51)28-21-39-33(32(38)40-28)44-15-13-43(5)14-16-44/h6-10,21,24,26-27,29-31,47-48H,11-20,22-23H2,1-5H3,(H,41,49)(H,42,50)/t24-,26+,27-,29-,30+,31-/m0/s1

>  <InChIKey>
SQZXWXXIPWXBCL-CYTJBAGBSA-N

>  <SMILES>
C[C@H]1CC[C@H]([C@H]1NC(=O)[C@H](Cc2ccccc2)C[C@@H](C[N@@]3CCN(C[C@H]3C(=O)NC(C)(C)C)C(=O)c4cnc(c(n4)Cl)N5CCN(CC5)C)O)O

$$$$
