1HEE_LHY_A_1309


 20 20  0  0  0  0  0  0  0  0999 V2000
    6.1669    9.5895   -2.0157 C   0  0  0  0  0  0  0  0  0  0  0  0
    6.5327    9.7264   -0.5771 N   0  0  0  0  0  0  0  0  0  0  0  0
    7.3091    8.8295    0.0855 C   0  0  0  0  0  0  0  0  0  0  0  0
    7.7726    7.8518   -0.4549 O   0  0  0  0  0  0  0  0  0  0  0  0
    7.5586    9.0519    1.3947 N   0  0  0  0  0  0  0  0  0  0  0  0
    6.9940   10.1939    1.9748 O   0  0  0  0  0  0  0  0  0  0  0  0
    6.1945   10.5070   -0.0816 H   0  0  0  0  0  0  0  0  0  0  0  0
    8.1164    8.4343    1.9207 H   0  0  0  0  0  0  0  0  0  0  0  0
    6.4813   10.6759    1.3071 H   0  0  0  0  0  0  0  0  0  0  0  0
    7.4542    9.4764   -2.8552 C   0  0  0  0  0  0  0  0  0  0  0  0
    8.3428   10.2676   -2.8067 O   0  0  0  0  0  0  0  0  0  0  0  0
    7.4434    8.3930   -3.6490 O   0  0  0  0  0  0  0  0  0  0  0  0
    6.7095    7.8106   -3.6367 H   0  0  0  0  0  0  0  0  0  0  0  0
    5.3400   10.7969   -2.5231 C   0  0  0  0  0  0  0  0  0  0  0  0
    4.3235   10.3899   -3.5667 C   0  0  0  0  0  0  0  0  0  0  0  0
    4.6730   10.3715   -4.9449 C   0  0  0  0  0  0  0  0  0  0  0  0
    3.0003   10.0276   -3.1874 C   0  0  0  0  0  0  0  0  0  0  0  0
    3.7188    9.9984   -5.9220 C   0  0  0  0  0  0  0  0  0  0  0  0
    2.0466    9.6564   -4.1678 C   0  0  0  0  0  0  0  0  0  0  0  0
    2.4053    9.6428   -5.5311 C   0  0  0  0  0  0  0  0  0  0  0  0
  2  1  1  0  0  0
  2  3  1  0  0  0
  1 10  1  0  0  0
  1 14  1  0  0  0
 10 11  2  0  0  0
 10 12  1  0  0  0
 14 15  1  0  0  0
 15 16  2  0  0  0
 15 17  1  0  0  0
 16 18  1  0  0  0
 17 19  2  0  0  0
 18 20  2  0  0  0
 19 20  1  0  0  0
  3  4  2  0  0  0
  3  5  1  0  0  0
  5  6  1  0  0  0
  2  7  1  0  0  0
 12 13  1  0  0  0
  5  8  1  0  0  0
  6  9  1  0  0  0
M  END
> <minimizedAffinity>
-8.54907

$$$$
1HEE_LHY_A_1309


 20 20  0  0  0  0  0  0  0  0999 V2000
    6.1649    9.5994   -2.0140 C   0  0  0  0  0  0  0  0  0  0  0  0
    6.5319    9.7321   -0.5754 N   0  0  0  0  0  0  0  0  0  0  0  0
    7.3036    8.8300    0.0857 C   0  0  0  0  0  0  0  0  0  0  0  0
    7.7618    7.8508   -0.4564 O   0  0  0  0  0  0  0  0  0  0  0  0
    7.5546    9.0491    1.3952 N   0  0  0  0  0  0  0  0  0  0  0  0
    6.9962   10.1931    1.9772 O   0  0  0  0  0  0  0  0  0  0  0  0
    6.1978   10.5137   -0.0785 H   0  0  0  0  0  0  0  0  0  0  0  0
    8.1092    8.4277    1.9200 H   0  0  0  0  0  0  0  0  0  0  0  0
    6.4859   10.6789    1.3104 H   0  0  0  0  0  0  0  0  0  0  0  0
    7.4515    9.4810   -2.8541 C   0  0  0  0  0  0  0  0  0  0  0  0
    8.3457   10.2656   -2.8019 O   0  0  0  0  0  0  0  0  0  0  0  0
    7.4330    8.4014   -3.6528 O   0  0  0  0  0  0  0  0  0  0  0  0
    6.6950    7.8241   -3.6431 H   0  0  0  0  0  0  0  0  0  0  0  0
    5.3442   10.8119   -2.5193 C   0  0  0  0  0  0  0  0  0  0  0  0
    4.3352   10.4142   -3.5736 C   0  0  0  0  0  0  0  0  0  0  0  0
    3.0162   10.0342   -3.2021 C   0  0  0  0  0  0  0  0  0  0  0  0
    4.6915   10.4053   -4.9516 C   0  0  0  0  0  0  0  0  0  0  0  0
    2.0745    9.6541   -4.1886 C   0  0  0  0  0  0  0  0  0  0  0  0
    3.7475   10.0225   -5.9368 C   0  0  0  0  0  0  0  0  0  0  0  0
    2.4430    9.6473   -5.5557 C   0  0  0  0  0  0  0  0  0  0  0  0
  2  1  1  0  0  0
  2  3  1  0  0  0
  1 10  1  0  0  0
  1 14  1  0  0  0
 10 11  2  0  0  0
 10 12  1  0  0  0
 14 15  1  0  0  0
 15 16  2  0  0  0
 15 17  1  0  0  0
 16 18  1  0  0  0
 17 19  2  0  0  0
 18 20  2  0  0  0
 19 20  1  0  0  0
  3  4  2  0  0  0
  3  5  1  0  0  0
  5  6  1  0  0  0
  2  7  1  0  0  0
 12 13  1  0  0  0
  5  8  1  0  0  0
  6  9  1  0  0  0
M  END
> <minimizedAffinity>
-8.54659

$$$$
1HEE_LHY_A_1309


 20 20  0  0  0  0  0  0  0  0999 V2000
    2.7074    9.6198   -6.3880 C   0  0  0  0  0  0  0  0  0  0  0  0
    2.3036    8.3113   -5.7991 N   0  0  0  0  0  0  0  0  0  0  0  0
    1.3708    7.4962   -6.3575 C   0  0  0  0  0  0  0  0  0  0  0  0
    0.8047    7.7732   -7.3897 O   0  0  0  0  0  0  0  0  0  0  0  0
    1.0755    6.3412   -5.7214 N   0  0  0  0  0  0  0  0  0  0  0  0
    1.7536    6.0700   -4.5272 O   0  0  0  0  0  0  0  0  0  0  0  0
    2.7350    8.0228   -4.9625 H   0  0  0  0  0  0  0  0  0  0  0  0
    0.4087    5.7142   -6.0840 H   0  0  0  0  0  0  0  0  0  0  0  0
    2.3659    6.7963   -4.3310 H   0  0  0  0  0  0  0  0  0  0  0  0
    3.7848    9.3783   -7.4631 C   0  0  0  0  0  0  0  0  0  0  0  0
    4.7754    8.7461   -7.2713 O   0  0  0  0  0  0  0  0  0  0  0  0
    3.4764    9.9740   -8.6267 O   0  0  0  0  0  0  0  0  0  0  0  0
    2.6778   10.4573   -8.7083 H   0  0  0  0  0  0  0  0  0  0  0  0
    3.2714   10.5891   -5.3197 C   0  0  0  0  0  0  0  0  0  0  0  0
    3.9022    9.8505   -4.1601 C   0  0  0  0  0  0  0  0  0  0  0  0
    3.1145    9.4513   -3.0456 C   0  0  0  0  0  0  0  0  0  0  0  0
    5.2937    9.5513   -4.1617 C   0  0  0  0  0  0  0  0  0  0  0  0
    3.7069    8.7673   -1.9567 C   0  0  0  0  0  0  0  0  0  0  0  0
    5.8845    8.8681   -3.0696 C   0  0  0  0  0  0  0  0  0  0  0  0
    5.0929    8.4782   -1.9702 C   0  0  0  0  0  0  0  0  0  0  0  0
  2  1  1  0  0  0
  2  3  1  0  0  0
  1 10  1  0  0  0
  1 14  1  0  0  0
 10 11  2  0  0  0
 10 12  1  0  0  0
 14 15  1  0  0  0
 15 16  2  0  0  0
 15 17  1  0  0  0
 16 18  1  0  0  0
 17 19  2  0  0  0
 18 20  2  0  0  0
 19 20  1  0  0  0
  3  4  2  0  0  0
  3  5  1  0  0  0
  5  6  1  0  0  0
  2  7  1  0  0  0
 12 13  1  0  0  0
  5  8  1  0  0  0
  6  9  1  0  0  0
M  END
> <minimizedAffinity>
-8.41436

$$$$
1HEE_LHY_A_1309


 20 20  0  0  0  0  0  0  0  0999 V2000
    2.4202    8.3132   -5.8051 C   0  0  0  0  0  0  0  0  0  0  0  0
    2.6089    9.0332   -7.0966 N   0  0  0  0  0  0  0  0  0  0  0  0
    3.8264    9.2560   -7.6574 C   0  0  0  0  0  0  0  0  0  0  0  0
    4.8534    8.8710   -7.1476 O   0  0  0  0  0  0  0  0  0  0  0  0
    3.8724    9.9365   -8.8239 N   0  0  0  0  0  0  0  0  0  0  0  0
    2.6569   10.3658   -9.3694 O   0  0  0  0  0  0  0  0  0  0  0  0
    1.8103    9.3644   -7.5676 H   0  0  0  0  0  0  0  0  0  0  0  0
    4.7283   10.1232   -9.2730 H   0  0  0  0  0  0  0  0  0  0  0  0
    1.9281   10.0917   -8.7908 H   0  0  0  0  0  0  0  0  0  0  0  0
    1.1856    7.3972   -5.9137 C   0  0  0  0  0  0  0  0  0  0  0  0
    1.2527    6.2177   -6.0629 O   0  0  0  0  0  0  0  0  0  0  0  0
    0.0374    8.0892   -5.8328 O   0  0  0  0  0  0  0  0  0  0  0  0
    0.0578    9.0185   -5.7148 H   0  0  0  0  0  0  0  0  0  0  0  0
    2.2196    9.2889   -4.6190 C   0  0  0  0  0  0  0  0  0  0  0  0
    3.4574    9.3948   -3.7561 C   0  0  0  0  0  0  0  0  0  0  0  0
    3.6328    8.5333   -2.6385 C   0  0  0  0  0  0  0  0  0  0  0  0
    4.4607   10.3627   -4.0431 C   0  0  0  0  0  0  0  0  0  0  0  0
    4.7877    8.6383   -1.8261 C   0  0  0  0  0  0  0  0  0  0  0  0
    5.6148   10.4669   -3.2271 C   0  0  0  0  0  0  0  0  0  0  0  0
    5.7768    9.6074   -2.1215 C   0  0  0  0  0  0  0  0  0  0  0  0
  2  1  1  0  0  0
  2  3  1  0  0  0
  1 10  1  0  0  0
  1 14  1  0  0  0
 10 11  2  0  0  0
 10 12  1  0  0  0
 14 15  1  0  0  0
 15 16  2  0  0  0
 15 17  1  0  0  0
 16 18  1  0  0  0
 17 19  2  0  0  0
 18 20  2  0  0  0
 19 20  1  0  0  0
  3  4  2  0  0  0
  3  5  1  0  0  0
  5  6  1  0  0  0
  2  7  1  0  0  0
 12 13  1  0  0  0
  5  8  1  0  0  0
  6  9  1  0  0  0
M  END
> <minimizedAffinity>
-7.92674

$$$$
1HEE_LHY_A_1309


 20 20  0  0  0  0  0  0  0  0999 V2000
    6.1591   10.0418   -2.5210 C   0  0  0  0  0  0  0  0  0  0  0  0
    7.4327   10.5653   -1.9500 N   0  0  0  0  0  0  0  0  0  0  0  0
    7.8368   10.3212   -0.6758 C   0  0  0  0  0  0  0  0  0  0  0  0
    7.1895    9.6445    0.0894 O   0  0  0  0  0  0  0  0  0  0  0  0
    9.0039   10.8647   -0.2656 N   0  0  0  0  0  0  0  0  0  0  0  0
    9.7122   11.6448   -1.1871 O   0  0  0  0  0  0  0  0  0  0  0  0
    8.0108   11.1162   -2.5257 H   0  0  0  0  0  0  0  0  0  0  0  0
    9.3433   10.7176    0.6468 H   0  0  0  0  0  0  0  0  0  0  0  0
    9.2261   11.6754   -2.0260 H   0  0  0  0  0  0  0  0  0  0  0  0
    6.3897    8.6086   -3.0387 C   0  0  0  0  0  0  0  0  0  0  0  0
    5.6469    7.7035   -2.8220 O   0  0  0  0  0  0  0  0  0  0  0  0
    7.5267    8.5065   -3.7462 O   0  0  0  0  0  0  0  0  0  0  0  0
    8.0656    9.2615   -3.8786 H   0  0  0  0  0  0  0  0  0  0  0  0
    5.6398   10.9200   -3.6864 C   0  0  0  0  0  0  0  0  0  0  0  0
    4.3724   10.3625   -4.2955 C   0  0  0  0  0  0  0  0  0  0  0  0
    3.2004   10.2076   -3.5053 C   0  0  0  0  0  0  0  0  0  0  0  0
    4.3350    9.9764   -5.6650 C   0  0  0  0  0  0  0  0  0  0  0  0
    2.0168    9.6781   -4.0738 C   0  0  0  0  0  0  0  0  0  0  0  0
    3.1495    9.4449   -6.2310 C   0  0  0  0  0  0  0  0  0  0  0  0
    1.9942    9.2957   -5.4369 C   0  0  0  0  0  0  0  0  0  0  0  0
  2  1  1  0  0  0
  2  3  1  0  0  0
  1 10  1  0  0  0
  1 14  1  0  0  0
 10 11  2  0  0  0
 10 12  1  0  0  0
 14 15  1  0  0  0
 15 16  2  0  0  0
 15 17  1  0  0  0
 16 18  1  0  0  0
 17 19  2  0  0  0
 18 20  2  0  0  0
 19 20  1  0  0  0
  3  4  2  0  0  0
  3  5  1  0  0  0
  5  6  1  0  0  0
  2  7  1  0  0  0
 12 13  1  0  0  0
  5  8  1  0  0  0
  6  9  1  0  0  0
M  END
> <minimizedAffinity>
-7.14712

$$$$
1HEE_LHY_A_1309


 20 20  0  0  0  0  0  0  0  0999 V2000
    6.9586   10.2152   -1.2622 C   0  0  0  0  0  0  0  0  0  0  0  0
    8.0485   11.2120   -1.0607 N   0  0  0  0  0  0  0  0  0  0  0  0
    8.0502   12.1245   -0.0539 C   0  0  0  0  0  0  0  0  0  0  0  0
    7.1629   12.1848    0.7657 O   0  0  0  0  0  0  0  0  0  0  0  0
    9.0861   12.9893    0.0164 N   0  0  0  0  0  0  0  0  0  0  0  0
   10.0840   12.8822   -0.9594 O   0  0  0  0  0  0  0  0  0  0  0  0
    8.8060   11.2090   -1.6894 H   0  0  0  0  0  0  0  0  0  0  0  0
    9.1371   13.6688    0.7269 H   0  0  0  0  0  0  0  0  0  0  0  0
    9.8633   12.1615   -1.5699 H   0  0  0  0  0  0  0  0  0  0  0  0
    7.2434    8.9737   -0.3946 C   0  0  0  0  0  0  0  0  0  0  0  0
    7.7531    7.9820   -0.8126 O   0  0  0  0  0  0  0  0  0  0  0  0
    6.8381    9.1434    0.8745 O   0  0  0  0  0  0  0  0  0  0  0  0
    6.4435    9.9520    1.1361 H   0  0  0  0  0  0  0  0  0  0  0  0
    6.8376    9.7769   -2.7428 C   0  0  0  0  0  0  0  0  0  0  0  0
    5.4369    9.9722   -3.2795 C   0  0  0  0  0  0  0  0  0  0  0  0
    5.2316   10.3920   -4.6226 C   0  0  0  0  0  0  0  0  0  0  0  0
    4.3039    9.7479   -2.4479 C   0  0  0  0  0  0  0  0  0  0  0  0
    3.9206   10.5827   -5.1221 C   0  0  0  0  0  0  0  0  0  0  0  0
    2.9928    9.9413   -2.9498 C   0  0  0  0  0  0  0  0  0  0  0  0
    2.8024   10.3583   -4.2830 C   0  0  0  0  0  0  0  0  0  0  0  0
  2  1  1  0  0  0
  2  3  1  0  0  0
  1 10  1  0  0  0
  1 14  1  0  0  0
 10 11  2  0  0  0
 10 12  1  0  0  0
 14 15  1  0  0  0
 15 16  2  0  0  0
 15 17  1  0  0  0
 16 18  1  0  0  0
 17 19  2  0  0  0
 18 20  2  0  0  0
 19 20  1  0  0  0
  3  4  2  0  0  0
  3  5  1  0  0  0
  5  6  1  0  0  0
  2  7  1  0  0  0
 12 13  1  0  0  0
  5  8  1  0  0  0
  6  9  1  0  0  0
M  END
> <minimizedAffinity>
-7.14483

$$$$
1HEE_LHY_A_1309


 20 20  0  0  0  0  0  0  0  0999 V2000
    6.1332    9.5665   -1.8821 C   0  0  0  0  0  0  0  0  0  0  0  0
    6.5437    9.6791   -0.4536 N   0  0  0  0  0  0  0  0  0  0  0  0
    7.4492    8.8520    0.1315 C   0  0  0  0  0  0  0  0  0  0  0  0
    8.0006    7.9635   -0.4761 O   0  0  0  0  0  0  0  0  0  0  0  0
    7.7285    9.0416    1.4399 N   0  0  0  0  0  0  0  0  0  0  0  0
    7.0591   10.0791    2.0994 O   0  0  0  0  0  0  0  0  0  0  0  0
    6.1378   10.3894    0.0942 H   0  0  0  0  0  0  0  0  0  0  0  0
    8.3781    8.4716    1.9115 H   0  0  0  0  0  0  0  0  0  0  0  0
    6.4640   10.5266    1.4777 H   0  0  0  0  0  0  0  0  0  0  0  0
    6.1891   10.9614   -2.5348 C   0  0  0  0  0  0  0  0  0  0  0  0
    6.5613   11.1515   -3.6498 O   0  0  0  0  0  0  0  0  0  0  0  0
    5.7823   11.9266   -1.6941 O   0  0  0  0  0  0  0  0  0  0  0  0
    5.5016   11.7057   -0.8279 H   0  0  0  0  0  0  0  0  0  0  0  0
    4.7002    8.9981   -2.0325 C   0  0  0  0  0  0  0  0  0  0  0  0
    4.0812    9.3650   -3.3630 C   0  0  0  0  0  0  0  0  0  0  0  0
    2.7840    9.9449   -3.4192 C   0  0  0  0  0  0  0  0  0  0  0  0
    4.7822    9.1281   -4.5789 C   0  0  0  0  0  0  0  0  0  0  0  0
    2.2016   10.2806   -4.6653 C   0  0  0  0  0  0  0  0  0  0  0  0
    4.1962    9.4632   -5.8249 C   0  0  0  0  0  0  0  0  0  0  0  0
    2.9092   10.0371   -5.8673 C   0  0  0  0  0  0  0  0  0  0  0  0
  2  1  1  0  0  0
  2  3  1  0  0  0
  1 10  1  0  0  0
  1 14  1  0  0  0
 10 11  2  0  0  0
 10 12  1  0  0  0
 14 15  1  0  0  0
 15 16  2  0  0  0
 15 17  1  0  0  0
 16 18  1  0  0  0
 17 19  2  0  0  0
 18 20  2  0  0  0
 19 20  1  0  0  0
  3  4  2  0  0  0
  3  5  1  0  0  0
  5  6  1  0  0  0
  2  7  1  0  0  0
 12 13  1  0  0  0
  5  8  1  0  0  0
  6  9  1  0  0  0
M  END
> <minimizedAffinity>
-7.04273

$$$$
1HEE_LHY_A_1309


 20 20  0  0  0  0  0  0  0  0999 V2000
    5.0417    9.6515   -3.7694 C   0  0  0  0  0  0  0  0  0  0  0  0
    5.5669    9.1153   -2.4815 N   0  0  0  0  0  0  0  0  0  0  0  0
    6.8339    8.6493   -2.3269 C   0  0  0  0  0  0  0  0  0  0  0  0
    7.6371    8.6478   -3.2311 O   0  0  0  0  0  0  0  0  0  0  0  0
    7.1903    8.1714   -1.1143 N   0  0  0  0  0  0  0  0  0  0  0  0
    6.2225    8.1893   -0.1032 O   0  0  0  0  0  0  0  0  0  0  0  0
    4.9648    9.0979   -1.7028 H   0  0  0  0  0  0  0  0  0  0  0  0
    8.0963    7.8238   -0.9483 H   0  0  0  0  0  0  0  0  0  0  0  0
    5.3982    8.5641   -0.4512 H   0  0  0  0  0  0  0  0  0  0  0  0
    5.7245   10.9999   -4.0706 C   0  0  0  0  0  0  0  0  0  0  0  0
    5.9809   11.3761   -5.1709 O   0  0  0  0  0  0  0  0  0  0  0  0
    6.0026   11.6843   -2.9490 O   0  0  0  0  0  0  0  0  0  0  0  0
    5.7722   11.3280   -2.1135 H   0  0  0  0  0  0  0  0  0  0  0  0
    3.5077    9.8626   -3.7292 C   0  0  0  0  0  0  0  0  0  0  0  0
    2.8301    9.3375   -4.9755 C   0  0  0  0  0  0  0  0  0  0  0  0
    1.7945    8.3678   -4.8787 C   0  0  0  0  0  0  0  0  0  0  0  0
    3.2233    9.7981   -6.2635 C   0  0  0  0  0  0  0  0  0  0  0  0
    1.1661    7.8705   -6.0460 C   0  0  0  0  0  0  0  0  0  0  0  0
    2.5940    9.2972   -7.4303 C   0  0  0  0  0  0  0  0  0  0  0  0
    1.5689    8.3356   -7.3212 C   0  0  0  0  0  0  0  0  0  0  0  0
  2  1  1  0  0  0
  2  3  1  0  0  0
  1 10  1  0  0  0
  1 14  1  0  0  0
 10 11  2  0  0  0
 10 12  1  0  0  0
 14 15  1  0  0  0
 15 16  2  0  0  0
 15 17  1  0  0  0
 16 18  1  0  0  0
 17 19  2  0  0  0
 18 20  2  0  0  0
 19 20  1  0  0  0
  3  4  2  0  0  0
  3  5  1  0  0  0
  5  6  1  0  0  0
  2  7  1  0  0  0
 12 13  1  0  0  0
  5  8  1  0  0  0
  6  9  1  0  0  0
M  END
> <minimizedAffinity>
-6.82673

$$$$
1HEE_LHY_A_1309


 20 20  0  0  0  0  0  0  0  0999 V2000
    4.6339    9.9754   -3.1328 C   0  0  0  0  0  0  0  0  0  0  0  0
    5.2850   10.9113   -2.1725 N   0  0  0  0  0  0  0  0  0  0  0  0
    6.4493   10.6325   -1.5298 C   0  0  0  0  0  0  0  0  0  0  0  0
    7.0519    9.5983   -1.7029 O   0  0  0  0  0  0  0  0  0  0  0  0
    6.9342   11.5534   -0.6680 N   0  0  0  0  0  0  0  0  0  0  0  0
    6.1962   12.7307   -0.4984 O   0  0  0  0  0  0  0  0  0  0  0  0
    4.8490   11.7759   -1.9948 H   0  0  0  0  0  0  0  0  0  0  0  0
    7.7746   11.4021   -0.1781 H   0  0  0  0  0  0  0  0  0  0  0  0
    5.4052   12.7001   -1.0589 H   0  0  0  0  0  0  0  0  0  0  0  0
    5.6167    9.6628   -4.2779 C   0  0  0  0  0  0  0  0  0  0  0  0
    6.0197   10.4830   -5.0413 O   0  0  0  0  0  0  0  0  0  0  0  0
    5.9486    8.3619   -4.3146 O   0  0  0  0  0  0  0  0  0  0  0  0
    5.5936    7.7698   -3.6811 H   0  0  0  0  0  0  0  0  0  0  0  0
    3.3349   10.5685   -3.7330 C   0  0  0  0  0  0  0  0  0  0  0  0
    2.7862    9.7137   -4.8539 C   0  0  0  0  0  0  0  0  0  0  0  0
    3.0855   10.0232   -6.2091 C   0  0  0  0  0  0  0  0  0  0  0  0
    1.9557    8.5929   -4.5712 C   0  0  0  0  0  0  0  0  0  0  0  0
    2.5650    9.2278   -7.2584 C   0  0  0  0  0  0  0  0  0  0  0  0
    1.4344    7.7996   -5.6234 C   0  0  0  0  0  0  0  0  0  0  0  0
    1.7380    8.1171   -6.9631 C   0  0  0  0  0  0  0  0  0  0  0  0
  2  1  1  0  0  0
  2  3  1  0  0  0
  1 10  1  0  0  0
  1 14  1  0  0  0
 10 11  2  0  0  0
 10 12  1  0  0  0
 14 15  1  0  0  0
 15 16  2  0  0  0
 15 17  1  0  0  0
 16 18  1  0  0  0
 17 19  2  0  0  0
 18 20  2  0  0  0
 19 20  1  0  0  0
  3  4  2  0  0  0
  3  5  1  0  0  0
  5  6  1  0  0  0
  2  7  1  0  0  0
 12 13  1  0  0  0
  5  8  1  0  0  0
  6  9  1  0  0  0
M  END
> <minimizedAffinity>
-6.76579

$$$$
1HEE_LHY_A_1309


 20 20  0  0  0  0  0  0  0  0999 V2000
    8.1814    9.8626   -1.3231 C   0  0  0  0  0  0  0  0  0  0  0  0
    9.1188   10.5041   -2.2884 N   0  0  0  0  0  0  0  0  0  0  0  0
   10.4317   10.7278   -2.0192 C   0  0  0  0  0  0  0  0  0  0  0  0
   10.9403   10.4077   -0.9696 O   0  0  0  0  0  0  0  0  0  0  0  0
   11.1794   11.3334   -2.9679 N   0  0  0  0  0  0  0  0  0  0  0  0
   10.5422   11.6896   -4.1624 O   0  0  0  0  0  0  0  0  0  0  0  0
    8.7686   10.7799   -3.1662 H   0  0  0  0  0  0  0  0  0  0  0  0
   12.1359   11.5172   -2.8246 H   0  0  0  0  0  0  0  0  0  0  0  0
    9.6083   11.4309   -4.1203 H   0  0  0  0  0  0  0  0  0  0  0  0
    7.3259    8.8193   -2.0679 C   0  0  0  0  0  0  0  0  0  0  0  0
    6.6437    8.0137   -1.5170 O   0  0  0  0  0  0  0  0  0  0  0  0
    7.4541    8.9230   -3.4008 O   0  0  0  0  0  0  0  0  0  0  0  0
    8.0095    9.5821   -3.7682 H   0  0  0  0  0  0  0  0  0  0  0  0
    7.2428   10.8948   -0.6504 C   0  0  0  0  0  0  0  0  0  0  0  0
    7.8024   11.4003    0.6609 C   0  0  0  0  0  0  0  0  0  0  0  0
    7.8010   12.7911    0.9569 C   0  0  0  0  0  0  0  0  0  0  0  0
    8.3466   10.4943    1.6143 C   0  0  0  0  0  0  0  0  0  0  0  0
    8.3325   13.2645    2.1808 C   0  0  0  0  0  0  0  0  0  0  0  0
    8.8796   10.9711    2.8378 C   0  0  0  0  0  0  0  0  0  0  0  0
    8.8730   12.3525    3.1193 C   0  0  0  0  0  0  0  0  0  0  0  0
  2  1  1  0  0  0
  2  3  1  0  0  0
  1 10  1  0  0  0
  1 14  1  0  0  0
 10 11  2  0  0  0
 10 12  1  0  0  0
 14 15  1  0  0  0
 15 16  2  0  0  0
 15 17  1  0  0  0
 16 18  1  0  0  0
 17 19  2  0  0  0
 18 20  2  0  0  0
 19 20  1  0  0  0
  3  4  2  0  0  0
  3  5  1  0  0  0
  5  6  1  0  0  0
  2  7  1  0  0  0
 12 13  1  0  0  0
  5  8  1  0  0  0
  6  9  1  0  0  0
M  END
> <minimizedAffinity>
-6.72887

$$$$
