5OS2_A7K_A_404


 20 21  0  0  0  0  0  0  0  0999 V2000
  -11.6270   14.0300  -16.0850 C   0  0  0  0  0  0  0  0  0  0  0  0
  -10.6263   13.1305  -16.4988 C   0  0  0  0  0  0  0  0  0  0  0  0
  -10.3316   12.0541  -15.6608 C   0  0  0  0  0  0  0  0  0  0  0  0
  -12.3104   13.8076  -14.8925 C   0  0  0  0  0  0  0  0  0  0  0  0
  -12.0040   12.7233  -14.0979 C   0  0  0  0  0  0  0  0  0  0  0  0
  -11.0166   11.8538  -14.4761 C   0  0  0  0  0  0  0  0  0  0  0  0
  -11.3096   16.4564  -16.9794 C   0  0  0  0  0  0  0  0  0  0  0  0
  -11.1102   16.9312  -18.4093 C   0  0  0  0  0  0  0  0  0  0  0  0
  -12.4247   16.8629  -19.1863 C   0  0  0  0  0  0  0  0  0  0  0  0
  -12.9573   15.4379  -19.1366 C   0  0  0  0  0  0  0  0  0  0  0  0
  -13.2132   15.0490  -17.7174 C   0  0  0  0  0  0  0  0  0  0  0  0
  -11.9720   15.1373  -16.9342 N   0  0  0  0  0  0  0  0  0  0  0  0
  -12.2867   17.3703  -20.6034 C   0  0  0  0  0  0  0  0  0  0  0  0
  -12.2332   16.2148  -21.4234 O   0  0  0  0  0  0  0  0  0  0  0  0
  -13.0372   15.6881  -21.2926 H   0  0  0  0  0  0  0  0  0  0  0  0
   -9.8316   13.3289  -17.7700 C   0  0  0  0  0  0  0  0  0  0  0  0
   -8.5772   14.0979  -17.5711 N   0  0  0  0  0  0  0  0  0  0  0  0
   -7.9629   13.5881  -16.9361 H   0  0  0  0  0  0  0  0  0  0  0  0
   -8.7974   15.0103  -17.1719 H   0  0  0  0  0  0  0  0  0  0  0  0
   -8.1094   14.2235  -18.4688 H   0  0  0  0  0  0  0  0  0  0  0  0
 14 13  1  0  0  0
 13  9  1  0  0  0
 10  9  1  0  0  0
 10 11  1  0  0  0
  9  8  1  0  0  0
 17 16  1  0  0  0
 11 12  1  0  0  0
  8  7  1  0  0  0
 16  2  1  0  0  0
 12  7  1  0  0  0
 12  1  1  0  0  0
  2  1  2  0  0  0
  2  3  1  0  0  0
  1  4  1  0  0  0
  3  6  2  0  0  0
  4  5  2  0  0  0
  6  5  1  0  0  0
 17 18  1  0  0  0
 17 19  1  0  0  0
 17 20  1  0  0  0
 14 15  1  0  0  0
M  CHG 1  17   1
M  END
> <minimizedAffinity>
-6.46864

$$$$
5OS2_A7K_A_404


 20 21  0  0  0  0  0  0  0  0999 V2000
  -11.7975   13.9032  -16.2590 C   0  0  0  0  0  0  0  0  0  0  0  0
  -10.5139   14.0900  -16.8060 C   0  0  0  0  0  0  0  0  0  0  0  0
  -10.3001   15.2228  -17.5927 C   0  0  0  0  0  0  0  0  0  0  0  0
  -12.7914   14.8528  -16.4804 C   0  0  0  0  0  0  0  0  0  0  0  0
  -12.5389   15.9691  -17.2493 C   0  0  0  0  0  0  0  0  0  0  0  0
  -11.3022   16.1515  -17.8073 C   0  0  0  0  0  0  0  0  0  0  0  0
  -12.3696   11.3904  -15.8761 C   0  0  0  0  0  0  0  0  0  0  0  0
  -11.6078   10.3462  -15.0767 C   0  0  0  0  0  0  0  0  0  0  0  0
  -11.7980   10.5734  -13.5772 C   0  0  0  0  0  0  0  0  0  0  0  0
  -11.3495   11.9854  -13.2282 C   0  0  0  0  0  0  0  0  0  0  0  0
  -12.1821   12.9739  -13.9770 C   0  0  0  0  0  0  0  0  0  0  0  0
  -12.0469   12.7592  -15.4252 N   0  0  0  0  0  0  0  0  0  0  0  0
  -11.0958    9.5294  -12.7398 C   0  0  0  0  0  0  0  0  0  0  0  0
  -11.5188    9.7565  -11.4057 O   0  0  0  0  0  0  0  0  0  0  0  0
  -12.4849    9.6859  -11.3564 H   0  0  0  0  0  0  0  0  0  0  0  0
   -9.3992   13.0846  -16.6227 C   0  0  0  0  0  0  0  0  0  0  0  0
   -9.2676   12.1324  -17.7542 N   0  0  0  0  0  0  0  0  0  0  0  0
   -9.0415   12.6457  -18.6061 H   0  0  0  0  0  0  0  0  0  0  0  0
  -10.1474   11.6324  -17.8819 H   0  0  0  0  0  0  0  0  0  0  0  0
   -8.5234   11.4648  -17.5520 H   0  0  0  0  0  0  0  0  0  0  0  0
 14 13  1  0  0  0
 13  9  1  0  0  0
 10  9  1  0  0  0
 10 11  1  0  0  0
  9  8  1  0  0  0
 17 16  1  0  0  0
 11 12  1  0  0  0
  8  7  1  0  0  0
 16  2  1  0  0  0
 12  7  1  0  0  0
 12  1  1  0  0  0
  2  1  2  0  0  0
  2  3  1  0  0  0
  1  4  1  0  0  0
  3  6  2  0  0  0
  4  5  2  0  0  0
  6  5  1  0  0  0
 17 18  1  0  0  0
 17 19  1  0  0  0
 17 20  1  0  0  0
 14 15  1  0  0  0
M  CHG 1  17   1
M  END
> <minimizedAffinity>
-6.17230

$$$$
5OS2_A7K_A_404


 20 21  0  0  0  0  0  0  0  0999 V2000
  -10.8925   12.6780  -15.7903 C   0  0  0  0  0  0  0  0  0  0  0  0
  -11.5832   13.8562  -16.1316 C   0  0  0  0  0  0  0  0  0  0  0  0
  -10.9200   14.7926  -16.9259 C   0  0  0  0  0  0  0  0  0  0  0  0
   -9.6050   12.4630  -16.2748 C   0  0  0  0  0  0  0  0  0  0  0  0
   -8.9872   13.4033  -17.0717 C   0  0  0  0  0  0  0  0  0  0  0  0
   -9.6379   14.5644  -17.3917 C   0  0  0  0  0  0  0  0  0  0  0  0
  -12.4966   10.6502  -15.4691 C   0  0  0  0  0  0  0  0  0  0  0  0
  -12.2172    9.3006  -14.8287 C   0  0  0  0  0  0  0  0  0  0  0  0
  -12.1481    9.4317  -13.3075 C   0  0  0  0  0  0  0  0  0  0  0  0
  -11.0828   10.4567  -12.9453 C   0  0  0  0  0  0  0  0  0  0  0  0
  -11.4457   11.7826  -13.5294 C   0  0  0  0  0  0  0  0  0  0  0  0
  -11.5533   11.6816  -14.9923 N   0  0  0  0  0  0  0  0  0  0  0  0
  -11.9181    8.1045  -12.6218 C   0  0  0  0  0  0  0  0  0  0  0  0
  -13.1804    7.4594  -12.5965 O   0  0  0  0  0  0  0  0  0  0  0  0
  -13.5101    7.3584  -13.5031 H   0  0  0  0  0  0  0  0  0  0  0  0
  -12.9730   14.1600  -15.6186 C   0  0  0  0  0  0  0  0  0  0  0  0
  -13.8990   14.6510  -16.6702 N   0  0  0  0  0  0  0  0  0  0  0  0
  -14.0171   13.9307  -17.3827 H   0  0  0  0  0  0  0  0  0  0  0  0
  -13.5122   15.4923  -17.0981 H   0  0  0  0  0  0  0  0  0  0  0  0
  -14.8040   14.8675  -16.2523 H   0  0  0  0  0  0  0  0  0  0  0  0
 14 13  1  0  0  0
 13  9  1  0  0  0
 10  9  1  0  0  0
 10 11  1  0  0  0
  9  8  1  0  0  0
 17 16  1  0  0  0
 11 12  1  0  0  0
  8  7  1  0  0  0
 16  2  1  0  0  0
 12  7  1  0  0  0
 12  1  1  0  0  0
  2  1  2  0  0  0
  2  3  1  0  0  0
  1  4  1  0  0  0
  3  6  2  0  0  0
  4  5  2  0  0  0
  6  5  1  0  0  0
 17 18  1  0  0  0
 17 19  1  0  0  0
 17 20  1  0  0  0
 14 15  1  0  0  0
M  CHG 1  17   1
M  END
> <minimizedAffinity>
-5.96600

$$$$
5OS2_A7K_A_404


 20 21  0  0  0  0  0  0  0  0999 V2000
  -11.2729   13.3916  -15.9194 C   0  0  0  0  0  0  0  0  0  0  0  0
  -10.2624   12.4190  -15.7980 C   0  0  0  0  0  0  0  0  0  0  0  0
  -10.2668   11.6144  -14.6577 C   0  0  0  0  0  0  0  0  0  0  0  0
  -12.2539   13.4996  -14.9373 C   0  0  0  0  0  0  0  0  0  0  0  0
  -12.2365   12.6756  -13.8320 C   0  0  0  0  0  0  0  0  0  0  0  0
  -11.2459   11.7416  -13.6892 C   0  0  0  0  0  0  0  0  0  0  0  0
  -11.8561   13.8584  -18.4154 C   0  0  0  0  0  0  0  0  0  0  0  0
  -12.6767   14.9904  -19.0113 C   0  0  0  0  0  0  0  0  0  0  0  0
  -11.8812   16.2954  -18.9979 C   0  0  0  0  0  0  0  0  0  0  0  0
  -11.4546   16.6023  -17.5694 C   0  0  0  0  0  0  0  0  0  0  0  0
  -10.5850   15.5001  -17.0595 C   0  0  0  0  0  0  0  0  0  0  0  0
  -11.3120   14.2225  -17.0916 N   0  0  0  0  0  0  0  0  0  0  0  0
  -12.6400   17.4425  -19.6246 C   0  0  0  0  0  0  0  0  0  0  0  0
  -12.2144   17.4940  -20.9761 O   0  0  0  0  0  0  0  0  0  0  0  0
  -12.4004   16.6447  -21.4063 H   0  0  0  0  0  0  0  0  0  0  0  0
   -9.1553   12.2670  -16.8171 C   0  0  0  0  0  0  0  0  0  0  0  0
   -9.4555   11.2687  -17.8742 N   0  0  0  0  0  0  0  0  0  0  0  0
  -10.2777   11.5663  -18.3994 H   0  0  0  0  0  0  0  0  0  0  0  0
   -9.6369   10.3619  -17.4439 H   0  0  0  0  0  0  0  0  0  0  0  0
   -8.6581   11.1920  -18.5057 H   0  0  0  0  0  0  0  0  0  0  0  0
 14 13  1  0  0  0
 13  9  1  0  0  0
 10  9  1  0  0  0
 10 11  1  0  0  0
  9  8  1  0  0  0
 17 16  1  0  0  0
 11 12  1  0  0  0
  8  7  1  0  0  0
 16  2  1  0  0  0
 12  7  1  0  0  0
 12  1  1  0  0  0
  2  1  2  0  0  0
  2  3  1  0  0  0
  1  4  1  0  0  0
  3  6  2  0  0  0
  4  5  2  0  0  0
  6  5  1  0  0  0
 17 18  1  0  0  0
 17 19  1  0  0  0
 17 20  1  0  0  0
 14 15  1  0  0  0
M  CHG 1  17   1
M  END
> <minimizedAffinity>
-5.94765

$$$$
5OS2_A7K_A_404


 20 21  0  0  0  0  0  0  0  0999 V2000
  -10.5337   13.5832  -17.0001 C   0  0  0  0  0  0  0  0  0  0  0  0
  -11.4363   13.4642  -15.9263 C   0  0  0  0  0  0  0  0  0  0  0  0
  -11.1658   12.5023  -14.9520 C   0  0  0  0  0  0  0  0  0  0  0  0
   -9.3967   12.7807  -17.0433 C   0  0  0  0  0  0  0  0  0  0  0  0
   -9.1529   11.8524  -16.0534 C   0  0  0  0  0  0  0  0  0  0  0  0
  -10.0345   11.7092  -15.0160 C   0  0  0  0  0  0  0  0  0  0  0  0
  -11.1207   14.3379  -19.4237 C   0  0  0  0  0  0  0  0  0  0  0  0
  -12.2164   15.2802  -19.8941 C   0  0  0  0  0  0  0  0  0  0  0  0
  -11.8507   16.7300  -19.5774 C   0  0  0  0  0  0  0  0  0  0  0  0
  -11.5986   16.8633  -18.0822 C   0  0  0  0  0  0  0  0  0  0  0  0
  -10.4614   15.9797  -17.6862 C   0  0  0  0  0  0  0  0  0  0  0  0
  -10.7693   14.5788  -18.0097 N   0  0  0  0  0  0  0  0  0  0  0  0
  -12.8908   17.7102  -20.0692 C   0  0  0  0  0  0  0  0  0  0  0  0
  -12.6038   17.9209  -21.4416 O   0  0  0  0  0  0  0  0  0  0  0  0
  -12.6376   17.0738  -21.9128 H   0  0  0  0  0  0  0  0  0  0  0  0
  -12.7008   14.2886  -15.8336 C   0  0  0  0  0  0  0  0  0  0  0  0
  -13.9240   13.5443  -16.2260 N   0  0  0  0  0  0  0  0  0  0  0  0
  -14.0596   12.7555  -15.5937 H   0  0  0  0  0  0  0  0  0  0  0  0
  -13.8214   13.2008  -17.1809 H   0  0  0  0  0  0  0  0  0  0  0  0
  -14.7315   14.1652  -16.1729 H   0  0  0  0  0  0  0  0  0  0  0  0
 14 13  1  0  0  0
 13  9  1  0  0  0
 10  9  1  0  0  0
 10 11  1  0  0  0
  9  8  1  0  0  0
 17 16  1  0  0  0
 11 12  1  0  0  0
  8  7  1  0  0  0
 16  2  1  0  0  0
 12  7  1  0  0  0
 12  1  1  0  0  0
  2  1  2  0  0  0
  2  3  1  0  0  0
  1  4  1  0  0  0
  3  6  2  0  0  0
  4  5  2  0  0  0
  6  5  1  0  0  0
 17 18  1  0  0  0
 17 19  1  0  0  0
 17 20  1  0  0  0
 14 15  1  0  0  0
M  CHG 1  17   1
M  END
> <minimizedAffinity>
-5.76742

$$$$
5OS2_A7K_A_404


 20 21  0  0  0  0  0  0  0  0999 V2000
  -10.7826   14.9263  -17.3509 C   0  0  0  0  0  0  0  0  0  0  0  0
  -11.4183   14.6453  -18.5751 C   0  0  0  0  0  0  0  0  0  0  0  0
  -11.7390   15.7212  -19.4041 C   0  0  0  0  0  0  0  0  0  0  0  0
  -10.4621   16.2404  -17.0208 C   0  0  0  0  0  0  0  0  0  0  0  0
  -10.7792   17.2771  -17.8727 C   0  0  0  0  0  0  0  0  0  0  0  0
  -11.4189   17.0207  -19.0555 C   0  0  0  0  0  0  0  0  0  0  0  0
  -11.1191   13.4168  -15.2541 C   0  0  0  0  0  0  0  0  0  0  0  0
  -11.2357   11.9037  -15.1725 C   0  0  0  0  0  0  0  0  0  0  0  0
   -9.8695   11.2481  -15.3719 C   0  0  0  0  0  0  0  0  0  0  0  0
   -9.2940   11.6960  -16.7079 C   0  0  0  0  0  0  0  0  0  0  0  0
   -9.1232   13.1798  -16.7065 C   0  0  0  0  0  0  0  0  0  0  0  0
  -10.4175   13.8405  -16.4826 N   0  0  0  0  0  0  0  0  0  0  0  0
   -9.9269    9.7424  -15.2525 C   0  0  0  0  0  0  0  0  0  0  0  0
  -10.2168    9.4742  -13.8908 O   0  0  0  0  0  0  0  0  0  0  0  0
  -11.0542    9.8995  -13.6486 H   0  0  0  0  0  0  0  0  0  0  0  0
  -11.8144   13.2434  -18.9811 C   0  0  0  0  0  0  0  0  0  0  0  0
  -10.8317   12.5862  -19.8794 N   0  0  0  0  0  0  0  0  0  0  0  0
   -9.9382   12.4936  -19.3962 H   0  0  0  0  0  0  0  0  0  0  0  0
  -10.7072   13.1519  -20.7190 H   0  0  0  0  0  0  0  0  0  0  0  0
  -11.1746   11.6617  -20.1402 H   0  0  0  0  0  0  0  0  0  0  0  0
 14 13  1  0  0  0
 13  9  1  0  0  0
 10  9  1  0  0  0
 10 11  1  0  0  0
  9  8  1  0  0  0
 17 16  1  0  0  0
 11 12  1  0  0  0
  8  7  1  0  0  0
 16  2  1  0  0  0
 12  7  1  0  0  0
 12  1  1  0  0  0
  2  1  2  0  0  0
  2  3  1  0  0  0
  1  4  1  0  0  0
  3  6  2  0  0  0
  4  5  2  0  0  0
  6  5  1  0  0  0
 17 18  1  0  0  0
 17 19  1  0  0  0
 17 20  1  0  0  0
 14 15  1  0  0  0
M  CHG 1  17   1
M  END
> <minimizedAffinity>
-5.68324

$$$$
5OS2_A7K_A_404


 20 21  0  0  0  0  0  0  0  0999 V2000
  -11.2765   11.9073  -14.5842 C   0  0  0  0  0  0  0  0  0  0  0  0
  -10.8524   10.8084  -15.3551 C   0  0  0  0  0  0  0  0  0  0  0  0
  -10.5591    9.6189  -14.6868 C   0  0  0  0  0  0  0  0  0  0  0  0
  -11.4262   11.7724  -13.2065 C   0  0  0  0  0  0  0  0  0  0  0  0
  -11.1434   10.5761  -12.5821 C   0  0  0  0  0  0  0  0  0  0  0  0
  -10.7071    9.5063  -13.3163 C   0  0  0  0  0  0  0  0  0  0  0  0
  -10.6620   14.1423  -15.7740 C   0  0  0  0  0  0  0  0  0  0  0  0
  -11.0978   14.6521  -17.1378 C   0  0  0  0  0  0  0  0  0  0  0  0
  -12.5509   15.1242  -17.0957 C   0  0  0  0  0  0  0  0  0  0  0  0
  -13.4314   13.9788  -16.6164 C   0  0  0  0  0  0  0  0  0  0  0  0
  -13.0153   13.5699  -15.2415 C   0  0  0  0  0  0  0  0  0  0  0  0
  -11.6088   13.1414  -15.2421 N   0  0  0  0  0  0  0  0  0  0  0  0
  -13.0162   15.6847  -18.4200 C   0  0  0  0  0  0  0  0  0  0  0  0
  -13.0092   14.5930  -19.3248 O   0  0  0  0  0  0  0  0  0  0  0  0
  -13.5916   13.8927  -18.9910 H   0  0  0  0  0  0  0  0  0  0  0  0
  -10.6472   10.8969  -16.8508 C   0  0  0  0  0  0  0  0  0  0  0  0
   -9.2222   11.0256  -17.2472 N   0  0  0  0  0  0  0  0  0  0  0  0
   -8.7091   10.1975  -16.9448 H   0  0  0  0  0  0  0  0  0  0  0  0
   -8.8204   11.8538  -16.8077 H   0  0  0  0  0  0  0  0  0  0  0  0
   -9.1580   11.1138  -18.2613 H   0  0  0  0  0  0  0  0  0  0  0  0
 14 13  1  0  0  0
 13  9  1  0  0  0
 10  9  1  0  0  0
 10 11  1  0  0  0
  9  8  1  0  0  0
 17 16  1  0  0  0
 11 12  1  0  0  0
  8  7  1  0  0  0
 16  2  1  0  0  0
 12  7  1  0  0  0
 12  1  1  0  0  0
  2  1  2  0  0  0
  2  3  1  0  0  0
  1  4  1  0  0  0
  3  6  2  0  0  0
  4  5  2  0  0  0
  6  5  1  0  0  0
 17 18  1  0  0  0
 17 19  1  0  0  0
 17 20  1  0  0  0
 14 15  1  0  0  0
M  CHG 1  17   1
M  END
> <minimizedAffinity>
-5.67562

$$$$
5OS2_A7K_A_404


 20 21  0  0  0  0  0  0  0  0999 V2000
  -11.8140   12.9885  -15.7113 C   0  0  0  0  0  0  0  0  0  0  0  0
  -10.8599   13.6490  -16.5084 C   0  0  0  0  0  0  0  0  0  0  0  0
  -11.2651   14.7958  -17.1927 C   0  0  0  0  0  0  0  0  0  0  0  0
  -13.1015   13.5061  -15.5976 C   0  0  0  0  0  0  0  0  0  0  0  0
  -13.4616   14.6516  -16.2751 C   0  0  0  0  0  0  0  0  0  0  0  0
  -12.5510   15.2908  -17.0728 C   0  0  0  0  0  0  0  0  0  0  0  0
  -10.6409   11.7793  -13.7239 C   0  0  0  0  0  0  0  0  0  0  0  0
  -11.2204   10.7838  -12.7325 C   0  0  0  0  0  0  0  0  0  0  0  0
  -11.4138    9.4188  -13.3925 C   0  0  0  0  0  0  0  0  0  0  0  0
  -12.3073    9.5801  -14.6141 C   0  0  0  0  0  0  0  0  0  0  0  0
  -11.6559   10.5025  -15.5917 C   0  0  0  0  0  0  0  0  0  0  0  0
  -11.4252   11.8170  -14.9747 N   0  0  0  0  0  0  0  0  0  0  0  0
  -11.9454    8.3809  -12.4310 C   0  0  0  0  0  0  0  0  0  0  0  0
  -13.2166    8.0045  -12.9336 O   0  0  0  0  0  0  0  0  0  0  0  0
  -13.1190    7.6617  -13.8358 H   0  0  0  0  0  0  0  0  0  0  0  0
   -9.4532   13.1252  -16.6924 C   0  0  0  0  0  0  0  0  0  0  0  0
   -8.6033   13.9950  -17.5442 N   0  0  0  0  0  0  0  0  0  0  0  0
   -8.5040   14.9096  -17.1038 H   0  0  0  0  0  0  0  0  0  0  0  0
   -9.0390   14.1041  -18.4600 H   0  0  0  0  0  0  0  0  0  0  0  0
   -7.6832   13.5687  -17.6541 H   0  0  0  0  0  0  0  0  0  0  0  0
 14 13  1  0  0  0
 13  9  1  0  0  0
 10  9  1  0  0  0
 10 11  1  0  0  0
  9  8  1  0  0  0
 17 16  1  0  0  0
 11 12  1  0  0  0
  8  7  1  0  0  0
 16  2  1  0  0  0
 12  7  1  0  0  0
 12  1  1  0  0  0
  2  1  2  0  0  0
  2  3  1  0  0  0
  1  4  1  0  0  0
  3  6  2  0  0  0
  4  5  2  0  0  0
  6  5  1  0  0  0
 17 18  1  0  0  0
 17 19  1  0  0  0
 17 20  1  0  0  0
 14 15  1  0  0  0
M  CHG 1  17   1
M  END
> <minimizedAffinity>
-5.67085

$$$$
5OS2_A7K_A_404


 20 21  0  0  0  0  0  0  0  0999 V2000
  -12.2221   15.4796  -18.2803 C   0  0  0  0  0  0  0  0  0  0  0  0
  -12.0768   14.6534  -19.4108 C   0  0  0  0  0  0  0  0  0  0  0  0
  -12.2017   15.2441  -20.6691 C   0  0  0  0  0  0  0  0  0  0  0  0
  -12.4446   16.8445  -18.4419 C   0  0  0  0  0  0  0  0  0  0  0  0
  -12.5453   17.3965  -19.7013 C   0  0  0  0  0  0  0  0  0  0  0  0
  -12.4301   16.6010  -20.8094 C   0  0  0  0  0  0  0  0  0  0  0  0
  -13.1651   14.4928  -16.0610 C   0  0  0  0  0  0  0  0  0  0  0  0
  -12.8606   13.1580  -15.4011 C   0  0  0  0  0  0  0  0  0  0  0  0
  -11.4771   13.1829  -14.7518 C   0  0  0  0  0  0  0  0  0  0  0  0
  -10.4394   13.5376  -15.8074 C   0  0  0  0  0  0  0  0  0  0  0  0
  -10.7365   14.8907  -16.3657 C   0  0  0  0  0  0  0  0  0  0  0  0
  -12.0772   14.9088  -16.9690 N   0  0  0  0  0  0  0  0  0  0  0  0
  -11.1478   11.8904  -14.0409 C   0  0  0  0  0  0  0  0  0  0  0  0
   -9.9842   11.3868  -14.6755 O   0  0  0  0  0  0  0  0  0  0  0  0
   -9.2710   12.0409  -14.6093 H   0  0  0  0  0  0  0  0  0  0  0  0
  -11.8579   13.1609  -19.3029 C   0  0  0  0  0  0  0  0  0  0  0  0
  -10.4326   12.7609  -19.4171 N   0  0  0  0  0  0  0  0  0  0  0  0
   -9.9007   13.1758  -18.6521 H   0  0  0  0  0  0  0  0  0  0  0  0
  -10.0582   13.0875  -20.3079 H   0  0  0  0  0  0  0  0  0  0  0  0
  -10.3599   11.7446  -19.3698 H   0  0  0  0  0  0  0  0  0  0  0  0
 14 13  1  0  0  0
 13  9  1  0  0  0
 10  9  1  0  0  0
 10 11  1  0  0  0
  9  8  1  0  0  0
 17 16  1  0  0  0
 11 12  1  0  0  0
  8  7  1  0  0  0
 16  2  1  0  0  0
 12  7  1  0  0  0
 12  1  1  0  0  0
  2  1  2  0  0  0
  2  3  1  0  0  0
  1  4  1  0  0  0
  3  6  2  0  0  0
  4  5  2  0  0  0
  6  5  1  0  0  0
 17 18  1  0  0  0
 17 19  1  0  0  0
 17 20  1  0  0  0
 14 15  1  0  0  0
M  CHG 1  17   1
M  END
> <minimizedAffinity>
-5.66493

$$$$
5OS2_A7K_A_404


 20 21  0  0  0  0  0  0  0  0999 V2000
  -11.1511   12.2297  -15.3511 C   0  0  0  0  0  0  0  0  0  0  0  0
  -11.8736   12.4276  -14.1592 C   0  0  0  0  0  0  0  0  0  0  0  0
  -11.7231   11.4835  -13.1424 C   0  0  0  0  0  0  0  0  0  0  0  0
  -10.2928   11.1399  -15.4698 C   0  0  0  0  0  0  0  0  0  0  0  0
  -10.1562   10.2364  -14.4373 C   0  0  0  0  0  0  0  0  0  0  0  0
  -10.8709   10.4032  -13.2817 C   0  0  0  0  0  0  0  0  0  0  0  0
  -12.2652   13.2000  -17.4972 C   0  0  0  0  0  0  0  0  0  0  0  0
  -12.8115   14.5965  -17.7444 C   0  0  0  0  0  0  0  0  0  0  0  0
  -11.6695   15.5936  -17.9386 C   0  0  0  0  0  0  0  0  0  0  0  0
  -10.7622   15.5534  -16.7171 C   0  0  0  0  0  0  0  0  0  0  0  0
  -10.1877   14.1830  -16.5659 C   0  0  0  0  0  0  0  0  0  0  0  0
  -11.2649   13.1943  -16.4107 N   0  0  0  0  0  0  0  0  0  0  0  0
  -12.1647   16.9907  -18.2345 C   0  0  0  0  0  0  0  0  0  0  0  0
  -11.5340   17.3752  -19.4448 O   0  0  0  0  0  0  0  0  0  0  0  0
  -11.7628   16.7427  -20.1437 H   0  0  0  0  0  0  0  0  0  0  0  0
  -12.8395   13.5768  -13.9767 C   0  0  0  0  0  0  0  0  0  0  0  0
  -13.3482   13.7090  -12.5881 N   0  0  0  0  0  0  0  0  0  0  0  0
  -12.5693   13.8977  -11.9572 H   0  0  0  0  0  0  0  0  0  0  0  0
  -13.8082   12.8419  -12.3105 H   0  0  0  0  0  0  0  0  0  0  0  0
  -14.0166   14.4781  -12.5426 H   0  0  0  0  0  0  0  0  0  0  0  0
 14 13  1  0  0  0
 13  9  1  0  0  0
 10  9  1  0  0  0
 10 11  1  0  0  0
  9  8  1  0  0  0
 17 16  1  0  0  0
 11 12  1  0  0  0
  8  7  1  0  0  0
 16  2  1  0  0  0
 12  7  1  0  0  0
 12  1  1  0  0  0
  2  1  2  0  0  0
  2  3  1  0  0  0
  1  4  1  0  0  0
  3  6  2  0  0  0
  4  5  2  0  0  0
  6  5  1  0  0  0
 17 18  1  0  0  0
 17 19  1  0  0  0
 17 20  1  0  0  0
 14 15  1  0  0  0
M  CHG 1  17   1
M  END
> <minimizedAffinity>
-5.53068

$$$$
