4IDN_GNP_A_501
  RCSB PDB12061712593D
Coordinates from PDB:4IDN:A:501 Model:1 without hydrogens
 32 34  0  0  0  0            999 V2000
   21.3790   -2.4220  -49.0530   P 0  0  0  0  0  0  0  0  0  0  0  0
   20.9210   -3.0770  -50.3380   O 0  0  0  0  0  0  0  0  0  0  0  0
   20.4870   -1.3360  -48.5020   O 0  0  0  0  0  0  0  0  0  0  0  0
   21.5910   -3.3990  -47.9210   O 0  0  0  0  0  0  0  0  0  0  0  0
   22.8050   -1.7560  -49.3550   N 0  0  0  0  0  0  0  0  0  0  0  0
   24.0300   -2.4890  -50.0740   P 0  0  0  0  0  0  0  0  0  0  0  0
   23.5070   -3.1370  -51.2930   O 0  0  0  0  0  0  0  0  0  0  0  0
   24.7480   -3.3640  -49.1120   O 0  0  0  0  0  0  0  0  0  0  0  0
   25.0330   -1.3760  -50.4950   O 0  0  0  0  0  0  0  0  0  0  0  0
   25.0650   -0.6560  -51.8650   P 0  0  0  0  0  0  0  0  0  0  0  0
   25.7660   -1.5420  -52.8350   O 0  0  0  0  0  0  0  0  0  0  0  0
   23.7070   -0.1930  -52.2750   O 0  0  0  0  0  0  0  0  0  0  0  0
   25.9220    0.6670  -51.7280   O 0  0  0  0  0  0  0  0  0  0  0  0
   25.7610    1.5150  -50.6010   C 0  0  0  0  0  0  0  0  0  0  0  0
   26.8230    2.6090  -50.5690   C 0  0  0  0  0  0  0  0  0  0  0  0
   28.1150    2.0390  -50.2520   O 0  0  0  0  0  0  0  0  0  0  0  0
   27.0350    3.4150  -51.8520   C 0  0  0  0  0  0  0  0  0  0  0  0
   27.1140    4.8150  -51.5030   O 0  0  0  0  0  0  0  0  0  0  0  0
   28.3790    2.8980  -52.3710   C 0  0  0  0  0  0  0  0  0  0  0  0
   29.0610    3.8830  -53.1220   O 0  0  0  0  0  0  0  0  0  0  0  0
   29.1130    2.6530  -51.0630   C 0  0  0  0  0  0  0  0  0  0  0  0
   30.1940    1.6700  -51.0880   N 0  0  0  0  0  0  0  0  0  0  0  0
   30.3520    0.6340  -51.9800   C 0  0  0  0  0  0  0  0  0  0  0  0
   31.3910   -0.1090  -51.7150   N 0  0  0  0  0  0  0  0  0  0  0  0
   31.9570    0.4490  -50.5810   C 0  0  0  0  0  0  0  0  0  0  0  0
   33.0980    0.0480  -49.8430   C 0  0  0  0  0  0  0  0  0  0  0  0
   33.8690   -0.9120  -50.0500   O 0  0  0  0  0  0  0  0  0  0  0  0
   33.3160    0.8910  -48.7530   N 0  0  0  0  0  0  0  0  0  0  0  0
   32.5230    1.9680  -48.4150   C 0  0  0  0  0  0  0  0  0  0  0  0
   32.8980    2.6640  -47.3180   N 0  0  0  0  0  0  0  0  0  0  0  0
   31.4510    2.3450  -49.1060   N 0  0  0  0  0  0  0  0  0  0  0  0
   31.2230    1.5430  -50.1740   C 0  0  0  0  0  0  0  0  0  0  0  0
  1  2  2  0  0  0  0
  1  3  1  0  0  0  0
  1  4  1  0  0  0  0
  1  5  1  0  0  0  0
  5  6  1  0  0  0  0
  6  7  2  0  0  0  0
  6  8  1  0  0  0  0
  6  9  1  0  0  0  0
  9 10  1  0  0  0  0
 10 11  2  0  0  0  0
 10 12  1  0  0  0  0
 10 13  1  0  0  0  0
 13 14  1  0  0  0  0
 14 15  1  0  0  0  0
 15 16  1  0  0  0  0
 15 17  1  0  0  0  0
 16 21  1  0  0  0  0
 17 18  1  0  0  0  0
 17 19  1  0  0  0  0
 19 20  1  0  0  0  0
 19 21  1  0  0  0  0
 21 22  1  0  0  0  0
 22 23  1  0  0  0  0
 22 32  1  0  0  0  0
 23 24  2  0  0  0  0
 24 25  1  0  0  0  0
 25 26  1  0  0  0  0
 25 32  2  0  0  0  0
 26 27  2  0  0  0  0
 26 28  1  0  0  0  0
 28 29  1  0  0  0  0
 29 30  1  0  0  0  0
 29 31  2  0  0  0  0
 31 32  1  0  0  0  0
A    1
PG
A    2
O1G
A    3
O2G
A    4
O3G
A    5
N3B
A    6
PB
A    7
O1B
A    8
O2B
A    9
O3A
A   10
PA
A   11
O1A
A   12
O2A
A   13
O5'
A   14
C5'
A   15
C4'
A   16
O4'
A   17
C3'
A   18
O3'
A   19
C2'
A   20
O2'
A   21
C1'
A   22
N9
A   23
C8
A   24
N7
A   25
C5
A   26
C6
A   27
O6
A   28
N1
A   29
C2
A   30
N2
A   31
N3
A   32
C4
M  END
>  <InstanceId>
4IDN_GNP_A_501

>  <ChemCompId>
GNP

>  <PdbId>
4IDN

>  <ChainId>
A

>  <ResidueNumber>
501

>  <InsertionCode>


>  <Model>
1

>  <AltIds>


>  <MissingHeavyAtoms>
0

>  <ObservedFormula>
C10 N6 O13 P3

>  <Name>
PHOSPHOAMINOPHOSPHONIC ACID-GUANYLATE ESTER

>  <SystematicName>
[[[[(2R,3S,4R,5R)-5-(2-amino-6-oxo-1H-purin-9-yl)-3,4-dihydroxy-oxolan-2-yl]methoxy-hydroxy-phosphoryl]oxy-hydroxy-phosphoryl]amino]phosphonic acid

>  <Synonyms>


>  <Type>
NON-POLYMER

>  <Formula>
C10 H17 N6 O13 P3

>  <MolecularWeight>
522.196

>  <ModifiedDate>
2011-06-04

>  <Parent>


>  <OneLetterCode>


>  <SubcomponentList>


>  <AmbiguousFlag>
N

>  <InChI>
InChI=1S/C10H17N6O13P3/c11-10-13-7-4(8(19)14-10)12-2-16(7)9-6(18)5(17)3(28-9)1-27-32(25,26)29-31(23,24)15-30(20,21)22/h2-3,5-6,9,17-18H,1H2,(H,25,26)(H3,11,13,14,19)(H4,15,20,21,22,23,24)/t3-,5-,6-,9-/m1/s1

>  <InChIKey>
UQABYHGXWYXDTK-UUOKFMHZSA-N

>  <SMILES>
c1nc2c(n1[C@H]3[C@@H]([C@@H]([C@H](O3)CO[P@](=O)(O)O[P@@](=O)(NP(=O)(O)O)O)O)O)N=C(NC2=O)N

$$$$
