4CPZ_ZMR_A_1471


 32 32  0  0  0  0  0  0  0  0999 V2000
   -5.2956   46.2274   55.4792 C   0  0  0  0  0  0  0  0  0  0  0  0
   -4.3949   44.9570   55.3199 C   0  0  0  0  0  0  0  0  0  0  0  0
   -3.2985   45.1062   54.3397 C   0  0  0  0  0  0  0  0  0  0  0  0
   -3.2204   46.3742   53.7226 C   0  0  0  0  0  0  0  0  0  0  0  0
   -4.4832   46.8190   53.1767 C   0  0  0  0  0  0  0  0  0  0  0  0
   -5.5783   46.7133   54.0952 O   0  0  0  0  0  0  0  0  0  0  0  0
   -1.9368   44.7710   55.0133 N   0  0  0  0  0  0  0  0  0  0  0  0
   -0.8978   43.9954   54.3702 C   0  0  0  0  0  0  0  0  0  0  0  0
   -1.1106   43.2739   53.2714 N   0  0  0  0  0  0  0  0  0  0  0  0
    0.2686   43.9789   54.9354 N   0  0  0  0  0  0  0  0  0  0  0  0
   -1.9953   43.2841   52.8395 H   0  0  0  0  0  0  0  0  0  0  0  0
   -0.3834   42.7303   52.8909 H   0  0  0  0  0  0  0  0  0  0  0  0
    0.4295   44.5111   55.7478 H   0  0  0  0  0  0  0  0  0  0  0  0
    0.9936   43.4341   54.5522 H   0  0  0  0  0  0  0  0  0  0  0  0
   -2.2301   46.2609   52.5366 N   0  0  0  0  0  0  0  0  0  0  0  0
   -1.0552   47.0613   52.4098 C   0  0  0  0  0  0  0  0  0  0  0  0
   -0.7479   47.9218   53.2263 O   0  0  0  0  0  0  0  0  0  0  0  0
   -0.2243   46.7832   51.2049 C   0  0  0  0  0  0  0  0  0  0  0  0
   -2.4217   45.6007   51.8319 H   0  0  0  0  0  0  0  0  0  0  0  0
   -6.5268   46.0316   56.0653 C   0  0  0  0  0  0  0  0  0  0  0  0
   -7.5893   46.3123   55.4435 O   0  0  0  0  0  0  0  0  0  0  0  0
   -6.6341   45.5990   57.2380 O   0  0  0  0  0  0  0  0  0  0  0  0
   -7.5466   46.6378   54.5659 H   0  0  0  0  0  0  0  0  0  0  0  0
   -4.4842   48.2367   52.5916 C   0  0  0  0  0  0  0  0  0  0  0  0
   -3.6844   49.0804   53.3094 O   0  0  0  0  0  0  0  0  0  0  0  0
   -4.0144   49.1425   54.2194 H   0  0  0  0  0  0  0  0  0  0  0  0
   -5.9047   48.7794   52.6030 C   0  0  0  0  0  0  0  0  0  0  0  0
   -6.6761   48.0285   51.7376 O   0  0  0  0  0  0  0  0  0  0  0  0
   -6.3213   48.1059   50.8381 H   0  0  0  0  0  0  0  0  0  0  0  0
   -5.9664   50.2387   52.1962 C   0  0  0  0  0  0  0  0  0  0  0  0
   -6.5178   50.4825   50.9357 O   0  0  0  0  0  0  0  0  0  0  0  0
   -5.9646   50.0681   50.2551 H   0  0  0  0  0  0  0  0  0  0  0  0
 20 21  1  0  0  0
 20 22  2  0  0  0
 20  1  1  0  0  0
  1  2  2  0  0  0
  1  6  1  0  0  0
  2  3  1  0  0  0
  3  4  1  0  0  0
  3  7  1  0  0  0
  4 15  1  0  0  0
  4  5  1  0  0  0
 15 16  1  0  0  0
 16 17  2  0  0  0
 16 18  1  0  0  0
  5  6  1  0  0  0
  5 24  1  0  0  0
 24 25  1  0  0  0
 24 27  1  0  0  0
 27 28  1  0  0  0
 27 30  1  0  0  0
 30 31  1  0  0  0
  7  8  2  0  0  0
  8  9  1  0  0  0
  8 10  1  0  0  0
 21 23  1  0  0  0
 15 19  1  0  0  0
 25 26  1  0  0  0
 28 29  1  0  0  0
 31 32  1  0  0  0
  9 11  1  0  0  0
  9 12  1  0  0  0
 10 13  1  0  0  0
 10 14  1  0  0  0
M  END
> <minimizedAffinity>
-8.80751

$$$$
4CPZ_ZMR_A_1471


 32 32  0  0  0  0  0  0  0  0999 V2000
   -5.6630   48.5558   52.5548 C   0  0  0  0  0  0  0  0  0  0  0  0
   -4.2892   48.5380   51.8046 C   0  0  0  0  0  0  0  0  0  0  0  0
   -3.2925   47.6102   52.3798 C   0  0  0  0  0  0  0  0  0  0  0  0
   -3.7427   46.8700   53.4952 C   0  0  0  0  0  0  0  0  0  0  0  0
   -4.3504   47.6940   54.5160 C   0  0  0  0  0  0  0  0  0  0  0  0
   -5.3403   48.6000   54.0127 O   0  0  0  0  0  0  0  0  0  0  0  0
   -2.7807   46.6351   51.2809 N   0  0  0  0  0  0  0  0  0  0  0  0
   -1.3787   46.4318   50.9844 C   0  0  0  0  0  0  0  0  0  0  0  0
   -0.4222   47.2477   51.4232 N   0  0  0  0  0  0  0  0  0  0  0  0
   -1.0716   45.4343   50.2157 N   0  0  0  0  0  0  0  0  0  0  0  0
   -0.6518   48.0063   52.0072 H   0  0  0  0  0  0  0  0  0  0  0  0
    0.5147   47.0923   51.1636 H   0  0  0  0  0  0  0  0  0  0  0  0
   -1.7763   44.8291   49.8895 H   0  0  0  0  0  0  0  0  0  0  0  0
   -0.1337   45.2819   49.9581 H   0  0  0  0  0  0  0  0  0  0  0  0
   -2.5085   46.1900   54.1388 N   0  0  0  0  0  0  0  0  0  0  0  0
   -2.2670   44.7841   54.0909 C   0  0  0  0  0  0  0  0  0  0  0  0
   -3.0353   43.9975   53.5500 O   0  0  0  0  0  0  0  0  0  0  0  0
   -1.0118   44.3323   54.7541 C   0  0  0  0  0  0  0  0  0  0  0  0
   -1.8549   46.7587   54.6063 H   0  0  0  0  0  0  0  0  0  0  0  0
   -6.4724   49.6449   52.3180 C   0  0  0  0  0  0  0  0  0  0  0  0
   -6.5215   50.1756   51.1732 O   0  0  0  0  0  0  0  0  0  0  0  0
   -7.1610   50.1618   53.2305 O   0  0  0  0  0  0  0  0  0  0  0  0
   -6.0201   49.8159   50.4682 H   0  0  0  0  0  0  0  0  0  0  0  0
   -4.9567   46.9328   55.7014 C   0  0  0  0  0  0  0  0  0  0  0  0
   -5.5517   45.7690   55.3038 O   0  0  0  0  0  0  0  0  0  0  0  0
   -6.2742   45.9691   54.6882 H   0  0  0  0  0  0  0  0  0  0  0  0
   -5.9987   47.8106   56.3768 C   0  0  0  0  0  0  0  0  0  0  0  0
   -5.3533   48.7438   57.1644 O   0  0  0  0  0  0  0  0  0  0  0  0
   -4.8394   48.2886   57.8496 H   0  0  0  0  0  0  0  0  0  0  0  0
   -6.9602   47.0083   57.2316 C   0  0  0  0  0  0  0  0  0  0  0  0
   -6.3710   46.0144   58.0173 O   0  0  0  0  0  0  0  0  0  0  0  0
   -5.9535   45.3534   57.4431 H   0  0  0  0  0  0  0  0  0  0  0  0
 20 21  1  0  0  0
 20 22  2  0  0  0
 20  1  1  0  0  0
  1  2  2  0  0  0
  1  6  1  0  0  0
  2  3  1  0  0  0
  3  4  1  0  0  0
  3  7  1  0  0  0
  4 15  1  0  0  0
  4  5  1  0  0  0
 15 16  1  0  0  0
 16 17  2  0  0  0
 16 18  1  0  0  0
  5  6  1  0  0  0
  5 24  1  0  0  0
 24 25  1  0  0  0
 24 27  1  0  0  0
 27 28  1  0  0  0
 27 30  1  0  0  0
 30 31  1  0  0  0
  7  8  2  0  0  0
  8  9  1  0  0  0
  8 10  1  0  0  0
 21 23  1  0  0  0
 15 19  1  0  0  0
 25 26  1  0  0  0
 28 29  1  0  0  0
 31 32  1  0  0  0
  9 11  1  0  0  0
  9 12  1  0  0  0
 10 13  1  0  0  0
 10 14  1  0  0  0
M  END
> <minimizedAffinity>
-7.88154

$$$$
4CPZ_ZMR_A_1471


 32 32  0  0  0  0  0  0  0  0999 V2000
   -5.7804   47.0859   54.5880 C   0  0  0  0  0  0  0  0  0  0  0  0
   -5.1166   48.4948   54.4304 C   0  0  0  0  0  0  0  0  0  0  0  0
   -3.8623   48.4936   53.6482 C   0  0  0  0  0  0  0  0  0  0  0  0
   -3.4751   47.2314   53.1464 C   0  0  0  0  0  0  0  0  0  0  0  0
   -3.4712   46.1959   54.1554 C   0  0  0  0  0  0  0  0  0  0  0  0
   -4.6751   46.1413   54.9310 O   0  0  0  0  0  0  0  0  0  0  0  0
   -3.9692   49.5092   52.4746 N   0  0  0  0  0  0  0  0  0  0  0  0
   -4.7664   49.2777   51.2889 C   0  0  0  0  0  0  0  0  0  0  0  0
   -5.2537   48.0804   50.9689 N   0  0  0  0  0  0  0  0  0  0  0  0
   -4.9582   50.2841   50.4950 N   0  0  0  0  0  0  0  0  0  0  0  0
   -5.1098   47.3138   51.5696 H   0  0  0  0  0  0  0  0  0  0  0  0
   -5.7577   47.9619   50.1316 H   0  0  0  0  0  0  0  0  0  0  0  0
   -4.5994   51.1707   50.7285 H   0  0  0  0  0  0  0  0  0  0  0  0
   -5.4628   50.1620   49.6585 H   0  0  0  0  0  0  0  0  0  0  0  0
   -2.0226   47.3579   52.6229 N   0  0  0  0  0  0  0  0  0  0  0  0
   -1.6117   46.9327   51.3239 C   0  0  0  0  0  0  0  0  0  0  0  0
   -2.3790   46.4112   50.5234 O   0  0  0  0  0  0  0  0  0  0  0  0
   -0.1741   47.1607   51.0062 C   0  0  0  0  0  0  0  0  0  0  0  0
   -1.3459   47.7531   53.2188 H   0  0  0  0  0  0  0  0  0  0  0  0
   -6.7076   46.9590   55.5988 C   0  0  0  0  0  0  0  0  0  0  0  0
   -6.6260   47.6660   56.6418 O   0  0  0  0  0  0  0  0  0  0  0  0
   -7.6409   46.1231   55.5323 O   0  0  0  0  0  0  0  0  0  0  0  0
   -5.9415   48.3004   56.7254 H   0  0  0  0  0  0  0  0  0  0  0  0
   -3.1653   44.7820   53.6459 C   0  0  0  0  0  0  0  0  0  0  0  0
   -3.7768   43.8269   54.4077 O   0  0  0  0  0  0  0  0  0  0  0  0
   -3.4507   43.8829   55.3195 H   0  0  0  0  0  0  0  0  0  0  0  0
   -1.6625   44.5526   53.6848 C   0  0  0  0  0  0  0  0  0  0  0  0
   -1.3815   43.3359   53.0947 O   0  0  0  0  0  0  0  0  0  0  0  0
   -1.8170   42.6266   53.5929 H   0  0  0  0  0  0  0  0  0  0  0  0
   -1.1151   44.5654   55.0987 C   0  0  0  0  0  0  0  0  0  0  0  0
    0.0397   43.8041   55.2967 O   0  0  0  0  0  0  0  0  0  0  0  0
   -0.1556   42.8696   55.1248 H   0  0  0  0  0  0  0  0  0  0  0  0
 20 21  1  0  0  0
 20 22  2  0  0  0
 20  1  1  0  0  0
  1  2  2  0  0  0
  1  6  1  0  0  0
  2  3  1  0  0  0
  3  4  1  0  0  0
  3  7  1  0  0  0
  4 15  1  0  0  0
  4  5  1  0  0  0
 15 16  1  0  0  0
 16 17  2  0  0  0
 16 18  1  0  0  0
  5  6  1  0  0  0
  5 24  1  0  0  0
 24 25  1  0  0  0
 24 27  1  0  0  0
 27 28  1  0  0  0
 27 30  1  0  0  0
 30 31  1  0  0  0
  7  8  2  0  0  0
  8  9  1  0  0  0
  8 10  1  0  0  0
 21 23  1  0  0  0
 15 19  1  0  0  0
 25 26  1  0  0  0
 28 29  1  0  0  0
 31 32  1  0  0  0
  9 11  1  0  0  0
  9 12  1  0  0  0
 10 13  1  0  0  0
 10 14  1  0  0  0
M  END
> <minimizedAffinity>
-7.65511

$$$$
4CPZ_ZMR_A_1471


 32 32  0  0  0  0  0  0  0  0999 V2000
   -3.0043   45.5404   53.6624 C   0  0  0  0  0  0  0  0  0  0  0  0
   -3.3416   46.4396   52.4263 C   0  0  0  0  0  0  0  0  0  0  0  0
   -4.1543   47.6328   52.7441 C   0  0  0  0  0  0  0  0  0  0  0  0
   -4.4756   47.7872   54.1107 C   0  0  0  0  0  0  0  0  0  0  0  0
   -5.0358   46.5922   54.7011 C   0  0  0  0  0  0  0  0  0  0  0  0
   -4.2736   45.4071   54.4387 O   0  0  0  0  0  0  0  0  0  0  0  0
   -3.4368   48.9142   52.2306 N   0  0  0  0  0  0  0  0  0  0  0  0
   -4.0434   49.8552   51.3134 C   0  0  0  0  0  0  0  0  0  0  0  0
   -5.1448   49.5781   50.6180 N   0  0  0  0  0  0  0  0  0  0  0  0
   -3.4420   50.9905   51.1414 N   0  0  0  0  0  0  0  0  0  0  0  0
   -5.6041   48.7168   50.7461 H   0  0  0  0  0  0  0  0  0  0  0  0
   -5.4997   50.2346   49.9759 H   0  0  0  0  0  0  0  0  0  0  0  0
   -2.6275   51.1986   51.6538 H   0  0  0  0  0  0  0  0  0  0  0  0
   -3.7997   51.6446   50.4984 H   0  0  0  0  0  0  0  0  0  0  0  0
   -5.5548   48.8934   54.2190 N   0  0  0  0  0  0  0  0  0  0  0  0
   -5.4068   50.0650   55.0206 C   0  0  0  0  0  0  0  0  0  0  0  0
   -4.4144   50.2777   55.7071 O   0  0  0  0  0  0  0  0  0  0  0  0
   -6.5522   51.0166   54.9718 C   0  0  0  0  0  0  0  0  0  0  0  0
   -6.3882   48.7821   53.7069 H   0  0  0  0  0  0  0  0  0  0  0  0
   -2.5979   44.2534   53.3868 C   0  0  0  0  0  0  0  0  0  0  0  0
   -3.3469   43.4633   52.7470 O   0  0  0  0  0  0  0  0  0  0  0  0
   -1.4913   43.8153   53.7836 O   0  0  0  0  0  0  0  0  0  0  0  0
   -4.1805   43.7569   52.4356 H   0  0  0  0  0  0  0  0  0  0  0  0
   -5.3017   46.6662   56.2097 C   0  0  0  0  0  0  0  0  0  0  0  0
   -4.6734   45.6575   56.8839 O   0  0  0  0  0  0  0  0  0  0  0  0
   -5.0088   44.8024   56.5723 H   0  0  0  0  0  0  0  0  0  0  0  0
   -6.7986   46.5635   56.4574 C   0  0  0  0  0  0  0  0  0  0  0  0
   -7.4341   46.3210   55.2553 O   0  0  0  0  0  0  0  0  0  0  0  0
   -7.2697   47.0592   54.6479 H   0  0  0  0  0  0  0  0  0  0  0  0
   -7.3661   47.8230   57.0823 C   0  0  0  0  0  0  0  0  0  0  0  0
   -8.5113   48.3307   56.4634 O   0  0  0  0  0  0  0  0  0  0  0  0
   -8.2988   48.5906   55.5534 H   0  0  0  0  0  0  0  0  0  0  0  0
 20 21  1  0  0  0
 20 22  2  0  0  0
 20  1  1  0  0  0
  1  2  2  0  0  0
  1  6  1  0  0  0
  2  3  1  0  0  0
  3  4  1  0  0  0
  3  7  1  0  0  0
  4 15  1  0  0  0
  4  5  1  0  0  0
 15 16  1  0  0  0
 16 17  2  0  0  0
 16 18  1  0  0  0
  5  6  1  0  0  0
  5 24  1  0  0  0
 24 25  1  0  0  0
 24 27  1  0  0  0
 27 28  1  0  0  0
 27 30  1  0  0  0
 30 31  1  0  0  0
  7  8  2  0  0  0
  8  9  1  0  0  0
  8 10  1  0  0  0
 21 23  1  0  0  0
 15 19  1  0  0  0
 25 26  1  0  0  0
 28 29  1  0  0  0
 31 32  1  0  0  0
  9 11  1  0  0  0
  9 12  1  0  0  0
 10 13  1  0  0  0
 10 14  1  0  0  0
M  END
> <minimizedAffinity>
-7.59064

$$$$
4CPZ_ZMR_A_1471


 32 32  0  0  0  0  0  0  0  0999 V2000
   -4.8684   49.5718   51.7708 C   0  0  0  0  0  0  0  0  0  0  0  0
   -3.9150   48.4193   52.2322 C   0  0  0  0  0  0  0  0  0  0  0  0
   -4.2791   47.8091   53.5285 C   0  0  0  0  0  0  0  0  0  0  0  0
   -5.4396   48.3419   54.1319 C   0  0  0  0  0  0  0  0  0  0  0  0
   -5.4270   49.7856   54.2109 C   0  0  0  0  0  0  0  0  0  0  0  0
   -5.0979   50.4284   52.9730 O   0  0  0  0  0  0  0  0  0  0  0  0
   -4.4387   46.2704   53.3632 N   0  0  0  0  0  0  0  0  0  0  0  0
   -3.4588   45.3119   53.8276 C   0  0  0  0  0  0  0  0  0  0  0  0
   -2.2233   45.6577   54.1846 N   0  0  0  0  0  0  0  0  0  0  0  0
   -3.8070   44.0635   53.8402 N   0  0  0  0  0  0  0  0  0  0  0  0
   -1.9554   46.6050   54.1762 H   0  0  0  0  0  0  0  0  0  0  0  0
   -1.5778   44.9660   54.4569 H   0  0  0  0  0  0  0  0  0  0  0  0
   -4.7195   43.8043   53.5769 H   0  0  0  0  0  0  0  0  0  0  0  0
   -3.1590   43.3744   54.1131 H   0  0  0  0  0  0  0  0  0  0  0  0
   -5.5012   47.8103   55.5857 N   0  0  0  0  0  0  0  0  0  0  0  0
   -6.5220   46.9347   56.0636 C   0  0  0  0  0  0  0  0  0  0  0  0
   -7.4480   46.5493   55.3597 O   0  0  0  0  0  0  0  0  0  0  0  0
   -6.3892   46.5227   57.4892 C   0  0  0  0  0  0  0  0  0  0  0  0
   -4.7978   48.0919   56.2143 H   0  0  0  0  0  0  0  0  0  0  0  0
   -4.3781   50.4157   50.7988 C   0  0  0  0  0  0  0  0  0  0  0  0
   -5.1010   50.7675   49.8250 O   0  0  0  0  0  0  0  0  0  0  0  0
   -3.1969   50.8375   50.8306 O   0  0  0  0  0  0  0  0  0  0  0  0
   -5.9881   50.4712   49.7691 H   0  0  0  0  0  0  0  0  0  0  0  0
   -6.7093   50.4258   54.7568 C   0  0  0  0  0  0  0  0  0  0  0  0
   -7.7843   50.1682   53.9539 O   0  0  0  0  0  0  0  0  0  0  0  0
   -7.6266   50.5418   53.0727 H   0  0  0  0  0  0  0  0  0  0  0  0
   -6.5147   51.9312   54.8479 C   0  0  0  0  0  0  0  0  0  0  0  0
   -5.3020   52.1883   55.4569 O   0  0  0  0  0  0  0  0  0  0  0  0
   -5.3066   51.8209   56.3546 H   0  0  0  0  0  0  0  0  0  0  0  0
   -7.6242   52.6085   55.6284 C   0  0  0  0  0  0  0  0  0  0  0  0
   -8.8800   52.5894   55.0162 O   0  0  0  0  0  0  0  0  0  0  0  0
   -8.8403   53.0820   54.1815 H   0  0  0  0  0  0  0  0  0  0  0  0
 20 21  1  0  0  0
 20 22  2  0  0  0
 20  1  1  0  0  0
  1  2  2  0  0  0
  1  6  1  0  0  0
  2  3  1  0  0  0
  3  4  1  0  0  0
  3  7  1  0  0  0
  4 15  1  0  0  0
  4  5  1  0  0  0
 15 16  1  0  0  0
 16 17  2  0  0  0
 16 18  1  0  0  0
  5  6  1  0  0  0
  5 24  1  0  0  0
 24 25  1  0  0  0
 24 27  1  0  0  0
 27 28  1  0  0  0
 27 30  1  0  0  0
 30 31  1  0  0  0
  7  8  2  0  0  0
  8  9  1  0  0  0
  8 10  1  0  0  0
 21 23  1  0  0  0
 15 19  1  0  0  0
 25 26  1  0  0  0
 28 29  1  0  0  0
 31 32  1  0  0  0
  9 11  1  0  0  0
  9 12  1  0  0  0
 10 13  1  0  0  0
 10 14  1  0  0  0
M  END
> <minimizedAffinity>
-7.39246

$$$$
4CPZ_ZMR_A_1471


 32 32  0  0  0  0  0  0  0  0999 V2000
   -3.6635   46.1016   53.6562 C   0  0  0  0  0  0  0  0  0  0  0  0
   -3.7979   46.9557   52.3513 C   0  0  0  0  0  0  0  0  0  0  0  0
   -4.4599   48.2633   52.5441 C   0  0  0  0  0  0  0  0  0  0  0  0
   -4.8423   48.5463   53.8739 C   0  0  0  0  0  0  0  0  0  0  0  0
   -5.5949   47.4757   54.4887 C   0  0  0  0  0  0  0  0  0  0  0  0
   -4.9853   46.1864   54.3470 O   0  0  0  0  0  0  0  0  0  0  0  0
   -3.5449   49.4036   52.0123 N   0  0  0  0  0  0  0  0  0  0  0  0
   -3.9923   50.4171   51.0810 C   0  0  0  0  0  0  0  0  0  0  0  0
   -5.1253   50.3124   50.3892 N   0  0  0  0  0  0  0  0  0  0  0  0
   -3.2149   51.4370   50.8928 N   0  0  0  0  0  0  0  0  0  0  0  0
   -5.7181   49.5390   50.5296 H   0  0  0  0  0  0  0  0  0  0  0  0
   -5.3701   51.0083   49.7373 H   0  0  0  0  0  0  0  0  0  0  0  0
   -2.3765   51.5177   51.4025 H   0  0  0  0  0  0  0  0  0  0  0  0
   -3.4628   52.1311   50.2401 H   0  0  0  0  0  0  0  0  0  0  0  0
   -5.7665   49.7892   53.8441 N   0  0  0  0  0  0  0  0  0  0  0  0
   -5.4796   51.0033   54.5376 C   0  0  0  0  0  0  0  0  0  0  0  0
   -4.4813   51.1496   55.2330 O   0  0  0  0  0  0  0  0  0  0  0  0
   -6.4868   52.0872   54.3638 C   0  0  0  0  0  0  0  0  0  0  0  0
   -6.5971   49.7390   53.3181 H   0  0  0  0  0  0  0  0  0  0  0  0
   -3.4186   44.7573   53.4818 C   0  0  0  0  0  0  0  0  0  0  0  0
   -2.8704   44.3328   52.4264 O   0  0  0  0  0  0  0  0  0  0  0  0
   -3.7552   43.9113   54.3450 O   0  0  0  0  0  0  0  0  0  0  0  0
   -2.6061   44.9365   51.7604 H   0  0  0  0  0  0  0  0  0  0  0  0
   -5.9424   47.6811   55.9683 C   0  0  0  0  0  0  0  0  0  0  0  0
   -5.0376   48.4927   56.5921 O   0  0  0  0  0  0  0  0  0  0  0  0
   -4.1582   48.0851   56.5551 H   0  0  0  0  0  0  0  0  0  0  0  0
   -5.9554   46.3315   56.6689 C   0  0  0  0  0  0  0  0  0  0  0  0
   -7.1000   45.6502   56.3037 O   0  0  0  0  0  0  0  0  0  0  0  0
   -7.8798   46.1538   56.5853 H   0  0  0  0  0  0  0  0  0  0  0  0
   -5.9092   46.4664   58.1784 C   0  0  0  0  0  0  0  0  0  0  0  0
   -4.6283   46.4737   58.7365 O   0  0  0  0  0  0  0  0  0  0  0  0
   -4.1936   45.6248   58.5593 H   0  0  0  0  0  0  0  0  0  0  0  0
 20 21  1  0  0  0
 20 22  2  0  0  0
 20  1  1  0  0  0
  1  2  2  0  0  0
  1  6  1  0  0  0
  2  3  1  0  0  0
  3  4  1  0  0  0
  3  7  1  0  0  0
  4 15  1  0  0  0
  4  5  1  0  0  0
 15 16  1  0  0  0
 16 17  2  0  0  0
 16 18  1  0  0  0
  5  6  1  0  0  0
  5 24  1  0  0  0
 24 25  1  0  0  0
 24 27  1  0  0  0
 27 28  1  0  0  0
 27 30  1  0  0  0
 30 31  1  0  0  0
  7  8  2  0  0  0
  8  9  1  0  0  0
  8 10  1  0  0  0
 21 23  1  0  0  0
 15 19  1  0  0  0
 25 26  1  0  0  0
 28 29  1  0  0  0
 31 32  1  0  0  0
  9 11  1  0  0  0
  9 12  1  0  0  0
 10 13  1  0  0  0
 10 14  1  0  0  0
M  END
> <minimizedAffinity>
-7.29305

$$$$
4CPZ_ZMR_A_1471


 32 32  0  0  0  0  0  0  0  0999 V2000
   -5.8038   49.3656   52.7052 C   0  0  0  0  0  0  0  0  0  0  0  0
   -4.7187   48.2674   52.9637 C   0  0  0  0  0  0  0  0  0  0  0  0
   -4.6688   47.7758   54.3569 C   0  0  0  0  0  0  0  0  0  0  0  0
   -5.6208   48.3530   55.2260 C   0  0  0  0  0  0  0  0  0  0  0  0
   -5.6348   49.7978   55.1743 C   0  0  0  0  0  0  0  0  0  0  0  0
   -5.7023   50.3270   53.8440 O   0  0  0  0  0  0  0  0  0  0  0  0
   -4.8173   46.2273   54.3777 N   0  0  0  0  0  0  0  0  0  0  0  0
   -3.6943   45.3191   54.4705 C   0  0  0  0  0  0  0  0  0  0  0  0
   -2.4353   45.7047   54.2713 N   0  0  0  0  0  0  0  0  0  0  0  0
   -3.9555   44.0722   54.7098 N   0  0  0  0  0  0  0  0  0  0  0  0
   -2.2333   46.6509   54.0894 H   0  0  0  0  0  0  0  0  0  0  0  0
   -1.7067   45.0436   54.3060 H   0  0  0  0  0  0  0  0  0  0  0  0
   -4.8851   43.7836   54.8575 H   0  0  0  0  0  0  0  0  0  0  0  0
   -3.2244   43.4138   54.7437 H   0  0  0  0  0  0  0  0  0  0  0  0
   -5.2385   47.9563   56.6740 N   0  0  0  0  0  0  0  0  0  0  0  0
   -6.0075   47.0610   57.4765 C   0  0  0  0  0  0  0  0  0  0  0  0
   -7.0498   46.5489   57.0855 O   0  0  0  0  0  0  0  0  0  0  0  0
   -5.4574   46.7940   58.8351 C   0  0  0  0  0  0  0  0  0  0  0  0
   -4.4203   48.3430   57.0617 H   0  0  0  0  0  0  0  0  0  0  0  0
   -5.6466   50.1206   51.5638 C   0  0  0  0  0  0  0  0  0  0  0  0
   -6.6511   50.5312   50.9182 O   0  0  0  0  0  0  0  0  0  0  0  0
   -4.5095   50.3996   51.1128 O   0  0  0  0  0  0  0  0  0  0  0  0
   -7.5155   50.3412   51.2260 H   0  0  0  0  0  0  0  0  0  0  0  0
   -6.7236   50.4758   56.0151 C   0  0  0  0  0  0  0  0  0  0  0  0
   -6.4778   50.3543   57.3535 O   0  0  0  0  0  0  0  0  0  0  0  0
   -6.4671   49.4153   57.5964 H   0  0  0  0  0  0  0  0  0  0  0  0
   -8.0663   49.8337   55.7028 C   0  0  0  0  0  0  0  0  0  0  0  0
   -8.6641   50.5292   54.6700 O   0  0  0  0  0  0  0  0  0  0  0  0
   -8.8150   51.4475   54.9434 H   0  0  0  0  0  0  0  0  0  0  0  0
   -8.9915   49.8216   56.9040 C   0  0  0  0  0  0  0  0  0  0  0  0
   -9.0585   48.6070   57.5915 O   0  0  0  0  0  0  0  0  0  0  0  0
   -9.4191   47.9233   57.0055 H   0  0  0  0  0  0  0  0  0  0  0  0
 20 21  1  0  0  0
 20 22  2  0  0  0
 20  1  1  0  0  0
  1  2  2  0  0  0
  1  6  1  0  0  0
  2  3  1  0  0  0
  3  4  1  0  0  0
  3  7  1  0  0  0
  4 15  1  0  0  0
  4  5  1  0  0  0
 15 16  1  0  0  0
 16 17  2  0  0  0
 16 18  1  0  0  0
  5  6  1  0  0  0
  5 24  1  0  0  0
 24 25  1  0  0  0
 24 27  1  0  0  0
 27 28  1  0  0  0
 27 30  1  0  0  0
 30 31  1  0  0  0
  7  8  2  0  0  0
  8  9  1  0  0  0
  8 10  1  0  0  0
 21 23  1  0  0  0
 15 19  1  0  0  0
 25 26  1  0  0  0
 28 29  1  0  0  0
 31 32  1  0  0  0
  9 11  1  0  0  0
  9 12  1  0  0  0
 10 13  1  0  0  0
 10 14  1  0  0  0
M  END
> <minimizedAffinity>
-7.26190

$$$$
4CPZ_ZMR_A_1471


 32 32  0  0  0  0  0  0  0  0999 V2000
   -3.7047   49.7695   51.9788 C   0  0  0  0  0  0  0  0  0  0  0  0
   -4.7101   50.1796   53.1064 C   0  0  0  0  0  0  0  0  0  0  0  0
   -4.7775   49.2304   54.2377 C   0  0  0  0  0  0  0  0  0  0  0  0
   -3.9094   48.1210   54.1362 C   0  0  0  0  0  0  0  0  0  0  0  0
   -4.0063   47.4383   52.8654 C   0  0  0  0  0  0  0  0  0  0  0  0
   -3.9268   48.3129   51.7328 O   0  0  0  0  0  0  0  0  0  0  0  0
   -4.5094   49.9799   55.5744 N   0  0  0  0  0  0  0  0  0  0  0  0
   -5.4665   50.0463   56.6580 C   0  0  0  0  0  0  0  0  0  0  0  0
   -6.7480   49.7156   56.5108 N   0  0  0  0  0  0  0  0  0  0  0  0
   -5.0448   50.4974   57.7976 N   0  0  0  0  0  0  0  0  0  0  0  0
   -7.0718   49.3727   55.6466 H   0  0  0  0  0  0  0  0  0  0  0  0
   -7.3717   49.8141   57.2662 H   0  0  0  0  0  0  0  0  0  0  0  0
   -4.0980   50.7428   57.9100 H   0  0  0  0  0  0  0  0  0  0  0  0
   -5.6712   50.5946   58.5509 H   0  0  0  0  0  0  0  0  0  0  0  0
   -4.3176   47.1018   55.2291 N   0  0  0  0  0  0  0  0  0  0  0  0
   -5.6454   46.6025   55.3868 C   0  0  0  0  0  0  0  0  0  0  0  0
   -6.5772   46.9610   54.6763 O   0  0  0  0  0  0  0  0  0  0  0  0
   -5.8257   45.6137   56.4865 C   0  0  0  0  0  0  0  0  0  0  0  0
   -3.6232   46.7808   55.8488 H   0  0  0  0  0  0  0  0  0  0  0  0
   -3.8743   50.3848   50.7581 C   0  0  0  0  0  0  0  0  0  0  0  0
   -4.9373   50.2229   50.0961 O   0  0  0  0  0  0  0  0  0  0  0  0
   -2.9748   51.0980   50.2519 O   0  0  0  0  0  0  0  0  0  0  0  0
   -5.6302   49.6965   50.4437 H   0  0  0  0  0  0  0  0  0  0  0  0
   -3.0086   46.2924   52.6564 C   0  0  0  0  0  0  0  0  0  0  0  0
   -1.9612   46.3684   53.5303 O   0  0  0  0  0  0  0  0  0  0  0  0
   -1.4815   47.1994   53.3886 H   0  0  0  0  0  0  0  0  0  0  0  0
   -2.4681   46.3552   51.2364 C   0  0  0  0  0  0  0  0  0  0  0  0
   -3.0843   45.3769   50.4808 O   0  0  0  0  0  0  0  0  0  0  0  0
   -2.8800   44.5046   50.8525 H   0  0  0  0  0  0  0  0  0  0  0  0
   -0.9654   46.1609   51.1837 C   0  0  0  0  0  0  0  0  0  0  0  0
   -0.4994   44.9680   51.7423 O   0  0  0  0  0  0  0  0  0  0  0  0
   -0.7092   44.9507   52.6892 H   0  0  0  0  0  0  0  0  0  0  0  0
 20 21  1  0  0  0
 20 22  2  0  0  0
 20  1  1  0  0  0
  1  2  2  0  0  0
  1  6  1  0  0  0
  2  3  1  0  0  0
  3  4  1  0  0  0
  3  7  1  0  0  0
  4 15  1  0  0  0
  4  5  1  0  0  0
 15 16  1  0  0  0
 16 17  2  0  0  0
 16 18  1  0  0  0
  5  6  1  0  0  0
  5 24  1  0  0  0
 24 25  1  0  0  0
 24 27  1  0  0  0
 27 28  1  0  0  0
 27 30  1  0  0  0
 30 31  1  0  0  0
  7  8  2  0  0  0
  8  9  1  0  0  0
  8 10  1  0  0  0
 21 23  1  0  0  0
 15 19  1  0  0  0
 25 26  1  0  0  0
 28 29  1  0  0  0
 31 32  1  0  0  0
  9 11  1  0  0  0
  9 12  1  0  0  0
 10 13  1  0  0  0
 10 14  1  0  0  0
M  END
> <minimizedAffinity>
-7.17947

$$$$
4CPZ_ZMR_A_1471


 32 32  0  0  0  0  0  0  0  0999 V2000
   -3.8633   45.7852   54.2341 C   0  0  0  0  0  0  0  0  0  0  0  0
   -4.4504   47.0864   54.8766 C   0  0  0  0  0  0  0  0  0  0  0  0
   -4.2525   48.3081   54.0683 C   0  0  0  0  0  0  0  0  0  0  0  0
   -3.5906   48.1064   52.8371 C   0  0  0  0  0  0  0  0  0  0  0  0
   -2.3632   47.3537   52.9687 C   0  0  0  0  0  0  0  0  0  0  0  0
   -2.5048   46.1470   53.7290 O   0  0  0  0  0  0  0  0  0  0  0  0
   -5.6212   49.0030   53.8151 N   0  0  0  0  0  0  0  0  0  0  0  0
   -6.1878   49.9968   54.7017 C   0  0  0  0  0  0  0  0  0  0  0  0
   -5.7343   50.2056   55.9362 N   0  0  0  0  0  0  0  0  0  0  0  0
   -7.2116   50.6645   54.2703 N   0  0  0  0  0  0  0  0  0  0  0  0
   -4.9569   49.7002   56.2671 H   0  0  0  0  0  0  0  0  0  0  0  0
   -6.1764   50.8654   56.5180 H   0  0  0  0  0  0  0  0  0  0  0  0
   -7.5496   50.5126   53.3582 H   0  0  0  0  0  0  0  0  0  0  0  0
   -7.6513   51.3235   54.8548 H   0  0  0  0  0  0  0  0  0  0  0  0
   -3.2091   49.4981   52.2736 N   0  0  0  0  0  0  0  0  0  0  0  0
   -3.7496   50.0369   51.0675 C   0  0  0  0  0  0  0  0  0  0  0  0
   -4.5485   49.4255   50.3679 O   0  0  0  0  0  0  0  0  0  0  0  0
   -3.2681   51.4005   50.7093 C   0  0  0  0  0  0  0  0  0  0  0  0
   -2.5582   50.0406   52.7749 H   0  0  0  0  0  0  0  0  0  0  0  0
   -3.6739   44.7180   55.0842 C   0  0  0  0  0  0  0  0  0  0  0  0
   -2.5133   44.2825   55.3245 O   0  0  0  0  0  0  0  0  0  0  0  0
   -4.6414   44.1275   55.6220 O   0  0  0  0  0  0  0  0  0  0  0  0
   -1.7675   44.6993   54.9397 H   0  0  0  0  0  0  0  0  0  0  0  0
   -1.6581   47.0093   51.6509 C   0  0  0  0  0  0  0  0  0  0  0  0
   -2.4548   46.2601   50.8321 O   0  0  0  0  0  0  0  0  0  0  0  0
   -2.6732   45.4231   51.2709 H   0  0  0  0  0  0  0  0  0  0  0  0
   -0.3910   46.2250   51.9540 C   0  0  0  0  0  0  0  0  0  0  0  0
   -0.6642   44.8756   51.8430 O   0  0  0  0  0  0  0  0  0  0  0  0
   -1.3441   44.6292   52.4894 H   0  0  0  0  0  0  0  0  0  0  0  0
    0.1489   46.5175   53.3403 C   0  0  0  0  0  0  0  0  0  0  0  0
    0.2232   45.4147   54.1951 O   0  0  0  0  0  0  0  0  0  0  0  0
   -0.6688   45.0685   54.3545 H   0  0  0  0  0  0  0  0  0  0  0  0
 20 21  1  0  0  0
 20 22  2  0  0  0
 20  1  1  0  0  0
  1  2  2  0  0  0
  1  6  1  0  0  0
  2  3  1  0  0  0
  3  4  1  0  0  0
  3  7  1  0  0  0
  4 15  1  0  0  0
  4  5  1  0  0  0
 15 16  1  0  0  0
 16 17  2  0  0  0
 16 18  1  0  0  0
  5  6  1  0  0  0
  5 24  1  0  0  0
 24 25  1  0  0  0
 24 27  1  0  0  0
 27 28  1  0  0  0
 27 30  1  0  0  0
 30 31  1  0  0  0
  7  8  2  0  0  0
  8  9  1  0  0  0
  8 10  1  0  0  0
 21 23  1  0  0  0
 15 19  1  0  0  0
 25 26  1  0  0  0
 28 29  1  0  0  0
 31 32  1  0  0  0
  9 11  1  0  0  0
  9 12  1  0  0  0
 10 13  1  0  0  0
 10 14  1  0  0  0
M  END
> <minimizedAffinity>
-6.98522

$$$$
4CPZ_ZMR_A_1471


 32 32  0  0  0  0  0  0  0  0999 V2000
   -4.1136   46.0741   54.1179 C   0  0  0  0  0  0  0  0  0  0  0  0
   -4.9670   46.4514   55.3748 C   0  0  0  0  0  0  0  0  0  0  0  0
   -5.2993   47.8882   55.4770 C   0  0  0  0  0  0  0  0  0  0  0  0
   -4.8189   48.6870   54.4159 C   0  0  0  0  0  0  0  0  0  0  0  0
   -3.4128   48.4865   54.1456 C   0  0  0  0  0  0  0  0  0  0  0  0
   -3.0405   47.1084   54.0178 O   0  0  0  0  0  0  0  0  0  0  0  0
   -6.8393   48.0675   55.6068 N   0  0  0  0  0  0  0  0  0  0  0  0
   -7.4801   48.6480   56.7674 C   0  0  0  0  0  0  0  0  0  0  0  0
   -6.8498   48.8260   57.9269 N   0  0  0  0  0  0  0  0  0  0  0  0
   -8.7355   48.9534   56.6636 N   0  0  0  0  0  0  0  0  0  0  0  0
   -5.8963   48.5951   58.0093 H   0  0  0  0  0  0  0  0  0  0  0  0
   -7.3373   49.1885   58.7016 H   0  0  0  0  0  0  0  0  0  0  0  0
   -9.2047   48.8231   55.8079 H   0  0  0  0  0  0  0  0  0  0  0  0
   -9.2199   49.3157   57.4403 H   0  0  0  0  0  0  0  0  0  0  0  0
   -4.9930   50.1705   54.8268 N   0  0  0  0  0  0  0  0  0  0  0  0
   -5.9498   51.0473   54.2326 C   0  0  0  0  0  0  0  0  0  0  0  0
   -6.6995   50.6962   53.3292 O   0  0  0  0  0  0  0  0  0  0  0  0
   -5.9713   52.4312   54.7838 C   0  0  0  0  0  0  0  0  0  0  0  0
   -4.4120   50.5281   55.5365 H   0  0  0  0  0  0  0  0  0  0  0  0
   -3.4610   44.8619   54.1662 C   0  0  0  0  0  0  0  0  0  0  0  0
   -2.5807   44.6375   55.0433 O   0  0  0  0  0  0  0  0  0  0  0  0
   -3.6952   43.9566   53.3298 O   0  0  0  0  0  0  0  0  0  0  0  0
   -2.3802   45.2914   55.6838 H   0  0  0  0  0  0  0  0  0  0  0  0
   -2.8612   49.2459   52.9326 C   0  0  0  0  0  0  0  0  0  0  0  0
   -2.6263   50.5601   53.2231 O   0  0  0  0  0  0  0  0  0  0  0  0
   -3.4581   50.9884   53.4790 H   0  0  0  0  0  0  0  0  0  0  0  0
   -3.8679   49.1673   51.7956 C   0  0  0  0  0  0  0  0  0  0  0  0
   -3.6269   48.0203   51.0648 O   0  0  0  0  0  0  0  0  0  0  0  0
   -2.7343   48.0591   50.6872 H   0  0  0  0  0  0  0  0  0  0  0  0
   -3.7962   50.3731   50.8792 C   0  0  0  0  0  0  0  0  0  0  0  0
   -4.9068   50.5590   50.0520 O   0  0  0  0  0  0  0  0  0  0  0  0
   -4.9899   49.8047   49.4479 H   0  0  0  0  0  0  0  0  0  0  0  0
 20 21  1  0  0  0
 20 22  2  0  0  0
 20  1  1  0  0  0
  1  2  2  0  0  0
  1  6  1  0  0  0
  2  3  1  0  0  0
  3  4  1  0  0  0
  3  7  1  0  0  0
  4 15  1  0  0  0
  4  5  1  0  0  0
 15 16  1  0  0  0
 16 17  2  0  0  0
 16 18  1  0  0  0
  5  6  1  0  0  0
  5 24  1  0  0  0
 24 25  1  0  0  0
 24 27  1  0  0  0
 27 28  1  0  0  0
 27 30  1  0  0  0
 30 31  1  0  0  0
  7  8  2  0  0  0
  8  9  1  0  0  0
  8 10  1  0  0  0
 21 23  1  0  0  0
 15 19  1  0  0  0
 25 26  1  0  0  0
 28 29  1  0  0  0
 31 32  1  0  0  0
  9 11  1  0  0  0
  9 12  1  0  0  0
 10 13  1  0  0  0
 10 14  1  0  0  0
M  END
> <minimizedAffinity>
-6.94577

$$$$
