4CPZ_ZMR_A_1471
  RCSB PDB12061712053D
Coordinates from PDB:4CPZ:A:1471 Model:1 without hydrogens
 23 23  0  0  0  0            999 V2000
   -6.6150   45.8180   56.0190   C 0  0  0  0  0  0  0  0  0  0  0  0
   -7.6420   46.5040   55.7560   O 0  0  0  0  0  0  0  0  0  0  0  0
   -6.7440   44.8560   56.8140   O 0  0  0  0  0  0  0  0  0  0  0  0
   -5.3930   46.1420   55.4720   C 0  0  0  0  0  0  0  0  0  0  0  0
   -4.3940   44.9560   55.2580   C 0  0  0  0  0  0  0  0  0  0  0  0
   -3.2960   45.2470   54.3120   C 0  0  0  0  0  0  0  0  0  0  0  0
   -3.3060   46.5520   53.7720   C 0  0  0  0  0  0  0  0  0  0  0  0
   -2.2900   46.5860   52.6030   N 0  0  0  0  0  0  0  0  0  0  0  0
   -1.0240   47.2410   52.6760   C 0  0  0  0  0  0  0  0  0  0  0  0
   -0.6490   47.8500   53.6710   O 0  0  0  0  0  0  0  0  0  0  0  0
   -0.1850   47.1400   51.4490   C 0  0  0  0  0  0  0  0  0  0  0  0
   -4.5900   46.9310   53.2260   C 0  0  0  0  0  0  0  0  0  0  0  0
   -5.6890   46.6870   54.1130   O 0  0  0  0  0  0  0  0  0  0  0  0
   -4.6910   48.3770   52.7250   C 0  0  0  0  0  0  0  0  0  0  0  0
   -4.4220   49.2760   53.7180   O 0  0  0  0  0  0  0  0  0  0  0  0
   -6.0980   48.6270   52.2050   C 0  0  0  0  0  0  0  0  0  0  0  0
   -6.4310   47.6220   51.3180   O 0  0  0  0  0  0  0  0  0  0  0  0
   -6.2260   49.9710   51.5150   C 0  0  0  0  0  0  0  0  0  0  0  0
   -5.3700   50.1660   50.4280   O 0  0  0  0  0  0  0  0  0  0  0  0
   -1.9240   44.9770   54.9940   N 0  0  0  0  0  0  0  0  0  0  0  0
   -0.8440   44.2550   54.3560   C 0  0  0  0  0  0  0  0  0  0  0  0
   -1.0140   43.5270   53.2540   N 0  0  0  0  0  0  0  0  0  0  0  0
    0.3180   44.2940   54.9290   N 0  0  0  0  0  0  0  0  0  0  0  0
  1  2  1  0  0  0  0
  1  3  2  0  0  0  0
  1  4  1  0  0  0  0
  4  5  2  0  0  0  0
  4 13  1  0  0  0  0
  5  6  1  0  0  0  0
  6  7  1  0  0  0  0
  6 20  1  0  0  0  0
  7  8  1  0  0  0  0
  7 12  1  0  0  0  0
  8  9  1  0  0  0  0
  9 10  2  0  0  0  0
  9 11  1  0  0  0  0
 12 13  1  0  0  0  0
 12 14  1  0  0  0  0
 14 15  1  0  0  0  0
 14 16  1  0  0  0  0
 16 17  1  0  0  0  0
 16 18  1  0  0  0  0
 18 19  1  0  0  0  0
 20 21  2  0  0  0  0
 21 22  1  0  0  0  0
 21 23  1  0  0  0  0
A    1
C1
A    2
O1A
A    3
O1B
A    4
C2
A    5
C3
A    6
C4
A    7
C5
A    8
N5
A    9
C10
A   10
O10
A   11
C11
A   12
C6
A   13
O6
A   14
C7
A   15
O7
A   16
C8
A   17
O8
A   18
C9
A   19
O9
A   20
NE
A   21
CZ
A   22
NH1
A   23
NH2
M  END
>  <InstanceId>
4CPZ_ZMR_A_1471

>  <ChemCompId>
ZMR

>  <PdbId>
4CPZ

>  <ChainId>
A

>  <ResidueNumber>
1471

>  <InsertionCode>


>  <Model>
1

>  <AltIds>


>  <MissingHeavyAtoms>
0

>  <ObservedFormula>
C12 N4 O7

>  <Name>
ZANAMIVIR

>  <SystematicName>
(4S,5R,6R)-5-acetamido-4-(diaminomethylideneamino)-6-[(1R,2R)-1,2,3-trihydroxypropyl]-5,6-dihydro-4H-pyran-2-carboxylic acid

>  <Synonyms>
MODIFIED SIALIC ACID

>  <Type>
NON-POLYMER

>  <Formula>
C12 H20 N4 O7

>  <MolecularWeight>
332.31

>  <ModifiedDate>
2011-06-04

>  <Parent>


>  <OneLetterCode>


>  <SubcomponentList>


>  <AmbiguousFlag>
N

>  <InChI>
InChI=1S/C12H20N4O7/c1-4(18)15-8-5(16-12(13)14)2-7(11(21)22)23-10(8)9(20)6(19)3-17/h2,5-6,8-10,17,19-20H,3H2,1H3,(H,15,18)(H,21,22)(H4,13,14,16)/t5-,6+,8+,9+,10+/m0/s1

>  <InChIKey>
ARAIBEBZBOPLMB-UFGQHTETSA-N

>  <SMILES>
CC(=O)N[C@@H]1[C@H](C=C(O[C@H]1[C@@H]([C@@H](CO)O)O)C(=O)O)N=C(N)N

$$$$
