1ODI_ADN_A_1237
  RCSB PDB12061703323D
Coordinates from PDB:1ODI:A:1237 Model:1 without hydrogens
 19 21  0  0  0  0            999 V2000
   -0.6350  -80.2750 -146.6140   O 0  0  0  0  0  0  0  0  0  0  0  0
    0.5970  -80.9160 -146.3410   C 0  0  0  0  0  0  0  0  0  0  0  0
    1.6660  -79.9270 -146.8450   C 0  0  0  0  0  0  0  0  0  0  0  0
    1.6620  -78.6220 -146.1490   O 0  0  0  0  0  0  0  0  0  0  0  0
    3.0750  -80.4490 -146.6260   C 0  0  0  0  0  0  0  0  0  0  0  0
    3.8090  -80.1230 -147.8230   O 0  0  0  0  0  0  0  0  0  0  0  0
    3.6340  -79.7220 -145.3790   C 0  0  0  0  0  0  0  0  0  0  0  0
    4.9000  -79.1020 -145.5840   O 0  0  0  0  0  0  0  0  0  0  0  0
    2.4670  -78.7730 -144.9650   C 0  0  0  0  0  0  0  0  0  0  0  0
    1.6410  -79.2150 -143.7730   N 0  0  0  0  0  0  0  0  0  0  0  0
    0.5610  -78.4890 -143.2370   C 0  0  0  0  0  0  0  0  0  0  0  0
   -0.0350  -79.0410 -142.2120   N 0  0  0  0  0  0  0  0  0  0  0  0
    0.6750  -80.2260 -142.0200   C 0  0  0  0  0  0  0  0  0  0  0  0
    0.5430  -81.3170 -141.0640   C 0  0  0  0  0  0  0  0  0  0  0  0
   -0.3950  -81.3370 -140.1120   N 0  0  0  0  0  0  0  0  0  0  0  0
    1.4360  -82.3630 -141.1640   N 0  0  0  0  0  0  0  0  0  0  0  0
    2.3940  -82.3520 -142.1330   C 0  0  0  0  0  0  0  0  0  0  0  0
    2.6100  -81.3940 -143.0770   N 0  0  0  0  0  0  0  0  0  0  0  0
    1.7160  -80.3590 -142.9690   C 0  0  0  0  0  0  0  0  0  0  0  0
  1  2  1  0  0  0  0
  2  3  1  0  0  0  0
  3  4  1  0  0  0  0
  3  5  1  0  0  0  0
  4  9  1  0  0  0  0
  5  6  1  0  0  0  0
  5  7  1  0  0  0  0
  7  8  1  0  0  0  0
  7  9  1  0  0  0  0
  9 10  1  0  0  0  0
 10 11  1  0  0  0  0
 10 19  1  0  0  0  0
 11 12  2  0  0  0  0
 12 13  1  0  0  0  0
 13 14  1  0  0  0  0
 13 19  2  0  0  0  0
 14 15  1  0  0  0  0
 14 16  2  0  0  0  0
 16 17  1  0  0  0  0
 17 18  2  0  0  0  0
 18 19  1  0  0  0  0
A    1
O5'
A    2
C5'
A    3
C4'
A    4
O4'
A    5
C3'
A    6
O3'
A    7
C2'
A    8
O2'
A    9
C1'
A   10
N9
A   11
C8
A   12
N7
A   13
C5
A   14
C6
A   15
N6
A   16
N1
A   17
C2
A   18
N3
A   19
C4
M  END
>  <InstanceId>
1ODI_ADN_A_1237

>  <ChemCompId>
ADN

>  <PdbId>
1ODI

>  <ChainId>
A

>  <ResidueNumber>
1237

>  <InsertionCode>


>  <Model>
1

>  <AltIds>


>  <MissingHeavyAtoms>
0

>  <ObservedFormula>
C10 N5 O4

>  <Name>
ADENOSINE

>  <SystematicName>
(2R,3R,4S,5R)-2-(6-aminopurin-9-yl)-5-(hydroxymethyl)oxolane-3,4-diol

>  <Synonyms>


>  <Type>
NON-POLYMER

>  <Formula>
C10 H13 N5 O4

>  <MolecularWeight>
267.241

>  <ModifiedDate>
2011-06-04

>  <Parent>


>  <OneLetterCode>


>  <SubcomponentList>


>  <AmbiguousFlag>
N

>  <InChI>
InChI=1S/C10H13N5O4/c11-8-5-9(13-2-12-8)15(3-14-5)10-7(18)6(17)4(1-16)19-10/h2-4,6-7,10,16-18H,1H2,(H2,11,12,13)/t4-,6-,7-,10-/m1/s1

>  <InChIKey>
OIRDTQYFTABQOQ-KQYNXXCUSA-N

>  <SMILES>
c1nc(c2c(n1)n(cn2)[C@H]3[C@@H]([C@@H]([C@H](O3)CO)O)O)N

$$$$
