3EL9_DR7_A_100


 56 58  0  0  0  0  0  0  0  0999 V2000
   20.9379   31.9294   15.4854 N   0  0  0  0  0  0  0  0  0  0  0  0
   19.8137   32.2234   16.1540 N   0  0  0  0  0  0  0  0  0  0  0  0
   18.8044   32.8444   15.5242 C   0  0  0  0  0  0  0  0  0  0  0  0
   18.7768   33.0863   14.3200 O   0  0  0  0  0  0  0  0  0  0  0  0
   19.7288   31.9842   17.1052 H   0  0  0  0  0  0  0  0  0  0  0  0
   17.7092   33.3461   16.4237 C   0  0  0  0  0  0  0  0  0  0  0  0
   17.9247   34.7666   16.5836 N   0  0  0  0  0  0  0  0  0  0  0  0
   18.3625   35.3053   17.7229 C   0  0  0  0  0  0  0  0  0  0  0  0
   18.6503   34.6494   18.7140 O   0  0  0  0  0  0  0  0  0  0  0  0
   17.7409   35.3608   15.8205 H   0  0  0  0  0  0  0  0  0  0  0  0
   18.4755   36.7531   17.7522 O   0  0  0  0  0  0  0  0  0  0  0  0
   17.3116   37.5452   18.0043 C   0  0  0  0  0  0  0  0  0  0  0  0
   16.2703   33.0553   15.9857 C   0  0  0  0  0  0  0  0  0  0  0  0
   15.3069   33.3028   17.1451 C   0  0  0  0  0  0  0  0  0  0  0  0
   16.1661   31.5784   15.6193 C   0  0  0  0  0  0  0  0  0  0  0  0
   15.8102   33.9224   14.8174 C   0  0  0  0  0  0  0  0  0  0  0  0
   21.2690   30.5121   15.4677 C   0  0  0  0  0  0  0  0  0  0  0  0
   20.0499   29.5974   15.4232 C   0  0  0  0  0  0  0  0  0  0  0  0
   20.3925   28.4925   16.2490 O   0  0  0  0  0  0  0  0  0  0  0  0
   21.1859   28.0594   15.8970 H   0  0  0  0  0  0  0  0  0  0  0  0
   19.6854   29.1355   14.0073 C   0  0  0  0  0  0  0  0  0  0  0  0
   21.4416   28.6204   12.3709 C   0  0  0  0  0  0  0  0  0  0  0  0
   21.1689   29.5727   11.6413 O   0  0  0  0  0  0  0  0  0  0  0  0
   20.7984   28.3311   13.5082 N   0  0  0  0  0  0  0  0  0  0  0  0
   21.0862   27.5463   14.0284 H   0  0  0  0  0  0  0  0  0  0  0  0
   22.5475   27.6609   12.0122 C   0  0  0  0  0  0  0  0  0  0  0  0
   21.7915   25.6706   10.8081 C   0  0  0  0  0  0  0  0  0  0  0  0
   21.8513   24.9112   11.7654 O   0  0  0  0  0  0  0  0  0  0  0  0
   22.0968   26.9615   10.8327 N   0  0  0  0  0  0  0  0  0  0  0  0
   22.0109   27.4732    9.9961 H   0  0  0  0  0  0  0  0  0  0  0  0
   22.1028   24.0442    8.9621 C   0  0  0  0  0  0  0  0  0  0  0  0
   21.4102   25.1679    9.5058 O   0  0  0  0  0  0  0  0  0  0  0  0
   23.9309   28.2786   11.8237 C   0  0  0  0  0  0  0  0  0  0  0  0
   24.9152   27.1325   12.0119 C   0  0  0  0  0  0  0  0  0  0  0  0
   24.1851   29.4095   12.8148 C   0  0  0  0  0  0  0  0  0  0  0  0
   24.0726   28.8535   10.4160 C   0  0  0  0  0  0  0  0  0  0  0  0
   18.4375   28.2561   14.0140 C   0  0  0  0  0  0  0  0  0  0  0  0
   17.9750   27.9363   12.6150 C   0  0  0  0  0  0  0  0  0  0  0  0
   18.3292   26.7178   12.0549 C   0  0  0  0  0  0  0  0  0  0  0  0
   17.9306   26.3849   10.7664 C   0  0  0  0  0  0  0  0  0  0  0  0
   17.1501   27.2693   10.0343 C   0  0  0  0  0  0  0  0  0  0  0  0
   16.7795   28.4911   10.6016 C   0  0  0  0  0  0  0  0  0  0  0  0
   17.1797   28.8218   11.8938 C   0  0  0  0  0  0  0  0  0  0  0  0
   22.1217   32.6265   16.0194 C   0  0  0  0  0  0  0  0  0  0  0  0
   22.0049   34.1378   15.9858 C   0  0  0  0  0  0  0  0  0  0  0  0
   22.0313   34.8443   17.1337 C   0  0  0  0  0  0  0  0  0  0  0  0
   21.9304   36.1719   17.0540 C   0  0  0  0  0  0  0  0  0  0  0  0
   21.8654   34.7798   14.9025 C   0  0  0  0  0  0  0  0  0  0  0  0
   21.7733   35.9753   14.8376 C   0  0  0  0  0  0  0  0  0  0  0  0
   21.7944   36.7503   15.8450 C   0  0  0  0  0  0  0  0  0  0  0  0
   21.6865   38.2583   15.7080 C   0  0  0  0  0  0  0  0  0  0  0  0
   21.3790   38.8479   14.4812 C   0  0  0  0  0  0  0  0  0  0  0  0
   21.2802   40.2315   14.3435 C   0  0  0  0  0  0  0  0  0  0  0  0
   21.4747   41.0407   15.4605 C   0  0  0  0  0  0  0  0  0  0  0  0
   21.7647   40.4253   16.6776 C   0  0  0  0  0  0  0  0  0  0  0  0
   21.8570   39.0860   16.7666 N   0  0  0  0  0  0  0  0  0  0  0  0
 31 32  1  0  0  0
 32 27  1  0  0  0
 27 28  2  0  0  0
 27 29  1  0  0  0
 29 26  1  0  0  0
 26 33  1  0  0  0
 26 22  1  0  0  0
 33 34  1  0  0  0
 33 35  1  0  0  0
 33 36  1  0  0  0
 22 23  2  0  0  0
 22 24  1  0  0  0
 24 21  1  0  0  0
 21 37  1  0  0  0
 21 18  1  0  0  0
 37 38  1  0  0  0
 38 39  2  0  0  0
 38 43  1  0  0  0
 39 40  1  0  0  0
 40 41  2  0  0  0
 41 42  1  0  0  0
 42 43  2  0  0  0
 18 19  1  0  0  0
 18 17  1  0  0  0
 17  1  1  0  0  0
  1  2  1  0  0  0
  1 44  1  0  0  0
  2  3  1  0  0  0
  3  4  2  0  0  0
  3  6  1  0  0  0
  6 13  1  0  0  0
  6  7  1  0  0  0
 13 14  1  0  0  0
 13 15  1  0  0  0
 13 16  1  0  0  0
  7  8  1  0  0  0
  8  9  2  0  0  0
  8 11  1  0  0  0
 11 12  1  0  0  0
 44 45  1  0  0  0
 45 46  1  0  0  0
 45 48  2  0  0  0
 46 47  2  0  0  0
 47 50  1  0  0  0
 48 49  1  0  0  0
 49 50  2  0  0  0
 50 51  1  0  0  0
 51 52  1  0  0  0
 51 56  2  0  0  0
 52 53  2  0  0  0
 53 54  1  0  0  0
 54 55  2  0  0  0
 55 56  1  0  0  0
 29 30  1  0  0  0
 24 25  1  0  0  0
 19 20  1  0  0  0
  2  5  1  0  0  0
  7 10  1  0  0  0
M  END
> <minimizedAffinity>
-10.76873

$$$$
3EL9_DR7_A_100


 56 58  0  0  0  0  0  0  0  0999 V2000
   21.2367   32.7510   15.7733 N   0  0  0  0  0  0  0  0  0  0  0  0
   20.0474   32.8284   16.3871 N   0  0  0  0  0  0  0  0  0  0  0  0
   18.9743   33.2694   15.7125 C   0  0  0  0  0  0  0  0  0  0  0  0
   18.9614   33.5224   14.5103 O   0  0  0  0  0  0  0  0  0  0  0  0
   19.9613   32.5621   17.3310 H   0  0  0  0  0  0  0  0  0  0  0  0
   17.7652   33.5524   16.5599 C   0  0  0  0  0  0  0  0  0  0  0  0
   17.7747   34.9722   16.8314 N   0  0  0  0  0  0  0  0  0  0  0  0
   18.2529   35.4858   17.9661 C   0  0  0  0  0  0  0  0  0  0  0  0
   18.7523   34.8115   18.8556 O   0  0  0  0  0  0  0  0  0  0  0  0
   17.4134   35.5853   16.1511 H   0  0  0  0  0  0  0  0  0  0  0  0
   18.1425   36.9258   18.1213 O   0  0  0  0  0  0  0  0  0  0  0  0
   16.8728   37.5047   18.4353 C   0  0  0  0  0  0  0  0  0  0  0  0
   16.4107   33.1104   15.9975 C   0  0  0  0  0  0  0  0  0  0  0  0
   16.0373   33.9671   14.7892 C   0  0  0  0  0  0  0  0  0  0  0  0
   15.3453   33.3446   17.0636 C   0  0  0  0  0  0  0  0  0  0  0  0
   16.3935   31.6528   15.5459 C   0  0  0  0  0  0  0  0  0  0  0  0
   21.5695   31.4223   15.2809 C   0  0  0  0  0  0  0  0  0  0  0  0
   22.1927   31.4215   13.8893 C   0  0  0  0  0  0  0  0  0  0  0  0
   21.1852   31.9519   13.0383 O   0  0  0  0  0  0  0  0  0  0  0  0
   20.3952   31.3910   13.0839 H   0  0  0  0  0  0  0  0  0  0  0  0
   22.6349   30.0304   13.4199 C   0  0  0  0  0  0  0  0  0  0  0  0
   20.6340   28.6369   13.1344 C   0  0  0  0  0  0  0  0  0  0  0  0
   20.6157   28.2620   14.3060 O   0  0  0  0  0  0  0  0  0  0  0  0
   21.5468   29.4703   12.6216 N   0  0  0  0  0  0  0  0  0  0  0  0
   21.4827   29.7154   11.6702 H   0  0  0  0  0  0  0  0  0  0  0  0
   19.6035   28.1491   12.1483 C   0  0  0  0  0  0  0  0  0  0  0  0
   20.3865   25.9671   11.3684 C   0  0  0  0  0  0  0  0  0  0  0  0
   21.0908   26.3987   10.4660 O   0  0  0  0  0  0  0  0  0  0  0  0
   19.6614   26.7076   12.1967 N   0  0  0  0  0  0  0  0  0  0  0  0
   19.1309   26.2462   12.8858 H   0  0  0  0  0  0  0  0  0  0  0  0
   19.4967   23.7726   10.6321 C   0  0  0  0  0  0  0  0  0  0  0  0
   20.2552   24.5396   11.5670 O   0  0  0  0  0  0  0  0  0  0  0  0
   18.1852   28.6768   12.3504 C   0  0  0  0  0  0  0  0  0  0  0  0
   17.4433   28.3475   11.0624 C   0  0  0  0  0  0  0  0  0  0  0  0
   18.1748   30.1739   12.6409 C   0  0  0  0  0  0  0  0  0  0  0  0
   17.5142   27.9704   13.5265 C   0  0  0  0  0  0  0  0  0  0  0  0
   23.8740   30.1120   12.5317 C   0  0  0  0  0  0  0  0  0  0  0  0
   24.1463   28.8025   11.8357 C   0  0  0  0  0  0  0  0  0  0  0  0
   23.9816   28.7283   10.4604 C   0  0  0  0  0  0  0  0  0  0  0  0
   24.2149   27.5401    9.7795 C   0  0  0  0  0  0  0  0  0  0  0  0
   24.6389   26.4164   10.4758 C   0  0  0  0  0  0  0  0  0  0  0  0
   24.8198   26.4923   11.8591 C   0  0  0  0  0  0  0  0  0  0  0  0
   24.5863   27.6850   12.5389 C   0  0  0  0  0  0  0  0  0  0  0  0
   22.3561   33.1670   16.6372 C   0  0  0  0  0  0  0  0  0  0  0  0
   22.3149   34.6326   17.0233 C   0  0  0  0  0  0  0  0  0  0  0  0
   22.4685   35.5851   16.0816 C   0  0  0  0  0  0  0  0  0  0  0  0
   22.4198   36.8607   16.4679 C   0  0  0  0  0  0  0  0  0  0  0  0
   22.1534   35.0103   18.2218 C   0  0  0  0  0  0  0  0  0  0  0  0
   22.1123   36.1608   18.5635 C   0  0  0  0  0  0  0  0  0  0  0  0
   22.2340   37.1473   17.7710 C   0  0  0  0  0  0  0  0  0  0  0  0
   22.1621   38.5853   18.2524 C   0  0  0  0  0  0  0  0  0  0  0  0
   21.0488   39.3801   17.9766 C   0  0  0  0  0  0  0  0  0  0  0  0
   20.9735   40.7024   18.4112 C   0  0  0  0  0  0  0  0  0  0  0  0
   22.0257   41.2344   19.1531 C   0  0  0  0  0  0  0  0  0  0  0  0
   23.1187   40.4137   19.4285 C   0  0  0  0  0  0  0  0  0  0  0  0
   23.1548   39.1440   18.9852 N   0  0  0  0  0  0  0  0  0  0  0  0
 31 32  1  0  0  0
 32 27  1  0  0  0
 27 28  2  0  0  0
 27 29  1  0  0  0
 29 26  1  0  0  0
 26 33  1  0  0  0
 26 22  1  0  0  0
 33 34  1  0  0  0
 33 35  1  0  0  0
 33 36  1  0  0  0
 22 23  2  0  0  0
 22 24  1  0  0  0
 24 21  1  0  0  0
 21 37  1  0  0  0
 21 18  1  0  0  0
 37 38  1  0  0  0
 38 39  2  0  0  0
 38 43  1  0  0  0
 39 40  1  0  0  0
 40 41  2  0  0  0
 41 42  1  0  0  0
 42 43  2  0  0  0
 18 19  1  0  0  0
 18 17  1  0  0  0
 17  1  1  0  0  0
  1  2  1  0  0  0
  1 44  1  0  0  0
  2  3  1  0  0  0
  3  4  2  0  0  0
  3  6  1  0  0  0
  6 13  1  0  0  0
  6  7  1  0  0  0
 13 14  1  0  0  0
 13 15  1  0  0  0
 13 16  1  0  0  0
  7  8  1  0  0  0
  8  9  2  0  0  0
  8 11  1  0  0  0
 11 12  1  0  0  0
 44 45  1  0  0  0
 45 46  1  0  0  0
 45 48  2  0  0  0
 46 47  2  0  0  0
 47 50  1  0  0  0
 48 49  1  0  0  0
 49 50  2  0  0  0
 50 51  1  0  0  0
 51 52  1  0  0  0
 51 56  2  0  0  0
 52 53  2  0  0  0
 53 54  1  0  0  0
 54 55  2  0  0  0
 55 56  1  0  0  0
 29 30  1  0  0  0
 24 25  1  0  0  0
 19 20  1  0  0  0
  2  5  1  0  0  0
  7 10  1  0  0  0
M  END
> <minimizedAffinity>
-9.94718

$$$$
3EL9_DR7_A_100


 56 58  0  0  0  0  0  0  0  0999 V2000
   20.2234   30.9746   15.1913 N   0  0  0  0  0  0  0  0  0  0  0  0
   19.2831   31.5539   15.9512 N   0  0  0  0  0  0  0  0  0  0  0  0
   18.4025   32.4006   15.3955 C   0  0  0  0  0  0  0  0  0  0  0  0
   18.3134   32.6232   14.1906 O   0  0  0  0  0  0  0  0  0  0  0  0
   19.2386   31.3586   16.9151 H   0  0  0  0  0  0  0  0  0  0  0  0
   17.5657   33.1769   16.3739 C   0  0  0  0  0  0  0  0  0  0  0  0
   18.0843   34.5263   16.3809 N   0  0  0  0  0  0  0  0  0  0  0  0
   18.5868   35.0995   17.4758 C   0  0  0  0  0  0  0  0  0  0  0  0
   18.6842   34.5294   18.5532 O   0  0  0  0  0  0  0  0  0  0  0  0
   18.0659   35.0434   15.5434 H   0  0  0  0  0  0  0  0  0  0  0  0
   19.0167   36.4806   17.3434 O   0  0  0  0  0  0  0  0  0  0  0  0
   18.9569   37.3485   18.4788 C   0  0  0  0  0  0  0  0  0  0  0  0
   16.0516   33.1723   16.1415 C   0  0  0  0  0  0  0  0  0  0  0  0
   15.6890   34.1364   15.0134 C   0  0  0  0  0  0  0  0  0  0  0  0
   15.3672   33.6798   17.4066 C   0  0  0  0  0  0  0  0  0  0  0  0
   15.5055   31.7991   15.7610 C   0  0  0  0  0  0  0  0  0  0  0  0
   20.1730   29.5199   15.1841 C   0  0  0  0  0  0  0  0  0  0  0  0
   19.3987   28.9383   14.0063 C   0  0  0  0  0  0  0  0  0  0  0  0
   18.6032   27.9030   14.5682 O   0  0  0  0  0  0  0  0  0  0  0  0
   19.1789   27.2440   14.9868 H   0  0  0  0  0  0  0  0  0  0  0  0
   20.3009   28.3969   12.8910 C   0  0  0  0  0  0  0  0  0  0  0  0
   19.9463   26.5423   11.3218 C   0  0  0  0  0  0  0  0  0  0  0  0
   21.1153   26.1614   11.3649 O   0  0  0  0  0  0  0  0  0  0  0  0
   19.4663   27.5877   12.0056 N   0  0  0  0  0  0  0  0  0  0  0  0
   18.5147   27.8205   11.9084 H   0  0  0  0  0  0  0  0  0  0  0  0
   18.9361   25.8468   10.4455 C   0  0  0  0  0  0  0  0  0  0  0  0
   19.0889   25.9092    8.0051 C   0  0  0  0  0  0  0  0  0  0  0  0
   17.9965   26.4284    7.8216 O   0  0  0  0  0  0  0  0  0  0  0  0
   19.6037   25.6035    9.1891 N   0  0  0  0  0  0  0  0  0  0  0  0
   20.4948   25.1856    9.2121 H   0  0  0  0  0  0  0  0  0  0  0  0
   20.9078   24.5226    7.0468 C   0  0  0  0  0  0  0  0  0  0  0  0
   19.9112   25.5303    6.8762 O   0  0  0  0  0  0  0  0  0  0  0  0
   18.3136   24.5781   11.0234 C   0  0  0  0  0  0  0  0  0  0  0  0
   17.7348   24.9884   12.3704 C   0  0  0  0  0  0  0  0  0  0  0  0
   19.3402   23.4594   11.1673 C   0  0  0  0  0  0  0  0  0  0  0  0
   17.1958   24.0694   10.1157 C   0  0  0  0  0  0  0  0  0  0  0  0
   20.9012   29.5303   12.0629 C   0  0  0  0  0  0  0  0  0  0  0  0
   22.3976   29.3947   11.9371 C   0  0  0  0  0  0  0  0  0  0  0  0
   22.9304   28.9391   10.7402 C   0  0  0  0  0  0  0  0  0  0  0  0
   24.3028   28.7926   10.5830 C   0  0  0  0  0  0  0  0  0  0  0  0
   25.1573   29.1254   11.6254 C   0  0  0  0  0  0  0  0  0  0  0  0
   24.6242   29.5986   12.8270 C   0  0  0  0  0  0  0  0  0  0  0  0
   23.2480   29.7454   12.9815 C   0  0  0  0  0  0  0  0  0  0  0  0
   21.5928   31.3415   15.5944 C   0  0  0  0  0  0  0  0  0  0  0  0
   21.7898   32.8313   15.7952 C   0  0  0  0  0  0  0  0  0  0  0  0
   22.0975   33.3149   17.0154 C   0  0  0  0  0  0  0  0  0  0  0  0
   22.2663   34.6317   17.1425 C   0  0  0  0  0  0  0  0  0  0  0  0
   21.6605   33.6627   14.8479 C   0  0  0  0  0  0  0  0  0  0  0  0
   21.8121   34.8477   14.9693 C   0  0  0  0  0  0  0  0  0  0  0  0
   22.1123   35.4223   16.0627 C   0  0  0  0  0  0  0  0  0  0  0  0
   22.3051   36.9250   16.1606 C   0  0  0  0  0  0  0  0  0  0  0  0
   23.2803   37.4710   16.9961 C   0  0  0  0  0  0  0  0  0  0  0  0
   23.4640   38.8492   17.0957 C   0  0  0  0  0  0  0  0  0  0  0  0
   22.6681   39.6976   16.3294 C   0  0  0  0  0  0  0  0  0  0  0  0
   21.7124   39.1254   15.4908 C   0  0  0  0  0  0  0  0  0  0  0  0
   21.5631   37.7897   15.4283 N   0  0  0  0  0  0  0  0  0  0  0  0
 31 32  1  0  0  0
 32 27  1  0  0  0
 27 28  2  0  0  0
 27 29  1  0  0  0
 29 26  1  0  0  0
 26 33  1  0  0  0
 26 22  1  0  0  0
 33 34  1  0  0  0
 33 35  1  0  0  0
 33 36  1  0  0  0
 22 23  2  0  0  0
 22 24  1  0  0  0
 24 21  1  0  0  0
 21 37  1  0  0  0
 21 18  1  0  0  0
 37 38  1  0  0  0
 38 39  2  0  0  0
 38 43  1  0  0  0
 39 40  1  0  0  0
 40 41  2  0  0  0
 41 42  1  0  0  0
 42 43  2  0  0  0
 18 19  1  0  0  0
 18 17  1  0  0  0
 17  1  1  0  0  0
  1  2  1  0  0  0
  1 44  1  0  0  0
  2  3  1  0  0  0
  3  4  2  0  0  0
  3  6  1  0  0  0
  6 13  1  0  0  0
  6  7  1  0  0  0
 13 14  1  0  0  0
 13 15  1  0  0  0
 13 16  1  0  0  0
  7  8  1  0  0  0
  8  9  2  0  0  0
  8 11  1  0  0  0
 11 12  1  0  0  0
 44 45  1  0  0  0
 45 46  1  0  0  0
 45 48  2  0  0  0
 46 47  2  0  0  0
 47 50  1  0  0  0
 48 49  1  0  0  0
 49 50  2  0  0  0
 50 51  1  0  0  0
 51 52  1  0  0  0
 51 56  2  0  0  0
 52 53  2  0  0  0
 53 54  1  0  0  0
 54 55  2  0  0  0
 55 56  1  0  0  0
 29 30  1  0  0  0
 24 25  1  0  0  0
 19 20  1  0  0  0
  2  5  1  0  0  0
  7 10  1  0  0  0
M  END
> <minimizedAffinity>
-9.53326

$$$$
3EL9_DR7_A_100


 56 58  0  0  0  0  0  0  0  0999 V2000
   20.5855   36.0444   17.6378 N   0  0  0  0  0  0  0  0  0  0  0  0
   19.6447   35.6025   16.7911 N   0  0  0  0  0  0  0  0  0  0  0  0
   18.6368   34.8437   17.2485 C   0  0  0  0  0  0  0  0  0  0  0  0
   18.4352   34.5920   18.4340 O   0  0  0  0  0  0  0  0  0  0  0  0
   19.6932   35.8342   15.8355 H   0  0  0  0  0  0  0  0  0  0  0  0
   17.7926   34.2018   16.1829 C   0  0  0  0  0  0  0  0  0  0  0  0
   18.0188   32.7773   16.2797 N   0  0  0  0  0  0  0  0  0  0  0  0
   18.7352   32.0988   15.3818 C   0  0  0  0  0  0  0  0  0  0  0  0
   19.2879   32.6208   14.4240 O   0  0  0  0  0  0  0  0  0  0  0  0
   17.6282   32.2878   17.0393 H   0  0  0  0  0  0  0  0  0  0  0  0
   18.8274   30.6627   15.5796 O   0  0  0  0  0  0  0  0  0  0  0  0
   20.0592   30.0916   16.0294 C   0  0  0  0  0  0  0  0  0  0  0  0
   16.2948   34.5222   16.2043 C   0  0  0  0  0  0  0  0  0  0  0  0
   15.5582   33.5359   17.1089 C   0  0  0  0  0  0  0  0  0  0  0  0
   15.7420   34.3411   14.7942 C   0  0  0  0  0  0  0  0  0  0  0  0
   15.9872   35.9268   16.7151 C   0  0  0  0  0  0  0  0  0  0  0  0
   20.3728   37.4047   18.1101 C   0  0  0  0  0  0  0  0  0  0  0  0
   21.3945   38.4051   17.5808 C   0  0  0  0  0  0  0  0  0  0  0  0
   21.9025   39.0547   18.7385 O   0  0  0  0  0  0  0  0  0  0  0  0
   21.1755   39.4912   19.2095 H   0  0  0  0  0  0  0  0  0  0  0  0
   20.8014   39.4189   16.5952 C   0  0  0  0  0  0  0  0  0  0  0  0
   18.5176   40.2925   16.8152 C   0  0  0  0  0  0  0  0  0  0  0  0
   18.1354   39.8195   15.7458 O   0  0  0  0  0  0  0  0  0  0  0  0
   19.7572   40.1579   17.3012 N   0  0  0  0  0  0  0  0  0  0  0  0
   19.9737   40.5725   18.1675 H   0  0  0  0  0  0  0  0  0  0  0  0
   17.5889   41.1079   17.6783 C   0  0  0  0  0  0  0  0  0  0  0  0
   17.6262   43.3744   16.7596 C   0  0  0  0  0  0  0  0  0  0  0  0
   18.6028   43.7529   17.3917 O   0  0  0  0  0  0  0  0  0  0  0  0
   17.0877   42.1640   16.8316 N   0  0  0  0  0  0  0  0  0  0  0  0
   16.2988   41.9747   16.2739 H   0  0  0  0  0  0  0  0  0  0  0  0
   15.5055   44.3678   15.9437 C   0  0  0  0  0  0  0  0  0  0  0  0
   16.9297   44.2908   15.8825 O   0  0  0  0  0  0  0  0  0  0  0  0
   16.4646   40.3346   18.3632 C   0  0  0  0  0  0  0  0  0  0  0  0
   16.0927   41.1600   19.5871 C   0  0  0  0  0  0  0  0  0  0  0  0
   16.8996   38.9235   18.7447 C   0  0  0  0  0  0  0  0  0  0  0  0
   15.2567   40.2141   17.4365 C   0  0  0  0  0  0  0  0  0  0  0  0
   21.8536   40.4227   16.1306 C   0  0  0  0  0  0  0  0  0  0  0  0
   22.0201   40.4003   14.6321 C   0  0  0  0  0  0  0  0  0  0  0  0
   21.2312   39.5393   13.8836 C   0  0  0  0  0  0  0  0  0  0  0  0
   21.3563   39.4811   12.5013 C   0  0  0  0  0  0  0  0  0  0  0  0
   22.2647   40.3078   11.8542 C   0  0  0  0  0  0  0  0  0  0  0  0
   23.0502   41.1865   12.6044 C   0  0  0  0  0  0  0  0  0  0  0  0
   22.9220   41.2435   13.9899 C   0  0  0  0  0  0  0  0  0  0  0  0
   21.9400   36.0126   17.0574 C   0  0  0  0  0  0  0  0  0  0  0  0
   22.2290   34.7593   16.2546 C   0  0  0  0  0  0  0  0  0  0  0  0
   22.3968   33.5776   16.8816 C   0  0  0  0  0  0  0  0  0  0  0  0
   22.6441   32.5017   16.1333 C   0  0  0  0  0  0  0  0  0  0  0  0
   22.3368   34.7765   14.9924 C   0  0  0  0  0  0  0  0  0  0  0  0
   22.5613   33.8043   14.3244 C   0  0  0  0  0  0  0  0  0  0  0  0
   22.7288   32.6355   14.7955 C   0  0  0  0  0  0  0  0  0  0  0  0
   22.9985   31.4355   13.9057 C   0  0  0  0  0  0  0  0  0  0  0  0
   24.2407   30.8000   13.9139 C   0  0  0  0  0  0  0  0  0  0  0  0
   24.5001   29.6992   13.0990 C   0  0  0  0  0  0  0  0  0  0  0  0
   23.4896   29.2129   12.2726 C   0  0  0  0  0  0  0  0  0  0  0  0
   22.2528   29.8563   12.2957 C   0  0  0  0  0  0  0  0  0  0  0  0
   22.0453   30.9200   13.0930 N   0  0  0  0  0  0  0  0  0  0  0  0
 31 32  1  0  0  0
 32 27  1  0  0  0
 27 28  2  0  0  0
 27 29  1  0  0  0
 29 26  1  0  0  0
 26 33  1  0  0  0
 26 22  1  0  0  0
 33 34  1  0  0  0
 33 35  1  0  0  0
 33 36  1  0  0  0
 22 23  2  0  0  0
 22 24  1  0  0  0
 24 21  1  0  0  0
 21 37  1  0  0  0
 21 18  1  0  0  0
 37 38  1  0  0  0
 38 39  2  0  0  0
 38 43  1  0  0  0
 39 40  1  0  0  0
 40 41  2  0  0  0
 41 42  1  0  0  0
 42 43  2  0  0  0
 18 19  1  0  0  0
 18 17  1  0  0  0
 17  1  1  0  0  0
  1  2  1  0  0  0
  1 44  1  0  0  0
  2  3  1  0  0  0
  3  4  2  0  0  0
  3  6  1  0  0  0
  6 13  1  0  0  0
  6  7  1  0  0  0
 13 14  1  0  0  0
 13 15  1  0  0  0
 13 16  1  0  0  0
  7  8  1  0  0  0
  8  9  2  0  0  0
  8 11  1  0  0  0
 11 12  1  0  0  0
 44 45  1  0  0  0
 45 46  1  0  0  0
 45 48  2  0  0  0
 46 47  2  0  0  0
 47 50  1  0  0  0
 48 49  1  0  0  0
 49 50  2  0  0  0
 50 51  1  0  0  0
 51 52  1  0  0  0
 51 56  2  0  0  0
 52 53  2  0  0  0
 53 54  1  0  0  0
 54 55  2  0  0  0
 55 56  1  0  0  0
 29 30  1  0  0  0
 24 25  1  0  0  0
 19 20  1  0  0  0
  2  5  1  0  0  0
  7 10  1  0  0  0
M  END
> <minimizedAffinity>
-9.49875

$$$$
3EL9_DR7_A_100


 56 58  0  0  0  0  0  0  0  0999 V2000
   19.5823   28.1349   12.4523 N   0  0  0  0  0  0  0  0  0  0  0  0
   20.8146   28.6466   12.5828 N   0  0  0  0  0  0  0  0  0  0  0  0
   21.3290   28.8474   13.8060 C   0  0  0  0  0  0  0  0  0  0  0  0
   20.7926   28.4977   14.8545 O   0  0  0  0  0  0  0  0  0  0  0  0
   21.3411   28.8746   11.7829 H   0  0  0  0  0  0  0  0  0  0  0  0
   22.5988   29.6517   13.8353 C   0  0  0  0  0  0  0  0  0  0  0  0
   23.1644   29.5785   12.5070 N   0  0  0  0  0  0  0  0  0  0  0  0
   24.3664   29.0534   12.2635 C   0  0  0  0  0  0  0  0  0  0  0  0
   25.0766   28.5607   13.1284 O   0  0  0  0  0  0  0  0  0  0  0  0
   22.6412   29.9307   11.7511 H   0  0  0  0  0  0  0  0  0  0  0  0
   24.8265   29.1020   10.8866 O   0  0  0  0  0  0  0  0  0  0  0  0
   23.8826   28.9480    9.8230 C   0  0  0  0  0  0  0  0  0  0  0  0
   22.4828   31.1057   14.3030 C   0  0  0  0  0  0  0  0  0  0  0  0
   21.7184   31.1747   15.6238 C   0  0  0  0  0  0  0  0  0  0  0  0
   21.6715   31.8820   13.2706 C   0  0  0  0  0  0  0  0  0  0  0  0
   23.8356   31.7765   14.5235 C   0  0  0  0  0  0  0  0  0  0  0  0
   19.5018   26.9934   11.5527 C   0  0  0  0  0  0  0  0  0  0  0  0
   18.1276   26.3334   11.5200 C   0  0  0  0  0  0  0  0  0  0  0  0
   17.8317   26.0393   12.8788 O   0  0  0  0  0  0  0  0  0  0  0  0
   18.5117   25.4474   13.2369 H   0  0  0  0  0  0  0  0  0  0  0  0
   18.0802   25.0659   10.6584 C   0  0  0  0  0  0  0  0  0  0  0  0
   19.4244   25.1815    8.6074 C   0  0  0  0  0  0  0  0  0  0  0  0
   18.4650   25.4458    7.8841 O   0  0  0  0  0  0  0  0  0  0  0  0
   19.3433   24.9841    9.9285 N   0  0  0  0  0  0  0  0  0  0  0  0
   20.1660   24.7759   10.4275 H   0  0  0  0  0  0  0  0  0  0  0  0
   20.8104   25.0332    8.0333 C   0  0  0  0  0  0  0  0  0  0  0  0
   22.9151   25.2252    9.2645 C   0  0  0  0  0  0  0  0  0  0  0  0
   23.4816   25.9302    8.4407 O   0  0  0  0  0  0  0  0  0  0  0  0
   21.6763   24.7627    9.1560 N   0  0  0  0  0  0  0  0  0  0  0  0
   21.3267   24.2012    9.8851 H   0  0  0  0  0  0  0  0  0  0  0  0
   24.6343   25.6218   11.0072 C   0  0  0  0  0  0  0  0  0  0  0  0
   23.6183   24.7872   10.4510 O   0  0  0  0  0  0  0  0  0  0  0  0
   20.9644   23.9969    6.9227 C   0  0  0  0  0  0  0  0  0  0  0  0
   21.4658   24.7723    5.7123 C   0  0  0  0  0  0  0  0  0  0  0  0
   19.6496   23.2818    6.6301 C   0  0  0  0  0  0  0  0  0  0  0  0
   21.9915   22.9381    7.3180 C   0  0  0  0  0  0  0  0  0  0  0  0
   17.9553   23.8125   11.5211 C   0  0  0  0  0  0  0  0  0  0  0  0
   16.7914   22.9556   11.0916 C   0  0  0  0  0  0  0  0  0  0  0  0
   16.3824   22.9970    9.7668 C   0  0  0  0  0  0  0  0  0  0  0  0
   15.3104   22.2293    9.3294 C   0  0  0  0  0  0  0  0  0  0  0  0
   14.6508   21.3926   10.2195 C   0  0  0  0  0  0  0  0  0  0  0  0
   15.0702   21.3378   11.5511 C   0  0  0  0  0  0  0  0  0  0  0  0
   16.1457   22.1077   11.9866 C   0  0  0  0  0  0  0  0  0  0  0  0
   18.6011   29.1200   11.9633 C   0  0  0  0  0  0  0  0  0  0  0  0
   18.0982   30.0634   13.0384 C   0  0  0  0  0  0  0  0  0  0  0  0
   17.3421   29.5939   14.0511 C   0  0  0  0  0  0  0  0  0  0  0  0
   16.9270   30.4604   14.9761 C   0  0  0  0  0  0  0  0  0  0  0  0
   18.3506   31.3048   13.0187 C   0  0  0  0  0  0  0  0  0  0  0  0
   17.9723   32.0802   13.8539 C   0  0  0  0  0  0  0  0  0  0  0  0
   17.2635   31.7595   14.8593 C   0  0  0  0  0  0  0  0  0  0  0  0
   16.8209   32.7776   15.8949 C   0  0  0  0  0  0  0  0  0  0  0  0
   15.4966   32.8288   16.3314 C   0  0  0  0  0  0  0  0  0  0  0  0
   15.0788   33.7611   17.2796 C   0  0  0  0  0  0  0  0  0  0  0  0
   16.0094   34.6482   17.8158 C   0  0  0  0  0  0  0  0  0  0  0  0
   17.3294   34.5649   17.3743 C   0  0  0  0  0  0  0  0  0  0  0  0
   17.6904   33.6537   16.4526 N   0  0  0  0  0  0  0  0  0  0  0  0
 31 32  1  0  0  0
 32 27  1  0  0  0
 27 28  2  0  0  0
 27 29  1  0  0  0
 29 26  1  0  0  0
 26 33  1  0  0  0
 26 22  1  0  0  0
 33 34  1  0  0  0
 33 35  1  0  0  0
 33 36  1  0  0  0
 22 23  2  0  0  0
 22 24  1  0  0  0
 24 21  1  0  0  0
 21 37  1  0  0  0
 21 18  1  0  0  0
 37 38  1  0  0  0
 38 39  2  0  0  0
 38 43  1  0  0  0
 39 40  1  0  0  0
 40 41  2  0  0  0
 41 42  1  0  0  0
 42 43  2  0  0  0
 18 19  1  0  0  0
 18 17  1  0  0  0
 17  1  1  0  0  0
  1  2  1  0  0  0
  1 44  1  0  0  0
  2  3  1  0  0  0
  3  4  2  0  0  0
  3  6  1  0  0  0
  6 13  1  0  0  0
  6  7  1  0  0  0
 13 14  1  0  0  0
 13 15  1  0  0  0
 13 16  1  0  0  0
  7  8  1  0  0  0
  8  9  2  0  0  0
  8 11  1  0  0  0
 11 12  1  0  0  0
 44 45  1  0  0  0
 45 46  1  0  0  0
 45 48  2  0  0  0
 46 47  2  0  0  0
 47 50  1  0  0  0
 48 49  1  0  0  0
 49 50  2  0  0  0
 50 51  1  0  0  0
 51 52  1  0  0  0
 51 56  2  0  0  0
 52 53  2  0  0  0
 53 54  1  0  0  0
 54 55  2  0  0  0
 55 56  1  0  0  0
 29 30  1  0  0  0
 24 25  1  0  0  0
 19 20  1  0  0  0
  2  5  1  0  0  0
  7 10  1  0  0  0
M  END
> <minimizedAffinity>
-9.44367

$$$$
3EL9_DR7_A_100


 56 58  0  0  0  0  0  0  0  0999 V2000
   18.5226   30.7096   15.0856 N   0  0  0  0  0  0  0  0  0  0  0  0
   19.3719   31.7372   14.9439 N   0  0  0  0  0  0  0  0  0  0  0  0
   20.5742   31.6977   15.5389 C   0  0  0  0  0  0  0  0  0  0  0  0
   21.0233   30.7253   16.1408 O   0  0  0  0  0  0  0  0  0  0  0  0
   19.1141   32.5193   14.4044 H   0  0  0  0  0  0  0  0  0  0  0  0
   21.3324   32.9957   15.5227 C   0  0  0  0  0  0  0  0  0  0  0  0
   21.6356   33.3138   16.8998 N   0  0  0  0  0  0  0  0  0  0  0  0
   21.4216   34.5216   17.4245 C   0  0  0  0  0  0  0  0  0  0  0  0
   20.9231   35.4497   16.8035 O   0  0  0  0  0  0  0  0  0  0  0  0
   22.0157   32.6103   17.4741 H   0  0  0  0  0  0  0  0  0  0  0  0
   21.8299   34.7083   18.8059 O   0  0  0  0  0  0  0  0  0  0  0  0
   20.9206   35.3061   19.7341 C   0  0  0  0  0  0  0  0  0  0  0  0
   22.5953   33.0454   14.6572 C   0  0  0  0  0  0  0  0  0  0  0  0
   22.7995   34.4546   14.1041 C   0  0  0  0  0  0  0  0  0  0  0  0
   22.3998   32.1159   13.4637 C   0  0  0  0  0  0  0  0  0  0  0  0
   23.8620   32.6664   15.4190 C   0  0  0  0  0  0  0  0  0  0  0  0
   18.2888   29.9549   13.8631 C   0  0  0  0  0  0  0  0  0  0  0  0
   18.7753   28.5114   13.9303 C   0  0  0  0  0  0  0  0  0  0  0  0
   20.0220   28.5780   14.6099 O   0  0  0  0  0  0  0  0  0  0  0  0
   20.6316   29.1450   14.1122 H   0  0  0  0  0  0  0  0  0  0  0  0
   18.9323   27.8560   12.5531 C   0  0  0  0  0  0  0  0  0  0  0  0
   21.2646   27.8580   11.7867 C   0  0  0  0  0  0  0  0  0  0  0  0
   21.1464   28.8957   11.1366 O   0  0  0  0  0  0  0  0  0  0  0  0
   20.2772   27.2887   12.4879 N   0  0  0  0  0  0  0  0  0  0  0  0
   20.4641   26.4559   12.9786 H   0  0  0  0  0  0  0  0  0  0  0  0
   22.5739   27.1119   11.8244 C   0  0  0  0  0  0  0  0  0  0  0  0
   22.1143   25.0275   10.6301 C   0  0  0  0  0  0  0  0  0  0  0  0
   21.6223   24.4393   11.5833 O   0  0  0  0  0  0  0  0  0  0  0  0
   22.5822   26.2687   10.6529 N   0  0  0  0  0  0  0  0  0  0  0  0
   22.9578   26.6369    9.8207 H   0  0  0  0  0  0  0  0  0  0  0  0
   23.4098   24.6385    8.5516 C   0  0  0  0  0  0  0  0  0  0  0  0
   22.2698   24.3498    9.3609 O   0  0  0  0  0  0  0  0  0  0  0  0
   23.8299   27.9742   11.9239 C   0  0  0  0  0  0  0  0  0  0  0  0
   24.9913   26.9920   11.9890 C   0  0  0  0  0  0  0  0  0  0  0  0
   23.7938   28.8874   13.1448 C   0  0  0  0  0  0  0  0  0  0  0  0
   23.9712   28.8580   10.6864 C   0  0  0  0  0  0  0  0  0  0  0  0
   17.9334   26.7172   12.3629 C   0  0  0  0  0  0  0  0  0  0  0  0
   18.0113   26.1354   10.9741 C   0  0  0  0  0  0  0  0  0  0  0  0
   18.1931   24.7678   10.8304 C   0  0  0  0  0  0  0  0  0  0  0  0
   18.2773   24.1904    9.5697 C   0  0  0  0  0  0  0  0  0  0  0  0
   18.1571   24.9837    8.4368 C   0  0  0  0  0  0  0  0  0  0  0  0
   17.9592   26.3595    8.5787 C   0  0  0  0  0  0  0  0  0  0  0  0
   17.8741   26.9355    9.8437 C   0  0  0  0  0  0  0  0  0  0  0  0
   17.1969   31.1251   15.5780 C   0  0  0  0  0  0  0  0  0  0  0  0
   17.1281   32.5843   15.9838 C   0  0  0  0  0  0  0  0  0  0  0  0
   16.3957   33.4543   15.2598 C   0  0  0  0  0  0  0  0  0  0  0  0
   16.3612   34.7267   15.6582 C   0  0  0  0  0  0  0  0  0  0  0  0
   17.7550   33.0355   16.9881 C   0  0  0  0  0  0  0  0  0  0  0  0
   17.7211   34.1829   17.3407 C   0  0  0  0  0  0  0  0  0  0  0  0
   17.0612   35.0941   16.7489 C   0  0  0  0  0  0  0  0  0  0  0  0
   17.0417   36.5295   17.2430 C   0  0  0  0  0  0  0  0  0  0  0  0
   16.0361   37.4119   16.8464 C   0  0  0  0  0  0  0  0  0  0  0  0
   16.0100   38.7325   17.2917 C   0  0  0  0  0  0  0  0  0  0  0  0
   17.0001   39.1739   18.1666 C   0  0  0  0  0  0  0  0  0  0  0  0
   17.9837   38.2673   18.5599 C   0  0  0  0  0  0  0  0  0  0  0  0
   17.9761   37.0022   18.1021 N   0  0  0  0  0  0  0  0  0  0  0  0
 31 32  1  0  0  0
 32 27  1  0  0  0
 27 28  2  0  0  0
 27 29  1  0  0  0
 29 26  1  0  0  0
 26 33  1  0  0  0
 26 22  1  0  0  0
 33 34  1  0  0  0
 33 35  1  0  0  0
 33 36  1  0  0  0
 22 23  2  0  0  0
 22 24  1  0  0  0
 24 21  1  0  0  0
 21 37  1  0  0  0
 21 18  1  0  0  0
 37 38  1  0  0  0
 38 39  2  0  0  0
 38 43  1  0  0  0
 39 40  1  0  0  0
 40 41  2  0  0  0
 41 42  1  0  0  0
 42 43  2  0  0  0
 18 19  1  0  0  0
 18 17  1  0  0  0
 17  1  1  0  0  0
  1  2  1  0  0  0
  1 44  1  0  0  0
  2  3  1  0  0  0
  3  4  2  0  0  0
  3  6  1  0  0  0
  6 13  1  0  0  0
  6  7  1  0  0  0
 13 14  1  0  0  0
 13 15  1  0  0  0
 13 16  1  0  0  0
  7  8  1  0  0  0
  8  9  2  0  0  0
  8 11  1  0  0  0
 11 12  1  0  0  0
 44 45  1  0  0  0
 45 46  1  0  0  0
 45 48  2  0  0  0
 46 47  2  0  0  0
 47 50  1  0  0  0
 48 49  1  0  0  0
 49 50  2  0  0  0
 50 51  1  0  0  0
 51 52  1  0  0  0
 51 56  2  0  0  0
 52 53  2  0  0  0
 53 54  1  0  0  0
 54 55  2  0  0  0
 55 56  1  0  0  0
 29 30  1  0  0  0
 24 25  1  0  0  0
 19 20  1  0  0  0
  2  5  1  0  0  0
  7 10  1  0  0  0
M  END
> <minimizedAffinity>
-9.41318

$$$$
3EL9_DR7_A_100


 56 58  0  0  0  0  0  0  0  0999 V2000
   19.5481   27.9755   12.1347 N   0  0  0  0  0  0  0  0  0  0  0  0
   20.7181   28.5748   11.8721 N   0  0  0  0  0  0  0  0  0  0  0  0
   21.5865   28.8112   12.8676 C   0  0  0  0  0  0  0  0  0  0  0  0
   21.4444   28.4226   14.0244 O   0  0  0  0  0  0  0  0  0  0  0  0
   20.9399   28.8411   10.9506 H   0  0  0  0  0  0  0  0  0  0  0  0
   22.7393   29.7052   12.5043 C   0  0  0  0  0  0  0  0  0  0  0  0
   23.0235   30.5076   13.6726 N   0  0  0  0  0  0  0  0  0  0  0  0
   22.4669   31.7023   13.8792 C   0  0  0  0  0  0  0  0  0  0  0  0
   21.6485   32.2065   13.1234 O   0  0  0  0  0  0  0  0  0  0  0  0
   23.6537   30.1580   14.3434 H   0  0  0  0  0  0  0  0  0  0  0  0
   22.8932   32.4173   15.0695 O   0  0  0  0  0  0  0  0  0  0  0  0
   22.5149   31.9269   16.3588 C   0  0  0  0  0  0  0  0  0  0  0  0
   24.0078   29.0188   11.9883 C   0  0  0  0  0  0  0  0  0  0  0  0
   24.0109   27.5456   12.3925 C   0  0  0  0  0  0  0  0  0  0  0  0
   25.2151   29.6720   12.6532 C   0  0  0  0  0  0  0  0  0  0  0  0
   24.1471   29.0753   10.4697 C   0  0  0  0  0  0  0  0  0  0  0  0
   19.3717   26.6925   11.4702 C   0  0  0  0  0  0  0  0  0  0  0  0
   17.9981   26.0693   11.6933 C   0  0  0  0  0  0  0  0  0  0  0  0
   18.0472   25.5406   13.0118 O   0  0  0  0  0  0  0  0  0  0  0  0
   18.7590   24.8842   13.0707 H   0  0  0  0  0  0  0  0  0  0  0  0
   17.6509   24.9776   10.6741 C   0  0  0  0  0  0  0  0  0  0  0  0
   18.1698   25.2881    8.2947 C   0  0  0  0  0  0  0  0  0  0  0  0
   16.9903   25.3570    7.9521 O   0  0  0  0  0  0  0  0  0  0  0  0
   18.5815   25.1099    9.5555 N   0  0  0  0  0  0  0  0  0  0  0  0
   19.5483   25.0661    9.7362 H   0  0  0  0  0  0  0  0  0  0  0  0
   19.2790   25.3808    7.2781 C   0  0  0  0  0  0  0  0  0  0  0  0
   21.0611   23.8264    7.9032 C   0  0  0  0  0  0  0  0  0  0  0  0
   21.7103   24.6317    8.5564 O   0  0  0  0  0  0  0  0  0  0  0  0
   19.9219   24.0885    7.2757 N   0  0  0  0  0  0  0  0  0  0  0  0
   19.4889   23.3574    6.7783 H   0  0  0  0  0  0  0  0  0  0  0  0
   22.1780   22.1194    6.4931 C   0  0  0  0  0  0  0  0  0  0  0  0
   21.5490   22.4759    7.7241 O   0  0  0  0  0  0  0  0  0  0  0  0
   18.8636   25.8215    5.8766 C   0  0  0  0  0  0  0  0  0  0  0  0
   20.1158   25.6854    5.0216 C   0  0  0  0  0  0  0  0  0  0  0  0
   18.3269   27.2490    5.8685 C   0  0  0  0  0  0  0  0  0  0  0  0
   17.7663   24.9092    5.3324 C   0  0  0  0  0  0  0  0  0  0  0  0
   17.8298   23.5838   11.2706 C   0  0  0  0  0  0  0  0  0  0  0  0
   16.6197   22.7168   11.0309 C   0  0  0  0  0  0  0  0  0  0  0  0
   16.0744   22.0185   12.0982 C   0  0  0  0  0  0  0  0  0  0  0  0
   14.9639   21.2028   11.9211 C   0  0  0  0  0  0  0  0  0  0  0  0
   14.3758   21.0986   10.6678 C   0  0  0  0  0  0  0  0  0  0  0  0
   14.9142   21.8125    9.5942 C   0  0  0  0  0  0  0  0  0  0  0  0
   16.0267   22.6302    9.7748 C   0  0  0  0  0  0  0  0  0  0  0  0
   18.3848   28.8003   11.7621 C   0  0  0  0  0  0  0  0  0  0  0  0
   17.9413   29.7552   12.8530 C   0  0  0  0  0  0  0  0  0  0  0  0
   17.1479   29.3197   13.8523 C   0  0  0  0  0  0  0  0  0  0  0  0
   16.7877   30.1948   14.7921 C   0  0  0  0  0  0  0  0  0  0  0  0
   18.2790   30.9763   12.8592 C   0  0  0  0  0  0  0  0  0  0  0  0
   17.9498   31.7597   13.7076 C   0  0  0  0  0  0  0  0  0  0  0  0
   17.2140   31.4695   14.7028 C   0  0  0  0  0  0  0  0  0  0  0  0
   16.8361   32.4955   15.7560 C   0  0  0  0  0  0  0  0  0  0  0  0
   15.5004   32.7247   16.0887 C   0  0  0  0  0  0  0  0  0  0  0  0
   15.1421   33.6662   17.0521 C   0  0  0  0  0  0  0  0  0  0  0  0
   16.1418   34.3796   17.7094 C   0  0  0  0  0  0  0  0  0  0  0  0
   17.4688   34.1196   17.3695 C   0  0  0  0  0  0  0  0  0  0  0  0
   17.7721   33.2063   16.4293 N   0  0  0  0  0  0  0  0  0  0  0  0
 31 32  1  0  0  0
 32 27  1  0  0  0
 27 28  2  0  0  0
 27 29  1  0  0  0
 29 26  1  0  0  0
 26 33  1  0  0  0
 26 22  1  0  0  0
 33 34  1  0  0  0
 33 35  1  0  0  0
 33 36  1  0  0  0
 22 23  2  0  0  0
 22 24  1  0  0  0
 24 21  1  0  0  0
 21 37  1  0  0  0
 21 18  1  0  0  0
 37 38  1  0  0  0
 38 39  2  0  0  0
 38 43  1  0  0  0
 39 40  1  0  0  0
 40 41  2  0  0  0
 41 42  1  0  0  0
 42 43  2  0  0  0
 18 19  1  0  0  0
 18 17  1  0  0  0
 17  1  1  0  0  0
  1  2  1  0  0  0
  1 44  1  0  0  0
  2  3  1  0  0  0
  3  4  2  0  0  0
  3  6  1  0  0  0
  6 13  1  0  0  0
  6  7  1  0  0  0
 13 14  1  0  0  0
 13 15  1  0  0  0
 13 16  1  0  0  0
  7  8  1  0  0  0
  8  9  2  0  0  0
  8 11  1  0  0  0
 11 12  1  0  0  0
 44 45  1  0  0  0
 45 46  1  0  0  0
 45 48  2  0  0  0
 46 47  2  0  0  0
 47 50  1  0  0  0
 48 49  1  0  0  0
 49 50  2  0  0  0
 50 51  1  0  0  0
 51 52  1  0  0  0
 51 56  2  0  0  0
 52 53  2  0  0  0
 53 54  1  0  0  0
 54 55  2  0  0  0
 55 56  1  0  0  0
 29 30  1  0  0  0
 24 25  1  0  0  0
 19 20  1  0  0  0
  2  5  1  0  0  0
  7 10  1  0  0  0
M  END
> <minimizedAffinity>
-9.28241

$$$$
3EL9_DR7_A_100


 56 58  0  0  0  0  0  0  0  0999 V2000
   21.4209   33.0571   15.6166 N   0  0  0  0  0  0  0  0  0  0  0  0
   20.1540   33.0582   15.1781 N   0  0  0  0  0  0  0  0  0  0  0  0
   19.3812   31.9769   15.3639 C   0  0  0  0  0  0  0  0  0  0  0  0
   19.7106   30.9870   16.0129 O   0  0  0  0  0  0  0  0  0  0  0  0
   19.7911   33.8509   14.7207 H   0  0  0  0  0  0  0  0  0  0  0  0
   18.0770   31.9938   14.6163 C   0  0  0  0  0  0  0  0  0  0  0  0
   17.7921   30.6241   14.2524 N   0  0  0  0  0  0  0  0  0  0  0  0
   17.9875   30.1500   13.0207 C   0  0  0  0  0  0  0  0  0  0  0  0
   18.4524   30.8155   12.1062 O   0  0  0  0  0  0  0  0  0  0  0  0
   17.4395   30.0161   14.9418 H   0  0  0  0  0  0  0  0  0  0  0  0
   17.6008   28.7690   12.7904 O   0  0  0  0  0  0  0  0  0  0  0  0
   17.5977   27.8470   13.8838 C   0  0  0  0  0  0  0  0  0  0  0  0
   16.8815   32.6318   15.3305 C   0  0  0  0  0  0  0  0  0  0  0  0
   17.2910   33.1027   16.7248 C   0  0  0  0  0  0  0  0  0  0  0  0
   15.8033   31.5682   15.5117 C   0  0  0  0  0  0  0  0  0  0  0  0
   16.3126   33.8389   14.5902 C   0  0  0  0  0  0  0  0  0  0  0  0
   21.7333   34.1351   16.5434 C   0  0  0  0  0  0  0  0  0  0  0  0
   20.7666   35.3117   16.4646 C   0  0  0  0  0  0  0  0  0  0  0  0
   20.8530   35.7653   15.1203 O   0  0  0  0  0  0  0  0  0  0  0  0
   21.7657   36.0301   14.9264 H   0  0  0  0  0  0  0  0  0  0  0  0
   21.0972   36.4395   17.4494 C   0  0  0  0  0  0  0  0  0  0  0  0
   21.9026   38.6452   16.7328 C   0  0  0  0  0  0  0  0  0  0  0  0
   22.9771   38.5466   17.3238 O   0  0  0  0  0  0  0  0  0  0  0  0
   20.9508   37.7045   16.7329 N   0  0  0  0  0  0  0  0  0  0  0  0
   20.1204   37.8711   16.2311 H   0  0  0  0  0  0  0  0  0  0  0  0
   21.5574   39.8890   15.9543 C   0  0  0  0  0  0  0  0  0  0  0  0
   21.7437   39.9524   13.5163 C   0  0  0  0  0  0  0  0  0  0  0  0
   22.5662   40.8571   13.4741 O   0  0  0  0  0  0  0  0  0  0  0  0
   21.2211   39.4419   14.6238 N   0  0  0  0  0  0  0  0  0  0  0  0
   20.5643   38.7141   14.5325 H   0  0  0  0  0  0  0  0  0  0  0  0
   21.8201   39.7528   11.0457 C   0  0  0  0  0  0  0  0  0  0  0  0
   21.2244   39.3859   12.2901 O   0  0  0  0  0  0  0  0  0  0  0  0
   20.4689   40.7729   16.5585 C   0  0  0  0  0  0  0  0  0  0  0  0
   20.5854   40.5861   18.0649 C   0  0  0  0  0  0  0  0  0  0  0  0
   19.0831   40.3923   16.0480 C   0  0  0  0  0  0  0  0  0  0  0  0
   20.7099   42.2379   16.2008 C   0  0  0  0  0  0  0  0  0  0  0  0
   20.1247   36.4520   18.6262 C   0  0  0  0  0  0  0  0  0  0  0  0
   18.7841   37.0196   18.2336 C   0  0  0  0  0  0  0  0  0  0  0  0
   17.9842   36.3023   17.3564 C   0  0  0  0  0  0  0  0  0  0  0  0
   16.7449   36.7911   16.9627 C   0  0  0  0  0  0  0  0  0  0  0  0
   16.2872   38.0009   17.4669 C   0  0  0  0  0  0  0  0  0  0  0  0
   17.0846   38.7184   18.3621 C   0  0  0  0  0  0  0  0  0  0  0  0
   18.3261   38.2256   18.7559 C   0  0  0  0  0  0  0  0  0  0  0  0
   22.4059   33.1492   14.5240 C   0  0  0  0  0  0  0  0  0  0  0  0
   22.6994   31.8205   13.8554 C   0  0  0  0  0  0  0  0  0  0  0  0
   21.8024   31.2760   13.0090 C   0  0  0  0  0  0  0  0  0  0  0  0
   22.1066   30.1084   12.4407 C   0  0  0  0  0  0  0  0  0  0  0  0
   23.7689   31.1771   14.0735 C   0  0  0  0  0  0  0  0  0  0  0  0
   24.0361   30.1251   13.5599 C   0  0  0  0  0  0  0  0  0  0  0  0
   23.2793   29.5166   12.7396 C   0  0  0  0  0  0  0  0  0  0  0  0
   23.6697   28.1925   12.1078 C   0  0  0  0  0  0  0  0  0  0  0  0
   24.9800   27.9542   11.6913 C   0  0  0  0  0  0  0  0  0  0  0  0
   25.3488   26.7433   11.1075 C   0  0  0  0  0  0  0  0  0  0  0  0
   24.3909   25.7436   10.9544 C   0  0  0  0  0  0  0  0  0  0  0  0
   23.0931   26.0018   11.3938 C   0  0  0  0  0  0  0  0  0  0  0  0
   22.7768   27.1867   11.9470 N   0  0  0  0  0  0  0  0  0  0  0  0
 31 32  1  0  0  0
 32 27  1  0  0  0
 27 28  2  0  0  0
 27 29  1  0  0  0
 29 26  1  0  0  0
 26 33  1  0  0  0
 26 22  1  0  0  0
 33 34  1  0  0  0
 33 35  1  0  0  0
 33 36  1  0  0  0
 22 23  2  0  0  0
 22 24  1  0  0  0
 24 21  1  0  0  0
 21 37  1  0  0  0
 21 18  1  0  0  0
 37 38  1  0  0  0
 38 39  2  0  0  0
 38 43  1  0  0  0
 39 40  1  0  0  0
 40 41  2  0  0  0
 41 42  1  0  0  0
 42 43  2  0  0  0
 18 19  1  0  0  0
 18 17  1  0  0  0
 17  1  1  0  0  0
  1  2  1  0  0  0
  1 44  1  0  0  0
  2  3  1  0  0  0
  3  4  2  0  0  0
  3  6  1  0  0  0
  6 13  1  0  0  0
  6  7  1  0  0  0
 13 14  1  0  0  0
 13 15  1  0  0  0
 13 16  1  0  0  0
  7  8  1  0  0  0
  8  9  2  0  0  0
  8 11  1  0  0  0
 11 12  1  0  0  0
 44 45  1  0  0  0
 45 46  1  0  0  0
 45 48  2  0  0  0
 46 47  2  0  0  0
 47 50  1  0  0  0
 48 49  1  0  0  0
 49 50  2  0  0  0
 50 51  1  0  0  0
 51 52  1  0  0  0
 51 56  2  0  0  0
 52 53  2  0  0  0
 53 54  1  0  0  0
 54 55  2  0  0  0
 55 56  1  0  0  0
 29 30  1  0  0  0
 24 25  1  0  0  0
 19 20  1  0  0  0
  2  5  1  0  0  0
  7 10  1  0  0  0
M  END
> <minimizedAffinity>
-9.17069

$$$$
3EL9_DR7_A_100


 56 58  0  0  0  0  0  0  0  0999 V2000
   18.6559   30.8051   15.2207 N   0  0  0  0  0  0  0  0  0  0  0  0
   19.4908   31.8440   15.0763 N   0  0  0  0  0  0  0  0  0  0  0  0
   20.6904   31.8261   15.6775 C   0  0  0  0  0  0  0  0  0  0  0  0
   21.1507   30.8645   16.2881 O   0  0  0  0  0  0  0  0  0  0  0  0
   19.2243   32.6187   14.5303 H   0  0  0  0  0  0  0  0  0  0  0  0
   21.4296   33.1351   15.6564 C   0  0  0  0  0  0  0  0  0  0  0  0
   21.8396   33.3995   17.0171 N   0  0  0  0  0  0  0  0  0  0  0  0
   21.5719   34.5485   17.6402 C   0  0  0  0  0  0  0  0  0  0  0  0
   20.9326   35.4593   17.1332 O   0  0  0  0  0  0  0  0  0  0  0  0
   22.3368   32.7032   17.5041 H   0  0  0  0  0  0  0  0  0  0  0  0
   22.0983   34.6921   18.9863 O   0  0  0  0  0  0  0  0  0  0  0  0
   22.6432   35.9486   19.3988 C   0  0  0  0  0  0  0  0  0  0  0  0
   22.6176   33.2403   14.6951 C   0  0  0  0  0  0  0  0  0  0  0  0
   22.3753   32.3722   13.4616 C   0  0  0  0  0  0  0  0  0  0  0  0
   23.8564   32.6925   15.3964 C   0  0  0  0  0  0  0  0  0  0  0  0
   22.8732   34.6637   14.2080 C   0  0  0  0  0  0  0  0  0  0  0  0
   18.5728   29.9389   14.0538 C   0  0  0  0  0  0  0  0  0  0  0  0
   19.0777   28.5220   14.3039 C   0  0  0  0  0  0  0  0  0  0  0  0
   19.8281   28.6094   15.5079 O   0  0  0  0  0  0  0  0  0  0  0  0
   20.5557   29.2400   15.3904 H   0  0  0  0  0  0  0  0  0  0  0  0
   19.9347   27.9690   13.1590 C   0  0  0  0  0  0  0  0  0  0  0  0
   19.5545   26.1868   11.5139 C   0  0  0  0  0  0  0  0  0  0  0  0
   20.7502   25.9315   11.3776 O   0  0  0  0  0  0  0  0  0  0  0  0
   19.0714   27.1308   12.3301 N   0  0  0  0  0  0  0  0  0  0  0  0
   18.0971   27.2656   12.3739 H   0  0  0  0  0  0  0  0  0  0  0  0
   18.5080   25.4419   10.7250 C   0  0  0  0  0  0  0  0  0  0  0  0
   17.9238   27.0465    8.9739 C   0  0  0  0  0  0  0  0  0  0  0  0
   17.1851   27.7310    9.6685 O   0  0  0  0  0  0  0  0  0  0  0  0
   18.5775   25.9666    9.3822 N   0  0  0  0  0  0  0  0  0  0  0  0
   19.1441   25.4946    8.7298 H   0  0  0  0  0  0  0  0  0  0  0  0
   18.3664   26.3072    6.6486 C   0  0  0  0  0  0  0  0  0  0  0  0
   18.1007   27.3623    7.5728 O   0  0  0  0  0  0  0  0  0  0  0  0
   18.6091   23.9188   10.7555 C   0  0  0  0  0  0  0  0  0  0  0  0
   19.7981   23.5741    9.8695 C   0  0  0  0  0  0  0  0  0  0  0  0
   17.3267   23.2569   10.2622 C   0  0  0  0  0  0  0  0  0  0  0  0
   18.8676   23.4283   12.1785 C   0  0  0  0  0  0  0  0  0  0  0  0
   20.4803   29.0925   12.2810 C   0  0  0  0  0  0  0  0  0  0  0  0
   21.9855   29.0553   12.2018 C   0  0  0  0  0  0  0  0  0  0  0  0
   22.5896   29.0186   10.9537 C   0  0  0  0  0  0  0  0  0  0  0  0
   23.9730   28.9766   10.8344 C   0  0  0  0  0  0  0  0  0  0  0  0
   24.7658   28.9933   11.9740 C   0  0  0  0  0  0  0  0  0  0  0  0
   24.1602   29.0452   13.2320 C   0  0  0  0  0  0  0  0  0  0  0  0
   22.7733   29.0882   13.3486 C   0  0  0  0  0  0  0  0  0  0  0  0
   17.2754   31.2176   15.5316 C   0  0  0  0  0  0  0  0  0  0  0  0
   17.1548   32.6676   15.9577 C   0  0  0  0  0  0  0  0  0  0  0  0
   16.4248   33.5305   15.2227 C   0  0  0  0  0  0  0  0  0  0  0  0
   16.3435   34.7947   15.6397 C   0  0  0  0  0  0  0  0  0  0  0  0
   17.7351   33.1180   16.9900 C   0  0  0  0  0  0  0  0  0  0  0  0
   17.6593   34.2582   17.3591 C   0  0  0  0  0  0  0  0  0  0  0  0
   16.9962   35.1619   16.7594 C   0  0  0  0  0  0  0  0  0  0  0  0
   16.9223   36.5878   17.2750 C   0  0  0  0  0  0  0  0  0  0  0  0
   15.9511   37.4723   16.8043 C   0  0  0  0  0  0  0  0  0  0  0  0
   15.8760   38.7845   17.2687 C   0  0  0  0  0  0  0  0  0  0  0  0
   16.7794   39.2147   18.2377 C   0  0  0  0  0  0  0  0  0  0  0  0
   17.7292   38.3060   18.7027 C   0  0  0  0  0  0  0  0  0  0  0  0
   17.7717   37.0495   18.2238 N   0  0  0  0  0  0  0  0  0  0  0  0
 31 32  1  0  0  0
 32 27  1  0  0  0
 27 28  2  0  0  0
 27 29  1  0  0  0
 29 26  1  0  0  0
 26 33  1  0  0  0
 26 22  1  0  0  0
 33 34  1  0  0  0
 33 35  1  0  0  0
 33 36  1  0  0  0
 22 23  2  0  0  0
 22 24  1  0  0  0
 24 21  1  0  0  0
 21 37  1  0  0  0
 21 18  1  0  0  0
 37 38  1  0  0  0
 38 39  2  0  0  0
 38 43  1  0  0  0
 39 40  1  0  0  0
 40 41  2  0  0  0
 41 42  1  0  0  0
 42 43  2  0  0  0
 18 19  1  0  0  0
 18 17  1  0  0  0
 17  1  1  0  0  0
  1  2  1  0  0  0
  1 44  1  0  0  0
  2  3  1  0  0  0
  3  4  2  0  0  0
  3  6  1  0  0  0
  6 13  1  0  0  0
  6  7  1  0  0  0
 13 14  1  0  0  0
 13 15  1  0  0  0
 13 16  1  0  0  0
  7  8  1  0  0  0
  8  9  2  0  0  0
  8 11  1  0  0  0
 11 12  1  0  0  0
 44 45  1  0  0  0
 45 46  1  0  0  0
 45 48  2  0  0  0
 46 47  2  0  0  0
 47 50  1  0  0  0
 48 49  1  0  0  0
 49 50  2  0  0  0
 50 51  1  0  0  0
 51 52  1  0  0  0
 51 56  2  0  0  0
 52 53  2  0  0  0
 53 54  1  0  0  0
 54 55  2  0  0  0
 55 56  1  0  0  0
 29 30  1  0  0  0
 24 25  1  0  0  0
 19 20  1  0  0  0
  2  5  1  0  0  0
  7 10  1  0  0  0
M  END
> <minimizedAffinity>
-9.16992

$$$$
3EL9_DR7_A_100


 56 58  0  0  0  0  0  0  0  0999 V2000
   20.6607   36.1608   17.6917 N   0  0  0  0  0  0  0  0  0  0  0  0
   19.7027   35.7042   16.8725 N   0  0  0  0  0  0  0  0  0  0  0  0
   18.6958   34.9674   17.3667 C   0  0  0  0  0  0  0  0  0  0  0  0
   18.5111   34.7503   18.5618 O   0  0  0  0  0  0  0  0  0  0  0  0
   19.7379   35.9090   15.9102 H   0  0  0  0  0  0  0  0  0  0  0  0
   17.8292   34.3039   16.3328 C   0  0  0  0  0  0  0  0  0  0  0  0
   18.0243   32.8794   16.4833 N   0  0  0  0  0  0  0  0  0  0  0  0
   18.7300   32.1529   15.6149 C   0  0  0  0  0  0  0  0  0  0  0  0
   19.2981   32.6272   14.6413 O   0  0  0  0  0  0  0  0  0  0  0  0
   17.6199   32.4269   17.2585 H   0  0  0  0  0  0  0  0  0  0  0  0
   18.7904   30.7236   15.8661 O   0  0  0  0  0  0  0  0  0  0  0  0
   20.0633   30.0867   16.0069 C   0  0  0  0  0  0  0  0  0  0  0  0
   16.3392   34.6586   16.3520 C   0  0  0  0  0  0  0  0  0  0  0  0
   15.6100   33.8134   17.3948 C   0  0  0  0  0  0  0  0  0  0  0  0
   15.7424   34.3114   14.9919 C   0  0  0  0  0  0  0  0  0  0  0  0
   16.0738   36.1238   16.6859 C   0  0  0  0  0  0  0  0  0  0  0  0
   20.4602   37.5311   18.1399 C   0  0  0  0  0  0  0  0  0  0  0  0
   21.4811   38.5156   17.5800 C   0  0  0  0  0  0  0  0  0  0  0  0
   22.0278   39.1628   18.7214 O   0  0  0  0  0  0  0  0  0  0  0  0
   21.3192   39.6108   19.2094 H   0  0  0  0  0  0  0  0  0  0  0  0
   20.8760   39.5335   16.6060 C   0  0  0  0  0  0  0  0  0  0  0  0
   18.6302   40.4715   16.9279 C   0  0  0  0  0  0  0  0  0  0  0  0
   18.1765   39.9786   15.8960 O   0  0  0  0  0  0  0  0  0  0  0  0
   19.8917   40.3187   17.3473 N   0  0  0  0  0  0  0  0  0  0  0  0
   20.1671   40.7518   18.1875 H   0  0  0  0  0  0  0  0  0  0  0  0
   17.7719   41.3344   17.8173 C   0  0  0  0  0  0  0  0  0  0  0  0
   17.8839   40.7817   20.1973 C   0  0  0  0  0  0  0  0  0  0  0  0
   16.7993   40.2181   20.2491 O   0  0  0  0  0  0  0  0  0  0  0  0
   18.4127   41.3292   19.1106 N   0  0  0  0  0  0  0  0  0  0  0  0
   19.2953   41.7578   19.1913 H   0  0  0  0  0  0  0  0  0  0  0  0
   19.4389   42.1322   21.5785 C   0  0  0  0  0  0  0  0  0  0  0  0
   18.6788   40.9376   21.3964 O   0  0  0  0  0  0  0  0  0  0  0  0
   17.5015   42.7499   17.3128 C   0  0  0  0  0  0  0  0  0  0  0  0
   18.7937   43.1942   16.6415 C   0  0  0  0  0  0  0  0  0  0  0  0
   17.1032   43.6881   18.4472 C   0  0  0  0  0  0  0  0  0  0  0  0
   16.3655   42.7460   16.2921 C   0  0  0  0  0  0  0  0  0  0  0  0
   21.9379   40.4934   16.0753 C   0  0  0  0  0  0  0  0  0  0  0  0
   22.0398   40.4341   14.5721 C   0  0  0  0  0  0  0  0  0  0  0  0
   21.2430   39.5324   13.8821 C   0  0  0  0  0  0  0  0  0  0  0  0
   21.3096   39.4394   12.4976 C   0  0  0  0  0  0  0  0  0  0  0  0
   22.1660   40.2714   11.7894 C   0  0  0  0  0  0  0  0  0  0  0  0
   22.9589   41.1908   12.4809 C   0  0  0  0  0  0  0  0  0  0  0  0
   22.8895   41.2826   13.8686 C   0  0  0  0  0  0  0  0  0  0  0  0
   22.0037   36.1134   17.0862 C   0  0  0  0  0  0  0  0  0  0  0  0
   22.2709   34.8472   16.2963 C   0  0  0  0  0  0  0  0  0  0  0  0
   22.4349   33.6721   16.9364 C   0  0  0  0  0  0  0  0  0  0  0  0
   22.6627   32.5842   16.1992 C   0  0  0  0  0  0  0  0  0  0  0  0
   22.3636   34.8472   15.0327 C   0  0  0  0  0  0  0  0  0  0  0  0
   22.5708   33.8643   14.3747 C   0  0  0  0  0  0  0  0  0  0  0  0
   22.7327   32.7001   14.8589 C   0  0  0  0  0  0  0  0  0  0  0  0
   22.9801   31.4862   13.9815 C   0  0  0  0  0  0  0  0  0  0  0  0
   24.1990   30.8081   14.0208 C   0  0  0  0  0  0  0  0  0  0  0  0
   24.4379   29.6942   13.2175 C   0  0  0  0  0  0  0  0  0  0  0  0
   23.4296   29.2383   12.3713 C   0  0  0  0  0  0  0  0  0  0  0  0
   22.2157   29.9243   12.3635 C   0  0  0  0  0  0  0  0  0  0  0  0
   22.0277   30.9992   13.1505 N   0  0  0  0  0  0  0  0  0  0  0  0
 31 32  1  0  0  0
 32 27  1  0  0  0
 27 28  2  0  0  0
 27 29  1  0  0  0
 29 26  1  0  0  0
 26 33  1  0  0  0
 26 22  1  0  0  0
 33 34  1  0  0  0
 33 35  1  0  0  0
 33 36  1  0  0  0
 22 23  2  0  0  0
 22 24  1  0  0  0
 24 21  1  0  0  0
 21 37  1  0  0  0
 21 18  1  0  0  0
 37 38  1  0  0  0
 38 39  2  0  0  0
 38 43  1  0  0  0
 39 40  1  0  0  0
 40 41  2  0  0  0
 41 42  1  0  0  0
 42 43  2  0  0  0
 18 19  1  0  0  0
 18 17  1  0  0  0
 17  1  1  0  0  0
  1  2  1  0  0  0
  1 44  1  0  0  0
  2  3  1  0  0  0
  3  4  2  0  0  0
  3  6  1  0  0  0
  6 13  1  0  0  0
  6  7  1  0  0  0
 13 14  1  0  0  0
 13 15  1  0  0  0
 13 16  1  0  0  0
  7  8  1  0  0  0
  8  9  2  0  0  0
  8 11  1  0  0  0
 11 12  1  0  0  0
 44 45  1  0  0  0
 45 46  1  0  0  0
 45 48  2  0  0  0
 46 47  2  0  0  0
 47 50  1  0  0  0
 48 49  1  0  0  0
 49 50  2  0  0  0
 50 51  1  0  0  0
 51 52  1  0  0  0
 51 56  2  0  0  0
 52 53  2  0  0  0
 53 54  1  0  0  0
 54 55  2  0  0  0
 55 56  1  0  0  0
 29 30  1  0  0  0
 24 25  1  0  0  0
 19 20  1  0  0  0
  2  5  1  0  0  0
  7 10  1  0  0  0
M  END
> <minimizedAffinity>
-9.15020

$$$$
