1PPM_0P1_E_324


 46 47  0  0  0  0  0  0  0  0999 V2000
   21.0655    8.7323   21.9352 C   0  0  0  0  0  0  0  0  0  0  0  0
   21.5578    8.2477   22.9313 O   0  0  0  0  0  0  0  0  0  0  0  0
   21.7655    9.5576   21.0985 N   0  0  0  0  0  0  0  0  0  0  0  0
   21.2951    9.9172   20.3120 H   0  0  0  0  0  0  0  0  0  0  0  0
   19.6309    8.3875   21.5546 C   0  0  0  0  0  0  0  0  0  0  0  0
   18.6301    8.3024   22.7293 C   0  0  0  0  0  0  0  0  0  0  0  0
   19.4266    7.1395   19.5161 C   0  0  0  0  0  0  0  0  0  0  0  0
   19.0037    8.1386   18.8351 O   0  0  0  0  0  0  0  0  0  0  0  0
   19.7231    7.1439   20.7898 N   0  0  0  0  0  0  0  0  0  0  0  0
   20.0077    6.3121   21.2330 H   0  0  0  0  0  0  0  0  0  0  0  0
   19.6197    5.7600   18.8135 C   0  0  0  0  0  0  0  0  0  0  0  0
   20.1691    6.0436   17.4075 C   0  0  0  0  0  0  0  0  0  0  0  0
   17.7311    4.4371   19.4247 C   0  0  0  0  0  0  0  0  0  0  0  0
   18.2076    4.2325   20.5776 O   0  0  0  0  0  0  0  0  0  0  0  0
   18.3357    5.1587   18.5465 N   0  0  0  0  0  0  0  0  0  0  0  0
   17.9109    5.3040   17.6704 H   0  0  0  0  0  0  0  0  0  0  0  0
   16.4415    3.9138   19.1706 O   0  0  0  0  0  0  0  0  0  0  0  0
   15.4700    4.9231   18.7804 C   0  0  0  0  0  0  0  0  0  0  0  0
   15.2294    5.7903   19.9899 C   0  0  0  0  0  0  0  0  0  0  0  0
   15.5890    7.1523   19.9594 C   0  0  0  0  0  0  0  0  0  0  0  0
   15.3654    7.9352   21.0691 C   0  0  0  0  0  0  0  0  0  0  0  0
   14.7569    7.3598   22.1899 C   0  0  0  0  0  0  0  0  0  0  0  0
   14.4094    5.9885   22.2197 C   0  0  0  0  0  0  0  0  0  0  0  0
   14.6413    5.1970   21.0809 C   0  0  0  0  0  0  0  0  0  0  0  0
   23.1351    9.9360   21.2854 C   0  0  0  0  0  0  0  0  0  0  0  0
   23.3050   11.7634   21.4130 P   0  0  0  0  0  0  0  0  0  0  0  0
   24.6804   12.0832   21.5127 O   0  0  0  0  0  0  0  0  0  0  0  0
   22.4377   12.3115   20.4241 O   0  0  0  0  0  0  0  0  0  0  0  0
   22.8326   12.1929   19.5461 H   0  0  0  0  0  0  0  0  0  0  0  0
   22.7107   11.9297   22.8571 O   0  0  0  0  0  0  0  0  0  0  0  0
   23.1365   13.0877   23.6512 C   0  0  0  0  0  0  0  0  0  0  0  0
   23.8731   12.6296   24.9021 C   0  0  0  0  0  0  0  0  0  0  0  0
   24.0891   11.4698   25.1411 O   0  0  0  0  0  0  0  0  0  0  0  0
   24.2876   13.3575   27.2092 C   0  0  0  0  0  0  0  0  0  0  0  0
   24.3485   13.5114   25.8631 O   0  0  0  0  0  0  0  0  0  0  0  0
   21.8777   13.8441   24.1322 C   0  0  0  0  0  0  0  0  0  0  0  0
   20.8455   12.9667   24.7942 C   0  0  0  0  0  0  0  0  0  0  0  0
   19.9034   12.3633   23.9233 C   0  0  0  0  0  0  0  0  0  0  0  0
   20.7655   12.7224   26.1446 C   0  0  0  0  0  0  0  0  0  0  0  0
   18.9016   11.5402   24.3932 C   0  0  0  0  0  0  0  0  0  0  0  0
   19.7838   11.8885   26.6188 C   0  0  0  0  0  0  0  0  0  0  0  0
   18.8452   11.3226   25.7596 C   0  0  0  0  0  0  0  0  0  0  0  0
   24.0265    9.3612   20.1151 C   0  0  0  0  0  0  0  0  0  0  0  0
   24.2848    7.8267   20.1451 C   0  0  0  0  0  0  0  0  0  0  0  0
   23.1740    7.1966   19.3075 C   0  0  0  0  0  0  0  0  0  0  0  0
   25.6968    7.4870   19.5986 C   0  0  0  0  0  0  0  0  0  0  0  0
 13 14  2  0  0  0
 13 17  1  0  0  0
 17 18  1  0  0  0
 18 19  1  0  0  0
 19 20  2  0  0  0
 19 24  1  0  0  0
 20 21  1  0  0  0
 21 22  2  0  0  0
 22 23  1  0  0  0
 23 24  2  0  0  0
 15 11  1  0  0  0
 11  7  1  0  0  0
 11 12  1  0  0  0
  7  8  2  0  0  0
  9  5  1  0  0  0
  5  1  1  0  0  0
  5  6  1  0  0  0
  1  2  2  0  0  0
 25 43  1  0  0  0
 25  3  1  0  0  0
 25 26  1  0  0  0
 43 44  1  0  0  0
 44 45  1  0  0  0
 44 46  1  0  0  0
 26 27  2  0  0  0
 26 28  1  0  0  0
 31 36  1  0  0  0
 31 32  1  0  0  0
 31 30  1  0  0  0
 36 37  1  0  0  0
 37 38  2  0  0  0
 37 39  1  0  0  0
 38 40  1  0  0  0
 39 41  2  0  0  0
 40 42  2  0  0  0
 41 42  1  0  0  0
 32 35  1  0  0  0
 32 33  2  0  0  0
 34 35  1  0  0  0
 13 15  1  0  0  0
  7  9  1  0  0  0
  1  3  1  0  0  0
 26 30  1  0  0  0
 15 16  1  0  0  0
  9 10  1  0  0  0
  3  4  1  0  0  0
 28 29  1  0  0  0
M  END
> <minimizedAffinity>
-9.63812

$$$$
1PPM_0P1_E_324


 46 47  0  0  0  0  0  0  0  0999 V2000
   20.9467    8.7888   21.8384 C   0  0  0  0  0  0  0  0  0  0  0  0
   21.3719    8.2298   22.8264 O   0  0  0  0  0  0  0  0  0  0  0  0
   21.6867    9.6999   21.1359 N   0  0  0  0  0  0  0  0  0  0  0  0
   21.2701   10.1165   20.3472 H   0  0  0  0  0  0  0  0  0  0  0  0
   19.5579    8.4466   21.3130 C   0  0  0  0  0  0  0  0  0  0  0  0
   18.4196    8.4876   22.3577 C   0  0  0  0  0  0  0  0  0  0  0  0
   19.4041    7.0003   19.4054 C   0  0  0  0  0  0  0  0  0  0  0  0
   18.9424    7.9114   18.6325 O   0  0  0  0  0  0  0  0  0  0  0  0
   19.6996    7.1394   20.6717 N   0  0  0  0  0  0  0  0  0  0  0  0
   20.0166    6.3662   21.1922 H   0  0  0  0  0  0  0  0  0  0  0  0
   19.6519    5.5679   18.8387 C   0  0  0  0  0  0  0  0  0  0  0  0
   20.1626    5.7350   17.3998 C   0  0  0  0  0  0  0  0  0  0  0  0
   17.8241    4.2544   19.6284 C   0  0  0  0  0  0  0  0  0  0  0  0
   18.3123    4.2179   20.7938 O   0  0  0  0  0  0  0  0  0  0  0  0
   18.3942    4.8838   18.6609 N   0  0  0  0  0  0  0  0  0  0  0  0
   17.9610    4.8986   17.7770 H   0  0  0  0  0  0  0  0  0  0  0  0
   16.5574    3.6489   19.4535 O   0  0  0  0  0  0  0  0  0  0  0  0
   15.5428    4.5577   18.9442 C   0  0  0  0  0  0  0  0  0  0  0  0
   15.2676    5.5622   20.0343 C   0  0  0  0  0  0  0  0  0  0  0  0
   15.6098    6.9156   19.8438 C   0  0  0  0  0  0  0  0  0  0  0  0
   15.3547    7.8245   20.8454 C   0  0  0  0  0  0  0  0  0  0  0  0
   14.7325    7.3809   22.0173 C   0  0  0  0  0  0  0  0  0  0  0  0
   14.4024    6.0183   22.2085 C   0  0  0  0  0  0  0  0  0  0  0  0
   14.6666    5.0974   21.1793 C   0  0  0  0  0  0  0  0  0  0  0  0
   23.0252   10.0912   21.4665 C   0  0  0  0  0  0  0  0  0  0  0  0
   23.0970   11.8672   21.9413 P   0  0  0  0  0  0  0  0  0  0  0  0
   23.8878   11.9907   23.1088 O   0  0  0  0  0  0  0  0  0  0  0  0
   23.3486   12.5885   20.7385 O   0  0  0  0  0  0  0  0  0  0  0  0
   24.2763   12.4728   20.4801 H   0  0  0  0  0  0  0  0  0  0  0  0
   21.6045   12.0216   22.4048 O   0  0  0  0  0  0  0  0  0  0  0  0
   21.3233   12.0169   23.8448 C   0  0  0  0  0  0  0  0  0  0  0  0
   19.9349   11.4520   24.1110 C   0  0  0  0  0  0  0  0  0  0  0  0
   18.9521   11.8464   23.5390 O   0  0  0  0  0  0  0  0  0  0  0  0
   18.7366   10.4301   25.9936 C   0  0  0  0  0  0  0  0  0  0  0  0
   19.6953   10.4435   25.0342 O   0  0  0  0  0  0  0  0  0  0  0  0
   21.3094   13.4779   24.3482 C   0  0  0  0  0  0  0  0  0  0  0  0
   21.6400   13.6298   25.8115 C   0  0  0  0  0  0  0  0  0  0  0  0
   23.0211   13.6953   26.1252 C   0  0  0  0  0  0  0  0  0  0  0  0
   20.7156   13.7078   26.8260 C   0  0  0  0  0  0  0  0  0  0  0  0
   23.4665   13.8296   27.4234 C   0  0  0  0  0  0  0  0  0  0  0  0
   21.1497   13.8616   28.1190 C   0  0  0  0  0  0  0  0  0  0  0  0
   22.5086   13.8966   28.4212 C   0  0  0  0  0  0  0  0  0  0  0  0
   23.9988    9.7837   20.2615 C   0  0  0  0  0  0  0  0  0  0  0  0
   23.7967    8.4122   19.5543 C   0  0  0  0  0  0  0  0  0  0  0  0
   24.3692    8.5754   18.1479 C   0  0  0  0  0  0  0  0  0  0  0  0
   24.4910    7.2696   20.3420 C   0  0  0  0  0  0  0  0  0  0  0  0
 13 14  2  0  0  0
 13 17  1  0  0  0
 17 18  1  0  0  0
 18 19  1  0  0  0
 19 20  2  0  0  0
 19 24  1  0  0  0
 20 21  1  0  0  0
 21 22  2  0  0  0
 22 23  1  0  0  0
 23 24  2  0  0  0
 15 11  1  0  0  0
 11  7  1  0  0  0
 11 12  1  0  0  0
  7  8  2  0  0  0
  9  5  1  0  0  0
  5  1  1  0  0  0
  5  6  1  0  0  0
  1  2  2  0  0  0
 25 43  1  0  0  0
 25  3  1  0  0  0
 25 26  1  0  0  0
 43 44  1  0  0  0
 44 45  1  0  0  0
 44 46  1  0  0  0
 26 27  2  0  0  0
 26 28  1  0  0  0
 31 36  1  0  0  0
 31 32  1  0  0  0
 31 30  1  0  0  0
 36 37  1  0  0  0
 37 38  2  0  0  0
 37 39  1  0  0  0
 38 40  1  0  0  0
 39 41  2  0  0  0
 40 42  2  0  0  0
 41 42  1  0  0  0
 32 35  1  0  0  0
 32 33  2  0  0  0
 34 35  1  0  0  0
 13 15  1  0  0  0
  7  9  1  0  0  0
  1  3  1  0  0  0
 26 30  1  0  0  0
 15 16  1  0  0  0
  9 10  1  0  0  0
  3  4  1  0  0  0
 28 29  1  0  0  0
M  END
> <minimizedAffinity>
-9.48378

$$$$
1PPM_0P1_E_324


 46 47  0  0  0  0  0  0  0  0999 V2000
   21.2089    8.8934   21.9569 C   0  0  0  0  0  0  0  0  0  0  0  0
   21.5077    8.7224   23.1192 O   0  0  0  0  0  0  0  0  0  0  0  0
   22.0499    9.5011   21.0655 N   0  0  0  0  0  0  0  0  0  0  0  0
   21.7338    9.6094   20.1394 H   0  0  0  0  0  0  0  0  0  0  0  0
   19.8728    8.3797   21.4347 C   0  0  0  0  0  0  0  0  0  0  0  0
   18.8603    7.9344   22.5141 C   0  0  0  0  0  0  0  0  0  0  0  0
   19.5399    7.1926   19.3768 C   0  0  0  0  0  0  0  0  0  0  0  0
   18.5431    7.9103   19.0134 O   0  0  0  0  0  0  0  0  0  0  0  0
   20.2114    7.3129   20.4926 N   0  0  0  0  0  0  0  0  0  0  0  0
   20.9430    6.6871   20.6980 H   0  0  0  0  0  0  0  0  0  0  0  0
   20.0407    6.0478   18.4427 C   0  0  0  0  0  0  0  0  0  0  0  0
   20.3850    6.6885   17.0899 C   0  0  0  0  0  0  0  0  0  0  0  0
   19.1200    3.8951   17.9867 C   0  0  0  0  0  0  0  0  0  0  0  0
   20.2433    3.3424   18.1617 O   0  0  0  0  0  0  0  0  0  0  0  0
   18.9479    5.1643   18.1163 N   0  0  0  0  0  0  0  0  0  0  0  0
   18.0475    5.5417   17.9894 H   0  0  0  0  0  0  0  0  0  0  0  0
   18.0241    3.0362   17.7355 O   0  0  0  0  0  0  0  0  0  0  0  0
   17.1189    2.9013   18.8656 C   0  0  0  0  0  0  0  0  0  0  0  0
   15.7503    3.3082   18.3815 C   0  0  0  0  0  0  0  0  0  0  0  0
   14.8907    2.3450   17.8171 C   0  0  0  0  0  0  0  0  0  0  0  0
   13.6435    2.7269   17.3779 C   0  0  0  0  0  0  0  0  0  0  0  0
   13.2523    4.0612   17.5331 C   0  0  0  0  0  0  0  0  0  0  0  0
   14.1243    5.0270   18.0890 C   0  0  0  0  0  0  0  0  0  0  0  0
   15.3963    4.6270   18.5352 C   0  0  0  0  0  0  0  0  0  0  0  0
   23.3584    9.9915   21.3837 C   0  0  0  0  0  0  0  0  0  0  0  0
   23.3666   11.8276   21.4994 P   0  0  0  0  0  0  0  0  0  0  0  0
   24.7061   12.2656   21.6331 O   0  0  0  0  0  0  0  0  0  0  0  0
   22.4828   12.2922   20.4828 O   0  0  0  0  0  0  0  0  0  0  0  0
   22.9104   12.2024   19.6168 H   0  0  0  0  0  0  0  0  0  0  0  0
   22.7208   11.9515   22.9256 O   0  0  0  0  0  0  0  0  0  0  0  0
   23.0748   13.1149   23.7466 C   0  0  0  0  0  0  0  0  0  0  0  0
   23.7842   12.6694   25.0177 C   0  0  0  0  0  0  0  0  0  0  0  0
   24.2039   11.5516   25.1701 O   0  0  0  0  0  0  0  0  0  0  0  0
   25.0122   13.4456   26.9960 C   0  0  0  0  0  0  0  0  0  0  0  0
   23.9983   13.5146   26.0978 O   0  0  0  0  0  0  0  0  0  0  0  0
   21.7725   13.8181   24.1911 C   0  0  0  0  0  0  0  0  0  0  0  0
   20.6934   12.8772   24.6642 C   0  0  0  0  0  0  0  0  0  0  0  0
   20.4942   12.8273   26.0670 C   0  0  0  0  0  0  0  0  0  0  0  0
   19.9157   12.0924   23.8464 C   0  0  0  0  0  0  0  0  0  0  0  0
   19.5438   12.0074   26.6381 C   0  0  0  0  0  0  0  0  0  0  0  0
   18.9537   11.2881   24.4049 C   0  0  0  0  0  0  0  0  0  0  0  0
   18.7839   11.2241   25.7856 C   0  0  0  0  0  0  0  0  0  0  0  0
   24.4077    9.4831   20.3184 C   0  0  0  0  0  0  0  0  0  0  0  0
   24.0466    8.1596   19.5834 C   0  0  0  0  0  0  0  0  0  0  0  0
   24.4944    8.3467   18.1353 C   0  0  0  0  0  0  0  0  0  0  0  0
   24.7320    6.9413   20.2572 C   0  0  0  0  0  0  0  0  0  0  0  0
 13 14  2  0  0  0
 13 17  1  0  0  0
 17 18  1  0  0  0
 18 19  1  0  0  0
 19 20  2  0  0  0
 19 24  1  0  0  0
 20 21  1  0  0  0
 21 22  2  0  0  0
 22 23  1  0  0  0
 23 24  2  0  0  0
 15 11  1  0  0  0
 11  7  1  0  0  0
 11 12  1  0  0  0
  7  8  2  0  0  0
  9  5  1  0  0  0
  5  1  1  0  0  0
  5  6  1  0  0  0
  1  2  2  0  0  0
 25 43  1  0  0  0
 25  3  1  0  0  0
 25 26  1  0  0  0
 43 44  1  0  0  0
 44 45  1  0  0  0
 44 46  1  0  0  0
 26 27  2  0  0  0
 26 28  1  0  0  0
 31 36  1  0  0  0
 31 32  1  0  0  0
 31 30  1  0  0  0
 36 37  1  0  0  0
 37 38  2  0  0  0
 37 39  1  0  0  0
 38 40  1  0  0  0
 39 41  2  0  0  0
 40 42  2  0  0  0
 41 42  1  0  0  0
 32 35  1  0  0  0
 32 33  2  0  0  0
 34 35  1  0  0  0
 13 15  1  0  0  0
  7  9  1  0  0  0
  1  3  1  0  0  0
 26 30  1  0  0  0
 15 16  1  0  0  0
  9 10  1  0  0  0
  3  4  1  0  0  0
 28 29  1  0  0  0
M  END
> <minimizedAffinity>
-9.45727

$$$$
1PPM_0P1_E_324


 46 47  0  0  0  0  0  0  0  0999 V2000
   19.6064    7.6030   19.7921 C   0  0  0  0  0  0  0  0  0  0  0  0
   18.5231    7.8530   19.3090 O   0  0  0  0  0  0  0  0  0  0  0  0
   20.5738    6.9191   19.1083 N   0  0  0  0  0  0  0  0  0  0  0  0
   21.4265    6.7489   19.5701 H   0  0  0  0  0  0  0  0  0  0  0  0
   19.9438    8.0985   21.1930 C   0  0  0  0  0  0  0  0  0  0  0  0
   18.7332    8.4580   22.0840 C   0  0  0  0  0  0  0  0  0  0  0  0
   21.8718    9.3862   21.8085 C   0  0  0  0  0  0  0  0  0  0  0  0
   22.1409    8.6694   22.8354 O   0  0  0  0  0  0  0  0  0  0  0  0
   20.8618    9.2201   20.9946 N   0  0  0  0  0  0  0  0  0  0  0  0
   20.7195    9.8484   20.2501 H   0  0  0  0  0  0  0  0  0  0  0  0
   22.7988   10.5886   21.4492 C   0  0  0  0  0  0  0  0  0  0  0  0
   23.9553   10.0298   20.6070 C   0  0  0  0  0  0  0  0  0  0  0  0
   23.7126   12.3216   22.8100 C   0  0  0  0  0  0  0  0  0  0  0  0
   23.3710   13.2038   21.9715 O   0  0  0  0  0  0  0  0  0  0  0  0
   23.4629   11.0708   22.6358 N   0  0  0  0  0  0  0  0  0  0  0  0
   23.7320   10.4267   23.3300 H   0  0  0  0  0  0  0  0  0  0  0  0
   24.3014   12.7837   24.0106 O   0  0  0  0  0  0  0  0  0  0  0  0
   23.7933   12.1209   25.2011 C   0  0  0  0  0  0  0  0  0  0  0  0
   22.5563   12.8710   25.6258 C   0  0  0  0  0  0  0  0  0  0  0  0
   22.6607   14.2071   26.0605 C   0  0  0  0  0  0  0  0  0  0  0  0
   21.5253   14.8827   26.4464 C   0  0  0  0  0  0  0  0  0  0  0  0
   20.2908   14.2293   26.3666 C   0  0  0  0  0  0  0  0  0  0  0  0
   20.1933   12.8833   25.9413 C   0  0  0  0  0  0  0  0  0  0  0  0
   21.3587   12.2016   25.5487 C   0  0  0  0  0  0  0  0  0  0  0  0
   20.4344    6.4326   17.7675 C   0  0  0  0  0  0  0  0  0  0  0  0
   19.7949    4.7076   17.7528 P   0  0  0  0  0  0  0  0  0  0  0  0
   20.0639    4.1371   16.4856 O   0  0  0  0  0  0  0  0  0  0  0  0
   20.2074    4.1222   18.9848 O   0  0  0  0  0  0  0  0  0  0  0  0
   21.1558    3.9225   18.9463 H   0  0  0  0  0  0  0  0  0  0  0  0
   18.2625    5.0511   17.7623 O   0  0  0  0  0  0  0  0  0  0  0  0
   17.4223    4.4368   18.7965 C   0  0  0  0  0  0  0  0  0  0  0  0
   17.2172    2.9574   18.5019 C   0  0  0  0  0  0  0  0  0  0  0  0
   16.4486    2.5621   17.6642 O   0  0  0  0  0  0  0  0  0  0  0  0
   18.5290    0.8867   18.6265 C   0  0  0  0  0  0  0  0  0  0  0  0
   17.8964    1.9526   19.1771 O   0  0  0  0  0  0  0  0  0  0  0  0
   16.0246    5.0943   18.7495 C   0  0  0  0  0  0  0  0  0  0  0  0
   15.6144    5.7652   20.0359 C   0  0  0  0  0  0  0  0  0  0  0  0
   15.5424    7.1806   19.9942 C   0  0  0  0  0  0  0  0  0  0  0  0
   15.3142    5.1110   21.2070 C   0  0  0  0  0  0  0  0  0  0  0  0
   15.1845    7.9236   21.0994 C   0  0  0  0  0  0  0  0  0  0  0  0
   14.9378    5.8415   22.3065 C   0  0  0  0  0  0  0  0  0  0  0  0
   14.8970    7.2329   22.2648 C   0  0  0  0  0  0  0  0  0  0  0  0
   21.8117    6.5361   17.0015 C   0  0  0  0  0  0  0  0  0  0  0  0
   23.0541    5.9768   17.7538 C   0  0  0  0  0  0  0  0  0  0  0  0
   23.6403    4.8935   16.8509 C   0  0  0  0  0  0  0  0  0  0  0  0
   24.0765    7.1035   18.0589 C   0  0  0  0  0  0  0  0  0  0  0  0
 13 14  2  0  0  0
 13 17  1  0  0  0
 17 18  1  0  0  0
 18 19  1  0  0  0
 19 20  2  0  0  0
 19 24  1  0  0  0
 20 21  1  0  0  0
 21 22  2  0  0  0
 22 23  1  0  0  0
 23 24  2  0  0  0
 15 11  1  0  0  0
 11  7  1  0  0  0
 11 12  1  0  0  0
  7  8  2  0  0  0
  9  5  1  0  0  0
  5  1  1  0  0  0
  5  6  1  0  0  0
  1  2  2  0  0  0
 25 43  1  0  0  0
 25  3  1  0  0  0
 25 26  1  0  0  0
 43 44  1  0  0  0
 44 45  1  0  0  0
 44 46  1  0  0  0
 26 27  2  0  0  0
 26 28  1  0  0  0
 31 36  1  0  0  0
 31 32  1  0  0  0
 31 30  1  0  0  0
 36 37  1  0  0  0
 37 38  2  0  0  0
 37 39  1  0  0  0
 38 40  1  0  0  0
 39 41  2  0  0  0
 40 42  2  0  0  0
 41 42  1  0  0  0
 32 35  1  0  0  0
 32 33  2  0  0  0
 34 35  1  0  0  0
 13 15  1  0  0  0
  7  9  1  0  0  0
  1  3  1  0  0  0
 26 30  1  0  0  0
 15 16  1  0  0  0
  9 10  1  0  0  0
  3  4  1  0  0  0
 28 29  1  0  0  0
M  END
> <minimizedAffinity>
-9.31793

$$$$
1PPM_0P1_E_324


 46 47  0  0  0  0  0  0  0  0999 V2000
   19.6357    7.7039   19.8828 C   0  0  0  0  0  0  0  0  0  0  0  0
   18.5641    8.0155   19.4095 O   0  0  0  0  0  0  0  0  0  0  0  0
   20.5614    6.9767   19.1859 N   0  0  0  0  0  0  0  0  0  0  0  0
   21.4067    6.7573   19.6403 H   0  0  0  0  0  0  0  0  0  0  0  0
   20.0075    8.1668   21.2861 C   0  0  0  0  0  0  0  0  0  0  0  0
   18.8190    8.4903   22.2196 C   0  0  0  0  0  0  0  0  0  0  0  0
   21.8803    9.5159   21.9398 C   0  0  0  0  0  0  0  0  0  0  0  0
   22.1226    8.8357   22.9978 O   0  0  0  0  0  0  0  0  0  0  0  0
   20.9082    9.3030   21.0913 N   0  0  0  0  0  0  0  0  0  0  0  0
   20.7829    9.9060   20.3232 H   0  0  0  0  0  0  0  0  0  0  0  0
   22.7948   10.7283   21.5822 C   0  0  0  0  0  0  0  0  0  0  0  0
   23.9216   10.1936   20.6859 C   0  0  0  0  0  0  0  0  0  0  0  0
   23.6344   12.4295   23.0283 C   0  0  0  0  0  0  0  0  0  0  0  0
   23.1397   13.3369   22.3004 O   0  0  0  0  0  0  0  0  0  0  0  0
   23.4993   11.1781   22.7582 N   0  0  0  0  0  0  0  0  0  0  0  0
   23.8866   10.5108   23.3698 H   0  0  0  0  0  0  0  0  0  0  0  0
   24.2674   12.8500   24.2217 O   0  0  0  0  0  0  0  0  0  0  0  0
   25.2611   11.9104   24.7162 C   0  0  0  0  0  0  0  0  0  0  0  0
   26.4391   12.7255   25.1860 C   0  0  0  0  0  0  0  0  0  0  0  0
   27.7495   12.2626   24.9547 C   0  0  0  0  0  0  0  0  0  0  0  0
   28.8180   13.0142   25.3881 C   0  0  0  0  0  0  0  0  0  0  0  0
   28.5708   14.2366   26.0220 C   0  0  0  0  0  0  0  0  0  0  0  0
   27.2525   14.6908   26.2630 C   0  0  0  0  0  0  0  0  0  0  0  0
   26.1675   13.9161   25.8161 C   0  0  0  0  0  0  0  0  0  0  0  0
   20.3881    6.5116   17.8414 C   0  0  0  0  0  0  0  0  0  0  0  0
   19.7947    4.7704   17.8152 P   0  0  0  0  0  0  0  0  0  0  0  0
   20.1544    4.1895   16.5755 O   0  0  0  0  0  0  0  0  0  0  0  0
   20.1464    4.2134   19.0787 O   0  0  0  0  0  0  0  0  0  0  0  0
   21.1002    4.0382   19.1006 H   0  0  0  0  0  0  0  0  0  0  0  0
   18.2563    5.0737   17.7269 O   0  0  0  0  0  0  0  0  0  0  0  0
   17.3782    4.4994   18.7525 C   0  0  0  0  0  0  0  0  0  0  0  0
   16.9298    3.1032   18.3439 C   0  0  0  0  0  0  0  0  0  0  0  0
   17.7047    2.2040   18.1450 O   0  0  0  0  0  0  0  0  0  0  0  0
   14.9836    2.4575   16.9949 C   0  0  0  0  0  0  0  0  0  0  0  0
   15.5963    2.7610   18.1662 O   0  0  0  0  0  0  0  0  0  0  0  0
   16.1005    5.3636   18.8462 C   0  0  0  0  0  0  0  0  0  0  0  0
   15.8609    5.9656   20.2077 C   0  0  0  0  0  0  0  0  0  0  0  0
   15.4680    7.3279   20.2160 C   0  0  0  0  0  0  0  0  0  0  0  0
   15.9938    5.2970   21.4014 C   0  0  0  0  0  0  0  0  0  0  0  0
   15.2199    8.0062   21.3907 C   0  0  0  0  0  0  0  0  0  0  0  0
   15.7296    5.9589   22.5745 C   0  0  0  0  0  0  0  0  0  0  0  0
   15.3716    7.3046   22.5750 C   0  0  0  0  0  0  0  0  0  0  0  0
   21.7346    6.6670   17.0306 C   0  0  0  0  0  0  0  0  0  0  0  0
   23.0314    6.2302   17.7720 C   0  0  0  0  0  0  0  0  0  0  0  0
   23.6832    5.1678   16.8896 C   0  0  0  0  0  0  0  0  0  0  0  0
   23.9679    7.4423   18.0208 C   0  0  0  0  0  0  0  0  0  0  0  0
 13 14  2  0  0  0
 13 17  1  0  0  0
 17 18  1  0  0  0
 18 19  1  0  0  0
 19 20  2  0  0  0
 19 24  1  0  0  0
 20 21  1  0  0  0
 21 22  2  0  0  0
 22 23  1  0  0  0
 23 24  2  0  0  0
 15 11  1  0  0  0
 11  7  1  0  0  0
 11 12  1  0  0  0
  7  8  2  0  0  0
  9  5  1  0  0  0
  5  1  1  0  0  0
  5  6  1  0  0  0
  1  2  2  0  0  0
 25 43  1  0  0  0
 25  3  1  0  0  0
 25 26  1  0  0  0
 43 44  1  0  0  0
 44 45  1  0  0  0
 44 46  1  0  0  0
 26 27  2  0  0  0
 26 28  1  0  0  0
 31 36  1  0  0  0
 31 32  1  0  0  0
 31 30  1  0  0  0
 36 37  1  0  0  0
 37 38  2  0  0  0
 37 39  1  0  0  0
 38 40  1  0  0  0
 39 41  2  0  0  0
 40 42  2  0  0  0
 41 42  1  0  0  0
 32 35  1  0  0  0
 32 33  2  0  0  0
 34 35  1  0  0  0
 13 15  1  0  0  0
  7  9  1  0  0  0
  1  3  1  0  0  0
 26 30  1  0  0  0
 15 16  1  0  0  0
  9 10  1  0  0  0
  3  4  1  0  0  0
 28 29  1  0  0  0
M  END
> <minimizedAffinity>
-9.29723

$$$$
1PPM_0P1_E_324


 46 47  0  0  0  0  0  0  0  0999 V2000
   23.9625    8.5188   19.7003 C   0  0  0  0  0  0  0  0  0  0  0  0
   24.5019    7.7924   20.5071 O   0  0  0  0  0  0  0  0  0  0  0  0
   23.1518    9.5553   20.0740 N   0  0  0  0  0  0  0  0  0  0  0  0
   22.7446   10.0975   19.3603 H   0  0  0  0  0  0  0  0  0  0  0  0
   24.2186    8.3196   18.2115 C   0  0  0  0  0  0  0  0  0  0  0  0
   24.6526    9.5825   17.4334 C   0  0  0  0  0  0  0  0  0  0  0  0
   22.8418    6.4183   17.7175 C   0  0  0  0  0  0  0  0  0  0  0  0
   23.7020    5.5667   18.1365 O   0  0  0  0  0  0  0  0  0  0  0  0
   22.9932    7.7169   17.6868 N   0  0  0  0  0  0  0  0  0  0  0  0
   22.2842    8.2875   17.3115 H   0  0  0  0  0  0  0  0  0  0  0  0
   21.4678    5.9160   17.1754 C   0  0  0  0  0  0  0  0  0  0  0  0
   21.1613    6.7250   15.9062 C   0  0  0  0  0  0  0  0  0  0  0  0
   19.7611    5.4425   18.7733 C   0  0  0  0  0  0  0  0  0  0  0  0
   20.0246    4.2067   18.7359 O   0  0  0  0  0  0  0  0  0  0  0  0
   20.4100    6.3077   18.0750 N   0  0  0  0  0  0  0  0  0  0  0  0
   20.1785    7.2611   18.1569 H   0  0  0  0  0  0  0  0  0  0  0  0
   18.7751    5.8517   19.7017 O   0  0  0  0  0  0  0  0  0  0  0  0
   17.4179    5.7630   19.1868 C   0  0  0  0  0  0  0  0  0  0  0  0
   16.5042    6.2797   20.2690 C   0  0  0  0  0  0  0  0  0  0  0  0
   16.1858    5.4592   21.3692 C   0  0  0  0  0  0  0  0  0  0  0  0
   15.3504    5.9404   22.3516 C   0  0  0  0  0  0  0  0  0  0  0  0
   14.8636    7.2476   22.2434 C   0  0  0  0  0  0  0  0  0  0  0  0
   15.1765    8.0628   21.1300 C   0  0  0  0  0  0  0  0  0  0  0  0
   16.0311    7.5625   20.1318 C   0  0  0  0  0  0  0  0  0  0  0  0
   22.8531    9.9081   21.4305 C   0  0  0  0  0  0  0  0  0  0  0  0
   21.4551    8.9052   22.0823 P   0  0  0  0  0  0  0  0  0  0  0  0
   20.8101    8.2691   20.9946 O   0  0  0  0  0  0  0  0  0  0  0  0
   21.9637    8.2068   23.2154 O   0  0  0  0  0  0  0  0  0  0  0  0
   22.5336    7.4802   22.9184 H   0  0  0  0  0  0  0  0  0  0  0  0
   20.5234   10.0953   22.5090 O   0  0  0  0  0  0  0  0  0  0  0  0
   19.8724   10.0275   23.8222 C   0  0  0  0  0  0  0  0  0  0  0  0
   18.7764    8.9710   23.8157 C   0  0  0  0  0  0  0  0  0  0  0  0
   18.0943    8.7481   22.8494 O   0  0  0  0  0  0  0  0  0  0  0  0
   17.5980    7.1563   24.9743 C   0  0  0  0  0  0  0  0  0  0  0  0
   18.4776    8.1874   24.9218 O   0  0  0  0  0  0  0  0  0  0  0  0
   19.1793   11.3809   24.0982 C   0  0  0  0  0  0  0  0  0  0  0  0
   19.8845   12.2390   25.1179 C   0  0  0  0  0  0  0  0  0  0  0  0
   20.4911   13.4174   24.6145 C   0  0  0  0  0  0  0  0  0  0  0  0
   19.9710   11.9594   26.4610 C   0  0  0  0  0  0  0  0  0  0  0  0
   21.1729   14.2918   25.4343 C   0  0  0  0  0  0  0  0  0  0  0  0
   20.6308   12.8344   27.2876 C   0  0  0  0  0  0  0  0  0  0  0  0
   21.2479   13.9750   26.7803 C   0  0  0  0  0  0  0  0  0  0  0  0
   22.5450   11.4533   21.5393 C   0  0  0  0  0  0  0  0  0  0  0  0
   23.4736   12.2689   22.4853 C   0  0  0  0  0  0  0  0  0  0  0  0
   23.3823   11.5916   23.8511 C   0  0  0  0  0  0  0  0  0  0  0  0
   24.9276   12.3068   21.9446 C   0  0  0  0  0  0  0  0  0  0  0  0
 13 14  2  0  0  0
 13 17  1  0  0  0
 17 18  1  0  0  0
 18 19  1  0  0  0
 19 20  2  0  0  0
 19 24  1  0  0  0
 20 21  1  0  0  0
 21 22  2  0  0  0
 22 23  1  0  0  0
 23 24  2  0  0  0
 15 11  1  0  0  0
 11  7  1  0  0  0
 11 12  1  0  0  0
  7  8  2  0  0  0
  9  5  1  0  0  0
  5  1  1  0  0  0
  5  6  1  0  0  0
  1  2  2  0  0  0
 25 43  1  0  0  0
 25  3  1  0  0  0
 25 26  1  0  0  0
 43 44  1  0  0  0
 44 45  1  0  0  0
 44 46  1  0  0  0
 26 27  2  0  0  0
 26 28  1  0  0  0
 31 36  1  0  0  0
 31 32  1  0  0  0
 31 30  1  0  0  0
 36 37  1  0  0  0
 37 38  2  0  0  0
 37 39  1  0  0  0
 38 40  1  0  0  0
 39 41  2  0  0  0
 40 42  2  0  0  0
 41 42  1  0  0  0
 32 35  1  0  0  0
 32 33  2  0  0  0
 34 35  1  0  0  0
 13 15  1  0  0  0
  7  9  1  0  0  0
  1  3  1  0  0  0
 26 30  1  0  0  0
 15 16  1  0  0  0
  9 10  1  0  0  0
  3  4  1  0  0  0
 28 29  1  0  0  0
M  END
> <minimizedAffinity>
-9.15691

$$$$
1PPM_0P1_E_324


 46 47  0  0  0  0  0  0  0  0999 V2000
   20.9792    8.7572   21.7145 C   0  0  0  0  0  0  0  0  0  0  0  0
   21.3255    8.3087   22.7862 O   0  0  0  0  0  0  0  0  0  0  0  0
   21.7845    9.5704   20.9652 N   0  0  0  0  0  0  0  0  0  0  0  0
   21.4305    9.9000   20.1078 H   0  0  0  0  0  0  0  0  0  0  0  0
   19.6206    8.3780   21.1380 C   0  0  0  0  0  0  0  0  0  0  0  0
   18.4490    8.3592   22.1457 C   0  0  0  0  0  0  0  0  0  0  0  0
   19.5001    6.9425   19.2198 C   0  0  0  0  0  0  0  0  0  0  0  0
   18.9523    7.8275   18.4732 O   0  0  0  0  0  0  0  0  0  0  0  0
   19.8282    7.0894   20.4772 N   0  0  0  0  0  0  0  0  0  0  0  0
   20.2139    6.3347   20.9780 H   0  0  0  0  0  0  0  0  0  0  0  0
   19.8244    5.5355   18.6287 C   0  0  0  0  0  0  0  0  0  0  0  0
   20.9755    5.7215   17.6289 C   0  0  0  0  0  0  0  0  0  0  0  0
   17.8786    4.2219   18.2061 C   0  0  0  0  0  0  0  0  0  0  0  0
   17.9193    3.7297   19.3698 O   0  0  0  0  0  0  0  0  0  0  0  0
   18.7361    5.0890   17.7935 N   0  0  0  0  0  0  0  0  0  0  0  0
   18.6469    5.4568   16.8846 H   0  0  0  0  0  0  0  0  0  0  0  0
   16.7783    3.8485   17.3990 O   0  0  0  0  0  0  0  0  0  0  0  0
   15.5138    4.4154   17.8396 C   0  0  0  0  0  0  0  0  0  0  0  0
   14.5108    3.2900   17.8549 C   0  0  0  0  0  0  0  0  0  0  0  0
   13.7083    3.0808   18.9939 C   0  0  0  0  0  0  0  0  0  0  0  0
   12.7960    2.0502   18.9978 C   0  0  0  0  0  0  0  0  0  0  0  0
   12.6704    1.2554   17.8533 C   0  0  0  0  0  0  0  0  0  0  0  0
   13.4877    1.4619   16.7168 C   0  0  0  0  0  0  0  0  0  0  0  0
   14.4165    2.5176   16.7223 C   0  0  0  0  0  0  0  0  0  0  0  0
   23.1069    9.9766   21.3397 C   0  0  0  0  0  0  0  0  0  0  0  0
   23.1944   11.7976   21.5867 P   0  0  0  0  0  0  0  0  0  0  0  0
   24.1064   12.0677   22.6351 O   0  0  0  0  0  0  0  0  0  0  0  0
   23.2970   12.3690   20.2854 O   0  0  0  0  0  0  0  0  0  0  0  0
   24.1928   12.2291   19.9406 H   0  0  0  0  0  0  0  0  0  0  0  0
   21.7592   11.9970   22.1923 O   0  0  0  0  0  0  0  0  0  0  0  0
   21.6298   12.0822   23.6513 C   0  0  0  0  0  0  0  0  0  0  0  0
   20.2334   11.6577   24.0844 C   0  0  0  0  0  0  0  0  0  0  0  0
   19.2571   12.3319   23.8819 O   0  0  0  0  0  0  0  0  0  0  0  0
   18.8595   10.1431   25.4419 C   0  0  0  0  0  0  0  0  0  0  0  0
   19.9794   10.4650   24.7477 O   0  0  0  0  0  0  0  0  0  0  0  0
   21.7932   13.5595   24.0745 C   0  0  0  0  0  0  0  0  0  0  0  0
   22.2533   13.7466   25.4981 C   0  0  0  0  0  0  0  0  0  0  0  0
   23.5892   13.3557   25.7678 C   0  0  0  0  0  0  0  0  0  0  0  0
   21.4837   14.2575   26.5161 C   0  0  0  0  0  0  0  0  0  0  0  0
   24.1396   13.4677   27.0273 C   0  0  0  0  0  0  0  0  0  0  0  0
   22.0298   14.3910   27.7683 C   0  0  0  0  0  0  0  0  0  0  0  0
   23.3336   13.9783   28.0310 C   0  0  0  0  0  0  0  0  0  0  0  0
   24.1536    9.4974   20.2584 C   0  0  0  0  0  0  0  0  0  0  0  0
   23.8498    8.1337   19.5725 C   0  0  0  0  0  0  0  0  0  0  0  0
   24.3631    8.2597   18.1397 C   0  0  0  0  0  0  0  0  0  0  0  0
   24.5221    6.9621   20.3363 C   0  0  0  0  0  0  0  0  0  0  0  0
 13 14  2  0  0  0
 13 17  1  0  0  0
 17 18  1  0  0  0
 18 19  1  0  0  0
 19 20  2  0  0  0
 19 24  1  0  0  0
 20 21  1  0  0  0
 21 22  2  0  0  0
 22 23  1  0  0  0
 23 24  2  0  0  0
 15 11  1  0  0  0
 11  7  1  0  0  0
 11 12  1  0  0  0
  7  8  2  0  0  0
  9  5  1  0  0  0
  5  1  1  0  0  0
  5  6  1  0  0  0
  1  2  2  0  0  0
 25 43  1  0  0  0
 25  3  1  0  0  0
 25 26  1  0  0  0
 43 44  1  0  0  0
 44 45  1  0  0  0
 44 46  1  0  0  0
 26 27  2  0  0  0
 26 28  1  0  0  0
 31 36  1  0  0  0
 31 32  1  0  0  0
 31 30  1  0  0  0
 36 37  1  0  0  0
 37 38  2  0  0  0
 37 39  1  0  0  0
 38 40  1  0  0  0
 39 41  2  0  0  0
 40 42  2  0  0  0
 41 42  1  0  0  0
 32 35  1  0  0  0
 32 33  2  0  0  0
 34 35  1  0  0  0
 13 15  1  0  0  0
  7  9  1  0  0  0
  1  3  1  0  0  0
 26 30  1  0  0  0
 15 16  1  0  0  0
  9 10  1  0  0  0
  3  4  1  0  0  0
 28 29  1  0  0  0
M  END
> <minimizedAffinity>
-9.01121

$$$$
1PPM_0P1_E_324


 46 47  0  0  0  0  0  0  0  0999 V2000
   19.5673    7.6802   20.3057 C   0  0  0  0  0  0  0  0  0  0  0  0
   18.5610    8.2447   19.9337 O   0  0  0  0  0  0  0  0  0  0  0  0
   20.0471    6.5562   19.6913 N   0  0  0  0  0  0  0  0  0  0  0  0
   20.8673    6.1510   20.0552 H   0  0  0  0  0  0  0  0  0  0  0  0
   20.3700    8.2507   21.4684 C   0  0  0  0  0  0  0  0  0  0  0  0
   19.5423    8.9364   22.5790 C   0  0  0  0  0  0  0  0  0  0  0  0
   22.6225    8.8183   20.8694 C   0  0  0  0  0  0  0  0  0  0  0  0
   23.1317    7.7800   21.4202 O   0  0  0  0  0  0  0  0  0  0  0  0
   21.3555    9.1419   20.8561 N   0  0  0  0  0  0  0  0  0  0  0  0
   21.0655    9.9832   20.4349 H   0  0  0  0  0  0  0  0  0  0  0  0
   23.5548    9.8314   20.1355 C   0  0  0  0  0  0  0  0  0  0  0  0
   24.8448    9.0785   19.7775 C   0  0  0  0  0  0  0  0  0  0  0  0
   23.2937   11.8687   21.3483 C   0  0  0  0  0  0  0  0  0  0  0  0
   22.1399   12.0466   20.8635 O   0  0  0  0  0  0  0  0  0  0  0  0
   24.0119   10.8399   21.0603 N   0  0  0  0  0  0  0  0  0  0  0  0
   24.8957   10.7387   21.4820 H   0  0  0  0  0  0  0  0  0  0  0  0
   23.7283   12.8109   22.3101 O   0  0  0  0  0  0  0  0  0  0  0  0
   23.7814   12.2799   23.6629 C   0  0  0  0  0  0  0  0  0  0  0  0
   22.6800   12.9536   24.4414 C   0  0  0  0  0  0  0  0  0  0  0  0
   22.9748   14.0658   25.2546 C   0  0  0  0  0  0  0  0  0  0  0  0
   21.9621   14.6733   25.9615 C   0  0  0  0  0  0  0  0  0  0  0  0
   20.6579   14.1847   25.8277 C   0  0  0  0  0  0  0  0  0  0  0  0
   20.3696   13.0596   25.0195 C   0  0  0  0  0  0  0  0  0  0  0  0
   21.4108   12.4461   24.3009 C   0  0  0  0  0  0  0  0  0  0  0  0
   19.4410    5.9265   18.5555 C   0  0  0  0  0  0  0  0  0  0  0  0
   18.2507    4.6246   19.0779 P   0  0  0  0  0  0  0  0  0  0  0  0
   18.1106    3.6913   18.0229 O   0  0  0  0  0  0  0  0  0  0  0  0
   18.6172    4.2635   20.4068 O   0  0  0  0  0  0  0  0  0  0  0  0
   19.4208    3.7207   20.3843 H   0  0  0  0  0  0  0  0  0  0  0  0
   16.9516    5.5069   19.0578 O   0  0  0  0  0  0  0  0  0  0  0  0
   15.9646    5.3092   20.1253 C   0  0  0  0  0  0  0  0  0  0  0  0
   14.7927    4.4818   19.6159 C   0  0  0  0  0  0  0  0  0  0  0  0
   13.9916    3.9673   20.3522 O   0  0  0  0  0  0  0  0  0  0  0  0
   13.5114    4.7069   17.5345 C   0  0  0  0  0  0  0  0  0  0  0  0
   14.5599    4.2546   18.2664 O   0  0  0  0  0  0  0  0  0  0  0  0
   15.3910    6.6869   20.5264 C   0  0  0  0  0  0  0  0  0  0  0  0
   15.1683    6.8553   22.0081 C   0  0  0  0  0  0  0  0  0  0  0  0
   16.2940    7.2896   22.7526 C   0  0  0  0  0  0  0  0  0  0  0  0
   13.9803    6.6231   22.6596 C   0  0  0  0  0  0  0  0  0  0  0  0
   16.2340    7.4811   24.1169 C   0  0  0  0  0  0  0  0  0  0  0  0
   13.9062    6.8303   24.0145 C   0  0  0  0  0  0  0  0  0  0  0  0
   15.0242    7.2298   24.7422 C   0  0  0  0  0  0  0  0  0  0  0  0
   20.5509    5.3338   17.6009 C   0  0  0  0  0  0  0  0  0  0  0  0
   20.4381    5.7249   16.0987 C   0  0  0  0  0  0  0  0  0  0  0  0
   21.3911    6.9012   15.8974 C   0  0  0  0  0  0  0  0  0  0  0  0
   20.7864    4.5232   15.1808 C   0  0  0  0  0  0  0  0  0  0  0  0
 13 14  2  0  0  0
 13 17  1  0  0  0
 17 18  1  0  0  0
 18 19  1  0  0  0
 19 20  2  0  0  0
 19 24  1  0  0  0
 20 21  1  0  0  0
 21 22  2  0  0  0
 22 23  1  0  0  0
 23 24  2  0  0  0
 15 11  1  0  0  0
 11  7  1  0  0  0
 11 12  1  0  0  0
  7  8  2  0  0  0
  9  5  1  0  0  0
  5  1  1  0  0  0
  5  6  1  0  0  0
  1  2  2  0  0  0
 25 43  1  0  0  0
 25  3  1  0  0  0
 25 26  1  0  0  0
 43 44  1  0  0  0
 44 45  1  0  0  0
 44 46  1  0  0  0
 26 27  2  0  0  0
 26 28  1  0  0  0
 31 36  1  0  0  0
 31 32  1  0  0  0
 31 30  1  0  0  0
 36 37  1  0  0  0
 37 38  2  0  0  0
 37 39  1  0  0  0
 38 40  1  0  0  0
 39 41  2  0  0  0
 40 42  2  0  0  0
 41 42  1  0  0  0
 32 35  1  0  0  0
 32 33  2  0  0  0
 34 35  1  0  0  0
 13 15  1  0  0  0
  7  9  1  0  0  0
  1  3  1  0  0  0
 26 30  1  0  0  0
 15 16  1  0  0  0
  9 10  1  0  0  0
  3  4  1  0  0  0
 28 29  1  0  0  0
M  END
> <minimizedAffinity>
-9.00029

$$$$
1PPM_0P1_E_324


 46 47  0  0  0  0  0  0  0  0999 V2000
   17.8634    5.7829   20.8461 C   0  0  0  0  0  0  0  0  0  0  0  0
   18.2302    4.7629   21.3888 O   0  0  0  0  0  0  0  0  0  0  0  0
   18.2243    6.1027   19.5660 N   0  0  0  0  0  0  0  0  0  0  0  0
   17.8914    6.9521   19.1958 H   0  0  0  0  0  0  0  0  0  0  0  0
   16.9281    6.7368   21.5788 C   0  0  0  0  0  0  0  0  0  0  0  0
   16.1971    7.7692   20.6909 C   0  0  0  0  0  0  0  0  0  0  0  0
   18.6844    8.2071   22.2917 C   0  0  0  0  0  0  0  0  0  0  0  0
   19.0122    8.5476   21.1012 O   0  0  0  0  0  0  0  0  0  0  0  0
   17.7476    7.3560   22.6206 N   0  0  0  0  0  0  0  0  0  0  0  0
   17.5941    7.1325   23.5670 H   0  0  0  0  0  0  0  0  0  0  0  0
   19.4443    8.8302   23.5035 C   0  0  0  0  0  0  0  0  0  0  0  0
   18.4344    8.9510   24.6545 C   0  0  0  0  0  0  0  0  0  0  0  0
   21.0032   10.6095   23.1965 C   0  0  0  0  0  0  0  0  0  0  0  0
   21.9793    9.8305   23.3922 O   0  0  0  0  0  0  0  0  0  0  0  0
   19.7815   10.2041   23.2202 N   0  0  0  0  0  0  0  0  0  0  0  0
   19.0589   10.8481   23.0404 H   0  0  0  0  0  0  0  0  0  0  0  0
   21.3182   11.9440   22.8482 O   0  0  0  0  0  0  0  0  0  0  0  0
   22.5836   12.4058   23.3962 C   0  0  0  0  0  0  0  0  0  0  0  0
   22.2631   13.1654   24.6584 C   0  0  0  0  0  0  0  0  0  0  0  0
   21.0345   13.8452   24.7753 C   0  0  0  0  0  0  0  0  0  0  0  0
   20.7519   14.5360   25.9317 C   0  0  0  0  0  0  0  0  0  0  0  0
   21.6848   14.5180   26.9741 C   0  0  0  0  0  0  0  0  0  0  0  0
   22.9225   13.8442   26.8466 C   0  0  0  0  0  0  0  0  0  0  0  0
   23.2019   13.1409   25.6615 C   0  0  0  0  0  0  0  0  0  0  0  0
   19.0525    5.2895   18.7254 C   0  0  0  0  0  0  0  0  0  0  0  0
   20.2908    6.3123   17.8280 P   0  0  0  0  0  0  0  0  0  0  0  0
   19.9439    6.3406   16.4559 O   0  0  0  0  0  0  0  0  0  0  0  0
   20.4834    7.4831   18.6170 O   0  0  0  0  0  0  0  0  0  0  0  0
   19.7167    8.0691   18.5185 H   0  0  0  0  0  0  0  0  0  0  0  0
   21.5073    5.3269   17.9522 O   0  0  0  0  0  0  0  0  0  0  0  0
   22.6709    5.5521   17.0873 C   0  0  0  0  0  0  0  0  0  0  0  0
   22.9194    4.3353   16.2069 C   0  0  0  0  0  0  0  0  0  0  0  0
   23.9703    4.1362   15.6549 O   0  0  0  0  0  0  0  0  0  0  0  0
   21.6941    2.2747   16.7333 C   0  0  0  0  0  0  0  0  0  0  0  0
   21.9546    3.3656   15.9706 O   0  0  0  0  0  0  0  0  0  0  0  0
   23.9226    5.7150   17.9789 C   0  0  0  0  0  0  0  0  0  0  0  0
   24.0010    7.0384   18.6971 C   0  0  0  0  0  0  0  0  0  0  0  0
   23.6909    7.0055   20.0802 C   0  0  0  0  0  0  0  0  0  0  0  0
   24.3449    8.2345   18.1135 C   0  0  0  0  0  0  0  0  0  0  0  0
   23.7184    8.1431   20.8591 C   0  0  0  0  0  0  0  0  0  0  0  0
   24.3941    9.3684   18.8855 C   0  0  0  0  0  0  0  0  0  0  0  0
   24.0606    9.3321   20.2370 C   0  0  0  0  0  0  0  0  0  0  0  0
   18.1627    4.4589   17.7189 C   0  0  0  0  0  0  0  0  0  0  0  0
   16.8674    3.8317   18.3115 C   0  0  0  0  0  0  0  0  0  0  0  0
   15.7354    4.2352   17.3691 C   0  0  0  0  0  0  0  0  0  0  0  0
   17.0017    2.2913   18.4423 C   0  0  0  0  0  0  0  0  0  0  0  0
 13 14  2  0  0  0
 13 17  1  0  0  0
 17 18  1  0  0  0
 18 19  1  0  0  0
 19 20  2  0  0  0
 19 24  1  0  0  0
 20 21  1  0  0  0
 21 22  2  0  0  0
 22 23  1  0  0  0
 23 24  2  0  0  0
 15 11  1  0  0  0
 11  7  1  0  0  0
 11 12  1  0  0  0
  7  8  2  0  0  0
  9  5  1  0  0  0
  5  1  1  0  0  0
  5  6  1  0  0  0
  1  2  2  0  0  0
 25 43  1  0  0  0
 25  3  1  0  0  0
 25 26  1  0  0  0
 43 44  1  0  0  0
 44 45  1  0  0  0
 44 46  1  0  0  0
 26 27  2  0  0  0
 26 28  1  0  0  0
 31 36  1  0  0  0
 31 32  1  0  0  0
 31 30  1  0  0  0
 36 37  1  0  0  0
 37 38  2  0  0  0
 37 39  1  0  0  0
 38 40  1  0  0  0
 39 41  2  0  0  0
 40 42  2  0  0  0
 41 42  1  0  0  0
 32 35  1  0  0  0
 32 33  2  0  0  0
 34 35  1  0  0  0
 13 15  1  0  0  0
  7  9  1  0  0  0
  1  3  1  0  0  0
 26 30  1  0  0  0
 15 16  1  0  0  0
  9 10  1  0  0  0
  3  4  1  0  0  0
 28 29  1  0  0  0
M  END
> <minimizedAffinity>
-8.96259

$$$$
1PPM_0P1_E_324


 46 47  0  0  0  0  0  0  0  0999 V2000
   19.5188    9.2830   23.5214 C   0  0  0  0  0  0  0  0  0  0  0  0
   20.5591    8.6800   23.3670 O   0  0  0  0  0  0  0  0  0  0  0  0
   18.3130    8.7807   23.1153 N   0  0  0  0  0  0  0  0  0  0  0  0
   17.5124    9.3324   23.2699 H   0  0  0  0  0  0  0  0  0  0  0  0
   19.5226   10.6304   24.2329 C   0  0  0  0  0  0  0  0  0  0  0  0
   18.2838   11.5206   23.9846 C   0  0  0  0  0  0  0  0  0  0  0  0
   21.4334   12.0035   24.7000 C   0  0  0  0  0  0  0  0  0  0  0  0
   21.0671   12.2717   25.8977 O   0  0  0  0  0  0  0  0  0  0  0  0
   20.7768   11.2716   23.8378 N   0  0  0  0  0  0  0  0  0  0  0  0
   21.1256   11.1524   22.9249 H   0  0  0  0  0  0  0  0  0  0  0  0
   22.7789   12.5823   24.1624 C   0  0  0  0  0  0  0  0  0  0  0  0
   22.5905   14.0998   24.0177 C   0  0  0  0  0  0  0  0  0  0  0  0
   24.1766   12.0372   22.3079 C   0  0  0  0  0  0  0  0  0  0  0  0
   25.2188   12.2717   22.9837 O   0  0  0  0  0  0  0  0  0  0  0  0
   22.9936   12.1494   22.8030 N   0  0  0  0  0  0  0  0  0  0  0  0
   22.2154   11.9343   22.2396 H   0  0  0  0  0  0  0  0  0  0  0  0
   24.3704   11.5444   20.9960 O   0  0  0  0  0  0  0  0  0  0  0  0
   23.2741   10.7180   20.5164 C   0  0  0  0  0  0  0  0  0  0  0  0
   23.8277    9.3304   20.3136 C   0  0  0  0  0  0  0  0  0  0  0  0
   24.8995    9.1261   19.4222 C   0  0  0  0  0  0  0  0  0  0  0  0
   25.3973    7.8553   19.2440 C   0  0  0  0  0  0  0  0  0  0  0  0
   24.8414    6.8031   19.9796 C   0  0  0  0  0  0  0  0  0  0  0  0
   23.7567    7.0119   20.8640 C   0  0  0  0  0  0  0  0  0  0  0  0
   23.2554    8.3138   21.0396 C   0  0  0  0  0  0  0  0  0  0  0  0
   18.1323    7.5085   22.4807 C   0  0  0  0  0  0  0  0  0  0  0  0
   18.4175    7.6274   20.6671 P   0  0  0  0  0  0  0  0  0  0  0  0
   17.2586    8.1705   20.0624 O   0  0  0  0  0  0  0  0  0  0  0  0
   19.7221    8.1777   20.5069 O   0  0  0  0  0  0  0  0  0  0  0  0
   19.7002    9.1260   20.7099 H   0  0  0  0  0  0  0  0  0  0  0  0
   18.3976    6.0895   20.3496 O   0  0  0  0  0  0  0  0  0  0  0  0
   18.4820    5.6719   18.9456 C   0  0  0  0  0  0  0  0  0  0  0  0
   17.2173    4.9295   18.5373 C   0  0  0  0  0  0  0  0  0  0  0  0
   17.2355    3.9516   17.8357 O   0  0  0  0  0  0  0  0  0  0  0  0
   15.1645    4.7200   19.8663 C   0  0  0  0  0  0  0  0  0  0  0  0
   15.9483    5.3238   18.9386 O   0  0  0  0  0  0  0  0  0  0  0  0
   19.6490    4.6694   18.7997 C   0  0  0  0  0  0  0  0  0  0  0  0
   20.8018    5.1799   17.9728 C   0  0  0  0  0  0  0  0  0  0  0  0
   21.2999    4.2830   16.9942 C   0  0  0  0  0  0  0  0  0  0  0  0
   21.3791    6.4205   18.1036 C   0  0  0  0  0  0  0  0  0  0  0  0
   22.3541    4.6173   16.1705 C   0  0  0  0  0  0  0  0  0  0  0  0
   22.4160    6.7691   17.2745 C   0  0  0  0  0  0  0  0  0  0  0  0
   22.9175    5.8716   16.3352 C   0  0  0  0  0  0  0  0  0  0  0  0
   16.6928    6.9395   22.7949 C   0  0  0  0  0  0  0  0  0  0  0  0
   16.2333    7.0287   24.2792 C   0  0  0  0  0  0  0  0  0  0  0  0
   14.7075    6.9697   24.2517 C   0  0  0  0  0  0  0  0  0  0  0  0
   16.8502    5.8831   25.1249 C   0  0  0  0  0  0  0  0  0  0  0  0
 13 14  2  0  0  0
 13 17  1  0  0  0
 17 18  1  0  0  0
 18 19  1  0  0  0
 19 20  2  0  0  0
 19 24  1  0  0  0
 20 21  1  0  0  0
 21 22  2  0  0  0
 22 23  1  0  0  0
 23 24  2  0  0  0
 15 11  1  0  0  0
 11  7  1  0  0  0
 11 12  1  0  0  0
  7  8  2  0  0  0
  9  5  1  0  0  0
  5  1  1  0  0  0
  5  6  1  0  0  0
  1  2  2  0  0  0
 25 43  1  0  0  0
 25  3  1  0  0  0
 25 26  1  0  0  0
 43 44  1  0  0  0
 44 45  1  0  0  0
 44 46  1  0  0  0
 26 27  2  0  0  0
 26 28  1  0  0  0
 31 36  1  0  0  0
 31 32  1  0  0  0
 31 30  1  0  0  0
 36 37  1  0  0  0
 37 38  2  0  0  0
 37 39  1  0  0  0
 38 40  1  0  0  0
 39 41  2  0  0  0
 40 42  2  0  0  0
 41 42  1  0  0  0
 32 35  1  0  0  0
 32 33  2  0  0  0
 34 35  1  0  0  0
 13 15  1  0  0  0
  7  9  1  0  0  0
  1  3  1  0  0  0
 26 30  1  0  0  0
 15 16  1  0  0  0
  9 10  1  0  0  0
  3  4  1  0  0  0
 28 29  1  0  0  0
M  END
> <minimizedAffinity>
-8.90111

$$$$
