5KVA_SAM_A_301
  RCSB PDB12061718403D
Coordinates from PDB:5KVA:A:301 Model:1 without hydrogens
 27 29  0  0  0  0            999 V2000
   42.4230   40.3640  -12.1460   N 0  0  0  0  0  0  0  0  0  0  0  0
   42.5920   40.8400  -13.5210   C 0  0  0  0  0  0  0  0  0  0  0  0
   42.2400   42.3050  -13.7080   C 0  0  0  0  0  0  0  0  0  0  0  0
   41.8090   43.0050  -12.7850   O 0  0  0  0  0  0  0  0  0  0  0  0
   42.3900   42.8270  -14.8140   O 0  5  0  0  0  0  0  0  0  0  0  0
   41.7810   40.0210  -14.5230   C 0  0  0  0  0  0  0  0  0  0  0  0
   42.3460   38.6300  -14.7940   C 0  0  0  0  0  0  0  0  0  0  0  0
   41.6360   37.9600  -16.3170   S 0  3  0  0  0  0  0  0  0  0  0  0
   39.9090   37.7850  -15.8100   C 0  0  0  0  0  0  0  0  0  0  0  0
   42.1700   36.2210  -16.3040   C 0  0  0  0  0  0  0  0  0  0  0  0
   43.6810   36.0830  -16.4210   C 0  0  0  0  0  0  0  0  0  0  0  0
   44.1010   34.7910  -16.0110   O 0  0  0  0  0  0  0  0  0  0  0  0
   44.1630   36.2460  -17.8600   C 0  0  0  0  0  0  0  0  0  0  0  0
   45.0360   37.3560  -17.9080   O 0  0  0  0  0  0  0  0  0  0  0  0
   44.8830   34.9470  -18.2040   C 0  0  0  0  0  0  0  0  0  0  0  0
   46.0940   35.1560  -18.8960   O 0  0  0  0  0  0  0  0  0  0  0  0
   45.1690   34.3750  -16.8290   C 0  0  0  0  0  0  0  0  0  0  0  0
   45.2400   32.9090  -16.7580   N 0  0  0  0  0  0  0  0  0  0  0  0
   44.4590   31.9650  -17.3730   C 0  0  0  0  0  0  0  0  0  0  0  0
   44.9010   30.7430  -16.9750   N 0  0  0  0  0  0  0  0  0  0  0  0
   45.9330   30.9110  -16.1170   C 0  0  0  0  0  0  0  0  0  0  0  0
   46.7430   30.0370  -15.4180   C 0  0  0  0  0  0  0  0  0  0  0  0
   46.5810   28.7170  -15.5160   N 0  0  0  0  0  0  0  0  0  0  0  0
   47.7350   30.5410  -14.6030   N 0  0  0  0  0  0  0  0  0  0  0  0
   47.9350   31.9020  -14.4860   C 0  0  0  0  0  0  0  0  0  0  0  0
   47.1240   32.7730  -15.1840   N 0  0  0  0  0  0  0  0  0  0  0  0
   46.1470   32.2770  -15.9770   C 0  0  0  0  0  0  0  0  0  0  0  0
  1  2  1  0  0  0  0
  2  3  1  0  0  0  0
  2  6  1  0  0  0  0
  3  4  2  0  0  0  0
  3  5  1  0  0  0  0
  6  7  1  0  0  0  0
  7  8  1  0  0  0  0
  8  9  1  0  0  0  0
  8 10  1  0  0  0  0
 10 11  1  0  0  0  0
 11 12  1  0  0  0  0
 11 13  1  0  0  0  0
 12 17  1  0  0  0  0
 13 14  1  0  0  0  0
 13 15  1  0  0  0  0
 15 16  1  0  0  0  0
 15 17  1  0  0  0  0
 17 18  1  0  0  0  0
 18 19  1  0  0  0  0
 18 27  1  0  0  0  0
 19 20  2  0  0  0  0
 20 21  1  0  0  0  0
 21 22  1  0  0  0  0
 21 27  2  0  0  0  0
 22 23  1  0  0  0  0
 22 24  2  0  0  0  0
 24 25  1  0  0  0  0
 25 26  2  0  0  0  0
 26 27  1  0  0  0  0
M  CHG  2   5  -1   8   1
A    1
N
A    2
CA
A    3
C
A    4
O
A    5
OXT
A    6
CB
A    7
CG
A    8
SD
A    9
CE
A   10
C5'
A   11
C4'
A   12
O4'
A   13
C3'
A   14
O3'
A   15
C2'
A   16
O2'
A   17
C1'
A   18
N9
A   19
C8
A   20
N7
A   21
C5
A   22
C6
A   23
N6
A   24
N1
A   25
C2
A   26
N3
A   27
C4
M  END
>  <InstanceId>
5KVA_SAM_A_301

>  <ChemCompId>
SAM

>  <PdbId>
5KVA

>  <ChainId>
A

>  <ResidueNumber>
301

>  <InsertionCode>


>  <Model>
1

>  <AltIds>


>  <MissingHeavyAtoms>
0

>  <ObservedFormula>
C15 N6 O5 S

>  <Name>
S-ADENOSYLMETHIONINE

>  <SystematicName>
(2S)-2-amino-4-[[(2S,3S,4R,5R)-5-(6-aminopurin-9-yl)-3,4-dihydroxy-oxolan-2-yl]methyl-methyl-sulfonio]butanoate

>  <Synonyms>


>  <Type>
NON-POLYMER

>  <Formula>
C15 H22 N6 O5 S

>  <MolecularWeight>
398.437

>  <ModifiedDate>
2011-06-04

>  <Parent>


>  <OneLetterCode>


>  <SubcomponentList>


>  <AmbiguousFlag>
N

>  <InChI>
InChI=1S/C15H22N6O5S/c1-27(3-2-7(16)15(24)25)4-8-10(22)11(23)14(26-8)21-6-20-9-12(17)18-5-19-13(9)21/h5-8,10-11,14,22-23H,2-4,16H2,1H3,(H2-,17,18,19,24,25)/t7-,8+,10+,11+,14+,27-/m0/s1

>  <InChIKey>
MEFKEPWMEQBLKI-FCKMPRQPSA-N

>  <SMILES>
C[S@@+](CC[C@@H](C(=O)[O-])N)C[C@@H]1[C@H]([C@H]([C@@H](O1)n2cnc3c2ncnc3N)O)O

$$$$
