5LJT_A6N_A_302


 27 29  0  0  0  0  0  0  0  0999 V2000
   -4.8083    4.7710   14.7807 C   0  0  0  0  0  0  0  0  0  0  0  0
   -3.8178    3.8252   14.9904 C   0  0  0  0  0  0  0  0  0  0  0  0
   -4.1115    2.6550   15.6700 C   0  0  0  0  0  0  0  0  0  0  0  0
   -5.4017    2.4385   16.1321 C   0  0  0  0  0  0  0  0  0  0  0  0
   -6.3871    3.3933   15.9445 C   0  0  0  0  0  0  0  0  0  0  0  0
   -6.0862    4.5657   15.2760 C   0  0  0  0  0  0  0  0  0  0  0  0
   -5.8225    0.8897   16.8721 S   0  0  0  0  0  0  0  0  0  0  0  0
   -5.4425    0.9714   18.2488 O   0  0  0  0  0  0  0  0  0  0  0  0
   -5.2341   -0.1340   16.0575 O   0  0  0  0  0  0  0  0  0  0  0  0
   -7.4122    0.7246   16.8042 N   0  0  0  0  0  0  0  0  0  0  0  0
   -4.4799    1.0721   18.3132 H   0  0  0  0  0  0  0  0  0  0  0  0
   -4.2678   -0.0528   16.0839 H   0  0  0  0  0  0  0  0  0  0  0  0
   -7.8535    1.4437   17.3774 H   0  0  0  0  0  0  0  0  0  0  0  0
   -7.6735   -0.1971   17.1542 H   0  0  0  0  0  0  0  0  0  0  0  0
   -4.4653    5.8744   14.0422 O   0  0  0  0  0  0  0  0  0  0  0  0
   -3.8089    5.7019   12.7854 C   0  0  0  0  0  0  0  0  0  0  0  0
   -4.7704    6.0190   11.6975 C   0  0  0  0  0  0  0  0  0  0  0  0
   -5.3414    7.2081   11.3559 C   0  0  0  0  0  0  0  0  0  0  0  0
   -6.1092    6.9379   10.2806 N   0  0  0  0  0  0  0  0  0  0  0  0
   -6.0314    5.6225    9.9640 N   0  0  0  0  0  0  0  0  0  0  0  0
   -5.2136    5.0691   10.8294 N   0  0  0  0  0  0  0  0  0  0  0  0
   -6.8991    7.8262    9.4923 C   0  0  0  0  0  0  0  0  0  0  0  0
   -8.0055    7.3438    8.8039 C   0  0  0  0  0  0  0  0  0  0  0  0
   -8.7392    8.2020    8.0044 C   0  0  0  0  0  0  0  0  0  0  0  0
   -8.3763    9.5320    7.8880 C   0  0  0  0  0  0  0  0  0  0  0  0
   -7.2775   10.0099    8.5786 C   0  0  0  0  0  0  0  0  0  0  0  0
   -6.5353    9.1628    9.3837 C   0  0  0  0  0  0  0  0  0  0  0  0
 16 15  1  0  0  0
 16 17  1  0  0  0
 15  1  1  0  0  0
  1  2  2  0  0  0
  1  6  1  0  0  0
  2  3  1  0  0  0
  3  4  2  0  0  0
  4  5  1  0  0  0
  4  7  1  0  0  0
  5  6  2  0  0  0
 17 18  2  0  0  0
 17 21  1  0  0  0
 18 19  1  0  0  0
 19 20  1  0  0  0
 19 22  1  0  0  0
 20 21  2  0  0  0
 22 23  2  0  0  0
 22 27  1  0  0  0
 23 24  1  0  0  0
 24 25  2  0  0  0
 25 26  1  0  0  0
 26 27  2  0  0  0
  7  8  1  0  0  0
  7  9  1  0  0  0
  7 10  1  0  0  0
  8 11  1  0  0  0
  9 12  1  0  0  0
 10 13  1  0  0  0
 10 14  1  0  0  0
M  END
> <minimizedAffinity>
-8.54349

$$$$
5LJT_A6N_A_302


 27 29  0  0  0  0  0  0  0  0999 V2000
   -4.7241    6.7430   11.4508 C   0  0  0  0  0  0  0  0  0  0  0  0
   -4.1556    6.5116   10.2086 C   0  0  0  0  0  0  0  0  0  0  0  0
   -4.9250    6.6275    9.0632 C   0  0  0  0  0  0  0  0  0  0  0  0
   -6.2625    6.9803    9.1712 C   0  0  0  0  0  0  0  0  0  0  0  0
   -6.8385    7.1884   10.4133 C   0  0  0  0  0  0  0  0  0  0  0  0
   -6.0692    7.0596   11.5551 C   0  0  0  0  0  0  0  0  0  0  0  0
   -7.2159    7.2715    7.7119 S   0  0  0  0  0  0  0  0  0  0  0  0
   -6.6602    8.4270    7.0775 O   0  0  0  0  0  0  0  0  0  0  0  0
   -8.5925    7.3048    8.1141 O   0  0  0  0  0  0  0  0  0  0  0  0
   -7.0158    6.0224    6.7327 N   0  0  0  0  0  0  0  0  0  0  0  0
   -6.7711    9.1980    7.6557 H   0  0  0  0  0  0  0  0  0  0  0  0
   -8.7371    8.0564    8.7100 H   0  0  0  0  0  0  0  0  0  0  0  0
   -6.0419    5.9781    6.4328 H   0  0  0  0  0  0  0  0  0  0  0  0
   -7.6182    6.1301    5.9167 H   0  0  0  0  0  0  0  0  0  0  0  0
   -3.8892    6.6773   12.5366 O   0  0  0  0  0  0  0  0  0  0  0  0
   -2.9027    5.6465   12.6025 C   0  0  0  0  0  0  0  0  0  0  0  0
   -3.2734    4.7002   13.6868 C   0  0  0  0  0  0  0  0  0  0  0  0
   -4.4974    4.2237   14.0494 C   0  0  0  0  0  0  0  0  0  0  0  0
   -4.2607    3.3776   15.0727 N   0  0  0  0  0  0  0  0  0  0  0  0
   -2.9350    3.3323   15.3501 N   0  0  0  0  0  0  0  0  0  0  0  0
   -2.3394    4.1383   14.5019 N   0  0  0  0  0  0  0  0  0  0  0  0
   -5.1812    2.5715   15.8056 C   0  0  0  0  0  0  0  0  0  0  0  0
   -6.4410    3.0678   16.1174 C   0  0  0  0  0  0  0  0  0  0  0  0
   -7.3110    2.2980   16.8687 C   0  0  0  0  0  0  0  0  0  0  0  0
   -6.9324    1.0422   17.3090 C   0  0  0  0  0  0  0  0  0  0  0  0
   -5.6796    0.5492   16.9925 C   0  0  0  0  0  0  0  0  0  0  0  0
   -4.7995    1.3080   16.2400 C   0  0  0  0  0  0  0  0  0  0  0  0
 16 15  1  0  0  0
 16 17  1  0  0  0
 15  1  1  0  0  0
  1  2  2  0  0  0
  1  6  1  0  0  0
  2  3  1  0  0  0
  3  4  2  0  0  0
  4  5  1  0  0  0
  4  7  1  0  0  0
  5  6  2  0  0  0
 17 18  2  0  0  0
 17 21  1  0  0  0
 18 19  1  0  0  0
 19 20  1  0  0  0
 19 22  1  0  0  0
 20 21  2  0  0  0
 22 23  2  0  0  0
 22 27  1  0  0  0
 23 24  1  0  0  0
 24 25  2  0  0  0
 25 26  1  0  0  0
 26 27  2  0  0  0
  7  8  1  0  0  0
  7  9  1  0  0  0
  7 10  1  0  0  0
  8 11  1  0  0  0
  9 12  1  0  0  0
 10 13  1  0  0  0
 10 14  1  0  0  0
M  END
> <minimizedAffinity>
-7.87409

$$$$
5LJT_A6N_A_302


 27 29  0  0  0  0  0  0  0  0999 V2000
   -3.7815    5.2835   12.8935 C   0  0  0  0  0  0  0  0  0  0  0  0
   -3.5251    4.0603   12.2953 C   0  0  0  0  0  0  0  0  0  0  0  0
   -3.7328    2.8877   13.0018 C   0  0  0  0  0  0  0  0  0  0  0  0
   -4.2021    2.9496   14.3060 C   0  0  0  0  0  0  0  0  0  0  0  0
   -4.4360    4.1719   14.9136 C   0  0  0  0  0  0  0  0  0  0  0  0
   -4.2155    5.3406   14.2083 C   0  0  0  0  0  0  0  0  0  0  0  0
   -4.6073    1.4601   15.1665 S   0  0  0  0  0  0  0  0  0  0  0  0
   -4.4932    0.3917   14.2221 O   0  0  0  0  0  0  0  0  0  0  0  0
   -5.8732    1.6796   15.8046 O   0  0  0  0  0  0  0  0  0  0  0  0
   -3.5096    1.2339   16.3079 N   0  0  0  0  0  0  0  0  0  0  0  0
   -5.1515    0.5095   13.5195 H   0  0  0  0  0  0  0  0  0  0  0  0
   -6.5556    1.8195   15.1296 H   0  0  0  0  0  0  0  0  0  0  0  0
   -2.5987    1.0753   15.8770 H   0  0  0  0  0  0  0  0  0  0  0  0
   -3.7657    0.4221   16.8699 H   0  0  0  0  0  0  0  0  0  0  0  0
   -3.6191    6.4005   12.1147 O   0  0  0  0  0  0  0  0  0  0  0  0
   -3.5666    6.2644   10.6939 C   0  0  0  0  0  0  0  0  0  0  0  0
   -4.9029    6.5944   10.1334 C   0  0  0  0  0  0  0  0  0  0  0  0
   -5.3940    7.7856    9.6903 C   0  0  0  0  0  0  0  0  0  0  0  0
   -6.6444    7.5175    9.2618 N   0  0  0  0  0  0  0  0  0  0  0  0
   -6.9324    6.2052    9.4392 N   0  0  0  0  0  0  0  0  0  0  0  0
   -5.8677    5.6486    9.9687 N   0  0  0  0  0  0  0  0  0  0  0  0
   -7.5978    8.3928    8.6626 C   0  0  0  0  0  0  0  0  0  0  0  0
   -8.8221    7.8948    8.2340 C   0  0  0  0  0  0  0  0  0  0  0  0
   -9.7228    8.7406    7.6116 C   0  0  0  0  0  0  0  0  0  0  0  0
   -9.4097   10.0737    7.4147 C   0  0  0  0  0  0  0  0  0  0  0  0
   -8.1922   10.5673    7.8471 C   0  0  0  0  0  0  0  0  0  0  0  0
   -7.2822    9.7327    8.4730 C   0  0  0  0  0  0  0  0  0  0  0  0
 16 15  1  0  0  0
 16 17  1  0  0  0
 15  1  1  0  0  0
  1  2  2  0  0  0
  1  6  1  0  0  0
  2  3  1  0  0  0
  3  4  2  0  0  0
  4  5  1  0  0  0
  4  7  1  0  0  0
  5  6  2  0  0  0
 17 18  2  0  0  0
 17 21  1  0  0  0
 18 19  1  0  0  0
 19 20  1  0  0  0
 19 22  1  0  0  0
 20 21  2  0  0  0
 22 23  2  0  0  0
 22 27  1  0  0  0
 23 24  1  0  0  0
 24 25  2  0  0  0
 25 26  1  0  0  0
 26 27  2  0  0  0
  7  8  1  0  0  0
  7  9  1  0  0  0
  7 10  1  0  0  0
  8 11  1  0  0  0
  9 12  1  0  0  0
 10 13  1  0  0  0
 10 14  1  0  0  0
M  END
> <minimizedAffinity>
-7.65011

$$$$
5LJT_A6N_A_302


 27 29  0  0  0  0  0  0  0  0999 V2000
   -4.8492    2.8155   13.5205 C   0  0  0  0  0  0  0  0  0  0  0  0
   -4.4024    1.5783   13.9559 C   0  0  0  0  0  0  0  0  0  0  0  0
   -4.8461    1.0686   15.1644 C   0  0  0  0  0  0  0  0  0  0  0  0
   -5.7414    1.8032   15.9285 C   0  0  0  0  0  0  0  0  0  0  0  0
   -6.1704    3.0505   15.5065 C   0  0  0  0  0  0  0  0  0  0  0  0
   -5.7151    3.5608   14.3048 C   0  0  0  0  0  0  0  0  0  0  0  0
   -6.4245    1.1015   17.3997 S   0  0  0  0  0  0  0  0  0  0  0  0
   -5.6055   -0.0199   17.7430 O   0  0  0  0  0  0  0  0  0  0  0  0
   -7.8192    0.8806   17.1463 O   0  0  0  0  0  0  0  0  0  0  0  0
   -6.2990    2.1854   18.5694 N   0  0  0  0  0  0  0  0  0  0  0  0
   -5.6671   -0.6910   17.0453 H   0  0  0  0  0  0  0  0  0  0  0  0
   -7.9194    0.2250   16.4385 H   0  0  0  0  0  0  0  0  0  0  0  0
   -5.3136    2.3592   18.7675 H   0  0  0  0  0  0  0  0  0  0  0  0
   -6.7578    1.8336   19.4097 H   0  0  0  0  0  0  0  0  0  0  0  0
   -4.4228    3.2287   12.2844 O   0  0  0  0  0  0  0  0  0  0  0  0
   -3.0224    3.3259   12.0210 C   0  0  0  0  0  0  0  0  0  0  0  0
   -2.5996    4.7389   12.2033 C   0  0  0  0  0  0  0  0  0  0  0  0
   -2.1810    5.3873   13.3262 C   0  0  0  0  0  0  0  0  0  0  0  0
   -1.8957    6.6432   12.9261 N   0  0  0  0  0  0  0  0  0  0  0  0
   -2.1367    6.7819   11.5998 N   0  0  0  0  0  0  0  0  0  0  0  0
   -2.5635    5.6187   11.1654 N   0  0  0  0  0  0  0  0  0  0  0  0
   -1.3795    7.7346   13.6856 C   0  0  0  0  0  0  0  0  0  0  0  0
   -0.3064    8.4711   13.1990 C   0  0  0  0  0  0  0  0  0  0  0  0
    0.2185    9.4984   13.9626 C   0  0  0  0  0  0  0  0  0  0  0  0
   -0.3183    9.7929   15.2033 C   0  0  0  0  0  0  0  0  0  0  0  0
   -1.3897    9.0611   15.6824 C   0  0  0  0  0  0  0  0  0  0  0  0
   -1.9260    8.0315   14.9281 C   0  0  0  0  0  0  0  0  0  0  0  0
 16 15  1  0  0  0
 16 17  1  0  0  0
 15  1  1  0  0  0
  1  2  2  0  0  0
  1  6  1  0  0  0
  2  3  1  0  0  0
  3  4  2  0  0  0
  4  5  1  0  0  0
  4  7  1  0  0  0
  5  6  2  0  0  0
 17 18  2  0  0  0
 17 21  1  0  0  0
 18 19  1  0  0  0
 19 20  1  0  0  0
 19 22  1  0  0  0
 20 21  2  0  0  0
 22 23  2  0  0  0
 22 27  1  0  0  0
 23 24  1  0  0  0
 24 25  2  0  0  0
 25 26  1  0  0  0
 26 27  2  0  0  0
  7  8  1  0  0  0
  7  9  1  0  0  0
  7 10  1  0  0  0
  8 11  1  0  0  0
  9 12  1  0  0  0
 10 13  1  0  0  0
 10 14  1  0  0  0
M  END
> <minimizedAffinity>
-7.54128

$$$$
5LJT_A6N_A_302


 27 29  0  0  0  0  0  0  0  0999 V2000
   -4.5067    4.5165   14.6894 C   0  0  0  0  0  0  0  0  0  0  0  0
   -5.8363    4.6462   15.0570 C   0  0  0  0  0  0  0  0  0  0  0  0
   -6.4384    3.6689   15.8314 C   0  0  0  0  0  0  0  0  0  0  0  0
   -5.6995    2.5668   16.2370 C   0  0  0  0  0  0  0  0  0  0  0  0
   -4.3774    2.4235   15.8504 C   0  0  0  0  0  0  0  0  0  0  0  0
   -3.7839    3.3960   15.0669 C   0  0  0  0  0  0  0  0  0  0  0  0
   -6.4139    1.3876   17.3427 S   0  0  0  0  0  0  0  0  0  0  0  0
   -7.7387    1.1262   16.8705 O   0  0  0  0  0  0  0  0  0  0  0  0
   -6.2485    1.9080   18.6693 O   0  0  0  0  0  0  0  0  0  0  0  0
   -5.5707    0.0326   17.2332 N   0  0  0  0  0  0  0  0  0  0  0  0
   -8.2684    1.9367   16.9283 H   0  0  0  0  0  0  0  0  0  0  0  0
   -6.7526    2.7320   18.7586 H   0  0  0  0  0  0  0  0  0  0  0  0
   -5.6733   -0.3569   16.2961 H   0  0  0  0  0  0  0  0  0  0  0  0
   -5.9150   -0.6385   17.9199 H   0  0  0  0  0  0  0  0  0  0  0  0
   -3.9557    5.5529   13.9803 O   0  0  0  0  0  0  0  0  0  0  0  0
   -2.5347    5.6788   13.9105 C   0  0  0  0  0  0  0  0  0  0  0  0
   -2.1896    7.1174   13.7699 C   0  0  0  0  0  0  0  0  0  0  0  0
   -1.5865    7.9612   14.6536 C   0  0  0  0  0  0  0  0  0  0  0  0
   -1.4900    9.1418   14.0088 N   0  0  0  0  0  0  0  0  0  0  0  0
   -2.0235    9.0457   12.7667 N   0  0  0  0  0  0  0  0  0  0  0  0
   -2.4462    7.8105   12.6270 N   0  0  0  0  0  0  0  0  0  0  0  0
   -0.9043   10.3644   14.4519 C   0  0  0  0  0  0  0  0  0  0  0  0
    0.2272   10.3383   15.2579 C   0  0  0  0  0  0  0  0  0  0  0  0
    0.7621   11.5269   15.7220 C   0  0  0  0  0  0  0  0  0  0  0  0
    0.1764   12.7352   15.3886 C   0  0  0  0  0  0  0  0  0  0  0  0
   -0.9468   12.7577   14.5819 C   0  0  0  0  0  0  0  0  0  0  0  0
   -1.4915   11.5761   14.1090 C   0  0  0  0  0  0  0  0  0  0  0  0
 16 15  1  0  0  0
 16 17  1  0  0  0
 15  1  1  0  0  0
  1  2  2  0  0  0
  1  6  1  0  0  0
  2  3  1  0  0  0
  3  4  2  0  0  0
  4  5  1  0  0  0
  4  7  1  0  0  0
  5  6  2  0  0  0
 17 18  2  0  0  0
 17 21  1  0  0  0
 18 19  1  0  0  0
 19 20  1  0  0  0
 19 22  1  0  0  0
 20 21  2  0  0  0
 22 23  2  0  0  0
 22 27  1  0  0  0
 23 24  1  0  0  0
 24 25  2  0  0  0
 25 26  1  0  0  0
 26 27  2  0  0  0
  7  8  1  0  0  0
  7  9  1  0  0  0
  7 10  1  0  0  0
  8 11  1  0  0  0
  9 12  1  0  0  0
 10 13  1  0  0  0
 10 14  1  0  0  0
M  END
> <minimizedAffinity>
-7.52131

$$$$
5LJT_A6N_A_302


 27 29  0  0  0  0  0  0  0  0999 V2000
   -4.0578    6.2996   11.2473 C   0  0  0  0  0  0  0  0  0  0  0  0
   -3.5639    6.0472    9.9776 C   0  0  0  0  0  0  0  0  0  0  0  0
   -4.3883    6.1887    8.8740 C   0  0  0  0  0  0  0  0  0  0  0  0
   -5.7051    6.5880    9.0514 C   0  0  0  0  0  0  0  0  0  0  0  0
   -6.2072    6.8173   10.3215 C   0  0  0  0  0  0  0  0  0  0  0  0
   -5.3837    6.6630   11.4215 C   0  0  0  0  0  0  0  0  0  0  0  0
   -6.7235    6.9107    7.6435 S   0  0  0  0  0  0  0  0  0  0  0  0
   -6.2110    6.1158    6.5702 O   0  0  0  0  0  0  0  0  0  0  0  0
   -6.7692    8.3353    7.4810 O   0  0  0  0  0  0  0  0  0  0  0  0
   -8.2032    6.4021    7.9761 N   0  0  0  0  0  0  0  0  0  0  0  0
   -5.3122    6.4081    6.3519 H   0  0  0  0  0  0  0  0  0  0  0  0
   -5.8803    8.6663    7.2781 H   0  0  0  0  0  0  0  0  0  0  0  0
   -8.1956    5.3892    8.0962 H   0  0  0  0  0  0  0  0  0  0  0  0
   -8.8281    6.6488    7.2086 H   0  0  0  0  0  0  0  0  0  0  0  0
   -3.1694    6.2060   12.2878 O   0  0  0  0  0  0  0  0  0  0  0  0
   -2.3203    5.0617   12.3853 C   0  0  0  0  0  0  0  0  0  0  0  0
   -3.0371    3.9984   13.1363 C   0  0  0  0  0  0  0  0  0  0  0  0
   -3.7890    4.0851   14.2694 C   0  0  0  0  0  0  0  0  0  0  0  0
   -4.2273    2.8310   14.5021 N   0  0  0  0  0  0  0  0  0  0  0  0
   -3.7584    1.9840   13.5538 N   0  0  0  0  0  0  0  0  0  0  0  0
   -3.0359    2.7011   12.7246 N   0  0  0  0  0  0  0  0  0  0  0  0
   -5.0865    2.3550   15.5363 C   0  0  0  0  0  0  0  0  0  0  0  0
   -4.9142    1.0735   16.0450 C   0  0  0  0  0  0  0  0  0  0  0  0
   -5.7808    0.6022   17.0150 C   0  0  0  0  0  0  0  0  0  0  0  0
   -6.8136    1.3983   17.4772 C   0  0  0  0  0  0  0  0  0  0  0  0
   -6.9791    2.6752   16.9723 C   0  0  0  0  0  0  0  0  0  0  0  0
   -6.1183    3.1604   16.0027 C   0  0  0  0  0  0  0  0  0  0  0  0
 16 15  1  0  0  0
 16 17  1  0  0  0
 15  1  1  0  0  0
  1  2  2  0  0  0
  1  6  1  0  0  0
  2  3  1  0  0  0
  3  4  2  0  0  0
  4  5  1  0  0  0
  4  7  1  0  0  0
  5  6  2  0  0  0
 17 18  2  0  0  0
 17 21  1  0  0  0
 18 19  1  0  0  0
 19 20  1  0  0  0
 19 22  1  0  0  0
 20 21  2  0  0  0
 22 23  2  0  0  0
 22 27  1  0  0  0
 23 24  1  0  0  0
 24 25  2  0  0  0
 25 26  1  0  0  0
 26 27  2  0  0  0
  7  8  1  0  0  0
  7  9  1  0  0  0
  7 10  1  0  0  0
  8 11  1  0  0  0
  9 12  1  0  0  0
 10 13  1  0  0  0
 10 14  1  0  0  0
M  END
> <minimizedAffinity>
-7.49582

$$$$
5LJT_A6N_A_302


 27 29  0  0  0  0  0  0  0  0999 V2000
   -2.2623    7.8199   13.7575 C   0  0  0  0  0  0  0  0  0  0  0  0
   -1.8814    8.7053   12.7622 C   0  0  0  0  0  0  0  0  0  0  0  0
   -1.1730    9.8496   13.0882 C   0  0  0  0  0  0  0  0  0  0  0  0
   -0.8465   10.0967   14.4138 C   0  0  0  0  0  0  0  0  0  0  0  0
   -1.2471    9.2252   15.4128 C   0  0  0  0  0  0  0  0  0  0  0  0
   -1.9648    8.0900   15.0838 C   0  0  0  0  0  0  0  0  0  0  0  0
    0.1791   11.4762   14.8245 S   0  0  0  0  0  0  0  0  0  0  0  0
    0.8951   11.1217   16.0111 O   0  0  0  0  0  0  0  0  0  0  0  0
   -0.6706   12.6316   14.8551 O   0  0  0  0  0  0  0  0  0  0  0  0
    1.2403   11.6726   13.6437 N   0  0  0  0  0  0  0  0  0  0  0  0
    0.2690   10.9975   16.7415 H   0  0  0  0  0  0  0  0  0  0  0  0
   -1.3237   12.5340   15.5657 H   0  0  0  0  0  0  0  0  0  0  0  0
    1.8570   10.8613   13.6024 H   0  0  0  0  0  0  0  0  0  0  0  0
    1.7933   12.5115   13.8196 H   0  0  0  0  0  0  0  0  0  0  0  0
   -2.9012    6.6745   13.3570 O   0  0  0  0  0  0  0  0  0  0  0  0
   -2.1445    5.4782   13.1667 C   0  0  0  0  0  0  0  0  0  0  0  0
   -2.9198    4.3320   13.7087 C   0  0  0  0  0  0  0  0  0  0  0  0
   -3.7295    4.2648   14.8025 C   0  0  0  0  0  0  0  0  0  0  0  0
   -4.2024    3.0019   14.8177 N   0  0  0  0  0  0  0  0  0  0  0  0
   -3.6989    2.2972   13.7754 N   0  0  0  0  0  0  0  0  0  0  0  0
   -2.9201    3.1130   13.1033 N   0  0  0  0  0  0  0  0  0  0  0  0
   -5.1243    2.3966   15.7222 C   0  0  0  0  0  0  0  0  0  0  0  0
   -4.8876    1.1122   16.1964 C   0  0  0  0  0  0  0  0  0  0  0  0
   -5.8099    0.5141   17.0365 C   0  0  0  0  0  0  0  0  0  0  0  0
   -6.9616    1.1871   17.4036 C   0  0  0  0  0  0  0  0  0  0  0  0
   -7.1915    2.4675   16.9339 C   0  0  0  0  0  0  0  0  0  0  0  0
   -6.2764    3.0787   16.0940 C   0  0  0  0  0  0  0  0  0  0  0  0
 16 15  1  0  0  0
 16 17  1  0  0  0
 15  1  1  0  0  0
  1  2  2  0  0  0
  1  6  1  0  0  0
  2  3  1  0  0  0
  3  4  2  0  0  0
  4  5  1  0  0  0
  4  7  1  0  0  0
  5  6  2  0  0  0
 17 18  2  0  0  0
 17 21  1  0  0  0
 18 19  1  0  0  0
 19 20  1  0  0  0
 19 22  1  0  0  0
 20 21  2  0  0  0
 22 23  2  0  0  0
 22 27  1  0  0  0
 23 24  1  0  0  0
 24 25  2  0  0  0
 25 26  1  0  0  0
 26 27  2  0  0  0
  7  8  1  0  0  0
  7  9  1  0  0  0
  7 10  1  0  0  0
  8 11  1  0  0  0
  9 12  1  0  0  0
 10 13  1  0  0  0
 10 14  1  0  0  0
M  END
> <minimizedAffinity>
-7.35260

$$$$
5LJT_A6N_A_302


 27 29  0  0  0  0  0  0  0  0999 V2000
   -4.2777    4.0423   14.5252 C   0  0  0  0  0  0  0  0  0  0  0  0
   -5.6492    4.1693   14.6757 C   0  0  0  0  0  0  0  0  0  0  0  0
   -6.3289    3.3389   15.5509 C   0  0  0  0  0  0  0  0  0  0  0  0
   -5.6258    2.3868   16.2749 C   0  0  0  0  0  0  0  0  0  0  0  0
   -4.2586    2.2423   16.1079 C   0  0  0  0  0  0  0  0  0  0  0  0
   -3.5860    3.0656   15.2237 C   0  0  0  0  0  0  0  0  0  0  0  0
   -6.4583    1.4208   17.4985 S   0  0  0  0  0  0  0  0  0  0  0  0
   -7.7595    1.1286   16.9811 O   0  0  0  0  0  0  0  0  0  0  0  0
   -6.3574    2.1400   18.7357 O   0  0  0  0  0  0  0  0  0  0  0  0
   -5.6668    0.0403   17.6618 N   0  0  0  0  0  0  0  0  0  0  0  0
   -8.2578    1.9539   16.8740 H   0  0  0  0  0  0  0  0  0  0  0  0
   -6.8316    2.9827   18.6594 H   0  0  0  0  0  0  0  0  0  0  0  0
   -5.7247   -0.4897   16.7922 H   0  0  0  0  0  0  0  0  0  0  0  0
   -6.0822   -0.5023   18.4190 H   0  0  0  0  0  0  0  0  0  0  0  0
   -3.6596    4.9408   13.6939 O   0  0  0  0  0  0  0  0  0  0  0  0
   -3.7009    4.7340   12.2813 C   0  0  0  0  0  0  0  0  0  0  0  0
   -4.3490    5.9107   11.6457 C   0  0  0  0  0  0  0  0  0  0  0  0
   -4.0185    7.2310   11.7111 C   0  0  0  0  0  0  0  0  0  0  0  0
   -4.9171    7.8618   10.9279 N   0  0  0  0  0  0  0  0  0  0  0  0
   -5.7884    6.9697   10.3971 N   0  0  0  0  0  0  0  0  0  0  0  0
   -5.4362    5.7837   10.8367 N   0  0  0  0  0  0  0  0  0  0  0  0
   -5.0135    9.2475   10.6042 C   0  0  0  0  0  0  0  0  0  0  0  0
   -6.2458    9.7976   10.2735 C   0  0  0  0  0  0  0  0  0  0  0  0
   -6.3236   11.1317    9.9154 C   0  0  0  0  0  0  0  0  0  0  0  0
   -5.1840   11.9157    9.8849 C   0  0  0  0  0  0  0  0  0  0  0  0
   -3.9598   11.3661   10.2196 C   0  0  0  0  0  0  0  0  0  0  0  0
   -3.8676   10.0331   10.5816 C   0  0  0  0  0  0  0  0  0  0  0  0
 16 15  1  0  0  0
 16 17  1  0  0  0
 15  1  1  0  0  0
  1  2  2  0  0  0
  1  6  1  0  0  0
  2  3  1  0  0  0
  3  4  2  0  0  0
  4  5  1  0  0  0
  4  7  1  0  0  0
  5  6  2  0  0  0
 17 18  2  0  0  0
 17 21  1  0  0  0
 18 19  1  0  0  0
 19 20  1  0  0  0
 19 22  1  0  0  0
 20 21  2  0  0  0
 22 23  2  0  0  0
 22 27  1  0  0  0
 23 24  1  0  0  0
 24 25  2  0  0  0
 25 26  1  0  0  0
 26 27  2  0  0  0
  7  8  1  0  0  0
  7  9  1  0  0  0
  7 10  1  0  0  0
  8 11  1  0  0  0
  9 12  1  0  0  0
 10 13  1  0  0  0
 10 14  1  0  0  0
M  END
> <minimizedAffinity>
-7.25846

$$$$
5LJT_A6N_A_302


 27 29  0  0  0  0  0  0  0  0999 V2000
   -1.6367    5.4468   11.4056 C   0  0  0  0  0  0  0  0  0  0  0  0
   -1.8058    5.2433   10.0455 C   0  0  0  0  0  0  0  0  0  0  0  0
   -0.7135    4.9398    9.2504 C   0  0  0  0  0  0  0  0  0  0  0  0
    0.5442    4.8376    9.8272 C   0  0  0  0  0  0  0  0  0  0  0  0
    0.7189    5.0644   11.1821 C   0  0  0  0  0  0  0  0  0  0  0  0
   -0.3729    5.3792   11.9700 C   0  0  0  0  0  0  0  0  0  0  0  0
    1.9195    4.3104    8.8504 S   0  0  0  0  0  0  0  0  0  0  0  0
    2.6884    3.4196    9.6638 O   0  0  0  0  0  0  0  0  0  0  0  0
    2.5502    5.4960    8.3458 O   0  0  0  0  0  0  0  0  0  0  0  0
    1.3529    3.4820    7.6047 N   0  0  0  0  0  0  0  0  0  0  0  0
    3.0423    3.9027   10.4269 H   0  0  0  0  0  0  0  0  0  0  0  0
    2.9020    6.0150    9.0859 H   0  0  0  0  0  0  0  0  0  0  0  0
    0.8988    2.6323    7.9396 H   0  0  0  0  0  0  0  0  0  0  0  0
    2.1226    3.2337    6.9831 H   0  0  0  0  0  0  0  0  0  0  0  0
   -2.7696    5.6765   12.1434 O   0  0  0  0  0  0  0  0  0  0  0  0
   -2.6493    6.0492   13.5170 C   0  0  0  0  0  0  0  0  0  0  0  0
   -3.0979    4.9112   14.3611 C   0  0  0  0  0  0  0  0  0  0  0  0
   -4.3570    4.5320   14.7181 C   0  0  0  0  0  0  0  0  0  0  0  0
   -4.1952    3.4208   15.4652 N   0  0  0  0  0  0  0  0  0  0  0  0
   -2.8794    3.1185   15.5820 N   0  0  0  0  0  0  0  0  0  0  0  0
   -2.2168    4.0287   14.9063 N   0  0  0  0  0  0  0  0  0  0  0  0
   -5.1851    2.5866   16.0640 C   0  0  0  0  0  0  0  0  0  0  0  0
   -4.8915    1.2590   16.3500 C   0  0  0  0  0  0  0  0  0  0  0  0
   -5.8715    0.4439   16.8877 C   0  0  0  0  0  0  0  0  0  0  0  0
   -7.1368    0.9435   17.1395 C   0  0  0  0  0  0  0  0  0  0  0  0
   -7.4242    2.2668   16.8583 C   0  0  0  0  0  0  0  0  0  0  0  0
   -6.4526    3.0943   16.3218 C   0  0  0  0  0  0  0  0  0  0  0  0
 16 15  1  0  0  0
 16 17  1  0  0  0
 15  1  1  0  0  0
  1  2  2  0  0  0
  1  6  1  0  0  0
  2  3  1  0  0  0
  3  4  2  0  0  0
  4  5  1  0  0  0
  4  7  1  0  0  0
  5  6  2  0  0  0
 17 18  2  0  0  0
 17 21  1  0  0  0
 18 19  1  0  0  0
 19 20  1  0  0  0
 19 22  1  0  0  0
 20 21  2  0  0  0
 22 23  2  0  0  0
 22 27  1  0  0  0
 23 24  1  0  0  0
 24 25  2  0  0  0
 25 26  1  0  0  0
 26 27  2  0  0  0
  7  8  1  0  0  0
  7  9  1  0  0  0
  7 10  1  0  0  0
  8 11  1  0  0  0
  9 12  1  0  0  0
 10 13  1  0  0  0
 10 14  1  0  0  0
M  END
> <minimizedAffinity>
-6.96469

$$$$
5LJT_A6N_A_302


 27 29  0  0  0  0  0  0  0  0999 V2000
   -5.6809    6.6952    9.9555 C   0  0  0  0  0  0  0  0  0  0  0  0
   -6.1026    7.7802   10.7070 C   0  0  0  0  0  0  0  0  0  0  0  0
   -6.6487    8.8866   10.0785 C   0  0  0  0  0  0  0  0  0  0  0  0
   -6.7729    8.8956    8.6967 C   0  0  0  0  0  0  0  0  0  0  0  0
   -6.3299    7.8222    7.9421 C   0  0  0  0  0  0  0  0  0  0  0  0
   -5.7741    6.7246    8.5732 C   0  0  0  0  0  0  0  0  0  0  0  0
   -7.5984   10.2380    7.8966 S   0  0  0  0  0  0  0  0  0  0  0  0
   -8.9994    9.9543    7.9505 O   0  0  0  0  0  0  0  0  0  0  0  0
   -6.9801   10.4004    6.6123 O   0  0  0  0  0  0  0  0  0  0  0  0
   -7.3267   11.5643    8.7487 N   0  0  0  0  0  0  0  0  0  0  0  0
   -9.1867    9.1517    7.4390 H   0  0  0  0  0  0  0  0  0  0  0  0
   -7.1325    9.6058    6.0773 H   0  0  0  0  0  0  0  0  0  0  0  0
   -7.7580   11.4719    9.6684 H   0  0  0  0  0  0  0  0  0  0  0  0
   -7.7273   12.3676    8.2644 H   0  0  0  0  0  0  0  0  0  0  0  0
   -5.2131    5.6069   10.6465 O   0  0  0  0  0  0  0  0  0  0  0  0
   -4.4406    5.8063   11.8312 C   0  0  0  0  0  0  0  0  0  0  0  0
   -5.0947    5.0854   12.9541 C   0  0  0  0  0  0  0  0  0  0  0  0
   -4.7422    3.9210   13.5676 C   0  0  0  0  0  0  0  0  0  0  0  0
   -5.6605    3.7383   14.5383 N   0  0  0  0  0  0  0  0  0  0  0  0
   -6.5646    4.7477   14.5282 N   0  0  0  0  0  0  0  0  0  0  0  0
   -6.2137    5.5652   13.5625 N   0  0  0  0  0  0  0  0  0  0  0  0
   -5.7483    2.6981   15.5103 C   0  0  0  0  0  0  0  0  0  0  0  0
   -4.9491    1.5679   15.3897 C   0  0  0  0  0  0  0  0  0  0  0  0
   -5.0734    0.5428   16.3103 C   0  0  0  0  0  0  0  0  0  0  0  0
   -5.9868    0.6384   17.3450 C   0  0  0  0  0  0  0  0  0  0  0  0
   -6.7772    1.7670   17.4650 C   0  0  0  0  0  0  0  0  0  0  0  0
   -6.6620    2.8012   16.5520 C   0  0  0  0  0  0  0  0  0  0  0  0
 16 15  1  0  0  0
 16 17  1  0  0  0
 15  1  1  0  0  0
  1  2  2  0  0  0
  1  6  1  0  0  0
  2  3  1  0  0  0
  3  4  2  0  0  0
  4  5  1  0  0  0
  4  7  1  0  0  0
  5  6  2  0  0  0
 17 18  2  0  0  0
 17 21  1  0  0  0
 18 19  1  0  0  0
 19 20  1  0  0  0
 19 22  1  0  0  0
 20 21  2  0  0  0
 22 23  2  0  0  0
 22 27  1  0  0  0
 23 24  1  0  0  0
 24 25  2  0  0  0
 25 26  1  0  0  0
 26 27  2  0  0  0
  7  8  1  0  0  0
  7  9  1  0  0  0
  7 10  1  0  0  0
  8 11  1  0  0  0
  9 12  1  0  0  0
 10 13  1  0  0  0
 10 14  1  0  0  0
M  END
> <minimizedAffinity>
-6.70693

$$$$
