3HKN_MFS_A_300
  RCSB PDB12061708543D
Coordinates from PDB:3HKN:A:300 Model:1 without hydrogens
 47 48  0  0  0  0            999 V2000
   16.1140    4.1460   13.8670   C 0  0  0  0  0  0  0  0  0  0  0  0
   16.7560    5.2000   12.9790   C 0  0  0  0  0  0  0  0  0  0  0  0
   16.8800    7.6600   12.8930   O 0  0  0  0  0  0  0  0  0  0  0  0
   18.2170    8.1770   12.9870   C 0  0  0  0  0  0  0  0  0  0  0  0
   18.5910    8.8240   11.6630   C 0  0  0  0  0  0  0  0  0  0  0  0
   20.0350    9.2900   11.7170   C 0  0  0  0  0  0  0  0  0  0  0  0
   20.1830   10.2950   12.8430   C 0  0  0  0  0  0  0  0  0  0  0  0
   19.6660    9.6260   14.1030   C 0  0  0  0  0  0  0  0  0  0  0  0
   19.8580   10.5680   15.2820   C 0  0  0  0  0  0  0  0  0  0  0  0
   18.4550    2.7420   13.1300   C 0  0  0  0  0  0  0  0  0  0  0  0
   17.0580    2.1950   12.8370   C 0  0  0  0  0  0  0  0  0  0  0  0
   16.9900    4.9010   10.7230   C 0  0  0  0  0  0  0  0  0  0  0  0
   17.3260    6.3910   15.0350   C 0  0  0  0  0  0  0  0  0  0  0  0
   17.1910    7.6790   15.8260   C 0  0  0  0  0  0  0  0  0  0  0  0
   20.1780    6.5920   11.9110   C 0  0  0  0  0  0  0  0  0  0  0  0
   19.3000    6.8340   10.6800   C 0  0  0  0  0  0  0  0  0  0  0  0
   19.3660    6.0600    9.7260   O 0  0  0  0  0  0  0  0  0  0  0  0
   18.4810    7.9120   10.5640   O 0  0  0  0  0  0  0  0  0  0  0  0
   20.4680    9.8620   10.4740   O 0  0  0  0  0  0  0  0  0  0  0  0
   21.8170    9.7510   10.3300   C 0  0  0  0  0  0  0  0  0  0  0  0
   22.6600    9.0310   11.3850   C 0  0  0  0  0  0  0  0  0  0  0  0
   22.3660   10.2140    9.3310   O 0  0  0  0  0  0  0  0  0  0  0  0
   19.4250   11.4810   12.5680   O 0  0  0  0  0  0  0  0  0  0  0  0
   20.2800   12.5030   12.0340   C 0  0  0  0  0  0  0  0  0  0  0  0
   20.4480   13.8280   12.7820   C 0  0  0  0  0  0  0  0  0  0  0  0
   20.9790   12.2980   10.8040   O 0  0  0  0  0  0  0  0  0  0  0  0
   20.4520   11.8090   14.8700   O 0  0  0  0  0  0  0  0  0  0  0  0
   21.7840   11.8660   15.1530   C 0  0  0  0  0  0  0  0  0  0  0  0
   22.4490   10.7100   15.8870   C 0  0  0  0  0  0  0  0  0  0  0  0
   22.4480   12.8540   14.8390   O 0  0  0  0  0  0  0  0  0  0  0  0
   18.2890    9.2550   13.9330   O 0  0  0  0  0  0  0  0  0  0  0  0
   16.5870    6.5170   13.7150   C 0  0  0  0  0  0  0  0  0  0  0  0
   16.1230    5.2930   11.6960   O 0  0  0  0  0  0  0  0  0  0  0  0
   18.3310    4.2610   11.0840   C 0  0  0  0  0  0  0  0  0  0  0  0
   16.6690    5.0160    9.5420   O 0  0  0  0  0  0  0  0  0  0  0  0
   15.9400    2.8770   13.2130   O 0  0  0  0  0  0  0  0  0  0  0  0
   16.9380    1.1150   12.2610   O 0  0  0  0  0  0  0  0  0  0  0  0
   16.7910    4.0310   15.2240   C 0  0  0  0  0  0  0  0  0  0  0  0
   15.8970    2.8870   16.3430   S 0  0  0  0  0  0  0  0  0  0  0  0
   16.3410    3.1340   17.7550   O 0  0  0  0  0  0  0  0  0  0  0  0
   14.4190    3.1270   16.2540   O 0  0  0  0  0  0  0  0  0  0  0  0
   16.2250    1.3400   15.9480   N 0  0  0  0  0  0  0  0  0  0  0  0
   16.7730    5.3320   15.8320   O 0  0  0  0  0  0  0  0  0  0  0  0
   16.0530    8.3940   15.3250   O 0  0  0  0  0  0  0  0  0  0  0  0
   14.8540    7.9220   15.7630   C 0  0  0  0  0  0  0  0  0  0  0  0
   14.7630    6.7640   16.7600   C 0  0  0  0  0  0  0  0  0  0  0  0
   13.8310    8.4670   15.3540   O 0  0  0  0  0  0  0  0  0  0  0  0
  2  1  1  0  0  0  0
 36  1  1  0  0  0  0
  1 38  1  0  0  0  0
 33  2  1  0  0  0  0
  2 32  1  0  0  0  0
  3  4  1  0  0  0  0
  3 32  1  0  0  0  0
  5  4  1  0  0  0  0
  4 31  1  0  0  0  0
 18  5  1  0  0  0  0
  5  6  1  0  0  0  0
 19  6  1  0  0  0  0
  6  7  1  0  0  0  0
 23  7  1  0  0  0  0
  7  8  1  0  0  0  0
 31  8  1  0  0  0  0
  8  9  1  0  0  0  0
 27  9  1  0  0  0  0
 11 10  1  0  0  0  0
 37 11  2  0  0  0  0
 11 36  1  0  0  0  0
 35 12  2  0  0  0  0
 12 34  1  0  0  0  0
 12 33  1  0  0  0  0
 32 13  1  0  0  0  0
 13 14  1  0  0  0  0
 13 43  1  0  0  0  0
 44 14  1  0  0  0  0
 16 15  1  0  0  0  0
 17 16  2  0  0  0  0
 18 16  1  0  0  0  0
 20 19  1  0  0  0  0
 22 20  2  0  0  0  0
 20 21  1  0  0  0  0
 24 23  1  0  0  0  0
 26 24  2  0  0  0  0
 24 25  1  0  0  0  0
 27 28  1  0  0  0  0
 30 28  2  0  0  0  0
 28 29  1  0  0  0  0
 38 43  1  0  0  0  0
 38 39  1  0  0  0  0
 42 39  1  0  0  0  0
 41 39  2  0  0  0  0
 39 40  2  0  0  0  0
 44 45  1  0  0  0  0
 47 45  2  0  0  0  0
 45 46  1  0  0  0  0
A    1
C2
A    2
C3
A    3
O4
A    4
C7
A    5
C8
A    6
C9
A    7
C10
A    8
C11
A    9
C12
A   10
C13
A   11
C14
A   12
C16
A   13
C5
A   14
C6
A   15
C22
A   16
C23
A   17
O24
A   18
O8
A   19
O9
A   20
C25
A   21
C26
A   22
O27
A   23
O10
A   24
C29
A   25
C28
A   26
O30
A   27
O12
A   28
C31
A   29
C32
A   30
O33
A   31
O11
A   32
C4
A   33
O3
A   34
C17
A   35
O18
A   36
O2
A   37
O15
A   38
C1
A   39
SAI
A   40
OAM
A   41
OAE
A   42
NAJ
A   43
O5
A   44
O6
A   45
C19
A   46
C20
A   47
O21
M  END
>  <InstanceId>
3HKN_MFS_A_300

>  <ChemCompId>
MFS

>  <PdbId>
3HKN

>  <ChainId>
A

>  <ResidueNumber>
300

>  <InsertionCode>


>  <Model>
1

>  <AltIds>


>  <MissingHeavyAtoms>
0

>  <ObservedFormula>
C26 N O19 S

>  <Name>
(1S)-2,3,6-tri-O-acetyl-1,5-anhydro-1-sulfamoyl-4-O-(2,3,4,6-tetra-O-acetyl-beta-D-galactopyranosyl)-D-glucitol

>  <SystematicName>
[(2S,3R,4S,5R,6R)-4-acetyloxy-6-(acetyloxymethyl)-2-sulfamoyl-5-[(2S,3R,4S,5S,6R)-3,4,5-triacetyloxy-6-(acetyloxymethyl)oxan-2-yl]oxy-oxan-3-yl] ethanoate

>  <Synonyms>
(2,3,4,6-Tetra-O-acetyl-D-galactopyranosyl)-(1->4)-1,2,3,6-tetra-O-acetyl-1-thio-D- glucopyranosylsulfonamide

>  <Type>
NON-POLYMER

>  <Formula>
C26 H37 N O19 S

>  <MolecularWeight>
699.632

>  <ModifiedDate>
2011-06-04

>  <Parent>


>  <OneLetterCode>


>  <SubcomponentList>


>  <AmbiguousFlag>
N

>  <InChI>
InChI=1S/C26H37NO19S/c1-10(28)37-8-17-19(39-12(3)30)21(40-13(4)31)23(42-15(6)33)25(44-17)46-20-18(9-38-11(2)29)45-26(47(27,35)36)24(43-16(7)34)22(20)41-14(5)32/h17-26H,8-9H2,1-7H3,(H2,27,35,36)/t17-,18-,19+,20-,21+,22+,23-,24-,25+,26+/m1/s1

>  <InChIKey>
PRBMNHXZLHBQIF-NDMRNNIMSA-N

>  <SMILES>
CC(=O)OC[C@@H]1[C@@H]([C@@H]([C@H]([C@@H](O1)O[C@@H]2[C@H](O[C@H]([C@@H]([C@H]2OC(=O)C)OC(=O)C)S(=O)(=O)N)COC(=O)C)OC(=O)C)OC(=O)C)OC(=O)C

$$$$
