3HKN_MFS_A_300


 49 50  0  0  0  0  0  0  0  0999 V2000
   17.4184    5.1785   14.4796 C   0  0  0  0  0  0  0  0  0  0  0  0
   17.6595    6.0432   13.2525 C   0  0  0  0  0  0  0  0  0  0  0  0
   18.2013    3.9755   12.0685 C   0  0  0  0  0  0  0  0  0  0  0  0
   18.7447    5.3382   12.4587 C   0  0  0  0  0  0  0  0  0  0  0  0
   16.9286    3.7827   14.1264 C   0  0  0  0  0  0  0  0  0  0  0  0
   17.8889    3.1964   13.2338 O   0  0  0  0  0  0  0  0  0  0  0  0
   16.8147    2.7008   15.6017 S   0  0  0  0  0  0  0  0  0  0  0  0
   16.9392    1.2686   15.1715 O   0  0  0  0  0  0  0  0  0  0  0  0
   17.9258    3.0143   16.5594 O   0  0  0  0  0  0  0  0  0  0  0  0
   15.3781    2.9076   16.3436 N   0  0  0  0  0  0  0  0  0  0  0  0
   15.2851    3.8793   16.6396 H   0  0  0  0  0  0  0  0  0  0  0  0
   15.3256    2.2972   17.1591 H   0  0  0  0  0  0  0  0  0  0  0  0
   19.2449    3.2132   11.2731 C   0  0  0  0  0  0  0  0  0  0  0  0
   18.6329    2.7501   10.0614 O   0  0  0  0  0  0  0  0  0  0  0  0
   17.7306    1.7460   10.2344 C   0  0  0  0  0  0  0  0  0  0  0  0
   18.0770    0.4835   11.0277 C   0  0  0  0  0  0  0  0  0  0  0  0
   16.6080    1.8850    9.7535 O   0  0  0  0  0  0  0  0  0  0  0  0
   18.1066    7.3623   13.5926 O   0  0  0  0  0  0  0  0  0  0  0  0
   17.4289    8.2845   12.8562 C   0  0  0  0  0  0  0  0  0  0  0  0
   16.1410    7.9055   12.1241 C   0  0  0  0  0  0  0  0  0  0  0  0
   17.8291    9.4463   12.8216 O   0  0  0  0  0  0  0  0  0  0  0  0
   16.6143    5.8225   15.4831 O   0  0  0  0  0  0  0  0  0  0  0  0
   14.8160    7.5841   15.5985 C   0  0  0  0  0  0  0  0  0  0  0  0
   15.3652    6.2367   15.1299 C   0  0  0  0  0  0  0  0  0  0  0  0
   14.6734    5.5161   14.4124 O   0  0  0  0  0  0  0  0  0  0  0  0
   19.2991    6.1587   11.4159 O   0  0  0  0  0  0  0  0  0  0  0  0
   20.6547    6.5927   11.6099 C   0  0  0  0  0  0  0  0  0  0  0  0
   21.3658    6.6083   10.2661 C   0  0  0  0  0  0  0  0  0  0  0  0
   22.8254    6.9735   10.4697 C   0  0  0  0  0  0  0  0  0  0  0  0
   22.9016    8.3459   11.1103 C   0  0  0  0  0  0  0  0  0  0  0  0
   22.0608    8.2917   12.3722 C   0  0  0  0  0  0  0  0  0  0  0  0
   20.7023    7.9608   12.0439 O   0  0  0  0  0  0  0  0  0  0  0  0
   21.3349    5.3294    9.6219 O   0  0  0  0  0  0  0  0  0  0  0  0
   21.5213    5.3996    7.0926 C   0  0  0  0  0  0  0  0  0  0  0  0
   20.7323    5.3587    8.4044 C   0  0  0  0  0  0  0  0  0  0  0  0
   19.5034    5.4075    8.3750 O   0  0  0  0  0  0  0  0  0  0  0  0
   23.5672    6.9514    9.2413 O   0  0  0  0  0  0  0  0  0  0  0  0
   24.7302    6.2591    9.3865 C   0  0  0  0  0  0  0  0  0  0  0  0
   25.9789    6.9374    9.9546 C   0  0  0  0  0  0  0  0  0  0  0  0
   24.7762    5.0686    9.0796 O   0  0  0  0  0  0  0  0  0  0  0  0
   22.3929    9.3501   10.2217 O   0  0  0  0  0  0  0  0  0  0  0  0
   23.4336   10.2744    9.8705 C   0  0  0  0  0  0  0  0  0  0  0  0
   23.1609   11.3816    8.8491 C   0  0  0  0  0  0  0  0  0  0  0  0
   24.7295   10.1717   10.4650 O   0  0  0  0  0  0  0  0  0  0  0  0
   22.1603    9.6266   13.0951 C   0  0  0  0  0  0  0  0  0  0  0  0
   20.8657   10.1060   13.4910 O   0  0  0  0  0  0  0  0  0  0  0  0
   20.8853   10.7012   14.7169 C   0  0  0  0  0  0  0  0  0  0  0  0
   19.7225   10.4900   15.6763 C   0  0  0  0  0  0  0  0  0  0  0  0
   21.8254   11.4252   15.0453 O   0  0  0  0  0  0  0  0  0  0  0  0
  2  1  1  0  0  0
 22  1  1  0  0  0
  1  5  1  0  0  0
 18  2  1  0  0  0
  2  4  1  0  0  0
 26 27  1  0  0  0
 26  4  1  0  0  0
 28 27  1  0  0  0
 27 32  1  0  0  0
 33 28  1  0  0  0
 28 29  1  0  0  0
 37 29  1  0  0  0
 29 30  1  0  0  0
 41 30  1  0  0  0
 30 31  1  0  0  0
 32 31  1  0  0  0
 31 45  1  0  0  0
 46 45  1  0  0  0
 24 23  1  0  0  0
 25 24  2  0  0  0
 24 22  1  0  0  0
 21 19  2  0  0  0
 19 20  1  0  0  0
 19 18  1  0  0  0
  4  3  1  0  0  0
  3 13  1  0  0  0
  3  6  1  0  0  0
 14 13  1  0  0  0
 35 34  1  0  0  0
 36 35  2  0  0  0
 33 35  1  0  0  0
 38 37  1  0  0  0
 40 38  2  0  0  0
 38 39  1  0  0  0
 42 41  1  0  0  0
 44 42  2  0  0  0
 42 43  1  0  0  0
 46 47  1  0  0  0
 49 47  2  0  0  0
 47 48  1  0  0  0
  5  6  1  0  0  0
  5  7  1  0  0  0
 10  7  1  0  0  0
  9  7  2  0  0  0
  7  8  2  0  0  0
 14 15  1  0  0  0
 17 15  2  0  0  0
 15 16  1  0  0  0
 10 11  1  0  0  0
 10 12  1  0  0  0
M  END
> <minimizedAffinity>
-7.57443

$$$$
3HKN_MFS_A_300


 49 50  0  0  0  0  0  0  0  0999 V2000
   17.0069    4.9262   14.3350 C   0  0  0  0  0  0  0  0  0  0  0  0
   16.7722    5.7288   13.0653 C   0  0  0  0  0  0  0  0  0  0  0  0
   16.3831    3.5914   11.9471 C   0  0  0  0  0  0  0  0  0  0  0  0
   17.2419    4.8429   11.9254 C   0  0  0  0  0  0  0  0  0  0  0  0
   16.2072    3.6330   14.3676 C   0  0  0  0  0  0  0  0  0  0  0  0
   16.5395    2.8849   13.1876 O   0  0  0  0  0  0  0  0  0  0  0  0
   16.6364    2.5961   15.8170 S   0  0  0  0  0  0  0  0  0  0  0  0
   16.9556    1.2064   15.3495 O   0  0  0  0  0  0  0  0  0  0  0  0
   17.8391    3.1574   16.5158 O   0  0  0  0  0  0  0  0  0  0  0  0
   15.3815    2.5301   16.8551 N   0  0  0  0  0  0  0  0  0  0  0  0
   15.1576    3.4714   17.1781 H   0  0  0  0  0  0  0  0  0  0  0  0
   15.6313    1.9470   17.6539 H   0  0  0  0  0  0  0  0  0  0  0  0
   16.8072    2.6561   10.8298 C   0  0  0  0  0  0  0  0  0  0  0  0
   17.0517    1.3623   11.3985 O   0  0  0  0  0  0  0  0  0  0  0  0
   18.3470    0.9509   11.3259 C   0  0  0  0  0  0  0  0  0  0  0  0
   19.5010    1.9498   11.2089 C   0  0  0  0  0  0  0  0  0  0  0  0
   18.5770   -0.2553   11.3802 O   0  0  0  0  0  0  0  0  0  0  0  0
   17.5171    6.9537   13.0474 O   0  0  0  0  0  0  0  0  0  0  0  0
   16.7675    7.9428   12.4891 C   0  0  0  0  0  0  0  0  0  0  0  0
   17.4303    9.1976   11.9196 C   0  0  0  0  0  0  0  0  0  0  0  0
   15.5499    7.8022   12.3960 O   0  0  0  0  0  0  0  0  0  0  0  0
   16.8710    5.7050   15.5364 O   0  0  0  0  0  0  0  0  0  0  0  0
   15.3081    7.6677   15.7719 C   0  0  0  0  0  0  0  0  0  0  0  0
   15.6327    6.1762   15.8540 C   0  0  0  0  0  0  0  0  0  0  0  0
   14.7591    5.3837   16.2026 O   0  0  0  0  0  0  0  0  0  0  0  0
   17.3598    5.5495   10.6784 O   0  0  0  0  0  0  0  0  0  0  0  0
   18.6673    5.5628   10.0835 C   0  0  0  0  0  0  0  0  0  0  0  0
   18.6884    6.5860    8.9592 C   0  0  0  0  0  0  0  0  0  0  0  0
   20.0354    6.5425    8.2600 C   0  0  0  0  0  0  0  0  0  0  0  0
   21.1211    6.8619    9.2694 C   0  0  0  0  0  0  0  0  0  0  0  0
   20.9528    5.8892   10.4218 C   0  0  0  0  0  0  0  0  0  0  0  0
   19.6522    6.0451   11.0106 O   0  0  0  0  0  0  0  0  0  0  0  0
   17.6881    6.3230    7.9683 O   0  0  0  0  0  0  0  0  0  0  0  0
   16.5755    7.8955    6.3172 C   0  0  0  0  0  0  0  0  0  0  0  0
   16.8790    7.3883    7.7298 C   0  0  0  0  0  0  0  0  0  0  0  0
   16.4233    7.9899    8.7014 O   0  0  0  0  0  0  0  0  0  0  0  0
   20.1005    7.4494    7.1496 O   0  0  0  0  0  0  0  0  0  0  0  0
   21.0070    7.0258    6.2267 C   0  0  0  0  0  0  0  0  0  0  0  0
   21.7993    8.0320    5.3889 C   0  0  0  0  0  0  0  0  0  0  0  0
   21.2109    5.8218    6.0769 O   0  0  0  0  0  0  0  0  0  0  0  0
   20.9958    8.2107    9.7404 O   0  0  0  0  0  0  0  0  0  0  0  0
   22.1120    8.9965    9.2963 C   0  0  0  0  0  0  0  0  0  0  0  0
   22.1371   10.5050    9.5553 C   0  0  0  0  0  0  0  0  0  0  0  0
   23.2059    8.3842    8.6093 O   0  0  0  0  0  0  0  0  0  0  0  0
   22.0647    6.1190   11.4343 C   0  0  0  0  0  0  0  0  0  0  0  0
   23.3580    5.8891   10.8536 O   0  0  0  0  0  0  0  0  0  0  0  0
   24.3157    6.7032   11.3807 C   0  0  0  0  0  0  0  0  0  0  0  0
   23.9123    7.8347   12.3156 C   0  0  0  0  0  0  0  0  0  0  0  0
   25.5012    6.5437   11.0892 O   0  0  0  0  0  0  0  0  0  0  0  0
  2  1  1  0  0  0
 22  1  1  0  0  0
  1  5  1  0  0  0
 18  2  1  0  0  0
  2  4  1  0  0  0
 26 27  1  0  0  0
 26  4  1  0  0  0
 28 27  1  0  0  0
 27 32  1  0  0  0
 33 28  1  0  0  0
 28 29  1  0  0  0
 37 29  1  0  0  0
 29 30  1  0  0  0
 41 30  1  0  0  0
 30 31  1  0  0  0
 32 31  1  0  0  0
 31 45  1  0  0  0
 46 45  1  0  0  0
 24 23  1  0  0  0
 25 24  2  0  0  0
 24 22  1  0  0  0
 21 19  2  0  0  0
 19 20  1  0  0  0
 19 18  1  0  0  0
  4  3  1  0  0  0
  3 13  1  0  0  0
  3  6  1  0  0  0
 14 13  1  0  0  0
 35 34  1  0  0  0
 36 35  2  0  0  0
 33 35  1  0  0  0
 38 37  1  0  0  0
 40 38  2  0  0  0
 38 39  1  0  0  0
 42 41  1  0  0  0
 44 42  2  0  0  0
 42 43  1  0  0  0
 46 47  1  0  0  0
 49 47  2  0  0  0
 47 48  1  0  0  0
  5  6  1  0  0  0
  5  7  1  0  0  0
 10  7  1  0  0  0
  9  7  2  0  0  0
  7  8  2  0  0  0
 14 15  1  0  0  0
 17 15  2  0  0  0
 15 16  1  0  0  0
 10 11  1  0  0  0
 10 12  1  0  0  0
M  END
> <minimizedAffinity>
-7.35695

$$$$
3HKN_MFS_A_300


 49 50  0  0  0  0  0  0  0  0999 V2000
   17.4920    5.1066   13.4986 C   0  0  0  0  0  0  0  0  0  0  0  0
   18.8176    5.6133   12.9530 C   0  0  0  0  0  0  0  0  0  0  0  0
   18.5562    7.5178   14.4613 C   0  0  0  0  0  0  0  0  0  0  0  0
   18.7322    7.1282   13.0047 C   0  0  0  0  0  0  0  0  0  0  0  0
   17.2518    5.5276   14.9401 C   0  0  0  0  0  0  0  0  0  0  0  0
   17.3467    6.9595   14.9978 O   0  0  0  0  0  0  0  0  0  0  0  0
   15.5769    5.0621   15.5217 S   0  0  0  0  0  0  0  0  0  0  0  0
   15.5949    3.6325   15.9774 O   0  0  0  0  0  0  0  0  0  0  0  0
   15.1708    5.9302   16.6756 O   0  0  0  0  0  0  0  0  0  0  0  0
   14.4957    5.2185   14.3120 N   0  0  0  0  0  0  0  0  0  0  0  0
   14.4770    6.1881   13.9960 H   0  0  0  0  0  0  0  0  0  0  0  0
   13.5698    4.9521   14.6470 H   0  0  0  0  0  0  0  0  0  0  0  0
   18.4579    9.0273   14.5825 C   0  0  0  0  0  0  0  0  0  0  0  0
   19.6622    9.5056   15.1975 O   0  0  0  0  0  0  0  0  0  0  0  0
   20.1691   10.6377   14.6375 C   0  0  0  0  0  0  0  0  0  0  0  0
   21.4193   10.6062   13.7547 C   0  0  0  0  0  0  0  0  0  0  0  0
   19.5813   11.6984   14.8386 O   0  0  0  0  0  0  0  0  0  0  0  0
   19.0450    5.2005   11.5990 O   0  0  0  0  0  0  0  0  0  0  0  0
   19.9955    4.2271   11.5657 C   0  0  0  0  0  0  0  0  0  0  0  0
   19.9562    3.1340   10.4971 C   0  0  0  0  0  0  0  0  0  0  0  0
   20.9232    4.2571   12.3715 O   0  0  0  0  0  0  0  0  0  0  0  0
   17.2836    3.7008   13.2783 O   0  0  0  0  0  0  0  0  0  0  0  0
   16.7238    1.9513   11.5531 C   0  0  0  0  0  0  0  0  0  0  0  0
   16.5473    3.3277   12.1943 C   0  0  0  0  0  0  0  0  0  0  0  0
   15.7189    4.1104   11.7320 O   0  0  0  0  0  0  0  0  0  0  0  0
   19.7815    7.7744   12.2635 O   0  0  0  0  0  0  0  0  0  0  0  0
   19.3668    8.5323   11.1158 C   0  0  0  0  0  0  0  0  0  0  0  0
   20.1101    8.0219    9.8916 C   0  0  0  0  0  0  0  0  0  0  0  0
   19.7523    8.8768    8.6889 C   0  0  0  0  0  0  0  0  0  0  0  0
   18.2560    8.7930    8.4568 C   0  0  0  0  0  0  0  0  0  0  0  0
   17.5843    9.1860    9.7594 C   0  0  0  0  0  0  0  0  0  0  0  0
   17.9849    8.2910   10.8087 O   0  0  0  0  0  0  0  0  0  0  0  0
   21.5317    8.0913   10.0528 O   0  0  0  0  0  0  0  0  0  0  0  0
   21.9957    5.8529    8.9523 C   0  0  0  0  0  0  0  0  0  0  0  0
   22.1256    6.8697   10.0899 C   0  0  0  0  0  0  0  0  0  0  0  0
   22.7444    6.5648   11.1085 O   0  0  0  0  0  0  0  0  0  0  0  0
   20.4660    8.4799    7.5088 O   0  0  0  0  0  0  0  0  0  0  0  0
   21.1689    9.5237    6.9899 C   0  0  0  0  0  0  0  0  0  0  0  0
   20.4797   10.5739    6.1158 C   0  0  0  0  0  0  0  0  0  0  0  0
   22.3675    9.6401    7.2423 O   0  0  0  0  0  0  0  0  0  0  0  0
   17.8733    7.4613    8.0870 O   0  0  0  0  0  0  0  0  0  0  0  0
   17.2235    7.4697    6.8070 C   0  0  0  0  0  0  0  0  0  0  0  0
   17.2071    8.7485    5.9656 C   0  0  0  0  0  0  0  0  0  0  0  0
   16.5861    6.2922    6.3064 O   0  0  0  0  0  0  0  0  0  0  0  0
   16.0759    9.1883    9.5613 C   0  0  0  0  0  0  0  0  0  0  0  0
   15.4400    8.1833   10.3664 O   0  0  0  0  0  0  0  0  0  0  0  0
   14.9654    8.6837   11.5419 C   0  0  0  0  0  0  0  0  0  0  0  0
   14.2416   10.0228   11.5539 C   0  0  0  0  0  0  0  0  0  0  0  0
   15.1367    8.0716   12.5963 O   0  0  0  0  0  0  0  0  0  0  0  0
  2  1  1  0  0  0
 22  1  1  0  0  0
  1  5  1  0  0  0
 18  2  1  0  0  0
  2  4  1  0  0  0
 26 27  1  0  0  0
 26  4  1  0  0  0
 28 27  1  0  0  0
 27 32  1  0  0  0
 33 28  1  0  0  0
 28 29  1  0  0  0
 37 29  1  0  0  0
 29 30  1  0  0  0
 41 30  1  0  0  0
 30 31  1  0  0  0
 32 31  1  0  0  0
 31 45  1  0  0  0
 46 45  1  0  0  0
 24 23  1  0  0  0
 25 24  2  0  0  0
 24 22  1  0  0  0
 21 19  2  0  0  0
 19 20  1  0  0  0
 19 18  1  0  0  0
  4  3  1  0  0  0
  3 13  1  0  0  0
  3  6  1  0  0  0
 14 13  1  0  0  0
 35 34  1  0  0  0
 36 35  2  0  0  0
 33 35  1  0  0  0
 38 37  1  0  0  0
 40 38  2  0  0  0
 38 39  1  0  0  0
 42 41  1  0  0  0
 44 42  2  0  0  0
 42 43  1  0  0  0
 46 47  1  0  0  0
 49 47  2  0  0  0
 47 48  1  0  0  0
  5  6  1  0  0  0
  5  7  1  0  0  0
 10  7  1  0  0  0
  9  7  2  0  0  0
  7  8  2  0  0  0
 14 15  1  0  0  0
 17 15  2  0  0  0
 15 16  1  0  0  0
 10 11  1  0  0  0
 10 12  1  0  0  0
M  END
> <minimizedAffinity>
-6.82055

$$$$
3HKN_MFS_A_300


 49 50  0  0  0  0  0  0  0  0999 V2000
   17.5661    9.5908    8.8857 C   0  0  0  0  0  0  0  0  0  0  0  0
   16.8429    9.2182   10.1701 C   0  0  0  0  0  0  0  0  0  0  0  0
   18.8483    9.9573   11.3546 C   0  0  0  0  0  0  0  0  0  0  0  0
   17.9247    8.7722   11.1374 C   0  0  0  0  0  0  0  0  0  0  0  0
   18.5462   10.7381    9.0763 C   0  0  0  0  0  0  0  0  0  0  0  0
   19.4590   10.3632   10.1197 O   0  0  0  0  0  0  0  0  0  0  0  0
   19.5353   11.0546    7.5658 S   0  0  0  0  0  0  0  0  0  0  0  0
   20.5935   12.0724    7.8759 O   0  0  0  0  0  0  0  0  0  0  0  0
   20.2019    9.7904    7.1103 O   0  0  0  0  0  0  0  0  0  0  0  0
   18.5807   11.6292    6.3761 N   0  0  0  0  0  0  0  0  0  0  0  0
   17.8580   10.9431    6.1588 H   0  0  0  0  0  0  0  0  0  0  0  0
   19.1434   11.8055    5.5439 H   0  0  0  0  0  0  0  0  0  0  0  0
   19.9610    9.5744   12.3127 C   0  0  0  0  0  0  0  0  0  0  0  0
   19.9953   10.5446   13.3685 O   0  0  0  0  0  0  0  0  0  0  0  0
   19.8308   10.0254   14.6158 C   0  0  0  0  0  0  0  0  0  0  0  0
   19.7968   10.9182   15.8588 C   0  0  0  0  0  0  0  0  0  0  0  0
   19.6848    8.8098   14.7240 O   0  0  0  0  0  0  0  0  0  0  0  0
   15.9097    8.1464    9.9807 O   0  0  0  0  0  0  0  0  0  0  0  0
   14.6400    8.6360    9.9651 C   0  0  0  0  0  0  0  0  0  0  0  0
   14.2422    9.8028   10.8698 C   0  0  0  0  0  0  0  0  0  0  0  0
   13.8191    8.1686    9.1786 O   0  0  0  0  0  0  0  0  0  0  0  0
   16.6823    9.7825    7.7675 O   0  0  0  0  0  0  0  0  0  0  0  0
   17.5521    7.6251    6.7983 C   0  0  0  0  0  0  0  0  0  0  0  0
   16.5158    8.7441    6.9012 C   0  0  0  0  0  0  0  0  0  0  0  0
   15.5075    8.7035    6.1982 O   0  0  0  0  0  0  0  0  0  0  0  0
   17.3982    8.1146   12.3028 O   0  0  0  0  0  0  0  0  0  0  0  0
   17.9102    6.7990   12.5686 C   0  0  0  0  0  0  0  0  0  0  0  0
   16.8419    5.9881   13.2846 C   0  0  0  0  0  0  0  0  0  0  0  0
   17.4031    4.6271   13.6561 C   0  0  0  0  0  0  0  0  0  0  0  0
   17.8318    3.9122   12.3893 C   0  0  0  0  0  0  0  0  0  0  0  0
   18.7909    4.8370   11.6631 C   0  0  0  0  0  0  0  0  0  0  0  0
   18.1358    6.0759   11.3486 O   0  0  0  0  0  0  0  0  0  0  0  0
   16.4092    6.6136   14.4983 O   0  0  0  0  0  0  0  0  0  0  0  0
   14.3101    7.9038   13.8936 C   0  0  0  0  0  0  0  0  0  0  0  0
   15.0601    6.7557   14.5749 C   0  0  0  0  0  0  0  0  0  0  0  0
   14.4382    5.9511   15.2673 O   0  0  0  0  0  0  0  0  0  0  0  0
   16.4582    3.8309   14.3862 O   0  0  0  0  0  0  0  0  0  0  0  0
   16.8810    3.6212   15.6630 C   0  0  0  0  0  0  0  0  0  0  0  0
   16.0463    2.7860   16.6365 C   0  0  0  0  0  0  0  0  0  0  0  0
   17.9565    4.0881   16.0360 O   0  0  0  0  0  0  0  0  0  0  0  0
   16.6980    3.6269   11.5587 O   0  0  0  0  0  0  0  0  0  0  0  0
   16.7517    2.2692   11.0959 C   0  0  0  0  0  0  0  0  0  0  0  0
   17.1583    1.1488   12.0565 C   0  0  0  0  0  0  0  0  0  0  0  0
   16.4301    1.9489    9.7403 O   0  0  0  0  0  0  0  0  0  0  0  0
   19.3095    4.1373   10.4159 C   0  0  0  0  0  0  0  0  0  0  0  0
   19.0002    4.8843    9.2289 O   0  0  0  0  0  0  0  0  0  0  0  0
   20.1026    5.4704    8.6825 C   0  0  0  0  0  0  0  0  0  0  0  0
   20.4775    6.8908    9.0817 C   0  0  0  0  0  0  0  0  0  0  0  0
   20.7844    4.8681    7.8529 O   0  0  0  0  0  0  0  0  0  0  0  0
  2  1  1  0  0  0
 22  1  1  0  0  0
  1  5  1  0  0  0
 18  2  1  0  0  0
  2  4  1  0  0  0
 26 27  1  0  0  0
 26  4  1  0  0  0
 28 27  1  0  0  0
 27 32  1  0  0  0
 33 28  1  0  0  0
 28 29  1  0  0  0
 37 29  1  0  0  0
 29 30  1  0  0  0
 41 30  1  0  0  0
 30 31  1  0  0  0
 32 31  1  0  0  0
 31 45  1  0  0  0
 46 45  1  0  0  0
 24 23  1  0  0  0
 25 24  2  0  0  0
 24 22  1  0  0  0
 21 19  2  0  0  0
 19 20  1  0  0  0
 19 18  1  0  0  0
  4  3  1  0  0  0
  3 13  1  0  0  0
  3  6  1  0  0  0
 14 13  1  0  0  0
 35 34  1  0  0  0
 36 35  2  0  0  0
 33 35  1  0  0  0
 38 37  1  0  0  0
 40 38  2  0  0  0
 38 39  1  0  0  0
 42 41  1  0  0  0
 44 42  2  0  0  0
 42 43  1  0  0  0
 46 47  1  0  0  0
 49 47  2  0  0  0
 47 48  1  0  0  0
  5  6  1  0  0  0
  5  7  1  0  0  0
 10  7  1  0  0  0
  9  7  2  0  0  0
  7  8  2  0  0  0
 14 15  1  0  0  0
 17 15  2  0  0  0
 15 16  1  0  0  0
 10 11  1  0  0  0
 10 12  1  0  0  0
M  END
> <minimizedAffinity>
-6.81531

$$$$
3HKN_MFS_A_300


 49 50  0  0  0  0  0  0  0  0999 V2000
   19.3672    5.2769   11.1976 C   0  0  0  0  0  0  0  0  0  0  0  0
   20.1215    6.3889   11.9091 C   0  0  0  0  0  0  0  0  0  0  0  0
   18.6508    5.9814   13.8174 C   0  0  0  0  0  0  0  0  0  0  0  0
   19.1126    7.0433   12.8357 C   0  0  0  0  0  0  0  0  0  0  0  0
   18.8366    4.2218   12.1558 C   0  0  0  0  0  0  0  0  0  0  0  0
   18.0200    4.8893   13.1306 O   0  0  0  0  0  0  0  0  0  0  0  0
   17.7815    2.9884   11.3040 S   0  0  0  0  0  0  0  0  0  0  0  0
   18.6545    1.9236   10.7074 O   0  0  0  0  0  0  0  0  0  0  0  0
   16.8418    2.3485   12.2825 O   0  0  0  0  0  0  0  0  0  0  0  0
   16.9284    3.7023   10.1126 N   0  0  0  0  0  0  0  0  0  0  0  0
   16.3318    4.4282   10.5096 H   0  0  0  0  0  0  0  0  0  0  0  0
   16.3498    3.0052    9.6440 H   0  0  0  0  0  0  0  0  0  0  0  0
   17.6313    6.5723   14.7736 C   0  0  0  0  0  0  0  0  0  0  0  0
   16.5062    7.0216   14.0057 O   0  0  0  0  0  0  0  0  0  0  0  0
   15.2961    6.6918   14.5342 C   0  0  0  0  0  0  0  0  0  0  0  0
   15.1790    5.9009   15.8395 C   0  0  0  0  0  0  0  0  0  0  0  0
   14.2841    7.0670   13.9461 O   0  0  0  0  0  0  0  0  0  0  0  0
   20.6320    7.3721   10.9991 O   0  0  0  0  0  0  0  0  0  0  0  0
   21.9925    7.3695   11.0308 C   0  0  0  0  0  0  0  0  0  0  0  0
   22.8024    7.8397    9.8220 C   0  0  0  0  0  0  0  0  0  0  0  0
   22.5748    7.0341   12.0602 O   0  0  0  0  0  0  0  0  0  0  0  0
   20.0881    4.7186   10.0853 O   0  0  0  0  0  0  0  0  0  0  0  0
   20.9249    5.2973    7.7798 C   0  0  0  0  0  0  0  0  0  0  0  0
   19.8302    5.2170    8.8437 C   0  0  0  0  0  0  0  0  0  0  0  0
   18.6927    5.5987    8.5736 O   0  0  0  0  0  0  0  0  0  0  0  0
   19.5751    8.2938   13.3744 O   0  0  0  0  0  0  0  0  0  0  0  0
   18.8636    9.4657   12.9457 C   0  0  0  0  0  0  0  0  0  0  0  0
   19.8319   10.6361   12.8815 C   0  0  0  0  0  0  0  0  0  0  0  0
   19.0739   11.9015   12.5218 C   0  0  0  0  0  0  0  0  0  0  0  0
   18.4089   11.7067   11.1728 C   0  0  0  0  0  0  0  0  0  0  0  0
   17.5669   10.4483   11.2730 C   0  0  0  0  0  0  0  0  0  0  0  0
   18.4004    9.3235   11.5939 O   0  0  0  0  0  0  0  0  0  0  0  0
   20.4799   10.8728   14.1367 O   0  0  0  0  0  0  0  0  0  0  0  0
   22.7006   11.8592   14.8662 C   0  0  0  0  0  0  0  0  0  0  0  0
   21.8350   10.9024   14.0414 C   0  0  0  0  0  0  0  0  0  0  0  0
   22.3672   10.1614   13.2161 O   0  0  0  0  0  0  0  0  0  0  0  0
   19.9252   13.0567   12.4992 O   0  0  0  0  0  0  0  0  0  0  0  0
   19.3713   14.0842   13.1995 C   0  0  0  0  0  0  0  0  0  0  0  0
   19.1177   15.4383   12.5332 C   0  0  0  0  0  0  0  0  0  0  0  0
   19.0490   13.9197   14.3754 O   0  0  0  0  0  0  0  0  0  0  0  0
   19.3916   11.5614   10.1385 O   0  0  0  0  0  0  0  0  0  0  0  0
   19.2315   12.5939    9.1541 C   0  0  0  0  0  0  0  0  0  0  0  0
   19.7965   12.4013    7.7444 C   0  0  0  0  0  0  0  0  0  0  0  0
   18.5486   13.8076    9.4766 O   0  0  0  0  0  0  0  0  0  0  0  0
   16.8183   10.2442    9.9645 C   0  0  0  0  0  0  0  0  0  0  0  0
   15.4114   10.4855   10.1225 O   0  0  0  0  0  0  0  0  0  0  0  0
   14.7749    9.4547   10.7469 C   0  0  0  0  0  0  0  0  0  0  0  0
   13.8373    9.7420   11.9113 C   0  0  0  0  0  0  0  0  0  0  0  0
   14.9694    8.2924   10.3907 O   0  0  0  0  0  0  0  0  0  0  0  0
  2  1  1  0  0  0
 22  1  1  0  0  0
  1  5  1  0  0  0
 18  2  1  0  0  0
  2  4  1  0  0  0
 26 27  1  0  0  0
 26  4  1  0  0  0
 28 27  1  0  0  0
 27 32  1  0  0  0
 33 28  1  0  0  0
 28 29  1  0  0  0
 37 29  1  0  0  0
 29 30  1  0  0  0
 41 30  1  0  0  0
 30 31  1  0  0  0
 32 31  1  0  0  0
 31 45  1  0  0  0
 46 45  1  0  0  0
 24 23  1  0  0  0
 25 24  2  0  0  0
 24 22  1  0  0  0
 21 19  2  0  0  0
 19 20  1  0  0  0
 19 18  1  0  0  0
  4  3  1  0  0  0
  3 13  1  0  0  0
  3  6  1  0  0  0
 14 13  1  0  0  0
 35 34  1  0  0  0
 36 35  2  0  0  0
 33 35  1  0  0  0
 38 37  1  0  0  0
 40 38  2  0  0  0
 38 39  1  0  0  0
 42 41  1  0  0  0
 44 42  2  0  0  0
 42 43  1  0  0  0
 46 47  1  0  0  0
 49 47  2  0  0  0
 47 48  1  0  0  0
  5  6  1  0  0  0
  5  7  1  0  0  0
 10  7  1  0  0  0
  9  7  2  0  0  0
  7  8  2  0  0  0
 14 15  1  0  0  0
 17 15  2  0  0  0
 15 16  1  0  0  0
 10 11  1  0  0  0
 10 12  1  0  0  0
M  END
> <minimizedAffinity>
-6.49175

$$$$
3HKN_MFS_A_300


 49 50  0  0  0  0  0  0  0  0999 V2000
   18.3278    4.7262   12.0722 C   0  0  0  0  0  0  0  0  0  0  0  0
   18.4357    6.2425   12.0453 C   0  0  0  0  0  0  0  0  0  0  0  0
   18.1573    6.0844    9.6229 C   0  0  0  0  0  0  0  0  0  0  0  0
   19.0837    6.5857   10.7160 C   0  0  0  0  0  0  0  0  0  0  0  0
   17.4535    4.1805   10.9538 C   0  0  0  0  0  0  0  0  0  0  0  0
   17.9864    4.6612    9.7097 O   0  0  0  0  0  0  0  0  0  0  0  0
   17.4790    2.3486   10.8934 S   0  0  0  0  0  0  0  0  0  0  0  0
   16.5979    1.8817    9.7720 O   0  0  0  0  0  0  0  0  0  0  0  0
   18.8749    1.8591   10.6448 O   0  0  0  0  0  0  0  0  0  0  0  0
   16.9237    1.7300   12.2955 N   0  0  0  0  0  0  0  0  0  0  0  0
   17.5174    2.0426   13.0638 H   0  0  0  0  0  0  0  0  0  0  0  0
   16.9386    0.7112   12.2472 H   0  0  0  0  0  0  0  0  0  0  0  0
   18.7526    6.3928    8.2615 C   0  0  0  0  0  0  0  0  0  0  0  0
   19.8462    5.4923    8.0375 O   0  0  0  0  0  0  0  0  0  0  0  0
   20.8108    5.9736    7.2067 C   0  0  0  0  0  0  0  0  0  0  0  0
   20.7871    7.4184    6.7014 C   0  0  0  0  0  0  0  0  0  0  0  0
   21.7275    5.2210    6.8839 O   0  0  0  0  0  0  0  0  0  0  0  0
   19.2487    6.7516   13.1108 O   0  0  0  0  0  0  0  0  0  0  0  0
   18.5187    7.6005   13.8845 C   0  0  0  0  0  0  0  0  0  0  0  0
   17.2244    8.2202   13.3564 C   0  0  0  0  0  0  0  0  0  0  0  0
   18.8772    7.8305   15.0375 O   0  0  0  0  0  0  0  0  0  0  0  0
   17.9835    4.2009   13.3660 O   0  0  0  0  0  0  0  0  0  0  0  0
   16.6823    4.9462   15.3912 C   0  0  0  0  0  0  0  0  0  0  0  0
   16.7937    4.5791   13.9115 C   0  0  0  0  0  0  0  0  0  0  0  0
   15.7951    4.6354   13.1958 O   0  0  0  0  0  0  0  0  0  0  0  0
   19.5229    7.9531   10.6430 O   0  0  0  0  0  0  0  0  0  0  0  0
   20.9136    8.1525   10.3431 C   0  0  0  0  0  0  0  0  0  0  0  0
   21.5050    9.1166   11.3591 C   0  0  0  0  0  0  0  0  0  0  0  0
   22.9500    9.4102   10.9972 C   0  0  0  0  0  0  0  0  0  0  0  0
   23.7301    8.1097   11.0042 C   0  0  0  0  0  0  0  0  0  0  0  0
   23.0057    7.1551   10.0734 C   0  0  0  0  0  0  0  0  0  0  0  0
   21.6626    6.9425   10.5354 O   0  0  0  0  0  0  0  0  0  0  0  0
   20.8117   10.3697   11.3846 O   0  0  0  0  0  0  0  0  0  0  0  0
   20.9375   10.3942   13.9184 C   0  0  0  0  0  0  0  0  0  0  0  0
   20.2276   10.6331   12.5828 C   0  0  0  0  0  0  0  0  0  0  0  0
   19.0626   11.0285   12.5771 O   0  0  0  0  0  0  0  0  0  0  0  0
   23.5511   10.3604   11.8892 O   0  0  0  0  0  0  0  0  0  0  0  0
   24.1687   11.3562   11.1965 C   0  0  0  0  0  0  0  0  0  0  0  0
   25.6417   11.6869   11.4475 C   0  0  0  0  0  0  0  0  0  0  0  0
   23.5454   11.9853   10.3424 O   0  0  0  0  0  0  0  0  0  0  0  0
   23.7880    7.5594   12.3273 O   0  0  0  0  0  0  0  0  0  0  0  0
   25.1429    7.5500   12.8013 C   0  0  0  0  0  0  0  0  0  0  0  0
   25.6774    8.7319   13.6142 C   0  0  0  0  0  0  0  0  0  0  0  0
   26.0048    6.4446   12.5203 O   0  0  0  0  0  0  0  0  0  0  0  0
   23.7883    5.8534    9.9871 C   0  0  0  0  0  0  0  0  0  0  0  0
   25.1444    6.0835    9.5739 O   0  0  0  0  0  0  0  0  0  0  0  0
   25.3919    5.6117    8.3195 C   0  0  0  0  0  0  0  0  0  0  0  0
   26.3646    4.4567    8.1267 C   0  0  0  0  0  0  0  0  0  0  0  0
   24.8517    6.1263    7.3402 O   0  0  0  0  0  0  0  0  0  0  0  0
  2  1  1  0  0  0
 22  1  1  0  0  0
  1  5  1  0  0  0
 18  2  1  0  0  0
  2  4  1  0  0  0
 26 27  1  0  0  0
 26  4  1  0  0  0
 28 27  1  0  0  0
 27 32  1  0  0  0
 33 28  1  0  0  0
 28 29  1  0  0  0
 37 29  1  0  0  0
 29 30  1  0  0  0
 41 30  1  0  0  0
 30 31  1  0  0  0
 32 31  1  0  0  0
 31 45  1  0  0  0
 46 45  1  0  0  0
 24 23  1  0  0  0
 25 24  2  0  0  0
 24 22  1  0  0  0
 21 19  2  0  0  0
 19 20  1  0  0  0
 19 18  1  0  0  0
  4  3  1  0  0  0
  3 13  1  0  0  0
  3  6  1  0  0  0
 14 13  1  0  0  0
 35 34  1  0  0  0
 36 35  2  0  0  0
 33 35  1  0  0  0
 38 37  1  0  0  0
 40 38  2  0  0  0
 38 39  1  0  0  0
 42 41  1  0  0  0
 44 42  2  0  0  0
 42 43  1  0  0  0
 46 47  1  0  0  0
 49 47  2  0  0  0
 47 48  1  0  0  0
  5  6  1  0  0  0
  5  7  1  0  0  0
 10  7  1  0  0  0
  9  7  2  0  0  0
  7  8  2  0  0  0
 14 15  1  0  0  0
 17 15  2  0  0  0
 15 16  1  0  0  0
 10 11  1  0  0  0
 10 12  1  0  0  0
M  END
> <minimizedAffinity>
-6.32655

$$$$
3HKN_MFS_A_300


 49 50  0  0  0  0  0  0  0  0999 V2000
   17.4388    5.7730   11.9703 C   0  0  0  0  0  0  0  0  0  0  0  0
   16.7703    7.0175   11.4082 C   0  0  0  0  0  0  0  0  0  0  0  0
   17.6746    6.3579    9.2362 C   0  0  0  0  0  0  0  0  0  0  0  0
   17.6530    7.4769   10.2617 C   0  0  0  0  0  0  0  0  0  0  0  0
   17.5327    4.6472   10.9522 C   0  0  0  0  0  0  0  0  0  0  0  0
   18.2234    5.1569    9.8008 O   0  0  0  0  0  0  0  0  0  0  0  0
   18.4972    3.2241   11.5885 S   0  0  0  0  0  0  0  0  0  0  0  0
   18.7311    2.2502   10.4711 O   0  0  0  0  0  0  0  0  0  0  0  0
   19.8253    3.6904   12.1068 O   0  0  0  0  0  0  0  0  0  0  0  0
   17.6769    2.4744   12.7809 N   0  0  0  0  0  0  0  0  0  0  0  0
   17.5134    3.1298   13.5452 H   0  0  0  0  0  0  0  0  0  0  0  0
   18.2216    1.6826   13.1226 H   0  0  0  0  0  0  0  0  0  0  0  0
   18.5488    6.7534    8.0605 C   0  0  0  0  0  0  0  0  0  0  0  0
   17.7821    6.5917    6.8591 O   0  0  0  0  0  0  0  0  0  0  0  0
   16.9674    7.6416    6.5656 C   0  0  0  0  0  0  0  0  0  0  0  0
   15.4532    7.4674    6.4235 C   0  0  0  0  0  0  0  0  0  0  0  0
   17.4761    8.7533    6.4377 O   0  0  0  0  0  0  0  0  0  0  0  0
   16.6712    8.0696   12.3771 O   0  0  0  0  0  0  0  0  0  0  0  0
   15.3625    8.3496   12.6237 C   0  0  0  0  0  0  0  0  0  0  0  0
   14.6048    9.3607   11.7624 C   0  0  0  0  0  0  0  0  0  0  0  0
   14.7703    7.7452   13.5154 O   0  0  0  0  0  0  0  0  0  0  0  0
   16.8911    5.3504   13.2312 O   0  0  0  0  0  0  0  0  0  0  0  0
   18.6831    6.5657   14.5203 C   0  0  0  0  0  0  0  0  0  0  0  0
   17.6951    5.4151   14.3293 C   0  0  0  0  0  0  0  0  0  0  0  0
   17.6148    4.5361   15.1857 O   0  0  0  0  0  0  0  0  0  0  0  0
   17.3281    8.7993    9.7994 O   0  0  0  0  0  0  0  0  0  0  0  0
   18.3889    9.7660    9.8605 C   0  0  0  0  0  0  0  0  0  0  0  0
   17.7924   11.1612    9.7648 C   0  0  0  0  0  0  0  0  0  0  0  0
   18.9098   12.1886    9.7323 C   0  0  0  0  0  0  0  0  0  0  0  0
   19.7275   12.0626   11.0032 C   0  0  0  0  0  0  0  0  0  0  0  0
   20.1745   10.6157   11.0992 C   0  0  0  0  0  0  0  0  0  0  0  0
   19.0298    9.7496   11.1455 O   0  0  0  0  0  0  0  0  0  0  0  0
   17.0185   11.3391    8.5727 O   0  0  0  0  0  0  0  0  0  0  0  0
   15.0974   12.4769    9.7775 C   0  0  0  0  0  0  0  0  0  0  0  0
   15.6850   11.4439    8.8119 C   0  0  0  0  0  0  0  0  0  0  0  0
   14.9396   10.6337    8.2628 O   0  0  0  0  0  0  0  0  0  0  0  0
   18.4128   13.5271    9.5863 O   0  0  0  0  0  0  0  0  0  0  0  0
   19.1415   14.2203    8.6690 C   0  0  0  0  0  0  0  0  0  0  0  0
   19.1183   13.8251    7.1907 C   0  0  0  0  0  0  0  0  0  0  0  0
   19.8103   15.1898    9.0247 O   0  0  0  0  0  0  0  0  0  0  0  0
   18.9408   12.4126   12.1501 O   0  0  0  0  0  0  0  0  0  0  0  0
   19.5367   13.5213   12.8403 C   0  0  0  0  0  0  0  0  0  0  0  0
   19.1652   13.8041   14.2981 C   0  0  0  0  0  0  0  0  0  0  0  0
   20.4768   14.3707   12.1782 O   0  0  0  0  0  0  0  0  0  0  0  0
   21.0619   10.4485   12.3234 C   0  0  0  0  0  0  0  0  0  0  0  0
   20.4095    9.6740   13.3418 O   0  0  0  0  0  0  0  0  0  0  0  0
   20.4214   10.2960   14.5545 C   0  0  0  0  0  0  0  0  0  0  0  0
   19.2004   10.2075   15.4592 C   0  0  0  0  0  0  0  0  0  0  0  0
   21.4031   10.9463   14.9137 O   0  0  0  0  0  0  0  0  0  0  0  0
  2  1  1  0  0  0
 22  1  1  0  0  0
  1  5  1  0  0  0
 18  2  1  0  0  0
  2  4  1  0  0  0
 26 27  1  0  0  0
 26  4  1  0  0  0
 28 27  1  0  0  0
 27 32  1  0  0  0
 33 28  1  0  0  0
 28 29  1  0  0  0
 37 29  1  0  0  0
 29 30  1  0  0  0
 41 30  1  0  0  0
 30 31  1  0  0  0
 32 31  1  0  0  0
 31 45  1  0  0  0
 46 45  1  0  0  0
 24 23  1  0  0  0
 25 24  2  0  0  0
 24 22  1  0  0  0
 21 19  2  0  0  0
 19 20  1  0  0  0
 19 18  1  0  0  0
  4  3  1  0  0  0
  3 13  1  0  0  0
  3  6  1  0  0  0
 14 13  1  0  0  0
 35 34  1  0  0  0
 36 35  2  0  0  0
 33 35  1  0  0  0
 38 37  1  0  0  0
 40 38  2  0  0  0
 38 39  1  0  0  0
 42 41  1  0  0  0
 44 42  2  0  0  0
 42 43  1  0  0  0
 46 47  1  0  0  0
 49 47  2  0  0  0
 47 48  1  0  0  0
  5  6  1  0  0  0
  5  7  1  0  0  0
 10  7  1  0  0  0
  9  7  2  0  0  0
  7  8  2  0  0  0
 14 15  1  0  0  0
 17 15  2  0  0  0
 15 16  1  0  0  0
 10 11  1  0  0  0
 10 12  1  0  0  0
M  END
> <minimizedAffinity>
-6.21054

$$$$
3HKN_MFS_A_300


 49 50  0  0  0  0  0  0  0  0999 V2000
   17.2062    5.4437   11.8072 C   0  0  0  0  0  0  0  0  0  0  0  0
   16.8218    6.8499   11.3754 C   0  0  0  0  0  0  0  0  0  0  0  0
   17.8995    6.3438    9.2417 C   0  0  0  0  0  0  0  0  0  0  0  0
   17.9128    7.3001   10.4205 C   0  0  0  0  0  0  0  0  0  0  0  0
   17.2616    4.4672   10.6426 C   0  0  0  0  0  0  0  0  0  0  0  0
   18.1732    5.0005    9.6694 O   0  0  0  0  0  0  0  0  0  0  0  0
   17.8977    2.8253   11.1524 S   0  0  0  0  0  0  0  0  0  0  0  0
   18.2207    2.0215    9.9271 O   0  0  0  0  0  0  0  0  0  0  0  0
   19.1474    2.9854   11.9666 O   0  0  0  0  0  0  0  0  0  0  0  0
   16.7738    2.0309   12.0255 N   0  0  0  0  0  0  0  0  0  0  0  0
   16.5481    2.5707   12.8610 H   0  0  0  0  0  0  0  0  0  0  0  0
   17.1380    1.1181   12.2986 H   0  0  0  0  0  0  0  0  0  0  0  0
   18.9762    6.7370    8.2472 C   0  0  0  0  0  0  0  0  0  0  0  0
   18.5260    6.3748    6.9344 O   0  0  0  0  0  0  0  0  0  0  0  0
   17.3749    6.9877    6.5450 C   0  0  0  0  0  0  0  0  0  0  0  0
   17.2836    8.5093    6.4043 C   0  0  0  0  0  0  0  0  0  0  0  0
   16.4024    6.2835    6.2822 O   0  0  0  0  0  0  0  0  0  0  0  0
   16.7565    7.7620   12.4796 O   0  0  0  0  0  0  0  0  0  0  0  0
   15.4773    8.1953   12.6466 C   0  0  0  0  0  0  0  0  0  0  0  0
   14.8756    9.2353   11.7008 C   0  0  0  0  0  0  0  0  0  0  0  0
   14.7826    7.7073   13.5356 O   0  0  0  0  0  0  0  0  0  0  0  0
   16.4331    4.9557   12.9175 O   0  0  0  0  0  0  0  0  0  0  0  0
   17.6315    5.9321   14.9077 C   0  0  0  0  0  0  0  0  0  0  0  0
   17.0748    4.7577   14.1030 C   0  0  0  0  0  0  0  0  0  0  0  0
   17.1976    3.6132   14.5362 O   0  0  0  0  0  0  0  0  0  0  0  0
   17.8631    8.7091   10.1371 O   0  0  0  0  0  0  0  0  0  0  0  0
   19.0010    9.4770   10.5605 C   0  0  0  0  0  0  0  0  0  0  0  0
   18.5575   10.4764   11.6169 C   0  0  0  0  0  0  0  0  0  0  0  0
   19.7310   11.3586   12.0039 C   0  0  0  0  0  0  0  0  0  0  0  0
   20.8404   10.4833   12.5545 C   0  0  0  0  0  0  0  0  0  0  0  0
   21.1352    9.4300   11.5027 C   0  0  0  0  0  0  0  0  0  0  0  0
   19.9568    8.6510   11.2434 O   0  0  0  0  0  0  0  0  0  0  0  0
   17.5169   11.3394   11.1434 O   0  0  0  0  0  0  0  0  0  0  0  0
   16.7165   11.4551    8.7387 C   0  0  0  0  0  0  0  0  0  0  0  0
   17.7093   11.7570    9.8648 C   0  0  0  0  0  0  0  0  0  0  0  0
   18.7539   12.3543    9.6088 O   0  0  0  0  0  0  0  0  0  0  0  0
   19.3631   12.3631   12.9606 O   0  0  0  0  0  0  0  0  0  0  0  0
   19.7488   13.5995   12.5420 C   0  0  0  0  0  0  0  0  0  0  0  0
   18.7181   14.7107   12.3299 C   0  0  0  0  0  0  0  0  0  0  0  0
   20.9410   13.8371   12.3520 O   0  0  0  0  0  0  0  0  0  0  0  0
   20.4330    9.8571   13.7786 O   0  0  0  0  0  0  0  0  0  0  0  0
   20.8351   10.6557   14.9017 C   0  0  0  0  0  0  0  0  0  0  0  0
   19.9254   10.7645   16.1280 C   0  0  0  0  0  0  0  0  0  0  0  0
   22.0811   11.3562   14.8878 O   0  0  0  0  0  0  0  0  0  0  0  0
   22.2942    8.5651   11.9749 C   0  0  0  0  0  0  0  0  0  0  0  0
   21.9123    7.1839   12.0708 O   0  0  0  0  0  0  0  0  0  0  0  0
   22.7131    6.3711   11.3254 C   0  0  0  0  0  0  0  0  0  0  0  0
   22.1341    5.6395   10.1225 C   0  0  0  0  0  0  0  0  0  0  0  0
   23.8946    6.2074   11.6303 O   0  0  0  0  0  0  0  0  0  0  0  0
  2  1  1  0  0  0
 22  1  1  0  0  0
  1  5  1  0  0  0
 18  2  1  0  0  0
  2  4  1  0  0  0
 26 27  1  0  0  0
 26  4  1  0  0  0
 28 27  1  0  0  0
 27 32  1  0  0  0
 33 28  1  0  0  0
 28 29  1  0  0  0
 37 29  1  0  0  0
 29 30  1  0  0  0
 41 30  1  0  0  0
 30 31  1  0  0  0
 32 31  1  0  0  0
 31 45  1  0  0  0
 46 45  1  0  0  0
 24 23  1  0  0  0
 25 24  2  0  0  0
 24 22  1  0  0  0
 21 19  2  0  0  0
 19 20  1  0  0  0
 19 18  1  0  0  0
  4  3  1  0  0  0
  3 13  1  0  0  0
  3  6  1  0  0  0
 14 13  1  0  0  0
 35 34  1  0  0  0
 36 35  2  0  0  0
 33 35  1  0  0  0
 38 37  1  0  0  0
 40 38  2  0  0  0
 38 39  1  0  0  0
 42 41  1  0  0  0
 44 42  2  0  0  0
 42 43  1  0  0  0
 46 47  1  0  0  0
 49 47  2  0  0  0
 47 48  1  0  0  0
  5  6  1  0  0  0
  5  7  1  0  0  0
 10  7  1  0  0  0
  9  7  2  0  0  0
  7  8  2  0  0  0
 14 15  1  0  0  0
 17 15  2  0  0  0
 15 16  1  0  0  0
 10 11  1  0  0  0
 10 12  1  0  0  0
M  END
> <minimizedAffinity>
-6.14058

$$$$
3HKN_MFS_A_300


 49 50  0  0  0  0  0  0  0  0999 V2000
   18.2251    5.5904   10.3566 C   0  0  0  0  0  0  0  0  0  0  0  0
   18.8894    6.9387   10.5856 C   0  0  0  0  0  0  0  0  0  0  0  0
   18.1934    6.7338   12.9188 C   0  0  0  0  0  0  0  0  0  0  0  0
   18.0873    7.6116   11.6849 C   0  0  0  0  0  0  0  0  0  0  0  0
   18.2588    4.7028   11.5911 C   0  0  0  0  0  0  0  0  0  0  0  0
   17.6464    5.4298   12.6677 O   0  0  0  0  0  0  0  0  0  0  0  0
   17.3006    3.1584   11.3533 S   0  0  0  0  0  0  0  0  0  0  0  0
   17.4148    2.3142   12.5886 O   0  0  0  0  0  0  0  0  0  0  0  0
   15.8537    3.4787   11.1211 O   0  0  0  0  0  0  0  0  0  0  0  0
   17.8863    2.3207   10.0837 N   0  0  0  0  0  0  0  0  0  0  0  0
   17.8124    2.8876    9.2390 H   0  0  0  0  0  0  0  0  0  0  0  0
   17.3480    1.4624    9.9652 H   0  0  0  0  0  0  0  0  0  0  0  0
   17.4045    7.3504   14.0591 C   0  0  0  0  0  0  0  0  0  0  0  0
   16.2808    6.5028   14.3349 O   0  0  0  0  0  0  0  0  0  0  0  0
   15.1328    7.1695   14.6345 C   0  0  0  0  0  0  0  0  0  0  0  0
   14.7215    7.4490   16.0823 C   0  0  0  0  0  0  0  0  0  0  0  0
   14.4340    7.5689   13.7056 O   0  0  0  0  0  0  0  0  0  0  0  0
   18.8678    7.7646    9.4139 O   0  0  0  0  0  0  0  0  0  0  0  0
   20.1194    8.2316    9.1540 C   0  0  0  0  0  0  0  0  0  0  0  0
   21.2567    8.0138   10.1525 C   0  0  0  0  0  0  0  0  0  0  0  0
   20.3487    8.7888    8.0825 O   0  0  0  0  0  0  0  0  0  0  0  0
   18.6828    4.9226    9.1679 O   0  0  0  0  0  0  0  0  0  0  0  0
   20.8273    5.1188    7.8590 C   0  0  0  0  0  0  0  0  0  0  0  0
   20.0131    4.6470    9.0637 C   0  0  0  0  0  0  0  0  0  0  0  0
   20.5684    4.0162    9.9616 O   0  0  0  0  0  0  0  0  0  0  0  0
   18.3982    9.0080   11.8310 O   0  0  0  0  0  0  0  0  0  0  0  0
   17.3022    9.9192   11.6512 C   0  0  0  0  0  0  0  0  0  0  0  0
   17.7797   11.1125   10.8392 C   0  0  0  0  0  0  0  0  0  0  0  0
   16.6570   12.1280   10.7231 C   0  0  0  0  0  0  0  0  0  0  0  0
   15.4750   11.4740   10.0340 C   0  0  0  0  0  0  0  0  0  0  0  0
   15.1421   10.2209   10.8222 C   0  0  0  0  0  0  0  0  0  0  0  0
   16.2726    9.3353   10.8381 O   0  0  0  0  0  0  0  0  0  0  0  0
   18.8899   11.7769   11.4537 O   0  0  0  0  0  0  0  0  0  0  0  0
   21.4179   11.5867   11.3529 C   0  0  0  0  0  0  0  0  0  0  0  0
   20.0297   11.7054   10.7174 C   0  0  0  0  0  0  0  0  0  0  0  0
   19.9279   11.7946    9.4946 O   0  0  0  0  0  0  0  0  0  0  0  0
   17.0624   13.3071   10.0124 O   0  0  0  0  0  0  0  0  0  0  0  0
   16.8527   14.4241   10.7616 C   0  0  0  0  0  0  0  0  0  0  0  0
   15.5018   15.1427   10.7339 C   0  0  0  0  0  0  0  0  0  0  0  0
   17.7495   14.8514   11.4875 O   0  0  0  0  0  0  0  0  0  0  0  0
   15.8019   11.1324    8.6800 O   0  0  0  0  0  0  0  0  0  0  0  0
   14.8581   11.7278    7.7769 C   0  0  0  0  0  0  0  0  0  0  0  0
   13.9760   12.8872    8.2470 C   0  0  0  0  0  0  0  0  0  0  0  0
   14.7299   11.2470    6.4368 O   0  0  0  0  0  0  0  0  0  0  0  0
   13.9136    9.5612   10.2139 C   0  0  0  0  0  0  0  0  0  0  0  0
   14.2448    8.3103    9.5909 O   0  0  0  0  0  0  0  0  0  0  0  0
   13.9451    8.2972    8.2614 C   0  0  0  0  0  0  0  0  0  0  0  0
   15.0079    7.8838    7.2530 C   0  0  0  0  0  0  0  0  0  0  0  0
   12.8291    8.6377    7.8689 O   0  0  0  0  0  0  0  0  0  0  0  0
  2  1  1  0  0  0
 22  1  1  0  0  0
  1  5  1  0  0  0
 18  2  1  0  0  0
  2  4  1  0  0  0
 26 27  1  0  0  0
 26  4  1  0  0  0
 28 27  1  0  0  0
 27 32  1  0  0  0
 33 28  1  0  0  0
 28 29  1  0  0  0
 37 29  1  0  0  0
 29 30  1  0  0  0
 41 30  1  0  0  0
 30 31  1  0  0  0
 32 31  1  0  0  0
 31 45  1  0  0  0
 46 45  1  0  0  0
 24 23  1  0  0  0
 25 24  2  0  0  0
 24 22  1  0  0  0
 21 19  2  0  0  0
 19 20  1  0  0  0
 19 18  1  0  0  0
  4  3  1  0  0  0
  3 13  1  0  0  0
  3  6  1  0  0  0
 14 13  1  0  0  0
 35 34  1  0  0  0
 36 35  2  0  0  0
 33 35  1  0  0  0
 38 37  1  0  0  0
 40 38  2  0  0  0
 38 39  1  0  0  0
 42 41  1  0  0  0
 44 42  2  0  0  0
 42 43  1  0  0  0
 46 47  1  0  0  0
 49 47  2  0  0  0
 47 48  1  0  0  0
  5  6  1  0  0  0
  5  7  1  0  0  0
 10  7  1  0  0  0
  9  7  2  0  0  0
  7  8  2  0  0  0
 14 15  1  0  0  0
 17 15  2  0  0  0
 15 16  1  0  0  0
 10 11  1  0  0  0
 10 12  1  0  0  0
M  END
> <minimizedAffinity>
-6.11417

$$$$
3HKN_MFS_A_300


 49 50  0  0  0  0  0  0  0  0999 V2000
   20.0564   10.8081   11.0520 C   0  0  0  0  0  0  0  0  0  0  0  0
   20.1897    9.4826   10.3192 C   0  0  0  0  0  0  0  0  0  0  0  0
   18.2553   10.1739    8.9959 C   0  0  0  0  0  0  0  0  0  0  0  0
   18.7788    9.0891    9.9199 C   0  0  0  0  0  0  0  0  0  0  0  0
   19.4786   11.9077   10.1745 C   0  0  0  0  0  0  0  0  0  0  0  0
   18.2181   11.4432    9.6666 O   0  0  0  0  0  0  0  0  0  0  0  0
   19.1591   13.4449   11.1206 S   0  0  0  0  0  0  0  0  0  0  0  0
   18.2454   14.3305   10.3251 O   0  0  0  0  0  0  0  0  0  0  0  0
   18.4975   13.1197   12.4269 O   0  0  0  0  0  0  0  0  0  0  0  0
   20.5561   14.2379   11.3972 N   0  0  0  0  0  0  0  0  0  0  0  0
   21.1836   13.6427   11.9379 H   0  0  0  0  0  0  0  0  0  0  0  0
   20.3641   15.0927   11.9196 H   0  0  0  0  0  0  0  0  0  0  0  0
   16.8394    9.8422    8.5624 C   0  0  0  0  0  0  0  0  0  0  0  0
   15.9335   10.4356    9.5029 O   0  0  0  0  0  0  0  0  0  0  0  0
   15.0579    9.5613   10.0697 C   0  0  0  0  0  0  0  0  0  0  0  0
   14.4614    9.8091   11.4575 C   0  0  0  0  0  0  0  0  0  0  0  0
   14.7329    8.5658    9.4262 O   0  0  0  0  0  0  0  0  0  0  0  0
   20.7488    8.4543   11.1471 O   0  0  0  0  0  0  0  0  0  0  0  0
   21.9950    8.1316   10.7055 C   0  0  0  0  0  0  0  0  0  0  0  0
   23.0885    7.7155   11.6901 C   0  0  0  0  0  0  0  0  0  0  0  0
   22.2284    8.1253    9.4987 O   0  0  0  0  0  0  0  0  0  0  0  0
   21.2565   11.2047   11.7381 O   0  0  0  0  0  0  0  0  0  0  0  0
   20.1606   10.4158   13.8658 C   0  0  0  0  0  0  0  0  0  0  0  0
   21.2593   11.1523   13.0996 C   0  0  0  0  0  0  0  0  0  0  0  0
   22.1694   11.6993   13.7203 O   0  0  0  0  0  0  0  0  0  0  0  0
   18.6830    7.7265    9.4703 O   0  0  0  0  0  0  0  0  0  0  0  0
   17.7878    6.8809   10.2101 C   0  0  0  0  0  0  0  0  0  0  0  0
   18.4580    5.5365   10.4442 C   0  0  0  0  0  0  0  0  0  0  0  0
   17.4866    4.6010   11.1418 C   0  0  0  0  0  0  0  0  0  0  0  0
   17.0833    5.2150   12.4684 C   0  0  0  0  0  0  0  0  0  0  0  0
   16.5501    6.6036   12.1686 C   0  0  0  0  0  0  0  0  0  0  0  0
   17.5669    7.3940   11.5330 O   0  0  0  0  0  0  0  0  0  0  0  0
   18.8485    4.9051    9.2193 O   0  0  0  0  0  0  0  0  0  0  0  0
   21.1688    4.6406   10.2108 C   0  0  0  0  0  0  0  0  0  0  0  0
   20.1957    4.8573    9.0485 C   0  0  0  0  0  0  0  0  0  0  0  0
   20.6363    5.0508    7.9162 O   0  0  0  0  0  0  0  0  0  0  0  0
   18.0417    3.2928   11.3426 O   0  0  0  0  0  0  0  0  0  0  0  0
   17.1771    2.3273   10.9268 C   0  0  0  0  0  0  0  0  0  0  0  0
   17.0497    1.0084   11.6926 C   0  0  0  0  0  0  0  0  0  0  0  0
   16.4720    2.5219    9.9374 O   0  0  0  0  0  0  0  0  0  0  0  0
   18.2096    5.2996   13.3522 O   0  0  0  0  0  0  0  0  0  0  0  0
   17.9186    4.6354   14.5911 C   0  0  0  0  0  0  0  0  0  0  0  0
   16.9874    3.4206   14.6076 C   0  0  0  0  0  0  0  0  0  0  0  0
   18.4897    5.0986   15.8170 O   0  0  0  0  0  0  0  0  0  0  0  0
   16.0627    7.2401   13.4615 C   0  0  0  0  0  0  0  0  0  0  0  0
   15.0736    6.4233   14.1075 O   0  0  0  0  0  0  0  0  0  0  0  0
   15.0127    6.6467   15.4506 C   0  0  0  0  0  0  0  0  0  0  0  0
   14.6819    5.4971   16.3919 C   0  0  0  0  0  0  0  0  0  0  0  0
   15.2015    7.7749   15.9057 O   0  0  0  0  0  0  0  0  0  0  0  0
  2  1  1  0  0  0
 22  1  1  0  0  0
  1  5  1  0  0  0
 18  2  1  0  0  0
  2  4  1  0  0  0
 26 27  1  0  0  0
 26  4  1  0  0  0
 28 27  1  0  0  0
 27 32  1  0  0  0
 33 28  1  0  0  0
 28 29  1  0  0  0
 37 29  1  0  0  0
 29 30  1  0  0  0
 41 30  1  0  0  0
 30 31  1  0  0  0
 32 31  1  0  0  0
 31 45  1  0  0  0
 46 45  1  0  0  0
 24 23  1  0  0  0
 25 24  2  0  0  0
 24 22  1  0  0  0
 21 19  2  0  0  0
 19 20  1  0  0  0
 19 18  1  0  0  0
  4  3  1  0  0  0
  3 13  1  0  0  0
  3  6  1  0  0  0
 14 13  1  0  0  0
 35 34  1  0  0  0
 36 35  2  0  0  0
 33 35  1  0  0  0
 38 37  1  0  0  0
 40 38  2  0  0  0
 38 39  1  0  0  0
 42 41  1  0  0  0
 44 42  2  0  0  0
 42 43  1  0  0  0
 46 47  1  0  0  0
 49 47  2  0  0  0
 47 48  1  0  0  0
  5  6  1  0  0  0
  5  7  1  0  0  0
 10  7  1  0  0  0
  9  7  2  0  0  0
  7  8  2  0  0  0
 14 15  1  0  0  0
 17 15  2  0  0  0
 15 16  1  0  0  0
 10 11  1  0  0  0
 10 12  1  0  0  0
M  END
> <minimizedAffinity>
-6.07488

$$$$
