2WHP_HI6_A_1543


 20 21  0  0  0  0  0  0  0  0999 V2000
   37.9743   20.3460   10.4967 C   0  0  0  0  0  0  0  0  0  0  0  0
   38.1312   21.4534   11.3257 C   0  0  0  0  0  0  0  0  0  0  0  0
   37.1997   22.4791   11.2910 C   0  0  0  0  0  0  0  0  0  0  0  0
   36.1438   22.4163   10.4747 N   0  0  0  0  0  0  0  0  0  0  0  0
   35.9566   21.3536    9.6653 C   0  0  0  0  0  0  0  0  0  0  0  0
   36.8667   20.2914    9.6459 C   0  0  0  0  0  0  0  0  0  0  0  0
   38.6617   18.0731   10.7518 O   0  0  0  0  0  0  0  0  0  0  0  0
   38.9965   19.2337   10.5702 C   0  0  0  0  0  0  0  0  0  0  0  0
   40.2837   19.5664   10.4748 N   0  0  0  0  0  0  0  0  0  0  0  0
   40.9770   18.8688   10.5185 H   0  0  0  0  0  0  0  0  0  0  0  0
   40.5411   20.5098   10.3607 H   0  0  0  0  0  0  0  0  0  0  0  0
   35.1786   23.5169   10.4653 C   0  0  0  0  0  0  0  0  0  0  0  0
   34.0432   22.9674    9.8081 O   0  0  0  0  0  0  0  0  0  0  0  0
   33.1027   23.9332    9.3614 C   0  0  0  0  0  0  0  0  0  0  0  0
   32.3897   23.3356    8.2385 N   0  0  0  0  0  0  0  0  0  0  0  0
   32.9768   23.3018    7.0416 C   0  0  0  0  0  0  0  0  0  0  0  0
   32.2999   22.7265    5.9749 C   0  0  0  0  0  0  0  0  0  0  0  0
   31.0196   22.1982    6.1464 C   0  0  0  0  0  0  0  0  0  0  0  0
   30.4359   22.2583    7.3982 C   0  0  0  0  0  0  0  0  0  0  0  0
   31.1615   22.8380    8.4320 C   0  0  0  0  0  0  0  0  0  0  0  0
  7  8  2  0  0  0
  8  9  1  0  0  0
  8  1  1  0  0  0
  1  2  1  0  0  0
  1  6  2  0  0  0
  2  3  2  0  0  0
  3  4  1  0  0  0
  4  5  2  0  0  0
  4 12  1  0  0  0
  5  6  1  0  0  0
 12 13  1  0  0  0
 13 14  1  0  0  0
 14 15  1  0  0  0
 15 16  1  0  0  0
 15 20  2  0  0  0
 16 17  2  0  0  0
 17 18  1  0  0  0
 18 19  2  0  0  0
 19 20  1  0  0  0
  9 10  1  0  0  0
  9 11  1  0  0  0
M  CHG 1   4   1
M  CHG 1  15   1
M  END
> <minimizedAffinity>
-8.63083

$$$$
2WHP_HI6_A_1543


 20 21  0  0  0  0  0  0  0  0999 V2000
   37.3857   20.6516   10.0133 C   0  0  0  0  0  0  0  0  0  0  0  0
   37.2602   21.8281   10.7469 C   0  0  0  0  0  0  0  0  0  0  0  0
   36.1393   22.6269   10.5841 C   0  0  0  0  0  0  0  0  0  0  0  0
   35.1690   22.2781    9.7343 N   0  0  0  0  0  0  0  0  0  0  0  0
   35.2545   21.1402    9.0150 C   0  0  0  0  0  0  0  0  0  0  0  0
   36.3653   20.2972    9.1263 C   0  0  0  0  0  0  0  0  0  0  0  0
   39.0586   19.0893    9.3319 O   0  0  0  0  0  0  0  0  0  0  0  0
   38.6110   19.7907   10.2261 C   0  0  0  0  0  0  0  0  0  0  0  0
   39.1636   19.7868   11.4390 N   0  0  0  0  0  0  0  0  0  0  0  0
   39.9622   19.2384   11.6144 H   0  0  0  0  0  0  0  0  0  0  0  0
   38.7733   20.3324   12.1596 H   0  0  0  0  0  0  0  0  0  0  0  0
   33.9982   23.1446    9.5886 C   0  0  0  0  0  0  0  0  0  0  0  0
   33.3023   22.5916    8.4781 O   0  0  0  0  0  0  0  0  0  0  0  0
   31.9460   23.0001    8.3765 C   0  0  0  0  0  0  0  0  0  0  0  0
   31.2151   22.2890    9.4188 N   0  0  0  0  0  0  0  0  0  0  0  0
   30.5325   22.9895   10.3254 C   0  0  0  0  0  0  0  0  0  0  0  0
   29.8315   22.3112   11.3131 C   0  0  0  0  0  0  0  0  0  0  0  0
   29.8456   20.9167   11.3654 C   0  0  0  0  0  0  0  0  0  0  0  0
   30.5712   20.2214   10.4160 C   0  0  0  0  0  0  0  0  0  0  0  0
   31.2478   20.9504    9.4455 C   0  0  0  0  0  0  0  0  0  0  0  0
  7  8  2  0  0  0
  8  9  1  0  0  0
  8  1  1  0  0  0
  1  2  1  0  0  0
  1  6  2  0  0  0
  2  3  2  0  0  0
  3  4  1  0  0  0
  4  5  2  0  0  0
  4 12  1  0  0  0
  5  6  1  0  0  0
 12 13  1  0  0  0
 13 14  1  0  0  0
 14 15  1  0  0  0
 15 16  1  0  0  0
 15 20  2  0  0  0
 16 17  2  0  0  0
 17 18  1  0  0  0
 18 19  2  0  0  0
 19 20  1  0  0  0
  9 10  1  0  0  0
  9 11  1  0  0  0
M  CHG 1   4   1
M  CHG 1  15   1
M  END
> <minimizedAffinity>
-8.33169

$$$$
2WHP_HI6_A_1543


 20 21  0  0  0  0  0  0  0  0999 V2000
   29.5010   21.8503   12.7005 C   0  0  0  0  0  0  0  0  0  0  0  0
   29.7071   20.7089   11.9305 C   0  0  0  0  0  0  0  0  0  0  0  0
   30.3028   20.8157   10.6836 C   0  0  0  0  0  0  0  0  0  0  0  0
   30.6910   22.0036   10.2111 N   0  0  0  0  0  0  0  0  0  0  0  0
   30.5148   23.1280   10.9350 C   0  0  0  0  0  0  0  0  0  0  0  0
   29.9098   23.0878   12.1957 C   0  0  0  0  0  0  0  0  0  0  0  0
   27.6556   21.7695   14.2144 O   0  0  0  0  0  0  0  0  0  0  0  0
   28.8659   21.7004   14.0650 C   0  0  0  0  0  0  0  0  0  0  0  0
   29.6750   21.5342   15.1112 N   0  0  0  0  0  0  0  0  0  0  0  0
   29.2970   21.4333   16.0146 H   0  0  0  0  0  0  0  0  0  0  0  0
   30.6505   21.5125   14.9805 H   0  0  0  0  0  0  0  0  0  0  0  0
   31.3186   22.0794    8.8907 C   0  0  0  0  0  0  0  0  0  0  0  0
   32.6510   21.6384    9.1220 O   0  0  0  0  0  0  0  0  0  0  0  0
   33.6243   22.6716    9.0770 C   0  0  0  0  0  0  0  0  0  0  0  0
   34.8966   22.0651    9.4507 N   0  0  0  0  0  0  0  0  0  0  0  0
   35.2551   20.9108    8.8871 C   0  0  0  0  0  0  0  0  0  0  0  0
   36.4697   20.3378    9.2385 C   0  0  0  0  0  0  0  0  0  0  0  0
   37.3024   20.9531   10.1744 C   0  0  0  0  0  0  0  0  0  0  0  0
   36.8961   22.1442   10.7467 C   0  0  0  0  0  0  0  0  0  0  0  0
   35.6746   22.6771   10.3527 C   0  0  0  0  0  0  0  0  0  0  0  0
  7  8  2  0  0  0
  8  9  1  0  0  0
  8  1  1  0  0  0
  1  2  1  0  0  0
  1  6  2  0  0  0
  2  3  2  0  0  0
  3  4  1  0  0  0
  4  5  2  0  0  0
  4 12  1  0  0  0
  5  6  1  0  0  0
 12 13  1  0  0  0
 13 14  1  0  0  0
 14 15  1  0  0  0
 15 16  1  0  0  0
 15 20  2  0  0  0
 16 17  2  0  0  0
 17 18  1  0  0  0
 18 19  2  0  0  0
 19 20  1  0  0  0
  9 10  1  0  0  0
  9 11  1  0  0  0
M  CHG 1   4   1
M  CHG 1  15   1
M  END
> <minimizedAffinity>
-7.85800

$$$$
2WHP_HI6_A_1543


 20 21  0  0  0  0  0  0  0  0999 V2000
   29.0025   17.4359   12.2139 C   0  0  0  0  0  0  0  0  0  0  0  0
   30.1232   17.9247   11.5481 C   0  0  0  0  0  0  0  0  0  0  0  0
   30.3337   19.2920   11.4629 C   0  0  0  0  0  0  0  0  0  0  0  0
   29.4760   20.1516   12.0202 N   0  0  0  0  0  0  0  0  0  0  0  0
   28.3852   19.7116   12.6806 C   0  0  0  0  0  0  0  0  0  0  0  0
   28.1113   18.3443   12.7920 C   0  0  0  0  0  0  0  0  0  0  0  0
   29.0314   15.3320   13.3436 O   0  0  0  0  0  0  0  0  0  0  0  0
   28.8093   15.9387   12.3071 C   0  0  0  0  0  0  0  0  0  0  0  0
   28.4301   15.2921   11.2049 N   0  0  0  0  0  0  0  0  0  0  0  0
   28.2946   14.3173   11.2280 H   0  0  0  0  0  0  0  0  0  0  0  0
   28.2856   15.7894   10.3676 H   0  0  0  0  0  0  0  0  0  0  0  0
   29.7303   21.5893   11.9124 C   0  0  0  0  0  0  0  0  0  0  0  0
   30.6379   21.6930   10.8222 O   0  0  0  0  0  0  0  0  0  0  0  0
   30.1477   22.4484    9.7240 C   0  0  0  0  0  0  0  0  0  0  0  0
   30.9412   22.0630    8.5629 N   0  0  0  0  0  0  0  0  0  0  0  0
   32.0431   21.3339    8.7436 C   0  0  0  0  0  0  0  0  0  0  0  0
   32.7941   20.9617    7.6370 C   0  0  0  0  0  0  0  0  0  0  0  0
   32.4096   21.3505    6.3529 C   0  0  0  0  0  0  0  0  0  0  0  0
   31.2672   22.1143    6.2018 C   0  0  0  0  0  0  0  0  0  0  0  0
   30.5492   22.4517    7.3428 C   0  0  0  0  0  0  0  0  0  0  0  0
  7  8  2  0  0  0
  8  9  1  0  0  0
  8  1  1  0  0  0
  1  2  1  0  0  0
  1  6  2  0  0  0
  2  3  2  0  0  0
  3  4  1  0  0  0
  4  5  2  0  0  0
  4 12  1  0  0  0
  5  6  1  0  0  0
 12 13  1  0  0  0
 13 14  1  0  0  0
 14 15  1  0  0  0
 15 16  1  0  0  0
 15 20  2  0  0  0
 16 17  2  0  0  0
 17 18  1  0  0  0
 18 19  2  0  0  0
 19 20  1  0  0  0
  9 10  1  0  0  0
  9 11  1  0  0  0
M  CHG 1   4   1
M  CHG 1  15   1
M  END
> <minimizedAffinity>
-7.61573

$$$$
2WHP_HI6_A_1543


 20 21  0  0  0  0  0  0  0  0999 V2000
   29.2100   21.6465   15.1996 C   0  0  0  0  0  0  0  0  0  0  0  0
   29.1989   20.6559   16.1778 C   0  0  0  0  0  0  0  0  0  0  0  0
   28.1751   19.7220   16.2028 C   0  0  0  0  0  0  0  0  0  0  0  0
   27.1979   19.7544   15.2922 N   0  0  0  0  0  0  0  0  0  0  0  0
   27.1833   20.6948   14.3253 C   0  0  0  0  0  0  0  0  0  0  0  0
   28.1821   21.6716   14.2528 C   0  0  0  0  0  0  0  0  0  0  0  0
   30.1525   23.8370   15.3292 O   0  0  0  0  0  0  0  0  0  0  0  0
   30.3501   22.6402   15.1859 C   0  0  0  0  0  0  0  0  0  0  0  0
   31.5788   22.1722   14.9669 N   0  0  0  0  0  0  0  0  0  0  0  0
   32.3453   22.7898   14.9510 H   0  0  0  0  0  0  0  0  0  0  0  0
   31.7198   21.2088   14.8210 H   0  0  0  0  0  0  0  0  0  0  0  0
   26.1332   18.7512   15.3474 C   0  0  0  0  0  0  0  0  0  0  0  0
   26.3601   17.9512   14.1934 O   0  0  0  0  0  0  0  0  0  0  0  0
   27.2399   16.8567   14.4053 C   0  0  0  0  0  0  0  0  0  0  0  0
   28.0123   16.6966   13.1789 N   0  0  0  0  0  0  0  0  0  0  0  0
   28.6052   17.7637   12.6420 C   0  0  0  0  0  0  0  0  0  0  0  0
   29.3459   17.6089   11.4782 C   0  0  0  0  0  0  0  0  0  0  0  0
   29.4634   16.3579   10.8707 C   0  0  0  0  0  0  0  0  0  0  0  0
   28.8280   15.2743   11.4481 C   0  0  0  0  0  0  0  0  0  0  0  0
   28.1064   15.4846   12.6170 C   0  0  0  0  0  0  0  0  0  0  0  0
  7  8  2  0  0  0
  8  9  1  0  0  0
  8  1  1  0  0  0
  1  2  1  0  0  0
  1  6  2  0  0  0
  2  3  2  0  0  0
  3  4  1  0  0  0
  4  5  2  0  0  0
  4 12  1  0  0  0
  5  6  1  0  0  0
 12 13  1  0  0  0
 13 14  1  0  0  0
 14 15  1  0  0  0
 15 16  1  0  0  0
 15 20  2  0  0  0
 16 17  2  0  0  0
 17 18  1  0  0  0
 18 19  2  0  0  0
 19 20  1  0  0  0
  9 10  1  0  0  0
  9 11  1  0  0  0
M  CHG 1   4   1
M  CHG 1  15   1
M  END
> <minimizedAffinity>
-7.49165

$$$$
2WHP_HI6_A_1543


 20 21  0  0  0  0  0  0  0  0999 V2000
   27.5002   19.1327   14.3730 C   0  0  0  0  0  0  0  0  0  0  0  0
   27.3215   20.3938   14.9351 C   0  0  0  0  0  0  0  0  0  0  0  0
   28.1053   21.4556   14.5116 C   0  0  0  0  0  0  0  0  0  0  0  0
   29.0292   21.2869   13.5613 N   0  0  0  0  0  0  0  0  0  0  0  0
   29.2218   20.0806   12.9891 C   0  0  0  0  0  0  0  0  0  0  0  0
   28.4705   18.9674   13.3806 C   0  0  0  0  0  0  0  0  0  0  0  0
   27.0913   16.9340   15.2108 O   0  0  0  0  0  0  0  0  0  0  0  0
   26.6174   17.9975   14.8416 C   0  0  0  0  0  0  0  0  0  0  0  0
   25.2976   18.1785   14.7967 N   0  0  0  0  0  0  0  0  0  0  0  0
   24.6920   17.4613   15.0937 H   0  0  0  0  0  0  0  0  0  0  0  0
   24.9284   19.0293   14.4666 H   0  0  0  0  0  0  0  0  0  0  0  0
   29.8381   22.4308   13.1369 C   0  0  0  0  0  0  0  0  0  0  0  0
   30.2810   22.0692   11.8345 O   0  0  0  0  0  0  0  0  0  0  0  0
   29.7542   22.8782   10.7929 C   0  0  0  0  0  0  0  0  0  0  0  0
   30.7728   22.9355    9.7511 N   0  0  0  0  0  0  0  0  0  0  0  0
   31.9688   23.4496   10.0411 C   0  0  0  0  0  0  0  0  0  0  0  0
   32.9400   23.4974    9.0504 C   0  0  0  0  0  0  0  0  0  0  0  0
   32.6698   23.0237    7.7657 C   0  0  0  0  0  0  0  0  0  0  0  0
   31.4166   22.5060    7.4961 C   0  0  0  0  0  0  0  0  0  0  0  0
   30.4850   22.4752    8.5269 C   0  0  0  0  0  0  0  0  0  0  0  0
  7  8  2  0  0  0
  8  9  1  0  0  0
  8  1  1  0  0  0
  1  2  1  0  0  0
  1  6  2  0  0  0
  2  3  2  0  0  0
  3  4  1  0  0  0
  4  5  2  0  0  0
  4 12  1  0  0  0
  5  6  1  0  0  0
 12 13  1  0  0  0
 13 14  1  0  0  0
 14 15  1  0  0  0
 15 16  1  0  0  0
 15 20  2  0  0  0
 16 17  2  0  0  0
 17 18  1  0  0  0
 18 19  2  0  0  0
 19 20  1  0  0  0
  9 10  1  0  0  0
  9 11  1  0  0  0
M  CHG 1   4   1
M  CHG 1  15   1
M  END
> <minimizedAffinity>
-7.40926

$$$$
2WHP_HI6_A_1543


 20 21  0  0  0  0  0  0  0  0999 V2000
   29.9180   22.7745   13.9951 C   0  0  0  0  0  0  0  0  0  0  0  0
   29.7475   22.7187   12.6145 C   0  0  0  0  0  0  0  0  0  0  0  0
   29.9395   21.5214   11.9432 C   0  0  0  0  0  0  0  0  0  0  0  0
   30.2801   20.4128   12.6066 N   0  0  0  0  0  0  0  0  0  0  0  0
   30.4442   20.4297   13.9454 C   0  0  0  0  0  0  0  0  0  0  0  0
   30.2755   21.6091   14.6787 C   0  0  0  0  0  0  0  0  0  0  0  0
   28.9297   24.9346   14.2424 O   0  0  0  0  0  0  0  0  0  0  0  0
   29.6830   24.0905   14.7027 C   0  0  0  0  0  0  0  0  0  0  0  0
   30.3612   24.3203   15.8270 N   0  0  0  0  0  0  0  0  0  0  0  0
   30.2338   25.1660   16.3146 H   0  0  0  0  0  0  0  0  0  0  0  0
   30.9894   23.6442   16.1698 H   0  0  0  0  0  0  0  0  0  0  0  0
   30.4731   19.1649   11.8659 C   0  0  0  0  0  0  0  0  0  0  0  0
   29.7034   18.2155   12.5933 O   0  0  0  0  0  0  0  0  0  0  0  0
   28.3940   18.0109   12.0828 C   0  0  0  0  0  0  0  0  0  0  0  0
   27.4683   18.5206   13.0877 N   0  0  0  0  0  0  0  0  0  0  0  0
   27.2169   17.7841   14.1707 C   0  0  0  0  0  0  0  0  0  0  0  0
   26.3407   18.2732   15.1299 C   0  0  0  0  0  0  0  0  0  0  0  0
   25.7229   19.5135   14.9627 C   0  0  0  0  0  0  0  0  0  0  0  0
   25.9981   20.2471   13.8236 C   0  0  0  0  0  0  0  0  0  0  0  0
   26.8887   19.7132   12.9000 C   0  0  0  0  0  0  0  0  0  0  0  0
  7  8  2  0  0  0
  8  9  1  0  0  0
  8  1  1  0  0  0
  1  2  1  0  0  0
  1  6  2  0  0  0
  2  3  2  0  0  0
  3  4  1  0  0  0
  4  5  2  0  0  0
  4 12  1  0  0  0
  5  6  1  0  0  0
 12 13  1  0  0  0
 13 14  1  0  0  0
 14 15  1  0  0  0
 15 16  1  0  0  0
 15 20  2  0  0  0
 16 17  2  0  0  0
 17 18  1  0  0  0
 18 19  2  0  0  0
 19 20  1  0  0  0
  9 10  1  0  0  0
  9 11  1  0  0  0
M  CHG 1   4   1
M  CHG 1  15   1
M  END
> <minimizedAffinity>
-7.33094

$$$$
2WHP_HI6_A_1543


 20 21  0  0  0  0  0  0  0  0999 V2000
   29.8411   23.4617   14.3454 C   0  0  0  0  0  0  0  0  0  0  0  0
   30.0732   23.8568   13.0308 C   0  0  0  0  0  0  0  0  0  0  0  0
   29.9931   22.9268   12.0062 C   0  0  0  0  0  0  0  0  0  0  0  0
   29.6872   21.6517   12.2627 N   0  0  0  0  0  0  0  0  0  0  0  0
   29.4472   21.2374   13.5238 C   0  0  0  0  0  0  0  0  0  0  0  0
   29.5231   22.1251   14.6023 C   0  0  0  0  0  0  0  0  0  0  0  0
   30.6823   24.3783   16.3840 O   0  0  0  0  0  0  0  0  0  0  0  0
   29.9169   24.5025   15.4402 C   0  0  0  0  0  0  0  0  0  0  0  0
   29.0867   25.5427   15.3661 N   0  0  0  0  0  0  0  0  0  0  0  0
   29.1078   26.2398   16.0610 H   0  0  0  0  0  0  0  0  0  0  0  0
   28.4524   25.6139   14.6165 H   0  0  0  0  0  0  0  0  0  0  0  0
   29.6095   20.6966   11.1560 C   0  0  0  0  0  0  0  0  0  0  0  0
   30.2321   21.3786   10.0742 O   0  0  0  0  0  0  0  0  0  0  0  0
   31.3307   20.6846    9.5012 C   0  0  0  0  0  0  0  0  0  0  0  0
   31.8626   21.5401    8.4468 N   0  0  0  0  0  0  0  0  0  0  0  0
   31.8266   21.1118    7.1843 C   0  0  0  0  0  0  0  0  0  0  0  0
   32.3270   21.9298    6.1806 C   0  0  0  0  0  0  0  0  0  0  0  0
   32.8690   23.1793    6.4851 C   0  0  0  0  0  0  0  0  0  0  0  0
   32.8997   23.5886    7.8053 C   0  0  0  0  0  0  0  0  0  0  0  0
   32.3782   22.7334    8.7685 C   0  0  0  0  0  0  0  0  0  0  0  0
  7  8  2  0  0  0
  8  9  1  0  0  0
  8  1  1  0  0  0
  1  2  1  0  0  0
  1  6  2  0  0  0
  2  3  2  0  0  0
  3  4  1  0  0  0
  4  5  2  0  0  0
  4 12  1  0  0  0
  5  6  1  0  0  0
 12 13  1  0  0  0
 13 14  1  0  0  0
 14 15  1  0  0  0
 15 16  1  0  0  0
 15 20  2  0  0  0
 16 17  2  0  0  0
 17 18  1  0  0  0
 18 19  2  0  0  0
 19 20  1  0  0  0
  9 10  1  0  0  0
  9 11  1  0  0  0
M  CHG 1   4   1
M  CHG 1  15   1
M  END
> <minimizedAffinity>
-7.21567

$$$$
2WHP_HI6_A_1543


 20 21  0  0  0  0  0  0  0  0999 V2000
   31.2830   21.9467    9.2156 C   0  0  0  0  0  0  0  0  0  0  0  0
   30.5854   22.8437   10.0201 C   0  0  0  0  0  0  0  0  0  0  0  0
   29.9024   22.3839   11.1350 C   0  0  0  0  0  0  0  0  0  0  0  0
   29.9105   21.0866   11.4547 N   0  0  0  0  0  0  0  0  0  0  0  0
   30.5838   20.1921   10.7023 C   0  0  0  0  0  0  0  0  0  0  0  0
   31.2835   20.5918    9.5587 C   0  0  0  0  0  0  0  0  0  0  0  0
   32.0027   21.9061    6.9388 O   0  0  0  0  0  0  0  0  0  0  0  0
   32.0345   22.4803    8.0164 C   0  0  0  0  0  0  0  0  0  0  0  0
   32.7724   23.5776    8.1843 N   0  0  0  0  0  0  0  0  0  0  0  0
   33.2753   23.9534    7.4259 H   0  0  0  0  0  0  0  0  0  0  0  0
   32.8145   24.0122    9.0666 H   0  0  0  0  0  0  0  0  0  0  0  0
   29.1797   20.6360   12.6404 C   0  0  0  0  0  0  0  0  0  0  0  0
   28.7640   21.8452   13.2633 O   0  0  0  0  0  0  0  0  0  0  0  0
   28.4710   21.7186   14.6471 C   0  0  0  0  0  0  0  0  0  0  0  0
   27.4350   20.6991   14.7644 N   0  0  0  0  0  0  0  0  0  0  0  0
   26.2689   20.8854   14.1448 C   0  0  0  0  0  0  0  0  0  0  0  0
   25.2858   19.9111   14.2515 C   0  0  0  0  0  0  0  0  0  0  0  0
   25.5075   18.7560   15.0028 C   0  0  0  0  0  0  0  0  0  0  0  0
   26.7242   18.5988   15.6404 C   0  0  0  0  0  0  0  0  0  0  0  0
   27.6750   19.6016   15.4934 C   0  0  0  0  0  0  0  0  0  0  0  0
  7  8  2  0  0  0
  8  9  1  0  0  0
  8  1  1  0  0  0
  1  2  1  0  0  0
  1  6  2  0  0  0
  2  3  2  0  0  0
  3  4  1  0  0  0
  4  5  2  0  0  0
  4 12  1  0  0  0
  5  6  1  0  0  0
 12 13  1  0  0  0
 13 14  1  0  0  0
 14 15  1  0  0  0
 15 16  1  0  0  0
 15 20  2  0  0  0
 16 17  2  0  0  0
 17 18  1  0  0  0
 18 19  2  0  0  0
 19 20  1  0  0  0
  9 10  1  0  0  0
  9 11  1  0  0  0
M  CHG 1   4   1
M  CHG 1  15   1
M  END
> <minimizedAffinity>
-7.14882

$$$$
2WHP_HI6_A_1543


 20 21  0  0  0  0  0  0  0  0999 V2000
   27.2768   19.3364   15.3903 C   0  0  0  0  0  0  0  0  0  0  0  0
   26.7887   20.2776   14.4880 C   0  0  0  0  0  0  0  0  0  0  0  0
   27.4645   21.4739   14.3053 C   0  0  0  0  0  0  0  0  0  0  0  0
   28.5875   21.7346   14.9806 N   0  0  0  0  0  0  0  0  0  0  0  0
   29.0928   20.8409   15.8555 C   0  0  0  0  0  0  0  0  0  0  0  0
   28.4516   19.6203   16.0922 C   0  0  0  0  0  0  0  0  0  0  0  0
   25.6784   17.8914   16.4201 O   0  0  0  0  0  0  0  0  0  0  0  0
   26.5285   18.0323   15.5545 C   0  0  0  0  0  0  0  0  0  0  0  0
   26.8586   17.0219   14.7503 N   0  0  0  0  0  0  0  0  0  0  0  0
   26.3929   16.1581   14.8285 H   0  0  0  0  0  0  0  0  0  0  0  0
   27.5683   17.1394   14.0781 H   0  0  0  0  0  0  0  0  0  0  0  0
   29.2764   23.0076   14.7616 C   0  0  0  0  0  0  0  0  0  0  0  0
   30.1610   22.7338   13.6820 O   0  0  0  0  0  0  0  0  0  0  0  0
   29.8673   23.4489   12.4906 C   0  0  0  0  0  0  0  0  0  0  0  0
   30.2648   22.5925   11.3793 N   0  0  0  0  0  0  0  0  0  0  0  0
   30.0682   21.2767   11.4721 C   0  0  0  0  0  0  0  0  0  0  0  0
   30.4407   20.4631   10.4108 C   0  0  0  0  0  0  0  0  0  0  0  0
   31.0211   21.0094    9.2652 C   0  0  0  0  0  0  0  0  0  0  0  0
   31.2197   22.3763    9.2056 C   0  0  0  0  0  0  0  0  0  0  0  0
   30.8210   23.1440   10.2931 C   0  0  0  0  0  0  0  0  0  0  0  0
  7  8  2  0  0  0
  8  9  1  0  0  0
  8  1  1  0  0  0
  1  2  1  0  0  0
  1  6  2  0  0  0
  2  3  2  0  0  0
  3  4  1  0  0  0
  4  5  2  0  0  0
  4 12  1  0  0  0
  5  6  1  0  0  0
 12 13  1  0  0  0
 13 14  1  0  0  0
 14 15  1  0  0  0
 15 16  1  0  0  0
 15 20  2  0  0  0
 16 17  2  0  0  0
 17 18  1  0  0  0
 18 19  2  0  0  0
 19 20  1  0  0  0
  9 10  1  0  0  0
  9 11  1  0  0  0
M  CHG 1   4   1
M  CHG 1  15   1
M  END
> <minimizedAffinity>
-7.01958

$$$$
