2WHP_HI6_A_1543
  RCSB PDB12061707153D
Coordinates from PDB:2WHP:A:1543 Model:1 without hydrogens
 18 19  0  0  0  0            999 V2000
   38.2140   18.7180    9.4850   O 0  0  0  0  0  0  0  0  0  0  0  0
   38.2310   19.7890   10.0720   C 0  0  0  0  0  0  0  0  0  0  0  0
   39.1910   20.0700   10.9530   N 0  0  0  0  0  0  0  0  0  0  0  0
   37.1420   20.8180    9.8650   C 0  0  0  0  0  0  0  0  0  0  0  0
   37.1480   21.9650   10.6540   C 0  0  0  0  0  0  0  0  0  0  0  0
   36.1520   22.9160   10.4970   C 0  0  0  0  0  0  0  0  0  0  0  0
   35.1770   22.7430    9.6000   N 0  3  0  0  0  0  0  0  0  0  0  0
   35.1360   21.6390    8.8260   C 0  0  0  0  0  0  0  0  0  0  0  0
   36.1180   20.6480    8.9290   C 0  0  0  0  0  0  0  0  0  0  0  0
   34.1400   23.7670    9.4620   C 0  0  0  0  0  0  0  0  0  0  0  0
   32.9780   23.0280    9.1060   O 0  0  0  0  0  0  0  0  0  0  0  0
   31.7830   23.7950    9.0810   C 0  0  0  0  0  0  0  0  0  0  0  0
   30.9410   23.2940   10.1610   N 0  3  0  0  0  0  0  0  0  0  0  0
   30.2010   22.2040    9.9540   C 0  0  0  0  0  0  0  0  0  0  0  0
   29.4050   21.7240   10.9850   C 0  0  0  0  0  0  0  0  0  0  0  0
   29.3700   22.3750   12.2190   C 0  0  0  0  0  0  0  0  0  0  0  0
   30.1420   23.5080   12.3970   C 0  0  0  0  0  0  0  0  0  0  0  0
   30.9260   23.9400   11.3340   C 0  0  0  0  0  0  0  0  0  0  0  0
  1  2  2  0  0  0  0
  2  3  1  0  0  0  0
  2  4  1  0  0  0  0
  4  5  1  0  0  0  0
  4  9  2  0  0  0  0
  5  6  2  0  0  0  0
  6  7  1  0  0  0  0
  7  8  2  0  0  0  0
  7 10  1  0  0  0  0
  8  9  1  0  0  0  0
 10 11  1  0  0  0  0
 11 12  1  0  0  0  0
 12 13  1  0  0  0  0
 13 14  1  0  0  0  0
 13 18  2  0  0  0  0
 14 15  2  0  0  0  0
 15 16  1  0  0  0  0
 16 17  2  0  0  0  0
 17 18  1  0  0  0  0
M  CHG  2   7   1  13   1
A    1
O3
A    2
C14
A    3
N4
A    4
C11
A    5
C10
A    6
C9
A    7
N3
A    8
C13
A    9
C12
A   10
C8
A   11
O2
A   12
C7
A   13
N2
A   14
C2
A   15
C3
A   16
C4
A   17
C5
A   18
C6
M  END
>  <InstanceId>
2WHP_HI6_A_1543

>  <ChemCompId>
HI6

>  <PdbId>
2WHP

>  <ChainId>
A

>  <ResidueNumber>
1543

>  <InsertionCode>


>  <Model>
1

>  <AltIds>


>  <MissingHeavyAtoms>
3

>  <ObservedFormula>
C13 N3 O2

>  <Name>
4-(AMINOCARBONYL)-1-[({2-[(E)-(HYDROXYIMINO)METHYL]PYRIDINIUM-1-YL}METHOXY)METHYL]PYRIDINIUM

>  <SystematicName>
1-[[2-[(E)-hydroxyiminomethyl]pyridin-1-ium-1-yl]methoxymethyl]pyridin-1-ium-4-carboxamide

>  <Synonyms>
1-(2-HYDROXY-IMINOMETHYLPYRIDINIUM)-1-(4-CARBOXYAMINO)-PYRIDINIUM DIMETHYLETHER

>  <Type>
NON-POLYMER

>  <Formula>
C14 H16 N4 O3

>  <MolecularWeight>
288.302

>  <ModifiedDate>
2011-06-04

>  <Parent>


>  <OneLetterCode>


>  <SubcomponentList>


>  <AmbiguousFlag>


>  <InChI>
InChI=1S/C14H14N4O3/c15-14(19)12-4-7-17(8-5-12)10-21-11-18-6-2-1-3-13(18)9-16-20/h1-9H,10-11H2,(H-,15,19)/p+2

>  <InChIKey>
FJZDLOMCEPUCII-UHFFFAOYSA-P

>  <SMILES>
c1cc[n+](c(c1)\C=N\O)COC[n+]2ccc(cc2)C(=O)N

$$$$
