4EFS_E37_A_306


 33 35  0  0  0  0  0  0  0  0999 V2000
   -7.6436  -24.7758    4.5982 C   0  0  0  0  0  0  0  0  0  0  0  0
   -6.3665  -25.1054    4.1751 C   0  0  0  0  0  0  0  0  0  0  0  0
   -5.2659  -24.4687    4.7395 C   0  0  0  0  0  0  0  0  0  0  0  0
   -5.4411  -23.4898    5.6973 C   0  0  0  0  0  0  0  0  0  0  0  0
   -6.7096  -23.2004    6.1553 C   0  0  0  0  0  0  0  0  0  0  0  0
   -7.8036  -23.8307    5.5900 C   0  0  0  0  0  0  0  0  0  0  0  0
   -4.3505  -22.9205    6.3202 C   0  0  0  0  0  0  0  0  0  0  0  0
   -3.0224  -23.3279    6.1024 C   0  0  0  0  0  0  0  0  0  0  0  0
   -2.0264  -22.5140    7.1124 C   0  0  0  0  0  0  0  0  0  0  0  0
   -2.7819  -21.6837    7.9519 C   0  0  0  0  0  0  0  0  0  0  0  0
   -4.3908  -21.8427    7.5687 S   0  0  0  0  0  0  0  0  0  0  0  0
   -0.5248  -22.6877    7.1479 C   0  0  0  0  0  0  0  0  0  0  0  0
    0.0108  -23.8452    6.7083 C   0  0  0  0  0  0  0  0  0  0  0  0
    1.4169  -23.9531    6.7353 C   0  0  0  0  0  0  0  0  0  0  0  0
    2.1900  -22.8441    7.2083 C   0  0  0  0  0  0  0  0  0  0  0  0
    1.5287  -21.6656    7.6215 C   0  0  0  0  0  0  0  0  0  0  0  0
    0.1805  -21.6680    7.5559 C   0  0  0  0  0  0  0  0  0  0  0  0
   -8.7079  -26.6766    3.2804 N   0  0  0  0  0  0  0  0  0  0  0  0
   -8.8504  -25.4826    4.0391 C   0  0  0  0  0  0  0  0  0  0  0  0
   -9.9597  -25.0916    4.2854 O   0  0  0  0  0  0  0  0  0  0  0  0
   -7.8159  -27.0431    3.0824 H   0  0  0  0  0  0  0  0  0  0  0  0
   -9.9011  -27.3409    2.8061 C   0  0  0  0  0  0  0  0  0  0  0  0
  -10.8053  -29.5398    2.9878 O   0  0  0  0  0  0  0  0  0  0  0  0
  -10.0736  -28.7065    3.4549 C   0  0  0  0  0  0  0  0  0  0  0  0
   -9.3745  -29.0346    4.6510 N   0  0  0  0  0  0  0  0  0  0  0  0
   -9.4929  -29.9208    5.0630 H   0  0  0  0  0  0  0  0  0  0  0  0
   -8.7727  -28.3752    5.0660 H   0  0  0  0  0  0  0  0  0  0  0  0
   -9.7931  -27.4154    1.3154 C   0  0  0  0  0  0  0  0  0  0  0  0
  -10.4332  -26.1931    0.7117 C   0  0  0  0  0  0  0  0  0  0  0  0
   -9.4453  -25.0884    0.4376 C   0  0  0  0  0  0  0  0  0  0  0  0
  -10.0239  -23.9982    0.3475 O   0  0  0  0  0  0  0  0  0  0  0  0
   -8.3051  -25.5308    0.3779 O   0  0  0  0  0  0  0  0  0  0  0  0
  -10.9552  -23.9530    0.4403 H   0  0  0  0  0  0  0  0  0  0  0  0
 32 30  2  0  0  0
 30 29  1  0  0  0
 30 31  1  0  0  0
 29 28  1  0  0  0
 28 22  1  0  0  0
 23 24  2  0  0  0
 22 24  1  0  0  0
 22 18  1  0  0  0
 24 25  1  0  0  0
 18 19  1  0  0  0
 19 20  2  0  0  0
 19  1  1  0  0  0
  2  1  2  0  0  0
  2  3  1  0  0  0
  1  6  1  0  0  0
  3  4  2  0  0  0
  6  5  2  0  0  0
  4  5  1  0  0  0
  4  7  1  0  0  0
  8  7  2  0  0  0
  8  9  1  0  0  0
  7 11  1  0  0  0
 16 17  2  0  0  0
 16 15  1  0  0  0
 17 12  1  0  0  0
  9 12  1  0  0  0
  9 10  2  0  0  0
 12 13  2  0  0  0
 15 14  2  0  0  0
 11 10  1  0  0  0
 13 14  1  0  0  0
 25 26  1  0  0  0
 25 27  1  0  0  0
 31 33  1  0  0  0
 18 21  1  0  0  0
M  END
> <minimizedAffinity>
-11.06814

$$$$
4EFS_E37_A_306


 33 35  0  0  0  0  0  0  0  0999 V2000
   -7.7246  -24.6153    4.5891 C   0  0  0  0  0  0  0  0  0  0  0  0
   -6.4636  -25.0689    4.2388 C   0  0  0  0  0  0  0  0  0  0  0  0
   -5.3363  -24.4782    4.8005 C   0  0  0  0  0  0  0  0  0  0  0  0
   -5.4668  -23.4237    5.6822 C   0  0  0  0  0  0  0  0  0  0  0  0
   -6.7235  -23.0083    6.0703 C   0  0  0  0  0  0  0  0  0  0  0  0
   -7.8438  -23.5932    5.5075 C   0  0  0  0  0  0  0  0  0  0  0  0
   -4.3566  -22.8951    6.3064 C   0  0  0  0  0  0  0  0  0  0  0  0
   -3.0380  -23.3039    6.0389 C   0  0  0  0  0  0  0  0  0  0  0  0
   -2.0112  -22.5489    7.0635 C   0  0  0  0  0  0  0  0  0  0  0  0
   -2.7389  -21.7529    7.9590 C   0  0  0  0  0  0  0  0  0  0  0  0
   -4.3576  -21.8783    7.6057 S   0  0  0  0  0  0  0  0  0  0  0  0
   -0.5110  -22.7380    7.0562 C   0  0  0  0  0  0  0  0  0  0  0  0
    0.2764  -21.7425    7.5134 C   0  0  0  0  0  0  0  0  0  0  0  0
    1.6680  -21.9728    7.5124 C   0  0  0  0  0  0  0  0  0  0  0  0
    2.1635  -23.2328    7.0457 C   0  0  0  0  0  0  0  0  0  0  0  0
    1.2486  -24.2188    6.6125 C   0  0  0  0  0  0  0  0  0  0  0  0
   -0.0613  -23.8953    6.6538 C   0  0  0  0  0  0  0  0  0  0  0  0
   -8.8688  -26.3994    3.1783 N   0  0  0  0  0  0  0  0  0  0  0  0
   -8.9634  -25.2674    4.0333 C   0  0  0  0  0  0  0  0  0  0  0  0
  -10.0559  -24.8888    4.3606 O   0  0  0  0  0  0  0  0  0  0  0  0
   -7.9908  -26.7558    2.9111 H   0  0  0  0  0  0  0  0  0  0  0  0
  -10.0895  -27.0158    2.7096 C   0  0  0  0  0  0  0  0  0  0  0  0
  -10.6559  -29.3100    2.3908 O   0  0  0  0  0  0  0  0  0  0  0  0
  -10.1633  -28.4817    3.1114 C   0  0  0  0  0  0  0  0  0  0  0  0
   -9.6555  -28.9153    4.3687 N   0  0  0  0  0  0  0  0  0  0  0  0
   -9.7079  -29.8659    4.6194 H   0  0  0  0  0  0  0  0  0  0  0  0
   -9.2520  -28.2645    4.9875 H   0  0  0  0  0  0  0  0  0  0  0  0
  -10.1351  -26.8167    1.2271 C   0  0  0  0  0  0  0  0  0  0  0  0
   -8.7282  -26.7331    0.6961 C   0  0  0  0  0  0  0  0  0  0  0  0
   -8.2484  -28.0312    0.0994 C   0  0  0  0  0  0  0  0  0  0  0  0
   -7.3478  -28.5228    0.7914 O   0  0  0  0  0  0  0  0  0  0  0  0
   -8.8692  -28.2948   -0.9225 O   0  0  0  0  0  0  0  0  0  0  0  0
   -7.0547  -28.0791    1.5629 H   0  0  0  0  0  0  0  0  0  0  0  0
 32 30  2  0  0  0
 30 29  1  0  0  0
 30 31  1  0  0  0
 29 28  1  0  0  0
 28 22  1  0  0  0
 23 24  2  0  0  0
 22 24  1  0  0  0
 22 18  1  0  0  0
 24 25  1  0  0  0
 18 19  1  0  0  0
 19 20  2  0  0  0
 19  1  1  0  0  0
  2  1  2  0  0  0
  2  3  1  0  0  0
  1  6  1  0  0  0
  3  4  2  0  0  0
  6  5  2  0  0  0
  4  5  1  0  0  0
  4  7  1  0  0  0
  8  7  2  0  0  0
  8  9  1  0  0  0
  7 11  1  0  0  0
 16 17  2  0  0  0
 16 15  1  0  0  0
 17 12  1  0  0  0
  9 12  1  0  0  0
  9 10  2  0  0  0
 12 13  2  0  0  0
 15 14  2  0  0  0
 11 10  1  0  0  0
 13 14  1  0  0  0
 25 26  1  0  0  0
 25 27  1  0  0  0
 31 33  1  0  0  0
 18 21  1  0  0  0
M  END
> <minimizedAffinity>
-10.45741

$$$$
4EFS_E37_A_306


 33 35  0  0  0  0  0  0  0  0999 V2000
   -7.6826  -24.7234    4.4955 C   0  0  0  0  0  0  0  0  0  0  0  0
   -6.4018  -25.1208    4.1489 C   0  0  0  0  0  0  0  0  0  0  0  0
   -5.3035  -24.5050    4.7404 C   0  0  0  0  0  0  0  0  0  0  0  0
   -5.4829  -23.4805    5.6484 C   0  0  0  0  0  0  0  0  0  0  0  0
   -6.7584  -23.1221    6.0320 C   0  0  0  0  0  0  0  0  0  0  0  0
   -7.8498  -23.7318    5.4396 C   0  0  0  0  0  0  0  0  0  0  0  0
   -4.4002  -22.9291    6.3005 C   0  0  0  0  0  0  0  0  0  0  0  0
   -3.0685  -23.3232    6.0801 C   0  0  0  0  0  0  0  0  0  0  0  0
   -2.0848  -22.5414    7.1268 C   0  0  0  0  0  0  0  0  0  0  0  0
   -2.8510  -21.7442    7.9884 C   0  0  0  0  0  0  0  0  0  0  0  0
   -4.4558  -21.8961    7.5857 S   0  0  0  0  0  0  0  0  0  0  0  0
   -0.5827  -22.7102    7.1694 C   0  0  0  0  0  0  0  0  0  0  0  0
   -0.0410  -23.8639    6.7274 C   0  0  0  0  0  0  0  0  0  0  0  0
    1.3654  -23.9671    6.7612 C   0  0  0  0  0  0  0  0  0  0  0  0
    2.1322  -22.8577    7.2432 C   0  0  0  0  0  0  0  0  0  0  0  0
    1.4648  -21.6833    7.6582 C   0  0  0  0  0  0  0  0  0  0  0  0
    0.1169  -21.6900    7.5856 C   0  0  0  0  0  0  0  0  0  0  0  0
   -8.7452  -26.4143    2.9163 N   0  0  0  0  0  0  0  0  0  0  0  0
   -8.8900  -25.4048    3.9070 C   0  0  0  0  0  0  0  0  0  0  0  0
   -9.9932  -25.1603    4.3160 O   0  0  0  0  0  0  0  0  0  0  0  0
   -7.8548  -26.6619    2.5770 H   0  0  0  0  0  0  0  0  0  0  0  0
   -9.9337  -27.0693    2.4179 C   0  0  0  0  0  0  0  0  0  0  0  0
   -8.8845  -29.0406    1.5817 O   0  0  0  0  0  0  0  0  0  0  0  0
   -9.7318  -28.5727    2.2967 C   0  0  0  0  0  0  0  0  0  0  0  0
  -10.5559  -29.4761    3.0257 N   0  0  0  0  0  0  0  0  0  0  0  0
  -10.4173  -30.4471    2.9405 H   0  0  0  0  0  0  0  0  0  0  0  0
  -11.2644  -29.1299    3.6150 H   0  0  0  0  0  0  0  0  0  0  0  0
  -10.2713  -26.4214    1.1119 C   0  0  0  0  0  0  0  0  0  0  0  0
  -11.5549  -27.0083    0.5861 C   0  0  0  0  0  0  0  0  0  0  0  0
  -11.7709  -26.7284   -0.8790 C   0  0  0  0  0  0  0  0  0  0  0  0
  -10.6893  -26.5468   -1.4524 O   0  0  0  0  0  0  0  0  0  0  0  0
  -12.9635  -26.7556   -1.1549 O   0  0  0  0  0  0  0  0  0  0  0  0
   -9.8891  -26.5859   -0.9665 H   0  0  0  0  0  0  0  0  0  0  0  0
 32 30  2  0  0  0
 30 29  1  0  0  0
 30 31  1  0  0  0
 29 28  1  0  0  0
 28 22  1  0  0  0
 23 24  2  0  0  0
 22 24  1  0  0  0
 22 18  1  0  0  0
 24 25  1  0  0  0
 18 19  1  0  0  0
 19 20  2  0  0  0
 19  1  1  0  0  0
  2  1  2  0  0  0
  2  3  1  0  0  0
  1  6  1  0  0  0
  3  4  2  0  0  0
  6  5  2  0  0  0
  4  5  1  0  0  0
  4  7  1  0  0  0
  8  7  2  0  0  0
  8  9  1  0  0  0
  7 11  1  0  0  0
 16 17  2  0  0  0
 16 15  1  0  0  0
 17 12  1  0  0  0
  9 12  1  0  0  0
  9 10  2  0  0  0
 12 13  2  0  0  0
 15 14  2  0  0  0
 11 10  1  0  0  0
 13 14  1  0  0  0
 25 26  1  0  0  0
 25 27  1  0  0  0
 31 33  1  0  0  0
 18 21  1  0  0  0
M  END
> <minimizedAffinity>
-9.95272

$$$$
4EFS_E37_A_306


 33 35  0  0  0  0  0  0  0  0999 V2000
   -6.9226  -24.8545    4.7136 C   0  0  0  0  0  0  0  0  0  0  0  0
   -5.6301  -25.0152    4.2419 C   0  0  0  0  0  0  0  0  0  0  0  0
   -4.5876  -24.3040    4.8274 C   0  0  0  0  0  0  0  0  0  0  0  0
   -4.8385  -23.4176    5.8559 C   0  0  0  0  0  0  0  0  0  0  0  0
   -6.1172  -23.2983    6.3593 C   0  0  0  0  0  0  0  0  0  0  0  0
   -7.1538  -24.0024    5.7732 C   0  0  0  0  0  0  0  0  0  0  0  0
   -3.7972  -22.7784    6.4951 C   0  0  0  0  0  0  0  0  0  0  0  0
   -2.4426  -23.1038    6.3046 C   0  0  0  0  0  0  0  0  0  0  0  0
   -1.5181  -22.2243    7.3275 C   0  0  0  0  0  0  0  0  0  0  0  0
   -2.3393  -21.4379    8.1475 C   0  0  0  0  0  0  0  0  0  0  0  0
   -3.9277  -21.6985    7.7356 S   0  0  0  0  0  0  0  0  0  0  0  0
   -0.0096  -22.3042    7.3920 C   0  0  0  0  0  0  0  0  0  0  0  0
    0.6095  -23.3972    6.9000 C   0  0  0  0  0  0  0  0  0  0  0  0
    2.0187  -23.4172    6.9573 C   0  0  0  0  0  0  0  0  0  0  0  0
    2.7076  -22.2917    7.5139 C   0  0  0  0  0  0  0  0  0  0  0  0
    1.9623  -21.1842    7.9774 C   0  0  0  0  0  0  0  0  0  0  0  0
    0.6188  -21.2681    7.8768 C   0  0  0  0  0  0  0  0  0  0  0  0
   -7.8167  -26.7483    3.2656 N   0  0  0  0  0  0  0  0  0  0  0  0
   -8.0630  -25.6470    4.1305 C   0  0  0  0  0  0  0  0  0  0  0  0
   -9.1987  -25.4094    4.4432 O   0  0  0  0  0  0  0  0  0  0  0  0
   -6.8976  -26.9909    3.0096 H   0  0  0  0  0  0  0  0  0  0  0  0
   -8.9451  -27.5042    2.7703 C   0  0  0  0  0  0  0  0  0  0  0  0
   -9.6501  -26.1058    0.9722 O   0  0  0  0  0  0  0  0  0  0  0  0
   -9.9295  -26.6130    2.0271 C   0  0  0  0  0  0  0  0  0  0  0  0
  -11.2174  -26.3439    2.5709 N   0  0  0  0  0  0  0  0  0  0  0  0
  -11.8471  -25.7660    2.0823 H   0  0  0  0  0  0  0  0  0  0  0  0
  -11.4783  -26.7357    3.4356 H   0  0  0  0  0  0  0  0  0  0  0  0
   -9.5591  -28.1908    3.9497 C   0  0  0  0  0  0  0  0  0  0  0  0
   -8.6458  -29.2971    4.4083 C   0  0  0  0  0  0  0  0  0  0  0  0
   -8.1700  -29.1147    5.8267 C   0  0  0  0  0  0  0  0  0  0  0  0
   -8.9171  -29.7055    6.6168 O   0  0  0  0  0  0  0  0  0  0  0  0
   -7.1534  -28.4329    5.8592 O   0  0  0  0  0  0  0  0  0  0  0  0
   -9.6630  -30.1730    6.2957 H   0  0  0  0  0  0  0  0  0  0  0  0
 32 30  2  0  0  0
 30 29  1  0  0  0
 30 31  1  0  0  0
 29 28  1  0  0  0
 28 22  1  0  0  0
 23 24  2  0  0  0
 22 24  1  0  0  0
 22 18  1  0  0  0
 24 25  1  0  0  0
 18 19  1  0  0  0
 19 20  2  0  0  0
 19  1  1  0  0  0
  2  1  2  0  0  0
  2  3  1  0  0  0
  1  6  1  0  0  0
  3  4  2  0  0  0
  6  5  2  0  0  0
  4  5  1  0  0  0
  4  7  1  0  0  0
  8  7  2  0  0  0
  8  9  1  0  0  0
  7 11  1  0  0  0
 16 17  2  0  0  0
 16 15  1  0  0  0
 17 12  1  0  0  0
  9 12  1  0  0  0
  9 10  2  0  0  0
 12 13  2  0  0  0
 15 14  2  0  0  0
 11 10  1  0  0  0
 13 14  1  0  0  0
 25 26  1  0  0  0
 25 27  1  0  0  0
 31 33  1  0  0  0
 18 21  1  0  0  0
M  END
> <minimizedAffinity>
-9.56675

$$$$
4EFS_E37_A_306


 33 35  0  0  0  0  0  0  0  0999 V2000
   -4.1567  -23.3548    6.1730 C   0  0  0  0  0  0  0  0  0  0  0  0
   -3.2849  -23.9263    5.2609 C   0  0  0  0  0  0  0  0  0  0  0  0
   -1.9147  -23.8901    5.4987 C   0  0  0  0  0  0  0  0  0  0  0  0
   -1.4179  -23.2623    6.6236 C   0  0  0  0  0  0  0  0  0  0  0  0
   -2.2894  -22.7405    7.5568 C   0  0  0  0  0  0  0  0  0  0  0  0
   -3.6515  -22.7728    7.3169 C   0  0  0  0  0  0  0  0  0  0  0  0
   -0.0686  -23.3015    6.9055 C   0  0  0  0  0  0  0  0  0  0  0  0
    0.6393  -22.2412    7.4987 C   0  0  0  0  0  0  0  0  0  0  0  0
    2.2324  -22.6070    7.5515 C   0  0  0  0  0  0  0  0  0  0  0  0
    2.4520  -23.8475    6.9369 C   0  0  0  0  0  0  0  0  0  0  0  0
    0.9980  -24.4623    6.4186 S   0  0  0  0  0  0  0  0  0  0  0  0
    3.2934  -21.7022    8.1362 C   0  0  0  0  0  0  0  0  0  0  0  0
    3.0768  -20.3709    8.1616 C   0  0  0  0  0  0  0  0  0  0  0  0
    4.0820  -19.5679    8.7400 C   0  0  0  0  0  0  0  0  0  0  0  0
    5.2538  -20.1967    9.2712 C   0  0  0  0  0  0  0  0  0  0  0  0
    5.3687  -21.6041    9.2175 C   0  0  0  0  0  0  0  0  0  0  0  0
    4.3500  -22.2775    8.6423 C   0  0  0  0  0  0  0  0  0  0  0  0
   -6.2334  -24.4931    5.2381 N   0  0  0  0  0  0  0  0  0  0  0  0
   -5.6470  -23.4211    5.9650 C   0  0  0  0  0  0  0  0  0  0  0  0
   -6.3742  -22.6094    6.4714 O   0  0  0  0  0  0  0  0  0  0  0  0
   -5.6715  -25.1926    4.8328 H   0  0  0  0  0  0  0  0  0  0  0  0
   -7.6725  -24.5340    5.1071 C   0  0  0  0  0  0  0  0  0  0  0  0
   -7.5193  -26.8332    5.7201 O   0  0  0  0  0  0  0  0  0  0  0  0
   -8.2083  -25.9468    5.2871 C   0  0  0  0  0  0  0  0  0  0  0  0
   -9.5507  -26.2637    4.9342 N   0  0  0  0  0  0  0  0  0  0  0  0
   -9.8879  -27.1808    5.0545 H   0  0  0  0  0  0  0  0  0  0  0  0
  -10.1417  -25.5657    4.5699 H   0  0  0  0  0  0  0  0  0  0  0  0
   -8.0032  -23.9535    3.7680 C   0  0  0  0  0  0  0  0  0  0  0  0
   -7.7465  -24.9879    2.7037 C   0  0  0  0  0  0  0  0  0  0  0  0
   -8.8647  -25.0844    1.6979 C   0  0  0  0  0  0  0  0  0  0  0  0
   -8.7760  -24.1789    0.8590 O   0  0  0  0  0  0  0  0  0  0  0  0
   -9.5893  -26.0400    1.9448 O   0  0  0  0  0  0  0  0  0  0  0  0
   -8.0822  -23.5520    0.9179 H   0  0  0  0  0  0  0  0  0  0  0  0
 32 30  2  0  0  0
 30 29  1  0  0  0
 30 31  1  0  0  0
 29 28  1  0  0  0
 28 22  1  0  0  0
 23 24  2  0  0  0
 22 24  1  0  0  0
 22 18  1  0  0  0
 24 25  1  0  0  0
 18 19  1  0  0  0
 19 20  2  0  0  0
 19  1  1  0  0  0
  2  1  2  0  0  0
  2  3  1  0  0  0
  1  6  1  0  0  0
  3  4  2  0  0  0
  6  5  2  0  0  0
  4  5  1  0  0  0
  4  7  1  0  0  0
  8  7  2  0  0  0
  8  9  1  0  0  0
  7 11  1  0  0  0
 16 17  2  0  0  0
 16 15  1  0  0  0
 17 12  1  0  0  0
  9 12  1  0  0  0
  9 10  2  0  0  0
 12 13  2  0  0  0
 15 14  2  0  0  0
 11 10  1  0  0  0
 13 14  1  0  0  0
 25 26  1  0  0  0
 25 27  1  0  0  0
 31 33  1  0  0  0
 18 21  1  0  0  0
M  END
> <minimizedAffinity>
-9.26038

$$$$
4EFS_E37_A_306


 33 35  0  0  0  0  0  0  0  0999 V2000
   -3.2508  -22.9165    6.2302 C   0  0  0  0  0  0  0  0  0  0  0  0
   -4.3705  -22.4069    6.8668 C   0  0  0  0  0  0  0  0  0  0  0  0
   -5.6371  -22.8428    6.4911 C   0  0  0  0  0  0  0  0  0  0  0  0
   -5.7852  -23.7580    5.4680 C   0  0  0  0  0  0  0  0  0  0  0  0
   -4.6677  -24.3039    4.8714 C   0  0  0  0  0  0  0  0  0  0  0  0
   -3.4089  -23.8661    5.2425 C   0  0  0  0  0  0  0  0  0  0  0  0
   -7.0318  -24.2566    5.1534 C   0  0  0  0  0  0  0  0  0  0  0  0
   -7.2461  -25.5104    4.5540 C   0  0  0  0  0  0  0  0  0  0  0  0
   -8.8359  -25.6923    4.2161 C   0  0  0  0  0  0  0  0  0  0  0  0
   -9.5285  -24.5242    4.5638 C   0  0  0  0  0  0  0  0  0  0  0  0
   -8.4570  -23.4268    5.2028 S   0  0  0  0  0  0  0  0  0  0  0  0
   -9.4337  -26.9261    3.5784 C   0  0  0  0  0  0  0  0  0  0  0  0
   -9.2918  -28.1166    4.1969 C   0  0  0  0  0  0  0  0  0  0  0  0
   -9.8880  -29.2359    3.5794 C   0  0  0  0  0  0  0  0  0  0  0  0
  -10.6101  -29.0522    2.3563 C   0  0  0  0  0  0  0  0  0  0  0  0
  -10.7209  -27.7553    1.8061 C   0  0  0  0  0  0  0  0  0  0  0  0
  -10.1123  -26.7544    2.4768 C   0  0  0  0  0  0  0  0  0  0  0  0
   -0.7613  -23.3806    6.4943 N   0  0  0  0  0  0  0  0  0  0  0  0
   -1.8656  -22.4984    6.6487 C   0  0  0  0  0  0  0  0  0  0  0  0
   -1.6557  -21.3862    7.0523 O   0  0  0  0  0  0  0  0  0  0  0  0
   -0.8900  -24.2902    6.1401 H   0  0  0  0  0  0  0  0  0  0  0  0
    0.5545  -22.9133    6.8686 C   0  0  0  0  0  0  0  0  0  0  0  0
    2.6855  -23.9169    7.2391 O   0  0  0  0  0  0  0  0  0  0  0  0
    1.5946  -24.0169    6.7414 C   0  0  0  0  0  0  0  0  0  0  0  0
    1.3053  -25.2054    6.0131 N   0  0  0  0  0  0  0  0  0  0  0  0
    1.9849  -25.9136    5.9366 H   0  0  0  0  0  0  0  0  0  0  0  0
    0.4256  -25.3192    5.5860 H   0  0  0  0  0  0  0  0  0  0  0  0
    0.4447  -22.3762    8.2610 C   0  0  0  0  0  0  0  0  0  0  0  0
    1.0211  -20.9853    8.3011 C   0  0  0  0  0  0  0  0  0  0  0  0
    2.4534  -20.9304    7.8354 C   0  0  0  0  0  0  0  0  0  0  0  0
    3.2060  -21.4332    8.6794 O   0  0  0  0  0  0  0  0  0  0  0  0
    2.5308  -20.4096    6.7300 O   0  0  0  0  0  0  0  0  0  0  0  0
    2.8536  -21.7716    9.4790 H   0  0  0  0  0  0  0  0  0  0  0  0
 32 30  2  0  0  0
 30 29  1  0  0  0
 30 31  1  0  0  0
 29 28  1  0  0  0
 28 22  1  0  0  0
 23 24  2  0  0  0
 22 24  1  0  0  0
 22 18  1  0  0  0
 24 25  1  0  0  0
 18 19  1  0  0  0
 19 20  2  0  0  0
 19  1  1  0  0  0
  2  1  2  0  0  0
  2  3  1  0  0  0
  1  6  1  0  0  0
  3  4  2  0  0  0
  6  5  2  0  0  0
  4  5  1  0  0  0
  4  7  1  0  0  0
  8  7  2  0  0  0
  8  9  1  0  0  0
  7 11  1  0  0  0
 16 17  2  0  0  0
 16 15  1  0  0  0
 17 12  1  0  0  0
  9 12  1  0  0  0
  9 10  2  0  0  0
 12 13  2  0  0  0
 15 14  2  0  0  0
 11 10  1  0  0  0
 13 14  1  0  0  0
 25 26  1  0  0  0
 25 27  1  0  0  0
 31 33  1  0  0  0
 18 21  1  0  0  0
M  END
> <minimizedAffinity>
-8.81694

$$$$
4EFS_E37_A_306


 33 35  0  0  0  0  0  0  0  0999 V2000
   -8.5777  -26.8100    3.3230 C   0  0  0  0  0  0  0  0  0  0  0  0
   -8.0523  -25.7448    2.6103 C   0  0  0  0  0  0  0  0  0  0  0  0
   -7.2896  -24.7838    3.2661 C   0  0  0  0  0  0  0  0  0  0  0  0
   -7.0782  -24.8705    4.6278 C   0  0  0  0  0  0  0  0  0  0  0  0
   -7.5571  -25.9592    5.3263 C   0  0  0  0  0  0  0  0  0  0  0  0
   -8.3195  -26.9116    4.6741 C   0  0  0  0  0  0  0  0  0  0  0  0
   -6.2510  -23.9689    5.2638 C   0  0  0  0  0  0  0  0  0  0  0  0
   -4.8555  -24.1150    5.3552 C   0  0  0  0  0  0  0  0  0  0  0  0
   -4.2395  -22.9242    6.2917 C   0  0  0  0  0  0  0  0  0  0  0  0
   -5.2811  -22.1285    6.7886 C   0  0  0  0  0  0  0  0  0  0  0  0
   -6.7280  -22.7024    6.2073 S   0  0  0  0  0  0  0  0  0  0  0  0
   -2.7682  -22.7597    6.5994 C   0  0  0  0  0  0  0  0  0  0  0  0
   -2.3831  -21.7924    7.4572 C   0  0  0  0  0  0  0  0  0  0  0  0
   -1.0038  -21.6925    7.7349 C   0  0  0  0  0  0  0  0  0  0  0  0
   -0.1011  -22.6138    7.1124 C   0  0  0  0  0  0  0  0  0  0  0  0
   -0.6134  -23.6081    6.2489 C   0  0  0  0  0  0  0  0  0  0  0  0
   -1.9487  -23.6149    6.0511 C   0  0  0  0  0  0  0  0  0  0  0  0
   -9.2318  -28.1071    1.2320 N   0  0  0  0  0  0  0  0  0  0  0  0
   -9.3668  -27.8900    2.6306 C   0  0  0  0  0  0  0  0  0  0  0  0
  -10.0693  -28.6355    3.2589 O   0  0  0  0  0  0  0  0  0  0  0  0
   -8.6434  -27.5344    0.6888 H   0  0  0  0  0  0  0  0  0  0  0  0
   -9.9769  -29.1869    0.6248 C   0  0  0  0  0  0  0  0  0  0  0  0
   -9.4947  -31.3319   -0.2983 O   0  0  0  0  0  0  0  0  0  0  0  0
   -9.0638  -30.3344    0.2187 C   0  0  0  0  0  0  0  0  0  0  0  0
   -7.6612  -30.2623    0.4518 N   0  0  0  0  0  0  0  0  0  0  0  0
   -7.0788  -31.0100    0.1853 H   0  0  0  0  0  0  0  0  0  0  0  0
   -7.2736  -29.4647    0.8794 H   0  0  0  0  0  0  0  0  0  0  0  0
  -10.7244  -28.6018   -0.5321 C   0  0  0  0  0  0  0  0  0  0  0  0
  -11.7751  -27.6552   -0.0139 C   0  0  0  0  0  0  0  0  0  0  0  0
  -11.5567  -26.2335   -0.4638 C   0  0  0  0  0  0  0  0  0  0  0  0
  -10.9718  -25.5838    0.4122 O   0  0  0  0  0  0  0  0  0  0  0  0
  -12.0021  -26.0618   -1.5913 O   0  0  0  0  0  0  0  0  0  0  0  0
  -10.7391  -25.9932    1.2223 H   0  0  0  0  0  0  0  0  0  0  0  0
 32 30  2  0  0  0
 30 29  1  0  0  0
 30 31  1  0  0  0
 29 28  1  0  0  0
 28 22  1  0  0  0
 23 24  2  0  0  0
 22 24  1  0  0  0
 22 18  1  0  0  0
 24 25  1  0  0  0
 18 19  1  0  0  0
 19 20  2  0  0  0
 19  1  1  0  0  0
  2  1  2  0  0  0
  2  3  1  0  0  0
  1  6  1  0  0  0
  3  4  2  0  0  0
  6  5  2  0  0  0
  4  5  1  0  0  0
  4  7  1  0  0  0
  8  7  2  0  0  0
  8  9  1  0  0  0
  7 11  1  0  0  0
 16 17  2  0  0  0
 16 15  1  0  0  0
 17 12  1  0  0  0
  9 12  1  0  0  0
  9 10  2  0  0  0
 12 13  2  0  0  0
 15 14  2  0  0  0
 11 10  1  0  0  0
 13 14  1  0  0  0
 25 26  1  0  0  0
 25 27  1  0  0  0
 31 33  1  0  0  0
 18 21  1  0  0  0
M  END
> <minimizedAffinity>
-8.35920

$$$$
4EFS_E37_A_306


 33 35  0  0  0  0  0  0  0  0999 V2000
   -5.8451  -24.2244    5.0903 C   0  0  0  0  0  0  0  0  0  0  0  0
   -4.5535  -24.5032    4.6745 C   0  0  0  0  0  0  0  0  0  0  0  0
   -3.4817  -23.8280    5.2497 C   0  0  0  0  0  0  0  0  0  0  0  0
   -3.7006  -22.8615    6.2111 C   0  0  0  0  0  0  0  0  0  0  0  0
   -4.9822  -22.6229    6.6617 C   0  0  0  0  0  0  0  0  0  0  0  0
   -6.0476  -23.2913    6.0856 C   0  0  0  0  0  0  0  0  0  0  0  0
   -2.6367  -22.2545    6.8444 C   0  0  0  0  0  0  0  0  0  0  0  0
   -1.3038  -22.6865    6.7261 C   0  0  0  0  0  0  0  0  0  0  0  0
   -0.3512  -21.8057    7.7216 C   0  0  0  0  0  0  0  0  0  0  0  0
   -1.1390  -20.9089    8.4566 C   0  0  0  0  0  0  0  0  0  0  0  0
   -2.7281  -21.0851    8.0047 S   0  0  0  0  0  0  0  0  0  0  0  0
    1.1448  -21.9867    7.8469 C   0  0  0  0  0  0  0  0  0  0  0  0
    1.6825  -23.1947    7.5791 C   0  0  0  0  0  0  0  0  0  0  0  0
    3.0844  -23.3107    7.6834 C   0  0  0  0  0  0  0  0  0  0  0  0
    3.8516  -22.1583    8.0499 C   0  0  0  0  0  0  0  0  0  0  0  0
    3.1898  -20.9317    8.2831 C   0  0  0  0  0  0  0  0  0  0  0  0
    1.8459  -20.9304    8.1570 C   0  0  0  0  0  0  0  0  0  0  0  0
   -6.9837  -26.3882    4.3802 N   0  0  0  0  0  0  0  0  0  0  0  0
   -7.0203  -24.9737    4.5192 C   0  0  0  0  0  0  0  0  0  0  0  0
   -8.0375  -24.3986    4.2390 O   0  0  0  0  0  0  0  0  0  0  0  0
   -6.1775  -26.8970    4.6262 H   0  0  0  0  0  0  0  0  0  0  0  0
   -8.1557  -27.0633    3.8698 C   0  0  0  0  0  0  0  0  0  0  0  0
   -7.7738  -29.4156    3.9512 O   0  0  0  0  0  0  0  0  0  0  0  0
   -8.2962  -28.4587    4.4604 C   0  0  0  0  0  0  0  0  0  0  0  0
   -9.0668  -28.6733    5.6381 N   0  0  0  0  0  0  0  0  0  0  0  0
   -9.1516  -29.5799    6.0125 H   0  0  0  0  0  0  0  0  0  0  0  0
   -9.5148  -27.9151    6.0782 H   0  0  0  0  0  0  0  0  0  0  0  0
   -8.0360  -27.0732    2.3781 C   0  0  0  0  0  0  0  0  0  0  0  0
   -9.3383  -27.5375    1.7808 C   0  0  0  0  0  0  0  0  0  0  0  0
  -10.2913  -26.4043    1.4992 C   0  0  0  0  0  0  0  0  0  0  0  0
  -11.1157  -26.2900    2.4151 O   0  0  0  0  0  0  0  0  0  0  0  0
  -10.0182  -25.8615    0.4362 O   0  0  0  0  0  0  0  0  0  0  0  0
  -11.0883  -26.8758    3.1459 H   0  0  0  0  0  0  0  0  0  0  0  0
 32 30  2  0  0  0
 30 29  1  0  0  0
 30 31  1  0  0  0
 29 28  1  0  0  0
 28 22  1  0  0  0
 23 24  2  0  0  0
 22 24  1  0  0  0
 22 18  1  0  0  0
 24 25  1  0  0  0
 18 19  1  0  0  0
 19 20  2  0  0  0
 19  1  1  0  0  0
  2  1  2  0  0  0
  2  3  1  0  0  0
  1  6  1  0  0  0
  3  4  2  0  0  0
  6  5  2  0  0  0
  4  5  1  0  0  0
  4  7  1  0  0  0
  8  7  2  0  0  0
  8  9  1  0  0  0
  7 11  1  0  0  0
 16 17  2  0  0  0
 16 15  1  0  0  0
 17 12  1  0  0  0
  9 12  1  0  0  0
  9 10  2  0  0  0
 12 13  2  0  0  0
 15 14  2  0  0  0
 11 10  1  0  0  0
 13 14  1  0  0  0
 25 26  1  0  0  0
 25 27  1  0  0  0
 31 33  1  0  0  0
 18 21  1  0  0  0
M  END
> <minimizedAffinity>
-8.34009

$$$$
4EFS_E37_A_306


 33 35  0  0  0  0  0  0  0  0999 V2000
   -8.8842  -27.3302    2.5613 C   0  0  0  0  0  0  0  0  0  0  0  0
   -8.5344  -26.1394    1.9462 C   0  0  0  0  0  0  0  0  0  0  0  0
   -7.9212  -25.1337    2.6863 C   0  0  0  0  0  0  0  0  0  0  0  0
   -7.6862  -25.3048    4.0361 C   0  0  0  0  0  0  0  0  0  0  0  0
   -7.9867  -26.5103    4.6352 C   0  0  0  0  0  0  0  0  0  0  0  0
   -8.6008  -27.5080    3.8994 C   0  0  0  0  0  0  0  0  0  0  0  0
   -7.0004  -24.3459    4.7515 C   0  0  0  0  0  0  0  0  0  0  0  0
   -5.6158  -24.3889    4.9925 C   0  0  0  0  0  0  0  0  0  0  0  0
   -5.1929  -23.1578    5.9825 C   0  0  0  0  0  0  0  0  0  0  0  0
   -6.3374  -22.4420    6.3603 C   0  0  0  0  0  0  0  0  0  0  0  0
   -7.6676  -23.1198    5.6311 S   0  0  0  0  0  0  0  0  0  0  0  0
   -3.7791  -22.8858    6.4447 C   0  0  0  0  0  0  0  0  0  0  0  0
   -2.7697  -23.6168    5.9283 C   0  0  0  0  0  0  0  0  0  0  0  0
   -1.4650  -23.3111    6.3687 C   0  0  0  0  0  0  0  0  0  0  0  0
   -1.2814  -22.2520    7.3151 C   0  0  0  0  0  0  0  0  0  0  0  0
   -2.4067  -21.5301    7.7729 C   0  0  0  0  0  0  0  0  0  0  0  0
   -3.6097  -21.9046    7.2885 C   0  0  0  0  0  0  0  0  0  0  0  0
   -9.8451  -28.2825    0.4043 N   0  0  0  0  0  0  0  0  0  0  0  0
   -9.5057  -28.4541    1.7743 C   0  0  0  0  0  0  0  0  0  0  0  0
   -9.6586  -29.5385    2.2689 O   0  0  0  0  0  0  0  0  0  0  0  0
   -9.7077  -27.4163   -0.0431 H   0  0  0  0  0  0  0  0  0  0  0  0
  -10.3962  -29.4072   -0.3175 C   0  0  0  0  0  0  0  0  0  0  0  0
  -10.0286  -30.4787   -2.4158 O   0  0  0  0  0  0  0  0  0  0  0  0
   -9.7021  -29.6033   -1.6575 C   0  0  0  0  0  0  0  0  0  0  0  0
   -8.6290  -28.7537   -2.0494 N   0  0  0  0  0  0  0  0  0  0  0  0
   -8.1864  -28.8887   -2.9184 H   0  0  0  0  0  0  0  0  0  0  0  0
   -8.3296  -28.0312   -1.4514 H   0  0  0  0  0  0  0  0  0  0  0  0
  -11.8652  -29.1571   -0.4553 C   0  0  0  0  0  0  0  0  0  0  0  0
  -12.0796  -27.9055   -1.2653 C   0  0  0  0  0  0  0  0  0  0  0  0
  -12.7852  -26.8207   -0.4926 C   0  0  0  0  0  0  0  0  0  0  0  0
  -13.9823  -26.7726   -0.8026 O   0  0  0  0  0  0  0  0  0  0  0  0
  -12.0086  -26.2512    0.2635 O   0  0  0  0  0  0  0  0  0  0  0  0
  -14.3234  -27.3610   -1.4472 H   0  0  0  0  0  0  0  0  0  0  0  0
 32 30  2  0  0  0
 30 29  1  0  0  0
 30 31  1  0  0  0
 29 28  1  0  0  0
 28 22  1  0  0  0
 23 24  2  0  0  0
 22 24  1  0  0  0
 22 18  1  0  0  0
 24 25  1  0  0  0
 18 19  1  0  0  0
 19 20  2  0  0  0
 19  1  1  0  0  0
  2  1  2  0  0  0
  2  3  1  0  0  0
  1  6  1  0  0  0
  3  4  2  0  0  0
  6  5  2  0  0  0
  4  5  1  0  0  0
  4  7  1  0  0  0
  8  7  2  0  0  0
  8  9  1  0  0  0
  7 11  1  0  0  0
 16 17  2  0  0  0
 16 15  1  0  0  0
 17 12  1  0  0  0
  9 12  1  0  0  0
  9 10  2  0  0  0
 12 13  2  0  0  0
 15 14  2  0  0  0
 11 10  1  0  0  0
 13 14  1  0  0  0
 25 26  1  0  0  0
 25 27  1  0  0  0
 31 33  1  0  0  0
 18 21  1  0  0  0
M  END
> <minimizedAffinity>
-8.24814

$$$$
4EFS_E37_A_306


 33 35  0  0  0  0  0  0  0  0999 V2000
   -4.8500  -23.5782    6.1246 C   0  0  0  0  0  0  0  0  0  0  0  0
   -6.1616  -23.2529    6.4287 C   0  0  0  0  0  0  0  0  0  0  0  0
   -7.1937  -23.7158    5.6189 C   0  0  0  0  0  0  0  0  0  0  0  0
   -6.9156  -24.4727    4.4981 C   0  0  0  0  0  0  0  0  0  0  0  0
   -5.6141  -24.8400    4.2266 C   0  0  0  0  0  0  0  0  0  0  0  0
   -4.5882  -24.3751    5.0297 C   0  0  0  0  0  0  0  0  0  0  0  0
   -7.9403  -25.0054    3.7445 C   0  0  0  0  0  0  0  0  0  0  0  0
   -8.0910  -24.7901    2.3632 C   0  0  0  0  0  0  0  0  0  0  0  0
   -9.4880  -25.4691    1.8515 C   0  0  0  0  0  0  0  0  0  0  0  0
  -10.1711  -26.0223    2.9434 C   0  0  0  0  0  0  0  0  0  0  0  0
   -9.2745  -25.7854    4.3220 S   0  0  0  0  0  0  0  0  0  0  0  0
   -9.9699  -25.4452    0.4184 C   0  0  0  0  0  0  0  0  0  0  0  0
  -10.6494  -26.5073   -0.0614 C   0  0  0  0  0  0  0  0  0  0  0  0
  -11.1024  -26.4304   -1.3950 C   0  0  0  0  0  0  0  0  0  0  0  0
  -10.8328  -25.2458   -2.1533 C   0  0  0  0  0  0  0  0  0  0  0  0
  -10.1345  -24.1786   -1.5448 C   0  0  0  0  0  0  0  0  0  0  0  0
   -9.7454  -24.3558   -0.2644 C   0  0  0  0  0  0  0  0  0  0  0  0
   -2.3906  -23.0407    6.5055 N   0  0  0  0  0  0  0  0  0  0  0  0
   -3.7167  -23.1309    7.0102 C   0  0  0  0  0  0  0  0  0  0  0  0
   -3.9240  -22.7720    8.1382 O   0  0  0  0  0  0  0  0  0  0  0  0
   -2.1871  -23.2990    5.5775 H   0  0  0  0  0  0  0  0  0  0  0  0
   -1.3475  -22.5615    7.3843 C   0  0  0  0  0  0  0  0  0  0  0  0
   -0.6407  -20.4518    8.2418 O   0  0  0  0  0  0  0  0  0  0  0  0
   -1.4921  -21.0720    7.6600 C   0  0  0  0  0  0  0  0  0  0  0  0
   -2.6560  -20.3668    7.2419 N   0  0  0  0  0  0  0  0  0  0  0  0
   -2.7401  -19.4031    7.4250 H   0  0  0  0  0  0  0  0  0  0  0  0
   -3.3769  -20.8428    6.7696 H   0  0  0  0  0  0  0  0  0  0  0  0
   -0.0427  -22.9090    6.7392 C   0  0  0  0  0  0  0  0  0  0  0  0
   -0.1197  -24.3098    6.1912 C   0  0  0  0  0  0  0  0  0  0  0  0
    1.1325  -25.1088    6.4460 C   0  0  0  0  0  0  0  0  0  0  0  0
    2.1370  -24.3964    6.3233 O   0  0  0  0  0  0  0  0  0  0  0  0
    0.8580  -26.2698    6.7218 O   0  0  0  0  0  0  0  0  0  0  0  0
    2.0452  -23.4931    6.0917 H   0  0  0  0  0  0  0  0  0  0  0  0
 32 30  2  0  0  0
 30 29  1  0  0  0
 30 31  1  0  0  0
 29 28  1  0  0  0
 28 22  1  0  0  0
 23 24  2  0  0  0
 22 24  1  0  0  0
 22 18  1  0  0  0
 24 25  1  0  0  0
 18 19  1  0  0  0
 19 20  2  0  0  0
 19  1  1  0  0  0
  2  1  2  0  0  0
  2  3  1  0  0  0
  1  6  1  0  0  0
  3  4  2  0  0  0
  6  5  2  0  0  0
  4  5  1  0  0  0
  4  7  1  0  0  0
  8  7  2  0  0  0
  8  9  1  0  0  0
  7 11  1  0  0  0
 16 17  2  0  0  0
 16 15  1  0  0  0
 17 12  1  0  0  0
  9 12  1  0  0  0
  9 10  2  0  0  0
 12 13  2  0  0  0
 15 14  2  0  0  0
 11 10  1  0  0  0
 13 14  1  0  0  0
 25 26  1  0  0  0
 25 27  1  0  0  0
 31 33  1  0  0  0
 18 21  1  0  0  0
M  END
> <minimizedAffinity>
-8.13435

$$$$
