1GHV_120_H_246


 25 27  0  0  0  0  0  0  0  0999 V2000
   11.8312  -11.8222   23.0114 C   0  0  0  0  0  0  0  0  0  0  0  0
   12.5374  -10.6083   22.8281 C   0  0  0  0  0  0  0  0  0  0  0  0
   13.4241  -10.4573   21.7736 C   0  0  0  0  0  0  0  0  0  0  0  0
   13.5706  -11.5240   20.9402 C   0  0  0  0  0  0  0  0  0  0  0  0
   12.9217  -12.7032   21.0721 C   0  0  0  0  0  0  0  0  0  0  0  0
   12.0289  -12.8950   22.1109 C   0  0  0  0  0  0  0  0  0  0  0  0
   14.3060  -11.6571   19.9214 N   0  0  0  0  0  0  0  0  0  0  0  0
   13.2376  -13.5713   20.1427 N   0  0  0  0  0  0  0  0  0  0  0  0
   14.1097  -12.8538   19.4447 C   0  0  0  0  0  0  0  0  0  0  0  0
   14.9174  -10.9787   19.5538 H   0  0  0  0  0  0  0  0  0  0  0  0
   14.7345  -13.3026   18.2870 C   0  0  0  0  0  0  0  0  0  0  0  0
   15.2781  -14.5864   18.2775 C   0  0  0  0  0  0  0  0  0  0  0  0
   15.8944  -15.0400   17.1320 C   0  0  0  0  0  0  0  0  0  0  0  0
   15.9511  -14.2004   16.0209 C   0  0  0  0  0  0  0  0  0  0  0  0
   15.4313  -12.9880   16.0477 N   0  0  0  0  0  0  0  0  0  0  0  0
   14.8322  -12.5002   17.1121 C   0  0  0  0  0  0  0  0  0  0  0  0
   14.3740  -11.3709   17.0806 O   0  0  0  0  0  0  0  0  0  0  0  0
   15.4942  -12.4276   15.2408 H   0  0  0  0  0  0  0  0  0  0  0  0
   10.9605  -11.9574   24.0737 C   0  0  0  0  0  0  0  0  0  0  0  0
   10.0556  -12.8935   24.0193 N   0  0  0  0  0  0  0  0  0  0  0  0
   11.0738  -11.1477   25.1074 N   0  0  0  0  0  0  0  0  0  0  0  0
   10.0008  -13.4799   23.2305 H   0  0  0  0  0  0  0  0  0  0  0  0
    9.4267  -13.0142   24.7671 H   0  0  0  0  0  0  0  0  0  0  0  0
   11.7700  -10.4516   25.1135 H   0  0  0  0  0  0  0  0  0  0  0  0
   10.4622  -11.2389   25.8735 H   0  0  0  0  0  0  0  0  0  0  0  0
  1  2  1  0  0  0
  1  6  2  0  0  0
  1 19  1  0  0  0
  2  3  2  0  0  0
  3  4  1  0  0  0
  4  5  2  0  0  0
  4  7  1  0  0  0
  5  6  1  0  0  0
  5  8  1  0  0  0
 19 20  1  0  0  0
 19 21  2  0  0  0
  7  9  1  0  0  0
  8  9  2  0  0  0
  9 11  1  0  0  0
 11 12  2  0  0  0
 11 16  1  0  0  0
 12 13  1  0  0  0
 13 14  2  0  0  0
 14 15  1  0  0  0
 15 16  1  0  0  0
 16 17  2  0  0  0
 20 22  1  0  0  0
 20 23  1  0  0  0
 21 24  1  0  0  0
 21 25  1  0  0  0
  7 10  1  0  0  0
 15 18  1  0  0  0
M  CHG 1  21   1
M  END
> <minimizedAffinity>
-8.70312

$$$$
1GHV_120_H_246


 25 27  0  0  0  0  0  0  0  0999 V2000
   11.7854   -9.9905   23.9189 C   0  0  0  0  0  0  0  0  0  0  0  0
   11.0843  -11.2168   24.0208 C   0  0  0  0  0  0  0  0  0  0  0  0
   11.3120  -12.2401   23.1140 C   0  0  0  0  0  0  0  0  0  0  0  0
   12.2333  -12.0007   22.1406 C   0  0  0  0  0  0  0  0  0  0  0  0
   12.9277  -10.8488   21.9994 C   0  0  0  0  0  0  0  0  0  0  0  0
   12.7299   -9.8031   22.8827 C   0  0  0  0  0  0  0  0  0  0  0  0
   12.6226  -12.7457   21.1971 N   0  0  0  0  0  0  0  0  0  0  0  0
   13.7529  -10.8667   20.9817 N   0  0  0  0  0  0  0  0  0  0  0  0
   13.5196  -12.0886   20.5178 C   0  0  0  0  0  0  0  0  0  0  0  0
   12.3052  -13.6585   21.0091 H   0  0  0  0  0  0  0  0  0  0  0  0
   14.1884  -12.6495   19.4360 C   0  0  0  0  0  0  0  0  0  0  0  0
   14.8836  -13.8427   19.6277 C   0  0  0  0  0  0  0  0  0  0  0  0
   15.5447  -14.4071   18.5592 C   0  0  0  0  0  0  0  0  0  0  0  0
   15.4937  -13.7670   17.3221 C   0  0  0  0  0  0  0  0  0  0  0  0
   14.8308  -12.6379   17.1588 N   0  0  0  0  0  0  0  0  0  0  0  0
   14.1823  -12.0516   18.1413 C   0  0  0  0  0  0  0  0  0  0  0  0
   13.5904  -11.0064   17.9329 O   0  0  0  0  0  0  0  0  0  0  0  0
   14.8212  -12.2187   16.2680 H   0  0  0  0  0  0  0  0  0  0  0  0
   11.5372   -8.9792   24.8249 C   0  0  0  0  0  0  0  0  0  0  0  0
   10.3425   -8.8834   25.3362 N   0  0  0  0  0  0  0  0  0  0  0  0
   12.5100   -8.1514   25.1498 N   0  0  0  0  0  0  0  0  0  0  0  0
    9.6405   -9.5200   25.0696 H   0  0  0  0  0  0  0  0  0  0  0  0
   10.1420   -8.1744   25.9892 H   0  0  0  0  0  0  0  0  0  0  0  0
   13.4005   -8.2544   24.7428 H   0  0  0  0  0  0  0  0  0  0  0  0
   12.3462   -7.4302   25.7995 H   0  0  0  0  0  0  0  0  0  0  0  0
  1  2  1  0  0  0
  1  6  2  0  0  0
  1 19  1  0  0  0
  2  3  2  0  0  0
  3  4  1  0  0  0
  4  5  2  0  0  0
  4  7  1  0  0  0
  5  6  1  0  0  0
  5  8  1  0  0  0
 19 20  1  0  0  0
 19 21  2  0  0  0
  7  9  1  0  0  0
  8  9  2  0  0  0
  9 11  1  0  0  0
 11 12  2  0  0  0
 11 16  1  0  0  0
 12 13  1  0  0  0
 13 14  2  0  0  0
 14 15  1  0  0  0
 15 16  1  0  0  0
 16 17  2  0  0  0
 20 22  1  0  0  0
 20 23  1  0  0  0
 21 24  1  0  0  0
 21 25  1  0  0  0
  7 10  1  0  0  0
 15 18  1  0  0  0
M  CHG 1  21   1
M  END
> <minimizedAffinity>
-8.22397

$$$$
1GHV_120_H_246


 25 27  0  0  0  0  0  0  0  0999 V2000
   11.9616  -11.8197   23.2811 C   0  0  0  0  0  0  0  0  0  0  0  0
   12.2745  -10.4657   23.0082 C   0  0  0  0  0  0  0  0  0  0  0  0
   13.3337  -10.1374   22.1766 C   0  0  0  0  0  0  0  0  0  0  0  0
   14.0394  -11.1743   21.6469 C   0  0  0  0  0  0  0  0  0  0  0  0
   13.7824  -12.4820   21.8767 C   0  0  0  0  0  0  0  0  0  0  0  0
   12.7350  -12.8522   22.7006 C   0  0  0  0  0  0  0  0  0  0  0  0
   15.0400  -11.1589   20.8755 N   0  0  0  0  0  0  0  0  0  0  0  0
   14.6070  -13.2862   21.2519 N   0  0  0  0  0  0  0  0  0  0  0  0
   15.3734  -12.3952   20.6343 C   0  0  0  0  0  0  0  0  0  0  0  0
   15.4874  -10.3569   20.5206 H   0  0  0  0  0  0  0  0  0  0  0  0
   16.4125  -12.7286   19.7733 C   0  0  0  0  0  0  0  0  0  0  0  0
   17.5925  -13.2347   20.3169 C   0  0  0  0  0  0  0  0  0  0  0  0
   18.6248  -13.5721   19.4695 C   0  0  0  0  0  0  0  0  0  0  0  0
   18.4531  -13.3980   18.0973 C   0  0  0  0  0  0  0  0  0  0  0  0
   17.3294  -12.9175   17.6002 N   0  0  0  0  0  0  0  0  0  0  0  0
   16.3105  -12.5769   18.3590 C   0  0  0  0  0  0  0  0  0  0  0  0
   15.2980  -12.1339   17.8443 O   0  0  0  0  0  0  0  0  0  0  0  0
   17.2505  -12.8099   16.6248 H   0  0  0  0  0  0  0  0  0  0  0  0
   10.9098  -12.1267   24.1204 C   0  0  0  0  0  0  0  0  0  0  0  0
   10.0536  -13.0312   23.7373 N   0  0  0  0  0  0  0  0  0  0  0  0
   10.8073  -11.5069   25.2790 N   0  0  0  0  0  0  0  0  0  0  0  0
   10.1622  -13.4735   22.8645 H   0  0  0  0  0  0  0  0  0  0  0  0
    9.2981  -13.2723   24.3207 H   0  0  0  0  0  0  0  0  0  0  0  0
   11.4734  -10.8287   25.5351 H   0  0  0  0  0  0  0  0  0  0  0  0
   10.0646  -11.7222   25.8885 H   0  0  0  0  0  0  0  0  0  0  0  0
  1  2  1  0  0  0
  1  6  2  0  0  0
  1 19  1  0  0  0
  2  3  2  0  0  0
  3  4  1  0  0  0
  4  5  2  0  0  0
  4  7  1  0  0  0
  5  6  1  0  0  0
  5  8  1  0  0  0
 19 20  1  0  0  0
 19 21  2  0  0  0
  7  9  1  0  0  0
  8  9  2  0  0  0
  9 11  1  0  0  0
 11 12  2  0  0  0
 11 16  1  0  0  0
 12 13  1  0  0  0
 13 14  2  0  0  0
 14 15  1  0  0  0
 15 16  1  0  0  0
 16 17  2  0  0  0
 20 22  1  0  0  0
 20 23  1  0  0  0
 21 24  1  0  0  0
 21 25  1  0  0  0
  7 10  1  0  0  0
 15 18  1  0  0  0
M  CHG 1  21   1
M  END
> <minimizedAffinity>
-8.15519

$$$$
1GHV_120_H_246


 25 27  0  0  0  0  0  0  0  0999 V2000
   11.9238  -11.8120   22.7998 C   0  0  0  0  0  0  0  0  0  0  0  0
   11.5434  -13.1658   22.6317 C   0  0  0  0  0  0  0  0  0  0  0  0
   12.0146  -13.9057   21.5586 C   0  0  0  0  0  0  0  0  0  0  0  0
   12.8501  -13.2661   20.6946 C   0  0  0  0  0  0  0  0  0  0  0  0
   13.2422  -11.9769   20.8096 C   0  0  0  0  0  0  0  0  0  0  0  0
   12.7945  -11.2038   21.8655 C   0  0  0  0  0  0  0  0  0  0  0  0
   13.4101  -13.6954   19.6465 N   0  0  0  0  0  0  0  0  0  0  0  0
   14.0473  -11.5960   19.8485 N   0  0  0  0  0  0  0  0  0  0  0  0
   14.1198  -12.7223   19.1493 C   0  0  0  0  0  0  0  0  0  0  0  0
   13.3254  -14.6023   19.2726 H   0  0  0  0  0  0  0  0  0  0  0  0
   14.9059  -12.8826   18.0143 C   0  0  0  0  0  0  0  0  0  0  0  0
   15.7956  -13.9549   17.9653 C   0  0  0  0  0  0  0  0  0  0  0  0
   16.5744  -14.1231   16.8416 C   0  0  0  0  0  0  0  0  0  0  0  0
   16.4443  -13.2165   15.7909 C   0  0  0  0  0  0  0  0  0  0  0  0
   15.5971  -12.2071   15.8544 N   0  0  0  0  0  0  0  0  0  0  0  0
   14.8291  -11.9948   16.9008 C   0  0  0  0  0  0  0  0  0  0  0  0
   14.0676  -11.0427   16.9056 O   0  0  0  0  0  0  0  0  0  0  0  0
   15.5375  -11.5896   15.0899 H   0  0  0  0  0  0  0  0  0  0  0  0
   11.4356  -11.0882   23.8689 C   0  0  0  0  0  0  0  0  0  0  0  0
   10.5865  -11.6640   24.6722 N   0  0  0  0  0  0  0  0  0  0  0  0
   11.8452   -9.8486   24.0492 N   0  0  0  0  0  0  0  0  0  0  0  0
   10.3031  -12.5920   24.5060 H   0  0  0  0  0  0  0  0  0  0  0  0
   10.2283  -11.1709   25.4454 H   0  0  0  0  0  0  0  0  0  0  0  0
   12.4880   -9.4463   23.4212 H   0  0  0  0  0  0  0  0  0  0  0  0
   11.5084   -9.3248   24.8117 H   0  0  0  0  0  0  0  0  0  0  0  0
  1  2  1  0  0  0
  1  6  2  0  0  0
  1 19  1  0  0  0
  2  3  2  0  0  0
  3  4  1  0  0  0
  4  5  2  0  0  0
  4  7  1  0  0  0
  5  6  1  0  0  0
  5  8  1  0  0  0
 19 20  1  0  0  0
 19 21  2  0  0  0
  7  9  1  0  0  0
  8  9  2  0  0  0
  9 11  1  0  0  0
 11 12  2  0  0  0
 11 16  1  0  0  0
 12 13  1  0  0  0
 13 14  2  0  0  0
 14 15  1  0  0  0
 15 16  1  0  0  0
 16 17  2  0  0  0
 20 22  1  0  0  0
 20 23  1  0  0  0
 21 24  1  0  0  0
 21 25  1  0  0  0
  7 10  1  0  0  0
 15 18  1  0  0  0
M  CHG 1  21   1
M  END
> <minimizedAffinity>
-8.14565

$$$$
1GHV_120_H_246


 25 27  0  0  0  0  0  0  0  0999 V2000
   11.9436  -11.8299   23.2854 C   0  0  0  0  0  0  0  0  0  0  0  0
   12.2972  -10.4792   23.0477 C   0  0  0  0  0  0  0  0  0  0  0  0
   13.3717  -10.1617   22.2318 C   0  0  0  0  0  0  0  0  0  0  0  0
   14.0515  -11.2054   21.6820 C   0  0  0  0  0  0  0  0  0  0  0  0
   13.7554  -12.5103   21.8781 C   0  0  0  0  0  0  0  0  0  0  0  0
   12.6915  -12.8699   22.6855 C   0  0  0  0  0  0  0  0  0  0  0  0
   15.0581  -11.2003   20.9183 N   0  0  0  0  0  0  0  0  0  0  0  0
   14.5615  -13.3226   21.2398 N   0  0  0  0  0  0  0  0  0  0  0  0
   15.3578  -12.4395   20.6494 C   0  0  0  0  0  0  0  0  0  0  0  0
   15.5310  -10.4032   20.5861 H   0  0  0  0  0  0  0  0  0  0  0  0
   16.3936  -12.7818   19.7879 C   0  0  0  0  0  0  0  0  0  0  0  0
   16.1256  -12.8628   18.4221 C   0  0  0  0  0  0  0  0  0  0  0  0
   17.1483  -13.1966   17.5617 C   0  0  0  0  0  0  0  0  0  0  0  0
   18.4166  -13.4396   18.0861 C   0  0  0  0  0  0  0  0  0  0  0  0
   18.6522  -13.3585   19.3818 N   0  0  0  0  0  0  0  0  0  0  0  0
   17.7162  -13.0457   20.2513 C   0  0  0  0  0  0  0  0  0  0  0  0
   17.9909  -12.9900   21.4377 O   0  0  0  0  0  0  0  0  0  0  0  0
   19.5626  -13.5388   19.7101 H   0  0  0  0  0  0  0  0  0  0  0  0
   10.8769  -12.1265   24.1096 C   0  0  0  0  0  0  0  0  0  0  0  0
   10.0297  -13.0384   23.7243 N   0  0  0  0  0  0  0  0  0  0  0  0
   10.7518  -11.4897   25.2567 N   0  0  0  0  0  0  0  0  0  0  0  0
   10.1553  -13.4934   22.8603 H   0  0  0  0  0  0  0  0  0  0  0  0
    9.2639  -13.2724   24.2971 H   0  0  0  0  0  0  0  0  0  0  0  0
   11.4118  -10.8063   25.5149 H   0  0  0  0  0  0  0  0  0  0  0  0
    9.9984  -11.6974   25.8554 H   0  0  0  0  0  0  0  0  0  0  0  0
  1  2  1  0  0  0
  1  6  2  0  0  0
  1 19  1  0  0  0
  2  3  2  0  0  0
  3  4  1  0  0  0
  4  5  2  0  0  0
  4  7  1  0  0  0
  5  6  1  0  0  0
  5  8  1  0  0  0
 19 20  1  0  0  0
 19 21  2  0  0  0
  7  9  1  0  0  0
  8  9  2  0  0  0
  9 11  1  0  0  0
 11 12  2  0  0  0
 11 16  1  0  0  0
 12 13  1  0  0  0
 13 14  2  0  0  0
 14 15  1  0  0  0
 15 16  1  0  0  0
 16 17  2  0  0  0
 20 22  1  0  0  0
 20 23  1  0  0  0
 21 24  1  0  0  0
 21 25  1  0  0  0
  7 10  1  0  0  0
 15 18  1  0  0  0
M  CHG 1  21   1
M  END
> <minimizedAffinity>
-7.77463

$$$$
1GHV_120_H_246


 25 27  0  0  0  0  0  0  0  0999 V2000
   11.7713  -11.6181   22.9765 C   0  0  0  0  0  0  0  0  0  0  0  0
   11.9538  -10.4414   22.2097 C   0  0  0  0  0  0  0  0  0  0  0  0
   12.6655  -10.4743   21.0208 C   0  0  0  0  0  0  0  0  0  0  0  0
   13.1663  -11.6821   20.6411 C   0  0  0  0  0  0  0  0  0  0  0  0
   13.0212  -12.8327   21.3367 C   0  0  0  0  0  0  0  0  0  0  0  0
   12.3187  -12.8430   22.5281 C   0  0  0  0  0  0  0  0  0  0  0  0
   13.8478  -11.9889   19.6223 N   0  0  0  0  0  0  0  0  0  0  0  0
   13.5986  -13.8585   20.7611 N   0  0  0  0  0  0  0  0  0  0  0  0
   14.0985  -13.2661   19.6832 C   0  0  0  0  0  0  0  0  0  0  0  0
   14.1373  -11.3736   18.9104 H   0  0  0  0  0  0  0  0  0  0  0  0
   14.7911  -13.9346   18.6805 C   0  0  0  0  0  0  0  0  0  0  0  0
   15.7911  -13.2505   17.9907 C   0  0  0  0  0  0  0  0  0  0  0  0
   16.4852  -13.9080   16.9991 C   0  0  0  0  0  0  0  0  0  0  0  0
   16.1654  -15.2359   16.7211 C   0  0  0  0  0  0  0  0  0  0  0  0
   15.2157  -15.8679   17.3839 N   0  0  0  0  0  0  0  0  0  0  0  0
   14.5187  -15.2923   18.3393 C   0  0  0  0  0  0  0  0  0  0  0  0
   13.6497  -15.9244   18.9150 O   0  0  0  0  0  0  0  0  0  0  0  0
   15.0215  -16.8055   17.1548 H   0  0  0  0  0  0  0  0  0  0  0  0
   11.0689  -11.5633   24.1633 C   0  0  0  0  0  0  0  0  0  0  0  0
   10.3856  -12.6108   24.5291 N   0  0  0  0  0  0  0  0  0  0  0  0
   11.1157  -10.4649   24.8903 N   0  0  0  0  0  0  0  0  0  0  0  0
   10.3739  -13.4142   23.9601 H   0  0  0  0  0  0  0  0  0  0  0  0
    9.8811  -12.5989   25.3744 H   0  0  0  0  0  0  0  0  0  0  0  0
   11.6428   -9.6927   24.5819 H   0  0  0  0  0  0  0  0  0  0  0  0
   10.6236  -10.4167   25.7416 H   0  0  0  0  0  0  0  0  0  0  0  0
  1  2  1  0  0  0
  1  6  2  0  0  0
  1 19  1  0  0  0
  2  3  2  0  0  0
  3  4  1  0  0  0
  4  5  2  0  0  0
  4  7  1  0  0  0
  5  6  1  0  0  0
  5  8  1  0  0  0
 19 20  1  0  0  0
 19 21  2  0  0  0
  7  9  1  0  0  0
  8  9  2  0  0  0
  9 11  1  0  0  0
 11 12  2  0  0  0
 11 16  1  0  0  0
 12 13  1  0  0  0
 13 14  2  0  0  0
 14 15  1  0  0  0
 15 16  1  0  0  0
 16 17  2  0  0  0
 20 22  1  0  0  0
 20 23  1  0  0  0
 21 24  1  0  0  0
 21 25  1  0  0  0
  7 10  1  0  0  0
 15 18  1  0  0  0
M  CHG 1  21   1
M  END
> <minimizedAffinity>
-7.71805

$$$$
1GHV_120_H_246


 25 27  0  0  0  0  0  0  0  0999 V2000
   11.9688  -11.5529   22.7522 C   0  0  0  0  0  0  0  0  0  0  0  0
   12.7795  -10.9581   21.7549 C   0  0  0  0  0  0  0  0  0  0  0  0
   13.2593  -11.7076   20.6923 C   0  0  0  0  0  0  0  0  0  0  0  0
   12.9094  -13.0232   20.6647 C   0  0  0  0  0  0  0  0  0  0  0  0
   12.1401  -13.6384   21.5913 C   0  0  0  0  0  0  0  0  0  0  0  0
   11.6417  -12.9265   22.6673 C   0  0  0  0  0  0  0  0  0  0  0  0
   13.2099  -13.9207   19.8276 N   0  0  0  0  0  0  0  0  0  0  0  0
   11.9497  -14.9102   21.3400 N   0  0  0  0  0  0  0  0  0  0  0  0
   12.6438  -15.0287   20.2144 C   0  0  0  0  0  0  0  0  0  0  0  0
   13.7708  -13.8039   19.0270 H   0  0  0  0  0  0  0  0  0  0  0  0
   12.7362  -16.2047   19.4791 C   0  0  0  0  0  0  0  0  0  0  0  0
   11.5837  -16.9668   19.2927 C   0  0  0  0  0  0  0  0  0  0  0  0
   11.6664  -18.1309   18.5608 C   0  0  0  0  0  0  0  0  0  0  0  0
   12.8995  -18.5056   18.0297 C   0  0  0  0  0  0  0  0  0  0  0  0
   13.9802  -17.7720   18.2163 N   0  0  0  0  0  0  0  0  0  0  0  0
   13.9631  -16.6526   18.9065 C   0  0  0  0  0  0  0  0  0  0  0  0
   14.9940  -16.0179   19.0500 O   0  0  0  0  0  0  0  0  0  0  0  0
   14.8313  -18.0739   17.8242 H   0  0  0  0  0  0  0  0  0  0  0  0
   11.5093  -10.7927   23.8086 C   0  0  0  0  0  0  0  0  0  0  0  0
   10.5595  -11.2790   24.5564 N   0  0  0  0  0  0  0  0  0  0  0  0
   12.0458   -9.6100   24.0332 N   0  0  0  0  0  0  0  0  0  0  0  0
   10.1825  -12.1666   24.3581 H   0  0  0  0  0  0  0  0  0  0  0  0
   10.2187  -10.7588   25.3196 H   0  0  0  0  0  0  0  0  0  0  0  0
   12.7620   -9.2749   23.4468 H   0  0  0  0  0  0  0  0  0  0  0  0
   11.7302   -9.0616   24.7875 H   0  0  0  0  0  0  0  0  0  0  0  0
  1  2  1  0  0  0
  1  6  2  0  0  0
  1 19  1  0  0  0
  2  3  2  0  0  0
  3  4  1  0  0  0
  4  5  2  0  0  0
  4  7  1  0  0  0
  5  6  1  0  0  0
  5  8  1  0  0  0
 19 20  1  0  0  0
 19 21  2  0  0  0
  7  9  1  0  0  0
  8  9  2  0  0  0
  9 11  1  0  0  0
 11 12  2  0  0  0
 11 16  1  0  0  0
 12 13  1  0  0  0
 13 14  2  0  0  0
 14 15  1  0  0  0
 15 16  1  0  0  0
 16 17  2  0  0  0
 20 22  1  0  0  0
 20 23  1  0  0  0
 21 24  1  0  0  0
 21 25  1  0  0  0
  7 10  1  0  0  0
 15 18  1  0  0  0
M  CHG 1  21   1
M  END
> <minimizedAffinity>
-7.50217

$$$$
1GHV_120_H_246


 25 27  0  0  0  0  0  0  0  0999 V2000
   15.6511  -12.7797   16.0177 C   0  0  0  0  0  0  0  0  0  0  0  0
   16.0120  -14.0499   16.5300 C   0  0  0  0  0  0  0  0  0  0  0  0
   15.5779  -14.4580   17.7815 C   0  0  0  0  0  0  0  0  0  0  0  0
   14.7977  -13.5827   18.4736 C   0  0  0  0  0  0  0  0  0  0  0  0
   14.4265  -12.3602   18.0303 C   0  0  0  0  0  0  0  0  0  0  0  0
   14.8386  -11.9147   16.7874 C   0  0  0  0  0  0  0  0  0  0  0  0
   14.2801  -13.6958   19.6207 N   0  0  0  0  0  0  0  0  0  0  0  0
   13.6761  -11.7089   18.8846 N   0  0  0  0  0  0  0  0  0  0  0  0
   13.6147  -12.6024   19.8647 C   0  0  0  0  0  0  0  0  0  0  0  0
   14.3644  -14.4708   20.2220 H   0  0  0  0  0  0  0  0  0  0  0  0
   12.8807  -12.4258   21.0318 C   0  0  0  0  0  0  0  0  0  0  0  0
   12.9049  -11.1775   21.6522 C   0  0  0  0  0  0  0  0  0  0  0  0
   12.1759  -10.9934   22.8064 C   0  0  0  0  0  0  0  0  0  0  0  0
   11.4371  -12.0611   23.3131 C   0  0  0  0  0  0  0  0  0  0  0  0
   11.4258  -13.2360   22.7127 N   0  0  0  0  0  0  0  0  0  0  0  0
   12.1025  -13.4717   21.6098 C   0  0  0  0  0  0  0  0  0  0  0  0
   12.0581  -14.5788   21.1012 O   0  0  0  0  0  0  0  0  0  0  0  0
   10.8909  -13.9634   23.1050 H   0  0  0  0  0  0  0  0  0  0  0  0
   16.1020  -12.3866   14.7739 C   0  0  0  0  0  0  0  0  0  0  0  0
   16.6404  -13.2834   13.9969 N   0  0  0  0  0  0  0  0  0  0  0  0
   15.9688  -11.1274   14.4080 N   0  0  0  0  0  0  0  0  0  0  0  0
   16.7233  -14.2151   14.3041 H   0  0  0  0  0  0  0  0  0  0  0  0
   16.9642  -13.0294   13.1025 H   0  0  0  0  0  0  0  0  0  0  0  0
   15.5568  -10.4774   15.0221 H   0  0  0  0  0  0  0  0  0  0  0  0
   16.2811  -10.8369   13.5208 H   0  0  0  0  0  0  0  0  0  0  0  0
  1  2  1  0  0  0
  1  6  2  0  0  0
  1 19  1  0  0  0
  2  3  2  0  0  0
  3  4  1  0  0  0
  4  5  2  0  0  0
  4  7  1  0  0  0
  5  6  1  0  0  0
  5  8  1  0  0  0
 19 20  1  0  0  0
 19 21  2  0  0  0
  7  9  1  0  0  0
  8  9  2  0  0  0
  9 11  1  0  0  0
 11 12  2  0  0  0
 11 16  1  0  0  0
 12 13  1  0  0  0
 13 14  2  0  0  0
 14 15  1  0  0  0
 15 16  1  0  0  0
 16 17  2  0  0  0
 20 22  1  0  0  0
 20 23  1  0  0  0
 21 24  1  0  0  0
 21 25  1  0  0  0
  7 10  1  0  0  0
 15 18  1  0  0  0
M  CHG 1  21   1
M  END
> <minimizedAffinity>
-7.44240

$$$$
1GHV_120_H_246


 25 27  0  0  0  0  0  0  0  0999 V2000
   16.1599  -13.8290   17.3193 C   0  0  0  0  0  0  0  0  0  0  0  0
   17.2369  -13.6163   18.2141 C   0  0  0  0  0  0  0  0  0  0  0  0
   17.0127  -13.1076   19.4837 C   0  0  0  0  0  0  0  0  0  0  0  0
   15.7206  -12.8323   19.8129 C   0  0  0  0  0  0  0  0  0  0  0  0
   14.6586  -13.0160   18.9960 C   0  0  0  0  0  0  0  0  0  0  0  0
   14.8390  -13.5210   17.7211 C   0  0  0  0  0  0  0  0  0  0  0  0
   15.2433  -12.3623   20.8842 N   0  0  0  0  0  0  0  0  0  0  0  0
   13.5202  -12.6725   19.5466 N   0  0  0  0  0  0  0  0  0  0  0  0
   13.9517  -12.2729   20.7369 C   0  0  0  0  0  0  0  0  0  0  0  0
   15.7552  -12.1091   21.6861 H   0  0  0  0  0  0  0  0  0  0  0  0
   13.1172  -11.8363   21.7591 C   0  0  0  0  0  0  0  0  0  0  0  0
   12.2158  -12.7421   22.3167 C   0  0  0  0  0  0  0  0  0  0  0  0
   11.3890  -12.3181   23.3336 C   0  0  0  0  0  0  0  0  0  0  0  0
   11.4838  -10.9983   23.7719 C   0  0  0  0  0  0  0  0  0  0  0  0
   12.3428  -10.1546   23.2325 N   0  0  0  0  0  0  0  0  0  0  0  0
   13.1560  -10.5011   22.2587 C   0  0  0  0  0  0  0  0  0  0  0  0
   13.9262   -9.6774   21.7955 O   0  0  0  0  0  0  0  0  0  0  0  0
   12.3763   -9.2309   23.5717 H   0  0  0  0  0  0  0  0  0  0  0  0
   16.4041  -14.3262   16.0551 C   0  0  0  0  0  0  0  0  0  0  0  0
   17.0690  -13.5852   15.2145 N   0  0  0  0  0  0  0  0  0  0  0  0
   15.9682  -15.5295   15.7402 N   0  0  0  0  0  0  0  0  0  0  0  0
   17.3790  -12.6908   15.4850 H   0  0  0  0  0  0  0  0  0  0  0  0
   17.2613  -13.9197   14.3087 H   0  0  0  0  0  0  0  0  0  0  0  0
   15.4690  -16.0610   16.4017 H   0  0  0  0  0  0  0  0  0  0  0  0
   16.1419  -15.8969   14.8435 H   0  0  0  0  0  0  0  0  0  0  0  0
  1  2  1  0  0  0
  1  6  2  0  0  0
  1 19  1  0  0  0
  2  3  2  0  0  0
  3  4  1  0  0  0
  4  5  2  0  0  0
  4  7  1  0  0  0
  5  6  1  0  0  0
  5  8  1  0  0  0
 19 20  1  0  0  0
 19 21  2  0  0  0
  7  9  1  0  0  0
  8  9  2  0  0  0
  9 11  1  0  0  0
 11 12  2  0  0  0
 11 16  1  0  0  0
 12 13  1  0  0  0
 13 14  2  0  0  0
 14 15  1  0  0  0
 15 16  1  0  0  0
 16 17  2  0  0  0
 20 22  1  0  0  0
 20 23  1  0  0  0
 21 24  1  0  0  0
 21 25  1  0  0  0
  7 10  1  0  0  0
 15 18  1  0  0  0
M  CHG 1  21   1
M  END
> <minimizedAffinity>
-7.25715

$$$$
1GHV_120_H_246


 25 27  0  0  0  0  0  0  0  0999 V2000
   11.9441  -11.6346   22.8286 C   0  0  0  0  0  0  0  0  0  0  0  0
   12.5139  -10.9101   21.7533 C   0  0  0  0  0  0  0  0  0  0  0  0
   13.0502  -11.5713   20.6595 C   0  0  0  0  0  0  0  0  0  0  0  0
   12.9951  -12.9315   20.6798 C   0  0  0  0  0  0  0  0  0  0  0  0
   12.4638  -13.6691   21.6811 C   0  0  0  0  0  0  0  0  0  0  0  0
   11.9189  -13.0484   22.7905 C   0  0  0  0  0  0  0  0  0  0  0  0
   13.4093  -13.7688   19.8288 N   0  0  0  0  0  0  0  0  0  0  0  0
   12.5344  -14.9593   21.4634 N   0  0  0  0  0  0  0  0  0  0  0  0
   13.1354  -14.9603   20.2795 C   0  0  0  0  0  0  0  0  0  0  0  0
   13.8582  -13.5586   18.9782 H   0  0  0  0  0  0  0  0  0  0  0  0
   13.4172  -16.1110   19.5526 C   0  0  0  0  0  0  0  0  0  0  0  0
   14.7513  -16.4607   19.3483 C   0  0  0  0  0  0  0  0  0  0  0  0
   15.0383  -17.6025   18.6332 C   0  0  0  0  0  0  0  0  0  0  0  0
   13.9847  -18.3704   18.1403 C   0  0  0  0  0  0  0  0  0  0  0  0
   12.7277  -18.0243   18.3431 N   0  0  0  0  0  0  0  0  0  0  0  0
   12.3924  -16.9454   19.0165 C   0  0  0  0  0  0  0  0  0  0  0  0
   11.2140  -16.6727   19.1688 O   0  0  0  0  0  0  0  0  0  0  0  0
   12.0141  -18.5950   17.9766 H   0  0  0  0  0  0  0  0  0  0  0  0
   11.4247  -10.9588   23.9142 C   0  0  0  0  0  0  0  0  0  0  0  0
   10.5467  -11.5661   24.6613 N   0  0  0  0  0  0  0  0  0  0  0  0
   11.8346   -9.7318   24.1663 N   0  0  0  0  0  0  0  0  0  0  0  0
   10.2642  -12.4834   24.4422 H   0  0  0  0  0  0  0  0  0  0  0  0
   10.1659  -11.1077   25.4450 H   0  0  0  0  0  0  0  0  0  0  0  0
   12.4996   -9.3046   23.5794 H   0  0  0  0  0  0  0  0  0  0  0  0
   11.4756   -9.2424   24.9415 H   0  0  0  0  0  0  0  0  0  0  0  0
  1  2  1  0  0  0
  1  6  2  0  0  0
  1 19  1  0  0  0
  2  3  2  0  0  0
  3  4  1  0  0  0
  4  5  2  0  0  0
  4  7  1  0  0  0
  5  6  1  0  0  0
  5  8  1  0  0  0
 19 20  1  0  0  0
 19 21  2  0  0  0
  7  9  1  0  0  0
  8  9  2  0  0  0
  9 11  1  0  0  0
 11 12  2  0  0  0
 11 16  1  0  0  0
 12 13  1  0  0  0
 13 14  2  0  0  0
 14 15  1  0  0  0
 15 16  1  0  0  0
 16 17  2  0  0  0
 20 22  1  0  0  0
 20 23  1  0  0  0
 21 24  1  0  0  0
 21 25  1  0  0  0
  7 10  1  0  0  0
 15 18  1  0  0  0
M  CHG 1  21   1
M  END
> <minimizedAffinity>
-7.09503

$$$$
