4POW_OP1_A_303


 26 26  0  0  0  0  0  0  0  0999 V2000
    3.5160   18.4029    2.8341 C   0  0  0  0  0  0  0  0  0  0  0  0
    3.2877   19.3156    1.7087 N   0  0  0  0  0  0  0  0  0  0  0  0
    3.5286   20.7338    1.4990 C   0  0  0  0  0  0  0  0  0  0  0  0
    2.8935   21.0704    0.1958 C   0  0  0  0  0  0  0  0  0  0  0  0
    2.8769   19.8046   -0.6122 C   0  0  0  0  0  0  0  0  0  0  0  0
    2.8650   18.7620    0.4508 C   0  0  0  0  0  0  0  0  0  0  0  0
    3.0139   17.4377    0.1718 O   0  0  0  0  0  0  0  0  0  0  0  0
    4.9775   20.9844    1.4033 C   0  0  0  0  0  0  0  0  0  0  0  0
    5.4504   22.1674    1.4690 O   0  0  0  0  0  0  0  0  0  0  0  0
    5.7792   20.0306    1.2868 O   0  0  0  0  0  0  0  0  0  0  0  0
    5.4578   19.1519    1.2364 H   0  0  0  0  0  0  0  0  0  0  0  0
    2.2005   17.8137    3.3365 C   0  0  0  0  0  0  0  0  0  0  0  0
    1.2188   18.5802    3.5171 O   0  0  0  0  0  0  0  0  0  0  0  0
    2.1069   16.5492    3.4913 O   0  0  0  0  0  0  0  0  0  0  0  0
    1.3173   19.5041    3.3960 H   0  0  0  0  0  0  0  0  0  0  0  0
    4.2611   19.0351    3.9965 C   0  0  0  0  0  0  0  0  0  0  0  0
    3.4036   19.5664    5.0828 C   0  0  0  0  0  0  0  0  0  0  0  0
    4.1927   20.3488    6.0568 C   0  0  0  0  0  0  0  0  0  0  0  0
    3.3276   21.4357    6.5515 N   0  0  0  0  0  0  0  0  0  0  0  0
    2.6444   21.8299    5.9624 H   0  0  0  0  0  0  0  0  0  0  0  0
    3.4846   21.9165    7.8927 C   0  0  0  0  0  0  0  0  0  0  0  0
    4.2339   21.1249    8.6705 N   0  0  0  0  0  0  0  0  0  0  0  0
    2.9419   23.0427    8.3036 N   0  0  0  0  0  0  0  0  0  0  0  0
    4.6136   20.2931    8.3056 H   0  0  0  0  0  0  0  0  0  0  0  0
    2.4000   23.5829    7.6841 H   0  0  0  0  0  0  0  0  0  0  0  0
    3.0779   23.3452    9.2306 H   0  0  0  0  0  0  0  0  0  0  0  0
  5  4  1  0  0  0
  5  6  1  0  0  0
  7  6  2  0  0  0
  4  3  1  0  0  0
  6  2  1  0  0  0
  9  8  2  0  0  0
  8 10  1  0  0  0
  8  3  1  0  0  0
  3  2  1  0  0  0
  2  1  1  0  0  0
  1 12  1  0  0  0
  1 16  1  0  0  0
 14 12  2  0  0  0
 12 13  1  0  0  0
 16 17  1  0  0  0
 17 18  1  0  0  0
 18 19  1  0  0  0
 19 21  1  0  0  0
 21 22  2  0  0  0
 21 23  1  0  0  0
 13 15  1  0  0  0
 19 20  1  0  0  0
 22 24  1  0  0  0
 23 25  1  0  0  0
 23 26  1  0  0  0
 10 11  1  0  0  0
M  END
> <minimizedAffinity>
-9.70109

$$$$
4POW_OP1_A_303


 26 26  0  0  0  0  0  0  0  0999 V2000
    3.1772   18.4789    2.2721 C   0  0  0  0  0  0  0  0  0  0  0  0
    2.8223   19.2033    1.0470 N   0  0  0  0  0  0  0  0  0  0  0  0
    2.8053   20.6096    0.6792 C   0  0  0  0  0  0  0  0  0  0  0  0
    2.1624   20.6762   -0.6614 C   0  0  0  0  0  0  0  0  0  0  0  0
    2.4049   19.3482   -1.3193 C   0  0  0  0  0  0  0  0  0  0  0  0
    2.5498   18.4454   -0.1442 C   0  0  0  0  0  0  0  0  0  0  0  0
    2.9484   17.1494   -0.2680 O   0  0  0  0  0  0  0  0  0  0  0  0
    4.1860   21.1134    0.5724 C   0  0  0  0  0  0  0  0  0  0  0  0
    5.1873   20.3372    0.7226 O   0  0  0  0  0  0  0  0  0  0  0  0
    4.4026   22.3151    0.2988 O   0  0  0  0  0  0  0  0  0  0  0  0
    3.6847   22.9061    0.1834 H   0  0  0  0  0  0  0  0  0  0  0  0
    1.9507   17.8101    2.8873 C   0  0  0  0  0  0  0  0  0  0  0  0
    1.8311   16.5601    2.8025 O   0  0  0  0  0  0  0  0  0  0  0  0
    1.1141   18.5256    3.5353 O   0  0  0  0  0  0  0  0  0  0  0  0
    2.4604   16.0609    2.3201 H   0  0  0  0  0  0  0  0  0  0  0  0
    3.8595   19.3408    3.3197 C   0  0  0  0  0  0  0  0  0  0  0  0
    4.1286   18.6687    4.6134 C   0  0  0  0  0  0  0  0  0  0  0  0
    4.9180   19.5336    5.5147 C   0  0  0  0  0  0  0  0  0  0  0  0
    4.1642   19.6584    6.7758 N   0  0  0  0  0  0  0  0  0  0  0  0
    3.9268   18.8537    7.2909 H   0  0  0  0  0  0  0  0  0  0  0  0
    3.7780   20.9550    7.2494 C   0  0  0  0  0  0  0  0  0  0  0  0
    3.1089   21.6863    6.3491 N   0  0  0  0  0  0  0  0  0  0  0  0
    4.0560   21.3701    8.4669 N   0  0  0  0  0  0  0  0  0  0  0  0
    2.9308   21.3209    5.4525 H   0  0  0  0  0  0  0  0  0  0  0  0
    4.5520   20.7859    9.0849 H   0  0  0  0  0  0  0  0  0  0  0  0
    3.7678   22.2648    8.7598 H   0  0  0  0  0  0  0  0  0  0  0  0
  5  4  1  0  0  0
  5  6  1  0  0  0
  7  6  2  0  0  0
  4  3  1  0  0  0
  6  2  1  0  0  0
  9  8  2  0  0  0
  8 10  1  0  0  0
  8  3  1  0  0  0
  3  2  1  0  0  0
  2  1  1  0  0  0
  1 12  1  0  0  0
  1 16  1  0  0  0
 14 12  2  0  0  0
 12 13  1  0  0  0
 16 17  1  0  0  0
 17 18  1  0  0  0
 18 19  1  0  0  0
 19 21  1  0  0  0
 21 22  2  0  0  0
 21 23  1  0  0  0
 13 15  1  0  0  0
 19 20  1  0  0  0
 22 24  1  0  0  0
 23 25  1  0  0  0
 23 26  1  0  0  0
 10 11  1  0  0  0
M  END
> <minimizedAffinity>
-9.04328

$$$$
4POW_OP1_A_303


 26 26  0  0  0  0  0  0  0  0999 V2000
    3.1029   19.2325    0.7422 C   0  0  0  0  0  0  0  0  0  0  0  0
    3.1920   19.2868    2.2054 N   0  0  0  0  0  0  0  0  0  0  0  0
    2.4474   18.6556    3.2825 C   0  0  0  0  0  0  0  0  0  0  0  0
    2.9314   19.2853    4.5411 C   0  0  0  0  0  0  0  0  0  0  0  0
    4.3316   19.7576    4.2727 C   0  0  0  0  0  0  0  0  0  0  0  0
    4.3049   19.9761    2.8002 C   0  0  0  0  0  0  0  0  0  0  0  0
    5.4299   20.2570    2.0865 O   0  0  0  0  0  0  0  0  0  0  0  0
    2.7524   17.2144    3.3213 C   0  0  0  0  0  0  0  0  0  0  0  0
    1.8277   16.3396    3.2363 O   0  0  0  0  0  0  0  0  0  0  0  0
    3.9368   16.8195    3.4071 O   0  0  0  0  0  0  0  0  0  0  0  0
    4.6346   17.4416    3.4707 H   0  0  0  0  0  0  0  0  0  0  0  0
    2.8293   20.6162    0.1588 C   0  0  0  0  0  0  0  0  0  0  0  0
    2.8635   21.6169    0.9212 O   0  0  0  0  0  0  0  0  0  0  0  0
    2.6448   20.7328   -1.0999 O   0  0  0  0  0  0  0  0  0  0  0  0
    3.0005   21.5008    1.8408 H   0  0  0  0  0  0  0  0  0  0  0  0
    2.0630   18.2537    0.2259 C   0  0  0  0  0  0  0  0  0  0  0  0
    2.6067   17.0623   -0.4689 C   0  0  0  0  0  0  0  0  0  0  0  0
    2.5333   17.2158   -1.9368 C   0  0  0  0  0  0  0  0  0  0  0  0
    1.4632   18.1888   -2.2240 N   0  0  0  0  0  0  0  0  0  0  0  0
    0.8416   18.4637   -1.5118 H   0  0  0  0  0  0  0  0  0  0  0  0
    1.3309   18.7330   -3.5435 C   0  0  0  0  0  0  0  0  0  0  0  0
    0.7786   17.8915   -4.4265 N   0  0  0  0  0  0  0  0  0  0  0  0
    1.7143   19.9563   -3.8409 N   0  0  0  0  0  0  0  0  0  0  0  0
    0.5117   16.9869   -4.1440 H   0  0  0  0  0  0  0  0  0  0  0  0
    2.1147   20.5290   -3.1474 H   0  0  0  0  0  0  0  0  0  0  0  0
    1.6006   20.2987   -4.7569 H   0  0  0  0  0  0  0  0  0  0  0  0
  5  4  1  0  0  0
  5  6  1  0  0  0
  7  6  2  0  0  0
  4  3  1  0  0  0
  6  2  1  0  0  0
  9  8  2  0  0  0
  8 10  1  0  0  0
  8  3  1  0  0  0
  3  2  1  0  0  0
  2  1  1  0  0  0
  1 12  1  0  0  0
  1 16  1  0  0  0
 14 12  2  0  0  0
 12 13  1  0  0  0
 16 17  1  0  0  0
 17 18  1  0  0  0
 18 19  1  0  0  0
 19 21  1  0  0  0
 21 22  2  0  0  0
 21 23  1  0  0  0
 13 15  1  0  0  0
 19 20  1  0  0  0
 22 24  1  0  0  0
 23 25  1  0  0  0
 23 26  1  0  0  0
 10 11  1  0  0  0
M  END
> <minimizedAffinity>
-8.58392

$$$$
4POW_OP1_A_303


 26 26  0  0  0  0  0  0  0  0999 V2000
    3.8231   19.8490    2.0056 C   0  0  0  0  0  0  0  0  0  0  0  0
    3.2824   19.0656    0.8895 N   0  0  0  0  0  0  0  0  0  0  0  0
    2.9149   17.6686    0.7263 C   0  0  0  0  0  0  0  0  0  0  0  0
    2.6063   17.4908   -0.7188 C   0  0  0  0  0  0  0  0  0  0  0  0
    2.1681   18.8327   -1.2314 C   0  0  0  0  0  0  0  0  0  0  0  0
    2.8646   19.7603   -0.2980 C   0  0  0  0  0  0  0  0  0  0  0  0
    2.6217   21.1000   -0.2887 O   0  0  0  0  0  0  0  0  0  0  0  0
    1.7035   17.3768    1.5129 C   0  0  0  0  0  0  0  0  0  0  0  0
    1.4593   17.9904    2.6044 O   0  0  0  0  0  0  0  0  0  0  0  0
    0.8698   16.5375    1.1046 O   0  0  0  0  0  0  0  0  0  0  0  0
    1.0253   16.0731    0.3058 H   0  0  0  0  0  0  0  0  0  0  0  0
    5.1206   20.5470    1.6064 C   0  0  0  0  0  0  0  0  0  0  0  0
    6.1218   19.8465    1.3051 O   0  0  0  0  0  0  0  0  0  0  0  0
    5.1370   21.8212    1.5176 O   0  0  0  0  0  0  0  0  0  0  0  0
    6.0806   18.9135    1.3803 H   0  0  0  0  0  0  0  0  0  0  0  0
    4.0549   19.0393    3.2692 C   0  0  0  0  0  0  0  0  0  0  0  0
    4.3807   19.8336    4.4777 C   0  0  0  0  0  0  0  0  0  0  0  0
    3.3907   19.6093    5.5516 C   0  0  0  0  0  0  0  0  0  0  0  0
    4.0669   19.8737    6.8350 N   0  0  0  0  0  0  0  0  0  0  0  0
    4.6866   19.2086    7.2129 H   0  0  0  0  0  0  0  0  0  0  0  0
    3.8190   21.1022    7.5308 C   0  0  0  0  0  0  0  0  0  0  0  0
    4.1918   21.0842    8.8167 N   0  0  0  0  0  0  0  0  0  0  0  0
    3.2812   22.1481    6.9403 N   0  0  0  0  0  0  0  0  0  0  0  0
    4.5893   20.2705    9.2027 H   0  0  0  0  0  0  0  0  0  0  0  0
    3.0272   22.1006    5.9903 H   0  0  0  0  0  0  0  0  0  0  0  0
    3.1328   22.9781    7.4486 H   0  0  0  0  0  0  0  0  0  0  0  0
  5  4  1  0  0  0
  5  6  1  0  0  0
  7  6  2  0  0  0
  4  3  1  0  0  0
  6  2  1  0  0  0
  9  8  2  0  0  0
  8 10  1  0  0  0
  8  3  1  0  0  0
  3  2  1  0  0  0
  2  1  1  0  0  0
  1 12  1  0  0  0
  1 16  1  0  0  0
 14 12  2  0  0  0
 12 13  1  0  0  0
 16 17  1  0  0  0
 17 18  1  0  0  0
 18 19  1  0  0  0
 19 21  1  0  0  0
 21 22  2  0  0  0
 21 23  1  0  0  0
 13 15  1  0  0  0
 19 20  1  0  0  0
 22 24  1  0  0  0
 23 25  1  0  0  0
 23 26  1  0  0  0
 10 11  1  0  0  0
M  END
> <minimizedAffinity>
-8.47151

$$$$
4POW_OP1_A_303


 26 26  0  0  0  0  0  0  0  0999 V2000
    2.2457   18.2975    1.4280 C   0  0  0  0  0  0  0  0  0  0  0  0
    3.0014   18.5976    2.6489 N   0  0  0  0  0  0  0  0  0  0  0  0
    4.3786   18.9827    2.9102 C   0  0  0  0  0  0  0  0  0  0  0  0
    4.5407   18.9512    4.3893 C   0  0  0  0  0  0  0  0  0  0  0  0
    3.1789   19.1921    4.9747 C   0  0  0  0  0  0  0  0  0  0  0  0
    2.2868   18.6910    3.8931 C   0  0  0  0  0  0  0  0  0  0  0  0
    0.9368   18.8649    3.9253 O   0  0  0  0  0  0  0  0  0  0  0  0
    4.6107   20.3575    2.4333 C   0  0  0  0  0  0  0  0  0  0  0  0
    5.5270   20.6180    1.5848 O   0  0  0  0  0  0  0  0  0  0  0  0
    3.8862   21.2970    2.8314 O   0  0  0  0  0  0  0  0  0  0  0  0
    3.2059   21.1325    3.4544 H   0  0  0  0  0  0  0  0  0  0  0  0
    1.5658   16.9344    1.5263 C   0  0  0  0  0  0  0  0  0  0  0  0
    1.5414   16.3441    2.6375 O   0  0  0  0  0  0  0  0  0  0  0  0
    0.9758   16.4604    0.4972 O   0  0  0  0  0  0  0  0  0  0  0  0
    1.9835   16.7158    3.3753 H   0  0  0  0  0  0  0  0  0  0  0  0
    3.0792   18.3543    0.1599 C   0  0  0  0  0  0  0  0  0  0  0  0
    2.9146   19.5850   -0.6499 C   0  0  0  0  0  0  0  0  0  0  0  0
    1.5265   19.7269   -1.1363 C   0  0  0  0  0  0  0  0  0  0  0  0
    1.5873   19.8744   -2.6022 N   0  0  0  0  0  0  0  0  0  0  0  0
    1.7032   20.7655   -3.0044 H   0  0  0  0  0  0  0  0  0  0  0  0
    1.4770   18.7163   -3.4397 C   0  0  0  0  0  0  0  0  0  0  0  0
    0.2356   18.2218   -3.5241 N   0  0  0  0  0  0  0  0  0  0  0  0
    2.5123   18.2038   -4.0701 N   0  0  0  0  0  0  0  0  0  0  0  0
   -0.4995   18.6496   -3.0282 H   0  0  0  0  0  0  0  0  0  0  0  0
    3.4022   18.6124   -3.9686 H   0  0  0  0  0  0  0  0  0  0  0  0
    2.3968   17.4116   -4.6432 H   0  0  0  0  0  0  0  0  0  0  0  0
  5  4  1  0  0  0
  5  6  1  0  0  0
  7  6  2  0  0  0
  4  3  1  0  0  0
  6  2  1  0  0  0
  9  8  2  0  0  0
  8 10  1  0  0  0
  8  3  1  0  0  0
  3  2  1  0  0  0
  2  1  1  0  0  0
  1 12  1  0  0  0
  1 16  1  0  0  0
 14 12  2  0  0  0
 12 13  1  0  0  0
 16 17  1  0  0  0
 17 18  1  0  0  0
 18 19  1  0  0  0
 19 21  1  0  0  0
 21 22  2  0  0  0
 21 23  1  0  0  0
 13 15  1  0  0  0
 19 20  1  0  0  0
 22 24  1  0  0  0
 23 25  1  0  0  0
 23 26  1  0  0  0
 10 11  1  0  0  0
M  END
> <minimizedAffinity>
-7.73240

$$$$
4POW_OP1_A_303


 26 26  0  0  0  0  0  0  0  0999 V2000
    2.6594   19.3120    1.0663 C   0  0  0  0  0  0  0  0  0  0  0  0
    2.9612   19.3418    2.5015 N   0  0  0  0  0  0  0  0  0  0  0  0
    2.4107   18.6566    3.6594 C   0  0  0  0  0  0  0  0  0  0  0  0
    3.0484   19.2829    4.8493 C   0  0  0  0  0  0  0  0  0  0  0  0
    4.3726   19.8233    4.3910 C   0  0  0  0  0  0  0  0  0  0  0  0
    4.1198   20.0690    2.9445 C   0  0  0  0  0  0  0  0  0  0  0  0
    5.1143   20.4145    2.0811 O   0  0  0  0  0  0  0  0  0  0  0  0
    2.7783   17.2302    3.6157 C   0  0  0  0  0  0  0  0  0  0  0  0
    3.9889   16.8540    3.7584 O   0  0  0  0  0  0  0  0  0  0  0  0
    1.8979   16.3532    3.4683 O   0  0  0  0  0  0  0  0  0  0  0  0
    1.0011   16.6029    3.3615 H   0  0  0  0  0  0  0  0  0  0  0  0
    3.2048   18.0420    0.4185 C   0  0  0  0  0  0  0  0  0  0  0  0
    4.3903   17.6954    0.6599 O   0  0  0  0  0  0  0  0  0  0  0  0
    2.4235   17.3245   -0.2931 O   0  0  0  0  0  0  0  0  0  0  0  0
    4.9406   18.2423    1.1853 H   0  0  0  0  0  0  0  0  0  0  0  0
    3.1688   20.5239    0.3061 C   0  0  0  0  0  0  0  0  0  0  0  0
    3.0419   20.4439   -1.1687 C   0  0  0  0  0  0  0  0  0  0  0  0
    1.6246   20.4067   -1.5853 C   0  0  0  0  0  0  0  0  0  0  0  0
    1.5867   19.9036   -2.9708 N   0  0  0  0  0  0  0  0  0  0  0  0
    1.7525   20.5162   -3.7234 H   0  0  0  0  0  0  0  0  0  0  0  0
    1.3077   18.5196   -3.2185 C   0  0  0  0  0  0  0  0  0  0  0  0
    0.0039   18.2408   -3.3424 N   0  0  0  0  0  0  0  0  0  0  0  0
    2.2608   17.6180   -3.3218 N   0  0  0  0  0  0  0  0  0  0  0  0
   -0.6636   18.9592   -3.2548 H   0  0  0  0  0  0  0  0  0  0  0  0
    3.2032   17.8841   -3.2209 H   0  0  0  0  0  0  0  0  0  0  0  0
    2.0313   16.6773   -3.5001 H   0  0  0  0  0  0  0  0  0  0  0  0
  5  4  1  0  0  0
  5  6  1  0  0  0
  7  6  2  0  0  0
  4  3  1  0  0  0
  6  2  1  0  0  0
  9  8  2  0  0  0
  8 10  1  0  0  0
  8  3  1  0  0  0
  3  2  1  0  0  0
  2  1  1  0  0  0
  1 12  1  0  0  0
  1 16  1  0  0  0
 14 12  2  0  0  0
 12 13  1  0  0  0
 16 17  1  0  0  0
 17 18  1  0  0  0
 18 19  1  0  0  0
 19 21  1  0  0  0
 21 22  2  0  0  0
 21 23  1  0  0  0
 13 15  1  0  0  0
 19 20  1  0  0  0
 22 24  1  0  0  0
 23 25  1  0  0  0
 23 26  1  0  0  0
 10 11  1  0  0  0
M  END
> <minimizedAffinity>
-7.70173

$$$$
4POW_OP1_A_303


 26 26  0  0  0  0  0  0  0  0999 V2000
    3.4455   18.2903    2.1942 C   0  0  0  0  0  0  0  0  0  0  0  0
    3.1327   18.6673    0.8116 N   0  0  0  0  0  0  0  0  0  0  0  0
    2.9279   17.9137   -0.4145 C   0  0  0  0  0  0  0  0  0  0  0  0
    2.8273   18.9218   -1.5047 C   0  0  0  0  0  0  0  0  0  0  0  0
    2.3296   20.1893   -0.8714 C   0  0  0  0  0  0  0  0  0  0  0  0
    2.8056   20.0391    0.5313 C   0  0  0  0  0  0  0  0  0  0  0  0
    2.4336   20.8969    1.5211 O   0  0  0  0  0  0  0  0  0  0  0  0
    1.6596   17.1677   -0.3351 C   0  0  0  0  0  0  0  0  0  0  0  0
    1.4991   16.2229    0.5069 O   0  0  0  0  0  0  0  0  0  0  0  0
    0.6984   17.4714   -1.0766 O   0  0  0  0  0  0  0  0  0  0  0  0
    0.7902   18.1616   -1.7036 H   0  0  0  0  0  0  0  0  0  0  0  0
    2.1812   17.8979    2.9541 C   0  0  0  0  0  0  0  0  0  0  0  0
    1.2830   18.7617    3.1301 O   0  0  0  0  0  0  0  0  0  0  0  0
    2.0341   16.6854    3.3284 O   0  0  0  0  0  0  0  0  0  0  0  0
    1.4190   19.6439    2.8450 H   0  0  0  0  0  0  0  0  0  0  0  0
    4.1872   19.3639    2.9710 C   0  0  0  0  0  0  0  0  0  0  0  0
    4.2321   19.1644    4.4393 C   0  0  0  0  0  0  0  0  0  0  0  0
    4.0111   20.4345    5.1615 C   0  0  0  0  0  0  0  0  0  0  0  0
    4.1308   20.1471    6.6028 N   0  0  0  0  0  0  0  0  0  0  0  0
    4.4131   19.2542    6.9065 H   0  0  0  0  0  0  0  0  0  0  0  0
    3.8348   21.1719    7.5603 C   0  0  0  0  0  0  0  0  0  0  0  0
    4.2349   20.8854    8.8056 N   0  0  0  0  0  0  0  0  0  0  0  0
    3.2317   22.2929    7.2263 N   0  0  0  0  0  0  0  0  0  0  0  0
    4.6817   20.0286    8.9942 H   0  0  0  0  0  0  0  0  0  0  0  0
    2.9606   22.4467    6.2924 H   0  0  0  0  0  0  0  0  0  0  0  0
    3.0516   22.9777    7.9103 H   0  0  0  0  0  0  0  0  0  0  0  0
  5  4  1  0  0  0
  5  6  1  0  0  0
  7  6  2  0  0  0
  4  3  1  0  0  0
  6  2  1  0  0  0
  9  8  2  0  0  0
  8 10  1  0  0  0
  8  3  1  0  0  0
  3  2  1  0  0  0
  2  1  1  0  0  0
  1 12  1  0  0  0
  1 16  1  0  0  0
 14 12  2  0  0  0
 12 13  1  0  0  0
 16 17  1  0  0  0
 17 18  1  0  0  0
 18 19  1  0  0  0
 19 21  1  0  0  0
 21 22  2  0  0  0
 21 23  1  0  0  0
 13 15  1  0  0  0
 19 20  1  0  0  0
 22 24  1  0  0  0
 23 25  1  0  0  0
 23 26  1  0  0  0
 10 11  1  0  0  0
M  END
> <minimizedAffinity>
-7.34869

$$$$
4POW_OP1_A_303


 26 26  0  0  0  0  0  0  0  0999 V2000
    3.3848   19.3999    1.6357 C   0  0  0  0  0  0  0  0  0  0  0  0
    2.9456   19.2872    0.2407 N   0  0  0  0  0  0  0  0  0  0  0  0
    2.9325   18.2007   -0.7250 C   0  0  0  0  0  0  0  0  0  0  0  0
    2.5259   18.8079   -2.0215 C   0  0  0  0  0  0  0  0  0  0  0  0
    1.7062   20.0213   -1.6878 C   0  0  0  0  0  0  0  0  0  0  0  0
    2.2385   20.3923   -0.3477 C   0  0  0  0  0  0  0  0  0  0  0  0
    1.6633   21.3577    0.4211 O   0  0  0  0  0  0  0  0  0  0  0  0
    1.9282   17.1966   -0.3318 C   0  0  0  0  0  0  0  0  0  0  0  0
    0.9955   17.4804    0.4910 O   0  0  0  0  0  0  0  0  0  0  0  0
    1.9538   16.0474   -0.8266 O   0  0  0  0  0  0  0  0  0  0  0  0
    2.6283   15.8135   -1.4334 H   0  0  0  0  0  0  0  0  0  0  0  0
    4.6820   20.1978    1.7385 C   0  0  0  0  0  0  0  0  0  0  0  0
    5.7571   19.6650    1.3589 O   0  0  0  0  0  0  0  0  0  0  0  0
    4.6339   21.4102    2.1381 O   0  0  0  0  0  0  0  0  0  0  0  0
    5.7619   18.7733    1.0709 H   0  0  0  0  0  0  0  0  0  0  0  0
    3.5591   18.0631    2.3348 C   0  0  0  0  0  0  0  0  0  0  0  0
    2.5000   17.7190    3.3134 C   0  0  0  0  0  0  0  0  0  0  0  0
    2.9140   18.0504    4.6927 C   0  0  0  0  0  0  0  0  0  0  0  0
    2.7618   19.5076    4.8591 N   0  0  0  0  0  0  0  0  0  0  0  0
    2.0606   19.9905    4.3648 H   0  0  0  0  0  0  0  0  0  0  0  0
    3.6381   20.2188    5.7429 C   0  0  0  0  0  0  0  0  0  0  0  0
    3.1707   21.4130    6.1281 N   0  0  0  0  0  0  0  0  0  0  0  0
    4.7912   19.7231    6.1385 N   0  0  0  0  0  0  0  0  0  0  0  0
    2.2993   21.7304    5.7978 H   0  0  0  0  0  0  0  0  0  0  0  0
    5.0815   18.8378    5.8204 H   0  0  0  0  0  0  0  0  0  0  0  0
    5.3635   20.2377    6.7524 H   0  0  0  0  0  0  0  0  0  0  0  0
  5  4  1  0  0  0
  5  6  1  0  0  0
  7  6  2  0  0  0
  4  3  1  0  0  0
  6  2  1  0  0  0
  9  8  2  0  0  0
  8 10  1  0  0  0
  8  3  1  0  0  0
  3  2  1  0  0  0
  2  1  1  0  0  0
  1 12  1  0  0  0
  1 16  1  0  0  0
 14 12  2  0  0  0
 12 13  1  0  0  0
 16 17  1  0  0  0
 17 18  1  0  0  0
 18 19  1  0  0  0
 19 21  1  0  0  0
 21 22  2  0  0  0
 21 23  1  0  0  0
 13 15  1  0  0  0
 19 20  1  0  0  0
 22 24  1  0  0  0
 23 25  1  0  0  0
 23 26  1  0  0  0
 10 11  1  0  0  0
M  END
> <minimizedAffinity>
-7.29292

$$$$
4POW_OP1_A_303


 26 26  0  0  0  0  0  0  0  0999 V2000
    2.9192   18.6402    0.5043 C   0  0  0  0  0  0  0  0  0  0  0  0
    3.3980   18.6620    1.8906 N   0  0  0  0  0  0  0  0  0  0  0  0
    4.6166   19.1352    2.5265 C   0  0  0  0  0  0  0  0  0  0  0  0
    4.5422   18.6859    3.9434 C   0  0  0  0  0  0  0  0  0  0  0  0
    3.0834   18.5533    4.2746 C   0  0  0  0  0  0  0  0  0  0  0  0
    2.4884   18.2814    2.9371 C   0  0  0  0  0  0  0  0  0  0  0  0
    1.1426   18.2523    2.7325 O   0  0  0  0  0  0  0  0  0  0  0  0
    4.6562   20.6079    2.4938 C   0  0  0  0  0  0  0  0  0  0  0  0
    5.2903   21.2328    1.5801 O   0  0  0  0  0  0  0  0  0  0  0  0
    4.0370   21.2776    3.3506 O   0  0  0  0  0  0  0  0  0  0  0  0
    3.5633   20.8430    4.0322 H   0  0  0  0  0  0  0  0  0  0  0  0
    2.4861   20.0325    0.0528 C   0  0  0  0  0  0  0  0  0  0  0  0
    1.7273   20.7061    0.7973 O   0  0  0  0  0  0  0  0  0  0  0  0
    2.9619   20.5079   -1.0332 O   0  0  0  0  0  0  0  0  0  0  0  0
    1.3933   20.3310    1.5883 H   0  0  0  0  0  0  0  0  0  0  0  0
    1.7879   17.6570    0.2604 C   0  0  0  0  0  0  0  0  0  0  0  0
    1.9803   16.7457   -0.8930 C   0  0  0  0  0  0  0  0  0  0  0  0
    2.8764   17.3418   -1.9056 C   0  0  0  0  0  0  0  0  0  0  0  0
    2.1213   17.4192   -3.1697 N   0  0  0  0  0  0  0  0  0  0  0  0
    2.2025   16.7010   -3.8382 H   0  0  0  0  0  0  0  0  0  0  0  0
    1.2686   18.5434   -3.4223 C   0  0  0  0  0  0  0  0  0  0  0  0
   -0.0382   18.2677   -3.3268 N   0  0  0  0  0  0  0  0  0  0  0  0
    1.7447   19.7358   -3.7112 N   0  0  0  0  0  0  0  0  0  0  0  0
   -0.3340   17.3546   -3.1073 H   0  0  0  0  0  0  0  0  0  0  0  0
    2.7174   19.8771   -3.7674 H   0  0  0  0  0  0  0  0  0  0  0  0
    1.1282   20.4865   -3.8711 H   0  0  0  0  0  0  0  0  0  0  0  0
  5  4  1  0  0  0
  5  6  1  0  0  0
  7  6  2  0  0  0
  4  3  1  0  0  0
  6  2  1  0  0  0
  9  8  2  0  0  0
  8 10  1  0  0  0
  8  3  1  0  0  0
  3  2  1  0  0  0
  2  1  1  0  0  0
  1 12  1  0  0  0
  1 16  1  0  0  0
 14 12  2  0  0  0
 12 13  1  0  0  0
 16 17  1  0  0  0
 17 18  1  0  0  0
 18 19  1  0  0  0
 19 21  1  0  0  0
 21 22  2  0  0  0
 21 23  1  0  0  0
 13 15  1  0  0  0
 19 20  1  0  0  0
 22 24  1  0  0  0
 23 25  1  0  0  0
 23 26  1  0  0  0
 10 11  1  0  0  0
M  END
> <minimizedAffinity>
-6.85330

$$$$
