5UT6_8MY_A_901


 27 29  0  0  0  0  0  0  0  0999 V2000
  -30.8898   11.1397   78.9114 C   0  0  0  0  0  0  0  0  0  0  0  0
  -30.1459   13.0665   77.6718 C   0  0  0  0  0  0  0  0  0  0  0  0
  -28.8842   11.1715   77.8217 C   0  0  0  0  0  0  0  0  0  0  0  0
  -31.1054   12.4426   78.4450 C   0  0  0  0  0  0  0  0  0  0  0  0
  -29.7779   10.5274   78.5901 N   0  0  0  0  0  0  0  0  0  0  0  0
  -31.9066   10.4884   79.7185 N   0  0  0  0  0  0  0  0  0  0  0  0
  -29.0586   12.3851   77.3807 N   0  0  0  0  0  0  0  0  0  0  0  0
  -31.7608    9.5727   80.0492 H   0  0  0  0  0  0  0  0  0  0  0  0
  -32.7418   10.9628   79.9348 H   0  0  0  0  0  0  0  0  0  0  0  0
  -31.4574   14.9960   77.4149 C   0  0  0  0  0  0  0  0  0  0  0  0
  -30.0011   16.2507   76.2798 C   0  0  0  0  0  0  0  0  0  0  0  0
  -31.2655   16.2369   76.8208 C   0  0  0  0  0  0  0  0  0  0  0  0
  -30.3620   14.2978   77.2074 N   0  0  0  0  0  0  0  0  0  0  0  0
  -29.4480   15.0578   76.5280 N   0  0  0  0  0  0  0  0  0  0  0  0
  -29.3609   17.4239   75.5394 C   0  0  0  0  0  0  0  0  0  0  0  0
  -28.0448   17.0247   75.2359 O   0  0  0  0  0  0  0  0  0  0  0  0
  -28.0676   16.2182   74.6975 H   0  0  0  0  0  0  0  0  0  0  0  0
  -27.7198   10.4137   77.5363 N   0  0  0  0  0  0  0  0  0  0  0  0
  -27.8429    9.6739   76.8986 H   0  0  0  0  0  0  0  0  0  0  0  0
  -26.2627   10.3710   79.4071 C   0  0  0  0  0  0  0  0  0  0  0  0
  -23.9449   10.8865   79.2183 C   0  0  0  0  0  0  0  0  0  0  0  0
  -24.0527   11.0869   77.8562 C   0  0  0  0  0  0  0  0  0  0  0  0
  -25.2932   10.9309   77.2503 C   0  0  0  0  0  0  0  0  0  0  0  0
  -26.3800   10.5736   78.0484 C   0  0  0  0  0  0  0  0  0  0  0  0
  -25.0263   10.5262   79.9931 C   0  0  0  0  0  0  0  0  0  0  0  0
  -22.6032   11.0413   79.9162 C   0  0  0  0  0  0  0  0  0  0  0  0
  -21.6001   11.1260   80.4242 N   0  0  0  0  0  0  0  0  0  0  0  0
  6  1  1  0  0  0
  1  5  2  0  0  0
  1  4  1  0  0  0
  5  3  1  0  0  0
  4  2  2  0  0  0
 16 15  1  0  0  0
  3 18  1  0  0  0
  3  7  2  0  0  0
 18 24  1  0  0  0
  2  7  1  0  0  0
  2 13  1  0  0  0
 20 24  2  0  0  0
 20 25  1  0  0  0
 14 13  1  0  0  0
 14 11  2  0  0  0
 13 10  1  0  0  0
 24 23  1  0  0  0
 25 21  2  0  0  0
 11 15  1  0  0  0
 11 12  1  0  0  0
 10 12  2  0  0  0
 23 22  2  0  0  0
 21 22  1  0  0  0
 21 26  1  0  0  0
 26 27  3  0  0  0
 18 19  1  0  0  0
  6  8  1  0  0  0
  6  9  1  0  0  0
 16 17  1  0  0  0
M  END
> <minimizedAffinity>
-8.26770

$$$$
5UT6_8MY_A_901


 27 29  0  0  0  0  0  0  0  0999 V2000
  -29.0292   16.5347   75.6409 C   0  0  0  0  0  0  0  0  0  0  0  0
  -29.0611   14.4236   76.8006 C   0  0  0  0  0  0  0  0  0  0  0  0
  -30.9062   15.7607   76.6844 C   0  0  0  0  0  0  0  0  0  0  0  0
  -28.3807   15.3628   76.0505 C   0  0  0  0  0  0  0  0  0  0  0  0
  -30.2845   16.7120   75.9684 N   0  0  0  0  0  0  0  0  0  0  0  0
  -28.3083   17.5142   74.8469 N   0  0  0  0  0  0  0  0  0  0  0  0
  -30.3235   14.6654   77.0824 N   0  0  0  0  0  0  0  0  0  0  0  0
  -28.7588   18.3399   74.5561 H   0  0  0  0  0  0  0  0  0  0  0  0
  -27.3693   17.3525   74.5995 H   0  0  0  0  0  0  0  0  0  0  0  0
  -29.0673   12.1748   77.4725 C   0  0  0  0  0  0  0  0  0  0  0  0
  -26.8622   11.8377   77.5592 C   0  0  0  0  0  0  0  0  0  0  0  0
  -28.0833   11.2324   77.7432 C   0  0  0  0  0  0  0  0  0  0  0  0
  -28.4509   13.2967   77.1695 N   0  0  0  0  0  0  0  0  0  0  0  0
  -27.0956   13.1051   77.1988 N   0  0  0  0  0  0  0  0  0  0  0  0
  -25.4998   11.1684   77.7338 C   0  0  0  0  0  0  0  0  0  0  0  0
  -25.5666    9.9527   77.0260 O   0  0  0  0  0  0  0  0  0  0  0  0
  -25.7721   10.1315   76.0950 H   0  0  0  0  0  0  0  0  0  0  0  0
  -32.2611   16.0576   76.9803 N   0  0  0  0  0  0  0  0  0  0  0  0
  -32.5922   16.9156   76.6288 H   0  0  0  0  0  0  0  0  0  0  0  0
  -34.5137   15.7608   77.6601 C   0  0  0  0  0  0  0  0  0  0  0  0
  -35.1762   13.9887   79.1073 C   0  0  0  0  0  0  0  0  0  0  0  0
  -33.8870   13.4978   79.1727 C   0  0  0  0  0  0  0  0  0  0  0  0
  -32.8826   14.1522   78.4705 C   0  0  0  0  0  0  0  0  0  0  0  0
  -33.2231   15.2801   77.7238 C   0  0  0  0  0  0  0  0  0  0  0  0
  -35.4993   15.1000   78.3588 C   0  0  0  0  0  0  0  0  0  0  0  0
  -36.3033   13.2962   79.8564 C   0  0  0  0  0  0  0  0  0  0  0  0
  -37.1291   12.7967   80.4396 N   0  0  0  0  0  0  0  0  0  0  0  0
  6  1  1  0  0  0
  1  5  2  0  0  0
  1  4  1  0  0  0
  5  3  1  0  0  0
  4  2  2  0  0  0
 16 15  1  0  0  0
  3 18  1  0  0  0
  3  7  2  0  0  0
 18 24  1  0  0  0
  2  7  1  0  0  0
  2 13  1  0  0  0
 20 24  2  0  0  0
 20 25  1  0  0  0
 14 13  1  0  0  0
 14 11  2  0  0  0
 13 10  1  0  0  0
 24 23  1  0  0  0
 25 21  2  0  0  0
 11 15  1  0  0  0
 11 12  1  0  0  0
 10 12  2  0  0  0
 23 22  2  0  0  0
 21 22  1  0  0  0
 21 26  1  0  0  0
 26 27  3  0  0  0
 18 19  1  0  0  0
  6  8  1  0  0  0
  6  9  1  0  0  0
 16 17  1  0  0  0
M  END
> <minimizedAffinity>
-8.09270

$$$$
5UT6_8MY_A_901


 27 29  0  0  0  0  0  0  0  0999 V2000
  -27.3757   13.9138   77.3138 C   0  0  0  0  0  0  0  0  0  0  0  0
  -26.2156   12.1527   78.4781 C   0  0  0  0  0  0  0  0  0  0  0  0
  -28.3855   12.6791   78.9468 C   0  0  0  0  0  0  0  0  0  0  0  0
  -26.2230   13.1444   77.5167 C   0  0  0  0  0  0  0  0  0  0  0  0
  -28.4387   13.6657   78.0368 N   0  0  0  0  0  0  0  0  0  0  0  0
  -27.3772   14.9503   76.2964 N   0  0  0  0  0  0  0  0  0  0  0  0
  -27.3241   11.9539   79.1586 N   0  0  0  0  0  0  0  0  0  0  0  0
  -28.1844   15.4943   76.1491 H   0  0  0  0  0  0  0  0  0  0  0  0
  -26.5710   15.1088   75.7540 H   0  0  0  0  0  0  0  0  0  0  0  0
  -25.0260   10.4175   79.5186 C   0  0  0  0  0  0  0  0  0  0  0  0
  -23.1380   10.5386   78.3335 C   0  0  0  0  0  0  0  0  0  0  0  0
  -23.7652    9.8589   79.3514 C   0  0  0  0  0  0  0  0  0  0  0  0
  -25.1262   11.4041   78.6543 N   0  0  0  0  0  0  0  0  0  0  0  0
  -23.9836   11.4826   77.9039 N   0  0  0  0  0  0  0  0  0  0  0  0
  -21.7350   10.2511   77.8012 C   0  0  0  0  0  0  0  0  0  0  0  0
  -21.3839   11.3574   77.0034 O   0  0  0  0  0  0  0  0  0  0  0  0
  -21.4158   12.1654   77.5391 H   0  0  0  0  0  0  0  0  0  0  0  0
  -29.5922   12.4989   79.6700 N   0  0  0  0  0  0  0  0  0  0  0  0
  -29.4956   12.4550   80.6488 H   0  0  0  0  0  0  0  0  0  0  0  0
  -31.3590   11.0695   78.9918 C   0  0  0  0  0  0  0  0  0  0  0  0
  -33.4355   11.9167   78.1894 C   0  0  0  0  0  0  0  0  0  0  0  0
  -33.0269   13.2230   78.3735 C   0  0  0  0  0  0  0  0  0  0  0  0
  -31.7538   13.4644   78.8747 C   0  0  0  0  0  0  0  0  0  0  0  0
  -30.9415   12.3707   79.1743 C   0  0  0  0  0  0  0  0  0  0  0  0
  -32.6245   10.8457   78.4973 C   0  0  0  0  0  0  0  0  0  0  0  0
  -34.8236   11.6124   77.6494 C   0  0  0  0  0  0  0  0  0  0  0  0
  -35.8516   11.3571   77.2625 N   0  0  0  0  0  0  0  0  0  0  0  0
  6  1  1  0  0  0
  1  5  2  0  0  0
  1  4  1  0  0  0
  5  3  1  0  0  0
  4  2  2  0  0  0
 16 15  1  0  0  0
  3 18  1  0  0  0
  3  7  2  0  0  0
 18 24  1  0  0  0
  2  7  1  0  0  0
  2 13  1  0  0  0
 20 24  2  0  0  0
 20 25  1  0  0  0
 14 13  1  0  0  0
 14 11  2  0  0  0
 13 10  1  0  0  0
 24 23  1  0  0  0
 25 21  2  0  0  0
 11 15  1  0  0  0
 11 12  1  0  0  0
 10 12  2  0  0  0
 23 22  2  0  0  0
 21 22  1  0  0  0
 21 26  1  0  0  0
 26 27  3  0  0  0
 18 19  1  0  0  0
  6  8  1  0  0  0
  6  9  1  0  0  0
 16 17  1  0  0  0
M  END
> <minimizedAffinity>
-8.04970

$$$$
5UT6_8MY_A_901


 27 29  0  0  0  0  0  0  0  0999 V2000
  -28.5500   10.6360   78.4751 C   0  0  0  0  0  0  0  0  0  0  0  0
  -26.2463   11.3125   78.6696 C   0  0  0  0  0  0  0  0  0  0  0  0
  -27.8912   12.7905   78.1079 C   0  0  0  0  0  0  0  0  0  0  0  0
  -27.2118   10.3282   78.7509 C   0  0  0  0  0  0  0  0  0  0  0  0
  -28.8647   11.8664   78.1565 N   0  0  0  0  0  0  0  0  0  0  0  0
  -29.5600    9.5965   78.5692 N   0  0  0  0  0  0  0  0  0  0  0  0
  -26.6389   12.5281   78.3538 N   0  0  0  0  0  0  0  0  0  0  0  0
  -30.5023    9.8067   78.3766 H   0  0  0  0  0  0  0  0  0  0  0  0
  -29.3023    8.6815   78.8257 H   0  0  0  0  0  0  0  0  0  0  0  0
  -24.5745   10.4071   80.0459 C   0  0  0  0  0  0  0  0  0  0  0  0
  -22.8109   10.7715   78.7265 C   0  0  0  0  0  0  0  0  0  0  0  0
  -23.1988   10.2480   79.9376 C   0  0  0  0  0  0  0  0  0  0  0  0
  -24.9761   11.0248   78.9561 N   0  0  0  0  0  0  0  0  0  0  0  0
  -23.9101   11.2406   78.1244 N   0  0  0  0  0  0  0  0  0  0  0  0
  -21.3832   10.7989   78.1830 C   0  0  0  0  0  0  0  0  0  0  0  0
  -21.4931   11.0719   76.8057 O   0  0  0  0  0  0  0  0  0  0  0  0
  -21.9513   11.9174   76.6792 H   0  0  0  0  0  0  0  0  0  0  0  0
  -28.3461   14.0863   77.7538 N   0  0  0  0  0  0  0  0  0  0  0  0
  -27.6395   14.7498   77.5812 H   0  0  0  0  0  0  0  0  0  0  0  0
  -30.5849   14.0614   78.5360 C   0  0  0  0  0  0  0  0  0  0  0  0
  -32.3108   15.3132   77.4740 C   0  0  0  0  0  0  0  0  0  0  0  0
  -31.4284   15.8311   76.5463 C   0  0  0  0  0  0  0  0  0  0  0  0
  -30.0922   15.4557   76.6077 C   0  0  0  0  0  0  0  0  0  0  0  0
  -29.6983   14.5701   77.6109 C   0  0  0  0  0  0  0  0  0  0  0  0
  -31.9055   14.4449   78.4646 C   0  0  0  0  0  0  0  0  0  0  0  0
  -33.7793   15.7055   77.4433 C   0  0  0  0  0  0  0  0  0  0  0  0
  -34.8763   15.9648   77.4177 N   0  0  0  0  0  0  0  0  0  0  0  0
  6  1  1  0  0  0
  1  5  2  0  0  0
  1  4  1  0  0  0
  5  3  1  0  0  0
  4  2  2  0  0  0
 16 15  1  0  0  0
  3 18  1  0  0  0
  3  7  2  0  0  0
 18 24  1  0  0  0
  2  7  1  0  0  0
  2 13  1  0  0  0
 20 24  2  0  0  0
 20 25  1  0  0  0
 14 13  1  0  0  0
 14 11  2  0  0  0
 13 10  1  0  0  0
 24 23  1  0  0  0
 25 21  2  0  0  0
 11 15  1  0  0  0
 11 12  1  0  0  0
 10 12  2  0  0  0
 23 22  2  0  0  0
 21 22  1  0  0  0
 21 26  1  0  0  0
 26 27  3  0  0  0
 18 19  1  0  0  0
  6  8  1  0  0  0
  6  9  1  0  0  0
 16 17  1  0  0  0
M  END
> <minimizedAffinity>
-7.89846

$$$$
5UT6_8MY_A_901


 27 29  0  0  0  0  0  0  0  0999 V2000
  -30.8663   15.2481   76.8219 C   0  0  0  0  0  0  0  0  0  0  0  0
  -30.7946   13.0177   77.7291 C   0  0  0  0  0  0  0  0  0  0  0  0
  -28.9171   14.0695   76.9712 C   0  0  0  0  0  0  0  0  0  0  0  0
  -31.5149   14.1491   77.3993 C   0  0  0  0  0  0  0  0  0  0  0  0
  -29.5746   15.1859   76.6172 N   0  0  0  0  0  0  0  0  0  0  0  0
  -31.6300   16.4364   76.4841 N   0  0  0  0  0  0  0  0  0  0  0  0
  -29.4983   13.0321   77.5039 N   0  0  0  0  0  0  0  0  0  0  0  0
  -31.1797   17.2120   76.0780 H   0  0  0  0  0  0  0  0  0  0  0  0
  -32.5980   16.4663   76.6612 H   0  0  0  0  0  0  0  0  0  0  0  0
  -32.7085   11.8790   78.4702 C   0  0  0  0  0  0  0  0  0  0  0  0
  -31.7350    9.9993   79.1791 C   0  0  0  0  0  0  0  0  0  0  0  0
  -32.9463   10.6364   79.0437 C   0  0  0  0  0  0  0  0  0  0  0  0
  -31.4079   11.9810   78.3013 N   0  0  0  0  0  0  0  0  0  0  0  0
  -30.7939   10.8287   78.7134 N   0  0  0  0  0  0  0  0  0  0  0  0
  -31.5231    8.5994   79.7535 C   0  0  0  0  0  0  0  0  0  0  0  0
  -31.0894    7.7969   78.6804 O   0  0  0  0  0  0  0  0  0  0  0  0
  -30.2749    8.1687   78.3072 H   0  0  0  0  0  0  0  0  0  0  0  0
  -27.5248   14.1136   76.7048 N   0  0  0  0  0  0  0  0  0  0  0  0
  -27.2017   14.9412   76.2805 H   0  0  0  0  0  0  0  0  0  0  0  0
  -26.2086   12.9558   78.3023 C   0  0  0  0  0  0  0  0  0  0  0  0
  -24.5904   11.3272   77.6679 C   0  0  0  0  0  0  0  0  0  0  0  0
  -24.8938   11.4792   76.3292 C   0  0  0  0  0  0  0  0  0  0  0  0
  -25.8743   12.3926   75.9622 C   0  0  0  0  0  0  0  0  0  0  0  0
  -26.5145   13.1171   76.9676 C   0  0  0  0  0  0  0  0  0  0  0  0
  -25.2369   12.0447   78.6511 C   0  0  0  0  0  0  0  0  0  0  0  0
  -23.5282   10.3330   78.1091 C   0  0  0  0  0  0  0  0  0  0  0  0
  -22.7463    9.6038   78.4674 N   0  0  0  0  0  0  0  0  0  0  0  0
  6  1  1  0  0  0
  1  5  2  0  0  0
  1  4  1  0  0  0
  5  3  1  0  0  0
  4  2  2  0  0  0
 16 15  1  0  0  0
  3 18  1  0  0  0
  3  7  2  0  0  0
 18 24  1  0  0  0
  2  7  1  0  0  0
  2 13  1  0  0  0
 20 24  2  0  0  0
 20 25  1  0  0  0
 14 13  1  0  0  0
 14 11  2  0  0  0
 13 10  1  0  0  0
 24 23  1  0  0  0
 25 21  2  0  0  0
 11 15  1  0  0  0
 11 12  1  0  0  0
 10 12  2  0  0  0
 23 22  2  0  0  0
 21 22  1  0  0  0
 21 26  1  0  0  0
 26 27  3  0  0  0
 18 19  1  0  0  0
  6  8  1  0  0  0
  6  9  1  0  0  0
 16 17  1  0  0  0
M  END
> <minimizedAffinity>
-7.86813

$$$$
5UT6_8MY_A_901


 27 29  0  0  0  0  0  0  0  0999 V2000
  -28.8209   14.7206   76.5240 C   0  0  0  0  0  0  0  0  0  0  0  0
  -30.7569   13.8047   77.6267 C   0  0  0  0  0  0  0  0  0  0  0  0
  -28.8721   12.5669   77.2788 C   0  0  0  0  0  0  0  0  0  0  0  0
  -30.1231   14.8701   77.0177 C   0  0  0  0  0  0  0  0  0  0  0  0
  -28.2187   13.5664   76.6639 N   0  0  0  0  0  0  0  0  0  0  0  0
  -28.1593   15.8479   75.8907 N   0  0  0  0  0  0  0  0  0  0  0  0
  -30.0852   12.6790   77.7408 N   0  0  0  0  0  0  0  0  0  0  0  0
  -27.2441   15.7489   75.5418 H   0  0  0  0  0  0  0  0  0  0  0  0
  -28.6261   16.7109   75.8103 H   0  0  0  0  0  0  0  0  0  0  0  0
  -32.7956   14.9504   77.8266 C   0  0  0  0  0  0  0  0  0  0  0  0
  -33.8641   13.5162   79.1627 C   0  0  0  0  0  0  0  0  0  0  0  0
  -33.9915   14.7095   78.4909 C   0  0  0  0  0  0  0  0  0  0  0  0
  -31.9873   13.9544   78.1185 N   0  0  0  0  0  0  0  0  0  0  0  0
  -32.6317   13.0532   78.9231 N   0  0  0  0  0  0  0  0  0  0  0  0
  -34.9442   12.8541   80.0168 C   0  0  0  0  0  0  0  0  0  0  0  0
  -34.2670   12.1764   81.0491 O   0  0  0  0  0  0  0  0  0  0  0  0
  -33.7337   12.8088   81.5556 H   0  0  0  0  0  0  0  0  0  0  0  0
  -28.1247   11.3653   77.3750 N   0  0  0  0  0  0  0  0  0  0  0  0
  -28.5700   10.5613   77.0222 H   0  0  0  0  0  0  0  0  0  0  0  0
  -26.7856   10.8023   79.2497 C   0  0  0  0  0  0  0  0  0  0  0  0
  -24.4064   10.7700   79.1418 C   0  0  0  0  0  0  0  0  0  0  0  0
  -24.4158   11.1180   77.8054 C   0  0  0  0  0  0  0  0  0  0  0  0
  -25.6360   11.3181   77.1719 C   0  0  0  0  0  0  0  0  0  0  0  0
  -26.8038   11.1544   77.9169 C   0  0  0  0  0  0  0  0  0  0  0  0
  -25.5689   10.6043   79.8633 C   0  0  0  0  0  0  0  0  0  0  0  0
  -23.0913   10.5362   79.8679 C   0  0  0  0  0  0  0  0  0  0  0  0
  -22.1179   10.3929   80.4188 N   0  0  0  0  0  0  0  0  0  0  0  0
  6  1  1  0  0  0
  1  5  2  0  0  0
  1  4  1  0  0  0
  5  3  1  0  0  0
  4  2  2  0  0  0
 16 15  1  0  0  0
  3 18  1  0  0  0
  3  7  2  0  0  0
 18 24  1  0  0  0
  2  7  1  0  0  0
  2 13  1  0  0  0
 20 24  2  0  0  0
 20 25  1  0  0  0
 14 13  1  0  0  0
 14 11  2  0  0  0
 13 10  1  0  0  0
 24 23  1  0  0  0
 25 21  2  0  0  0
 11 15  1  0  0  0
 11 12  1  0  0  0
 10 12  2  0  0  0
 23 22  2  0  0  0
 21 22  1  0  0  0
 21 26  1  0  0  0
 26 27  3  0  0  0
 18 19  1  0  0  0
  6  8  1  0  0  0
  6  9  1  0  0  0
 16 17  1  0  0  0
M  END
> <minimizedAffinity>
-7.69773

$$$$
5UT6_8MY_A_901


 27 29  0  0  0  0  0  0  0  0999 V2000
  -28.2561   14.9581   76.5543 C   0  0  0  0  0  0  0  0  0  0  0  0
  -29.5156   13.4072   77.9001 C   0  0  0  0  0  0  0  0  0  0  0  0
  -27.2382   13.5083   77.9941 C   0  0  0  0  0  0  0  0  0  0  0  0
  -29.4838   14.4248   76.9668 C   0  0  0  0  0  0  0  0  0  0  0  0
  -27.1524   14.4865   77.0776 N   0  0  0  0  0  0  0  0  0  0  0  0
  -28.2319   16.0324   75.5772 N   0  0  0  0  0  0  0  0  0  0  0  0
  -28.3670   12.9916   78.3896 N   0  0  0  0  0  0  0  0  0  0  0  0
  -27.3720   16.4113   75.2834 H   0  0  0  0  0  0  0  0  0  0  0  0
  -29.0753   16.3817   75.2087 H   0  0  0  0  0  0  0  0  0  0  0  0
  -31.7632   13.6365   78.5362 C   0  0  0  0  0  0  0  0  0  0  0  0
  -32.2563   11.4795   78.8331 C   0  0  0  0  0  0  0  0  0  0  0  0
  -32.7749   12.7521   78.8883 C   0  0  0  0  0  0  0  0  0  0  0  0
  -30.6855   12.9165   78.3109 N   0  0  0  0  0  0  0  0  0  0  0  0
  -30.9729   11.5872   78.4697 N   0  0  0  0  0  0  0  0  0  0  0  0
  -33.0217   10.1910   79.1306 C   0  0  0  0  0  0  0  0  0  0  0  0
  -32.1230    9.1352   78.8834 O   0  0  0  0  0  0  0  0  0  0  0  0
  -31.3410    9.2373   79.4481 H   0  0  0  0  0  0  0  0  0  0  0  0
  -25.9827   13.0761   78.4924 N   0  0  0  0  0  0  0  0  0  0  0  0
  -25.4369   13.7725   78.9242 H   0  0  0  0  0  0  0  0  0  0  0  0
  -24.3625   11.5738   79.3544 C   0  0  0  0  0  0  0  0  0  0  0  0
  -24.1062    9.3638   78.5037 C   0  0  0  0  0  0  0  0  0  0  0  0
  -25.1392    9.5402   77.6041 C   0  0  0  0  0  0  0  0  0  0  0  0
  -25.8005   10.7616   77.5718 C   0  0  0  0  0  0  0  0  0  0  0  0
  -25.3918   11.7599   78.4562 C   0  0  0  0  0  0  0  0  0  0  0  0
  -23.7184   10.3569   79.3771 C   0  0  0  0  0  0  0  0  0  0  0  0
  -23.3631    8.0393   78.5735 C   0  0  0  0  0  0  0  0  0  0  0  0
  -22.7873    7.0722   78.6405 N   0  0  0  0  0  0  0  0  0  0  0  0
  6  1  1  0  0  0
  1  5  2  0  0  0
  1  4  1  0  0  0
  5  3  1  0  0  0
  4  2  2  0  0  0
 16 15  1  0  0  0
  3 18  1  0  0  0
  3  7  2  0  0  0
 18 24  1  0  0  0
  2  7  1  0  0  0
  2 13  1  0  0  0
 20 24  2  0  0  0
 20 25  1  0  0  0
 14 13  1  0  0  0
 14 11  2  0  0  0
 13 10  1  0  0  0
 24 23  1  0  0  0
 25 21  2  0  0  0
 11 15  1  0  0  0
 11 12  1  0  0  0
 10 12  2  0  0  0
 23 22  2  0  0  0
 21 22  1  0  0  0
 21 26  1  0  0  0
 26 27  3  0  0  0
 18 19  1  0  0  0
  6  8  1  0  0  0
  6  9  1  0  0  0
 16 17  1  0  0  0
M  END
> <minimizedAffinity>
-7.57664

$$$$
5UT6_8MY_A_901


 27 29  0  0  0  0  0  0  0  0999 V2000
  -26.7759   13.7535   76.9421 C   0  0  0  0  0  0  0  0  0  0  0  0
  -29.0743   14.2216   77.4906 C   0  0  0  0  0  0  0  0  0  0  0  0
  -27.8780   12.6180   78.5873 C   0  0  0  0  0  0  0  0  0  0  0  0
  -27.9497   14.4889   76.7346 C   0  0  0  0  0  0  0  0  0  0  0  0
  -26.7634   12.8275   77.8678 N   0  0  0  0  0  0  0  0  0  0  0  0
  -25.5958   14.0453   76.1472 N   0  0  0  0  0  0  0  0  0  0  0  0
  -28.9836   13.2841   78.4094 N   0  0  0  0  0  0  0  0  0  0  0  0
  -24.7678   13.5317   76.2885 H   0  0  0  0  0  0  0  0  0  0  0  0
  -25.6239   14.7566   75.4672 H   0  0  0  0  0  0  0  0  0  0  0  0
  -30.2886   15.9665   76.4958 C   0  0  0  0  0  0  0  0  0  0  0  0
  -32.2840   15.5591   77.4102 C   0  0  0  0  0  0  0  0  0  0  0  0
  -31.6088   16.3949   76.5517 C   0  0  0  0  0  0  0  0  0  0  0  0
  -30.1841   14.9385   77.3099 N   0  0  0  0  0  0  0  0  0  0  0  0
  -31.4036   14.6608   77.8669 N   0  0  0  0  0  0  0  0  0  0  0  0
  -33.7681   15.6517   77.7616 C   0  0  0  0  0  0  0  0  0  0  0  0
  -34.4276   16.0387   76.5789 O   0  0  0  0  0  0  0  0  0  0  0  0
  -34.2542   15.3852   75.8833 H   0  0  0  0  0  0  0  0  0  0  0  0
  -27.7498   11.5940   79.5603 N   0  0  0  0  0  0  0  0  0  0  0  0
  -26.9231   11.6196   80.0943 H   0  0  0  0  0  0  0  0  0  0  0  0
  -29.5086   10.1705   78.8497 C   0  0  0  0  0  0  0  0  0  0  0  0
  -30.4929    8.5551   80.2972 C   0  0  0  0  0  0  0  0  0  0  0  0
  -29.6433    8.8957   81.3314 C   0  0  0  0  0  0  0  0  0  0  0  0
  -28.7048    9.8995   81.1268 C   0  0  0  0  0  0  0  0  0  0  0  0
  -28.6597   10.5199   79.8783 C   0  0  0  0  0  0  0  0  0  0  0  0
  -30.4315    9.1717   79.0661 C   0  0  0  0  0  0  0  0  0  0  0  0
  -31.5285    7.4573   80.4805 C   0  0  0  0  0  0  0  0  0  0  0  0
  -32.3131    6.6550   80.5910 N   0  0  0  0  0  0  0  0  0  0  0  0
  6  1  1  0  0  0
  1  5  2  0  0  0
  1  4  1  0  0  0
  5  3  1  0  0  0
  4  2  2  0  0  0
 16 15  1  0  0  0
  3 18  1  0  0  0
  3  7  2  0  0  0
 18 24  1  0  0  0
  2  7  1  0  0  0
  2 13  1  0  0  0
 20 24  2  0  0  0
 20 25  1  0  0  0
 14 13  1  0  0  0
 14 11  2  0  0  0
 13 10  1  0  0  0
 24 23  1  0  0  0
 25 21  2  0  0  0
 11 15  1  0  0  0
 11 12  1  0  0  0
 10 12  2  0  0  0
 23 22  2  0  0  0
 21 22  1  0  0  0
 21 26  1  0  0  0
 26 27  3  0  0  0
 18 19  1  0  0  0
  6  8  1  0  0  0
  6  9  1  0  0  0
 16 17  1  0  0  0
M  END
> <minimizedAffinity>
-7.47516

$$$$
5UT6_8MY_A_901


 27 29  0  0  0  0  0  0  0  0999 V2000
  -32.7355   11.4683   78.5479 C   0  0  0  0  0  0  0  0  0  0  0  0
  -33.7965   13.6276   78.4273 C   0  0  0  0  0  0  0  0  0  0  0  0
  -31.5521   13.4073   78.7732 C   0  0  0  0  0  0  0  0  0  0  0  0
  -33.8844   12.2503   78.3734 C   0  0  0  0  0  0  0  0  0  0  0  0
  -31.5869   12.0649   78.7464 N   0  0  0  0  0  0  0  0  0  0  0  0
  -32.8355   10.0208   78.4833 N   0  0  0  0  0  0  0  0  0  0  0  0
  -32.6071   14.1564   78.6198 N   0  0  0  0  0  0  0  0  0  0  0  0
  -32.0314    9.4659   78.6052 H   0  0  0  0  0  0  0  0  0  0  0  0
  -33.7073    9.5945   78.3177 H   0  0  0  0  0  0  0  0  0  0  0  0
  -34.9361   15.6789   78.3812 C   0  0  0  0  0  0  0  0  0  0  0  0
  -36.9181   14.9528   77.6546 C   0  0  0  0  0  0  0  0  0  0  0  0
  -36.2217   16.0758   78.0358 C   0  0  0  0  0  0  0  0  0  0  0  0
  -34.8862   14.3724   78.2367 N   0  0  0  0  0  0  0  0  0  0  0  0
  -36.0884   13.9096   77.7731 N   0  0  0  0  0  0  0  0  0  0  0  0
  -38.3705   14.9222   77.1809 C   0  0  0  0  0  0  0  0  0  0  0  0
  -38.3353   14.5076   75.8354 O   0  0  0  0  0  0  0  0  0  0  0  0
  -37.9105   13.6376   75.7762 H   0  0  0  0  0  0  0  0  0  0  0  0
  -30.2580   13.9443   78.9937 N   0  0  0  0  0  0  0  0  0  0  0  0
  -30.2209   14.7251   79.5922 H   0  0  0  0  0  0  0  0  0  0  0  0
  -28.5947   14.1636   77.3174 C   0  0  0  0  0  0  0  0  0  0  0  0
  -26.6492   12.7899   77.2772 C   0  0  0  0  0  0  0  0  0  0  0  0
  -27.0335   12.1315   78.4288 C   0  0  0  0  0  0  0  0  0  0  0  0
  -28.2276   12.4908   79.0413 C   0  0  0  0  0  0  0  0  0  0  0  0
  -28.9880   13.5082   78.4648 C   0  0  0  0  0  0  0  0  0  0  0  0
  -27.4073   13.7989   76.7232 C   0  0  0  0  0  0  0  0  0  0  0  0
  -25.3462   12.4296   76.5820 C   0  0  0  0  0  0  0  0  0  0  0  0
  -24.3633   12.1739   76.0920 N   0  0  0  0  0  0  0  0  0  0  0  0
  6  1  1  0  0  0
  1  5  2  0  0  0
  1  4  1  0  0  0
  5  3  1  0  0  0
  4  2  2  0  0  0
 16 15  1  0  0  0
  3 18  1  0  0  0
  3  7  2  0  0  0
 18 24  1  0  0  0
  2  7  1  0  0  0
  2 13  1  0  0  0
 20 24  2  0  0  0
 20 25  1  0  0  0
 14 13  1  0  0  0
 14 11  2  0  0  0
 13 10  1  0  0  0
 24 23  1  0  0  0
 25 21  2  0  0  0
 11 15  1  0  0  0
 11 12  1  0  0  0
 10 12  2  0  0  0
 23 22  2  0  0  0
 21 22  1  0  0  0
 21 26  1  0  0  0
 26 27  3  0  0  0
 18 19  1  0  0  0
  6  8  1  0  0  0
  6  9  1  0  0  0
 16 17  1  0  0  0
M  END
> <minimizedAffinity>
-7.34583

$$$$
5UT6_8MY_A_901


 27 29  0  0  0  0  0  0  0  0999 V2000
  -32.2852   11.0711   78.8329 C   0  0  0  0  0  0  0  0  0  0  0  0
  -33.1214   13.3056   78.5006 C   0  0  0  0  0  0  0  0  0  0  0  0
  -31.0800   12.6555   77.7158 C   0  0  0  0  0  0  0  0  0  0  0  0
  -33.2946   12.0283   78.9966 C   0  0  0  0  0  0  0  0  0  0  0  0
  -31.1924   11.4054   78.1938 N   0  0  0  0  0  0  0  0  0  0  0  0
  -32.4781    9.7284   79.3519 N   0  0  0  0  0  0  0  0  0  0  0  0
  -32.0014   13.5653   77.8604 N   0  0  0  0  0  0  0  0  0  0  0  0
  -31.7722    9.0512   79.2399 H   0  0  0  0  0  0  0  0  0  0  0  0
  -33.3146    9.4953   79.8157 H   0  0  0  0  0  0  0  0  0  0  0  0
  -34.0541   15.4298   78.1449 C   0  0  0  0  0  0  0  0  0  0  0  0
  -36.0381   15.0986   79.1133 C   0  0  0  0  0  0  0  0  0  0  0  0
  -35.2709   16.0269   78.4492 C   0  0  0  0  0  0  0  0  0  0  0  0
  -34.0924   14.2097   78.6350 N   0  0  0  0  0  0  0  0  0  0  0  0
  -35.3102   13.9806   79.2174 N   0  0  0  0  0  0  0  0  0  0  0  0
  -37.4603   15.3199   79.6262 C   0  0  0  0  0  0  0  0  0  0  0  0
  -37.3771   15.3030   81.0320 O   0  0  0  0  0  0  0  0  0  0  0  0
  -36.7671   15.9966   81.3282 H   0  0  0  0  0  0  0  0  0  0  0  0
  -29.8574   12.9052   77.0417 N   0  0  0  0  0  0  0  0  0  0  0  0
  -29.9430   13.2943   76.1414 H   0  0  0  0  0  0  0  0  0  0  0  0
  -28.0845   11.3629   77.3626 C   0  0  0  0  0  0  0  0  0  0  0  0
  -26.0061   12.0072   78.3315 C   0  0  0  0  0  0  0  0  0  0  0  0
  -26.4182   13.3193   78.4571 C   0  0  0  0  0  0  0  0  0  0  0  0
  -27.6941   13.6664   78.0308 C   0  0  0  0  0  0  0  0  0  0  0  0
  -28.5055   12.6697   77.4887 C   0  0  0  0  0  0  0  0  0  0  0  0
  -26.8163   11.0344   77.7867 C   0  0  0  0  0  0  0  0  0  0  0  0
  -24.6148   11.5901   78.7805 C   0  0  0  0  0  0  0  0  0  0  0  0
  -23.5796   11.2639   79.0859 N   0  0  0  0  0  0  0  0  0  0  0  0
  6  1  1  0  0  0
  1  5  2  0  0  0
  1  4  1  0  0  0
  5  3  1  0  0  0
  4  2  2  0  0  0
 16 15  1  0  0  0
  3 18  1  0  0  0
  3  7  2  0  0  0
 18 24  1  0  0  0
  2  7  1  0  0  0
  2 13  1  0  0  0
 20 24  2  0  0  0
 20 25  1  0  0  0
 14 13  1  0  0  0
 14 11  2  0  0  0
 13 10  1  0  0  0
 24 23  1  0  0  0
 25 21  2  0  0  0
 11 15  1  0  0  0
 11 12  1  0  0  0
 10 12  2  0  0  0
 23 22  2  0  0  0
 21 22  1  0  0  0
 21 26  1  0  0  0
 26 27  3  0  0  0
 18 19  1  0  0  0
  6  8  1  0  0  0
  6  9  1  0  0  0
 16 17  1  0  0  0
M  END
> <minimizedAffinity>
-7.14739

$$$$
