3CD7_882_A_1


 46 49  0  0  0  0  0  0  0  0999 V2000
   -4.5099  -16.3569    5.4692 N   0  0  0  0  0  0  0  0  0  0  0  0
   -4.3711  -16.3609    6.8196 C   0  0  0  0  0  0  0  0  0  0  0  0
   -5.6211  -16.1095    7.3349 C   0  0  0  0  0  0  0  0  0  0  0  0
   -5.8052  -16.1068    5.1337 C   0  0  0  0  0  0  0  0  0  0  0  0
   -6.4876  -15.8903    6.3163 C   0  0  0  0  0  0  0  0  0  0  0  0
   -6.6567  -16.7303   10.9426 C   0  0  0  0  0  0  0  0  0  0  0  0
   -5.6946  -14.6905    9.3279 C   0  0  0  0  0  0  0  0  0  0  0  0
   -5.9390  -14.4375   10.6720 C   0  0  0  0  0  0  0  0  0  0  0  0
   -5.9186  -15.9592    8.7888 C   0  0  0  0  0  0  0  0  0  0  0  0
   -6.4250  -15.4602   11.4790 C   0  0  0  0  0  0  0  0  0  0  0  0
   -6.6633  -15.2169   12.7793 F   0  0  0  0  0  0  0  0  0  0  0  0
   -6.4056  -16.9867    9.5923 C   0  0  0  0  0  0  0  0  0  0  0  0
   -9.7158  -14.2888    7.4274 C   0  0  0  0  0  0  0  0  0  0  0  0
  -10.6245  -15.2974    7.1125 C   0  0  0  0  0  0  0  0  0  0  0  0
   -7.9260  -15.6380    6.5638 C   0  0  0  0  0  0  0  0  0  0  0  0
   -8.3630  -14.4652    7.1671 C   0  0  0  0  0  0  0  0  0  0  0  0
  -11.9256  -15.1076    7.3687 F   0  0  0  0  0  0  0  0  0  0  0  0
  -10.1867  -16.4839    6.5327 C   0  0  0  0  0  0  0  0  0  0  0  0
   -8.8300  -16.6583    6.2709 C   0  0  0  0  0  0  0  0  0  0  0  0
   -6.4339  -15.9665    3.7928 C   0  0  0  0  0  0  0  0  0  0  0  0
   -6.5105  -14.8134    3.3826 O   0  0  0  0  0  0  0  0  0  0  0  0
   -6.8074  -17.0332    3.0678 N   0  0  0  0  0  0  0  0  0  0  0  0
   -6.7366  -17.9313    3.4647 H   0  0  0  0  0  0  0  0  0  0  0  0
   -8.1557  -15.8562    1.3774 C   0  0  0  0  0  0  0  0  0  0  0  0
   -8.6102  -15.7425    0.0658 C   0  0  0  0  0  0  0  0  0  0  0  0
   -6.9219  -17.8304    0.7761 C   0  0  0  0  0  0  0  0  0  0  0  0
   -7.3008  -16.8994    1.7468 C   0  0  0  0  0  0  0  0  0  0  0  0
   -7.3862  -17.7221   -0.5329 C   0  0  0  0  0  0  0  0  0  0  0  0
   -8.2315  -16.6764   -0.8943 C   0  0  0  0  0  0  0  0  0  0  0  0
   -3.3919  -16.6233    4.5188 C   0  0  0  0  0  0  0  0  0  0  0  0
   -2.4849  -17.7426    5.0220 C   0  0  0  0  0  0  0  0  0  0  0  0
   -2.6377  -15.3258    4.2967 C   0  0  0  0  0  0  0  0  0  0  0  0
   -3.1264  -16.6272    7.6229 C   0  0  0  0  0  0  0  0  0  0  0  0
   -2.2425  -15.3966    7.6808 C   0  0  0  0  0  0  0  0  0  0  0  0
   -1.5625  -15.3622    9.0429 C   0  0  0  0  0  0  0  0  0  0  0  0
   -0.2904  -15.9752    8.9370 O   0  0  0  0  0  0  0  0  0  0  0  0
    0.2441  -15.4996    8.2819 H   0  0  0  0  0  0  0  0  0  0  0  0
   -1.4214  -13.9123    9.4874 C   0  0  0  0  0  0  0  0  0  0  0  0
   -2.2776  -13.6465   10.7178 C   0  0  0  0  0  0  0  0  0  0  0  0
   -1.6560  -14.3243   11.7962 O   0  0  0  0  0  0  0  0  0  0  0  0
   -0.7469  -14.0022   11.8996 H   0  0  0  0  0  0  0  0  0  0  0  0
   -2.3694  -12.1429   10.9531 C   0  0  0  0  0  0  0  0  0  0  0  0
   -0.1121  -11.6286   11.5106 O   0  0  0  0  0  0  0  0  0  0  0  0
   -1.2985  -11.6598   11.9073 C   0  0  0  0  0  0  0  0  0  0  0  0
   -1.6377  -11.2983   13.0551 O   0  0  0  0  0  0  0  0  0  0  0  0
    0.0989  -11.9089   10.6417 H   0  0  0  0  0  0  0  0  0  0  0  0
  1  4  1  0  0  0
  1  2  1  0  0  0
  1 30  1  0  0  0
  2  3  2  0  0  0
  2 33  1  0  0  0
  3  9  1  0  0  0
  3  5  1  0  0  0
 30 31  1  0  0  0
 30 32  1  0  0  0
 33 34  1  0  0  0
 34 35  1  0  0  0
 38 39  1  0  0  0
 38 35  1  0  0  0
  6 10  2  0  0  0
  6 12  1  0  0  0
 24 27  2  0  0  0
 24 25  1  0  0  0
 25 29  2  0  0  0
  7  8  2  0  0  0
  7  9  1  0  0  0
 13 14  2  0  0  0
 13 16  1  0  0  0
  8 10  1  0  0  0
 26 27  1  0  0  0
 26 28  2  0  0  0
 14 17  1  0  0  0
 14 18  1  0  0  0
 43 44  1  0  0  0
 44 45  2  0  0  0
 44 42  1  0  0  0
 42 39  1  0  0  0
 39 40  1  0  0  0
 35 36  1  0  0  0
  9 12  2  0  0  0
 10 11  1  0  0  0
  4  5  2  0  0  0
  4 20  1  0  0  0
  5 15  1  0  0  0
 15 16  2  0  0  0
 15 19  1  0  0  0
 18 19  2  0  0  0
 20 22  1  0  0  0
 20 21  2  0  0  0
 22 27  1  0  0  0
 28 29  1  0  0  0
 43 46  1  0  0  0
 40 41  1  0  0  0
 36 37  1  0  0  0
 22 23  1  0  0  0
M  END
> <minimizedAffinity>
-10.27336

$$$$
3CD7_882_A_1


 46 49  0  0  0  0  0  0  0  0999 V2000
   -4.3288  -16.4455    5.4848 N   0  0  0  0  0  0  0  0  0  0  0  0
   -3.8436  -16.6287    6.7394 C   0  0  0  0  0  0  0  0  0  0  0  0
   -4.8721  -17.1711    7.4736 C   0  0  0  0  0  0  0  0  0  0  0  0
   -5.6258  -16.8538    5.4217 C   0  0  0  0  0  0  0  0  0  0  0  0
   -5.9797  -17.2526    6.6971 C   0  0  0  0  0  0  0  0  0  0  0  0
   -5.2110  -17.0434   11.2607 C   0  0  0  0  0  0  0  0  0  0  0  0
   -4.1124  -18.6411    9.2772 C   0  0  0  0  0  0  0  0  0  0  0  0
   -3.9815  -19.0199   10.6075 C   0  0  0  0  0  0  0  0  0  0  0  0
   -4.7978  -17.4741    8.9322 C   0  0  0  0  0  0  0  0  0  0  0  0
   -4.5294  -18.2158   11.6006 C   0  0  0  0  0  0  0  0  0  0  0  0
   -4.4024  -18.5799   12.8883 F   0  0  0  0  0  0  0  0  0  0  0  0
   -5.3481  -16.6651    9.9226 C   0  0  0  0  0  0  0  0  0  0  0  0
   -9.4118  -17.6420    8.2103 C   0  0  0  0  0  0  0  0  0  0  0  0
   -9.5149  -19.0310    8.2590 C   0  0  0  0  0  0  0  0  0  0  0  0
   -7.2398  -17.8431    7.2047 C   0  0  0  0  0  0  0  0  0  0  0  0
   -8.2667  -17.0470    7.6969 C   0  0  0  0  0  0  0  0  0  0  0  0
  -10.6283  -19.5863    8.7553 F   0  0  0  0  0  0  0  0  0  0  0  0
   -8.4771  -19.8310    7.7915 C   0  0  0  0  0  0  0  0  0  0  0  0
   -7.3303  -19.2326    7.2755 C   0  0  0  0  0  0  0  0  0  0  0  0
   -6.5841  -16.8158    4.2844 C   0  0  0  0  0  0  0  0  0  0  0  0
   -6.6098  -17.8355    3.6038 O   0  0  0  0  0  0  0  0  0  0  0  0
   -7.4060  -15.7734    4.0822 N   0  0  0  0  0  0  0  0  0  0  0  0
   -7.3200  -14.9769    4.6543 H   0  0  0  0  0  0  0  0  0  0  0  0
   -9.7132  -16.1755    3.3233 C   0  0  0  0  0  0  0  0  0  0  0  0
  -10.6652  -16.1653    2.3068 C   0  0  0  0  0  0  0  0  0  0  0  0
   -8.0482  -15.4066    1.7683 C   0  0  0  0  0  0  0  0  0  0  0  0
   -8.3935  -15.7904    3.0669 C   0  0  0  0  0  0  0  0  0  0  0  0
   -8.9987  -15.4076    0.7499 C   0  0  0  0  0  0  0  0  0  0  0  0
  -10.3122  -15.7856    1.0151 C   0  0  0  0  0  0  0  0  0  0  0  0
   -3.5222  -15.9033    4.3536 C   0  0  0  0  0  0  0  0  0  0  0  0
   -2.1543  -16.5745    4.2699 C   0  0  0  0  0  0  0  0  0  0  0  0
   -3.4173  -14.3993    4.5230 C   0  0  0  0  0  0  0  0  0  0  0  0
   -2.4544  -16.3479    7.2463 C   0  0  0  0  0  0  0  0  0  0  0  0
   -2.4779  -15.3104    8.3518 C   0  0  0  0  0  0  0  0  0  0  0  0
   -1.6055  -15.8122    9.4946 C   0  0  0  0  0  0  0  0  0  0  0  0
   -0.2462  -15.5872    9.1678 O   0  0  0  0  0  0  0  0  0  0  0  0
   -0.1007  -14.6390    9.0246 H   0  0  0  0  0  0  0  0  0  0  0  0
   -1.9800  -15.0631   10.7668 C   0  0  0  0  0  0  0  0  0  0  0  0
   -2.4113  -13.6401   10.4398 C   0  0  0  0  0  0  0  0  0  0  0  0
   -3.5650  -13.3786   11.2205 O   0  0  0  0  0  0  0  0  0  0  0  0
   -3.3532  -13.4960   12.1598 H   0  0  0  0  0  0  0  0  0  0  0  0
   -1.2681  -12.6818   10.7545 C   0  0  0  0  0  0  0  0  0  0  0  0
   -2.0857  -10.4547   10.9599 O   0  0  0  0  0  0  0  0  0  0  0  0
   -1.7409  -11.4942   11.5651 C   0  0  0  0  0  0  0  0  0  0  0  0
   -1.7809  -11.5968   12.8105 O   0  0  0  0  0  0  0  0  0  0  0  0
   -2.0401  -10.4200   10.0247 H   0  0  0  0  0  0  0  0  0  0  0  0
  1  4  1  0  0  0
  1  2  1  0  0  0
  1 30  1  0  0  0
  2  3  2  0  0  0
  2 33  1  0  0  0
  3  9  1  0  0  0
  3  5  1  0  0  0
 30 31  1  0  0  0
 30 32  1  0  0  0
 33 34  1  0  0  0
 34 35  1  0  0  0
 38 39  1  0  0  0
 38 35  1  0  0  0
  6 10  2  0  0  0
  6 12  1  0  0  0
 24 27  2  0  0  0
 24 25  1  0  0  0
 25 29  2  0  0  0
  7  8  2  0  0  0
  7  9  1  0  0  0
 13 14  2  0  0  0
 13 16  1  0  0  0
  8 10  1  0  0  0
 26 27  1  0  0  0
 26 28  2  0  0  0
 14 17  1  0  0  0
 14 18  1  0  0  0
 43 44  1  0  0  0
 44 45  2  0  0  0
 44 42  1  0  0  0
 42 39  1  0  0  0
 39 40  1  0  0  0
 35 36  1  0  0  0
  9 12  2  0  0  0
 10 11  1  0  0  0
  4  5  2  0  0  0
  4 20  1  0  0  0
  5 15  1  0  0  0
 15 16  2  0  0  0
 15 19  1  0  0  0
 18 19  2  0  0  0
 20 22  1  0  0  0
 20 21  2  0  0  0
 22 27  1  0  0  0
 28 29  1  0  0  0
 43 46  1  0  0  0
 40 41  1  0  0  0
 36 37  1  0  0  0
 22 23  1  0  0  0
M  END
> <minimizedAffinity>
-8.60471

$$$$
3CD7_882_A_1


 46 49  0  0  0  0  0  0  0  0999 V2000
   -7.4381  -17.4010    8.4650 N   0  0  0  0  0  0  0  0  0  0  0  0
   -6.0911  -17.3054    8.3266 C   0  0  0  0  0  0  0  0  0  0  0  0
   -5.8598  -17.0329    6.9986 C   0  0  0  0  0  0  0  0  0  0  0  0
   -8.0463  -17.2004    7.2638 C   0  0  0  0  0  0  0  0  0  0  0  0
   -7.0396  -17.0302    6.3319 C   0  0  0  0  0  0  0  0  0  0  0  0
   -2.5149  -17.7594    5.3383 C   0  0  0  0  0  0  0  0  0  0  0  0
   -3.9650  -15.6241    6.3537 C   0  0  0  0  0  0  0  0  0  0  0  0
   -2.7085  -15.3955    5.8067 C   0  0  0  0  0  0  0  0  0  0  0  0
   -4.5049  -16.9117    6.3867 C   0  0  0  0  0  0  0  0  0  0  0  0
   -1.9814  -16.4676    5.3018 C   0  0  0  0  0  0  0  0  0  0  0  0
   -0.7649  -16.2486    4.7735 F   0  0  0  0  0  0  0  0  0  0  0  0
   -3.7809  -17.9889    5.8829 C   0  0  0  0  0  0  0  0  0  0  0  0
   -7.3137  -15.1614    3.0679 C   0  0  0  0  0  0  0  0  0  0  0  0
   -7.3739  -16.2238    2.1680 C   0  0  0  0  0  0  0  0  0  0  0  0
   -7.1111  -16.7186    4.8855 C   0  0  0  0  0  0  0  0  0  0  0  0
   -7.1977  -15.4089    4.4296 C   0  0  0  0  0  0  0  0  0  0  0  0
   -7.4831  -15.9649    0.8583 F   0  0  0  0  0  0  0  0  0  0  0  0
   -7.3143  -17.5370    2.6236 C   0  0  0  0  0  0  0  0  0  0  0  0
   -7.1963  -17.7833    3.9893 C   0  0  0  0  0  0  0  0  0  0  0  0
   -9.4895  -17.2445    6.9055 C   0  0  0  0  0  0  0  0  0  0  0  0
  -10.1314  -16.2576    7.2485 O   0  0  0  0  0  0  0  0  0  0  0  0
  -10.0140  -18.2538    6.1920 N   0  0  0  0  0  0  0  0  0  0  0  0
   -9.4472  -19.0261    5.9652 H   0  0  0  0  0  0  0  0  0  0  0  0
  -12.3595  -18.9705    6.4062 C   0  0  0  0  0  0  0  0  0  0  0  0
  -13.6793  -18.9187    5.9645 C   0  0  0  0  0  0  0  0  0  0  0  0
  -11.7152  -17.4589    4.6509 C   0  0  0  0  0  0  0  0  0  0  0  0
  -11.3620  -18.2360    5.7572 C   0  0  0  0  0  0  0  0  0  0  0  0
  -13.0337  -17.4166    4.2031 C   0  0  0  0  0  0  0  0  0  0  0  0
  -14.0222  -18.1454    4.8591 C   0  0  0  0  0  0  0  0  0  0  0  0
   -8.1232  -17.6578    9.7646 C   0  0  0  0  0  0  0  0  0  0  0  0
   -8.0546  -16.4410   10.6829 C   0  0  0  0  0  0  0  0  0  0  0  0
   -7.5020  -18.8908   10.3936 C   0  0  0  0  0  0  0  0  0  0  0  0
   -5.0385  -17.4236    9.3960 C   0  0  0  0  0  0  0  0  0  0  0  0
   -4.5940  -16.0555    9.8754 C   0  0  0  0  0  0  0  0  0  0  0  0
   -3.0805  -16.0781   10.0430 C   0  0  0  0  0  0  0  0  0  0  0  0
   -2.5388  -17.0710    9.1910 O   0  0  0  0  0  0  0  0  0  0  0  0
   -2.7727  -16.8705    8.2712 H   0  0  0  0  0  0  0  0  0  0  0  0
   -2.5241  -14.7061    9.6855 C   0  0  0  0  0  0  0  0  0  0  0  0
   -2.5343  -13.7932   10.9038 C   0  0  0  0  0  0  0  0  0  0  0  0
   -1.6933  -14.4000   11.8699 O   0  0  0  0  0  0  0  0  0  0  0  0
   -0.8045  -14.5143   11.4988 H   0  0  0  0  0  0  0  0  0  0  0  0
   -2.0466  -12.4065   10.4989 C   0  0  0  0  0  0  0  0  0  0  0  0
    0.1101  -11.7735   11.2854 O   0  0  0  0  0  0  0  0  0  0  0  0
   -1.1152  -11.8165   11.5358 C   0  0  0  0  0  0  0  0  0  0  0  0
   -1.6034  -11.3825   12.6017 O   0  0  0  0  0  0  0  0  0  0  0  0
    0.4345  -12.1103   10.4734 H   0  0  0  0  0  0  0  0  0  0  0  0
  1  4  1  0  0  0
  1  2  1  0  0  0
  1 30  1  0  0  0
  2  3  2  0  0  0
  2 33  1  0  0  0
  3  9  1  0  0  0
  3  5  1  0  0  0
 30 31  1  0  0  0
 30 32  1  0  0  0
 33 34  1  0  0  0
 34 35  1  0  0  0
 38 39  1  0  0  0
 38 35  1  0  0  0
  6 10  2  0  0  0
  6 12  1  0  0  0
 24 27  2  0  0  0
 24 25  1  0  0  0
 25 29  2  0  0  0
  7  8  2  0  0  0
  7  9  1  0  0  0
 13 14  2  0  0  0
 13 16  1  0  0  0
  8 10  1  0  0  0
 26 27  1  0  0  0
 26 28  2  0  0  0
 14 17  1  0  0  0
 14 18  1  0  0  0
 43 44  1  0  0  0
 44 45  2  0  0  0
 44 42  1  0  0  0
 42 39  1  0  0  0
 39 40  1  0  0  0
 35 36  1  0  0  0
  9 12  2  0  0  0
 10 11  1  0  0  0
  4  5  2  0  0  0
  4 20  1  0  0  0
  5 15  1  0  0  0
 15 16  2  0  0  0
 15 19  1  0  0  0
 18 19  2  0  0  0
 20 22  1  0  0  0
 20 21  2  0  0  0
 22 27  1  0  0  0
 28 29  1  0  0  0
 43 46  1  0  0  0
 40 41  1  0  0  0
 36 37  1  0  0  0
 22 23  1  0  0  0
M  END
> <minimizedAffinity>
-8.42627

$$$$
3CD7_882_A_1


 46 49  0  0  0  0  0  0  0  0999 V2000
   -5.1744  -16.3046    5.9230 N   0  0  0  0  0  0  0  0  0  0  0  0
   -5.3388  -16.4969    7.2567 C   0  0  0  0  0  0  0  0  0  0  0  0
   -6.6919  -16.6340    7.4611 C   0  0  0  0  0  0  0  0  0  0  0  0
   -6.3833  -16.3144    5.2973 C   0  0  0  0  0  0  0  0  0  0  0  0
   -7.3404  -16.4608    6.2839 C   0  0  0  0  0  0  0  0  0  0  0  0
   -8.2491  -18.0653   10.6233 C   0  0  0  0  0  0  0  0  0  0  0  0
   -7.6237  -15.6157    9.4823 C   0  0  0  0  0  0  0  0  0  0  0  0
   -8.2194  -15.6505   10.7370 C   0  0  0  0  0  0  0  0  0  0  0  0
   -7.3296  -16.7979    8.7994 C   0  0  0  0  0  0  0  0  0  0  0  0
   -8.5358  -16.8793   11.3057 C   0  0  0  0  0  0  0  0  0  0  0  0
   -9.1135  -16.9149   12.5188 F   0  0  0  0  0  0  0  0  0  0  0  0
   -7.6447  -18.0309    9.3640 C   0  0  0  0  0  0  0  0  0  0  0  0
  -11.0332  -15.6996    6.3531 C   0  0  0  0  0  0  0  0  0  0  0  0
  -11.5610  -16.9652    6.1040 C   0  0  0  0  0  0  0  0  0  0  0  0
   -8.8119  -16.5975    6.1829 C   0  0  0  0  0  0  0  0  0  0  0  0
   -9.6574  -15.5182    6.4079 C   0  0  0  0  0  0  0  0  0  0  0  0
  -12.8906  -17.1198    6.0522 F   0  0  0  0  0  0  0  0  0  0  0  0
  -10.7173  -18.0533    5.9047 C   0  0  0  0  0  0  0  0  0  0  0  0
   -9.3379  -17.8692    5.9585 C   0  0  0  0  0  0  0  0  0  0  0  0
   -6.7170  -16.1081    3.8624 C   0  0  0  0  0  0  0  0  0  0  0  0
   -6.4710  -14.9846    3.4371 O   0  0  0  0  0  0  0  0  0  0  0  0
   -7.1736  -17.1058    3.0884 N   0  0  0  0  0  0  0  0  0  0  0  0
   -7.3683  -17.9797    3.4977 H   0  0  0  0  0  0  0  0  0  0  0  0
   -7.0348  -17.9188    0.7688 C   0  0  0  0  0  0  0  0  0  0  0  0
   -7.2686  -17.7258   -0.5906 C   0  0  0  0  0  0  0  0  0  0  0  0
   -7.9581  -15.7478    1.2333 C   0  0  0  0  0  0  0  0  0  0  0  0
   -7.3824  -16.9332    1.6981 C   0  0  0  0  0  0  0  0  0  0  0  0
   -8.1811  -15.5512   -0.1277 C   0  0  0  0  0  0  0  0  0  0  0  0
   -7.8386  -16.5403   -1.0458 C   0  0  0  0  0  0  0  0  0  0  0  0
   -3.8459  -16.1417    5.2651 C   0  0  0  0  0  0  0  0  0  0  0  0
   -3.6969  -14.7569    4.6413 C   0  0  0  0  0  0  0  0  0  0  0  0
   -3.6804  -17.2539    4.2467 C   0  0  0  0  0  0  0  0  0  0  0  0
   -4.2756  -16.5911    8.3179 C   0  0  0  0  0  0  0  0  0  0  0  0
   -3.8076  -15.2130    8.7433 C   0  0  0  0  0  0  0  0  0  0  0  0
   -2.3117  -15.2822    9.0195 C   0  0  0  0  0  0  0  0  0  0  0  0
   -1.7151  -16.1762    8.0975 O   0  0  0  0  0  0  0  0  0  0  0  0
   -1.8764  -15.8636    7.1935 H   0  0  0  0  0  0  0  0  0  0  0  0
   -1.7178  -13.8874    8.8717 C   0  0  0  0  0  0  0  0  0  0  0  0
   -1.2383  -13.3670   10.2196 C   0  0  0  0  0  0  0  0  0  0  0  0
    0.0591  -13.9012   10.4203 O   0  0  0  0  0  0  0  0  0  0  0  0
    0.6371  -13.6296    9.6903 H   0  0  0  0  0  0  0  0  0  0  0  0
   -1.2417  -11.8424   10.2017 C   0  0  0  0  0  0  0  0  0  0  0  0
   -3.5111  -11.3395   10.7189 O   0  0  0  0  0  0  0  0  0  0  0  0
   -2.3206  -11.2750   11.0988 C   0  0  0  0  0  0  0  0  0  0  0  0
   -1.9861  -10.7713   12.1931 O   0  0  0  0  0  0  0  0  0  0  0  0
   -3.7183  -11.7255    9.8906 H   0  0  0  0  0  0  0  0  0  0  0  0
  1  4  1  0  0  0
  1  2  1  0  0  0
  1 30  1  0  0  0
  2  3  2  0  0  0
  2 33  1  0  0  0
  3  9  1  0  0  0
  3  5  1  0  0  0
 30 31  1  0  0  0
 30 32  1  0  0  0
 33 34  1  0  0  0
 34 35  1  0  0  0
 38 39  1  0  0  0
 38 35  1  0  0  0
  6 10  2  0  0  0
  6 12  1  0  0  0
 24 27  2  0  0  0
 24 25  1  0  0  0
 25 29  2  0  0  0
  7  8  2  0  0  0
  7  9  1  0  0  0
 13 14  2  0  0  0
 13 16  1  0  0  0
  8 10  1  0  0  0
 26 27  1  0  0  0
 26 28  2  0  0  0
 14 17  1  0  0  0
 14 18  1  0  0  0
 43 44  1  0  0  0
 44 45  2  0  0  0
 44 42  1  0  0  0
 42 39  1  0  0  0
 39 40  1  0  0  0
 35 36  1  0  0  0
  9 12  2  0  0  0
 10 11  1  0  0  0
  4  5  2  0  0  0
  4 20  1  0  0  0
  5 15  1  0  0  0
 15 16  2  0  0  0
 15 19  1  0  0  0
 18 19  2  0  0  0
 20 22  1  0  0  0
 20 21  2  0  0  0
 22 27  1  0  0  0
 28 29  1  0  0  0
 43 46  1  0  0  0
 40 41  1  0  0  0
 36 37  1  0  0  0
 22 23  1  0  0  0
M  END
> <minimizedAffinity>
-8.30879

$$$$
3CD7_882_A_1


 46 49  0  0  0  0  0  0  0  0999 V2000
   -9.2517  -15.9562    7.3285 N   0  0  0  0  0  0  0  0  0  0  0  0
   -7.9183  -16.1556    7.4875 C   0  0  0  0  0  0  0  0  0  0  0  0
   -7.4289  -16.4880    6.2461 C   0  0  0  0  0  0  0  0  0  0  0  0
   -9.6024  -16.1590    6.0289 C   0  0  0  0  0  0  0  0  0  0  0  0
   -8.4564  -16.5550    5.3650 C   0  0  0  0  0  0  0  0  0  0  0  0
   -4.1276  -18.3514    5.9265 C   0  0  0  0  0  0  0  0  0  0  0  0
   -5.2063  -15.8406    5.4513 C   0  0  0  0  0  0  0  0  0  0  0  0
   -3.8684  -16.0738    5.1581 C   0  0  0  0  0  0  0  0  0  0  0  0
   -6.0103  -16.8576    5.9708 C   0  0  0  0  0  0  0  0  0  0  0  0
   -3.3284  -17.3318    5.4007 C   0  0  0  0  0  0  0  0  0  0  0  0
   -2.0338  -17.5589    5.1191 F   0  0  0  0  0  0  0  0  0  0  0  0
   -5.4746  -18.1190    6.2159 C   0  0  0  0  0  0  0  0  0  0  0  0
   -7.9273  -18.3884    2.1124 C   0  0  0  0  0  0  0  0  0  0  0  0
   -7.6674  -17.3208    1.2552 C   0  0  0  0  0  0  0  0  0  0  0  0
   -8.2290  -16.8487    3.9310 C   0  0  0  0  0  0  0  0  0  0  0  0
   -8.1933  -18.1536    3.4551 C   0  0  0  0  0  0  0  0  0  0  0  0
   -7.4156  -17.5673   -0.0372 F   0  0  0  0  0  0  0  0  0  0  0  0
   -7.6761  -16.0147    1.7342 C   0  0  0  0  0  0  0  0  0  0  0  0
   -7.9446  -15.7810    3.0807 C   0  0  0  0  0  0  0  0  0  0  0  0
  -10.9399  -16.0982    5.3806 C   0  0  0  0  0  0  0  0  0  0  0  0
  -11.7983  -16.7927    5.9141 O   0  0  0  0  0  0  0  0  0  0  0  0
  -11.1913  -15.2811    4.3452 N   0  0  0  0  0  0  0  0  0  0  0  0
  -10.4516  -14.7642    3.9516 H   0  0  0  0  0  0  0  0  0  0  0  0
  -13.3004  -14.0374    4.0884 C   0  0  0  0  0  0  0  0  0  0  0  0
  -14.5701  -13.9233    3.5275 C   0  0  0  0  0  0  0  0  0  0  0  0
  -12.9917  -16.1363    2.9566 C   0  0  0  0  0  0  0  0  0  0  0  0
  -12.4933  -15.1437    3.8046 C   0  0  0  0  0  0  0  0  0  0  0  0
  -14.2662  -16.0265    2.4052 C   0  0  0  0  0  0  0  0  0  0  0  0
  -15.0607  -14.9184    2.6870 C   0  0  0  0  0  0  0  0  0  0  0  0
  -10.1670  -15.5439    8.4315 C   0  0  0  0  0  0  0  0  0  0  0  0
  -10.0965  -14.0406    8.6841 C   0  0  0  0  0  0  0  0  0  0  0  0
   -9.8178  -16.3533    9.6662 C   0  0  0  0  0  0  0  0  0  0  0  0
   -7.1021  -16.0077    8.7435 C   0  0  0  0  0  0  0  0  0  0  0  0
   -6.5558  -14.5994    8.8747 C   0  0  0  0  0  0  0  0  0  0  0  0
   -5.2014  -14.6764    9.5665 C   0  0  0  0  0  0  0  0  0  0  0  0
   -4.2670  -15.2686    8.6825 O   0  0  0  0  0  0  0  0  0  0  0  0
   -4.2027  -14.7350    7.8751 H   0  0  0  0  0  0  0  0  0  0  0  0
   -4.7602  -13.2687    9.9453 C   0  0  0  0  0  0  0  0  0  0  0  0
   -3.7251  -13.3168   11.0607 C   0  0  0  0  0  0  0  0  0  0  0  0
   -3.5481  -14.6843   11.3883 O   0  0  0  0  0  0  0  0  0  0  0  0
   -3.2662  -15.1721   10.5987 H   0  0  0  0  0  0  0  0  0  0  0  0
   -2.4344  -12.6635   10.5793 C   0  0  0  0  0  0  0  0  0  0  0  0
   -2.0559  -10.3244   10.8156 O   0  0  0  0  0  0  0  0  0  0  0  0
   -2.0927  -11.4339   11.3930 C   0  0  0  0  0  0  0  0  0  0  0  0
   -1.8698  -11.5678   12.6159 O   0  0  0  0  0  0  0  0  0  0  0  0
   -2.2295  -10.2685    9.8965 H   0  0  0  0  0  0  0  0  0  0  0  0
  1  4  1  0  0  0
  1  2  1  0  0  0
  1 30  1  0  0  0
  2  3  2  0  0  0
  2 33  1  0  0  0
  3  9  1  0  0  0
  3  5  1  0  0  0
 30 31  1  0  0  0
 30 32  1  0  0  0
 33 34  1  0  0  0
 34 35  1  0  0  0
 38 39  1  0  0  0
 38 35  1  0  0  0
  6 10  2  0  0  0
  6 12  1  0  0  0
 24 27  2  0  0  0
 24 25  1  0  0  0
 25 29  2  0  0  0
  7  8  2  0  0  0
  7  9  1  0  0  0
 13 14  2  0  0  0
 13 16  1  0  0  0
  8 10  1  0  0  0
 26 27  1  0  0  0
 26 28  2  0  0  0
 14 17  1  0  0  0
 14 18  1  0  0  0
 43 44  1  0  0  0
 44 45  2  0  0  0
 44 42  1  0  0  0
 42 39  1  0  0  0
 39 40  1  0  0  0
 35 36  1  0  0  0
  9 12  2  0  0  0
 10 11  1  0  0  0
  4  5  2  0  0  0
  4 20  1  0  0  0
  5 15  1  0  0  0
 15 16  2  0  0  0
 15 19  1  0  0  0
 18 19  2  0  0  0
 20 22  1  0  0  0
 20 21  2  0  0  0
 22 27  1  0  0  0
 28 29  1  0  0  0
 43 46  1  0  0  0
 40 41  1  0  0  0
 36 37  1  0  0  0
 22 23  1  0  0  0
M  END
> <minimizedAffinity>
-8.29517

$$$$
3CD7_882_A_1


 46 49  0  0  0  0  0  0  0  0999 V2000
   -4.7603  -16.3721    5.4526 N   0  0  0  0  0  0  0  0  0  0  0  0
   -4.6065  -16.4291    6.8002 C   0  0  0  0  0  0  0  0  0  0  0  0
   -5.8376  -16.1386    7.3399 C   0  0  0  0  0  0  0  0  0  0  0  0
   -6.0464  -16.0515    5.1426 C   0  0  0  0  0  0  0  0  0  0  0  0
   -6.7046  -15.8449    6.3406 C   0  0  0  0  0  0  0  0  0  0  0  0
   -6.7992  -16.8552   10.9503 C   0  0  0  0  0  0  0  0  0  0  0  0
   -5.8967  -14.7655    9.3652 C   0  0  0  0  0  0  0  0  0  0  0  0
   -6.1207  -14.5463   10.7188 C   0  0  0  0  0  0  0  0  0  0  0  0
   -6.1113  -16.0253    8.8017 C   0  0  0  0  0  0  0  0  0  0  0  0
   -6.5769  -15.5939   11.5110 C   0  0  0  0  0  0  0  0  0  0  0  0
   -6.7956  -15.3832   12.8204 F   0  0  0  0  0  0  0  0  0  0  0  0
   -6.5684  -17.0777    9.5903 C   0  0  0  0  0  0  0  0  0  0  0  0
   -9.8432  -14.1302    7.5362 C   0  0  0  0  0  0  0  0  0  0  0  0
  -10.7999  -15.0902    7.2115 C   0  0  0  0  0  0  0  0  0  0  0  0
   -8.1269  -15.5358    6.6152 C   0  0  0  0  0  0  0  0  0  0  0  0
   -8.5033  -14.3595    7.2518 C   0  0  0  0  0  0  0  0  0  0  0  0
  -12.0876  -14.8497    7.4913 F   0  0  0  0  0  0  0  0  0  0  0  0
  -10.4230  -16.2807    6.5981 C   0  0  0  0  0  0  0  0  0  0  0  0
   -9.0791  -16.5082    6.3122 C   0  0  0  0  0  0  0  0  0  0  0  0
   -6.6831  -15.8362    3.8155 C   0  0  0  0  0  0  0  0  0  0  0  0
   -6.5052  -14.7206    3.3384 O   0  0  0  0  0  0  0  0  0  0  0  0
   -7.3280  -16.8204    3.1686 N   0  0  0  0  0  0  0  0  0  0  0  0
   -7.4524  -17.6879    3.6170 H   0  0  0  0  0  0  0  0  0  0  0  0
   -7.1907  -17.1762    0.7364 C   0  0  0  0  0  0  0  0  0  0  0  0
   -7.7229  -16.9981   -0.5383 C   0  0  0  0  0  0  0  0  0  0  0  0
   -9.0143  -15.9181    1.6708 C   0  0  0  0  0  0  0  0  0  0  0  0
   -7.8340  -16.6425    1.8576 C   0  0  0  0  0  0  0  0  0  0  0  0
   -9.5396  -15.7310    0.3942 C   0  0  0  0  0  0  0  0  0  0  0  0
   -8.8968  -16.2717   -0.7162 C   0  0  0  0  0  0  0  0  0  0  0  0
   -3.6667  -16.6564    4.4792 C   0  0  0  0  0  0  0  0  0  0  0  0
   -2.8129  -17.8392    4.9273 C   0  0  0  0  0  0  0  0  0  0  0  0
   -2.8498  -15.3907    4.2995 C   0  0  0  0  0  0  0  0  0  0  0  0
   -3.3664  -16.7797    7.5777 C   0  0  0  0  0  0  0  0  0  0  0  0
   -2.6892  -15.5332    8.1132 C   0  0  0  0  0  0  0  0  0  0  0  0
   -2.2831  -15.7948    9.5573 C   0  0  0  0  0  0  0  0  0  0  0  0
   -2.4719  -14.6100   10.3095 O   0  0  0  0  0  0  0  0  0  0  0  0
   -3.4036  -14.3437   10.2648 H   0  0  0  0  0  0  0  0  0  0  0  0
   -3.1408  -16.9235   10.1143 C   0  0  0  0  0  0  0  0  0  0  0  0
   -2.4929  -17.5228   11.3547 C   0  0  0  0  0  0  0  0  0  0  0  0
   -3.5506  -17.9332   12.2043 O   0  0  0  0  0  0  0  0  0  0  0  0
   -4.1138  -18.5688   11.7355 H   0  0  0  0  0  0  0  0  0  0  0  0
   -1.5948  -18.6842   10.9435 C   0  0  0  0  0  0  0  0  0  0  0  0
   -3.2162  -20.4150   11.1584 O   0  0  0  0  0  0  0  0  0  0  0  0
   -2.3976  -19.8471   10.4013 C   0  0  0  0  0  0  0  0  0  0  0  0
   -2.2230  -20.1930    9.2126 O   0  0  0  0  0  0  0  0  0  0  0  0
   -3.3159  -20.1237   12.0434 H   0  0  0  0  0  0  0  0  0  0  0  0
  1  4  1  0  0  0
  1  2  1  0  0  0
  1 30  1  0  0  0
  2  3  2  0  0  0
  2 33  1  0  0  0
  3  9  1  0  0  0
  3  5  1  0  0  0
 30 31  1  0  0  0
 30 32  1  0  0  0
 33 34  1  0  0  0
 34 35  1  0  0  0
 38 39  1  0  0  0
 38 35  1  0  0  0
  6 10  2  0  0  0
  6 12  1  0  0  0
 24 27  2  0  0  0
 24 25  1  0  0  0
 25 29  2  0  0  0
  7  8  2  0  0  0
  7  9  1  0  0  0
 13 14  2  0  0  0
 13 16  1  0  0  0
  8 10  1  0  0  0
 26 27  1  0  0  0
 26 28  2  0  0  0
 14 17  1  0  0  0
 14 18  1  0  0  0
 43 44  1  0  0  0
 44 45  2  0  0  0
 44 42  1  0  0  0
 42 39  1  0  0  0
 39 40  1  0  0  0
 35 36  1  0  0  0
  9 12  2  0  0  0
 10 11  1  0  0  0
  4  5  2  0  0  0
  4 20  1  0  0  0
  5 15  1  0  0  0
 15 16  2  0  0  0
 15 19  1  0  0  0
 18 19  2  0  0  0
 20 22  1  0  0  0
 20 21  2  0  0  0
 22 27  1  0  0  0
 28 29  1  0  0  0
 43 46  1  0  0  0
 40 41  1  0  0  0
 36 37  1  0  0  0
 22 23  1  0  0  0
M  END
> <minimizedAffinity>
-8.27359

$$$$
3CD7_882_A_1


 46 49  0  0  0  0  0  0  0  0999 V2000
   -9.0594  -15.7318    6.5388 N   0  0  0  0  0  0  0  0  0  0  0  0
   -7.7071  -15.7466    6.6570 C   0  0  0  0  0  0  0  0  0  0  0  0
   -7.2169  -16.0865    5.4179 C   0  0  0  0  0  0  0  0  0  0  0  0
   -9.4205  -16.0560    5.2671 C   0  0  0  0  0  0  0  0  0  0  0  0
   -8.2535  -16.3390    4.5822 C   0  0  0  0  0  0  0  0  0  0  0  0
   -3.7335  -17.5539    4.9871 C   0  0  0  0  0  0  0  0  0  0  0  0
   -5.0970  -15.1680    4.6099 C   0  0  0  0  0  0  0  0  0  0  0  0
   -3.7471  -15.2393    4.2887 C   0  0  0  0  0  0  0  0  0  0  0  0
   -5.7713  -16.2847    5.1088 C   0  0  0  0  0  0  0  0  0  0  0  0
   -3.0644  -16.4350    4.4821 C   0  0  0  0  0  0  0  0  0  0  0  0
   -1.7580  -16.5055    4.1733 F   0  0  0  0  0  0  0  0  0  0  0  0
   -5.0924  -17.4843    5.3047 C   0  0  0  0  0  0  0  0  0  0  0  0
   -7.5153  -18.2666    1.4262 C   0  0  0  0  0  0  0  0  0  0  0  0
   -7.5050  -17.2335    0.4909 C   0  0  0  0  0  0  0  0  0  0  0  0
   -8.0341  -16.6862    3.1590 C   0  0  0  0  0  0  0  0  0  0  0  0
   -7.7649  -17.9909    2.7644 C   0  0  0  0  0  0  0  0  0  0  0  0
   -7.2649  -17.5196   -0.7956 F   0  0  0  0  0  0  0  0  0  0  0  0
   -7.7478  -15.9222    0.8872 C   0  0  0  0  0  0  0  0  0  0  0  0
   -7.9995  -15.6478    2.2292 C   0  0  0  0  0  0  0  0  0  0  0  0
  -10.7739  -16.2083    4.6686 C   0  0  0  0  0  0  0  0  0  0  0  0
  -11.5009  -17.0090    5.2465 O   0  0  0  0  0  0  0  0  0  0  0  0
  -11.1793  -15.4616    3.6288 N   0  0  0  0  0  0  0  0  0  0  0  0
  -10.5385  -14.8506    3.1984 H   0  0  0  0  0  0  0  0  0  0  0  0
  -13.4809  -14.5974    3.5002 C   0  0  0  0  0  0  0  0  0  0  0  0
  -14.7717  -14.6825    2.9843 C   0  0  0  0  0  0  0  0  0  0  0  0
  -12.8555  -16.5550    2.2521 C   0  0  0  0  0  0  0  0  0  0  0  0
  -12.5052  -15.5304    3.1353 C   0  0  0  0  0  0  0  0  0  0  0  0
  -14.1500  -16.6457    1.7454 C   0  0  0  0  0  0  0  0  0  0  0  0
  -15.1138  -15.7086    2.1082 C   0  0  0  0  0  0  0  0  0  0  0  0
   -9.9863  -15.3763    7.6519 C   0  0  0  0  0  0  0  0  0  0  0  0
   -9.6549  -14.0077    8.2400 C   0  0  0  0  0  0  0  0  0  0  0  0
   -9.9266  -16.4803    8.6907 C   0  0  0  0  0  0  0  0  0  0  0  0
   -6.8788  -15.4189    7.8703 C   0  0  0  0  0  0  0  0  0  0  0  0
   -6.3196  -16.6780    8.5036 C   0  0  0  0  0  0  0  0  0  0  0  0
   -4.9781  -16.3365    9.1383 C   0  0  0  0  0  0  0  0  0  0  0  0
   -4.2449  -17.5320    9.3340 O   0  0  0  0  0  0  0  0  0  0  0  0
   -4.1109  -17.9726    8.4803 H   0  0  0  0  0  0  0  0  0  0  0  0
   -4.2215  -15.3912    8.2142 C   0  0  0  0  0  0  0  0  0  0  0  0
   -3.1865  -14.5956    8.9974 C   0  0  0  0  0  0  0  0  0  0  0  0
   -3.2655  -15.0422   10.3402 O   0  0  0  0  0  0  0  0  0  0  0  0
   -3.1024  -15.9978   10.3733 H   0  0  0  0  0  0  0  0  0  0  0  0
   -1.8075  -14.8261    8.3894 C   0  0  0  0  0  0  0  0  0  0  0  0
    0.1572  -15.1407    9.6978 O   0  0  0  0  0  0  0  0  0  0  0  0
   -0.9210  -15.6409    9.3064 C   0  0  0  0  0  0  0  0  0  0  0  0
   -1.3018  -16.7812    9.6500 O   0  0  0  0  0  0  0  0  0  0  0  0
    0.4049  -14.2822    9.4159 H   0  0  0  0  0  0  0  0  0  0  0  0
  1  4  1  0  0  0
  1  2  1  0  0  0
  1 30  1  0  0  0
  2  3  2  0  0  0
  2 33  1  0  0  0
  3  9  1  0  0  0
  3  5  1  0  0  0
 30 31  1  0  0  0
 30 32  1  0  0  0
 33 34  1  0  0  0
 34 35  1  0  0  0
 38 39  1  0  0  0
 38 35  1  0  0  0
  6 10  2  0  0  0
  6 12  1  0  0  0
 24 27  2  0  0  0
 24 25  1  0  0  0
 25 29  2  0  0  0
  7  8  2  0  0  0
  7  9  1  0  0  0
 13 14  2  0  0  0
 13 16  1  0  0  0
  8 10  1  0  0  0
 26 27  1  0  0  0
 26 28  2  0  0  0
 14 17  1  0  0  0
 14 18  1  0  0  0
 43 44  1  0  0  0
 44 45  2  0  0  0
 44 42  1  0  0  0
 42 39  1  0  0  0
 39 40  1  0  0  0
 35 36  1  0  0  0
  9 12  2  0  0  0
 10 11  1  0  0  0
  4  5  2  0  0  0
  4 20  1  0  0  0
  5 15  1  0  0  0
 15 16  2  0  0  0
 15 19  1  0  0  0
 18 19  2  0  0  0
 20 22  1  0  0  0
 20 21  2  0  0  0
 22 27  1  0  0  0
 28 29  1  0  0  0
 43 46  1  0  0  0
 40 41  1  0  0  0
 36 37  1  0  0  0
 22 23  1  0  0  0
M  END
> <minimizedAffinity>
-8.14573

$$$$
3CD7_882_A_1


 46 49  0  0  0  0  0  0  0  0999 V2000
   -6.3748  -16.5849    9.2614 N   0  0  0  0  0  0  0  0  0  0  0  0
   -7.2675  -16.9913    8.3229 C   0  0  0  0  0  0  0  0  0  0  0  0
   -6.6363  -16.8563    7.1086 C   0  0  0  0  0  0  0  0  0  0  0  0
   -5.2135  -16.1990    8.6652 C   0  0  0  0  0  0  0  0  0  0  0  0
   -5.4091  -16.3149    7.3016 C   0  0  0  0  0  0  0  0  0  0  0  0
   -7.7712  -18.4651    3.8533 C   0  0  0  0  0  0  0  0  0  0  0  0
   -8.0528  -16.0935    5.2640 C   0  0  0  0  0  0  0  0  0  0  0  0
   -8.6962  -16.2393    4.0412 C   0  0  0  0  0  0  0  0  0  0  0  0
   -7.2782  -17.1297    5.7902 C   0  0  0  0  0  0  0  0  0  0  0  0
   -8.5506  -17.4273    3.3336 C   0  0  0  0  0  0  0  0  0  0  0  0
   -9.1711  -17.5695    2.1497 F   0  0  0  0  0  0  0  0  0  0  0  0
   -7.1288  -18.3211    5.0857 C   0  0  0  0  0  0  0  0  0  0  0  0
   -3.6838  -14.8039    4.3081 C   0  0  0  0  0  0  0  0  0  0  0  0
   -2.7734  -15.8130    3.9999 C   0  0  0  0  0  0  0  0  0  0  0  0
   -4.4743  -16.0932    6.1741 C   0  0  0  0  0  0  0  0  0  0  0  0
   -4.5459  -14.9505    5.3871 C   0  0  0  0  0  0  0  0  0  0  0  0
   -1.9483  -15.6521    2.9570 F   0  0  0  0  0  0  0  0  0  0  0  0
   -2.7175  -16.9703    4.7701 C   0  0  0  0  0  0  0  0  0  0  0  0
   -3.5816  -17.1149    5.8527 C   0  0  0  0  0  0  0  0  0  0  0  0
   -3.9697  -15.6469    9.2660 C   0  0  0  0  0  0  0  0  0  0  0  0
   -3.1812  -16.4921    9.6753 O   0  0  0  0  0  0  0  0  0  0  0  0
   -3.7100  -14.3295    9.2773 N   0  0  0  0  0  0  0  0  0  0  0  0
   -4.3952  -13.7028    8.9501 H   0  0  0  0  0  0  0  0  0  0  0  0
   -2.3967  -12.9924   10.8736 C   0  0  0  0  0  0  0  0  0  0  0  0
   -1.1656  -12.5195   11.3213 C   0  0  0  0  0  0  0  0  0  0  0  0
   -1.2959  -14.1493    9.0761 C   0  0  0  0  0  0  0  0  0  0  0  0
   -2.4757  -13.8183    9.7478 C   0  0  0  0  0  0  0  0  0  0  0  0
   -0.0662  -13.6665    9.5182 C   0  0  0  0  0  0  0  0  0  0  0  0
    0.0046  -12.8505   10.6441 C   0  0  0  0  0  0  0  0  0  0  0  0
   -6.6464  -16.6012   10.7278 C   0  0  0  0  0  0  0  0  0  0  0  0
   -6.4037  -15.2321   11.3567 C   0  0  0  0  0  0  0  0  0  0  0  0
   -5.7912  -17.6847   11.3573 C   0  0  0  0  0  0  0  0  0  0  0  0
   -8.6572  -17.5285    8.5364 C   0  0  0  0  0  0  0  0  0  0  0  0
   -8.7442  -18.9879    8.1342 C   0  0  0  0  0  0  0  0  0  0  0  0
   -7.5403  -19.7153    8.7178 C   0  0  0  0  0  0  0  0  0  0  0  0
   -7.8853  -20.2247    9.9932 O   0  0  0  0  0  0  0  0  0  0  0  0
   -8.6362  -20.8326    9.9063 H   0  0  0  0  0  0  0  0  0  0  0  0
   -7.1457  -20.8480    7.7791 C   0  0  0  0  0  0  0  0  0  0  0  0
   -5.6460  -21.1002    7.8495 C   0  0  0  0  0  0  0  0  0  0  0  0
   -5.2525  -21.5547    6.5660 O   0  0  0  0  0  0  0  0  0  0  0  0
   -5.4863  -20.8881    5.9012 H   0  0  0  0  0  0  0  0  0  0  0  0
   -4.9363  -19.8122    8.2518 C   0  0  0  0  0  0  0  0  0  0  0  0
   -2.8642  -20.2708    7.1717 O   0  0  0  0  0  0  0  0  0  0  0  0
   -3.4319  -19.9778    8.2476 C   0  0  0  0  0  0  0  0  0  0  0  0
   -2.8073  -19.8055    9.3169 O   0  0  0  0  0  0  0  0  0  0  0  0
   -3.3706  -20.3913    6.3925 H   0  0  0  0  0  0  0  0  0  0  0  0
  1  4  1  0  0  0
  1  2  1  0  0  0
  1 30  1  0  0  0
  2  3  2  0  0  0
  2 33  1  0  0  0
  3  9  1  0  0  0
  3  5  1  0  0  0
 30 31  1  0  0  0
 30 32  1  0  0  0
 33 34  1  0  0  0
 34 35  1  0  0  0
 38 39  1  0  0  0
 38 35  1  0  0  0
  6 10  2  0  0  0
  6 12  1  0  0  0
 24 27  2  0  0  0
 24 25  1  0  0  0
 25 29  2  0  0  0
  7  8  2  0  0  0
  7  9  1  0  0  0
 13 14  2  0  0  0
 13 16  1  0  0  0
  8 10  1  0  0  0
 26 27  1  0  0  0
 26 28  2  0  0  0
 14 17  1  0  0  0
 14 18  1  0  0  0
 43 44  1  0  0  0
 44 45  2  0  0  0
 44 42  1  0  0  0
 42 39  1  0  0  0
 39 40  1  0  0  0
 35 36  1  0  0  0
  9 12  2  0  0  0
 10 11  1  0  0  0
  4  5  2  0  0  0
  4 20  1  0  0  0
  5 15  1  0  0  0
 15 16  2  0  0  0
 15 19  1  0  0  0
 18 19  2  0  0  0
 20 22  1  0  0  0
 20 21  2  0  0  0
 22 27  1  0  0  0
 28 29  1  0  0  0
 43 46  1  0  0  0
 40 41  1  0  0  0
 36 37  1  0  0  0
 22 23  1  0  0  0
M  END
> <minimizedAffinity>
-8.02607

$$$$
3CD7_882_A_1


 46 49  0  0  0  0  0  0  0  0999 V2000
   -8.3291  -16.4831    6.9003 N   0  0  0  0  0  0  0  0  0  0  0  0
   -6.9819  -16.3202    6.8624 C   0  0  0  0  0  0  0  0  0  0  0  0
   -6.6341  -16.3053    5.5320 C   0  0  0  0  0  0  0  0  0  0  0  0
   -8.8242  -16.5736    5.6355 C   0  0  0  0  0  0  0  0  0  0  0  0
   -7.7400  -16.5227    4.7795 C   0  0  0  0  0  0  0  0  0  0  0  0
   -3.0890  -17.1024    4.4048 C   0  0  0  0  0  0  0  0  0  0  0  0
   -4.7830  -14.9280    4.7151 C   0  0  0  0  0  0  0  0  0  0  0  0
   -3.4940  -14.7247    4.2380 C   0  0  0  0  0  0  0  0  0  0  0  0
   -5.2333  -16.2125    5.0282 C   0  0  0  0  0  0  0  0  0  0  0  0
   -2.6450  -15.8154    4.0869 C   0  0  0  0  0  0  0  0  0  0  0  0
   -1.3971  -15.6205    3.6269 F   0  0  0  0  0  0  0  0  0  0  0  0
   -4.3871  -17.3080    4.8791 C   0  0  0  0  0  0  0  0  0  0  0  0
   -7.9960  -15.4313    1.1789 C   0  0  0  0  0  0  0  0  0  0  0  0
   -7.6787  -16.6213    0.5267 C   0  0  0  0  0  0  0  0  0  0  0  0
   -7.6832  -16.5155    3.2993 C   0  0  0  0  0  0  0  0  0  0  0  0
   -8.0134  -15.3820    2.5668 C   0  0  0  0  0  0  0  0  0  0  0  0
   -7.6646  -16.6484   -0.8125 F   0  0  0  0  0  0  0  0  0  0  0  0
   -7.3736  -17.7652    1.2574 C   0  0  0  0  0  0  0  0  0  0  0  0
   -7.3900  -17.7135    2.6490 C   0  0  0  0  0  0  0  0  0  0  0  0
  -10.2200  -16.7934    5.1704 C   0  0  0  0  0  0  0  0  0  0  0  0
  -10.8417  -15.7673    4.9170 O   0  0  0  0  0  0  0  0  0  0  0  0
  -10.7171  -18.0248    4.9712 N   0  0  0  0  0  0  0  0  0  0  0  0
  -10.1711  -18.8073    5.2134 H   0  0  0  0  0  0  0  0  0  0  0  0
  -12.2213  -18.2958    3.0412 C   0  0  0  0  0  0  0  0  0  0  0  0
  -13.4995  -18.5124    2.5322 C   0  0  0  0  0  0  0  0  0  0  0  0
  -13.1023  -18.3681    5.2773 C   0  0  0  0  0  0  0  0  0  0  0  0
  -12.0068  -18.2267    4.4214 C   0  0  0  0  0  0  0  0  0  0  0  0
  -14.3821  -18.5734    4.7667 C   0  0  0  0  0  0  0  0  0  0  0  0
  -14.5862  -18.6480    3.3914 C   0  0  0  0  0  0  0  0  0  0  0  0
   -9.1258  -16.5211    8.1605 C   0  0  0  0  0  0  0  0  0  0  0  0
   -9.8215  -17.8672    8.3418 C   0  0  0  0  0  0  0  0  0  0  0  0
  -10.1062  -15.3636    8.1379 C   0  0  0  0  0  0  0  0  0  0  0  0
   -6.0365  -16.1436    8.0202 C   0  0  0  0  0  0  0  0  0  0  0  0
   -5.4237  -17.4688    8.4294 C   0  0  0  0  0  0  0  0  0  0  0  0
   -4.0330  -17.1983    8.9876 C   0  0  0  0  0  0  0  0  0  0  0  0
   -3.1634  -18.2381    8.5782 O   0  0  0  0  0  0  0  0  0  0  0  0
   -3.1360  -18.2740    7.6092 H   0  0  0  0  0  0  0  0  0  0  0  0
   -3.5434  -15.8549    8.4628 C   0  0  0  0  0  0  0  0  0  0  0  0
   -2.1341  -15.5691    8.9627 C   0  0  0  0  0  0  0  0  0  0  0  0
   -1.2612  -15.8200    7.8746 O   0  0  0  0  0  0  0  0  0  0  0  0
   -1.5103  -15.2583    7.1241 H   0  0  0  0  0  0  0  0  0  0  0  0
   -2.0547  -14.1265    9.4496 C   0  0  0  0  0  0  0  0  0  0  0  0
   -2.0126  -14.8708   11.7112 O   0  0  0  0  0  0  0  0  0  0  0  0
   -2.4346  -14.0074   10.9098 C   0  0  0  0  0  0  0  0  0  0  0  0
   -3.1477  -13.0444   11.2666 O   0  0  0  0  0  0  0  0  0  0  0  0
   -1.4803  -15.5770   11.4015 H   0  0  0  0  0  0  0  0  0  0  0  0
  1  4  1  0  0  0
  1  2  1  0  0  0
  1 30  1  0  0  0
  2  3  2  0  0  0
  2 33  1  0  0  0
  3  9  1  0  0  0
  3  5  1  0  0  0
 30 31  1  0  0  0
 30 32  1  0  0  0
 33 34  1  0  0  0
 34 35  1  0  0  0
 38 39  1  0  0  0
 38 35  1  0  0  0
  6 10  2  0  0  0
  6 12  1  0  0  0
 24 27  2  0  0  0
 24 25  1  0  0  0
 25 29  2  0  0  0
  7  8  2  0  0  0
  7  9  1  0  0  0
 13 14  2  0  0  0
 13 16  1  0  0  0
  8 10  1  0  0  0
 26 27  1  0  0  0
 26 28  2  0  0  0
 14 17  1  0  0  0
 14 18  1  0  0  0
 43 44  1  0  0  0
 44 45  2  0  0  0
 44 42  1  0  0  0
 42 39  1  0  0  0
 39 40  1  0  0  0
 35 36  1  0  0  0
  9 12  2  0  0  0
 10 11  1  0  0  0
  4  5  2  0  0  0
  4 20  1  0  0  0
  5 15  1  0  0  0
 15 16  2  0  0  0
 15 19  1  0  0  0
 18 19  2  0  0  0
 20 22  1  0  0  0
 20 21  2  0  0  0
 22 27  1  0  0  0
 28 29  1  0  0  0
 43 46  1  0  0  0
 40 41  1  0  0  0
 36 37  1  0  0  0
 22 23  1  0  0  0
M  END
> <minimizedAffinity>
-7.84092

$$$$
3CD7_882_A_1


 46 49  0  0  0  0  0  0  0  0999 V2000
   -5.0014  -16.0244    5.1416 N   0  0  0  0  0  0  0  0  0  0  0  0
   -4.9826  -16.0832    6.4977 C   0  0  0  0  0  0  0  0  0  0  0  0
   -6.2917  -16.2259    6.8942 C   0  0  0  0  0  0  0  0  0  0  0  0
   -6.2811  -16.1220    4.6878 C   0  0  0  0  0  0  0  0  0  0  0  0
   -7.0948  -16.1864    5.8034 C   0  0  0  0  0  0  0  0  0  0  0  0
   -7.3307  -15.2904   10.4323 C   0  0  0  0  0  0  0  0  0  0  0  0
   -6.9811  -17.5366    8.8429 C   0  0  0  0  0  0  0  0  0  0  0  0
   -7.4038  -17.6912   10.1574 C   0  0  0  0  0  0  0  0  0  0  0  0
   -6.7421  -16.2656    8.3156 C   0  0  0  0  0  0  0  0  0  0  0  0
   -7.5747  -16.5644   10.9538 C   0  0  0  0  0  0  0  0  0  0  0  0
   -7.9821  -16.7122   12.2262 F   0  0  0  0  0  0  0  0  0  0  0  0
   -6.9113  -15.1340    9.1087 C   0  0  0  0  0  0  0  0  0  0  0  0
  -10.5566  -17.6752    5.6609 C   0  0  0  0  0  0  0  0  0  0  0  0
  -11.3260  -16.5714    6.0238 C   0  0  0  0  0  0  0  0  0  0  0  0
   -8.5614  -16.3622    5.9147 C   0  0  0  0  0  0  0  0  0  0  0  0
   -9.1737  -17.5667    5.5912 C   0  0  0  0  0  0  0  0  0  0  0  0
  -12.6582  -16.6964    6.0879 F   0  0  0  0  0  0  0  0  0  0  0  0
  -10.7176  -15.3564    6.3224 C   0  0  0  0  0  0  0  0  0  0  0  0
   -9.3307  -15.2498    6.2536 C   0  0  0  0  0  0  0  0  0  0  0  0
   -6.8073  -16.0694    3.2973 C   0  0  0  0  0  0  0  0  0  0  0  0
   -7.0436  -14.9398    2.8828 O   0  0  0  0  0  0  0  0  0  0  0  0
   -6.9304  -17.1727    2.5419 N   0  0  0  0  0  0  0  0  0  0  0  0
   -6.7420  -18.0519    2.9428 H   0  0  0  0  0  0  0  0  0  0  0  0
   -7.9248  -15.9625    0.6425 C   0  0  0  0  0  0  0  0  0  0  0  0
   -8.2855  -15.9201   -0.7020 C   0  0  0  0  0  0  0  0  0  0  0  0
   -7.1047  -18.2037    0.3493 C   0  0  0  0  0  0  0  0  0  0  0  0
   -7.3244  -17.1040    1.1831 C   0  0  0  0  0  0  0  0  0  0  0  0
   -7.4761  -18.1642   -0.9928 C   0  0  0  0  0  0  0  0  0  0  0  0
   -8.0670  -17.0212   -1.5249 C   0  0  0  0  0  0  0  0  0  0  0  0
   -3.7771  -15.9026    4.2987 C   0  0  0  0  0  0  0  0  0  0  0  0
   -2.8586  -17.1092    4.4691 C   0  0  0  0  0  0  0  0  0  0  0  0
   -3.0867  -14.5981    4.6495 C   0  0  0  0  0  0  0  0  0  0  0  0
   -3.7865  -16.0477    7.4107 C   0  0  0  0  0  0  0  0  0  0  0  0
   -3.5669  -17.3942    8.0725 C   0  0  0  0  0  0  0  0  0  0  0  0
   -3.3694  -17.1648    9.5649 C   0  0  0  0  0  0  0  0  0  0  0  0
   -3.6102  -18.3793   10.2521 O   0  0  0  0  0  0  0  0  0  0  0  0
   -2.9968  -19.0591    9.9320 H   0  0  0  0  0  0  0  0  0  0  0  0
   -1.9431  -16.6882    9.8063 C   0  0  0  0  0  0  0  0  0  0  0  0
   -1.9431  -15.3801   10.5852 C   0  0  0  0  0  0  0  0  0  0  0  0
   -1.3240  -14.4146    9.7525 O   0  0  0  0  0  0  0  0  0  0  0  0
   -1.8109  -14.3490    8.9161 H   0  0  0  0  0  0  0  0  0  0  0  0
   -3.3774  -15.0052   10.9413 C   0  0  0  0  0  0  0  0  0  0  0  0
   -4.2244  -13.1173    9.7626 O   0  0  0  0  0  0  0  0  0  0  0  0
   -3.6229  -13.5201   10.7833 C   0  0  0  0  0  0  0  0  0  0  0  0
   -3.2259  -12.7484   11.6833 O   0  0  0  0  0  0  0  0  0  0  0  0
   -4.5050  -13.7302    9.1118 H   0  0  0  0  0  0  0  0  0  0  0  0
  1  4  1  0  0  0
  1  2  1  0  0  0
  1 30  1  0  0  0
  2  3  2  0  0  0
  2 33  1  0  0  0
  3  9  1  0  0  0
  3  5  1  0  0  0
 30 31  1  0  0  0
 30 32  1  0  0  0
 33 34  1  0  0  0
 34 35  1  0  0  0
 38 39  1  0  0  0
 38 35  1  0  0  0
  6 10  2  0  0  0
  6 12  1  0  0  0
 24 27  2  0  0  0
 24 25  1  0  0  0
 25 29  2  0  0  0
  7  8  2  0  0  0
  7  9  1  0  0  0
 13 14  2  0  0  0
 13 16  1  0  0  0
  8 10  1  0  0  0
 26 27  1  0  0  0
 26 28  2  0  0  0
 14 17  1  0  0  0
 14 18  1  0  0  0
 43 44  1  0  0  0
 44 45  2  0  0  0
 44 42  1  0  0  0
 42 39  1  0  0  0
 39 40  1  0  0  0
 35 36  1  0  0  0
  9 12  2  0  0  0
 10 11  1  0  0  0
  4  5  2  0  0  0
  4 20  1  0  0  0
  5 15  1  0  0  0
 15 16  2  0  0  0
 15 19  1  0  0  0
 18 19  2  0  0  0
 20 22  1  0  0  0
 20 21  2  0  0  0
 22 27  1  0  0  0
 28 29  1  0  0  0
 43 46  1  0  0  0
 40 41  1  0  0  0
 36 37  1  0  0  0
 22 23  1  0  0  0
M  END
> <minimizedAffinity>
-7.83852

$$$$
