2AAC_FCB_A_1


 15 15  0  0  0  0  0  0  0  0999 V2000
    9.1193   38.7016   34.6683 C   0  0  0  0  0  0  0  0  0  0  0  0
   10.1291   39.7249   35.2135 C   0  0  0  0  0  0  0  0  0  0  0  0
   11.3405   39.0491   35.8646 C   0  0  0  0  0  0  0  0  0  0  0  0
   10.9016   37.9851   36.8564 C   0  0  0  0  0  0  0  0  0  0  0  0
    9.8856   37.0446   36.1789 C   0  0  0  0  0  0  0  0  0  0  0  0
    9.3591   35.9625   37.1030 C   0  0  0  0  0  0  0  0  0  0  0  0
    7.9767   39.3599   34.2602 O   0  0  0  0  0  0  0  0  0  0  0  0
   10.5755   40.5625   34.1542 O   0  0  0  0  0  0  0  0  0  0  0  0
   12.1031   40.0218   36.5372 O   0  0  0  0  0  0  0  0  0  0  0  0
   10.3200   38.5975   38.0008 O   0  0  0  0  0  0  0  0  0  0  0  0
    8.7530   37.7886   35.6921 O   0  0  0  0  0  0  0  0  0  0  0  0
    7.5856   39.8270   35.0151 H   0  0  0  0  0  0  0  0  0  0  0  0
   11.0242   40.0242   33.4835 H   0  0  0  0  0  0  0  0  0  0  0  0
   11.5619   40.4368   37.2269 H   0  0  0  0  0  0  0  0  0  0  0  0
    9.5465   39.1171   37.7315 H   0  0  0  0  0  0  0  0  0  0  0  0
  1  2  1  0  0  0
  1  7  1  0  0  0
  1 11  1  0  0  0
  2  3  1  0  0  0
  2  8  1  0  0  0
  3  4  1  0  0  0
  3  9  1  0  0  0
  4  5  1  0  0  0
  4 10  1  0  0  0
  5  6  1  0  0  0
  5 11  1  0  0  0
  7 12  1  0  0  0
  8 13  1  0  0  0
  9 14  1  0  0  0
 10 15  1  0  0  0
M  END
> <minimizedAffinity>
-7.35347

$$$$
2AAC_FCB_A_1


 15 15  0  0  0  0  0  0  0  0999 V2000
    8.9643   37.5821   35.2513 C   0  0  0  0  0  0  0  0  0  0  0  0
   10.0855   37.4468   36.2948 C   0  0  0  0  0  0  0  0  0  0  0  0
   10.5177   38.8055   36.8565 C   0  0  0  0  0  0  0  0  0  0  0  0
   10.7955   39.7934   35.7361 C   0  0  0  0  0  0  0  0  0  0  0  0
    9.5988   39.8129   34.7650 C   0  0  0  0  0  0  0  0  0  0  0  0
    9.7956   40.7488   33.5871 C   0  0  0  0  0  0  0  0  0  0  0  0
    8.7446   36.3568   34.6550 O   0  0  0  0  0  0  0  0  0  0  0  0
    9.6422   36.6197   37.3636 O   0  0  0  0  0  0  0  0  0  0  0  0
   11.6852   38.6355   37.6232 O   0  0  0  0  0  0  0  0  0  0  0  0
   11.9841   39.4254   35.0471 O   0  0  0  0  0  0  0  0  0  0  0  0
    9.3536   38.4959   34.2367 O   0  0  0  0  0  0  0  0  0  0  0  0
    9.5576   36.0600   34.2170 H   0  0  0  0  0  0  0  0  0  0  0  0
    8.8770   37.0312   37.7951 H   0  0  0  0  0  0  0  0  0  0  0  0
   12.3931   38.2843   37.0608 H   0  0  0  0  0  0  0  0  0  0  0  0
   11.8767   38.5392   34.6677 H   0  0  0  0  0  0  0  0  0  0  0  0
  1  2  1  0  0  0
  1  7  1  0  0  0
  1 11  1  0  0  0
  2  3  1  0  0  0
  2  8  1  0  0  0
  3  4  1  0  0  0
  3  9  1  0  0  0
  4  5  1  0  0  0
  4 10  1  0  0  0
  5  6  1  0  0  0
  5 11  1  0  0  0
  7 12  1  0  0  0
  8 13  1  0  0  0
  9 14  1  0  0  0
 10 15  1  0  0  0
M  END
> <minimizedAffinity>
-6.41027

$$$$
2AAC_FCB_A_1


 15 15  0  0  0  0  0  0  0  0999 V2000
   11.4255   39.2813   35.9022 C   0  0  0  0  0  0  0  0  0  0  0  0
   10.2624   38.3406   36.2574 C   0  0  0  0  0  0  0  0  0  0  0  0
    9.4040   37.9976   35.0351 C   0  0  0  0  0  0  0  0  0  0  0  0
    9.0086   39.2545   34.2786 C   0  0  0  0  0  0  0  0  0  0  0  0
   10.2666   40.1021   34.0052 C   0  0  0  0  0  0  0  0  0  0  0  0
    9.9701   41.4015   33.2802 C   0  0  0  0  0  0  0  0  0  0  0  0
   12.0490   39.6953   37.0619 O   0  0  0  0  0  0  0  0  0  0  0  0
   10.7775   37.1390   36.8178 O   0  0  0  0  0  0  0  0  0  0  0  0
    8.2414   37.3302   35.4627 O   0  0  0  0  0  0  0  0  0  0  0  0
    8.0654   40.0018   35.0367 O   0  0  0  0  0  0  0  0  0  0  0  0
   10.9310   40.4351   35.2385 O   0  0  0  0  0  0  0  0  0  0  0  0
   11.4121   40.1680   37.6204 H   0  0  0  0  0  0  0  0  0  0  0  0
   11.3380   36.6918   36.1645 H   0  0  0  0  0  0  0  0  0  0  0  0
    7.7354   37.9089   36.0542 H   0  0  0  0  0  0  0  0  0  0  0  0
    8.4607   40.2549   35.8856 H   0  0  0  0  0  0  0  0  0  0  0  0
  1  2  1  0  0  0
  1  7  1  0  0  0
  1 11  1  0  0  0
  2  3  1  0  0  0
  2  8  1  0  0  0
  3  4  1  0  0  0
  3  9  1  0  0  0
  4  5  1  0  0  0
  4 10  1  0  0  0
  5  6  1  0  0  0
  5 11  1  0  0  0
  7 12  1  0  0  0
  8 13  1  0  0  0
  9 14  1  0  0  0
 10 15  1  0  0  0
M  END
> <minimizedAffinity>
-6.20208

$$$$
2AAC_FCB_A_1


 15 15  0  0  0  0  0  0  0  0999 V2000
    9.2880   37.5929   35.2982 C   0  0  0  0  0  0  0  0  0  0  0  0
    9.5725   38.9921   34.7278 C   0  0  0  0  0  0  0  0  0  0  0  0
   11.0422   39.3940   34.8918 C   0  0  0  0  0  0  0  0  0  0  0  0
   11.5102   39.1728   36.3202 C   0  0  0  0  0  0  0  0  0  0  0  0
   11.1476   37.7405   36.7595 C   0  0  0  0  0  0  0  0  0  0  0  0
   11.5453   37.4320   38.1909 C   0  0  0  0  0  0  0  0  0  0  0  0
    7.9272   37.3623   35.2858 O   0  0  0  0  0  0  0  0  0  0  0  0
    9.2323   39.0203   33.3470 O   0  0  0  0  0  0  0  0  0  0  0  0
   11.1860   40.7547   34.5635 O   0  0  0  0  0  0  0  0  0  0  0  0
   10.8998   40.1233   37.1845 O   0  0  0  0  0  0  0  0  0  0  0  0
    9.7293   37.5195   36.6458 O   0  0  0  0  0  0  0  0  0  0  0  0
    7.4813   38.0289   35.8315 H   0  0  0  0  0  0  0  0  0  0  0  0
    9.7810   38.3814   32.8657 H   0  0  0  0  0  0  0  0  0  0  0  0
   10.6413   41.2907   35.1609 H   0  0  0  0  0  0  0  0  0  0  0  0
    9.9359   40.0212   37.1481 H   0  0  0  0  0  0  0  0  0  0  0  0
  1  2  1  0  0  0
  1  7  1  0  0  0
  1 11  1  0  0  0
  2  3  1  0  0  0
  2  8  1  0  0  0
  3  4  1  0  0  0
  3  9  1  0  0  0
  4  5  1  0  0  0
  4 10  1  0  0  0
  5  6  1  0  0  0
  5 11  1  0  0  0
  7 12  1  0  0  0
  8 13  1  0  0  0
  9 14  1  0  0  0
 10 15  1  0  0  0
M  END
> <minimizedAffinity>
-5.51047

$$$$
2AAC_FCB_A_1


 15 15  0  0  0  0  0  0  0  0999 V2000
   11.1448   38.2998   37.2208 C   0  0  0  0  0  0  0  0  0  0  0  0
   11.6233   39.4341   36.2996 C   0  0  0  0  0  0  0  0  0  0  0  0
   10.5006   39.9567   35.3971 C   0  0  0  0  0  0  0  0  0  0  0  0
    9.7904   38.8119   34.6946 C   0  0  0  0  0  0  0  0  0  0  0  0
    9.3830   37.7497   35.7345 C   0  0  0  0  0  0  0  0  0  0  0  0
    8.6936   36.5440   35.1238 C   0  0  0  0  0  0  0  0  0  0  0  0
   12.2307   37.7526   37.8739 O   0  0  0  0  0  0  0  0  0  0  0  0
   12.1256   40.5062   37.0880 O   0  0  0  0  0  0  0  0  0  0  0  0
   11.0508   40.8210   34.4327 O   0  0  0  0  0  0  0  0  0  0  0  0
   10.6452   38.2388   33.7129 O   0  0  0  0  0  0  0  0  0  0  0  0
   10.5377   37.2729   36.4507 O   0  0  0  0  0  0  0  0  0  0  0  0
   12.8542   37.3961   37.2220 H   0  0  0  0  0  0  0  0  0  0  0  0
   11.4160   40.8540   37.6505 H   0  0  0  0  0  0  0  0  0  0  0  0
   11.6931   40.3351   33.8920 H   0  0  0  0  0  0  0  0  0  0  0  0
   11.4466   37.8988   34.1408 H   0  0  0  0  0  0  0  0  0  0  0  0
  1  2  1  0  0  0
  1  7  1  0  0  0
  1 11  1  0  0  0
  2  3  1  0  0  0
  2  8  1  0  0  0
  3  4  1  0  0  0
  3  9  1  0  0  0
  4  5  1  0  0  0
  4 10  1  0  0  0
  5  6  1  0  0  0
  5 11  1  0  0  0
  7 12  1  0  0  0
  8 13  1  0  0  0
  9 14  1  0  0  0
 10 15  1  0  0  0
M  END
> <minimizedAffinity>
-5.25478

$$$$
2AAC_FCB_A_1


 15 15  0  0  0  0  0  0  0  0999 V2000
   10.0436   40.5721   34.4476 C   0  0  0  0  0  0  0  0  0  0  0  0
    9.0391   39.4279   34.2330 C   0  0  0  0  0  0  0  0  0  0  0  0
    8.7454   38.6673   35.5305 C   0  0  0  0  0  0  0  0  0  0  0  0
   10.0335   38.2711   36.2319 C   0  0  0  0  0  0  0  0  0  0  0  0
   10.9433   39.5083   36.3644 C   0  0  0  0  0  0  0  0  0  0  0  0
   12.2755   39.2068   37.0249 C   0  0  0  0  0  0  0  0  0  0  0  0
   10.4036   41.0997   33.2240 O   0  0  0  0  0  0  0  0  0  0  0  0
    7.8233   39.9542   33.7151 O   0  0  0  0  0  0  0  0  0  0  0  0
    8.0087   37.5077   35.2267 O   0  0  0  0  0  0  0  0  0  0  0  0
   10.6941   37.2496   35.4949 O   0  0  0  0  0  0  0  0  0  0  0  0
   11.2192   40.0752   35.0698 O   0  0  0  0  0  0  0  0  0  0  0  0
   10.8147   40.4082   32.6820 H   0  0  0  0  0  0  0  0  0  0  0  0
    7.4410   40.5748   34.3552 H   0  0  0  0  0  0  0  0  0  0  0  0
    8.5282   36.9400   34.6361 H   0  0  0  0  0  0  0  0  0  0  0  0
   10.9055   37.5770   34.6066 H   0  0  0  0  0  0  0  0  0  0  0  0
  1  2  1  0  0  0
  1  7  1  0  0  0
  1 11  1  0  0  0
  2  3  1  0  0  0
  2  8  1  0  0  0
  3  4  1  0  0  0
  3  9  1  0  0  0
  4  5  1  0  0  0
  4 10  1  0  0  0
  5  6  1  0  0  0
  5 11  1  0  0  0
  7 12  1  0  0  0
  8 13  1  0  0  0
  9 14  1  0  0  0
 10 15  1  0  0  0
M  END
> <minimizedAffinity>
-4.47965

$$$$
2AAC_FCB_A_1


 15 15  0  0  0  0  0  0  0  0999 V2000
    9.2047   37.9058   35.8395 C   0  0  0  0  0  0  0  0  0  0  0  0
   10.5884   38.4582   35.4596 C   0  0  0  0  0  0  0  0  0  0  0  0
   10.5773   39.9823   35.3010 C   0  0  0  0  0  0  0  0  0  0  0  0
    9.4364   40.4271   34.4015 C   0  0  0  0  0  0  0  0  0  0  0  0
    8.1220   39.7885   34.8917 C   0  0  0  0  0  0  0  0  0  0  0  0
    6.9231   40.1465   34.0335 C   0  0  0  0  0  0  0  0  0  0  0  0
    9.2342   36.5266   35.7912 O   0  0  0  0  0  0  0  0  0  0  0  0
   11.5339   38.1000   36.4601 O   0  0  0  0  0  0  0  0  0  0  0  0
   11.7986   40.3947   34.7370 O   0  0  0  0  0  0  0  0  0  0  0  0
    9.6996   40.0442   33.0573 O   0  0  0  0  0  0  0  0  0  0  0  0
    8.2313   38.3528   34.9074 O   0  0  0  0  0  0  0  0  0  0  0  0
    9.4597   36.2393   34.8926 H   0  0  0  0  0  0  0  0  0  0  0  0
   11.2738   38.4951   37.3070 H   0  0  0  0  0  0  0  0  0  0  0  0
   11.9063   39.9851   33.8643 H   0  0  0  0  0  0  0  0  0  0  0  0
    9.7846   39.0792   33.0066 H   0  0  0  0  0  0  0  0  0  0  0  0
  1  2  1  0  0  0
  1  7  1  0  0  0
  1 11  1  0  0  0
  2  3  1  0  0  0
  2  8  1  0  0  0
  3  4  1  0  0  0
  3  9  1  0  0  0
  4  5  1  0  0  0
  4 10  1  0  0  0
  5  6  1  0  0  0
  5 11  1  0  0  0
  7 12  1  0  0  0
  8 13  1  0  0  0
  9 14  1  0  0  0
 10 15  1  0  0  0
M  END
> <minimizedAffinity>
-4.39487

$$$$
