4PVX_YS1_F_404


 31 33  0  0  0  0  0  0  0  0999 V2000
   15.5460   31.2890   -7.6445 C   0  0  0  0  0  0  0  0  0  0  0  0
   16.3734   30.2510   -7.2085 C   0  0  0  0  0  0  0  0  0  0  0  0
   14.2769   31.0432   -8.1429 N   0  0  0  0  0  0  0  0  0  0  0  0
   13.8678   29.6758   -8.1454 C   0  0  0  0  0  0  0  0  0  0  0  0
   14.7049   28.6199   -7.6898 C   0  0  0  0  0  0  0  0  0  0  0  0
   15.9846   28.8824   -7.2044 C   0  0  0  0  0  0  0  0  0  0  0  0
   16.8746   27.8479   -6.7945 C   0  0  0  0  0  0  0  0  0  0  0  0
   16.7257   26.5071   -7.0722 C   0  0  0  0  0  0  0  0  0  0  0  0
   17.6207   25.5099   -6.6994 C   0  0  0  0  0  0  0  0  0  0  0  0
   18.0432   28.1579   -6.1413 C   0  0  0  0  0  0  0  0  0  0  0  0
   18.9469   27.1732   -5.7506 C   0  0  0  0  0  0  0  0  0  0  0  0
   18.7413   25.8273   -6.0021 C   0  0  0  0  0  0  0  0  0  0  0  0
   19.7131   24.9261   -5.6540 O   0  0  0  0  0  0  0  0  0  0  0  0
   20.1589   24.7782   -4.3011 C   0  0  0  0  0  0  0  0  0  0  0  0
   19.1945   24.5754   -3.2888 C   0  0  0  0  0  0  0  0  0  0  0  0
   19.4760   23.5275   -4.2265 C   0  0  0  0  0  0  0  0  0  0  0  0
   16.0713   32.5407   -7.6148 N   0  0  0  0  0  0  0  0  0  0  0  0
   16.8631   32.7317   -7.0619 H   0  0  0  0  0  0  0  0  0  0  0  0
   15.4504   33.6124   -8.4145 C   0  0  0  0  0  0  0  0  0  0  0  0
   17.3323   35.4567   -9.3452 O   0  0  0  0  0  0  0  0  0  0  0  0
   16.5511   34.1494   -9.7946 P   0  0  0  0  0  0  0  0  0  0  0  0
   15.6280   34.5402  -10.9667 O   0  0  0  0  0  0  0  0  0  0  0  0
   17.4755   33.0171  -10.0061 O   0  0  0  0  0  0  0  0  0  0  0  0
   16.1665   34.8308  -11.7193 H   0  0  0  0  0  0  0  0  0  0  0  0
   18.0899   33.2314  -10.7255 H   0  0  0  0  0  0  0  0  0  0  0  0
   15.1249   35.0182   -7.2989 P   0  0  0  0  0  0  0  0  0  0  0  0
   16.5196   35.4172   -6.7655 O   0  0  0  0  0  0  0  0  0  0  0  0
   14.6299   36.1873   -8.1072 O   0  0  0  0  0  0  0  0  0  0  0  0
   14.2075   34.5365   -6.2551 O   0  0  0  0  0  0  0  0  0  0  0  0
   16.8826   34.6910   -6.2347 H   0  0  0  0  0  0  0  0  0  0  0  0
   13.7518   35.9839   -8.4656 H   0  0  0  0  0  0  0  0  0  0  0  0
 20 21  2  0  0  0
 23 21  1  0  0  0
 21 22  1  0  0  0
 21 19  1  0  0  0
  4  3  2  0  0  0
  4  5  1  0  0  0
  3  1  1  0  0  0
  5  6  2  0  0  0
 29 26  2  0  0  0
 19 26  1  0  0  0
 19 17  1  0  0  0
  1 17  1  0  0  0
  1  2  2  0  0  0
  6  2  1  0  0  0
  6  7  1  0  0  0
 26 28  1  0  0  0
 26 27  1  0  0  0
  7 10  2  0  0  0
  7  8  1  0  0  0
 10 11  1  0  0  0
  8  9  2  0  0  0
 11 12  2  0  0  0
  9 12  1  0  0  0
 12 13  1  0  0  0
 13 14  1  0  0  0
 14 15  1  0  0  0
 14 16  1  0  0  0
 15 16  1  0  0  0
 22 24  1  0  0  0
 23 25  1  0  0  0
 27 30  1  0  0  0
 28 31  1  0  0  0
 17 18  1  0  0  0
M  END
> <minimizedAffinity>
-11.86299

$$$$
4PVX_YS1_F_404


 31 33  0  0  0  0  0  0  0  0999 V2000
   14.2077   30.4148   -7.4486 C   0  0  0  0  0  0  0  0  0  0  0  0
   15.0936   29.4790   -6.9084 C   0  0  0  0  0  0  0  0  0  0  0  0
   14.1184   30.6228   -8.8154 N   0  0  0  0  0  0  0  0  0  0  0  0
   14.9587   29.7985   -9.6226 C   0  0  0  0  0  0  0  0  0  0  0  0
   15.8515   28.8367   -9.0738 C   0  0  0  0  0  0  0  0  0  0  0  0
   15.9398   28.6495   -7.6956 C   0  0  0  0  0  0  0  0  0  0  0  0
   16.8631   27.7391   -7.1048 C   0  0  0  0  0  0  0  0  0  0  0  0
   16.8923   26.3784   -7.3162 C   0  0  0  0  0  0  0  0  0  0  0  0
   17.8219   25.5038   -6.7637 C   0  0  0  0  0  0  0  0  0  0  0  0
   17.8895   28.2056   -6.3190 C   0  0  0  0  0  0  0  0  0  0  0  0
   18.8238   27.3452   -5.7484 C   0  0  0  0  0  0  0  0  0  0  0  0
   18.7940   25.9745   -5.9414 C   0  0  0  0  0  0  0  0  0  0  0  0
   19.7929   25.2025   -5.4087 O   0  0  0  0  0  0  0  0  0  0  0  0
   19.9001   24.9694   -3.9998 C   0  0  0  0  0  0  0  0  0  0  0  0
   18.7160   24.7775   -3.2533 C   0  0  0  0  0  0  0  0  0  0  0  0
   19.1628   23.7578   -4.1573 C   0  0  0  0  0  0  0  0  0  0  0  0
   13.4875   31.1530   -6.5655 N   0  0  0  0  0  0  0  0  0  0  0  0
   13.0397   30.7162   -5.8053 H   0  0  0  0  0  0  0  0  0  0  0  0
   13.3791   32.6116   -6.7503 C   0  0  0  0  0  0  0  0  0  0  0  0
   14.7791   35.0133   -6.4658 O   0  0  0  0  0  0  0  0  0  0  0  0
   15.0109   33.4437   -6.5283 P   0  0  0  0  0  0  0  0  0  0  0  0
   15.8329   33.1461   -7.7989 O   0  0  0  0  0  0  0  0  0  0  0  0
   15.5304   32.9259   -5.2463 O   0  0  0  0  0  0  0  0  0  0  0  0
   16.7040   33.5665   -7.7263 H   0  0  0  0  0  0  0  0  0  0  0  0
   16.3954   33.3247   -5.0633 H   0  0  0  0  0  0  0  0  0  0  0  0
   12.1908   33.2394   -5.5172 P   0  0  0  0  0  0  0  0  0  0  0  0
   12.7247   32.7132   -4.1655 O   0  0  0  0  0  0  0  0  0  0  0  0
   12.2874   34.7401   -5.4558 O   0  0  0  0  0  0  0  0  0  0  0  0
   10.8697   32.7044   -5.8806 O   0  0  0  0  0  0  0  0  0  0  0  0
   12.6825   31.7442   -4.1564 H   0  0  0  0  0  0  0  0  0  0  0  0
   11.9617   35.1193   -6.2871 H   0  0  0  0  0  0  0  0  0  0  0  0
 20 21  2  0  0  0
 23 21  1  0  0  0
 21 22  1  0  0  0
 21 19  1  0  0  0
  4  3  2  0  0  0
  4  5  1  0  0  0
  3  1  1  0  0  0
  5  6  2  0  0  0
 29 26  2  0  0  0
 19 26  1  0  0  0
 19 17  1  0  0  0
  1 17  1  0  0  0
  1  2  2  0  0  0
  6  2  1  0  0  0
  6  7  1  0  0  0
 26 28  1  0  0  0
 26 27  1  0  0  0
  7 10  2  0  0  0
  7  8  1  0  0  0
 10 11  1  0  0  0
  8  9  2  0  0  0
 11 12  2  0  0  0
  9 12  1  0  0  0
 12 13  1  0  0  0
 13 14  1  0  0  0
 14 15  1  0  0  0
 14 16  1  0  0  0
 15 16  1  0  0  0
 22 24  1  0  0  0
 23 25  1  0  0  0
 27 30  1  0  0  0
 28 31  1  0  0  0
 17 18  1  0  0  0
M  END
> <minimizedAffinity>
-11.24233

$$$$
4PVX_YS1_F_404


 31 33  0  0  0  0  0  0  0  0999 V2000
   15.5940   31.0354   -9.1024 C   0  0  0  0  0  0  0  0  0  0  0  0
   16.4185   30.1170   -8.4475 C   0  0  0  0  0  0  0  0  0  0  0  0
   14.2198   30.8668   -9.1542 N   0  0  0  0  0  0  0  0  0  0  0  0
   13.7109   29.7226   -8.4694 C   0  0  0  0  0  0  0  0  0  0  0  0
   14.5487   28.7941   -7.7918 C   0  0  0  0  0  0  0  0  0  0  0  0
   15.9308   28.9703   -7.7609 C   0  0  0  0  0  0  0  0  0  0  0  0
   16.8082   28.0322   -7.1439 C   0  0  0  0  0  0  0  0  0  0  0  0
   16.7624   26.6655   -7.3079 C   0  0  0  0  0  0  0  0  0  0  0  0
   17.6477   25.7615   -6.7306 C   0  0  0  0  0  0  0  0  0  0  0  0
   17.8641   28.4694   -6.3808 C   0  0  0  0  0  0  0  0  0  0  0  0
   18.7550   27.5800   -5.7859 C   0  0  0  0  0  0  0  0  0  0  0  0
   18.6500   26.2070   -5.9307 C   0  0  0  0  0  0  0  0  0  0  0  0
   19.6099   25.4010   -5.3772 O   0  0  0  0  0  0  0  0  0  0  0  0
   19.2778   24.1842   -4.6988 C   0  0  0  0  0  0  0  0  0  0  0  0
   19.8419   23.9430   -3.4262 C   0  0  0  0  0  0  0  0  0  0  0  0
   18.8288   24.9464   -3.5791 C   0  0  0  0  0  0  0  0  0  0  0  0
   16.2116   32.0639   -9.7382 N   0  0  0  0  0  0  0  0  0  0  0  0
   16.5502   31.9466  -10.6551 H   0  0  0  0  0  0  0  0  0  0  0  0
   16.3727   33.3572   -9.0491 C   0  0  0  0  0  0  0  0  0  0  0  0
   14.9336   35.6023   -8.2136 O   0  0  0  0  0  0  0  0  0  0  0  0
   14.7436   34.0607   -8.5436 P   0  0  0  0  0  0  0  0  0  0  0  0
   14.3455   33.3512   -7.2333 O   0  0  0  0  0  0  0  0  0  0  0  0
   13.8656   33.8664   -9.7152 O   0  0  0  0  0  0  0  0  0  0  0  0
   13.4899   33.6915   -6.9284 H   0  0  0  0  0  0  0  0  0  0  0  0
   12.9825   34.2167   -9.5192 H   0  0  0  0  0  0  0  0  0  0  0  0
   17.2096   34.4978  -10.2003 P   0  0  0  0  0  0  0  0  0  0  0  0
   16.0980   34.9422  -11.1779 O   0  0  0  0  0  0  0  0  0  0  0  0
   17.6348   35.7325   -9.4522 O   0  0  0  0  0  0  0  0  0  0  0  0
   18.2954   33.7416  -10.8428 O   0  0  0  0  0  0  0  0  0  0  0  0
   15.7892   34.1761  -11.6863 H   0  0  0  0  0  0  0  0  0  0  0  0
   18.3358   35.5035   -8.8221 H   0  0  0  0  0  0  0  0  0  0  0  0
 20 21  2  0  0  0
 23 21  1  0  0  0
 21 22  1  0  0  0
 21 19  1  0  0  0
  4  3  2  0  0  0
  4  5  1  0  0  0
  3  1  1  0  0  0
  5  6  2  0  0  0
 29 26  2  0  0  0
 19 26  1  0  0  0
 19 17  1  0  0  0
  1 17  1  0  0  0
  1  2  2  0  0  0
  6  2  1  0  0  0
  6  7  1  0  0  0
 26 28  1  0  0  0
 26 27  1  0  0  0
  7 10  2  0  0  0
  7  8  1  0  0  0
 10 11  1  0  0  0
  8  9  2  0  0  0
 11 12  2  0  0  0
  9 12  1  0  0  0
 12 13  1  0  0  0
 13 14  1  0  0  0
 14 15  1  0  0  0
 14 16  1  0  0  0
 15 16  1  0  0  0
 22 24  1  0  0  0
 23 25  1  0  0  0
 27 30  1  0  0  0
 28 31  1  0  0  0
 17 18  1  0  0  0
M  END
> <minimizedAffinity>
-11.04228

$$$$
4PVX_YS1_F_404


 31 33  0  0  0  0  0  0  0  0999 V2000
   14.3573   31.2810   -7.7738 C   0  0  0  0  0  0  0  0  0  0  0  0
   14.9900   30.1278   -7.3027 C   0  0  0  0  0  0  0  0  0  0  0  0
   14.9059   32.0436   -8.7922 N   0  0  0  0  0  0  0  0  0  0  0  0
   16.1284   31.5534   -9.3419 C   0  0  0  0  0  0  0  0  0  0  0  0
   16.7665   30.3725   -8.8712 C   0  0  0  0  0  0  0  0  0  0  0  0
   16.2089   29.6241   -7.8362 C   0  0  0  0  0  0  0  0  0  0  0  0
   16.8466   28.4694   -7.2974 C   0  0  0  0  0  0  0  0  0  0  0  0
   16.5639   27.1656   -7.6397 C   0  0  0  0  0  0  0  0  0  0  0  0
   17.2189   26.0471   -7.1352 C   0  0  0  0  0  0  0  0  0  0  0  0
   17.9001   28.6033   -6.4252 C   0  0  0  0  0  0  0  0  0  0  0  0
   18.5618   27.4960   -5.9011 C   0  0  0  0  0  0  0  0  0  0  0  0
   18.2184   26.1953   -6.2286 C   0  0  0  0  0  0  0  0  0  0  0  0
   18.9663   25.1608   -5.7307 O   0  0  0  0  0  0  0  0  0  0  0  0
   19.4622   25.1630   -4.3872 C   0  0  0  0  0  0  0  0  0  0  0  0
   18.5376   25.0593   -3.3241 C   0  0  0  0  0  0  0  0  0  0  0  0
   18.8006   23.9202   -4.1548 C   0  0  0  0  0  0  0  0  0  0  0  0
   13.2140   31.6506   -7.1416 N   0  0  0  0  0  0  0  0  0  0  0  0
   12.6295   30.9688   -6.7381 H   0  0  0  0  0  0  0  0  0  0  0  0
   12.8518   33.0774   -7.0622 C   0  0  0  0  0  0  0  0  0  0  0  0
   12.0857   35.0177   -5.2027 O   0  0  0  0  0  0  0  0  0  0  0  0
   11.9602   33.4616   -5.4932 P   0  0  0  0  0  0  0  0  0  0  0  0
   12.7087   32.7178   -4.3685 O   0  0  0  0  0  0  0  0  0  0  0  0
   10.5580   33.0741   -5.7480 O   0  0  0  0  0  0  0  0  0  0  0  0
   12.2725   32.8918   -3.5197 H   0  0  0  0  0  0  0  0  0  0  0  0
   10.0250   33.2502   -4.9569 H   0  0  0  0  0  0  0  0  0  0  0  0
   11.7837   33.4581   -8.4908 P   0  0  0  0  0  0  0  0  0  0  0  0
   11.1127   34.8009   -8.1227 O   0  0  0  0  0  0  0  0  0  0  0  0
   12.6451   33.7306   -9.6944 O   0  0  0  0  0  0  0  0  0  0  0  0
   10.8363   32.3416   -8.6302 O   0  0  0  0  0  0  0  0  0  0  0  0
   10.5433   34.6761   -7.3474 H   0  0  0  0  0  0  0  0  0  0  0  0
   13.0903   32.9125   -9.9653 H   0  0  0  0  0  0  0  0  0  0  0  0
 20 21  2  0  0  0
 23 21  1  0  0  0
 21 22  1  0  0  0
 21 19  1  0  0  0
  4  3  2  0  0  0
  4  5  1  0  0  0
  3  1  1  0  0  0
  5  6  2  0  0  0
 29 26  2  0  0  0
 19 26  1  0  0  0
 19 17  1  0  0  0
  1 17  1  0  0  0
  1  2  2  0  0  0
  6  2  1  0  0  0
  6  7  1  0  0  0
 26 28  1  0  0  0
 26 27  1  0  0  0
  7 10  2  0  0  0
  7  8  1  0  0  0
 10 11  1  0  0  0
  8  9  2  0  0  0
 11 12  2  0  0  0
  9 12  1  0  0  0
 12 13  1  0  0  0
 13 14  1  0  0  0
 14 15  1  0  0  0
 14 16  1  0  0  0
 15 16  1  0  0  0
 22 24  1  0  0  0
 23 25  1  0  0  0
 27 30  1  0  0  0
 28 31  1  0  0  0
 17 18  1  0  0  0
M  END
> <minimizedAffinity>
-10.76513

$$$$
4PVX_YS1_F_404


 31 33  0  0  0  0  0  0  0  0999 V2000
   14.3590   30.3367   -7.6417 C   0  0  0  0  0  0  0  0  0  0  0  0
   15.0986   29.3214   -7.0298 C   0  0  0  0  0  0  0  0  0  0  0  0
   14.4615   30.5897   -9.0000 N   0  0  0  0  0  0  0  0  0  0  0  0
   15.3376   29.7274   -9.7252 C   0  0  0  0  0  0  0  0  0  0  0  0
   16.0812   28.6855   -9.1049 C   0  0  0  0  0  0  0  0  0  0  0  0
   15.9777   28.4528   -7.7348 C   0  0  0  0  0  0  0  0  0  0  0  0
   16.7496   27.4586   -7.0670 C   0  0  0  0  0  0  0  0  0  0  0  0
   16.8190   26.1288   -7.4189 C   0  0  0  0  0  0  0  0  0  0  0  0
   17.6056   25.1741   -6.7830 C   0  0  0  0  0  0  0  0  0  0  0  0
   17.5848   27.8085   -6.0333 C   0  0  0  0  0  0  0  0  0  0  0  0
   18.3721   26.8658   -5.3772 C   0  0  0  0  0  0  0  0  0  0  0  0
   18.3799   25.5257   -5.7249 C   0  0  0  0  0  0  0  0  0  0  0  0
   19.2387   24.6732   -5.0820 O   0  0  0  0  0  0  0  0  0  0  0  0
   20.1100   25.1216   -4.0376 C   0  0  0  0  0  0  0  0  0  0  0  0
   20.3293   24.2745   -2.9284 C   0  0  0  0  0  0  0  0  0  0  0  0
   20.8949   23.9414   -4.2035 C   0  0  0  0  0  0  0  0  0  0  0  0
   13.5857   31.1019   -6.8293 N   0  0  0  0  0  0  0  0  0  0  0  0
   13.2057   30.7203   -6.0051 H   0  0  0  0  0  0  0  0  0  0  0  0
   13.3178   32.5068   -7.1869 C   0  0  0  0  0  0  0  0  0  0  0  0
   13.7493   32.9005   -4.4541 O   0  0  0  0  0  0  0  0  0  0  0  0
   13.8484   33.6581   -5.8461 P   0  0  0  0  0  0  0  0  0  0  0  0
   12.8216   34.8086   -5.8224 O   0  0  0  0  0  0  0  0  0  0  0  0
   15.2471   34.0023   -6.1721 O   0  0  0  0  0  0  0  0  0  0  0  0
   13.0619   35.4421   -5.1283 H   0  0  0  0  0  0  0  0  0  0  0  0
   15.5948   34.6114   -5.5019 H   0  0  0  0  0  0  0  0  0  0  0  0
   11.5242   32.6734   -7.4727 P   0  0  0  0  0  0  0  0  0  0  0  0
   11.3778   34.0128   -8.2298 O   0  0  0  0  0  0  0  0  0  0  0  0
   11.0722   31.5975   -8.4232 O   0  0  0  0  0  0  0  0  0  0  0  0
   10.8750   32.6655   -6.1528 O   0  0  0  0  0  0  0  0  0  0  0  0
   11.6588   34.7417   -7.6548 H   0  0  0  0  0  0  0  0  0  0  0  0
   11.1460   30.7323   -7.9909 H   0  0  0  0  0  0  0  0  0  0  0  0
 20 21  2  0  0  0
 23 21  1  0  0  0
 21 22  1  0  0  0
 21 19  1  0  0  0
  4  3  2  0  0  0
  4  5  1  0  0  0
  3  1  1  0  0  0
  5  6  2  0  0  0
 29 26  2  0  0  0
 19 26  1  0  0  0
 19 17  1  0  0  0
  1 17  1  0  0  0
  1  2  2  0  0  0
  6  2  1  0  0  0
  6  7  1  0  0  0
 26 28  1  0  0  0
 26 27  1  0  0  0
  7 10  2  0  0  0
  7  8  1  0  0  0
 10 11  1  0  0  0
  8  9  2  0  0  0
 11 12  2  0  0  0
  9 12  1  0  0  0
 12 13  1  0  0  0
 13 14  1  0  0  0
 14 15  1  0  0  0
 14 16  1  0  0  0
 15 16  1  0  0  0
 22 24  1  0  0  0
 23 25  1  0  0  0
 27 30  1  0  0  0
 28 31  1  0  0  0
 17 18  1  0  0  0
M  END
> <minimizedAffinity>
-9.97684

$$$$
4PVX_YS1_F_404


 31 33  0  0  0  0  0  0  0  0999 V2000
   15.0643   31.1052   -8.0078 C   0  0  0  0  0  0  0  0  0  0  0  0
   15.6841   30.1325   -7.2192 C   0  0  0  0  0  0  0  0  0  0  0  0
   14.9664   30.9684   -9.3830 N   0  0  0  0  0  0  0  0  0  0  0  0
   15.5047   29.7624   -9.9243 C   0  0  0  0  0  0  0  0  0  0  0  0
   16.1244   28.7660   -9.1204 C   0  0  0  0  0  0  0  0  0  0  0  0
   16.2276   28.9251   -7.7398 C   0  0  0  0  0  0  0  0  0  0  0  0
   16.8929   27.9786   -6.9081 C   0  0  0  0  0  0  0  0  0  0  0  0
   16.6876   26.6167   -6.9223 C   0  0  0  0  0  0  0  0  0  0  0  0
   17.3700   25.6977   -6.1323 C   0  0  0  0  0  0  0  0  0  0  0  0
   17.8973   28.3845   -6.0626 C   0  0  0  0  0  0  0  0  0  0  0  0
   18.5850   27.4814   -5.2562 C   0  0  0  0  0  0  0  0  0  0  0  0
   18.3183   26.1228   -5.2589 C   0  0  0  0  0  0  0  0  0  0  0  0
   19.0898   25.2885   -4.4932 O   0  0  0  0  0  0  0  0  0  0  0  0
   20.4255   24.9348   -4.8695 C   0  0  0  0  0  0  0  0  0  0  0  0
   21.2926   24.4170   -3.8815 C   0  0  0  0  0  0  0  0  0  0  0  0
   20.2047   23.6179   -4.3659 C   0  0  0  0  0  0  0  0  0  0  0  0
   14.6214   32.2176   -7.3677 N   0  0  0  0  0  0  0  0  0  0  0  0
   15.0958   33.0733   -7.4775 H   0  0  0  0  0  0  0  0  0  0  0  0
   13.4269   32.1384   -6.5074 C   0  0  0  0  0  0  0  0  0  0  0  0
   12.8884   34.8662   -6.2271 O   0  0  0  0  0  0  0  0  0  0  0  0
   12.2668   33.5360   -6.8319 P   0  0  0  0  0  0  0  0  0  0  0  0
   10.9760   33.2279   -6.0461 O   0  0  0  0  0  0  0  0  0  0  0  0
   12.1647   33.6114   -8.3034 O   0  0  0  0  0  0  0  0  0  0  0  0
   10.3333   33.9404   -6.1878 H   0  0  0  0  0  0  0  0  0  0  0  0
   11.5642   34.3324   -8.5493 H   0  0  0  0  0  0  0  0  0  0  0  0
   13.9889   32.1898   -4.7730 P   0  0  0  0  0  0  0  0  0  0  0  0
   15.4219   32.7636   -4.8496 O   0  0  0  0  0  0  0  0  0  0  0  0
   13.1681   33.1992   -4.0163 O   0  0  0  0  0  0  0  0  0  0  0  0
   13.9292   30.8127   -4.2596 O   0  0  0  0  0  0  0  0  0  0  0  0
   15.9926   32.1447   -5.3315 H   0  0  0  0  0  0  0  0  0  0  0  0
   12.2544   32.8822   -3.9414 H   0  0  0  0  0  0  0  0  0  0  0  0
 20 21  2  0  0  0
 23 21  1  0  0  0
 21 22  1  0  0  0
 21 19  1  0  0  0
  4  3  2  0  0  0
  4  5  1  0  0  0
  3  1  1  0  0  0
  5  6  2  0  0  0
 29 26  2  0  0  0
 19 26  1  0  0  0
 19 17  1  0  0  0
  1 17  1  0  0  0
  1  2  2  0  0  0
  6  2  1  0  0  0
  6  7  1  0  0  0
 26 28  1  0  0  0
 26 27  1  0  0  0
  7 10  2  0  0  0
  7  8  1  0  0  0
 10 11  1  0  0  0
  8  9  2  0  0  0
 11 12  2  0  0  0
  9 12  1  0  0  0
 12 13  1  0  0  0
 13 14  1  0  0  0
 14 15  1  0  0  0
 14 16  1  0  0  0
 15 16  1  0  0  0
 22 24  1  0  0  0
 23 25  1  0  0  0
 27 30  1  0  0  0
 28 31  1  0  0  0
 17 18  1  0  0  0
M  END
> <minimizedAffinity>
-9.10031

$$$$
