4KZ7_1U5_A_401


 15 16  0  0  0  0  0  0  0  0999 V2000
   23.0935    6.3367   15.2841 C   0  0  0  0  0  0  0  0  0  0  0  0
   23.7590    7.4545   16.0936 C   0  0  0  0  0  0  0  0  0  0  0  0
   23.2259    8.8405   15.7102 C   0  0  0  0  0  0  0  0  0  0  0  0
   23.7158    7.1693   17.6798 C   0  0  0  0  0  0  0  0  0  0  0  0
   22.3603    7.0254   18.2932 C   0  0  0  0  0  0  0  0  0  0  0  0
   24.6652    8.2425   18.2239 C   0  0  0  0  0  0  0  0  0  0  0  0
   25.7854    8.3354   17.1118 C   0  0  0  0  0  0  0  0  0  0  0  0
   25.3220    7.3042   16.0693 C   0  0  0  0  0  0  0  0  0  0  0  0
   25.5052    6.0203   16.6994 O   0  0  0  0  0  0  0  0  0  0  0  0
   24.5435    5.8972   17.6673 C   0  0  0  0  0  0  0  0  0  0  0  0
   24.5111    4.9188   18.3680 O   0  0  0  0  0  0  0  0  0  0  0  0
   25.9701    7.3242   14.6684 C   0  0  0  0  0  0  0  0  0  0  0  0
   26.4246    6.2480   14.2414 O   0  0  0  0  0  0  0  0  0  0  0  0
   25.9713    8.4158   14.0634 O   0  0  0  0  0  0  0  0  0  0  0  0
   26.3781    5.4766   14.7713 H   0  0  0  0  0  0  0  0  0  0  0  0
 11 10  2  0  0  0
  5  4  1  0  0  0
 10  4  1  0  0  0
 10  9  1  0  0  0
  4  6  1  0  0  0
  4  2  1  0  0  0
  6  7  1  0  0  0
  9  8  1  0  0  0
  7  8  1  0  0  0
  2  8  1  0  0  0
  2  1  1  0  0  0
  2  3  1  0  0  0
  8 12  1  0  0  0
 14 12  2  0  0  0
 12 13  1  0  0  0
 13 15  1  0  0  0
M  END
> <minimizedAffinity>
-6.37651

$$$$
4KZ7_1U5_A_401


 15 16  0  0  0  0  0  0  0  0999 V2000
   26.1228    7.7713   16.6676 C   0  0  0  0  0  0  0  0  0  0  0  0
   24.6761    7.6917   16.1693 C   0  0  0  0  0  0  0  0  0  0  0  0
   23.7960    8.7924   16.7744 C   0  0  0  0  0  0  0  0  0  0  0  0
   24.5870    7.6135   14.5614 C   0  0  0  0  0  0  0  0  0  0  0  0
   25.1756    8.7611   13.8059 C   0  0  0  0  0  0  0  0  0  0  0  0
   23.1125    7.2585   14.3397 C   0  0  0  0  0  0  0  0  0  0  0  0
   22.7844    6.2935   15.5484 C   0  0  0  0  0  0  0  0  0  0  0  0
   24.1186    6.2304   16.3106 C   0  0  0  0  0  0  0  0  0  0  0  0
   25.0099    5.4898   15.4528 O   0  0  0  0  0  0  0  0  0  0  0  0
   25.3263    6.2988   14.3933 C   0  0  0  0  0  0  0  0  0  0  0  0
   26.0324    5.8894   13.5085 O   0  0  0  0  0  0  0  0  0  0  0  0
   24.1280    5.6508   17.7414 C   0  0  0  0  0  0  0  0  0  0  0  0
   25.0237    4.8314   18.0125 O   0  0  0  0  0  0  0  0  0  0  0  0
   23.2464    6.0635   18.5226 O   0  0  0  0  0  0  0  0  0  0  0  0
   25.6439    4.5811   17.3563 H   0  0  0  0  0  0  0  0  0  0  0  0
 11 10  2  0  0  0
  5  4  1  0  0  0
 10  4  1  0  0  0
 10  9  1  0  0  0
  4  6  1  0  0  0
  4  2  1  0  0  0
  6  7  1  0  0  0
  9  8  1  0  0  0
  7  8  1  0  0  0
  2  8  1  0  0  0
  2  1  1  0  0  0
  2  3  1  0  0  0
  8 12  1  0  0  0
 14 12  2  0  0  0
 12 13  1  0  0  0
 13 15  1  0  0  0
M  END
> <minimizedAffinity>
-6.06360

$$$$
4KZ7_1U5_A_401


 15 16  0  0  0  0  0  0  0  0999 V2000
   25.4006    8.2866   19.2931 C   0  0  0  0  0  0  0  0  0  0  0  0
   24.5606    7.1826   18.6426 C   0  0  0  0  0  0  0  0  0  0  0  0
   23.2438    6.9426   19.3914 C   0  0  0  0  0  0  0  0  0  0  0  0
   24.3624    7.4177   17.0600 C   0  0  0  0  0  0  0  0  0  0  0  0
   23.6827    8.6861   16.6557 C   0  0  0  0  0  0  0  0  0  0  0  0
   23.7637    6.0803   16.6104 C   0  0  0  0  0  0  0  0  0  0  0  0
   24.5067    5.0237   17.5223 C   0  0  0  0  0  0  0  0  0  0  0  0
   25.4306    5.9012   18.3833 C   0  0  0  0  0  0  0  0  0  0  0  0
   26.4315    6.4025   17.4745 O   0  0  0  0  0  0  0  0  0  0  0  0
   25.8266    7.3317   16.6698 C   0  0  0  0  0  0  0  0  0  0  0  0
   26.4502    7.8705   15.7923 O   0  0  0  0  0  0  0  0  0  0  0  0
   26.0884    5.2800   19.6341 C   0  0  0  0  0  0  0  0  0  0  0  0
   27.3306    5.3082   19.6914 O   0  0  0  0  0  0  0  0  0  0  0  0
   25.3216    4.8136   20.5014 O   0  0  0  0  0  0  0  0  0  0  0  0
   27.8237    5.6810   18.9872 H   0  0  0  0  0  0  0  0  0  0  0  0
 11 10  2  0  0  0
  5  4  1  0  0  0
 10  4  1  0  0  0
 10  9  1  0  0  0
  4  6  1  0  0  0
  4  2  1  0  0  0
  6  7  1  0  0  0
  9  8  1  0  0  0
  7  8  1  0  0  0
  2  8  1  0  0  0
  2  1  1  0  0  0
  2  3  1  0  0  0
  8 12  1  0  0  0
 14 12  2  0  0  0
 12 13  1  0  0  0
 13 15  1  0  0  0
M  END
> <minimizedAffinity>
-6.04310

$$$$
4KZ7_1U5_A_401


 15 16  0  0  0  0  0  0  0  0999 V2000
   22.4201    6.4199   15.9434 C   0  0  0  0  0  0  0  0  0  0  0  0
   23.7033    7.2511   16.0433 C   0  0  0  0  0  0  0  0  0  0  0  0
   23.5115    8.6753   15.5075 C   0  0  0  0  0  0  0  0  0  0  0  0
   24.3476    7.2052   17.5205 C   0  0  0  0  0  0  0  0  0  0  0  0
   23.4912    7.7117   18.6360 C   0  0  0  0  0  0  0  0  0  0  0  0
   25.7208    7.8463   17.2907 C   0  0  0  0  0  0  0  0  0  0  0  0
   26.1274    7.3304   15.8524 C   0  0  0  0  0  0  0  0  0  0  0  0
   24.9236    6.4651   15.4439 C   0  0  0  0  0  0  0  0  0  0  0  0
   24.9803    5.3081   16.3023 O   0  0  0  0  0  0  0  0  0  0  0  0
   24.6241    5.7135   17.5616 C   0  0  0  0  0  0  0  0  0  0  0  0
   24.6334    4.9299   18.4754 O   0  0  0  0  0  0  0  0  0  0  0  0
   24.7814    6.0439   13.9656 C   0  0  0  0  0  0  0  0  0  0  0  0
   24.4563    4.8639   13.7437 O   0  0  0  0  0  0  0  0  0  0  0  0
   24.9856    6.9255   13.1061 O   0  0  0  0  0  0  0  0  0  0  0  0
   24.3244    4.2721   14.4581 H   0  0  0  0  0  0  0  0  0  0  0  0
 11 10  2  0  0  0
  5  4  1  0  0  0
 10  4  1  0  0  0
 10  9  1  0  0  0
  4  6  1  0  0  0
  4  2  1  0  0  0
  6  7  1  0  0  0
  9  8  1  0  0  0
  7  8  1  0  0  0
  2  8  1  0  0  0
  2  1  1  0  0  0
  2  3  1  0  0  0
  8 12  1  0  0  0
 14 12  2  0  0  0
 12 13  1  0  0  0
 13 15  1  0  0  0
M  END
> <minimizedAffinity>
-5.96030

$$$$
4KZ7_1U5_A_401


 15 16  0  0  0  0  0  0  0  0999 V2000
   22.3923    6.2546   17.1485 C   0  0  0  0  0  0  0  0  0  0  0  0
   23.8158    6.5685   17.6205 C   0  0  0  0  0  0  0  0  0  0  0  0
   24.7444    5.3538   17.5007 C   0  0  0  0  0  0  0  0  0  0  0  0
   24.4098    7.8981   16.9286 C   0  0  0  0  0  0  0  0  0  0  0  0
   24.5094    7.8842   15.4373 C   0  0  0  0  0  0  0  0  0  0  0  0
   25.6769    8.1492   17.7537 C   0  0  0  0  0  0  0  0  0  0  0  0
   25.2526    7.7156   19.2138 C   0  0  0  0  0  0  0  0  0  0  0  0
   23.7946    7.2632   19.0287 C   0  0  0  0  0  0  0  0  0  0  0  0
   23.0560    8.4702   18.7517 O   0  0  0  0  0  0  0  0  0  0  0  0
   23.3906    8.8746   17.4862 C   0  0  0  0  0  0  0  0  0  0  0  0
   22.9313    9.8914   17.0341 O   0  0  0  0  0  0  0  0  0  0  0  0
   23.1201    6.4556   20.1583 C   0  0  0  0  0  0  0  0  0  0  0  0
   23.7680    5.5093   20.6398 O   0  0  0  0  0  0  0  0  0  0  0  0
   21.9829    6.8263   20.5147 O   0  0  0  0  0  0  0  0  0  0  0  0
   24.6190    5.3055   20.3046 H   0  0  0  0  0  0  0  0  0  0  0  0
 11 10  2  0  0  0
  5  4  1  0  0  0
 10  4  1  0  0  0
 10  9  1  0  0  0
  4  6  1  0  0  0
  4  2  1  0  0  0
  6  7  1  0  0  0
  9  8  1  0  0  0
  7  8  1  0  0  0
  2  8  1  0  0  0
  2  1  1  0  0  0
  2  3  1  0  0  0
  8 12  1  0  0  0
 14 12  2  0  0  0
 12 13  1  0  0  0
 13 15  1  0  0  0
M  END
> <minimizedAffinity>
-5.72741

$$$$
4KZ7_1U5_A_401


 15 16  0  0  0  0  0  0  0  0999 V2000
   26.5384    6.2352   18.7130 C   0  0  0  0  0  0  0  0  0  0  0  0
   25.1564    6.8952   18.6657 C   0  0  0  0  0  0  0  0  0  0  0  0
   25.0677    8.1153   19.5907 C   0  0  0  0  0  0  0  0  0  0  0  0
   24.6763    7.2003   17.1571 C   0  0  0  0  0  0  0  0  0  0  0  0
   25.5481    8.1097   16.3526 C   0  0  0  0  0  0  0  0  0  0  0  0
   23.2034    7.5732   17.3594 C   0  0  0  0  0  0  0  0  0  0  0  0
   22.7432    6.6167   18.5313 C   0  0  0  0  0  0  0  0  0  0  0  0
   24.0221    5.8253   18.8521 C   0  0  0  0  0  0  0  0  0  0  0  0
   24.2334    4.9688   17.7116 O   0  0  0  0  0  0  0  0  0  0  0  0
   24.6437    5.7623   16.6729 C   0  0  0  0  0  0  0  0  0  0  0  0
   24.8482    5.2822   15.5881 O   0  0  0  0  0  0  0  0  0  0  0  0
   24.0823    5.0145   20.1645 C   0  0  0  0  0  0  0  0  0  0  0  0
   25.1760    4.9784   20.7559 O   0  0  0  0  0  0  0  0  0  0  0  0
   23.0231    4.4726   20.5413 O   0  0  0  0  0  0  0  0  0  0  0  0
   25.9195    5.4185   20.3933 H   0  0  0  0  0  0  0  0  0  0  0  0
 11 10  2  0  0  0
  5  4  1  0  0  0
 10  4  1  0  0  0
 10  9  1  0  0  0
  4  6  1  0  0  0
  4  2  1  0  0  0
  6  7  1  0  0  0
  9  8  1  0  0  0
  7  8  1  0  0  0
  2  8  1  0  0  0
  2  1  1  0  0  0
  2  3  1  0  0  0
  8 12  1  0  0  0
 14 12  2  0  0  0
 12 13  1  0  0  0
 13 15  1  0  0  0
M  END
> <minimizedAffinity>
-5.67594

$$$$
4KZ7_1U5_A_401


 15 16  0  0  0  0  0  0  0  0999 V2000
   24.6788    5.9466   14.8689 C   0  0  0  0  0  0  0  0  0  0  0  0
   25.1095    7.2052   15.6293 C   0  0  0  0  0  0  0  0  0  0  0  0
   26.5559    7.6044   15.3119 C   0  0  0  0  0  0  0  0  0  0  0  0
   24.0589    8.4153   15.4528 C   0  0  0  0  0  0  0  0  0  0  0  0
   23.8202    8.8907   14.0559 C   0  0  0  0  0  0  0  0  0  0  0  0
   24.5469    9.4185   16.5039 C   0  0  0  0  0  0  0  0  0  0  0  0
   25.0334    8.4944   17.6911 C   0  0  0  0  0  0  0  0  0  0  0  0
   24.7662    7.0776   17.1563 C   0  0  0  0  0  0  0  0  0  0  0  0
   23.3304    6.9487   17.1266 O   0  0  0  0  0  0  0  0  0  0  0  0
   22.8693    7.7308   16.1007 C   0  0  0  0  0  0  0  0  0  0  0  0
   21.6869    7.8244   15.8947 O   0  0  0  0  0  0  0  0  0  0  0  0
   25.4088    5.8774   17.8841 C   0  0  0  0  0  0  0  0  0  0  0  0
   26.5817    6.0162   18.2744 O   0  0  0  0  0  0  0  0  0  0  0  0
   24.6952    4.8657   18.0417 O   0  0  0  0  0  0  0  0  0  0  0  0
   27.0390    6.8170   18.1085 H   0  0  0  0  0  0  0  0  0  0  0  0
 11 10  2  0  0  0
  5  4  1  0  0  0
 10  4  1  0  0  0
 10  9  1  0  0  0
  4  6  1  0  0  0
  4  2  1  0  0  0
  6  7  1  0  0  0
  9  8  1  0  0  0
  7  8  1  0  0  0
  2  8  1  0  0  0
  2  1  1  0  0  0
  2  3  1  0  0  0
  8 12  1  0  0  0
 14 12  2  0  0  0
 12 13  1  0  0  0
 13 15  1  0  0  0
M  END
> <minimizedAffinity>
-5.61421

$$$$
4KZ7_1U5_A_401


 15 16  0  0  0  0  0  0  0  0999 V2000
   25.6981    8.5237   16.7670 C   0  0  0  0  0  0  0  0  0  0  0  0
   24.4403    7.8454   17.3197 C   0  0  0  0  0  0  0  0  0  0  0  0
   23.5523    8.8235   18.0989 C   0  0  0  0  0  0  0  0  0  0  0  0
   23.6426    7.0211   16.1868 C   0  0  0  0  0  0  0  0  0  0  0  0
   23.1535    7.8066   15.0129 C   0  0  0  0  0  0  0  0  0  0  0  0
   22.6307    6.2279   17.0212 C   0  0  0  0  0  0  0  0  0  0  0  0
   23.4388    5.8734   18.3332 C   0  0  0  0  0  0  0  0  0  0  0  0
   24.8101    6.5212   18.0786 C   0  0  0  0  0  0  0  0  0  0  0  0
   25.4103    5.7365   17.0284 O   0  0  0  0  0  0  0  0  0  0  0  0
   24.7410    6.0235   15.8680 C   0  0  0  0  0  0  0  0  0  0  0  0
   25.0320    5.4587   14.8454 O   0  0  0  0  0  0  0  0  0  0  0  0
   25.7841    6.6847   19.2650 C   0  0  0  0  0  0  0  0  0  0  0  0
   25.3544    7.2779   20.2704 O   0  0  0  0  0  0  0  0  0  0  0  0
   26.9231    6.1923   19.1313 O   0  0  0  0  0  0  0  0  0  0  0  0
   24.4802    7.6151   20.2774 H   0  0  0  0  0  0  0  0  0  0  0  0
 11 10  2  0  0  0
  5  4  1  0  0  0
 10  4  1  0  0  0
 10  9  1  0  0  0
  4  6  1  0  0  0
  4  2  1  0  0  0
  6  7  1  0  0  0
  9  8  1  0  0  0
  7  8  1  0  0  0
  2  8  1  0  0  0
  2  1  1  0  0  0
  2  3  1  0  0  0
  8 12  1  0  0  0
 14 12  2  0  0  0
 12 13  1  0  0  0
 13 15  1  0  0  0
M  END
> <minimizedAffinity>
-5.59715

$$$$
4KZ7_1U5_A_401


 15 16  0  0  0  0  0  0  0  0999 V2000
   24.6306    9.4325   16.7283 C   0  0  0  0  0  0  0  0  0  0  0  0
   24.6911    7.9309   17.0267 C   0  0  0  0  0  0  0  0  0  0  0  0
   25.6726    7.6068   18.1597 C   0  0  0  0  0  0  0  0  0  0  0  0
   23.2272    7.2921   17.2467 C   0  0  0  0  0  0  0  0  0  0  0  0
   22.4153    7.8591   18.3664 C   0  0  0  0  0  0  0  0  0  0  0  0
   23.5292    5.7894   17.2373 C   0  0  0  0  0  0  0  0  0  0  0  0
   24.6820    5.6563   16.1634 C   0  0  0  0  0  0  0  0  0  0  0  0
   24.8943    7.1085   15.7043 C   0  0  0  0  0  0  0  0  0  0  0  0
   23.7069    7.4477   14.9600 O   0  0  0  0  0  0  0  0  0  0  0  0
   22.6826    7.5814   15.8600 C   0  0  0  0  0  0  0  0  0  0  0  0
   21.5678    7.8253   15.4768 O   0  0  0  0  0  0  0  0  0  0  0  0
   26.1640    7.4522   14.8964 C   0  0  0  0  0  0  0  0  0  0  0  0
   27.2049    6.8393   15.1931 O   0  0  0  0  0  0  0  0  0  0  0  0
   26.0441    8.3061   13.9940 O   0  0  0  0  0  0  0  0  0  0  0  0
   27.1973    6.2130   15.8900 H   0  0  0  0  0  0  0  0  0  0  0  0
 11 10  2  0  0  0
  5  4  1  0  0  0
 10  4  1  0  0  0
 10  9  1  0  0  0
  4  6  1  0  0  0
  4  2  1  0  0  0
  6  7  1  0  0  0
  9  8  1  0  0  0
  7  8  1  0  0  0
  2  8  1  0  0  0
  2  1  1  0  0  0
  2  3  1  0  0  0
  8 12  1  0  0  0
 14 12  2  0  0  0
 12 13  1  0  0  0
 13 15  1  0  0  0
M  END
> <minimizedAffinity>
-5.47866

$$$$
4KZ7_1U5_A_401


 15 16  0  0  0  0  0  0  0  0999 V2000
   24.6755    5.2430   17.3555 C   0  0  0  0  0  0  0  0  0  0  0  0
   24.9829    6.7052   17.6949 C   0  0  0  0  0  0  0  0  0  0  0  0
   26.2210    6.8419   18.5897 C   0  0  0  0  0  0  0  0  0  0  0  0
   25.0368    7.6390   16.3817 C   0  0  0  0  0  0  0  0  0  0  0  0
   26.0555    7.2771   15.3494 C   0  0  0  0  0  0  0  0  0  0  0  0
   25.0658    9.0455   16.9903 C   0  0  0  0  0  0  0  0  0  0  0  0
   24.1302    8.9131   18.2581 C   0  0  0  0  0  0  0  0  0  0  0  0
   23.6944    7.4391   18.2120 C   0  0  0  0  0  0  0  0  0  0  0  0
   22.8190    7.3387   17.0706 O   0  0  0  0  0  0  0  0  0  0  0  0
   23.5964    7.4401   15.9471 C   0  0  0  0  0  0  0  0  0  0  0  0
   23.0884    7.4253   14.8558 O   0  0  0  0  0  0  0  0  0  0  0  0
   23.0350    6.8218   19.4639 C   0  0  0  0  0  0  0  0  0  0  0  0
   23.6327    6.9651   20.5453 O   0  0  0  0  0  0  0  0  0  0  0  0
   21.9424    6.2419   19.2976 O   0  0  0  0  0  0  0  0  0  0  0  0
   24.4527    7.4177   20.5710 H   0  0  0  0  0  0  0  0  0  0  0  0
 11 10  2  0  0  0
  5  4  1  0  0  0
 10  4  1  0  0  0
 10  9  1  0  0  0
  4  6  1  0  0  0
  4  2  1  0  0  0
  6  7  1  0  0  0
  9  8  1  0  0  0
  7  8  1  0  0  0
  2  8  1  0  0  0
  2  1  1  0  0  0
  2  3  1  0  0  0
  8 12  1  0  0  0
 14 12  2  0  0  0
 12 13  1  0  0  0
 13 15  1  0  0  0
M  END
> <minimizedAffinity>
-5.44306

$$$$
