4JZI_N4C_A_900


 45 48  0  0  0  0  0  0  0  0999 V2000
   16.1092   65.2380   22.9445 C   0  0  0  0  0  0  0  0  0  0  0  0
   15.6889   65.2685   24.2690 C   0  0  0  0  0  0  0  0  0  0  0  0
   16.8569   64.1670   22.4926 C   0  0  0  0  0  0  0  0  0  0  0  0
   17.1574   63.1385   23.3663 C   0  0  0  0  0  0  0  0  0  0  0  0
   16.7391   63.1656   24.6530 N   0  0  0  0  0  0  0  0  0  0  0  0
   16.0142   64.2049   25.1195 C   0  0  0  0  0  0  0  0  0  0  0  0
   16.6656   67.1700   21.7287 O   0  0  0  0  0  0  0  0  0  0  0  0
   15.8037   66.3461   21.9932 C   0  0  0  0  0  0  0  0  0  0  0  0
   14.5663   66.3534   21.5034 N   0  0  0  0  0  0  0  0  0  0  0  0
   13.9772   65.6190   21.7912 H   0  0  0  0  0  0  0  0  0  0  0  0
   13.9870   67.3285   20.5881 C   0  0  0  0  0  0  0  0  0  0  0  0
   12.5169   67.6468   20.8068 C   0  0  0  0  0  0  0  0  0  0  0  0
   12.0375   68.5758   19.6983 C   0  0  0  0  0  0  0  0  0  0  0  0
   12.0000   67.7736   18.4139 C   0  0  0  0  0  0  0  0  0  0  0  0
   11.3701   68.5062   17.3403 N   0  0  0  0  0  0  0  0  0  0  0  0
   13.4616   67.5028   18.0749 C   0  0  0  0  0  0  0  0  0  0  0  0
   14.1494   66.7187   19.1950 C   0  0  0  0  0  0  0  0  0  0  0  0
   11.8772   69.3764   17.1792 H   0  0  0  0  0  0  0  0  0  0  0  0
   10.4047   68.7171   17.5932 H   0  0  0  0  0  0  0  0  0  0  0  0
   17.9048   62.0939   22.9087 O   0  0  0  0  0  0  0  0  0  0  0  0
   18.4355   61.1349   23.7186 C   0  0  0  0  0  0  0  0  0  0  0  0
   18.2611   59.8109   23.3650 C   0  0  0  0  0  0  0  0  0  0  0  0
   18.8317   58.8217   24.1532 C   0  0  0  0  0  0  0  0  0  0  0  0
   19.5628   59.1417   25.2993 C   0  0  0  0  0  0  0  0  0  0  0  0
   19.7419   60.4813   25.6394 C   0  0  0  0  0  0  0  0  0  0  0  0
   19.1792   61.4757   24.8462 C   0  0  0  0  0  0  0  0  0  0  0  0
   20.1655   58.0246   26.1237 C   0  0  0  0  0  0  0  0  0  0  0  0
   19.9307   56.8143   25.8079 N   0  0  0  0  0  0  0  0  0  0  0  0
   20.9517   58.2920   27.1679 N   0  0  0  0  0  0  0  0  0  0  0  0
   20.3194   56.0826   26.3396 H   0  0  0  0  0  0  0  0  0  0  0  0
   19.3603   56.6098   25.0320 H   0  0  0  0  0  0  0  0  0  0  0  0
   21.3371   57.5554   27.6954 H   0  0  0  0  0  0  0  0  0  0  0  0
   15.6279   64.1757   26.4283 O   0  0  0  0  0  0  0  0  0  0  0  0
   14.3220   63.9577   26.7555 C   0  0  0  0  0  0  0  0  0  0  0  0
   13.9142   62.7332   27.2995 C   0  0  0  0  0  0  0  0  0  0  0  0
   12.5824   62.5347   27.6406 C   0  0  0  0  0  0  0  0  0  0  0  0
   11.6527   63.5522   27.4298 C   0  0  0  0  0  0  0  0  0  0  0  0
   12.0696   64.7643   26.8874 C   0  0  0  0  0  0  0  0  0  0  0  0
   13.4034   64.9729   26.5542 C   0  0  0  0  0  0  0  0  0  0  0  0
   10.2163   63.3105   27.7965 C   0  0  0  0  0  0  0  0  0  0  0  0
    9.3206   64.2759   27.7236 N   0  0  0  0  0  0  0  0  0  0  0  0
    9.8518   62.1704   28.1599 N   0  0  0  0  0  0  0  0  0  0  0  0
    9.5917   65.1786   27.4392 H   0  0  0  0  0  0  0  0  0  0  0  0
   10.5085   61.4394   28.2193 H   0  0  0  0  0  0  0  0  0  0  0  0
    8.9083   62.0042   28.3867 H   0  0  0  0  0  0  0  0  0  0  0  0
 29 27  2  0  0  0
 28 27  1  0  0  0
 27 24  1  0  0  0
 24 25  2  0  0  0
 24 23  1  0  0  0
 25 26  1  0  0  0
 23 22  2  0  0  0
 26 21  2  0  0  0
 22 21  1  0  0  0
 21 20  1  0  0  0
 33  6  1  0  0  0
 33 34  1  0  0  0
  5  6  2  0  0  0
  5  4  1  0  0  0
 20  4  1  0  0  0
 39 34  2  0  0  0
 39 38  1  0  0  0
  6  2  1  0  0  0
  4  3  2  0  0  0
 34 35  1  0  0  0
 38 37  2  0  0  0
  2  1  2  0  0  0
  3  1  1  0  0  0
 35 36  2  0  0  0
 37 36  1  0  0  0
 37 40  1  0  0  0
  1  8  1  0  0  0
 41 40  2  0  0  0
 40 42  1  0  0  0
  7  8  2  0  0  0
  8  9  1  0  0  0
  9 11  1  0  0  0
 11 12  1  0  0  0
 11 17  1  0  0  0
 12 13  1  0  0  0
 17 16  1  0  0  0
 13 14  1  0  0  0
 14 16  1  0  0  0
 14 15  1  0  0  0
  9 10  1  0  0  0
 15 18  1  0  0  0
 15 19  1  0  0  0
 28 30  1  0  0  0
 28 31  1  0  0  0
 29 32  1  0  0  0
 41 43  1  0  0  0
 42 44  1  0  0  0
 42 45  1  0  0  0
M  END
> <minimizedAffinity>
-10.71524

$$$$
4JZI_N4C_A_900


 45 48  0  0  0  0  0  0  0  0999 V2000
   15.6446   64.9715   22.8013 C   0  0  0  0  0  0  0  0  0  0  0  0
   15.1907   65.1043   24.1083 C   0  0  0  0  0  0  0  0  0  0  0  0
   16.7542   64.1892   22.5426 C   0  0  0  0  0  0  0  0  0  0  0  0
   17.3806   63.5407   23.5908 C   0  0  0  0  0  0  0  0  0  0  0  0
   16.9314   63.6635   24.8614 N   0  0  0  0  0  0  0  0  0  0  0  0
   15.8541   64.4285   25.1397 C   0  0  0  0  0  0  0  0  0  0  0  0
   15.5538   65.7359   20.5815 O   0  0  0  0  0  0  0  0  0  0  0  0
   14.9871   65.6751   21.6616 C   0  0  0  0  0  0  0  0  0  0  0  0
   13.7987   66.2104   21.9301 N   0  0  0  0  0  0  0  0  0  0  0  0
   13.4525   66.0733   22.8415 H   0  0  0  0  0  0  0  0  0  0  0  0
   12.9529   66.9771   21.0239 C   0  0  0  0  0  0  0  0  0  0  0  0
   13.3463   68.4319   20.8262 C   0  0  0  0  0  0  0  0  0  0  0  0
   12.2970   69.1191   19.9611 C   0  0  0  0  0  0  0  0  0  0  0  0
   11.0331   69.2423   20.7869 C   0  0  0  0  0  0  0  0  0  0  0  0
   10.0383   70.0574   20.1294 N   0  0  0  0  0  0  0  0  0  0  0  0
   10.5210   67.8145   20.9401 C   0  0  0  0  0  0  0  0  0  0  0  0
   11.5553   66.9321   21.6432 C   0  0  0  0  0  0  0  0  0  0  0  0
    9.8098   69.6496   19.2228 H   0  0  0  0  0  0  0  0  0  0  0  0
   10.4050   70.9997   19.9957 H   0  0  0  0  0  0  0  0  0  0  0  0
   18.4804   62.7810   23.3214 O   0  0  0  0  0  0  0  0  0  0  0  0
   18.8053   61.6530   24.0136 C   0  0  0  0  0  0  0  0  0  0  0  0
   18.5105   60.4292   23.4444 C   0  0  0  0  0  0  0  0  0  0  0  0
   18.8733   59.2692   24.1139 C   0  0  0  0  0  0  0  0  0  0  0  0
   19.5151   59.3197   25.3532 C   0  0  0  0  0  0  0  0  0  0  0  0
   19.8179   60.5602   25.9119 C   0  0  0  0  0  0  0  0  0  0  0  0
   19.4640   61.7249   25.2390 C   0  0  0  0  0  0  0  0  0  0  0  0
   19.8907   58.0249   26.0411 C   0  0  0  0  0  0  0  0  0  0  0  0
   19.4202   56.9246   25.6080 N   0  0  0  0  0  0  0  0  0  0  0  0
   20.7201   58.0205   27.0861 N   0  0  0  0  0  0  0  0  0  0  0  0
   19.6601   56.0785   26.0504 H   0  0  0  0  0  0  0  0  0  0  0  0
   18.8162   56.9196   24.8305 H   0  0  0  0  0  0  0  0  0  0  0  0
   20.9558   57.1708   27.5240 H   0  0  0  0  0  0  0  0  0  0  0  0
   15.4546   64.5167   26.4419 O   0  0  0  0  0  0  0  0  0  0  0  0
   14.1615   64.2509   26.7844 C   0  0  0  0  0  0  0  0  0  0  0  0
   13.2039   65.2724   26.8161 C   0  0  0  0  0  0  0  0  0  0  0  0
   11.8884   64.9801   27.1527 C   0  0  0  0  0  0  0  0  0  0  0  0
   11.5272   63.6711   27.4692 C   0  0  0  0  0  0  0  0  0  0  0  0
   12.4879   62.6645   27.4355 C   0  0  0  0  0  0  0  0  0  0  0  0
   13.8040   62.9491   27.0885 C   0  0  0  0  0  0  0  0  0  0  0  0
   10.1010   63.3811   27.8407 C   0  0  0  0  0  0  0  0  0  0  0  0
    9.1620   64.2987   27.7153 N   0  0  0  0  0  0  0  0  0  0  0  0
    9.7874   62.2448   28.2592 N   0  0  0  0  0  0  0  0  0  0  0  0
    9.3929   65.1977   27.3872 H   0  0  0  0  0  0  0  0  0  0  0  0
   10.4770   61.5491   28.3583 H   0  0  0  0  0  0  0  0  0  0  0  0
    8.8511   62.0462   28.4895 H   0  0  0  0  0  0  0  0  0  0  0  0
 29 27  2  0  0  0
 28 27  1  0  0  0
 27 24  1  0  0  0
 24 25  2  0  0  0
 24 23  1  0  0  0
 25 26  1  0  0  0
 23 22  2  0  0  0
 26 21  2  0  0  0
 22 21  1  0  0  0
 21 20  1  0  0  0
 33  6  1  0  0  0
 33 34  1  0  0  0
  5  6  2  0  0  0
  5  4  1  0  0  0
 20  4  1  0  0  0
 39 34  2  0  0  0
 39 38  1  0  0  0
  6  2  1  0  0  0
  4  3  2  0  0  0
 34 35  1  0  0  0
 38 37  2  0  0  0
  2  1  2  0  0  0
  3  1  1  0  0  0
 35 36  2  0  0  0
 37 36  1  0  0  0
 37 40  1  0  0  0
  1  8  1  0  0  0
 41 40  2  0  0  0
 40 42  1  0  0  0
  7  8  2  0  0  0
  8  9  1  0  0  0
  9 11  1  0  0  0
 11 12  1  0  0  0
 11 17  1  0  0  0
 12 13  1  0  0  0
 17 16  1  0  0  0
 13 14  1  0  0  0
 14 16  1  0  0  0
 14 15  1  0  0  0
  9 10  1  0  0  0
 15 18  1  0  0  0
 15 19  1  0  0  0
 28 30  1  0  0  0
 28 31  1  0  0  0
 29 32  1  0  0  0
 41 43  1  0  0  0
 42 44  1  0  0  0
 42 45  1  0  0  0
M  END
> <minimizedAffinity>
-10.56396

$$$$
4JZI_N4C_A_900


 45 48  0  0  0  0  0  0  0  0999 V2000
   14.9159   63.2044   25.4536 C   0  0  0  0  0  0  0  0  0  0  0  0
   16.0264   62.5188   24.9758 C   0  0  0  0  0  0  0  0  0  0  0  0
   14.3887   64.2455   24.7131 C   0  0  0  0  0  0  0  0  0  0  0  0
   14.9694   64.5726   23.5017 C   0  0  0  0  0  0  0  0  0  0  0  0
   16.0448   63.8975   23.0338 N   0  0  0  0  0  0  0  0  0  0  0  0
   16.5822   62.8819   23.7430 C   0  0  0  0  0  0  0  0  0  0  0  0
   14.9423   62.3024   27.6229 O   0  0  0  0  0  0  0  0  0  0  0  0
   14.2859   62.8716   26.7646 C   0  0  0  0  0  0  0  0  0  0  0  0
   13.0087   63.2235   26.8901 N   0  0  0  0  0  0  0  0  0  0  0  0
   12.6056   63.6899   26.1226 H   0  0  0  0  0  0  0  0  0  0  0  0
   12.1407   62.9945   28.0384 C   0  0  0  0  0  0  0  0  0  0  0  0
   12.8251   63.0053   29.3955 C   0  0  0  0  0  0  0  0  0  0  0  0
   11.8114   62.6263   30.4682 C   0  0  0  0  0  0  0  0  0  0  0  0
   11.4848   61.1579   30.2900 C   0  0  0  0  0  0  0  0  0  0  0  0
   10.6839   60.6491   31.3790 N   0  0  0  0  0  0  0  0  0  0  0  0
   10.7001   61.0837   28.9849 C   0  0  0  0  0  0  0  0  0  0  0  0
   11.5320   61.6098   27.8128 C   0  0  0  0  0  0  0  0  0  0  0  0
    9.8164   61.1819   31.4410 H   0  0  0  0  0  0  0  0  0  0  0  0
   11.2018   60.7396   32.2531 H   0  0  0  0  0  0  0  0  0  0  0  0
   14.4447   65.6089   22.7876 O   0  0  0  0  0  0  0  0  0  0  0  0
   13.2597   66.2096   23.0911 C   0  0  0  0  0  0  0  0  0  0  0  0
   12.1749   65.9668   22.2709 C   0  0  0  0  0  0  0  0  0  0  0  0
   10.9490   66.5342   22.5885 C   0  0  0  0  0  0  0  0  0  0  0  0
   10.7997   67.3534   23.7097 C   0  0  0  0  0  0  0  0  0  0  0  0
   11.8984   67.5815   24.5362 C   0  0  0  0  0  0  0  0  0  0  0  0
   13.1264   67.0067   24.2258 C   0  0  0  0  0  0  0  0  0  0  0  0
    9.4405   67.9466   24.0121 C   0  0  0  0  0  0  0  0  0  0  0  0
    8.7327   67.4505   24.9461 N   0  0  0  0  0  0  0  0  0  0  0  0
    8.9810   68.9922   23.3222 N   0  0  0  0  0  0  0  0  0  0  0  0
    7.8477   67.8312   25.1484 H   0  0  0  0  0  0  0  0  0  0  0  0
    9.0703   66.6859   25.4664 H   0  0  0  0  0  0  0  0  0  0  0  0
    8.0950   69.3679   23.5297 H   0  0  0  0  0  0  0  0  0  0  0  0
   17.6701   62.2450   23.2197 O   0  0  0  0  0  0  0  0  0  0  0  0
   18.2825   61.2447   23.9157 C   0  0  0  0  0  0  0  0  0  0  0  0
   19.0703   61.5304   25.0379 C   0  0  0  0  0  0  0  0  0  0  0  0
   19.6741   60.4973   25.7431 C   0  0  0  0  0  0  0  0  0  0  0  0
   19.5029   59.1783   25.3246 C   0  0  0  0  0  0  0  0  0  0  0  0
   18.7188   58.9067   24.2071 C   0  0  0  0  0  0  0  0  0  0  0  0
   18.1029   59.9359   23.5036 C   0  0  0  0  0  0  0  0  0  0  0  0
   20.1745   58.0787   26.0967 C   0  0  0  0  0  0  0  0  0  0  0  0
   20.9518   58.3443   27.1285 N   0  0  0  0  0  0  0  0  0  0  0  0
   19.9822   56.8859   25.7726 N   0  0  0  0  0  0  0  0  0  0  0  0
   21.1129   59.2780   27.3960 H   0  0  0  0  0  0  0  0  0  0  0  0
   19.4045   56.6714   25.0048 H   0  0  0  0  0  0  0  0  0  0  0  0
   20.4085   56.1617   26.2854 H   0  0  0  0  0  0  0  0  0  0  0  0
 29 27  2  0  0  0
 28 27  1  0  0  0
 27 24  1  0  0  0
 24 25  2  0  0  0
 24 23  1  0  0  0
 25 26  1  0  0  0
 23 22  2  0  0  0
 26 21  2  0  0  0
 22 21  1  0  0  0
 21 20  1  0  0  0
 33  6  1  0  0  0
 33 34  1  0  0  0
  5  6  2  0  0  0
  5  4  1  0  0  0
 20  4  1  0  0  0
 39 34  2  0  0  0
 39 38  1  0  0  0
  6  2  1  0  0  0
  4  3  2  0  0  0
 34 35  1  0  0  0
 38 37  2  0  0  0
  2  1  2  0  0  0
  3  1  1  0  0  0
 35 36  2  0  0  0
 37 36  1  0  0  0
 37 40  1  0  0  0
  1  8  1  0  0  0
 41 40  2  0  0  0
 40 42  1  0  0  0
  7  8  2  0  0  0
  8  9  1  0  0  0
  9 11  1  0  0  0
 11 12  1  0  0  0
 11 17  1  0  0  0
 12 13  1  0  0  0
 17 16  1  0  0  0
 13 14  1  0  0  0
 14 16  1  0  0  0
 14 15  1  0  0  0
  9 10  1  0  0  0
 15 18  1  0  0  0
 15 19  1  0  0  0
 28 30  1  0  0  0
 28 31  1  0  0  0
 29 32  1  0  0  0
 41 43  1  0  0  0
 42 44  1  0  0  0
 42 45  1  0  0  0
M  END
> <minimizedAffinity>
-10.50900

$$$$
4JZI_N4C_A_900


 45 48  0  0  0  0  0  0  0  0999 V2000
   16.4868   64.5161   24.5549 C   0  0  0  0  0  0  0  0  0  0  0  0
   16.6077   65.6207   23.7200 C   0  0  0  0  0  0  0  0  0  0  0  0
   17.0424   63.3099   24.1721 C   0  0  0  0  0  0  0  0  0  0  0  0
   17.7225   63.2324   22.9708 C   0  0  0  0  0  0  0  0  0  0  0  0
   17.8474   64.3115   22.1639 N   0  0  0  0  0  0  0  0  0  0  0  0
   17.3064   65.4984   22.5128 C   0  0  0  0  0  0  0  0  0  0  0  0
   16.2130   65.2141   26.7816 O   0  0  0  0  0  0  0  0  0  0  0  0
   15.7451   64.5808   25.8480 C   0  0  0  0  0  0  0  0  0  0  0  0
   14.5985   63.9064   25.8830 N   0  0  0  0  0  0  0  0  0  0  0  0
   14.3332   63.4504   25.0518 H   0  0  0  0  0  0  0  0  0  0  0  0
   13.6919   63.7683   27.0159 C   0  0  0  0  0  0  0  0  0  0  0  0
   13.1617   62.3666   27.2698 C   0  0  0  0  0  0  0  0  0  0  0  0
   12.1379   62.4173   28.3971 C   0  0  0  0  0  0  0  0  0  0  0  0
   10.9100   63.1292   27.8678 C   0  0  0  0  0  0  0  0  0  0  0  0
    9.8044   63.0558   28.7943 N   0  0  0  0  0  0  0  0  0  0  0  0
   11.3430   64.5795   27.6845 C   0  0  0  0  0  0  0  0  0  0  0  0
   12.5092   64.6845   26.6987 C   0  0  0  0  0  0  0  0  0  0  0  0
   10.0781   63.4728   29.6840 H   0  0  0  0  0  0  0  0  0  0  0  0
    9.5480   62.0795   28.9410 H   0  0  0  0  0  0  0  0  0  0  0  0
   18.2560   62.0330   22.6018 O   0  0  0  0  0  0  0  0  0  0  0  0
   18.6582   61.0815   23.4907 C   0  0  0  0  0  0  0  0  0  0  0  0
   18.4087   59.7570   23.1877 C   0  0  0  0  0  0  0  0  0  0  0  0
   18.8498   58.7713   24.0592 C   0  0  0  0  0  0  0  0  0  0  0  0
   19.5251   59.0967   25.2375 C   0  0  0  0  0  0  0  0  0  0  0  0
   19.7813   60.4358   25.5266 C   0  0  0  0  0  0  0  0  0  0  0  0
   19.3488   61.4258   24.6505 C   0  0  0  0  0  0  0  0  0  0  0  0
   19.9861   57.9833   26.1532 C   0  0  0  0  0  0  0  0  0  0  0  0
   19.6103   56.7886   25.9273 N   0  0  0  0  0  0  0  0  0  0  0  0
   20.7932   58.2357   27.1852 N   0  0  0  0  0  0  0  0  0  0  0  0
   19.9063   56.0593   26.5188 H   0  0  0  0  0  0  0  0  0  0  0  0
   19.0236   56.5936   25.1612 H   0  0  0  0  0  0  0  0  0  0  0  0
   21.0853   57.5017   27.7727 H   0  0  0  0  0  0  0  0  0  0  0  0
   17.4617   66.5468   21.6528 O   0  0  0  0  0  0  0  0  0  0  0  0
   16.4959   66.8309   20.7328 C   0  0  0  0  0  0  0  0  0  0  0  0
   15.5071   67.7854   21.0029 C   0  0  0  0  0  0  0  0  0  0  0  0
   14.5404   68.0723   20.0478 C   0  0  0  0  0  0  0  0  0  0  0  0
   14.5505   67.4005   18.8261 C   0  0  0  0  0  0  0  0  0  0  0  0
   15.5373   66.4531   18.5695 C   0  0  0  0  0  0  0  0  0  0  0  0
   16.5144   66.1695   19.5174 C   0  0  0  0  0  0  0  0  0  0  0  0
   13.4885   67.7198   17.8131 C   0  0  0  0  0  0  0  0  0  0  0  0
   12.2078   67.6528   18.1212 N   0  0  0  0  0  0  0  0  0  0  0  0
   13.8176   68.0751   16.6597 N   0  0  0  0  0  0  0  0  0  0  0  0
   11.9328   67.3748   19.0247 H   0  0  0  0  0  0  0  0  0  0  0  0
   14.7694   68.1301   16.4144 H   0  0  0  0  0  0  0  0  0  0  0  0
   13.1247   68.2998   15.9974 H   0  0  0  0  0  0  0  0  0  0  0  0
 29 27  2  0  0  0
 28 27  1  0  0  0
 27 24  1  0  0  0
 24 25  2  0  0  0
 24 23  1  0  0  0
 25 26  1  0  0  0
 23 22  2  0  0  0
 26 21  2  0  0  0
 22 21  1  0  0  0
 21 20  1  0  0  0
 33  6  1  0  0  0
 33 34  1  0  0  0
  5  6  2  0  0  0
  5  4  1  0  0  0
 20  4  1  0  0  0
 39 34  2  0  0  0
 39 38  1  0  0  0
  6  2  1  0  0  0
  4  3  2  0  0  0
 34 35  1  0  0  0
 38 37  2  0  0  0
  2  1  2  0  0  0
  3  1  1  0  0  0
 35 36  2  0  0  0
 37 36  1  0  0  0
 37 40  1  0  0  0
  1  8  1  0  0  0
 41 40  2  0  0  0
 40 42  1  0  0  0
  7  8  2  0  0  0
  8  9  1  0  0  0
  9 11  1  0  0  0
 11 12  1  0  0  0
 11 17  1  0  0  0
 12 13  1  0  0  0
 17 16  1  0  0  0
 13 14  1  0  0  0
 14 16  1  0  0  0
 14 15  1  0  0  0
  9 10  1  0  0  0
 15 18  1  0  0  0
 15 19  1  0  0  0
 28 30  1  0  0  0
 28 31  1  0  0  0
 29 32  1  0  0  0
 41 43  1  0  0  0
 42 44  1  0  0  0
 42 45  1  0  0  0
M  END
> <minimizedAffinity>
-10.48401

$$$$
4JZI_N4C_A_900


 45 48  0  0  0  0  0  0  0  0999 V2000
   15.1932   64.5375   23.3547 C   0  0  0  0  0  0  0  0  0  0  0  0
   16.2659   63.8407   22.8111 C   0  0  0  0  0  0  0  0  0  0  0  0
   14.7328   64.2030   24.6143 C   0  0  0  0  0  0  0  0  0  0  0  0
   15.3619   63.1904   25.3147 C   0  0  0  0  0  0  0  0  0  0  0  0
   16.4123   62.5196   24.7875 N   0  0  0  0  0  0  0  0  0  0  0  0
   16.8748   62.8232   23.5558 C   0  0  0  0  0  0  0  0  0  0  0  0
   14.9817   66.0512   21.5704 O   0  0  0  0  0  0  0  0  0  0  0  0
   14.4962   65.6238   22.6063 C   0  0  0  0  0  0  0  0  0  0  0  0
   13.3674   66.0634   23.1572 N   0  0  0  0  0  0  0  0  0  0  0  0
   13.0837   65.6187   23.9885 H   0  0  0  0  0  0  0  0  0  0  0  0
   12.5047   67.1306   22.6659 C   0  0  0  0  0  0  0  0  0  0  0  0
   11.9900   68.0999   23.7175 C   0  0  0  0  0  0  0  0  0  0  0  0
   11.0091   69.0673   23.0665 C   0  0  0  0  0  0  0  0  0  0  0  0
    9.7594   68.2854   22.7179 C   0  0  0  0  0  0  0  0  0  0  0  0
    8.6897   69.1498   22.2765 N   0  0  0  0  0  0  0  0  0  0  0  0
   10.1794   67.3539   21.5864 C   0  0  0  0  0  0  0  0  0  0  0  0
   11.3072   66.4205   22.0328 C   0  0  0  0  0  0  0  0  0  0  0  0
    8.9951   69.6786   21.4595 H   0  0  0  0  0  0  0  0  0  0  0  0
    8.4429   69.7955   23.0266 H   0  0  0  0  0  0  0  0  0  0  0  0
   14.8896   62.8647   26.5517 O   0  0  0  0  0  0  0  0  0  0  0  0
   13.6786   63.2707   27.0271 C   0  0  0  0  0  0  0  0  0  0  0  0
   12.6796   62.3262   27.1625 C   0  0  0  0  0  0  0  0  0  0  0  0
   11.4538   62.7116   27.6862 C   0  0  0  0  0  0  0  0  0  0  0  0
   11.2116   64.0345   28.0627 C   0  0  0  0  0  0  0  0  0  0  0  0
   12.2310   64.9759   27.9324 C   0  0  0  0  0  0  0  0  0  0  0  0
   13.4639   64.5908   27.4165 C   0  0  0  0  0  0  0  0  0  0  0  0
    9.8574   64.4022   28.6298 C   0  0  0  0  0  0  0  0  0  0  0  0
    9.6317   64.2396   29.8717 N   0  0  0  0  0  0  0  0  0  0  0  0
    8.9022   64.9084   27.8478 N   0  0  0  0  0  0  0  0  0  0  0  0
    8.7532   64.4767   30.2475 H   0  0  0  0  0  0  0  0  0  0  0  0
   10.3357   63.8769   30.4565 H   0  0  0  0  0  0  0  0  0  0  0  0
    8.0259   65.1432   28.2301 H   0  0  0  0  0  0  0  0  0  0  0  0
   17.9330   62.1057   23.0779 O   0  0  0  0  0  0  0  0  0  0  0  0
   18.4891   61.1147   23.8320 C   0  0  0  0  0  0  0  0  0  0  0  0
   19.2201   61.4176   24.9876 C   0  0  0  0  0  0  0  0  0  0  0  0
   19.7664   60.3941   25.7512 C   0  0  0  0  0  0  0  0  0  0  0  0
   19.5946   59.0673   25.3586 C   0  0  0  0  0  0  0  0  0  0  0  0
   18.8673   58.7786   24.2075 C   0  0  0  0  0  0  0  0  0  0  0  0
   18.3086   59.7983   23.4450 C   0  0  0  0  0  0  0  0  0  0  0  0
   20.2038   57.9781   26.1944 C   0  0  0  0  0  0  0  0  0  0  0  0
   20.0473   56.7068   25.8800 N   0  0  0  0  0  0  0  0  0  0  0  0
   20.8895   58.2754   27.1975 N   0  0  0  0  0  0  0  0  0  0  0  0
   19.5105   56.4567   25.0935 H   0  0  0  0  0  0  0  0  0  0  0  0
   21.0156   59.2198   27.4452 H   0  0  0  0  0  0  0  0  0  0  0  0
   21.3029   57.5649   27.7393 H   0  0  0  0  0  0  0  0  0  0  0  0
 29 27  2  0  0  0
 28 27  1  0  0  0
 27 24  1  0  0  0
 24 25  2  0  0  0
 24 23  1  0  0  0
 25 26  1  0  0  0
 23 22  2  0  0  0
 26 21  2  0  0  0
 22 21  1  0  0  0
 21 20  1  0  0  0
 33  6  1  0  0  0
 33 34  1  0  0  0
  5  6  2  0  0  0
  5  4  1  0  0  0
 20  4  1  0  0  0
 39 34  2  0  0  0
 39 38  1  0  0  0
  6  2  1  0  0  0
  4  3  2  0  0  0
 34 35  1  0  0  0
 38 37  2  0  0  0
  2  1  2  0  0  0
  3  1  1  0  0  0
 35 36  2  0  0  0
 37 36  1  0  0  0
 37 40  1  0  0  0
  1  8  1  0  0  0
 41 40  2  0  0  0
 40 42  1  0  0  0
  7  8  2  0  0  0
  8  9  1  0  0  0
  9 11  1  0  0  0
 11 12  1  0  0  0
 11 17  1  0  0  0
 12 13  1  0  0  0
 17 16  1  0  0  0
 13 14  1  0  0  0
 14 16  1  0  0  0
 14 15  1  0  0  0
  9 10  1  0  0  0
 15 18  1  0  0  0
 15 19  1  0  0  0
 28 30  1  0  0  0
 28 31  1  0  0  0
 29 32  1  0  0  0
 41 43  1  0  0  0
 42 44  1  0  0  0
 42 45  1  0  0  0
M  END
> <minimizedAffinity>
-10.44409

$$$$
4JZI_N4C_A_900


 45 48  0  0  0  0  0  0  0  0999 V2000
   15.2360   63.4843   25.4903 C   0  0  0  0  0  0  0  0  0  0  0  0
   16.1405   62.5932   24.9251 C   0  0  0  0  0  0  0  0  0  0  0  0
   15.0766   64.7382   24.9312 C   0  0  0  0  0  0  0  0  0  0  0  0
   15.8108   65.0737   23.8087 C   0  0  0  0  0  0  0  0  0  0  0  0
   16.6839   64.2011   23.2542 N   0  0  0  0  0  0  0  0  0  0  0  0
   16.8625   62.9735   23.7872 C   0  0  0  0  0  0  0  0  0  0  0  0
   14.9781   62.5272   27.6205 O   0  0  0  0  0  0  0  0  0  0  0  0
   14.4461   63.1415   26.7088 C   0  0  0  0  0  0  0  0  0  0  0  0
   13.1754   63.5364   26.6954 N   0  0  0  0  0  0  0  0  0  0  0  0
   12.8807   64.0366   25.9002 H   0  0  0  0  0  0  0  0  0  0  0  0
   12.1716   63.3102   27.7277 C   0  0  0  0  0  0  0  0  0  0  0  0
   12.6167   63.5910   29.1537 C   0  0  0  0  0  0  0  0  0  0  0  0
   11.5039   63.1855   30.1124 C   0  0  0  0  0  0  0  0  0  0  0  0
   11.4180   61.6732   30.0995 C   0  0  0  0  0  0  0  0  0  0  0  0
   10.5284   61.1763   31.1232 N   0  0  0  0  0  0  0  0  0  0  0  0
   10.8753   61.3205   28.7191 C   0  0  0  0  0  0  0  0  0  0  0  0
   11.8063   61.8293   27.6160 C   0  0  0  0  0  0  0  0  0  0  0  0
    9.5970   61.5678   30.9836 H   0  0  0  0  0  0  0  0  0  0  0  0
   10.8788   61.4513   32.0408 H   0  0  0  0  0  0  0  0  0  0  0  0
   15.6505   66.3181   23.2748 O   0  0  0  0  0  0  0  0  0  0  0  0
   15.1323   66.5453   22.0350 C   0  0  0  0  0  0  0  0  0  0  0  0
   13.7641   66.6946   21.9158 C   0  0  0  0  0  0  0  0  0  0  0  0
   13.2220   66.9703   20.6686 C   0  0  0  0  0  0  0  0  0  0  0  0
   14.0321   67.0842   19.5367 C   0  0  0  0  0  0  0  0  0  0  0  0
   15.4121   66.9433   19.6714 C   0  0  0  0  0  0  0  0  0  0  0  0
   15.9596   66.6762   20.9218 C   0  0  0  0  0  0  0  0  0  0  0  0
   13.3905   67.3873   18.1998 C   0  0  0  0  0  0  0  0  0  0  0  0
   14.0851   67.3033   17.1368 N   0  0  0  0  0  0  0  0  0  0  0  0
   12.1027   67.7269   18.1198 N   0  0  0  0  0  0  0  0  0  0  0  0
   13.6745   67.4989   16.2637 H   0  0  0  0  0  0  0  0  0  0  0  0
   15.0331   67.0426   17.1875 H   0  0  0  0  0  0  0  0  0  0  0  0
   11.6985   67.9213   17.2434 H   0  0  0  0  0  0  0  0  0  0  0  0
   17.7622   62.1422   23.1852 O   0  0  0  0  0  0  0  0  0  0  0  0
   18.3661   61.1492   23.8989 C   0  0  0  0  0  0  0  0  0  0  0  0
   19.1278   61.4453   25.0362 C   0  0  0  0  0  0  0  0  0  0  0  0
   19.7230   60.4194   25.7591 C   0  0  0  0  0  0  0  0  0  0  0  0
   19.5694   59.0974   25.3433 C   0  0  0  0  0  0  0  0  0  0  0  0
   18.8112   58.8155   24.2107 C   0  0  0  0  0  0  0  0  0  0  0  0
   18.2038   59.8373   23.4893 C   0  0  0  0  0  0  0  0  0  0  0  0
   20.2314   58.0059   26.1348 C   0  0  0  0  0  0  0  0  0  0  0  0
   21.0022   58.2825   27.1687 N   0  0  0  0  0  0  0  0  0  0  0  0
   20.0373   56.8095   25.8252 N   0  0  0  0  0  0  0  0  0  0  0  0
   21.1647   59.2190   27.4249 H   0  0  0  0  0  0  0  0  0  0  0  0
   19.4644   56.5868   25.0561 H   0  0  0  0  0  0  0  0  0  0  0  0
   20.4573   56.0907   26.3506 H   0  0  0  0  0  0  0  0  0  0  0  0
 29 27  2  0  0  0
 28 27  1  0  0  0
 27 24  1  0  0  0
 24 25  2  0  0  0
 24 23  1  0  0  0
 25 26  1  0  0  0
 23 22  2  0  0  0
 26 21  2  0  0  0
 22 21  1  0  0  0
 21 20  1  0  0  0
 33  6  1  0  0  0
 33 34  1  0  0  0
  5  6  2  0  0  0
  5  4  1  0  0  0
 20  4  1  0  0  0
 39 34  2  0  0  0
 39 38  1  0  0  0
  6  2  1  0  0  0
  4  3  2  0  0  0
 34 35  1  0  0  0
 38 37  2  0  0  0
  2  1  2  0  0  0
  3  1  1  0  0  0
 35 36  2  0  0  0
 37 36  1  0  0  0
 37 40  1  0  0  0
  1  8  1  0  0  0
 41 40  2  0  0  0
 40 42  1  0  0  0
  7  8  2  0  0  0
  8  9  1  0  0  0
  9 11  1  0  0  0
 11 12  1  0  0  0
 11 17  1  0  0  0
 12 13  1  0  0  0
 17 16  1  0  0  0
 13 14  1  0  0  0
 14 16  1  0  0  0
 14 15  1  0  0  0
  9 10  1  0  0  0
 15 18  1  0  0  0
 15 19  1  0  0  0
 28 30  1  0  0  0
 28 31  1  0  0  0
 29 32  1  0  0  0
 41 43  1  0  0  0
 42 44  1  0  0  0
 42 45  1  0  0  0
M  END
> <minimizedAffinity>
-10.42017

$$$$
4JZI_N4C_A_900


 45 48  0  0  0  0  0  0  0  0999 V2000
   15.5194   63.4220   25.1040 C   0  0  0  0  0  0  0  0  0  0  0  0
   14.9698   64.3765   24.2562 C   0  0  0  0  0  0  0  0  0  0  0  0
   16.5303   62.6015   24.6402 C   0  0  0  0  0  0  0  0  0  0  0  0
   16.9853   62.7597   23.3441 C   0  0  0  0  0  0  0  0  0  0  0  0
   16.4554   63.6960   22.5234 N   0  0  0  0  0  0  0  0  0  0  0  0
   15.4617   64.5038   22.9515 C   0  0  0  0  0  0  0  0  0  0  0  0
   15.8214   63.2829   27.4299 O   0  0  0  0  0  0  0  0  0  0  0  0
   15.0305   63.2309   26.5006 C   0  0  0  0  0  0  0  0  0  0  0  0
   13.7261   62.9969   26.6221 N   0  0  0  0  0  0  0  0  0  0  0  0
   13.2020   62.9961   25.7887 H   0  0  0  0  0  0  0  0  0  0  0  0
   12.9877   62.7419   27.8525 C   0  0  0  0  0  0  0  0  0  0  0  0
   11.7480   61.8740   27.7103 C   0  0  0  0  0  0  0  0  0  0  0  0
   11.0267   61.8112   29.0511 C   0  0  0  0  0  0  0  0  0  0  0  0
   10.4281   63.1780   29.3125 C   0  0  0  0  0  0  0  0  0  0  0  0
    9.5550   63.1717   30.4630 N   0  0  0  0  0  0  0  0  0  0  0  0
   11.6229   64.0899   29.5680 C   0  0  0  0  0  0  0  0  0  0  0  0
   12.5597   64.1204   28.3579 C   0  0  0  0  0  0  0  0  0  0  0  0
   10.0781   62.8703   31.2852 H   0  0  0  0  0  0  0  0  0  0  0  0
    8.7803   62.5289   30.2984 H   0  0  0  0  0  0  0  0  0  0  0  0
   17.9757   61.9358   22.8975 O   0  0  0  0  0  0  0  0  0  0  0  0
   18.5236   60.9396   23.6491 C   0  0  0  0  0  0  0  0  0  0  0  0
   19.1959   61.2872   24.8048 C   0  0  0  0  0  0  0  0  0  0  0  0
   19.7224   60.2842   25.6062 C   0  0  0  0  0  0  0  0  0  0  0  0
   19.5964   58.9379   25.2567 C   0  0  0  0  0  0  0  0  0  0  0  0
   18.9058   58.5990   24.0945 C   0  0  0  0  0  0  0  0  0  0  0  0
   18.3687   59.6015   23.2939 C   0  0  0  0  0  0  0  0  0  0  0  0
   20.1880   57.8828   26.1664 C   0  0  0  0  0  0  0  0  0  0  0  0
   20.0047   56.6515   25.9019 N   0  0  0  0  0  0  0  0  0  0  0  0
   20.9114   58.2264   27.2335 N   0  0  0  0  0  0  0  0  0  0  0  0
   20.3866   55.9597   26.4892 H   0  0  0  0  0  0  0  0  0  0  0  0
   19.4811   56.3908   25.1100 H   0  0  0  0  0  0  0  0  0  0  0  0
   21.2903   57.5295   27.8166 H   0  0  0  0  0  0  0  0  0  0  0  0
   14.9655   65.4236   22.0736 O   0  0  0  0  0  0  0  0  0  0  0  0
   15.7923   66.0366   21.1787 C   0  0  0  0  0  0  0  0  0  0  0  0
   15.7571   65.6964   19.8206 C   0  0  0  0  0  0  0  0  0  0  0  0
   16.5962   66.3421   18.9216 C   0  0  0  0  0  0  0  0  0  0  0  0
   17.4798   67.3202   19.3762 C   0  0  0  0  0  0  0  0  0  0  0  0
   17.5067   67.6489   20.7284 C   0  0  0  0  0  0  0  0  0  0  0  0
   16.6613   67.0138   21.6315 C   0  0  0  0  0  0  0  0  0  0  0  0
   18.3851   67.9971   18.3871 C   0  0  0  0  0  0  0  0  0  0  0  0
   19.3400   67.3310   17.7674 N   0  0  0  0  0  0  0  0  0  0  0  0
   18.2240   69.2100   18.1271 N   0  0  0  0  0  0  0  0  0  0  0  0
   19.4794   66.3759   17.9612 H   0  0  0  0  0  0  0  0  0  0  0  0
   17.5155   69.7209   18.5813 H   0  0  0  0  0  0  0  0  0  0  0  0
   18.8056   69.6537   17.4683 H   0  0  0  0  0  0  0  0  0  0  0  0
 29 27  2  0  0  0
 28 27  1  0  0  0
 27 24  1  0  0  0
 24 25  2  0  0  0
 24 23  1  0  0  0
 25 26  1  0  0  0
 23 22  2  0  0  0
 26 21  2  0  0  0
 22 21  1  0  0  0
 21 20  1  0  0  0
 33  6  1  0  0  0
 33 34  1  0  0  0
  5  6  2  0  0  0
  5  4  1  0  0  0
 20  4  1  0  0  0
 39 34  2  0  0  0
 39 38  1  0  0  0
  6  2  1  0  0  0
  4  3  2  0  0  0
 34 35  1  0  0  0
 38 37  2  0  0  0
  2  1  2  0  0  0
  3  1  1  0  0  0
 35 36  2  0  0  0
 37 36  1  0  0  0
 37 40  1  0  0  0
  1  8  1  0  0  0
 41 40  2  0  0  0
 40 42  1  0  0  0
  7  8  2  0  0  0
  8  9  1  0  0  0
  9 11  1  0  0  0
 11 12  1  0  0  0
 11 17  1  0  0  0
 12 13  1  0  0  0
 17 16  1  0  0  0
 13 14  1  0  0  0
 14 16  1  0  0  0
 14 15  1  0  0  0
  9 10  1  0  0  0
 15 18  1  0  0  0
 15 19  1  0  0  0
 28 30  1  0  0  0
 28 31  1  0  0  0
 29 32  1  0  0  0
 41 43  1  0  0  0
 42 44  1  0  0  0
 42 45  1  0  0  0
M  END
> <minimizedAffinity>
-10.37017

$$$$
4JZI_N4C_A_900


 45 48  0  0  0  0  0  0  0  0999 V2000
   16.3977   64.2829   24.7463 C   0  0  0  0  0  0  0  0  0  0  0  0
   17.0443   63.1266   24.3259 C   0  0  0  0  0  0  0  0  0  0  0  0
   16.4206   65.4061   23.9412 C   0  0  0  0  0  0  0  0  0  0  0  0
   17.0742   65.3497   22.7242 C   0  0  0  0  0  0  0  0  0  0  0  0
   17.6949   64.2199   22.3124 N   0  0  0  0  0  0  0  0  0  0  0  0
   17.6929   63.1126   23.0850 C   0  0  0  0  0  0  0  0  0  0  0  0
   16.2646   64.8753   27.0160 O   0  0  0  0  0  0  0  0  0  0  0  0
   15.6992   64.3632   26.0623 C   0  0  0  0  0  0  0  0  0  0  0  0
   14.4768   63.8380   26.0929 N   0  0  0  0  0  0  0  0  0  0  0  0
   14.1371   63.4697   25.2454 H   0  0  0  0  0  0  0  0  0  0  0  0
   13.5853   63.7479   27.2424 C   0  0  0  0  0  0  0  0  0  0  0  0
   13.2849   62.3420   27.7359 C   0  0  0  0  0  0  0  0  0  0  0  0
   12.2472   62.4154   28.8492 C   0  0  0  0  0  0  0  0  0  0  0  0
   10.9295   62.8184   28.2200 C   0  0  0  0  0  0  0  0  0  0  0  0
    9.8346   62.7239   29.1574 N   0  0  0  0  0  0  0  0  0  0  0  0
   11.1249   64.2676   27.7889 C   0  0  0  0  0  0  0  0  0  0  0  0
   12.2754   64.3927   26.7872 C   0  0  0  0  0  0  0  0  0  0  0  0
   10.0219   63.3241   29.9605 H   0  0  0  0  0  0  0  0  0  0  0  0
    9.7373   61.7579   29.4702 H   0  0  0  0  0  0  0  0  0  0  0  0
   17.0972   66.4690   21.9458 O   0  0  0  0  0  0  0  0  0  0  0  0
   16.1661   66.7405   20.9884 C   0  0  0  0  0  0  0  0  0  0  0  0
   15.3363   67.8294   21.1738 C   0  0  0  0  0  0  0  0  0  0  0  0
   14.4117   68.1479   20.1895 C   0  0  0  0  0  0  0  0  0  0  0  0
   14.2981   67.3807   19.0281 C   0  0  0  0  0  0  0  0  0  0  0  0
   15.1486   66.2915   18.8469 C   0  0  0  0  0  0  0  0  0  0  0  0
   16.0829   65.9751   19.8274 C   0  0  0  0  0  0  0  0  0  0  0  0
   13.2738   67.7719   17.9847 C   0  0  0  0  0  0  0  0  0  0  0  0
   12.0456   67.8495   18.3088 N   0  0  0  0  0  0  0  0  0  0  0  0
   13.6435   68.0508   16.7334 N   0  0  0  0  0  0  0  0  0  0  0  0
   11.3739   68.1034   17.6354 H   0  0  0  0  0  0  0  0  0  0  0  0
   11.7673   67.6557   19.2330 H   0  0  0  0  0  0  0  0  0  0  0  0
   12.9665   68.3039   16.0649 H   0  0  0  0  0  0  0  0  0  0  0  0
   18.3421   62.0073   22.6161 O   0  0  0  0  0  0  0  0  0  0  0  0
   18.7502   61.0319   23.4776 C   0  0  0  0  0  0  0  0  0  0  0  0
   19.3578   61.3599   24.6960 C   0  0  0  0  0  0  0  0  0  0  0  0
   19.7533   60.3531   25.5674 C   0  0  0  0  0  0  0  0  0  0  0  0
   19.5541   59.0173   25.2209 C   0  0  0  0  0  0  0  0  0  0  0  0
   18.9505   58.7035   24.0067 C   0  0  0  0  0  0  0  0  0  0  0  0
   18.5423   59.7072   23.1352 C   0  0  0  0  0  0  0  0  0  0  0  0
   19.9999   57.9457   26.1745 C   0  0  0  0  0  0  0  0  0  0  0  0
   20.8134   58.2176   27.1764 N   0  0  0  0  0  0  0  0  0  0  0  0
   19.5809   56.7756   26.0332 N   0  0  0  0  0  0  0  0  0  0  0  0
   21.1518   59.1337   27.3010 H   0  0  0  0  0  0  0  0  0  0  0  0
   18.9731   56.5568   25.2902 H   0  0  0  0  0  0  0  0  0  0  0  0
   19.8588   56.0736   26.6649 H   0  0  0  0  0  0  0  0  0  0  0  0
 29 27  2  0  0  0
 28 27  1  0  0  0
 27 24  1  0  0  0
 24 25  2  0  0  0
 24 23  1  0  0  0
 25 26  1  0  0  0
 23 22  2  0  0  0
 26 21  2  0  0  0
 22 21  1  0  0  0
 21 20  1  0  0  0
 33  6  1  0  0  0
 33 34  1  0  0  0
  5  6  2  0  0  0
  5  4  1  0  0  0
 20  4  1  0  0  0
 39 34  2  0  0  0
 39 38  1  0  0  0
  6  2  1  0  0  0
  4  3  2  0  0  0
 34 35  1  0  0  0
 38 37  2  0  0  0
  2  1  2  0  0  0
  3  1  1  0  0  0
 35 36  2  0  0  0
 37 36  1  0  0  0
 37 40  1  0  0  0
  1  8  1  0  0  0
 41 40  2  0  0  0
 40 42  1  0  0  0
  7  8  2  0  0  0
  8  9  1  0  0  0
  9 11  1  0  0  0
 11 12  1  0  0  0
 11 17  1  0  0  0
 12 13  1  0  0  0
 17 16  1  0  0  0
 13 14  1  0  0  0
 14 16  1  0  0  0
 14 15  1  0  0  0
  9 10  1  0  0  0
 15 18  1  0  0  0
 15 19  1  0  0  0
 28 30  1  0  0  0
 28 31  1  0  0  0
 29 32  1  0  0  0
 41 43  1  0  0  0
 42 44  1  0  0  0
 42 45  1  0  0  0
M  END
> <minimizedAffinity>
-10.25659

$$$$
4JZI_N4C_A_900


 45 48  0  0  0  0  0  0  0  0999 V2000
   15.2972   63.2931   25.0755 C   0  0  0  0  0  0  0  0  0  0  0  0
   16.3682   62.5011   24.6786 C   0  0  0  0  0  0  0  0  0  0  0  0
   14.8467   64.2969   24.2390 C   0  0  0  0  0  0  0  0  0  0  0  0
   15.4625   64.4810   23.0149 C   0  0  0  0  0  0  0  0  0  0  0  0
   16.4988   63.7024   22.6262 N   0  0  0  0  0  0  0  0  0  0  0  0
   16.9616   62.7208   23.4296 C   0  0  0  0  0  0  0  0  0  0  0  0
   15.2453   62.6006   27.3201 O   0  0  0  0  0  0  0  0  0  0  0  0
   14.6307   63.1150   26.3985 C   0  0  0  0  0  0  0  0  0  0  0  0
   13.3695   63.5345   26.4636 N   0  0  0  0  0  0  0  0  0  0  0  0
   13.0015   63.9438   25.6473 H   0  0  0  0  0  0  0  0  0  0  0  0
   12.4728   63.4550   27.6099 C   0  0  0  0  0  0  0  0  0  0  0  0
   13.0954   63.7775   28.9584 C   0  0  0  0  0  0  0  0  0  0  0  0
   12.0682   63.5249   30.0552 C   0  0  0  0  0  0  0  0  0  0  0  0
   11.8617   62.0274   30.1519 C   0  0  0  0  0  0  0  0  0  0  0  0
   11.0557   61.6682   31.2953 N   0  0  0  0  0  0  0  0  0  0  0  0
   11.1418   61.6442   28.8637 C   0  0  0  0  0  0  0  0  0  0  0  0
   11.9810   62.0071   27.6362 C   0  0  0  0  0  0  0  0  0  0  0  0
   10.1484   62.1298   31.2302 H   0  0  0  0  0  0  0  0  0  0  0  0
   11.5271   61.9641   32.1500 H   0  0  0  0  0  0  0  0  0  0  0  0
   15.0137   65.4820   22.2051 O   0  0  0  0  0  0  0  0  0  0  0  0
   15.7870   66.0950   21.2652 C   0  0  0  0  0  0  0  0  0  0  0  0
   16.6550   67.0871   21.6786 C   0  0  0  0  0  0  0  0  0  0  0  0
   17.4821   67.6922   20.7432 C   0  0  0  0  0  0  0  0  0  0  0  0
   17.4404   67.3260   19.3961 C   0  0  0  0  0  0  0  0  0  0  0  0
   16.5690   66.3157   18.9930 C   0  0  0  0  0  0  0  0  0  0  0  0
   15.7453   65.7005   19.9298 C   0  0  0  0  0  0  0  0  0  0  0  0
   18.3647   68.0165   18.4166 C   0  0  0  0  0  0  0  0  0  0  0  0
   19.2510   67.3383   17.8049 N   0  0  0  0  0  0  0  0  0  0  0  0
   18.2529   69.3239   18.1749 N   0  0  0  0  0  0  0  0  0  0  0  0
   19.8557   67.7808   17.1663 H   0  0  0  0  0  0  0  0  0  0  0  0
   19.3319   66.3712   17.9703 H   0  0  0  0  0  0  0  0  0  0  0  0
   18.8609   69.7600   17.5352 H   0  0  0  0  0  0  0  0  0  0  0  0
   18.0136   61.9747   22.9827 O   0  0  0  0  0  0  0  0  0  0  0  0
   18.5427   60.9923   23.7670 C   0  0  0  0  0  0  0  0  0  0  0  0
   19.1993   61.3062   24.9637 C   0  0  0  0  0  0  0  0  0  0  0  0
   19.7187   60.2912   25.7569 C   0  0  0  0  0  0  0  0  0  0  0  0
   19.5946   58.9623   25.3535 C   0  0  0  0  0  0  0  0  0  0  0  0
   18.9412   58.6627   24.1616 C   0  0  0  0  0  0  0  0  0  0  0  0
   18.4094   59.6737   23.3688 C   0  0  0  0  0  0  0  0  0  0  0  0
   20.1738   57.8826   26.2224 C   0  0  0  0  0  0  0  0  0  0  0  0
   20.0472   56.6087   25.9053 N   0  0  0  0  0  0  0  0  0  0  0  0
   20.8056   58.1908   27.2571 N   0  0  0  0  0  0  0  0  0  0  0  0
   19.5529   56.3501   25.0941 H   0  0  0  0  0  0  0  0  0  0  0  0
   20.9088   59.1374   27.5073 H   0  0  0  0  0  0  0  0  0  0  0  0
   21.1997   57.4867   27.8213 H   0  0  0  0  0  0  0  0  0  0  0  0
 29 27  2  0  0  0
 28 27  1  0  0  0
 27 24  1  0  0  0
 24 25  2  0  0  0
 24 23  1  0  0  0
 25 26  1  0  0  0
 23 22  2  0  0  0
 26 21  2  0  0  0
 22 21  1  0  0  0
 21 20  1  0  0  0
 33  6  1  0  0  0
 33 34  1  0  0  0
  5  6  2  0  0  0
  5  4  1  0  0  0
 20  4  1  0  0  0
 39 34  2  0  0  0
 39 38  1  0  0  0
  6  2  1  0  0  0
  4  3  2  0  0  0
 34 35  1  0  0  0
 38 37  2  0  0  0
  2  1  2  0  0  0
  3  1  1  0  0  0
 35 36  2  0  0  0
 37 36  1  0  0  0
 37 40  1  0  0  0
  1  8  1  0  0  0
 41 40  2  0  0  0
 40 42  1  0  0  0
  7  8  2  0  0  0
  8  9  1  0  0  0
  9 11  1  0  0  0
 11 12  1  0  0  0
 11 17  1  0  0  0
 12 13  1  0  0  0
 17 16  1  0  0  0
 13 14  1  0  0  0
 14 16  1  0  0  0
 14 15  1  0  0  0
  9 10  1  0  0  0
 15 18  1  0  0  0
 15 19  1  0  0  0
 28 30  1  0  0  0
 28 31  1  0  0  0
 29 32  1  0  0  0
 41 43  1  0  0  0
 42 44  1  0  0  0
 42 45  1  0  0  0
M  END
> <minimizedAffinity>
-10.20604

$$$$
4JZI_N4C_A_900


 45 48  0  0  0  0  0  0  0  0999 V2000
   16.0650   65.1988   23.2339 C   0  0  0  0  0  0  0  0  0  0  0  0
   16.8804   64.2413   22.6423 C   0  0  0  0  0  0  0  0  0  0  0  0
   15.6316   65.0143   24.5332 C   0  0  0  0  0  0  0  0  0  0  0  0
   16.0331   63.8858   25.2237 C   0  0  0  0  0  0  0  0  0  0  0  0
   16.8349   62.9594   24.6491 N   0  0  0  0  0  0  0  0  0  0  0  0
   17.2646   63.1139   23.3784 C   0  0  0  0  0  0  0  0  0  0  0  0
   15.7570   67.5168   23.0051 O   0  0  0  0  0  0  0  0  0  0  0  0
   15.6130   66.4153   22.4976 C   0  0  0  0  0  0  0  0  0  0  0  0
   15.0568   66.1901   21.3098 N   0  0  0  0  0  0  0  0  0  0  0  0
   15.0169   65.2514   21.0159 H   0  0  0  0  0  0  0  0  0  0  0  0
   14.5000   67.1797   20.3960 C   0  0  0  0  0  0  0  0  0  0  0  0
   13.1031   67.6759   20.7318 C   0  0  0  0  0  0  0  0  0  0  0  0
   12.6209   68.5988   19.6194 C   0  0  0  0  0  0  0  0  0  0  0  0
   12.3674   67.7445   18.3944 C   0  0  0  0  0  0  0  0  0  0  0  0
   11.7182   68.4916   17.3425 N   0  0  0  0  0  0  0  0  0  0  0  0
   13.7492   67.2906   17.9371 C   0  0  0  0  0  0  0  0  0  0  0  0
   14.4547   66.4879   19.0328 C   0  0  0  0  0  0  0  0  0  0  0  0
   12.2996   69.2885   17.0829 H   0  0  0  0  0  0  0  0  0  0  0  0
   10.8120   68.8246   17.6715 H   0  0  0  0  0  0  0  0  0  0  0  0
   15.5887   63.7125   26.5011 O   0  0  0  0  0  0  0  0  0  0  0  0
   14.2735   63.7609   26.8546 C   0  0  0  0  0  0  0  0  0  0  0  0
   13.6111   62.5685   27.0733 C   0  0  0  0  0  0  0  0  0  0  0  0
   12.2838   62.5985   27.4768 C   0  0  0  0  0  0  0  0  0  0  0  0
   11.6075   63.8081   27.6502 C   0  0  0  0  0  0  0  0  0  0  0  0
   12.2897   65.0048   27.4381 C   0  0  0  0  0  0  0  0  0  0  0  0
   13.6229   64.9783   27.0426 C   0  0  0  0  0  0  0  0  0  0  0  0
   10.1604   63.7854   28.0929 C   0  0  0  0  0  0  0  0  0  0  0  0
    9.8223   63.0817   29.0979 N   0  0  0  0  0  0  0  0  0  0  0  0
    9.2373   64.5051   27.4525 N   0  0  0  0  0  0  0  0  0  0  0  0
    8.8828   63.0622   29.3915 H   0  0  0  0  0  0  0  0  0  0  0  0
   10.5002   62.5568   29.5817 H   0  0  0  0  0  0  0  0  0  0  0  0
    8.2996   64.4809   27.7514 H   0  0  0  0  0  0  0  0  0  0  0  0
   18.0658   62.1412   22.8540 O   0  0  0  0  0  0  0  0  0  0  0  0
   18.5371   61.1365   23.6469 C   0  0  0  0  0  0  0  0  0  0  0  0
   18.3102   59.7949   23.3149 C   0  0  0  0  0  0  0  0  0  0  0  0
   18.8109   58.7851   24.1265 C   0  0  0  0  0  0  0  0  0  0  0  0
   19.5288   59.1105   25.2766 C   0  0  0  0  0  0  0  0  0  0  0  0
   19.7467   60.4473   25.5971 C   0  0  0  0  0  0  0  0  0  0  0  0
   19.2576   61.4626   24.7825 C   0  0  0  0  0  0  0  0  0  0  0  0
   20.0510   58.0014   26.1446 C   0  0  0  0  0  0  0  0  0  0  0  0
   20.8883   58.2445   27.1343 N   0  0  0  0  0  0  0  0  0  0  0  0
   19.6743   56.8258   25.9432 N   0  0  0  0  0  0  0  0  0  0  0  0
   21.1941   59.1645   27.3056 H   0  0  0  0  0  0  0  0  0  0  0  0
   19.0495   56.6281   25.2085 H   0  0  0  0  0  0  0  0  0  0  0  0
   20.0025   56.0981   26.5194 H   0  0  0  0  0  0  0  0  0  0  0  0
 29 27  2  0  0  0
 28 27  1  0  0  0
 27 24  1  0  0  0
 24 25  2  0  0  0
 24 23  1  0  0  0
 25 26  1  0  0  0
 23 22  2  0  0  0
 26 21  2  0  0  0
 22 21  1  0  0  0
 21 20  1  0  0  0
 33  6  1  0  0  0
 33 34  1  0  0  0
  5  6  2  0  0  0
  5  4  1  0  0  0
 20  4  1  0  0  0
 39 34  2  0  0  0
 39 38  1  0  0  0
  6  2  1  0  0  0
  4  3  2  0  0  0
 34 35  1  0  0  0
 38 37  2  0  0  0
  2  1  2  0  0  0
  3  1  1  0  0  0
 35 36  2  0  0  0
 37 36  1  0  0  0
 37 40  1  0  0  0
  1  8  1  0  0  0
 41 40  2  0  0  0
 40 42  1  0  0  0
  7  8  2  0  0  0
  8  9  1  0  0  0
  9 11  1  0  0  0
 11 12  1  0  0  0
 11 17  1  0  0  0
 12 13  1  0  0  0
 17 16  1  0  0  0
 13 14  1  0  0  0
 14 16  1  0  0  0
 14 15  1  0  0  0
  9 10  1  0  0  0
 15 18  1  0  0  0
 15 19  1  0  0  0
 28 30  1  0  0  0
 28 31  1  0  0  0
 29 32  1  0  0  0
 41 43  1  0  0  0
 42 44  1  0  0  0
 42 45  1  0  0  0
M  END
> <minimizedAffinity>
-10.18778

$$$$
