3RYJ_RYJ_B_1
  RCSB PDB12061710383D
Coordinates from PDB:3RYJ:B:1 Model:1 without hydrogens
 18 18  0  0  0  0            999 V2000
   15.2460    0.2580   16.9200   S 0  0  0  0  0  0  0  0  0  0  0  0
   18.6140    5.2240   13.7110   N 0  0  0  0  0  0  0  0  0  0  0  0
   16.5250    6.0240   13.6890   O 0  0  0  0  0  0  0  0  0  0  0  0
   16.8220    3.9130   14.7590   C 0  0  0  0  0  0  0  0  0  0  0  0
   17.1920    1.8280   15.8600   C 0  0  0  0  0  0  0  0  0  0  0  0
   17.6960    2.9480   15.1220   C 0  0  0  0  0  0  0  0  0  0  0  0
   15.7990    1.6260   16.0950   C 0  0  0  0  0  0  0  0  0  0  0  0
   15.4820    3.7720   15.0360   C 0  0  0  0  0  0  0  0  0  0  0  0
   14.9530    2.6690   15.6920   C 0  0  0  0  0  0  0  0  0  0  0  0
   17.3320    5.1050   14.0010   C 0  0  0  0  0  0  0  0  0  0  0  0
   20.6470    7.0170   14.6370   F 0  0  0  0  0  0  0  0  0  0  0  0
   18.7960    7.8360   14.7740   F 0  0  0  0  0  0  0  0  0  0  0  0
   20.0480    8.4640   13.1210   F 0  0  0  0  0  0  0  0  0  0  0  0
   19.1000    6.3550   12.9040   C 0  0  0  0  0  0  0  0  0  0  0  0
   15.7540    0.3430   18.2730   O 0  0  0  0  0  0  0  0  0  0  0  0
   19.6310    7.4340   13.8550   C 0  0  0  0  0  0  0  0  0  0  0  0
   15.8230   -1.0240   16.2060   O 0  0  0  0  0  0  0  0  0  0  0  0
   13.7800    0.3260   16.7620   N 0  0  0  0  0  0  0  0  0  0  0  0
  7  1  1  0  0  0  0
 17  1  2  0  0  0  0
 18  1  1  0  0  0  0
  1 15  2  0  0  0  0
 14  2  1  0  0  0  0
  2 10  1  0  0  0  0
  3 10  2  0  0  0  0
 10  4  1  0  0  0  0
  4  8  2  0  0  0  0
  4  6  1  0  0  0  0
  6  5  2  0  0  0  0
  5  7  1  0  0  0  0
  9  7  2  0  0  0  0
  8  9  1  0  0  0  0
 16 11  1  0  0  0  0
 16 12  1  0  0  0  0
 13 16  1  0  0  0  0
 14 16  1  0  0  0  0
A    1
S
A    2
N'
A    3
O'
A    4
C1
A    5
C2
A    6
C3
A    7
C4
A    8
C5
A    9
C6
A   10
C7
A   11
F2'1
A   12
F2'2
A   13
F2'3
A   14
C1'
A   15
O1S
A   16
C2'
A   17
O2S
A   18
N3S
M  END
>  <InstanceId>
3RYJ_RYJ_B_1

>  <ChemCompId>
RYJ

>  <PdbId>
3RYJ

>  <ChainId>
B

>  <ResidueNumber>
1

>  <InsertionCode>


>  <Model>
1

>  <AltIds>


>  <MissingHeavyAtoms>
0

>  <ObservedFormula>
C9 N2 O3 S F3

>  <Name>
4-sulfamoyl-N-(2,2,2-trifluoroethyl)benzamide

>  <SystematicName>
4-sulfamoyl-N-[2,2,2-tris(fluoranyl)ethyl]benzamide

>  <Synonyms>


>  <Type>
NON-POLYMER

>  <Formula>
C9 H9 F3 N2 O3 S

>  <MolecularWeight>
282.24

>  <ModifiedDate>
2011-08-05

>  <Parent>


>  <OneLetterCode>


>  <SubcomponentList>


>  <AmbiguousFlag>
N

>  <InChI>
InChI=1S/C9H9F3N2O3S/c10-9(11,12)5-14-8(15)6-1-3-7(4-2-6)18(13,16)17/h1-4H,5H2,(H,14,15)(H2,13,16,17)

>  <InChIKey>
QTBXXSHAPCGITL-UHFFFAOYSA-N

>  <SMILES>
c1cc(ccc1C(=O)NCC(F)(F)F)S(=O)(=O)N

$$$$
