3RYJ_RYJ_B_1


 21 21  0  0  0  0  0  0  0  0999 V2000
   16.6627    4.2153   14.8147 C   0  0  0  0  0  0  0  0  0  0  0  0
   14.8955    2.9591   15.8122 C   0  0  0  0  0  0  0  0  0  0  0  0
   15.3602    4.1528   15.1701 C   0  0  0  0  0  0  0  0  0  0  0  0
   15.7753    1.9103   16.2151 C   0  0  0  0  0  0  0  0  0  0  0  0
   17.5164    3.1845   15.1322 C   0  0  0  0  0  0  0  0  0  0  0  0
   17.1113    2.0433   15.8107 C   0  0  0  0  0  0  0  0  0  0  0  0
   15.1890    0.5463   17.0235 S   0  0  0  0  0  0  0  0  0  0  0  0
   13.7460    0.5726   16.9108 O   0  0  0  0  0  0  0  0  0  0  0  0
   15.6143    0.6417   18.5389 O   0  0  0  0  0  0  0  0  0  0  0  0
   15.8807   -0.5756   16.3588 N   0  0  0  0  0  0  0  0  0  0  0  0
   16.8865   -0.4895   16.5050 H   0  0  0  0  0  0  0  0  0  0  0  0
   15.6794   -0.5546   15.3591 H   0  0  0  0  0  0  0  0  0  0  0  0
   18.0969    6.2036   14.6794 N   0  0  0  0  0  0  0  0  0  0  0  0
   16.6507    5.7904   13.0235 O   0  0  0  0  0  0  0  0  0  0  0  0
   17.1670    5.4497   14.1237 C   0  0  0  0  0  0  0  0  0  0  0  0
   18.4289    5.9831   15.5796 H   0  0  0  0  0  0  0  0  0  0  0  0
   18.6427    7.3706   13.9675 C   0  0  0  0  0  0  0  0  0  0  0  0
   20.6832    8.2287   14.9343 F   0  0  0  0  0  0  0  0  0  0  0  0
   19.1556    7.9595   16.2419 F   0  0  0  0  0  0  0  0  0  0  0  0
   18.9435    9.5309   14.7654 F   0  0  0  0  0  0  0  0  0  0  0  0
   19.3370    8.2785   14.9894 C   0  0  0  0  0  0  0  0  0  0  0  0
  4  7  1  0  0  0
  9  7  2  0  0  0
 10  7  1  0  0  0
  7  8  2  0  0  0
 17 13  1  0  0  0
 13 15  1  0  0  0
 14 15  2  0  0  0
 15  1  1  0  0  0
  1  5  2  0  0  0
  1  3  1  0  0  0
  3  2  2  0  0  0
  2  4  1  0  0  0
  6  4  2  0  0  0
  5  6  1  0  0  0
 21 18  1  0  0  0
 21 19  1  0  0  0
 20 21  1  0  0  0
 17 21  1  0  0  0
 13 16  1  0  0  0
 10 11  1  0  0  0
 10 12  1  0  0  0
M  END
> <minimizedAffinity>
-7.38870

$$$$
3RYJ_RYJ_B_1


 21 21  0  0  0  0  0  0  0  0999 V2000
   16.2083    4.1504   14.6269 C   0  0  0  0  0  0  0  0  0  0  0  0
   16.8452    2.0959   15.6611 C   0  0  0  0  0  0  0  0  0  0  0  0
   17.1454    3.1893   14.7851 C   0  0  0  0  0  0  0  0  0  0  0  0
   15.5577    1.9125   16.2488 C   0  0  0  0  0  0  0  0  0  0  0  0
   14.9828    4.0289   15.2398 C   0  0  0  0  0  0  0  0  0  0  0  0
   14.6376    2.9502   16.0424 C   0  0  0  0  0  0  0  0  0  0  0  0
   15.2321    0.5742   17.2289 S   0  0  0  0  0  0  0  0  0  0  0  0
   13.8085    0.3240   17.1479 O   0  0  0  0  0  0  0  0  0  0  0  0
   15.6344    0.9302   18.7114 O   0  0  0  0  0  0  0  0  0  0  0  0
   16.1168   -0.4762   16.6878 N   0  0  0  0  0  0  0  0  0  0  0  0
   17.0900   -0.1915   16.7989 H   0  0  0  0  0  0  0  0  0  0  0  0
   15.9140   -0.6148   15.6979 H   0  0  0  0  0  0  0  0  0  0  0  0
   15.8478    5.4864   12.5987 N   0  0  0  0  0  0  0  0  0  0  0  0
   17.4444    6.1038   14.0389 O   0  0  0  0  0  0  0  0  0  0  0  0
   16.5093    5.3151   13.7278 C   0  0  0  0  0  0  0  0  0  0  0  0
   15.1837    4.8164   12.3169 H   0  0  0  0  0  0  0  0  0  0  0  0
   16.0924    6.6685   11.7564 C   0  0  0  0  0  0  0  0  0  0  0  0
   14.4325    6.7022   10.0019 F   0  0  0  0  0  0  0  0  0  0  0  0
   14.6722    8.4541   10.9966 F   0  0  0  0  0  0  0  0  0  0  0  0
   13.7969    6.7975   12.0847 F   0  0  0  0  0  0  0  0  0  0  0  0
   14.7444    7.1714   11.2268 C   0  0  0  0  0  0  0  0  0  0  0  0
  4  7  1  0  0  0
  9  7  2  0  0  0
 10  7  1  0  0  0
  7  8  2  0  0  0
 17 13  1  0  0  0
 13 15  1  0  0  0
 14 15  2  0  0  0
 15  1  1  0  0  0
  1  5  2  0  0  0
  1  3  1  0  0  0
  3  2  2  0  0  0
  2  4  1  0  0  0
  6  4  2  0  0  0
  5  6  1  0  0  0
 21 18  1  0  0  0
 21 19  1  0  0  0
 20 21  1  0  0  0
 17 21  1  0  0  0
 13 16  1  0  0  0
 10 11  1  0  0  0
 10 12  1  0  0  0
M  END
> <minimizedAffinity>
-7.27274

$$$$
3RYJ_RYJ_B_1


 21 21  0  0  0  0  0  0  0  0999 V2000
   16.1455    4.2190   14.6230 C   0  0  0  0  0  0  0  0  0  0  0  0
   14.6349    3.1032   16.0958 C   0  0  0  0  0  0  0  0  0  0  0  0
   14.9545    4.2237   15.2620 C   0  0  0  0  0  0  0  0  0  0  0  0
   15.5738    2.0687   16.3868 C   0  0  0  0  0  0  0  0  0  0  0  0
   17.0400    3.1958   14.8353 C   0  0  0  0  0  0  0  0  0  0  0  0
   16.7871    2.1290   15.6866 C   0  0  0  0  0  0  0  0  0  0  0  0
   15.1715    0.7962   17.4245 S   0  0  0  0  0  0  0  0  0  0  0  0
   13.8160    0.3999   17.1058 O   0  0  0  0  0  0  0  0  0  0  0  0
   15.2461    1.3195   18.9101 O   0  0  0  0  0  0  0  0  0  0  0  0
   16.2264   -0.2049   17.1720 N   0  0  0  0  0  0  0  0  0  0  0  0
   17.1330    0.1835   17.4322 H   0  0  0  0  0  0  0  0  0  0  0  0
   16.2329   -0.4495   16.1817 H   0  0  0  0  0  0  0  0  0  0  0  0
   15.8712    5.5505   12.5785 N   0  0  0  0  0  0  0  0  0  0  0  0
   17.4295    6.1507   14.0670 O   0  0  0  0  0  0  0  0  0  0  0  0
   16.4931    5.3748   13.7292 C   0  0  0  0  0  0  0  0  0  0  0  0
   15.2065    4.8893   12.2781 H   0  0  0  0  0  0  0  0  0  0  0  0
   16.1609    6.7247   11.7395 C   0  0  0  0  0  0  0  0  0  0  0  0
   13.7803    7.0918   11.9205 F   0  0  0  0  0  0  0  0  0  0  0  0
   14.4249    6.4976   10.0910 F   0  0  0  0  0  0  0  0  0  0  0  0
   14.9962    8.4782   10.7583 F   0  0  0  0  0  0  0  0  0  0  0  0
   14.8487    7.2009   11.1054 C   0  0  0  0  0  0  0  0  0  0  0  0
  4  7  1  0  0  0
  9  7  2  0  0  0
 10  7  1  0  0  0
  7  8  2  0  0  0
 17 13  1  0  0  0
 13 15  1  0  0  0
 14 15  2  0  0  0
 15  1  1  0  0  0
  1  5  2  0  0  0
  1  3  1  0  0  0
  3  2  2  0  0  0
  2  4  1  0  0  0
  6  4  2  0  0  0
  5  6  1  0  0  0
 21 18  1  0  0  0
 21 19  1  0  0  0
 20 21  1  0  0  0
 17 21  1  0  0  0
 13 16  1  0  0  0
 10 11  1  0  0  0
 10 12  1  0  0  0
M  END
> <minimizedAffinity>
-7.08179

$$$$
3RYJ_RYJ_B_1


 21 21  0  0  0  0  0  0  0  0999 V2000
   17.2448    3.9568   14.7861 C   0  0  0  0  0  0  0  0  0  0  0  0
   17.5410    6.3243   14.8437 C   0  0  0  0  0  0  0  0  0  0  0  0
   16.6997    5.1750   14.9997 C   0  0  0  0  0  0  0  0  0  0  0  0
   18.8724    6.2395   14.3371 C   0  0  0  0  0  0  0  0  0  0  0  0
   18.5491    3.8474   14.3630 C   0  0  0  0  0  0  0  0  0  0  0  0
   19.3707    4.9438   14.1402 C   0  0  0  0  0  0  0  0  0  0  0  0
   19.8077    7.6299   14.1139 S   0  0  0  0  0  0  0  0  0  0  0  0
   19.0227    8.5469   13.3147 O   0  0  0  0  0  0  0  0  0  0  0  0
   21.1226    7.2295   13.3412 O   0  0  0  0  0  0  0  0  0  0  0  0
   20.1237    8.0607   15.4899 N   0  0  0  0  0  0  0  0  0  0  0  0
   20.6766    7.3396   15.9534 H   0  0  0  0  0  0  0  0  0  0  0  0
   19.2572    8.2096   16.0069 H   0  0  0  0  0  0  0  0  0  0  0  0
   16.5030    1.9770   16.0346 N   0  0  0  0  0  0  0  0  0  0  0  0
   15.5833    2.4151   14.0429 O   0  0  0  0  0  0  0  0  0  0  0  0
   16.3859    2.7374   14.9622 C   0  0  0  0  0  0  0  0  0  0  0  0
   17.1953    2.1821   16.7038 H   0  0  0  0  0  0  0  0  0  0  0  0
   15.6095    0.8255   16.2404 C   0  0  0  0  0  0  0  0  0  0  0  0
   13.9630    2.4363   16.9680 F   0  0  0  0  0  0  0  0  0  0  0  0
   14.9131    1.4404   18.4584 F   0  0  0  0  0  0  0  0  0  0  0  0
   13.5600    0.3071   17.2019 F   0  0  0  0  0  0  0  0  0  0  0  0
   14.5147    1.2350   17.2327 C   0  0  0  0  0  0  0  0  0  0  0  0
  4  7  1  0  0  0
  9  7  2  0  0  0
 10  7  1  0  0  0
  7  8  2  0  0  0
 17 13  1  0  0  0
 13 15  1  0  0  0
 14 15  2  0  0  0
 15  1  1  0  0  0
  1  5  2  0  0  0
  1  3  1  0  0  0
  3  2  2  0  0  0
  2  4  1  0  0  0
  6  4  2  0  0  0
  5  6  1  0  0  0
 21 18  1  0  0  0
 21 19  1  0  0  0
 20 21  1  0  0  0
 17 21  1  0  0  0
 13 16  1  0  0  0
 10 11  1  0  0  0
 10 12  1  0  0  0
M  END
> <minimizedAffinity>
-6.79593

$$$$
3RYJ_RYJ_B_1


 21 21  0  0  0  0  0  0  0  0999 V2000
   17.7662    3.5657   15.0664 C   0  0  0  0  0  0  0  0  0  0  0  0
   19.5448    4.8402   14.1135 C   0  0  0  0  0  0  0  0  0  0  0  0
   19.0681    3.6271   14.7085 C   0  0  0  0  0  0  0  0  0  0  0  0
   18.7438    6.0176   14.0205 C   0  0  0  0  0  0  0  0  0  0  0  0
   16.9566    4.6684   14.9221 C   0  0  0  0  0  0  0  0  0  0  0  0
   17.4039    5.8782   14.4092 C   0  0  0  0  0  0  0  0  0  0  0  0
   19.3688    7.4446   13.3640 S   0  0  0  0  0  0  0  0  0  0  0  0
   20.7304    7.1657   12.9588 O   0  0  0  0  0  0  0  0  0  0  0  0
   19.3549    8.5572   14.4812 O   0  0  0  0  0  0  0  0  0  0  0  0
   18.4166    7.7775   12.2865 N   0  0  0  0  0  0  0  0  0  0  0  0
   17.4958    7.9531   12.6887 H   0  0  0  0  0  0  0  0  0  0  0  0
   18.3583    6.9978   11.6313 H   0  0  0  0  0  0  0  0  0  0  0  0
   15.9559    2.0010   15.6171 N   0  0  0  0  0  0  0  0  0  0  0  0
   18.0376    1.5380   16.2930 O   0  0  0  0  0  0  0  0  0  0  0  0
   17.2408    2.2971   15.6748 C   0  0  0  0  0  0  0  0  0  0  0  0
   15.3261    2.6418   15.2148 H   0  0  0  0  0  0  0  0  0  0  0  0
   15.4548    0.7229   16.1479 C   0  0  0  0  0  0  0  0  0  0  0  0
   14.8409    1.0141   18.4659 F   0  0  0  0  0  0  0  0  0  0  0  0
   13.4286    0.1372   17.3030 F   0  0  0  0  0  0  0  0  0  0  0  0
   13.8702    2.2265   16.9366 F   0  0  0  0  0  0  0  0  0  0  0  0
   14.3801    1.0245   17.1989 C   0  0  0  0  0  0  0  0  0  0  0  0
  4  7  1  0  0  0
  9  7  2  0  0  0
 10  7  1  0  0  0
  7  8  2  0  0  0
 17 13  1  0  0  0
 13 15  1  0  0  0
 14 15  2  0  0  0
 15  1  1  0  0  0
  1  5  2  0  0  0
  1  3  1  0  0  0
  3  2  2  0  0  0
  2  4  1  0  0  0
  6  4  2  0  0  0
  5  6  1  0  0  0
 21 18  1  0  0  0
 21 19  1  0  0  0
 20 21  1  0  0  0
 17 21  1  0  0  0
 13 16  1  0  0  0
 10 11  1  0  0  0
 10 12  1  0  0  0
M  END
> <minimizedAffinity>
-6.69274

$$$$
3RYJ_RYJ_B_1


 21 21  0  0  0  0  0  0  0  0999 V2000
   16.3022    4.0253   14.6391 C   0  0  0  0  0  0  0  0  0  0  0  0
   14.6547    3.0974   16.0954 C   0  0  0  0  0  0  0  0  0  0  0  0
   15.0712    4.1252   15.1882 C   0  0  0  0  0  0  0  0  0  0  0  0
   15.5332    2.0669   16.5457 C   0  0  0  0  0  0  0  0  0  0  0  0
   17.1422    3.0000   15.0070 C   0  0  0  0  0  0  0  0  0  0  0  0
   16.7930    2.0253   15.9315 C   0  0  0  0  0  0  0  0  0  0  0  0
   15.0147    0.9093   17.6633 S   0  0  0  0  0  0  0  0  0  0  0  0
   14.9957    1.5499   18.9614 O   0  0  0  0  0  0  0  0  0  0  0  0
   16.0470   -0.2826   17.6643 O   0  0  0  0  0  0  0  0  0  0  0  0
   13.7117    0.4686   17.1278 N   0  0  0  0  0  0  0  0  0  0  0  0
   13.8485    0.0347   16.2149 H   0  0  0  0  0  0  0  0  0  0  0  0
   13.0934    1.2742   17.0322 H   0  0  0  0  0  0  0  0  0  0  0  0
   17.7599    5.8820   13.9637 N   0  0  0  0  0  0  0  0  0  0  0  0
   16.1176    5.2328   12.5904 O   0  0  0  0  0  0  0  0  0  0  0  0
   16.7520    5.0818   13.6711 C   0  0  0  0  0  0  0  0  0  0  0  0
   18.1906    5.8198   14.8468 H   0  0  0  0  0  0  0  0  0  0  0  0
   18.2467    6.8665   12.9837 C   0  0  0  0  0  0  0  0  0  0  0  0
   20.5358    7.5649   12.6563 F   0  0  0  0  0  0  0  0  0  0  0  0
   19.8867    6.1162   11.3931 F   0  0  0  0  0  0  0  0  0  0  0  0
   20.1222    5.5904   13.4817 F   0  0  0  0  0  0  0  0  0  0  0  0
   19.6938    6.5125   12.6215 C   0  0  0  0  0  0  0  0  0  0  0  0
  4  7  1  0  0  0
  9  7  2  0  0  0
 10  7  1  0  0  0
  7  8  2  0  0  0
 17 13  1  0  0  0
 13 15  1  0  0  0
 14 15  2  0  0  0
 15  1  1  0  0  0
  1  5  2  0  0  0
  1  3  1  0  0  0
  3  2  2  0  0  0
  2  4  1  0  0  0
  6  4  2  0  0  0
  5  6  1  0  0  0
 21 18  1  0  0  0
 21 19  1  0  0  0
 20 21  1  0  0  0
 17 21  1  0  0  0
 13 16  1  0  0  0
 10 11  1  0  0  0
 10 12  1  0  0  0
M  END
> <minimizedAffinity>
-6.53485

$$$$
3RYJ_RYJ_B_1


 21 21  0  0  0  0  0  0  0  0999 V2000
   16.8039    3.5677   13.8807 C   0  0  0  0  0  0  0  0  0  0  0  0
   16.1306    5.5726   12.7748 C   0  0  0  0  0  0  0  0  0  0  0  0
   16.2534    4.7985   13.9742 C   0  0  0  0  0  0  0  0  0  0  0  0
   16.4291    5.0428   11.4838 C   0  0  0  0  0  0  0  0  0  0  0  0
   17.1633    3.0625   12.6528 C   0  0  0  0  0  0  0  0  0  0  0  0
   16.9976    3.7612   11.4649 C   0  0  0  0  0  0  0  0  0  0  0  0
   16.2122    5.9748   10.0902 S   0  0  0  0  0  0  0  0  0  0  0  0
   17.2856    5.6352    9.1800 O   0  0  0  0  0  0  0  0  0  0  0  0
   16.3030    7.4979   10.4879 O   0  0  0  0  0  0  0  0  0  0  0  0
   14.8449    5.6321    9.6523 N   0  0  0  0  0  0  0  0  0  0  0  0
   14.1771    5.9165   10.3689 H   0  0  0  0  0  0  0  0  0  0  0  0
   14.7774    4.6251    9.5050 H   0  0  0  0  0  0  0  0  0  0  0  0
   15.9095    2.2041   15.7162 N   0  0  0  0  0  0  0  0  0  0  0  0
   18.1055    2.6242   15.6428 O   0  0  0  0  0  0  0  0  0  0  0  0
   16.9594    2.7464   15.1285 C   0  0  0  0  0  0  0  0  0  0  0  0
   15.0079    2.3804   15.3621 H   0  0  0  0  0  0  0  0  0  0  0  0
   16.0722    1.3385   16.8956 C   0  0  0  0  0  0  0  0  0  0  0  0
   15.2212    1.5527   19.1461 F   0  0  0  0  0  0  0  0  0  0  0  0
   13.9610    0.6634   17.8282 F   0  0  0  0  0  0  0  0  0  0  0  0
   14.3691    2.7736   17.5541 F   0  0  0  0  0  0  0  0  0  0  0  0
   14.8889    1.5812   17.8398 C   0  0  0  0  0  0  0  0  0  0  0  0
  4  7  1  0  0  0
  9  7  2  0  0  0
 10  7  1  0  0  0
  7  8  2  0  0  0
 17 13  1  0  0  0
 13 15  1  0  0  0
 14 15  2  0  0  0
 15  1  1  0  0  0
  1  5  2  0  0  0
  1  3  1  0  0  0
  3  2  2  0  0  0
  2  4  1  0  0  0
  6  4  2  0  0  0
  5  6  1  0  0  0
 21 18  1  0  0  0
 21 19  1  0  0  0
 20 21  1  0  0  0
 17 21  1  0  0  0
 13 16  1  0  0  0
 10 11  1  0  0  0
 10 12  1  0  0  0
M  END
> <minimizedAffinity>
-6.49962

$$$$
3RYJ_RYJ_B_1


 21 21  0  0  0  0  0  0  0  0999 V2000
   16.4636    3.1184   13.9127 C   0  0  0  0  0  0  0  0  0  0  0  0
   15.1051    2.9690   15.8694 C   0  0  0  0  0  0  0  0  0  0  0  0
   15.6541    3.7437   14.7963 C   0  0  0  0  0  0  0  0  0  0  0  0
   15.4921    1.6183   16.1190 C   0  0  0  0  0  0  0  0  0  0  0  0
   16.7959    1.7961   14.0952 C   0  0  0  0  0  0  0  0  0  0  0  0
   16.3328    1.0356   15.1600 C   0  0  0  0  0  0  0  0  0  0  0  0
   14.8619    0.7622   17.4335 S   0  0  0  0  0  0  0  0  0  0  0  0
   13.4936    0.4233   17.1037 O   0  0  0  0  0  0  0  0  0  0  0  0
   14.8959    1.6977   18.7023 O   0  0  0  0  0  0  0  0  0  0  0  0
   15.7991   -0.3668   17.5943 N   0  0  0  0  0  0  0  0  0  0  0  0
   16.7263   -0.0090   17.8238 H   0  0  0  0  0  0  0  0  0  0  0  0
   15.8451   -0.8970   16.7242 H   0  0  0  0  0  0  0  0  0  0  0  0
   18.2426    4.4337   12.8481 N   0  0  0  0  0  0  0  0  0  0  0  0
   16.3229    4.1077   11.7468 O   0  0  0  0  0  0  0  0  0  0  0  0
   17.0351    3.9070   12.7694 C   0  0  0  0  0  0  0  0  0  0  0  0
   18.7561    4.3519   13.6841 H   0  0  0  0  0  0  0  0  0  0  0  0
   18.8297    5.1421   11.6992 C   0  0  0  0  0  0  0  0  0  0  0  0
   20.1591    3.1253   11.6959 F   0  0  0  0  0  0  0  0  0  0  0  0
   20.9035    4.6511   10.5853 F   0  0  0  0  0  0  0  0  0  0  0  0
   19.0816    3.7053    9.8921 F   0  0  0  0  0  0  0  0  0  0  0  0
   19.7464    4.1690   10.9488 C   0  0  0  0  0  0  0  0  0  0  0  0
  4  7  1  0  0  0
  9  7  2  0  0  0
 10  7  1  0  0  0
  7  8  2  0  0  0
 17 13  1  0  0  0
 13 15  1  0  0  0
 14 15  2  0  0  0
 15  1  1  0  0  0
  1  5  2  0  0  0
  1  3  1  0  0  0
  3  2  2  0  0  0
  2  4  1  0  0  0
  6  4  2  0  0  0
  5  6  1  0  0  0
 21 18  1  0  0  0
 21 19  1  0  0  0
 20 21  1  0  0  0
 17 21  1  0  0  0
 13 16  1  0  0  0
 10 11  1  0  0  0
 10 12  1  0  0  0
M  END
> <minimizedAffinity>
-6.38915

$$$$
3RYJ_RYJ_B_1


 21 21  0  0  0  0  0  0  0  0999 V2000
   16.7854    3.6764   14.5770 C   0  0  0  0  0  0  0  0  0  0  0  0
   16.9553    1.8243   16.0727 C   0  0  0  0  0  0  0  0  0  0  0  0
   17.5600    2.7152   15.1273 C   0  0  0  0  0  0  0  0  0  0  0  0
   15.5535    1.8227   16.3399 C   0  0  0  0  0  0  0  0  0  0  0  0
   15.4435    3.7369   14.8733 C   0  0  0  0  0  0  0  0  0  0  0  0
   14.8141    2.8490   15.7349 C   0  0  0  0  0  0  0  0  0  0  0  0
   14.8757    0.7127   17.4198 S   0  0  0  0  0  0  0  0  0  0  0  0
   13.4870    0.5483   17.0451 O   0  0  0  0  0  0  0  0  0  0  0  0
   14.9752    1.3075   18.8767 O   0  0  0  0  0  0  0  0  0  0  0  0
   15.7393   -0.4766   17.2834 N   0  0  0  0  0  0  0  0  0  0  0  0
   16.6885   -0.2426   17.5743 H   0  0  0  0  0  0  0  0  0  0  0  0
   15.7473   -0.7810   16.3099 H   0  0  0  0  0  0  0  0  0  0  0  0
   18.5815    4.3817   13.0588 N   0  0  0  0  0  0  0  0  0  0  0  0
   16.8046    5.7124   13.3345 O   0  0  0  0  0  0  0  0  0  0  0  0
   17.4032    4.6329   13.5977 C   0  0  0  0  0  0  0  0  0  0  0  0
   19.0849    3.5833   13.3388 H   0  0  0  0  0  0  0  0  0  0  0  0
   19.1510    5.2827   12.0437 C   0  0  0  0  0  0  0  0  0  0  0  0
   19.1596    5.2589    9.6283 F   0  0  0  0  0  0  0  0  0  0  0  0
   18.3837    3.6018   10.5046 F   0  0  0  0  0  0  0  0  0  0  0  0
   20.5121    3.9444   10.7209 F   0  0  0  0  0  0  0  0  0  0  0  0
   19.3021    4.5004   10.7338 C   0  0  0  0  0  0  0  0  0  0  0  0
  4  7  1  0  0  0
  9  7  2  0  0  0
 10  7  1  0  0  0
  7  8  2  0  0  0
 17 13  1  0  0  0
 13 15  1  0  0  0
 14 15  2  0  0  0
 15  1  1  0  0  0
  1  5  2  0  0  0
  1  3  1  0  0  0
  3  2  2  0  0  0
  2  4  1  0  0  0
  6  4  2  0  0  0
  5  6  1  0  0  0
 21 18  1  0  0  0
 21 19  1  0  0  0
 20 21  1  0  0  0
 17 21  1  0  0  0
 13 16  1  0  0  0
 10 11  1  0  0  0
 10 12  1  0  0  0
M  END
> <minimizedAffinity>
-6.31299

$$$$
3RYJ_RYJ_B_1


 21 21  0  0  0  0  0  0  0  0999 V2000
   16.8867    4.2503   14.2755 C   0  0  0  0  0  0  0  0  0  0  0  0
   18.8529    3.9282   12.9615 C   0  0  0  0  0  0  0  0  0  0  0  0
   17.6858    3.3952   13.5993 C   0  0  0  0  0  0  0  0  0  0  0  0
   19.2736    5.2808   13.1341 C   0  0  0  0  0  0  0  0  0  0  0  0
   17.2374    5.5748   14.3971 C   0  0  0  0  0  0  0  0  0  0  0  0
   18.3941    6.1089   13.8460 C   0  0  0  0  0  0  0  0  0  0  0  0
   20.6910    5.8497   12.4094 S   0  0  0  0  0  0  0  0  0  0  0  0
   21.1324    6.9939   13.1786 O   0  0  0  0  0  0  0  0  0  0  0  0
   20.3562    6.2884   10.9323 O   0  0  0  0  0  0  0  0  0  0  0  0
   21.5801    4.6715   12.4132 N   0  0  0  0  0  0  0  0  0  0  0  0
   21.1688    3.9333   11.8420 H   0  0  0  0  0  0  0  0  0  0  0  0
   21.6965    4.3364   13.3696 H   0  0  0  0  0  0  0  0  0  0  0  0
   15.7307    2.9319   15.9942 N   0  0  0  0  0  0  0  0  0  0  0  0
   14.5217    3.9834   14.4331 O   0  0  0  0  0  0  0  0  0  0  0  0
   15.6481    3.7163   14.9360 C   0  0  0  0  0  0  0  0  0  0  0  0
   16.6147    2.6524   16.3255 H   0  0  0  0  0  0  0  0  0  0  0  0
   14.5152    2.4706   16.6843 C   0  0  0  0  0  0  0  0  0  0  0  0
   14.0739    0.3438   17.7410 F   0  0  0  0  0  0  0  0  0  0  0  0
   14.8709    1.7611   18.9542 F   0  0  0  0  0  0  0  0  0  0  0  0
   16.1341    0.9608   17.3864 F   0  0  0  0  0  0  0  0  0  0  0  0
   14.9158    1.3962   17.7019 C   0  0  0  0  0  0  0  0  0  0  0  0
  4  7  1  0  0  0
  9  7  2  0  0  0
 10  7  1  0  0  0
  7  8  2  0  0  0
 17 13  1  0  0  0
 13 15  1  0  0  0
 14 15  2  0  0  0
 15  1  1  0  0  0
  1  5  2  0  0  0
  1  3  1  0  0  0
  3  2  2  0  0  0
  2  4  1  0  0  0
  6  4  2  0  0  0
  5  6  1  0  0  0
 21 18  1  0  0  0
 21 19  1  0  0  0
 20 21  1  0  0  0
 17 21  1  0  0  0
 13 16  1  0  0  0
 10 11  1  0  0  0
 10 12  1  0  0  0
M  END
> <minimizedAffinity>
-6.12001

$$$$
