6FNF_DXH_A_1001
  RCSB PDB08181802393D
Coordinates from PDB:6FNF:A:1001 Model:1 without hydrogens
 37 41  0  0  0  0            999 V2000
  -82.1420  -22.3590   84.3670   C 0  0  0  0  0  0  0  0  0  0  0  0
  -82.7210  -21.3060   85.2780   C 0  0  0  0  0  0  0  0  0  0  0  0
  -82.5680  -19.9490   84.9740   C 0  0  0  0  0  0  0  0  0  0  0  0
  -83.1060  -19.0080   85.7810   C 0  0  0  0  0  0  0  0  0  0  0  0
  -83.7980  -19.3810   86.8780   C 0  0  0  0  0  0  0  0  0  0  0  0
  -83.9770  -20.7020   87.1810   C 0  0  0  0  0  0  0  0  0  0  0  0
  -83.4300  -21.6840   86.3620   C 0  0  0  0  0  0  0  0  0  0  0  0
  -84.3850  -18.2420   87.7140   C 0  0  0  0  0  0  0  0  0  0  0  0
  -84.0200  -17.1790   87.6010   O 0  0  0  0  0  0  0  0  0  0  0  0
  -85.4790  -18.6050   88.6200   N 0  0  0  0  0  0  0  0  0  0  0  0
  -86.1210  -17.6240   89.3920   C 0  0  0  0  0  0  0  0  0  0  0  0
  -86.4430  -17.9300   90.6840   C 0  0  0  0  0  0  0  0  0  0  0  0
  -87.1150  -17.0090   91.4490   C 0  0  0  0  0  0  0  0  0  0  0  0
  -87.4360  -15.8000   90.9410   C 0  0  0  0  0  0  0  0  0  0  0  0
  -87.1250  -15.4990   89.6540   C 0  0  0  0  0  0  0  0  0  0  0  0
  -86.4390  -16.4500   88.8560   C 0  0  0  0  0  0  0  0  0  0  0  0
  -87.5010  -14.1340   89.1260   C 0  0  0  0  0  0  0  0  0  0  0  0
  -86.5360  -13.3530   89.5360   F 0  0  0  0  0  0  0  0  0  0  0  0
  -88.6230  -13.6350   89.6300   F 0  0  0  0  0  0  0  0  0  0  0  0
  -87.6380  -14.1120   87.8300   F 0  0  0  0  0  0  0  0  0  0  0  0
  -81.8660  -19.4370   83.8050   N 0  0  0  0  0  0  0  0  0  0  0  0
  -80.4120  -19.2270   83.7780   C 0  0  0  0  0  0  0  0  0  0  0  0
  -79.7230  -19.5010   84.8200   N 0  0  0  0  0  0  0  0  0  0  0  0
  -78.4390  -19.3230   84.8400   C 0  0  0  0  0  0  0  0  0  0  0  0
  -77.7530  -18.8730   83.8320   N 0  0  0  0  0  0  0  0  0  0  0  0
  -78.3680  -18.5510   82.7090   C 0  0  0  0  0  0  0  0  0  0  0  0
  -79.7140  -18.7100   82.6350   C 0  0  0  0  0  0  0  0  0  0  0  0
  -80.0600  -18.2800   81.3660   C 0  0  0  0  0  0  0  0  0  0  0  0
  -78.9590  -17.9040   80.7570   N 0  0  0  0  0  0  0  0  0  0  0  0
  -77.9580  -18.0540   81.5550   N 0  0  0  0  0  0  0  0  0  0  0  0
  -76.6210  -17.7470   81.2140   C 0  0  0  0  0  0  0  0  0  0  0  0
  -77.7000  -19.6990   86.1000   C 0  0  0  0  0  0  0  0  0  0  0  0
  -78.4080  -20.2140   87.1530   C 0  0  0  0  0  0  0  0  0  0  0  0
  -77.7960  -20.5470   88.2200   N 0  0  0  0  0  0  0  0  0  0  0  0
  -76.5160  -20.4070   88.3390   C 0  0  0  0  0  0  0  0  0  0  0  0
  -75.7400  -19.8890   87.3230   C 0  0  0  0  0  0  0  0  0  0  0  0
  -76.3490  -19.5200   86.1730   C 0  0  0  0  0  0  0  0  0  0  0  0
 29 28  2  0  0  0  0
 29 30  1  0  0  0  0
 31 30  1  0  0  0  0
 28 27  1  0  0  0  0
 30 26  1  0  0  0  0
 27 26  2  0  0  0  0
 27 22  1  0  0  0  0
 26 25  1  0  0  0  0
 22 21  1  0  0  0  0
 22 23  2  0  0  0  0
 21  3  1  0  0  0  0
 25 24  2  0  0  0  0
  1  2  1  0  0  0  0
 23 24  1  0  0  0  0
 24 32  1  0  0  0  0
  3  2  2  0  0  0  0
  3  4  1  0  0  0  0
  2  7  1  0  0  0  0
  4  5  2  0  0  0  0
 32 37  2  0  0  0  0
 32 33  1  0  0  0  0
 37 36  1  0  0  0  0
  7  6  2  0  0  0  0
  5  6  1  0  0  0  0
  5  8  1  0  0  0  0
 33 34  2  0  0  0  0
 36 35  2  0  0  0  0
  9  8  2  0  0  0  0
  8 10  1  0  0  0  0
 20 17  1  0  0  0  0
 34 35  1  0  0  0  0
 10 11  1  0  0  0  0
 16 11  2  0  0  0  0
 16 15  1  0  0  0  0
 17 18  1  0  0  0  0
 17 19  1  0  0  0  0
 17 15  1  0  0  0  0
 11 12  1  0  0  0  0
 15 14  2  0  0  0  0
 12 13  2  0  0  0  0
 14 13  1  0  0  0  0
A    1
C01
A    2
C02
A    3
C03
A    4
C04
A    5
C05
A    6
C06
A    7
C07
A    8
C08
A    9
O09
A   10
N10
A   11
C11
A   12
C12
A   13
C13
A   14
C14
A   15
C15
A   16
C16
A   17
C17
A   18
F18
A   19
F19
A   20
F20
A   21
N21
A   22
C22
A   23
N23
A   24
C24
A   25
N25
A   26
C26
A   27
C27
A   28
C28
A   29
N29
A   30
N30
A   31
C31
A   32
C32
A   33
C33
A   34
N34
A   35
C35
A   36
C36
A   37
C37
M  END
>  <InstanceId>
6FNF_DXH_A_1001

>  <ChemCompId>
DXH

>  <PdbId>
6FNF

>  <ChainId>
A

>  <ResidueNumber>
1001

>  <InsertionCode>


>  <Model>
1

>  <AltIds>


>  <MissingHeavyAtoms>
0

>  <ObservedFormula>
C26 N7 O F3

>  <Name>
4-methyl-3-[(1-methyl-6-pyridin-3-yl-pyrazolo[3,4-d]pyrimidin-4-yl)amino]-~{N}-[3-(trifluoromethyl)phenyl]benzamide

>  <SystematicName>
4-methyl-3-[(1-methyl-6-pyridin-3-yl-pyrazolo[3,4-d]pyrimidin-4-yl)amino]-~{N}-[3-(trifluoromethyl)phenyl]benzamide

>  <Synonyms>


>  <Type>
NON-POLYMER

>  <Formula>
C26 H20 F3 N7 O

>  <MolecularWeight>
503.479

>  <ModifiedDate>
2018-08-03

>  <Parent>


>  <OneLetterCode>


>  <SubcomponentList>


>  <AmbiguousFlag>
N

>  <InChI>
InChI=1S/C26H20F3N7O/c1-15-8-9-16(25(37)32-19-7-3-6-18(12-19)26(27,28)29)11-21(15)33-23-20-14-31-36(2)24(20)35-22(34-23)17-5-4-10-30-13-17/h3-14H,1-2H3,(H,32,37)(H,33,34,35)

>  <InChIKey>
ZCCPLJOKGAACRT-UHFFFAOYSA-N

>  <SMILES>
Cc1ccc(cc1Nc2c3cnn(c3nc(n2)c4cccnc4)C)C(=O)Nc5cccc(c5)C(F)(F)F

$$$$
