1NM6_L86_A_247


 40 43  0  0  0  0  0  0  0  0999 V2000
   18.1944  -17.3699   24.3183 C   0  0  0  0  0  0  0  0  0  0  0  0
   17.5302  -16.2038   23.6830 N   0  0  0  0  0  0  0  0  0  0  0  0
   18.1982  -15.4857   22.6541 C   0  0  0  0  0  0  0  0  0  0  0  0
   17.6547  -14.2227   22.1317 C   0  0  0  0  0  0  0  0  0  0  0  0
   18.3838  -13.5125   21.1792 N   0  0  0  0  0  0  0  0  0  0  0  0
   19.6950  -13.8792   20.6637 C   0  0  0  0  0  0  0  0  0  0  0  0
   20.1760  -15.0808   21.2089 C   0  0  0  0  0  0  0  0  0  0  0  0
   19.4700  -15.8353   22.1390 N   0  0  0  0  0  0  0  0  0  0  0  0
   16.5716  -13.8158   22.5530 O   0  0  0  0  0  0  0  0  0  0  0  0
   20.5215  -13.0549   19.4411 Cl  0  0  0  0  0  0  0  0  0  0  0  0
   17.7754  -12.2957   20.6113 C   0  0  0  0  0  0  0  0  0  0  0  0
   16.3599  -12.5803   20.1366 C   0  0  0  0  0  0  0  0  0  0  0  0
   15.4954  -11.5719   20.3492 N   0  0  0  0  0  0  0  0  0  0  0  0
   16.0864  -13.6441   19.5798 O   0  0  0  0  0  0  0  0  0  0  0  0
   14.0585  -11.7581   20.0432 C   0  0  0  0  0  0  0  0  0  0  0  0
   13.1602  -11.7190   21.2778 C   0  0  0  0  0  0  0  0  0  0  0  0
   12.3637  -12.8722   21.6512 C   0  0  0  0  0  0  0  0  0  0  0  0
   11.4907  -12.8412   22.8051 C   0  0  0  0  0  0  0  0  0  0  0  0
   11.4181  -11.6104   23.5700 C   0  0  0  0  0  0  0  0  0  0  0  0
   13.0946  -10.4885   22.0567 C   0  0  0  0  0  0  0  0  0  0  0  0
   12.4066  -14.1579   20.8252 C   0  0  0  0  0  0  0  0  0  0  0  0
   12.2095  -10.4512   23.2014 C   0  0  0  0  0  0  0  0  0  0  0  0
   13.6487  -14.9804   21.2119 C   0  0  0  0  0  0  0  0  0  0  0  0
   17.1429  -18.4826   24.4229 C   0  0  0  0  0  0  0  0  0  0  0  0
   16.7756  -19.0981   23.1151 N   0  0  0  0  0  0  0  0  0  0  0  0
   13.7027  -16.1826   20.3610 N   0  0  0  0  0  0  0  0  0  0  0  0
   15.0064  -16.9046   20.4281 C   0  0  0  0  0  0  0  0  0  0  0  0
   15.1958  -17.6271   21.7761 C   0  0  0  0  0  0  0  0  0  0  0  0
   16.5315  -18.4316   21.8070 C   0  0  0  0  0  0  0  0  0  0  0  0
   16.6305  -15.9290   23.9733 H   0  0  0  0  0  0  0  0  0  0  0  0
   15.8169  -10.7128   20.7069 H   0  0  0  0  0  0  0  0  0  0  0  0
   15.9124  -19.6068   23.3066 H   0  0  0  0  0  0  0  0  0  0  0  0
   13.5396  -15.9009   19.3944 H   0  0  0  0  0  0  0  0  0  0  0  0
   18.7320  -16.9739   25.7299 C   0  0  0  0  0  0  0  0  0  0  0  0
   19.8538  -14.6579   26.0346 C   0  0  0  0  0  0  0  0  0  0  0  0
   19.9390  -16.0483   25.5942 C   0  0  0  0  0  0  0  0  0  0  0  0
   21.1290  -16.5803   24.9261 C   0  0  0  0  0  0  0  0  0  0  0  0
   22.2301  -15.6773   24.6173 C   0  0  0  0  0  0  0  0  0  0  0  0
   22.1228  -14.2751   25.0225 C   0  0  0  0  0  0  0  0  0  0  0  0
   20.9587  -13.7515   25.7388 C   0  0  0  0  0  0  0  0  0  0  0  0
 35 36  2  0  0  0
 35 40  1  0  0  0
 36 37  1  0  0  0
 36 34  1  0  0  0
 37 38  2  0  0  0
 38 39  1  0  0  0
 39 40  2  0  0  0
 34  1  1  0  0  0
  1  2  1  0  0  0
  1 24  1  0  0  0
  2  3  1  0  0  0
  3  4  1  0  0  0
  3  8  2  0  0  0
  4  5  1  0  0  0
  4  9  2  0  0  0
  5  6  1  0  0  0
  5 11  1  0  0  0
  6  7  2  0  0  0
  6 10  1  0  0  0
  7  8  1  0  0  0
 11 12  1  0  0  0
 12 13  1  0  0  0
 12 14  2  0  0  0
 13 15  1  0  0  0
 15 16  1  0  0  0
 16 17  2  0  0  0
 16 20  1  0  0  0
 17 18  1  0  0  0
 17 21  1  0  0  0
 18 19  2  0  0  0
 19 22  1  0  0  0
 20 22  2  0  0  0
 21 23  1  0  0  0
 23 26  1  0  0  0
 24 25  1  0  0  0
 25 29  1  0  0  0
 26 27  1  0  0  0
 27 28  1  0  0  0
 28 29  1  0  0  0
  2 30  1  0  0  0
 13 31  1  0  0  0
 25 32  1  0  0  0
 26 33  1  0  0  0
M  END
> <minimizedAffinity>
-13.52904

$$$$
1NM6_L86_A_247


 40 43  0  0  0  0  0  0  0  0999 V2000
   18.0315  -17.5122   24.0944 C   0  0  0  0  0  0  0  0  0  0  0  0
   17.4041  -16.3013   23.5074 N   0  0  0  0  0  0  0  0  0  0  0  0
   18.1158  -15.5338   22.5457 C   0  0  0  0  0  0  0  0  0  0  0  0
   17.6064  -14.2346   22.0810 C   0  0  0  0  0  0  0  0  0  0  0  0
   18.3766  -13.4804   21.1971 N   0  0  0  0  0  0  0  0  0  0  0  0
   19.7000  -13.8352   20.7049 C   0  0  0  0  0  0  0  0  0  0  0  0
   20.1469  -15.0736   21.1940 C   0  0  0  0  0  0  0  0  0  0  0  0
   19.4000  -15.8710   22.0536 N   0  0  0  0  0  0  0  0  0  0  0  0
   16.5147  -13.8374   22.4891 O   0  0  0  0  0  0  0  0  0  0  0  0
   20.5781  -12.9527   19.5616 Cl  0  0  0  0  0  0  0  0  0  0  0  0
   17.8033  -12.2236   20.6820 C   0  0  0  0  0  0  0  0  0  0  0  0
   16.4014  -12.4593   20.1443 C   0  0  0  0  0  0  0  0  0  0  0  0
   15.5428  -11.4526   20.3871 N   0  0  0  0  0  0  0  0  0  0  0  0
   16.1338  -13.4845   19.5168 O   0  0  0  0  0  0  0  0  0  0  0  0
   14.1150  -11.5997   20.0227 C   0  0  0  0  0  0  0  0  0  0  0  0
   13.1756  -11.6200   21.2267 C   0  0  0  0  0  0  0  0  0  0  0  0
   12.3523  -12.7815   21.5045 C   0  0  0  0  0  0  0  0  0  0  0  0
   11.4408  -12.8056   22.6283 C   0  0  0  0  0  0  0  0  0  0  0  0
   11.3574  -11.6208   23.4617 C   0  0  0  0  0  0  0  0  0  0  0  0
   13.0988  -10.4365   22.0744 C   0  0  0  0  0  0  0  0  0  0  0  0
   12.4074  -14.0169   20.6058 C   0  0  0  0  0  0  0  0  0  0  0  0
   12.1754  -10.4535   23.1890 C   0  0  0  0  0  0  0  0  0  0  0  0
   13.6251  -14.8787   20.9845 C   0  0  0  0  0  0  0  0  0  0  0  0
   16.9631  -18.6136   24.0979 C   0  0  0  0  0  0  0  0  0  0  0  0
   16.6331  -19.1460   22.7444 N   0  0  0  0  0  0  0  0  0  0  0  0
   13.6931  -16.0296   20.0663 N   0  0  0  0  0  0  0  0  0  0  0  0
   14.9846  -16.7731   20.1342 C   0  0  0  0  0  0  0  0  0  0  0  0
   15.1187  -17.5761   21.4426 C   0  0  0  0  0  0  0  0  0  0  0  0
   16.4423  -18.4004   21.4706 C   0  0  0  0  0  0  0  0  0  0  0  0
   16.4985  -16.0309   23.7832 H   0  0  0  0  0  0  0  0  0  0  0  0
   15.8626  -10.6208   20.8055 H   0  0  0  0  0  0  0  0  0  0  0  0
   15.7576  -19.6524   22.8765 H   0  0  0  0  0  0  0  0  0  0  0  0
   13.5668  -15.6893   19.1131 H   0  0  0  0  0  0  0  0  0  0  0  0
   18.5253  -17.2074   25.5442 C   0  0  0  0  0  0  0  0  0  0  0  0
   20.8850  -16.1466   25.3985 C   0  0  0  0  0  0  0  0  0  0  0  0
   20.0462  -17.3223   25.6186 C   0  0  0  0  0  0  0  0  0  0  0  0
   20.6158  -18.6567   25.8190 C   0  0  0  0  0  0  0  0  0  0  0  0
   22.0585  -18.8331   25.7151 C   0  0  0  0  0  0  0  0  0  0  0  0
   22.8920  -17.6593   25.4521 C   0  0  0  0  0  0  0  0  0  0  0  0
   22.3317  -16.3151   25.3054 C   0  0  0  0  0  0  0  0  0  0  0  0
 35 36  2  0  0  0
 35 40  1  0  0  0
 36 37  1  0  0  0
 36 34  1  0  0  0
 37 38  2  0  0  0
 38 39  1  0  0  0
 39 40  2  0  0  0
 34  1  1  0  0  0
  1  2  1  0  0  0
  1 24  1  0  0  0
  2  3  1  0  0  0
  3  4  1  0  0  0
  3  8  2  0  0  0
  4  5  1  0  0  0
  4  9  2  0  0  0
  5  6  1  0  0  0
  5 11  1  0  0  0
  6  7  2  0  0  0
  6 10  1  0  0  0
  7  8  1  0  0  0
 11 12  1  0  0  0
 12 13  1  0  0  0
 12 14  2  0  0  0
 13 15  1  0  0  0
 15 16  1  0  0  0
 16 17  2  0  0  0
 16 20  1  0  0  0
 17 18  1  0  0  0
 17 21  1  0  0  0
 18 19  2  0  0  0
 19 22  1  0  0  0
 20 22  2  0  0  0
 21 23  1  0  0  0
 23 26  1  0  0  0
 24 25  1  0  0  0
 25 29  1  0  0  0
 26 27  1  0  0  0
 27 28  1  0  0  0
 28 29  1  0  0  0
  2 30  1  0  0  0
 13 31  1  0  0  0
 25 32  1  0  0  0
 26 33  1  0  0  0
M  END
> <minimizedAffinity>
-11.97609

$$$$
