2O4L_TPV_A_403


 44 47  0  0  0  0  0  0  0  0999 V2000
  -18.5870   19.3794   17.9915 C   0  0  0  0  0  0  0  0  0  0  0  0
  -16.1190   22.2015   17.0286 O   0  0  0  0  0  0  0  0  0  0  0  0
  -17.3263   21.4451   17.2030 C   0  0  0  0  0  0  0  0  0  0  0  0
  -17.2603   20.0962   17.7700 C   0  0  0  0  0  0  0  0  0  0  0  0
  -16.0369   19.5503   18.0036 C   0  0  0  0  0  0  0  0  0  0  0  0
  -14.7507   20.2878   17.6736 C   0  0  0  0  0  0  0  0  0  0  0  0
  -14.8825   21.8123   17.6364 C   0  0  0  0  0  0  0  0  0  0  0  0
  -18.3501   21.9960   16.8418 O   0  0  0  0  0  0  0  0  0  0  0  0
  -15.8986   18.3258   18.4969 O   0  0  0  0  0  0  0  0  0  0  0  0
  -16.6566   17.8220   18.7195 H   0  0  0  0  0  0  0  0  0  0  0  0
  -14.8061   22.3315   19.0828 C   0  0  0  0  0  0  0  0  0  0  0  0
  -14.9247   23.8500   19.2196 C   0  0  0  0  0  0  0  0  0  0  0  0
  -14.8541   24.2526   20.6728 C   0  0  0  0  0  0  0  0  0  0  0  0
  -13.7810   22.4115   16.7580 C   0  0  0  0  0  0  0  0  0  0  0  0
  -13.9441   22.1515   15.2589 C   0  0  0  0  0  0  0  0  0  0  0  0
  -12.7311   22.7019   14.5324 C   0  0  0  0  0  0  0  0  0  0  0  0
  -11.5401   21.9764   14.5443 C   0  0  0  0  0  0  0  0  0  0  0  0
  -10.4121   22.4672   13.8935 C   0  0  0  0  0  0  0  0  0  0  0  0
  -10.4746   23.6817   13.2145 C   0  0  0  0  0  0  0  0  0  0  0  0
  -11.6689   24.4124   13.1960 C   0  0  0  0  0  0  0  0  0  0  0  0
  -12.7969   23.9211   13.8528 C   0  0  0  0  0  0  0  0  0  0  0  0
  -18.9659   18.5649   16.7775 C   0  0  0  0  0  0  0  0  0  0  0  0
  -18.0504   18.2839   15.7593 C   0  0  0  0  0  0  0  0  0  0  0  0
  -18.4352   17.5324   14.6521 C   0  0  0  0  0  0  0  0  0  0  0  0
  -19.7344   17.0509   14.5475 C   0  0  0  0  0  0  0  0  0  0  0  0
  -20.6643   17.3062   15.5485 C   0  0  0  0  0  0  0  0  0  0  0  0
  -20.2735   18.0664   16.6547 C   0  0  0  0  0  0  0  0  0  0  0  0
  -21.9393   16.8241   15.4271 N   0  0  0  0  0  0  0  0  0  0  0  0
  -22.5960   17.3273   14.8934 H   0  0  0  0  0  0  0  0  0  0  0  0
  -22.3906   15.4437   16.1425 S   0  0  0  0  0  0  0  0  0  0  0  0
  -21.3956   14.4437   15.7865 O   0  0  0  0  0  0  0  0  0  0  0  0
  -23.7490   15.1368   15.7340 O   0  0  0  0  0  0  0  0  0  0  0  0
  -22.3100   15.8088   17.7189 C   0  0  0  0  0  0  0  0  0  0  0  0
  -21.2662   15.3561   18.4722 N   0  0  0  0  0  0  0  0  0  0  0  0
  -21.1429   15.6755   19.7775 C   0  0  0  0  0  0  0  0  0  0  0  0
  -22.0744   16.4898   20.4177 C   0  0  0  0  0  0  0  0  0  0  0  0
  -23.1469   16.9829   19.6654 C   0  0  0  0  0  0  0  0  0  0  0  0
  -23.2772   16.6424   18.3130 C   0  0  0  0  0  0  0  0  0  0  0  0
  -21.8932   16.8693   21.8677 C   0  0  0  0  0  0  0  0  0  0  0  0
  -21.3460   15.9161   22.6027 F   0  0  0  0  0  0  0  0  0  0  0  0
  -23.0149   17.2747   22.4232 F   0  0  0  0  0  0  0  0  0  0  0  0
  -21.0369   17.8803   21.8654 F   0  0  0  0  0  0  0  0  0  0  0  0
  -18.6660   18.5452   19.2837 C   0  0  0  0  0  0  0  0  0  0  0  0
  -18.6273   19.3647   20.5594 C   0  0  0  0  0  0  0  0  0  0  0  0
  2  3  1  0  0  0
  2  7  1  0  0  0
  3  4  1  0  0  0
  3  8  2  0  0  0
  4  5  2  0  0  0
  4  1  1  0  0  0
  5  6  1  0  0  0
  5  9  1  0  0  0
  6  7  1  0  0  0
  7 11  1  0  0  0
  7 14  1  0  0  0
 11 12  1  0  0  0
 12 13  1  0  0  0
 14 15  1  0  0  0
 15 16  1  0  0  0
 16 17  2  0  0  0
 16 21  1  0  0  0
 17 18  1  0  0  0
 18 19  2  0  0  0
 19 20  1  0  0  0
 20 21  2  0  0  0
  1 43  1  0  0  0
  1 22  1  0  0  0
 43 44  1  0  0  0
 22 23  2  0  0  0
 22 27  1  0  0  0
 23 24  1  0  0  0
 24 25  2  0  0  0
 25 26  1  0  0  0
 26 28  1  0  0  0
 26 27  2  0  0  0
 28 30  1  0  0  0
 30 31  2  0  0  0
 30 32  2  0  0  0
 30 33  1  0  0  0
 33 34  2  0  0  0
 33 38  1  0  0  0
 34 35  1  0  0  0
 35 36  2  0  0  0
 36 37  1  0  0  0
 36 39  1  0  0  0
 37 38  2  0  0  0
 39 40  1  0  0  0
 39 41  1  0  0  0
 39 42  1  0  0  0
  9 10  1  0  0  0
 28 29  1  0  0  0
M  END
> <minimizedAffinity>
-11.75263

$$$$
2O4L_TPV_A_403


 44 47  0  0  0  0  0  0  0  0999 V2000
  -15.4043   21.9210   17.0873 C   0  0  0  0  0  0  0  0  0  0  0  0
  -18.6841   19.9210   17.5633 O   0  0  0  0  0  0  0  0  0  0  0  0
  -17.7636   20.9865   17.2843 C   0  0  0  0  0  0  0  0  0  0  0  0
  -16.3270   20.7696   17.4696 C   0  0  0  0  0  0  0  0  0  0  0  0
  -15.9141   19.5964   18.0197 C   0  0  0  0  0  0  0  0  0  0  0  0
  -16.8965   18.5261   18.4629 C   0  0  0  0  0  0  0  0  0  0  0  0
  -18.2500   18.5694   17.7495 C   0  0  0  0  0  0  0  0  0  0  0  0
  -18.2647   22.0321   16.9133 O   0  0  0  0  0  0  0  0  0  0  0  0
  -14.6304   19.3376   18.2364 O   0  0  0  0  0  0  0  0  0  0  0  0
  -13.9777   19.9608   17.9841 H   0  0  0  0  0  0  0  0  0  0  0  0
  -18.0949   17.8614   16.3922 C   0  0  0  0  0  0  0  0  0  0  0  0
  -19.4082   17.6262   15.6448 C   0  0  0  0  0  0  0  0  0  0  0  0
  -19.1331   17.1753   14.2307 C   0  0  0  0  0  0  0  0  0  0  0  0
  -19.3211   17.9050   18.6185 C   0  0  0  0  0  0  0  0  0  0  0  0
  -19.3333   18.3589   20.0798 C   0  0  0  0  0  0  0  0  0  0  0  0
  -20.7477   18.2419   20.6163 C   0  0  0  0  0  0  0  0  0  0  0  0
  -21.7382   19.0902   20.1220 C   0  0  0  0  0  0  0  0  0  0  0  0
  -23.0400   19.0075   20.6072 C   0  0  0  0  0  0  0  0  0  0  0  0
  -23.3605   18.0644   21.5808 C   0  0  0  0  0  0  0  0  0  0  0  0
  -22.3708   17.2076   22.0778 C   0  0  0  0  0  0  0  0  0  0  0  0
  -21.0658   17.2952   21.5937 C   0  0  0  0  0  0  0  0  0  0  0  0
  -14.9792   22.6968   18.3112 C   0  0  0  0  0  0  0  0  0  0  0  0
  -15.3491   22.3056   19.6013 C   0  0  0  0  0  0  0  0  0  0  0  0
  -14.9420   23.0468   20.7073 C   0  0  0  0  0  0  0  0  0  0  0  0
  -14.1608   24.1839   20.5416 C   0  0  0  0  0  0  0  0  0  0  0  0
  -13.7696   24.5924   19.2719 C   0  0  0  0  0  0  0  0  0  0  0  0
  -14.1866   23.8473   18.1650 C   0  0  0  0  0  0  0  0  0  0  0  0
  -13.0008   25.7155   19.1289 N   0  0  0  0  0  0  0  0  0  0  0  0
  -13.4404   26.5899   19.0221 H   0  0  0  0  0  0  0  0  0  0  0  0
  -11.3838   25.6365   19.1317 S   0  0  0  0  0  0  0  0  0  0  0  0
  -11.0074   24.8153   20.2721 O   0  0  0  0  0  0  0  0  0  0  0  0
  -10.8575   26.9890   19.1434 O   0  0  0  0  0  0  0  0  0  0  0  0
  -11.0551   24.8807   17.7369 C   0  0  0  0  0  0  0  0  0  0  0  0
  -10.6698   23.5717   17.7439 N   0  0  0  0  0  0  0  0  0  0  0  0
  -10.4294   22.8973   16.6000 C   0  0  0  0  0  0  0  0  0  0  0  0
  -10.5698   23.5054   15.3545 C   0  0  0  0  0  0  0  0  0  0  0  0
  -10.9804   24.8430   15.3160 C   0  0  0  0  0  0  0  0  0  0  0  0
  -11.2205   25.5431   16.5052 C   0  0  0  0  0  0  0  0  0  0  0  0
  -10.3374   22.7193   14.0867 C   0  0  0  0  0  0  0  0  0  0  0  0
   -9.9606   23.4636   13.0608 F   0  0  0  0  0  0  0  0  0  0  0  0
  -11.3798   21.9899   13.7515 F   0  0  0  0  0  0  0  0  0  0  0  0
   -9.3253   21.9071   14.3534 F   0  0  0  0  0  0  0  0  0  0  0  0
  -14.1970   21.5236   16.2177 C   0  0  0  0  0  0  0  0  0  0  0  0
  -14.4632   21.5610   14.7249 C   0  0  0  0  0  0  0  0  0  0  0  0
  2  3  1  0  0  0
  2  7  1  0  0  0
  3  4  1  0  0  0
  3  8  2  0  0  0
  4  5  2  0  0  0
  4  1  1  0  0  0
  5  6  1  0  0  0
  5  9  1  0  0  0
  6  7  1  0  0  0
  7 11  1  0  0  0
  7 14  1  0  0  0
 11 12  1  0  0  0
 12 13  1  0  0  0
 14 15  1  0  0  0
 15 16  1  0  0  0
 16 17  2  0  0  0
 16 21  1  0  0  0
 17 18  1  0  0  0
 18 19  2  0  0  0
 19 20  1  0  0  0
 20 21  2  0  0  0
  1 43  1  0  0  0
  1 22  1  0  0  0
 43 44  1  0  0  0
 22 23  2  0  0  0
 22 27  1  0  0  0
 23 24  1  0  0  0
 24 25  2  0  0  0
 25 26  1  0  0  0
 26 28  1  0  0  0
 26 27  2  0  0  0
 28 30  1  0  0  0
 30 31  2  0  0  0
 30 32  2  0  0  0
 30 33  1  0  0  0
 33 34  2  0  0  0
 33 38  1  0  0  0
 34 35  1  0  0  0
 35 36  2  0  0  0
 36 37  1  0  0  0
 36 39  1  0  0  0
 37 38  2  0  0  0
 39 40  1  0  0  0
 39 41  1  0  0  0
 39 42  1  0  0  0
  9 10  1  0  0  0
 28 29  1  0  0  0
M  END
> <minimizedAffinity>
-11.29804

$$$$
2O4L_TPV_A_403


 44 47  0  0  0  0  0  0  0  0999 V2000
  -15.3167   22.0461   17.1941 C   0  0  0  0  0  0  0  0  0  0  0  0
  -16.7244   18.7356   18.6232 O   0  0  0  0  0  0  0  0  0  0  0  0
  -15.8140   19.7477   18.1681 C   0  0  0  0  0  0  0  0  0  0  0  0
  -16.3389   20.9875   17.5911 C   0  0  0  0  0  0  0  0  0  0  0  0
  -17.6799   21.0927   17.3913 C   0  0  0  0  0  0  0  0  0  0  0  0
  -18.6345   19.9599   17.7269 C   0  0  0  0  0  0  0  0  0  0  0  0
  -18.1224   18.9914   18.7959 C   0  0  0  0  0  0  0  0  0  0  0  0
  -14.6313   19.4853   18.2882 O   0  0  0  0  0  0  0  0  0  0  0  0
  -18.2254   22.1773   16.8547 O   0  0  0  0  0  0  0  0  0  0  0  0
  -17.6863   22.9089   16.6265 H   0  0  0  0  0  0  0  0  0  0  0  0
  -18.3888   19.6209   20.1745 C   0  0  0  0  0  0  0  0  0  0  0  0
  -19.4956   18.9397   20.9804 C   0  0  0  0  0  0  0  0  0  0  0  0
  -20.8162   19.6331   20.7477 C   0  0  0  0  0  0  0  0  0  0  0  0
  -18.8146   17.6340   18.6471 C   0  0  0  0  0  0  0  0  0  0  0  0
  -19.1880   17.2588   17.2113 C   0  0  0  0  0  0  0  0  0  0  0  0
  -20.5707   16.6341   17.2130 C   0  0  0  0  0  0  0  0  0  0  0  0
  -21.3656   16.7373   18.3543 C   0  0  0  0  0  0  0  0  0  0  0  0
  -22.6330   16.1629   18.3818 C   0  0  0  0  0  0  0  0  0  0  0  0
  -23.1173   15.4936   17.2605 C   0  0  0  0  0  0  0  0  0  0  0  0
  -22.3251   15.3903   16.1106 C   0  0  0  0  0  0  0  0  0  0  0  0
  -21.0534   15.9626   16.0866 C   0  0  0  0  0  0  0  0  0  0  0  0
  -14.8923   22.8586   18.3943 C   0  0  0  0  0  0  0  0  0  0  0  0
  -15.2776   22.5166   19.6937 C   0  0  0  0  0  0  0  0  0  0  0  0
  -14.8707   23.2908   20.7771 C   0  0  0  0  0  0  0  0  0  0  0  0
  -14.0742   24.4119   20.5792 C   0  0  0  0  0  0  0  0  0  0  0  0
  -13.6674   24.7716   19.2997 C   0  0  0  0  0  0  0  0  0  0  0  0
  -14.0844   23.9938   18.2155 C   0  0  0  0  0  0  0  0  0  0  0  0
  -12.8837   25.8797   19.1248 N   0  0  0  0  0  0  0  0  0  0  0  0
  -13.3113   26.7590   19.0091 H   0  0  0  0  0  0  0  0  0  0  0  0
  -11.2683   25.7754   19.1041 S   0  0  0  0  0  0  0  0  0  0  0  0
  -10.8860   24.9802   20.2609 O   0  0  0  0  0  0  0  0  0  0  0  0
  -10.7212   27.1192   19.0697 O   0  0  0  0  0  0  0  0  0  0  0  0
  -10.9739   24.9762   17.7259 C   0  0  0  0  0  0  0  0  0  0  0  0
  -10.5879   23.6679   17.7643 N   0  0  0  0  0  0  0  0  0  0  0  0
  -10.3757   22.9580   16.6365 C   0  0  0  0  0  0  0  0  0  0  0  0
  -10.5472   23.5269   15.3765 C   0  0  0  0  0  0  0  0  0  0  0  0
  -10.9592   24.8628   15.3063 C   0  0  0  0  0  0  0  0  0  0  0  0
  -11.1700   25.5998   16.4786 C   0  0  0  0  0  0  0  0  0  0  0  0
  -10.3459   22.7014   14.1285 C   0  0  0  0  0  0  0  0  0  0  0  0
   -9.9384   23.4047   13.0855 F   0  0  0  0  0  0  0  0  0  0  0  0
  -11.4169   22.0070   13.8092 F   0  0  0  0  0  0  0  0  0  0  0  0
   -9.3679   21.8555   14.4166 F   0  0  0  0  0  0  0  0  0  0  0  0
  -14.1032   21.5142   16.4091 C   0  0  0  0  0  0  0  0  0  0  0  0
  -14.4086   21.1258   14.9750 C   0  0  0  0  0  0  0  0  0  0  0  0
  2  3  1  0  0  0
  2  7  1  0  0  0
  3  4  1  0  0  0
  3  8  2  0  0  0
  4  5  2  0  0  0
  4  1  1  0  0  0
  5  6  1  0  0  0
  5  9  1  0  0  0
  6  7  1  0  0  0
  7 11  1  0  0  0
  7 14  1  0  0  0
 11 12  1  0  0  0
 12 13  1  0  0  0
 14 15  1  0  0  0
 15 16  1  0  0  0
 16 17  2  0  0  0
 16 21  1  0  0  0
 17 18  1  0  0  0
 18 19  2  0  0  0
 19 20  1  0  0  0
 20 21  2  0  0  0
  1 43  1  0  0  0
  1 22  1  0  0  0
 43 44  1  0  0  0
 22 23  2  0  0  0
 22 27  1  0  0  0
 23 24  1  0  0  0
 24 25  2  0  0  0
 25 26  1  0  0  0
 26 28  1  0  0  0
 26 27  2  0  0  0
 28 30  1  0  0  0
 30 31  2  0  0  0
 30 32  2  0  0  0
 30 33  1  0  0  0
 33 34  2  0  0  0
 33 38  1  0  0  0
 34 35  1  0  0  0
 35 36  2  0  0  0
 36 37  1  0  0  0
 36 39  1  0  0  0
 37 38  2  0  0  0
 39 40  1  0  0  0
 39 41  1  0  0  0
 39 42  1  0  0  0
  9 10  1  0  0  0
 28 29  1  0  0  0
M  END
> <minimizedAffinity>
-10.72763

$$$$
2O4L_TPV_A_403


 44 47  0  0  0  0  0  0  0  0999 V2000
  -17.9721   18.8403   17.6183 C   0  0  0  0  0  0  0  0  0  0  0  0
  -16.4231   22.3867   17.5383 O   0  0  0  0  0  0  0  0  0  0  0  0
  -17.3387   21.2935   17.3750 C   0  0  0  0  0  0  0  0  0  0  0  0
  -16.9254   19.9401   17.7530 C   0  0  0  0  0  0  0  0  0  0  0  0
  -15.6363   19.7392   18.1367 C   0  0  0  0  0  0  0  0  0  0  0  0
  -14.6193   20.8671   18.1610 C   0  0  0  0  0  0  0  0  0  0  0  0
  -15.2231   22.2658   18.3098 C   0  0  0  0  0  0  0  0  0  0  0  0
  -18.4246   21.5811   16.9058 O   0  0  0  0  0  0  0  0  0  0  0  0
  -15.1847   18.5375   18.4738 O   0  0  0  0  0  0  0  0  0  0  0  0
  -15.7659   17.8025   18.4772 H   0  0  0  0  0  0  0  0  0  0  0  0
  -15.5158   22.5009   19.8020 C   0  0  0  0  0  0  0  0  0  0  0  0
  -14.5402   23.4504   20.4986 C   0  0  0  0  0  0  0  0  0  0  0  0
  -15.2504   24.7130   20.9232 C   0  0  0  0  0  0  0  0  0  0  0  0
  -14.2599   23.3142   17.7470 C   0  0  0  0  0  0  0  0  0  0  0  0
  -12.8607   22.7886   17.4187 C   0  0  0  0  0  0  0  0  0  0  0  0
  -12.6805   22.7857   15.9122 C   0  0  0  0  0  0  0  0  0  0  0  0
  -11.8851   23.7649   15.3174 C   0  0  0  0  0  0  0  0  0  0  0  0
  -11.7143   23.7876   13.9364 C   0  0  0  0  0  0  0  0  0  0  0  0
  -12.3282   22.8206   13.1440 C   0  0  0  0  0  0  0  0  0  0  0  0
  -13.1246   21.8329   13.7362 C   0  0  0  0  0  0  0  0  0  0  0  0
  -13.2984   21.8146   15.1199 C   0  0  0  0  0  0  0  0  0  0  0  0
  -19.0032   18.9438   18.7169 C   0  0  0  0  0  0  0  0  0  0  0  0
  -18.7231   19.5608   19.9395 C   0  0  0  0  0  0  0  0  0  0  0  0
  -19.6971   19.6353   20.9317 C   0  0  0  0  0  0  0  0  0  0  0  0
  -20.9606   19.0985   20.7170 C   0  0  0  0  0  0  0  0  0  0  0  0
  -21.2715   18.4871   19.5081 C   0  0  0  0  0  0  0  0  0  0  0  0
  -20.2874   18.4102   18.5181 C   0  0  0  0  0  0  0  0  0  0  0  0
  -22.5212   17.9637   19.3157 N   0  0  0  0  0  0  0  0  0  0  0  0
  -23.3059   18.5550   19.3764 H   0  0  0  0  0  0  0  0  0  0  0  0
  -22.7363   16.3924   18.9905 S   0  0  0  0  0  0  0  0  0  0  0  0
  -24.1721   16.1576   18.9938 O   0  0  0  0  0  0  0  0  0  0  0  0
  -21.9807   15.6155   19.9558 O   0  0  0  0  0  0  0  0  0  0  0  0
  -22.1261   16.2442   17.4970 C   0  0  0  0  0  0  0  0  0  0  0  0
  -20.8820   15.7132   17.3172 N   0  0  0  0  0  0  0  0  0  0  0  0
  -20.3585   15.5345   16.0863 C   0  0  0  0  0  0  0  0  0  0  0  0
  -21.0679   15.8787   14.9378 C   0  0  0  0  0  0  0  0  0  0  0  0
  -22.3538   16.4101   15.0911 C   0  0  0  0  0  0  0  0  0  0  0  0
  -22.8910   16.6027   16.3702 C   0  0  0  0  0  0  0  0  0  0  0  0
  -20.4798   15.6300   13.5698 C   0  0  0  0  0  0  0  0  0  0  0  0
  -21.3021   15.0073   12.7424 F   0  0  0  0  0  0  0  0  0  0  0  0
  -19.3322   14.9890   13.6270 F   0  0  0  0  0  0  0  0  0  0  0  0
  -20.2644   16.8306   13.0526 F   0  0  0  0  0  0  0  0  0  0  0  0
  -18.6290   18.7363   16.2293 C   0  0  0  0  0  0  0  0  0  0  0  0
  -17.8073   17.9771   15.2051 C   0  0  0  0  0  0  0  0  0  0  0  0
  2  3  1  0  0  0
  2  7  1  0  0  0
  3  4  1  0  0  0
  3  8  2  0  0  0
  4  5  2  0  0  0
  4  1  1  0  0  0
  5  6  1  0  0  0
  5  9  1  0  0  0
  6  7  1  0  0  0
  7 11  1  0  0  0
  7 14  1  0  0  0
 11 12  1  0  0  0
 12 13  1  0  0  0
 14 15  1  0  0  0
 15 16  1  0  0  0
 16 17  2  0  0  0
 16 21  1  0  0  0
 17 18  1  0  0  0
 18 19  2  0  0  0
 19 20  1  0  0  0
 20 21  2  0  0  0
  1 43  1  0  0  0
  1 22  1  0  0  0
 43 44  1  0  0  0
 22 23  2  0  0  0
 22 27  1  0  0  0
 23 24  1  0  0  0
 24 25  2  0  0  0
 25 26  1  0  0  0
 26 28  1  0  0  0
 26 27  2  0  0  0
 28 30  1  0  0  0
 30 31  2  0  0  0
 30 32  2  0  0  0
 30 33  1  0  0  0
 33 34  2  0  0  0
 33 38  1  0  0  0
 34 35  1  0  0  0
 35 36  2  0  0  0
 36 37  1  0  0  0
 36 39  1  0  0  0
 37 38  2  0  0  0
 39 40  1  0  0  0
 39 41  1  0  0  0
 39 42  1  0  0  0
  9 10  1  0  0  0
 28 29  1  0  0  0
M  END
> <minimizedAffinity>
-10.20636

$$$$
2O4L_TPV_A_403


 44 47  0  0  0  0  0  0  0  0999 V2000
  -15.1222   21.7442   17.5897 C   0  0  0  0  0  0  0  0  0  0  0  0
  -18.5378   19.9407   17.3373 O   0  0  0  0  0  0  0  0  0  0  0  0
  -17.5307   20.9634   17.3295 C   0  0  0  0  0  0  0  0  0  0  0  0
  -16.1515   20.6244   17.6877 C   0  0  0  0  0  0  0  0  0  0  0  0
  -15.8885   19.3681   18.1370 C   0  0  0  0  0  0  0  0  0  0  0  0
  -16.9816   18.3256   18.2966 C   0  0  0  0  0  0  0  0  0  0  0  0
  -18.2090   18.5492   17.4097 C   0  0  0  0  0  0  0  0  0  0  0  0
  -17.9144   22.0785   17.0273 O   0  0  0  0  0  0  0  0  0  0  0  0
  -14.6672   18.9947   18.4989 O   0  0  0  0  0  0  0  0  0  0  0  0
  -13.9520   19.5953   18.4232 H   0  0  0  0  0  0  0  0  0  0  0  0
  -17.8904   17.9971   16.0092 C   0  0  0  0  0  0  0  0  0  0  0  0
  -19.1131   17.7938   15.1135 C   0  0  0  0  0  0  0  0  0  0  0  0
  -18.8270   16.7452   14.0660 C   0  0  0  0  0  0  0  0  0  0  0  0
  -19.4317   17.8648   18.0263 C   0  0  0  0  0  0  0  0  0  0  0  0
  -20.5977   18.8026   18.3467 C   0  0  0  0  0  0  0  0  0  0  0  0
  -21.2752   18.3240   19.6172 C   0  0  0  0  0  0  0  0  0  0  0  0
  -20.7520   17.2251   20.2981 C   0  0  0  0  0  0  0  0  0  0  0  0
  -21.3633   16.7624   21.4597 C   0  0  0  0  0  0  0  0  0  0  0  0
  -22.4946   17.4071   21.9540 C   0  0  0  0  0  0  0  0  0  0  0  0
  -23.0218   18.5133   21.2766 C   0  0  0  0  0  0  0  0  0  0  0  0
  -22.4106   18.9725   20.1101 C   0  0  0  0  0  0  0  0  0  0  0  0
  -14.6738   21.9372   16.1606 C   0  0  0  0  0  0  0  0  0  0  0  0
  -15.1477   21.1320   15.1208 C   0  0  0  0  0  0  0  0  0  0  0  0
  -14.7100   21.3359   13.8149 C   0  0  0  0  0  0  0  0  0  0  0  0
  -13.7979   22.3445   13.5295 C   0  0  0  0  0  0  0  0  0  0  0  0
  -13.3161   23.1672   14.5410 C   0  0  0  0  0  0  0  0  0  0  0  0
  -13.7547   22.9535   15.8510 C   0  0  0  0  0  0  0  0  0  0  0  0
  -12.4176   24.1547   14.2403 N   0  0  0  0  0  0  0  0  0  0  0  0
  -12.6775   24.8681   13.6136 H   0  0  0  0  0  0  0  0  0  0  0  0
  -10.9364   24.1744   14.8933 S   0  0  0  0  0  0  0  0  0  0  0  0
  -10.1870   25.2097   14.1984 O   0  0  0  0  0  0  0  0  0  0  0  0
  -10.3759   22.8388   14.8018 O   0  0  0  0  0  0  0  0  0  0  0  0
  -11.2233   24.5967   16.4308 C   0  0  0  0  0  0  0  0  0  0  0  0
  -11.3350   25.9143   16.7676 N   0  0  0  0  0  0  0  0  0  0  0  0
  -11.6160   26.3023   18.0292 C   0  0  0  0  0  0  0  0  0  0  0  0
  -11.8122   25.3733   19.0486 C   0  0  0  0  0  0  0  0  0  0  0  0
  -11.7205   24.0137   18.7288 C   0  0  0  0  0  0  0  0  0  0  0  0
  -11.4197   23.6141   17.4204 C   0  0  0  0  0  0  0  0  0  0  0  0
  -12.1683   25.8288   20.4433 C   0  0  0  0  0  0  0  0  0  0  0  0
  -11.7559   27.0533   20.7245 F   0  0  0  0  0  0  0  0  0  0  0  0
  -11.7468   24.9915   21.3665 F   0  0  0  0  0  0  0  0  0  0  0  0
  -13.4923   25.8608   20.4788 F   0  0  0  0  0  0  0  0  0  0  0  0
  -15.5477   23.0751   18.2373 C   0  0  0  0  0  0  0  0  0  0  0  0
  -15.1322   23.2248   19.6883 C   0  0  0  0  0  0  0  0  0  0  0  0
  2  3  1  0  0  0
  2  7  1  0  0  0
  3  4  1  0  0  0
  3  8  2  0  0  0
  4  5  2  0  0  0
  4  1  1  0  0  0
  5  6  1  0  0  0
  5  9  1  0  0  0
  6  7  1  0  0  0
  7 11  1  0  0  0
  7 14  1  0  0  0
 11 12  1  0  0  0
 12 13  1  0  0  0
 14 15  1  0  0  0
 15 16  1  0  0  0
 16 17  2  0  0  0
 16 21  1  0  0  0
 17 18  1  0  0  0
 18 19  2  0  0  0
 19 20  1  0  0  0
 20 21  2  0  0  0
  1 43  1  0  0  0
  1 22  1  0  0  0
 43 44  1  0  0  0
 22 23  2  0  0  0
 22 27  1  0  0  0
 23 24  1  0  0  0
 24 25  2  0  0  0
 25 26  1  0  0  0
 26 28  1  0  0  0
 26 27  2  0  0  0
 28 30  1  0  0  0
 30 31  2  0  0  0
 30 32  2  0  0  0
 30 33  1  0  0  0
 33 34  2  0  0  0
 33 38  1  0  0  0
 34 35  1  0  0  0
 35 36  2  0  0  0
 36 37  1  0  0  0
 36 39  1  0  0  0
 37 38  2  0  0  0
 39 40  1  0  0  0
 39 41  1  0  0  0
 39 42  1  0  0  0
  9 10  1  0  0  0
 28 29  1  0  0  0
M  END
> <minimizedAffinity>
-10.06502

$$$$
2O4L_TPV_A_403


 44 47  0  0  0  0  0  0  0  0999 V2000
  -18.5574   18.6534   17.5178 C   0  0  0  0  0  0  0  0  0  0  0  0
  -15.0073   19.8469   18.4955 O   0  0  0  0  0  0  0  0  0  0  0  0
  -16.1777   19.0309   18.3382 C   0  0  0  0  0  0  0  0  0  0  0  0
  -17.3768   19.5969   17.7160 C   0  0  0  0  0  0  0  0  0  0  0  0
  -17.3861   20.9227   17.4136 C   0  0  0  0  0  0  0  0  0  0  0  0
  -16.2050   21.8264   17.7225 C   0  0  0  0  0  0  0  0  0  0  0  0
  -14.8598   21.1033   17.8252 C   0  0  0  0  0  0  0  0  0  0  0  0
  -16.0872   17.8926   18.7603 O   0  0  0  0  0  0  0  0  0  0  0  0
  -18.4439   21.5095   16.8672 O   0  0  0  0  0  0  0  0  0  0  0  0
  -19.2029   21.0028   16.6544 H   0  0  0  0  0  0  0  0  0  0  0  0
  -14.3228   20.8934   16.3987 C   0  0  0  0  0  0  0  0  0  0  0  0
  -14.3897   22.1334   15.5061 C   0  0  0  0  0  0  0  0  0  0  0  0
  -14.6042   21.7322   14.0667 C   0  0  0  0  0  0  0  0  0  0  0  0
  -13.8906   21.9207   18.6833 C   0  0  0  0  0  0  0  0  0  0  0  0
  -14.3685   23.3348   19.0200 C   0  0  0  0  0  0  0  0  0  0  0  0
  -13.1643   24.2557   19.0837 C   0  0  0  0  0  0  0  0  0  0  0  0
  -12.1025   24.0538   18.2023 C   0  0  0  0  0  0  0  0  0  0  0  0
  -10.9834   24.8799   18.2499 C   0  0  0  0  0  0  0  0  0  0  0  0
  -10.9277   25.9224   19.1718 C   0  0  0  0  0  0  0  0  0  0  0  0
  -11.9925   26.1321   20.0565 C   0  0  0  0  0  0  0  0  0  0  0  0
  -13.1111   25.3003   20.0103 C   0  0  0  0  0  0  0  0  0  0  0  0
  -19.6049   18.8738   18.5830 C   0  0  0  0  0  0  0  0  0  0  0  0
  -19.3554   19.6521   19.7170 C   0  0  0  0  0  0  0  0  0  0  0  0
  -20.3437   19.8313   20.6813 C   0  0  0  0  0  0  0  0  0  0  0  0
  -21.5913   19.2397   20.5262 C   0  0  0  0  0  0  0  0  0  0  0  0
  -21.8720   18.4680   19.4048 C   0  0  0  0  0  0  0  0  0  0  0  0
  -20.8735   18.2869   18.4432 C   0  0  0  0  0  0  0  0  0  0  0  0
  -23.1064   17.8928   19.2703 N   0  0  0  0  0  0  0  0  0  0  0  0
  -23.9091   18.4622   19.2993 H   0  0  0  0  0  0  0  0  0  0  0  0
  -23.2747   16.2959   19.0645 S   0  0  0  0  0  0  0  0  0  0  0  0
  -24.7037   16.0227   19.0650 O   0  0  0  0  0  0  0  0  0  0  0  0
  -22.5152   15.6166   20.0979 O   0  0  0  0  0  0  0  0  0  0  0  0
  -22.6361   16.0500   17.5960 C   0  0  0  0  0  0  0  0  0  0  0  0
  -23.3264   16.4239   16.4798 N   0  0  0  0  0  0  0  0  0  0  0  0
  -22.8085   16.2744   15.2427 C   0  0  0  0  0  0  0  0  0  0  0  0
  -21.5388   15.7358   15.0465 C   0  0  0  0  0  0  0  0  0  0  0  0
  -20.8005   15.3589   16.1744 C   0  0  0  0  0  0  0  0  0  0  0  0
  -21.3442   15.5069   17.4568 C   0  0  0  0  0  0  0  0  0  0  0  0
  -20.9622   15.6178   13.6562 C   0  0  0  0  0  0  0  0  0  0  0  0
  -20.5804   16.7731   13.1388 F   0  0  0  0  0  0  0  0  0  0  0  0
  -21.7776   15.0033   12.8263 F   0  0  0  0  0  0  0  0  0  0  0  0
  -19.8665   14.8846   13.7876 F   0  0  0  0  0  0  0  0  0  0  0  0
  -19.1704   18.6690   16.1050 C   0  0  0  0  0  0  0  0  0  0  0  0
  -18.3526   17.9326   15.0612 C   0  0  0  0  0  0  0  0  0  0  0  0
  2  3  1  0  0  0
  2  7  1  0  0  0
  3  4  1  0  0  0
  3  8  2  0  0  0
  4  5  2  0  0  0
  4  1  1  0  0  0
  5  6  1  0  0  0
  5  9  1  0  0  0
  6  7  1  0  0  0
  7 11  1  0  0  0
  7 14  1  0  0  0
 11 12  1  0  0  0
 12 13  1  0  0  0
 14 15  1  0  0  0
 15 16  1  0  0  0
 16 17  2  0  0  0
 16 21  1  0  0  0
 17 18  1  0  0  0
 18 19  2  0  0  0
 19 20  1  0  0  0
 20 21  2  0  0  0
  1 43  1  0  0  0
  1 22  1  0  0  0
 43 44  1  0  0  0
 22 23  2  0  0  0
 22 27  1  0  0  0
 23 24  1  0  0  0
 24 25  2  0  0  0
 25 26  1  0  0  0
 26 28  1  0  0  0
 26 27  2  0  0  0
 28 30  1  0  0  0
 30 31  2  0  0  0
 30 32  2  0  0  0
 30 33  1  0  0  0
 33 34  2  0  0  0
 33 38  1  0  0  0
 34 35  1  0  0  0
 35 36  2  0  0  0
 36 37  1  0  0  0
 36 39  1  0  0  0
 37 38  2  0  0  0
 39 40  1  0  0  0
 39 41  1  0  0  0
 39 42  1  0  0  0
  9 10  1  0  0  0
 28 29  1  0  0  0
M  END
> <minimizedAffinity>
-10.03854

$$$$
2O4L_TPV_A_403


 44 47  0  0  0  0  0  0  0  0999 V2000
  -18.9590   18.4839   17.6340 C   0  0  0  0  0  0  0  0  0  0  0  0
  -15.3193   19.5693   18.3808 O   0  0  0  0  0  0  0  0  0  0  0  0
  -16.5255   18.7942   18.3125 C   0  0  0  0  0  0  0  0  0  0  0  0
  -17.7357   19.3871   17.7386 C   0  0  0  0  0  0  0  0  0  0  0  0
  -17.7133   20.7029   17.3960 C   0  0  0  0  0  0  0  0  0  0  0  0
  -16.4848   21.5696   17.6123 C   0  0  0  0  0  0  0  0  0  0  0  0
  -15.1632   20.7991   17.6647 C   0  0  0  0  0  0  0  0  0  0  0  0
  -16.4534   17.6661   18.7644 O   0  0  0  0  0  0  0  0  0  0  0  0
  -18.7776   21.3134   16.8895 O   0  0  0  0  0  0  0  0  0  0  0  0
  -19.5651   20.8300   16.7339 H   0  0  0  0  0  0  0  0  0  0  0  0
  -14.7138   20.5274   16.2184 C   0  0  0  0  0  0  0  0  0  0  0  0
  -13.5909   21.4384   15.7206 C   0  0  0  0  0  0  0  0  0  0  0  0
  -14.1080   22.3731   14.6540 C   0  0  0  0  0  0  0  0  0  0  0  0
  -14.1190   21.6036   18.4433 C   0  0  0  0  0  0  0  0  0  0  0  0
  -14.6496   22.8834   19.0930 C   0  0  0  0  0  0  0  0  0  0  0  0
  -13.4848   23.8220   19.3470 C   0  0  0  0  0  0  0  0  0  0  0  0
  -13.4654   24.5869   20.5131 C   0  0  0  0  0  0  0  0  0  0  0  0
  -12.4122   25.4620   20.7616 C   0  0  0  0  0  0  0  0  0  0  0  0
  -11.3645   25.5656   19.8497 C   0  0  0  0  0  0  0  0  0  0  0  0
  -11.3769   24.7971   18.6793 C   0  0  0  0  0  0  0  0  0  0  0  0
  -12.4356   23.9242   18.4298 C   0  0  0  0  0  0  0  0  0  0  0  0
  -19.8587   18.6582   18.8344 C   0  0  0  0  0  0  0  0  0  0  0  0
  -19.6071   19.6227   19.8144 C   0  0  0  0  0  0  0  0  0  0  0  0
  -20.4562   19.7534   20.9101 C   0  0  0  0  0  0  0  0  0  0  0  0
  -21.5657   18.9273   21.0411 C   0  0  0  0  0  0  0  0  0  0  0  0
  -21.8469   17.9653   20.0780 C   0  0  0  0  0  0  0  0  0  0  0  0
  -20.9872   17.8350   18.9833 C   0  0  0  0  0  0  0  0  0  0  0  0
  -22.9439   17.1605   20.2250 N   0  0  0  0  0  0  0  0  0  0  0  0
  -22.8213   16.1858   20.2894 H   0  0  0  0  0  0  0  0  0  0  0  0
  -24.4390   17.7775   20.2951 S   0  0  0  0  0  0  0  0  0  0  0  0
  -24.3003   19.2221   20.1929 O   0  0  0  0  0  0  0  0  0  0  0  0
  -25.0759   17.3022   21.5095 O   0  0  0  0  0  0  0  0  0  0  0  0
  -25.1464   17.1659   18.9721 C   0  0  0  0  0  0  0  0  0  0  0  0
  -24.7356   15.9648   18.4715 N   0  0  0  0  0  0  0  0  0  0  0  0
  -25.3296   15.4039   17.3974 C   0  0  0  0  0  0  0  0  0  0  0  0
  -26.3969   16.0233   16.7510 C   0  0  0  0  0  0  0  0  0  0  0  0
  -26.8509   17.2486   17.2529 C   0  0  0  0  0  0  0  0  0  0  0  0
  -26.2267   17.8327   18.3625 C   0  0  0  0  0  0  0  0  0  0  0  0
  -27.0740   15.3569   15.5777 C   0  0  0  0  0  0  0  0  0  0  0  0
  -27.9102   14.3926   15.9233 F   0  0  0  0  0  0  0  0  0  0  0  0
  -26.2120   14.9058   14.6920 F   0  0  0  0  0  0  0  0  0  0  0  0
  -27.8061   16.3022   15.0069 F   0  0  0  0  0  0  0  0  0  0  0  0
  -19.7425   18.6030   16.3135 C   0  0  0  0  0  0  0  0  0  0  0  0
  -19.2604   17.6745   15.2153 C   0  0  0  0  0  0  0  0  0  0  0  0
  2  3  1  0  0  0
  2  7  1  0  0  0
  3  4  1  0  0  0
  3  8  2  0  0  0
  4  5  2  0  0  0
  4  1  1  0  0  0
  5  6  1  0  0  0
  5  9  1  0  0  0
  6  7  1  0  0  0
  7 11  1  0  0  0
  7 14  1  0  0  0
 11 12  1  0  0  0
 12 13  1  0  0  0
 14 15  1  0  0  0
 15 16  1  0  0  0
 16 17  2  0  0  0
 16 21  1  0  0  0
 17 18  1  0  0  0
 18 19  2  0  0  0
 19 20  1  0  0  0
 20 21  2  0  0  0
  1 43  1  0  0  0
  1 22  1  0  0  0
 43 44  1  0  0  0
 22 23  2  0  0  0
 22 27  1  0  0  0
 23 24  1  0  0  0
 24 25  2  0  0  0
 25 26  1  0  0  0
 26 28  1  0  0  0
 26 27  2  0  0  0
 28 30  1  0  0  0
 30 31  2  0  0  0
 30 32  2  0  0  0
 30 33  1  0  0  0
 33 34  2  0  0  0
 33 38  1  0  0  0
 34 35  1  0  0  0
 35 36  2  0  0  0
 36 37  1  0  0  0
 36 39  1  0  0  0
 37 38  2  0  0  0
 39 40  1  0  0  0
 39 41  1  0  0  0
 39 42  1  0  0  0
  9 10  1  0  0  0
 28 29  1  0  0  0
M  END
> <minimizedAffinity>
-9.95528

$$$$
2O4L_TPV_A_403


 44 47  0  0  0  0  0  0  0  0999 V2000
  -17.8607   18.8126   17.7386 C   0  0  0  0  0  0  0  0  0  0  0  0
  -16.4187   22.3982   17.5216 O   0  0  0  0  0  0  0  0  0  0  0  0
  -17.3099   21.2773   17.4224 C   0  0  0  0  0  0  0  0  0  0  0  0
  -16.8403   19.9430   17.8026 C   0  0  0  0  0  0  0  0  0  0  0  0
  -15.5288   19.7848   18.1256 C   0  0  0  0  0  0  0  0  0  0  0  0
  -14.5443   20.9406   18.0804 C   0  0  0  0  0  0  0  0  0  0  0  0
  -15.1796   22.3246   18.2349 C   0  0  0  0  0  0  0  0  0  0  0  0
  -18.4251   21.5263   17.0026 O   0  0  0  0  0  0  0  0  0  0  0  0
  -15.0273   18.6024   18.4605 O   0  0  0  0  0  0  0  0  0  0  0  0
  -15.5866   17.8519   18.5051 H   0  0  0  0  0  0  0  0  0  0  0  0
  -15.4055   22.5791   19.7355 C   0  0  0  0  0  0  0  0  0  0  0  0
  -14.9800   23.9674   20.2153 C   0  0  0  0  0  0  0  0  0  0  0  0
  -13.9902   23.8497   21.3489 C   0  0  0  0  0  0  0  0  0  0  0  0
  -14.2752   23.3885   17.6073 C   0  0  0  0  0  0  0  0  0  0  0  0
  -12.8713   22.9018   17.2415 C   0  0  0  0  0  0  0  0  0  0  0  0
  -12.8421   22.5599   15.7635 C   0  0  0  0  0  0  0  0  0  0  0  0
  -11.6341   22.1930   15.1708 C   0  0  0  0  0  0  0  0  0  0  0  0
  -11.5820   21.8853   13.8146 C   0  0  0  0  0  0  0  0  0  0  0  0
  -12.7432   21.9297   13.0466 C   0  0  0  0  0  0  0  0  0  0  0  0
  -13.9594   22.2936   13.6373 C   0  0  0  0  0  0  0  0  0  0  0  0
  -14.0087   22.6062   14.9956 C   0  0  0  0  0  0  0  0  0  0  0  0
  -18.8345   18.9031   18.8894 C   0  0  0  0  0  0  0  0  0  0  0  0
  -18.4255   19.2527   20.1796 C   0  0  0  0  0  0  0  0  0  0  0  0
  -19.3503   19.3232   21.2181 C   0  0  0  0  0  0  0  0  0  0  0  0
  -20.6920   19.0488   20.9833 C   0  0  0  0  0  0  0  0  0  0  0  0
  -21.1300   18.7076   19.7090 C   0  0  0  0  0  0  0  0  0  0  0  0
  -20.1956   18.6326   18.6719 C   0  0  0  0  0  0  0  0  0  0  0  0
  -22.4553   18.4401   19.4976 N   0  0  0  0  0  0  0  0  0  0  0  0
  -23.0264   19.1287   19.0868 H   0  0  0  0  0  0  0  0  0  0  0  0
  -23.1039   17.0149   19.9090 S   0  0  0  0  0  0  0  0  0  0  0  0
  -23.7526   17.2071   21.1970 O   0  0  0  0  0  0  0  0  0  0  0  0
  -22.0569   16.0102   19.8881 O   0  0  0  0  0  0  0  0  0  0  0  0
  -24.1963   16.7623   18.7396 C   0  0  0  0  0  0  0  0  0  0  0  0
  -23.8894   15.9581   17.6807 N   0  0  0  0  0  0  0  0  0  0  0  0
  -24.7880   15.6902   16.7101 C   0  0  0  0  0  0  0  0  0  0  0  0
  -26.0766   16.2181   16.7468 C   0  0  0  0  0  0  0  0  0  0  0  0
  -26.4251   17.0329   17.8303 C   0  0  0  0  0  0  0  0  0  0  0  0
  -25.4876   17.3166   18.8315 C   0  0  0  0  0  0  0  0  0  0  0  0
  -27.0789   15.8700   15.6728 C   0  0  0  0  0  0  0  0  0  0  0  0
  -28.0706   15.1058   16.0980 F   0  0  0  0  0  0  0  0  0  0  0  0
  -26.5132   15.3235   14.6181 F   0  0  0  0  0  0  0  0  0  0  0  0
  -27.6221   17.0220   15.3078 F   0  0  0  0  0  0  0  0  0  0  0  0
  -18.5873   18.6700   16.3883 C   0  0  0  0  0  0  0  0  0  0  0  0
  -17.7645   18.0007   15.3039 C   0  0  0  0  0  0  0  0  0  0  0  0
  2  3  1  0  0  0
  2  7  1  0  0  0
  3  4  1  0  0  0
  3  8  2  0  0  0
  4  5  2  0  0  0
  4  1  1  0  0  0
  5  6  1  0  0  0
  5  9  1  0  0  0
  6  7  1  0  0  0
  7 11  1  0  0  0
  7 14  1  0  0  0
 11 12  1  0  0  0
 12 13  1  0  0  0
 14 15  1  0  0  0
 15 16  1  0  0  0
 16 17  2  0  0  0
 16 21  1  0  0  0
 17 18  1  0  0  0
 18 19  2  0  0  0
 19 20  1  0  0  0
 20 21  2  0  0  0
  1 43  1  0  0  0
  1 22  1  0  0  0
 43 44  1  0  0  0
 22 23  2  0  0  0
 22 27  1  0  0  0
 23 24  1  0  0  0
 24 25  2  0  0  0
 25 26  1  0  0  0
 26 28  1  0  0  0
 26 27  2  0  0  0
 28 30  1  0  0  0
 30 31  2  0  0  0
 30 32  2  0  0  0
 30 33  1  0  0  0
 33 34  2  0  0  0
 33 38  1  0  0  0
 34 35  1  0  0  0
 35 36  2  0  0  0
 36 37  1  0  0  0
 36 39  1  0  0  0
 37 38  2  0  0  0
 39 40  1  0  0  0
 39 41  1  0  0  0
 39 42  1  0  0  0
  9 10  1  0  0  0
 28 29  1  0  0  0
M  END
> <minimizedAffinity>
-9.93153

$$$$
2O4L_TPV_A_403


 44 47  0  0  0  0  0  0  0  0999 V2000
  -21.0633   18.3382   20.7056 C   0  0  0  0  0  0  0  0  0  0  0  0
  -18.8257   20.8451   18.7843 O   0  0  0  0  0  0  0  0  0  0  0  0
  -19.7994   20.2980   19.6860 C   0  0  0  0  0  0  0  0  0  0  0  0
  -20.0694   18.8585   19.6738 C   0  0  0  0  0  0  0  0  0  0  0  0
  -19.4735   18.0951   18.7192 C   0  0  0  0  0  0  0  0  0  0  0  0
  -18.5624   18.6951   17.6623 C   0  0  0  0  0  0  0  0  0  0  0  0
  -17.9052   20.0177   18.0647 C   0  0  0  0  0  0  0  0  0  0  0  0
  -20.3570   21.1020   20.4104 O   0  0  0  0  0  0  0  0  0  0  0  0
  -19.6863   16.7877   18.6336 O   0  0  0  0  0  0  0  0  0  0  0  0
  -20.2398   16.3613   19.2580 H   0  0  0  0  0  0  0  0  0  0  0  0
  -16.6782   19.6935   18.9348 C   0  0  0  0  0  0  0  0  0  0  0  0
  -16.2113   20.8436   19.8279 C   0  0  0  0  0  0  0  0  0  0  0  0
  -14.7560   21.1506   19.5694 C   0  0  0  0  0  0  0  0  0  0  0  0
  -17.5216   20.8132   16.8142 C   0  0  0  0  0  0  0  0  0  0  0  0
  -16.5636   20.0913   15.8640 C   0  0  0  0  0  0  0  0  0  0  0  0
  -15.4539   21.0476   15.4689 C   0  0  0  0  0  0  0  0  0  0  0  0
  -15.1302   21.1989   14.1207 C   0  0  0  0  0  0  0  0  0  0  0  0
  -14.1089   22.0626   13.7363 C   0  0  0  0  0  0  0  0  0  0  0  0
  -13.4150   22.7910   14.6995 C   0  0  0  0  0  0  0  0  0  0  0  0
  -13.7385   22.6460   16.0541 C   0  0  0  0  0  0  0  0  0  0  0  0
  -14.7591   21.7764   16.4378 C   0  0  0  0  0  0  0  0  0  0  0  0
  -22.4044   18.0639   20.0677 C   0  0  0  0  0  0  0  0  0  0  0  0
  -23.4743   18.9564   20.1803 C   0  0  0  0  0  0  0  0  0  0  0  0
  -24.6984   18.6697   19.5820 C   0  0  0  0  0  0  0  0  0  0  0  0
  -24.8702   17.4928   18.8636 C   0  0  0  0  0  0  0  0  0  0  0  0
  -23.8219   16.5904   18.7264 C   0  0  0  0  0  0  0  0  0  0  0  0
  -22.5972   16.8812   19.3346 C   0  0  0  0  0  0  0  0  0  0  0  0
  -24.0107   15.4363   18.0156 N   0  0  0  0  0  0  0  0  0  0  0  0
  -24.0073   14.5730   18.4888 H   0  0  0  0  0  0  0  0  0  0  0  0
  -24.2395   15.4608   16.4132 S   0  0  0  0  0  0  0  0  0  0  0  0
  -25.1947   16.5245   16.1435 O   0  0  0  0  0  0  0  0  0  0  0  0
  -24.6530   14.1363   15.9875 O   0  0  0  0  0  0  0  0  0  0  0  0
  -22.7712   15.8392   15.8427 C   0  0  0  0  0  0  0  0  0  0  0  0
  -21.7411   14.9529   15.9669 N   0  0  0  0  0  0  0  0  0  0  0  0
  -20.5157   15.2153   15.4661 C   0  0  0  0  0  0  0  0  0  0  0  0
  -20.2456   16.4037   14.7913 C   0  0  0  0  0  0  0  0  0  0  0  0
  -21.2879   17.3246   14.6338 C   0  0  0  0  0  0  0  0  0  0  0  0
  -22.5564   17.0535   15.1625 C   0  0  0  0  0  0  0  0  0  0  0  0
  -18.8790   16.6573   14.2017 C   0  0  0  0  0  0  0  0  0  0  0  0
  -18.3488   15.5986   13.6131 F   0  0  0  0  0  0  0  0  0  0  0  0
  -18.0358   17.1478   15.0846 F   0  0  0  0  0  0  0  0  0  0  0  0
  -19.0649   17.5618   13.2516 F   0  0  0  0  0  0  0  0  0  0  0  0
  -20.5703   17.1365   21.5330 C   0  0  0  0  0  0  0  0  0  0  0  0
  -21.5476   16.6647   22.5927 C   0  0  0  0  0  0  0  0  0  0  0  0
  2  3  1  0  0  0
  2  7  1  0  0  0
  3  4  1  0  0  0
  3  8  2  0  0  0
  4  5  2  0  0  0
  4  1  1  0  0  0
  5  6  1  0  0  0
  5  9  1  0  0  0
  6  7  1  0  0  0
  7 11  1  0  0  0
  7 14  1  0  0  0
 11 12  1  0  0  0
 12 13  1  0  0  0
 14 15  1  0  0  0
 15 16  1  0  0  0
 16 17  2  0  0  0
 16 21  1  0  0  0
 17 18  1  0  0  0
 18 19  2  0  0  0
 19 20  1  0  0  0
 20 21  2  0  0  0
  1 43  1  0  0  0
  1 22  1  0  0  0
 43 44  1  0  0  0
 22 23  2  0  0  0
 22 27  1  0  0  0
 23 24  1  0  0  0
 24 25  2  0  0  0
 25 26  1  0  0  0
 26 28  1  0  0  0
 26 27  2  0  0  0
 28 30  1  0  0  0
 30 31  2  0  0  0
 30 32  2  0  0  0
 30 33  1  0  0  0
 33 34  2  0  0  0
 33 38  1  0  0  0
 34 35  1  0  0  0
 35 36  2  0  0  0
 36 37  1  0  0  0
 36 39  1  0  0  0
 37 38  2  0  0  0
 39 40  1  0  0  0
 39 41  1  0  0  0
 39 42  1  0  0  0
  9 10  1  0  0  0
 28 29  1  0  0  0
M  END
> <minimizedAffinity>
-9.88535

$$$$
2O4L_TPV_A_403


 44 47  0  0  0  0  0  0  0  0999 V2000
  -17.7193   18.9156   17.6433 C   0  0  0  0  0  0  0  0  0  0  0  0
  -16.3160   22.5215   17.7518 O   0  0  0  0  0  0  0  0  0  0  0  0
  -17.1896   21.4029   17.5375 C   0  0  0  0  0  0  0  0  0  0  0  0
  -16.7155   20.0477   17.8273 C   0  0  0  0  0  0  0  0  0  0  0  0
  -15.4126   19.8779   18.1783 C   0  0  0  0  0  0  0  0  0  0  0  0
  -14.4416   21.0434   18.2543 C   0  0  0  0  0  0  0  0  0  0  0  0
  -15.0985   22.4047   18.4960 C   0  0  0  0  0  0  0  0  0  0  0  0
  -18.2945   21.6728   17.1033 O   0  0  0  0  0  0  0  0  0  0  0  0
  -14.9070   18.6780   18.4358 O   0  0  0  0  0  0  0  0  0  0  0  0
  -15.4580   17.9208   18.4042 H   0  0  0  0  0  0  0  0  0  0  0  0
  -15.3736   22.5388   20.0039 C   0  0  0  0  0  0  0  0  0  0  0  0
  -15.1546   23.9436   20.5670 C   0  0  0  0  0  0  0  0  0  0  0  0
  -14.2074   23.8959   21.7415 C   0  0  0  0  0  0  0  0  0  0  0  0
  -14.1885   23.5235   17.9821 C   0  0  0  0  0  0  0  0  0  0  0  0
  -12.6953   23.1892   17.9888 C   0  0  0  0  0  0  0  0  0  0  0  0
  -11.9048   24.4832   18.0408 C   0  0  0  0  0  0  0  0  0  0  0  0
  -12.0372   25.3208   19.1480 C   0  0  0  0  0  0  0  0  0  0  0  0
  -11.3298   26.5176   19.2121 C   0  0  0  0  0  0  0  0  0  0  0  0
  -10.4741   26.8757   18.1731 C   0  0  0  0  0  0  0  0  0  0  0  0
  -10.3343   26.0368   17.0608 C   0  0  0  0  0  0  0  0  0  0  0  0
  -11.0477   24.8401   16.9963 C   0  0  0  0  0  0  0  0  0  0  0  0
  -18.7195   18.8965   18.7746 C   0  0  0  0  0  0  0  0  0  0  0  0
  -18.3448   19.1436   20.0984 C   0  0  0  0  0  0  0  0  0  0  0  0
  -19.2933   19.1144   21.1173 C   0  0  0  0  0  0  0  0  0  0  0  0
  -20.6249   18.8412   20.8294 C   0  0  0  0  0  0  0  0  0  0  0  0
  -21.0291   18.6007   19.5215 C   0  0  0  0  0  0  0  0  0  0  0  0
  -20.0710   18.6254   18.5038 C   0  0  0  0  0  0  0  0  0  0  0  0
  -22.3449   18.3326   19.2579 N   0  0  0  0  0  0  0  0  0  0  0  0
  -22.8826   18.9949   18.7664 H   0  0  0  0  0  0  0  0  0  0  0  0
  -23.0361   16.9494   19.7373 S   0  0  0  0  0  0  0  0  0  0  0  0
  -23.6585   17.2174   21.0247 O   0  0  0  0  0  0  0  0  0  0  0  0
  -22.0248   15.9085   19.7445 O   0  0  0  0  0  0  0  0  0  0  0  0
  -24.1538   16.6870   18.5942 C   0  0  0  0  0  0  0  0  0  0  0  0
  -23.8718   15.8700   17.5383 N   0  0  0  0  0  0  0  0  0  0  0  0
  -24.7916   15.5939   16.5901 C   0  0  0  0  0  0  0  0  0  0  0  0
  -26.0776   16.1263   16.6481 C   0  0  0  0  0  0  0  0  0  0  0  0
  -26.4006   16.9545   17.7293 C   0  0  0  0  0  0  0  0  0  0  0  0
  -25.4412   17.2465   18.7072 C   0  0  0  0  0  0  0  0  0  0  0  0
  -27.1034   15.7693   15.5995 C   0  0  0  0  0  0  0  0  0  0  0  0
  -28.0702   14.9855   16.0462 F   0  0  0  0  0  0  0  0  0  0  0  0
  -26.5584   15.2400   14.5254 F   0  0  0  0  0  0  0  0  0  0  0  0
  -27.6756   16.9146   15.2587 F   0  0  0  0  0  0  0  0  0  0  0  0
  -18.4136   18.8812   16.2691 C   0  0  0  0  0  0  0  0  0  0  0  0
  -18.0403   17.6879   15.4104 C   0  0  0  0  0  0  0  0  0  0  0  0
  2  3  1  0  0  0
  2  7  1  0  0  0
  3  4  1  0  0  0
  3  8  2  0  0  0
  4  5  2  0  0  0
  4  1  1  0  0  0
  5  6  1  0  0  0
  5  9  1  0  0  0
  6  7  1  0  0  0
  7 11  1  0  0  0
  7 14  1  0  0  0
 11 12  1  0  0  0
 12 13  1  0  0  0
 14 15  1  0  0  0
 15 16  1  0  0  0
 16 17  2  0  0  0
 16 21  1  0  0  0
 17 18  1  0  0  0
 18 19  2  0  0  0
 19 20  1  0  0  0
 20 21  2  0  0  0
  1 43  1  0  0  0
  1 22  1  0  0  0
 43 44  1  0  0  0
 22 23  2  0  0  0
 22 27  1  0  0  0
 23 24  1  0  0  0
 24 25  2  0  0  0
 25 26  1  0  0  0
 26 28  1  0  0  0
 26 27  2  0  0  0
 28 30  1  0  0  0
 30 31  2  0  0  0
 30 32  2  0  0  0
 30 33  1  0  0  0
 33 34  2  0  0  0
 33 38  1  0  0  0
 34 35  1  0  0  0
 35 36  2  0  0  0
 36 37  1  0  0  0
 36 39  1  0  0  0
 37 38  2  0  0  0
 39 40  1  0  0  0
 39 41  1  0  0  0
 39 42  1  0  0  0
  9 10  1  0  0  0
 28 29  1  0  0  0
M  END
> <minimizedAffinity>
-9.84078

$$$$
