2O4L_TPV_A_403
  RCSB PDB12061706283D
Coordinates from PDB:2O4L:A:403 Model:1 without hydrogens
 42 45  0  0  0  0            999 V2000
  -16.0880   22.0460   17.0640   O 0  0  0  0  0  0  0  0  0  0  0  0
  -17.3050   21.3080   17.2500   C 0  0  0  0  0  0  0  0  0  0  0  0
  -17.2570   19.9700   17.8440   C 0  0  0  0  0  0  0  0  0  0  0  0
  -16.0410   19.4140   18.0920   C 0  0  0  0  0  0  0  0  0  0  0  0
  -14.7450   20.1290   17.7510   C 0  0  0  0  0  0  0  0  0  0  0  0
  -14.8580   21.6540   17.6830   C 0  0  0  0  0  0  0  0  0  0  0  0
  -18.3210   21.8640   16.8750   O 0  0  0  0  0  0  0  0  0  0  0  0
  -15.9190   18.1980   18.6100   O 0  0  0  0  0  0  0  0  0  0  0  0
  -14.7790   22.2010   19.1190   C 0  0  0  0  0  0  0  0  0  0  0  0
  -14.9540   23.7160   19.2320   C 0  0  0  0  0  0  0  0  0  0  0  0
  -14.8230   24.1530   20.6710   C 0  0  0  0  0  0  0  0  0  0  0  0
  -13.7470   22.2220   16.7960   C 0  0  0  0  0  0  0  0  0  0  0  0
  -13.8150   21.7920   15.3290   C 0  0  0  0  0  0  0  0  0  0  0  0
  -12.7100   22.4940   14.5620   C 0  0  0  0  0  0  0  0  0  0  0  0
  -11.4090   21.9960   14.6290   C 0  0  0  0  0  0  0  0  0  0  0  0
  -10.3780   22.6300   13.9420   C 0  0  0  0  0  0  0  0  0  0  0  0
  -10.6470   23.7590   13.1720   C 0  0  0  0  0  0  0  0  0  0  0  0
  -11.9520   24.2610   13.0980   C 0  0  0  0  0  0  0  0  0  0  0  0
  -12.9830   23.6270   13.7910   C 0  0  0  0  0  0  0  0  0  0  0  0
  -18.5930   19.2740   18.0760   C 0  0  0  0  0  0  0  0  0  0  0  0
  -18.6860   18.4680   19.3850   C 0  0  0  0  0  0  0  0  0  0  0  0
  -18.5710   19.3060   20.6440   C 0  0  0  0  0  0  0  0  0  0  0  0
  -18.9780   18.4390   16.8780   C 0  0  0  0  0  0  0  0  0  0  0  0
  -18.0340   18.0090   15.9410   C 0  0  0  0  0  0  0  0  0  0  0  0
  -18.4250   17.2430   14.8460   C 0  0  0  0  0  0  0  0  0  0  0  0
  -19.7590   16.8950   14.6730   C 0  0  0  0  0  0  0  0  0  0  0  0
  -20.7190   17.3000   15.5930   C 0  0  0  0  0  0  0  0  0  0  0  0
  -22.0280   16.9480   15.4050   N 0  0  0  0  0  0  0  0  0  0  0  0
  -20.3210   18.0740   16.6870   C 0  0  0  0  0  0  0  0  0  0  0  0
  -22.6400   15.5980   16.0560   S 0  0  0  0  0  0  0  0  0  0  0  0
  -21.7500   14.5110   15.6780   O 0  0  0  0  0  0  0  0  0  0  0  0
  -24.0140   15.4550   15.6110   O 0  0  0  0  0  0  0  0  0  0  0  0
  -22.5560   15.8920   17.6470   C 0  0  0  0  0  0  0  0  0  0  0  0
  -21.5050   15.4150   18.3750   N 0  0  0  0  0  0  0  0  0  0  0  0
  -21.3790   15.6760   19.6930   C 0  0  0  0  0  0  0  0  0  0  0  0
  -22.3150   16.4520   20.3730   C 0  0  0  0  0  0  0  0  0  0  0  0
  -23.3950   16.9690   19.6480   C 0  0  0  0  0  0  0  0  0  0  0  0
  -23.5280   16.6890   18.2820   C 0  0  0  0  0  0  0  0  0  0  0  0
  -22.1310   16.7670   21.8380   C 0  0  0  0  0  0  0  0  0  0  0  0
  -21.4310   15.8570   22.4940   F 0  0  0  0  0  0  0  0  0  0  0  0
  -23.2750   16.9800   22.4520   F 0  0  0  0  0  0  0  0  0  0  0  0
  -21.4210   17.8850   21.8740   F 0  0  0  0  0  0  0  0  0  0  0  0
  1  2  1  0  0  0  0
  1  6  1  0  0  0  0
  2  3  1  0  0  0  0
  2  7  2  0  0  0  0
  3  4  2  0  0  0  0
  3 20  1  0  0  0  0
  4  5  1  0  0  0  0
  4  8  1  0  0  0  0
  5  6  1  0  0  0  0
  6  9  1  0  0  0  0
  6 12  1  0  0  0  0
  9 10  1  0  0  0  0
 10 11  1  0  0  0  0
 12 13  1  0  0  0  0
 13 14  1  0  0  0  0
 14 15  2  0  0  0  0
 14 19  1  0  0  0  0
 15 16  1  0  0  0  0
 16 17  2  0  0  0  0
 17 18  1  0  0  0  0
 18 19  2  0  0  0  0
 20 21  1  0  0  0  0
 20 23  1  0  0  0  0
 21 22  1  0  0  0  0
 23 24  2  0  0  0  0
 23 29  1  0  0  0  0
 24 25  1  0  0  0  0
 25 26  2  0  0  0  0
 26 27  1  0  0  0  0
 27 28  1  0  0  0  0
 27 29  2  0  0  0  0
 28 30  1  0  0  0  0
 30 31  2  0  0  0  0
 30 32  2  0  0  0  0
 30 33  1  0  0  0  0
 33 34  2  0  0  0  0
 33 38  1  0  0  0  0
 34 35  1  0  0  0  0
 35 36  2  0  0  0  0
 36 37  1  0  0  0  0
 36 39  1  0  0  0  0
 37 38  2  0  0  0  0
 39 40  1  0  0  0  0
 39 41  1  0  0  0  0
 39 42  1  0  0  0  0
A    1
O1
A    2
C2
A    3
C3
A    4
C4
A    5
C5
A    6
C6
A    7
O7
A    8
O8
A    9
C9
A   10
C10
A   11
C11
A   12
C12
A   13
C13
A   14
C14
A   15
C15
A   16
C16
A   17
C17
A   18
C18
A   19
C19
A   20
C20
A   21
C21
A   22
C22
A   23
C23
A   24
C24
A   25
C25
A   26
C26
A   27
C27
A   28
N28
A   29
C29
A   30
S30
A   31
O31
A   32
O32
A   33
C33
A   34
N34
A   35
C35
A   36
C36
A   37
C37
A   38
C38
A   39
C39
A   40
F40
A   41
F41
A   42
F42
M  END
>  <InstanceId>
2O4L_TPV_A_403

>  <ChemCompId>
TPV

>  <PdbId>
2O4L

>  <ChainId>
A

>  <ResidueNumber>
403

>  <InsertionCode>


>  <Model>
1

>  <AltIds>


>  <MissingHeavyAtoms>
0

>  <ObservedFormula>
C31 N2 O5 S F3

>  <Name>
N-(3-{(1R)-1-[(6R)-4-HYDROXY-2-OXO-6-PHENETHYL-6-PROPYL-5,6-DIHYDRO-2H-PYRAN-3-YL]PROPYL}PHENYL)-5-(TRIFLUOROMETHYL)-2-PYRIDINESULFONAMIDE

>  <SystematicName>
N-[3-[(1R)-1-[(6R)-4-hydroxy-2-oxo-6-phenethyl-6-propyl-5H-pyran-3-yl]propyl]phenyl]-5-(trifluoromethyl)pyridine-2-sulfonamide

>  <Synonyms>
TIPRANAVIR

>  <Type>
NON-POLYMER

>  <Formula>
C31 H33 F3 N2 O5 S

>  <MolecularWeight>
602.664

>  <ModifiedDate>
2011-06-04

>  <Parent>


>  <OneLetterCode>


>  <SubcomponentList>


>  <AmbiguousFlag>
N

>  <InChI>
InChI=1S/C31H33F3N2O5S/c1-3-16-30(17-15-21-9-6-5-7-10-21)19-26(37)28(29(38)41-30)25(4-2)22-11-8-12-24(18-22)36-42(39,40)27-14-13-23(20-35-27)31(32,33)34/h5-14,18,20,25,36-37H,3-4,15-17,19H2,1-2H3/t25-,30-/m1/s1

>  <InChIKey>
SUJUHGSWHZTSEU-FYBSXPHGSA-N

>  <SMILES>
CCC[C@]1(CC(=C(C(=O)O1)[C@H](CC)c2cccc(c2)NS(=O)(=O)c3ccc(cn3)C(F)(F)F)O)CCc4ccccc4

$$$$
