3O5N_BR0_E_1


 25 27  0  0  0  0  0  0  0  0999 V2000
   54.1305  -21.1198   89.3204 N   0  0  0  0  0  0  0  0  0  0  0  0
   53.1449  -20.0845   88.9537 C   0  0  0  0  0  0  0  0  0  0  0  0
   53.6529  -18.6470   89.2871 C   0  0  0  0  0  0  0  0  0  0  0  0
   55.0394  -18.5659   89.9726 C   0  0  0  0  0  0  0  0  0  0  0  0
   57.6669  -21.7618   88.6260 C   0  0  0  0  0  0  0  0  0  0  0  0
   58.2086  -20.5122   88.9280 C   0  0  0  0  0  0  0  0  0  0  0  0
   53.2364  -18.4625   91.6516 C   0  0  0  0  0  0  0  0  0  0  0  0
   52.7689  -17.9225   90.2996 C   0  0  0  0  0  0  0  0  0  0  0  0
   56.3018  -21.9552   88.7569 C   0  0  0  0  0  0  0  0  0  0  0  0
   57.4218  -19.4471   89.3676 C   0  0  0  0  0  0  0  0  0  0  0  0
   55.5009  -20.9070   89.1932 C   0  0  0  0  0  0  0  0  0  0  0  0
   54.7311  -18.7327   91.4668 C   0  0  0  0  0  0  0  0  0  0  0  0
   56.0328  -19.6546   89.4999 C   0  0  0  0  0  0  0  0  0  0  0  0
   53.8104  -21.9848   89.6645 H   0  0  0  0  0  0  0  0  0  0  0  0
   51.8424  -20.4285   89.6911 C   0  0  0  0  0  0  0  0  0  0  0  0
   51.9638  -21.1769   90.6826 O   0  0  0  0  0  0  0  0  0  0  0  0
   50.7615  -19.9730   89.2519 O   0  0  0  0  0  0  0  0  0  0  0  0
   52.8132  -21.4733   90.9446 H   0  0  0  0  0  0  0  0  0  0  0  0
   55.5961  -24.1099   89.4061 O   0  0  0  0  0  0  0  0  0  0  0  0
   55.2474  -23.5443   87.2939 O   0  0  0  0  0  0  0  0  0  0  0  0
   55.6590  -23.3050   88.4513 C   0  0  0  0  0  0  0  0  0  0  0  0
   55.9245  -23.8640   90.2486 H   0  0  0  0  0  0  0  0  0  0  0  0
   59.4455  -18.3601   90.0396 O   0  0  0  0  0  0  0  0  0  0  0  0
   57.5022  -17.0106   89.5365 O   0  0  0  0  0  0  0  0  0  0  0  0
   58.0784  -18.2978   89.6343 N   0  0  0  0  0  0  0  0  0  0  0  0
 15 16  1  0  0  0
  2 15  1  0  0  0
  2  1  1  0  0  0
  2  3  1  0  0  0
  3  4  1  0  0  0
  3  8  1  0  0  0
  4 12  1  0  0  0
 20 21  2  0  0  0
 24 25  1  0  0  0
  5  6  2  0  0  0
  5  9  1  0  0  0
  6 10  1  0  0  0
  8  7  1  0  0  0
 21 19  1  0  0  0
 21  9  1  0  0  0
  9 11  2  0  0  0
 10 25  1  0  0  0
 10 13  2  0  0  0
 11  1  1  0  0  0
 11 13  1  0  0  0
 25 23  2  0  0  0
 12  7  2  0  0  0
 13  4  1  0  0  0
 17 15  2  0  0  0
  1 14  1  0  0  0
 16 18  1  0  0  0
 19 22  1  0  0  0
M  CHG 1  24  -1
M  CHG 1  25   1
M  END
> <minimizedAffinity>
-8.65289

$$$$
3O5N_BR0_E_1


 25 27  0  0  0  0  0  0  0  0999 V2000
   55.5072  -18.8902   89.8908 N   0  0  0  0  0  0  0  0  0  0  0  0
   54.3950  -19.2886   90.7751 C   0  0  0  0  0  0  0  0  0  0  0  0
   53.7849  -20.6655   90.3659 C   0  0  0  0  0  0  0  0  0  0  0  0
   54.4013  -21.3271   89.1085 C   0  0  0  0  0  0  0  0  0  0  0  0
   58.6368  -20.4013   88.7407 C   0  0  0  0  0  0  0  0  0  0  0  0
   58.1706  -21.6492   88.3262 C   0  0  0  0  0  0  0  0  0  0  0  0
   52.3499  -20.0923   88.5192 C   0  0  0  0  0  0  0  0  0  0  0  0
   52.3130  -20.5713   89.9708 C   0  0  0  0  0  0  0  0  0  0  0  0
   57.7397  -19.4861   89.2658 C   0  0  0  0  0  0  0  0  0  0  0  0
   56.8250  -22.0071   88.4141 C   0  0  0  0  0  0  0  0  0  0  0  0
   56.3953  -19.8233   89.3617 C   0  0  0  0  0  0  0  0  0  0  0  0
   53.6241  -20.7088   87.9383 C   0  0  0  0  0  0  0  0  0  0  0  0
   55.9187  -21.0673   88.9482 C   0  0  0  0  0  0  0  0  0  0  0  0
   55.6246  -17.9383   89.6687 H   0  0  0  0  0  0  0  0  0  0  0  0
   53.3601  -18.1548   90.7277 C   0  0  0  0  0  0  0  0  0  0  0  0
   53.2663  -17.5537   89.6378 O   0  0  0  0  0  0  0  0  0  0  0  0
   52.7078  -17.8890   91.7633 O   0  0  0  0  0  0  0  0  0  0  0  0
   53.7937  -17.8182   88.9099 H   0  0  0  0  0  0  0  0  0  0  0  0
   59.3155  -18.0495   90.2735 O   0  0  0  0  0  0  0  0  0  0  0  0
   57.4441  -17.1170   89.5444 O   0  0  0  0  0  0  0  0  0  0  0  0
   58.1940  -18.1030   89.7232 C   0  0  0  0  0  0  0  0  0  0  0  0
   59.8253  -18.8291   90.3748 H   0  0  0  0  0  0  0  0  0  0  0  0
   56.5749  -23.5065   86.5653 O   0  0  0  0  0  0  0  0  0  0  0  0
   56.1199  -24.3151   88.7992 O   0  0  0  0  0  0  0  0  0  0  0  0
   56.5112  -23.2418   87.9664 N   0  0  0  0  0  0  0  0  0  0  0  0
 15 16  1  0  0  0
  2 15  1  0  0  0
  2  1  1  0  0  0
  2  3  1  0  0  0
  3  4  1  0  0  0
  3  8  1  0  0  0
  4 12  1  0  0  0
 20 21  2  0  0  0
 24 25  1  0  0  0
  5  6  2  0  0  0
  5  9  1  0  0  0
  6 10  1  0  0  0
  8  7  1  0  0  0
 21 19  1  0  0  0
 21  9  1  0  0  0
  9 11  2  0  0  0
 10 25  1  0  0  0
 10 13  2  0  0  0
 11  1  1  0  0  0
 11 13  1  0  0  0
 25 23  2  0  0  0
 12  7  2  0  0  0
 13  4  1  0  0  0
 17 15  2  0  0  0
  1 14  1  0  0  0
 16 18  1  0  0  0
 19 22  1  0  0  0
M  CHG 1  24  -1
M  CHG 1  25   1
M  END
> <minimizedAffinity>
-8.32141

$$$$
3O5N_BR0_E_1


 25 27  0  0  0  0  0  0  0  0999 V2000
   52.9686  -19.2379   88.1667 N   0  0  0  0  0  0  0  0  0  0  0  0
   52.0676  -19.8272   87.1574 C   0  0  0  0  0  0  0  0  0  0  0  0
   52.7114  -21.0563   86.4431 C   0  0  0  0  0  0  0  0  0  0  0  0
   54.1604  -21.3990   86.8695 C   0  0  0  0  0  0  0  0  0  0  0  0
   54.8475  -20.4584   91.0617 C   0  0  0  0  0  0  0  0  0  0  0  0
   55.4843  -21.5627   90.4949 C   0  0  0  0  0  0  0  0  0  0  0  0
   54.1623  -20.0354   84.8150 C   0  0  0  0  0  0  0  0  0  0  0  0
   52.8759  -20.8526   84.9388 C   0  0  0  0  0  0  0  0  0  0  0  0
   54.0053  -19.6885   90.2767 C   0  0  0  0  0  0  0  0  0  0  0  0
   55.3091  -21.9164   89.1567 C   0  0  0  0  0  0  0  0  0  0  0  0
   53.8176  -20.0241   88.9415 C   0  0  0  0  0  0  0  0  0  0  0  0
   55.0359  -20.5061   85.9796 C   0  0  0  0  0  0  0  0  0  0  0  0
   54.4512  -21.1247   88.3647 C   0  0  0  0  0  0  0  0  0  0  0  0
   52.9694  -18.2619   88.2959 H   0  0  0  0  0  0  0  0  0  0  0  0
   51.7057  -18.7046   86.1738 C   0  0  0  0  0  0  0  0  0  0  0  0
   52.4600  -17.7101   86.1870 O   0  0  0  0  0  0  0  0  0  0  0  0
   50.6887  -18.8363   85.4548 O   0  0  0  0  0  0  0  0  0  0  0  0
   53.2027  -17.6930   86.7580 H   0  0  0  0  0  0  0  0  0  0  0  0
   54.0079  -17.6632   91.4852 O   0  0  0  0  0  0  0  0  0  0  0  0
   52.0637  -18.3233   90.6560 O   0  0  0  0  0  0  0  0  0  0  0  0
   53.2933  -18.4633   90.8428 C   0  0  0  0  0  0  0  0  0  0  0  0
   54.9243  -17.8306   91.5862 H   0  0  0  0  0  0  0  0  0  0  0  0
   57.1358  -22.8178   87.9000 O   0  0  0  0  0  0  0  0  0  0  0  0
   55.6621  -24.3332   89.0760 O   0  0  0  0  0  0  0  0  0  0  0  0
   55.9947  -23.0015   88.7374 N   0  0  0  0  0  0  0  0  0  0  0  0
 15 16  1  0  0  0
  2 15  1  0  0  0
  2  1  1  0  0  0
  2  3  1  0  0  0
  3  4  1  0  0  0
  3  8  1  0  0  0
  4 12  1  0  0  0
 20 21  2  0  0  0
 24 25  1  0  0  0
  5  6  2  0  0  0
  5  9  1  0  0  0
  6 10  1  0  0  0
  8  7  1  0  0  0
 21 19  1  0  0  0
 21  9  1  0  0  0
  9 11  2  0  0  0
 10 25  1  0  0  0
 10 13  2  0  0  0
 11  1  1  0  0  0
 11 13  1  0  0  0
 25 23  2  0  0  0
 12  7  2  0  0  0
 13  4  1  0  0  0
 17 15  2  0  0  0
  1 14  1  0  0  0
 16 18  1  0  0  0
 19 22  1  0  0  0
M  CHG 1  24  -1
M  CHG 1  25   1
M  END
> <minimizedAffinity>
-8.10583

$$$$
3O5N_BR0_E_1


 25 27  0  0  0  0  0  0  0  0999 V2000
   54.5269  -20.4368   87.1103 N   0  0  0  0  0  0  0  0  0  0  0  0
   54.4085  -19.1697   87.8573 C   0  0  0  0  0  0  0  0  0  0  0  0
   55.5685  -18.9843   88.8847 C   0  0  0  0  0  0  0  0  0  0  0  0
   56.5808  -20.1530   88.9742 C   0  0  0  0  0  0  0  0  0  0  0  0
   57.1111  -22.0945   85.1167 C   0  0  0  0  0  0  0  0  0  0  0  0
   58.1967  -21.9941   85.9871 C   0  0  0  0  0  0  0  0  0  0  0  0
   54.8705  -20.3523   90.7393 C   0  0  0  0  0  0  0  0  0  0  0  0
   55.0776  -18.8943   90.3278 C   0  0  0  0  0  0  0  0  0  0  0  0
   55.8885  -21.5681   85.4990 C   0  0  0  0  0  0  0  0  0  0  0  0
   58.0924  -21.3869   87.2389 C   0  0  0  0  0  0  0  0  0  0  0  0
   55.7640  -20.9593   86.7417 C   0  0  0  0  0  0  0  0  0  0  0  0
   55.9416  -21.1294   89.9711 C   0  0  0  0  0  0  0  0  0  0  0  0
   56.8425  -20.8557   87.6202 C   0  0  0  0  0  0  0  0  0  0  0  0
   53.7085  -20.9264   86.8656 H   0  0  0  0  0  0  0  0  0  0  0  0
   53.0283  -19.1770   88.5309 C   0  0  0  0  0  0  0  0  0  0  0  0
   52.5872  -18.0602   88.8718 O   0  0  0  0  0  0  0  0  0  0  0  0
   52.4535  -20.2738   88.7179 O   0  0  0  0  0  0  0  0  0  0  0  0
   53.0835  -17.2858   88.6929 H   0  0  0  0  0  0  0  0  0  0  0  0
   54.1819  -20.5725   84.2110 O   0  0  0  0  0  0  0  0  0  0  0  0
   54.2086  -22.7855   84.2851 O   0  0  0  0  0  0  0  0  0  0  0  0
   54.6658  -21.6612   84.5906 C   0  0  0  0  0  0  0  0  0  0  0  0
   54.5763  -19.7658   84.4785 H   0  0  0  0  0  0  0  0  0  0  0  0
   60.2881  -20.5048   87.5992 O   0  0  0  0  0  0  0  0  0  0  0  0
   59.4216  -22.1562   89.1398 O   0  0  0  0  0  0  0  0  0  0  0  0
   59.2191  -21.3692   87.9830 N   0  0  0  0  0  0  0  0  0  0  0  0
 15 16  1  0  0  0
  2 15  1  0  0  0
  2  1  1  0  0  0
  2  3  1  0  0  0
  3  4  1  0  0  0
  3  8  1  0  0  0
  4 12  1  0  0  0
 20 21  2  0  0  0
 24 25  1  0  0  0
  5  6  2  0  0  0
  5  9  1  0  0  0
  6 10  1  0  0  0
  8  7  1  0  0  0
 21 19  1  0  0  0
 21  9  1  0  0  0
  9 11  2  0  0  0
 10 25  1  0  0  0
 10 13  2  0  0  0
 11  1  1  0  0  0
 11 13  1  0  0  0
 25 23  2  0  0  0
 12  7  2  0  0  0
 13  4  1  0  0  0
 17 15  2  0  0  0
  1 14  1  0  0  0
 16 18  1  0  0  0
 19 22  1  0  0  0
M  CHG 1  24  -1
M  CHG 1  25   1
M  END
> <minimizedAffinity>
-7.98656

$$$$
3O5N_BR0_E_1


 25 27  0  0  0  0  0  0  0  0999 V2000
   52.8097  -19.8492   87.7924 N   0  0  0  0  0  0  0  0  0  0  0  0
   52.7147  -18.6116   88.5906 C   0  0  0  0  0  0  0  0  0  0  0  0
   53.9303  -18.4406   89.5542 C   0  0  0  0  0  0  0  0  0  0  0  0
   54.9655  -19.5926   89.5417 C   0  0  0  0  0  0  0  0  0  0  0  0
   55.2984  -21.3867   85.5918 C   0  0  0  0  0  0  0  0  0  0  0  0
   56.4319  -21.2966   86.4001 C   0  0  0  0  0  0  0  0  0  0  0  0
   53.3665  -19.8860   91.3957 C   0  0  0  0  0  0  0  0  0  0  0  0
   53.5245  -18.4108   91.0259 C   0  0  0  0  0  0  0  0  0  0  0  0
   54.0920  -20.8971   86.0641 C   0  0  0  0  0  0  0  0  0  0  0  0
   56.3919  -20.7359   87.6771 C   0  0  0  0  0  0  0  0  0  0  0  0
   54.0313  -20.3350   87.3332 C   0  0  0  0  0  0  0  0  0  0  0  0
   54.4030  -20.6152   90.5384 C   0  0  0  0  0  0  0  0  0  0  0  0
   55.1581  -20.2421   88.1501 C   0  0  0  0  0  0  0  0  0  0  0  0
   51.9865  -20.3451   87.5787 H   0  0  0  0  0  0  0  0  0  0  0  0
   51.3772  -18.6685   89.3433 C   0  0  0  0  0  0  0  0  0  0  0  0
   50.8882  -19.8073   89.4914 O   0  0  0  0  0  0  0  0  0  0  0  0
   50.8562  -17.5974   89.7305 O   0  0  0  0  0  0  0  0  0  0  0  0
   51.3459  -20.5592   89.1702 H   0  0  0  0  0  0  0  0  0  0  0  0
   52.5566  -19.9779   84.5279 O   0  0  0  0  0  0  0  0  0  0  0  0
   52.1111  -22.0116   85.2819 O   0  0  0  0  0  0  0  0  0  0  0  0
   52.8193  -20.9812   85.2262 C   0  0  0  0  0  0  0  0  0  0  0  0
   53.1326  -19.2389   84.5340 H   0  0  0  0  0  0  0  0  0  0  0  0
   58.0493  -21.9421   88.9128 O   0  0  0  0  0  0  0  0  0  0  0  0
   58.3536  -19.5698   88.5513 O   0  0  0  0  0  0  0  0  0  0  0  0
   57.5603  -20.7232   88.3540 N   0  0  0  0  0  0  0  0  0  0  0  0
 15 16  1  0  0  0
  2 15  1  0  0  0
  2  1  1  0  0  0
  2  3  1  0  0  0
  3  4  1  0  0  0
  3  8  1  0  0  0
  4 12  1  0  0  0
 20 21  2  0  0  0
 24 25  1  0  0  0
  5  6  2  0  0  0
  5  9  1  0  0  0
  6 10  1  0  0  0
  8  7  1  0  0  0
 21 19  1  0  0  0
 21  9  1  0  0  0
  9 11  2  0  0  0
 10 25  1  0  0  0
 10 13  2  0  0  0
 11  1  1  0  0  0
 11 13  1  0  0  0
 25 23  2  0  0  0
 12  7  2  0  0  0
 13  4  1  0  0  0
 17 15  2  0  0  0
  1 14  1  0  0  0
 16 18  1  0  0  0
 19 22  1  0  0  0
M  CHG 1  24  -1
M  CHG 1  25   1
M  END
> <minimizedAffinity>
-7.87239

$$$$
3O5N_BR0_E_1


 25 27  0  0  0  0  0  0  0  0999 V2000
   53.6861  -19.3020   88.1812 N   0  0  0  0  0  0  0  0  0  0  0  0
   54.5683  -18.8667   89.2812 C   0  0  0  0  0  0  0  0  0  0  0  0
   55.8338  -19.7707   89.4106 C   0  0  0  0  0  0  0  0  0  0  0  0
   55.9126  -20.9625   88.4245 C   0  0  0  0  0  0  0  0  0  0  0  0
   54.0675  -19.9898   84.6060 C   0  0  0  0  0  0  0  0  0  0  0  0
   55.1825  -20.8278   84.6335 C   0  0  0  0  0  0  0  0  0  0  0  0
   55.0035  -21.6948   90.5965 C   0  0  0  0  0  0  0  0  0  0  0  0
   55.9220  -20.4831   90.7582 C   0  0  0  0  0  0  0  0  0  0  0  0
   53.5758  -19.4815   85.7968 C   0  0  0  0  0  0  0  0  0  0  0  0
   55.8183  -21.1809   85.8242 C   0  0  0  0  0  0  0  0  0  0  0  0
   54.1948  -19.8212   86.9934 C   0  0  0  0  0  0  0  0  0  0  0  0
   55.1236  -22.0799   89.1206 C   0  0  0  0  0  0  0  0  0  0  0  0
   55.3087  -20.6599   87.0319 C   0  0  0  0  0  0  0  0  0  0  0  0
   52.7108  -19.2232   88.2902 H   0  0  0  0  0  0  0  0  0  0  0  0
   53.7183  -18.8666   90.5604 C   0  0  0  0  0  0  0  0  0  0  0  0
   52.6775  -19.5543   90.5181 O   0  0  0  0  0  0  0  0  0  0  0  0
   54.0939  -18.1752   91.5349 O   0  0  0  0  0  0  0  0  0  0  0  0
   52.4704  -20.0438   89.7464 H   0  0  0  0  0  0  0  0  0  0  0  0
   52.5843  -17.3416   85.8212 O   0  0  0  0  0  0  0  0  0  0  0  0
   51.2076  -19.0754   85.8617 O   0  0  0  0  0  0  0  0  0  0  0  0
   52.3520  -18.5702   85.8250 C   0  0  0  0  0  0  0  0  0  0  0  0
   53.4682  -17.0320   85.7926 H   0  0  0  0  0  0  0  0  0  0  0  0
   58.1911  -21.4833   85.9063 O   0  0  0  0  0  0  0  0  0  0  0  0
   56.7850  -23.3836   85.3935 O   0  0  0  0  0  0  0  0  0  0  0  0
   56.8791  -22.0079   85.7052 N   0  0  0  0  0  0  0  0  0  0  0  0
 15 16  1  0  0  0
  2 15  1  0  0  0
  2  1  1  0  0  0
  2  3  1  0  0  0
  3  4  1  0  0  0
  3  8  1  0  0  0
  4 12  1  0  0  0
 20 21  2  0  0  0
 24 25  1  0  0  0
  5  6  2  0  0  0
  5  9  1  0  0  0
  6 10  1  0  0  0
  8  7  1  0  0  0
 21 19  1  0  0  0
 21  9  1  0  0  0
  9 11  2  0  0  0
 10 25  1  0  0  0
 10 13  2  0  0  0
 11  1  1  0  0  0
 11 13  1  0  0  0
 25 23  2  0  0  0
 12  7  2  0  0  0
 13  4  1  0  0  0
 17 15  2  0  0  0
  1 14  1  0  0  0
 16 18  1  0  0  0
 19 22  1  0  0  0
M  CHG 1  24  -1
M  CHG 1  25   1
M  END
> <minimizedAffinity>
-7.81818

$$$$
3O5N_BR0_E_1


 25 27  0  0  0  0  0  0  0  0999 V2000
   53.4680  -20.6419   88.1032 N   0  0  0  0  0  0  0  0  0  0  0  0
   53.2825  -19.2412   88.5289 C   0  0  0  0  0  0  0  0  0  0  0  0
   54.5306  -18.6878   89.2847 C   0  0  0  0  0  0  0  0  0  0  0  0
   55.6897  -19.6933   89.4952 C   0  0  0  0  0  0  0  0  0  0  0  0
   55.9686  -22.5107   86.1913 C   0  0  0  0  0  0  0  0  0  0  0  0
   57.1346  -22.0868   86.8294 C   0  0  0  0  0  0  0  0  0  0  0  0
   54.2610  -19.5870   91.5022 C   0  0  0  0  0  0  0  0  0  0  0  0
   54.2217  -18.2729   90.7214 C   0  0  0  0  0  0  0  0  0  0  0  0
   54.7471  -22.0199   86.6217 C   0  0  0  0  0  0  0  0  0  0  0  0
   57.1137  -21.1881   87.8964 C   0  0  0  0  0  0  0  0  0  0  0  0
   54.7050  -21.1240   87.6828 C   0  0  0  0  0  0  0  0  0  0  0  0
   55.3166  -20.4330   90.7873 C   0  0  0  0  0  0  0  0  0  0  0  0
   55.8646  -20.6956   88.3288 C   0  0  0  0  0  0  0  0  0  0  0  0
   52.6959  -21.2525   88.1167 H   0  0  0  0  0  0  0  0  0  0  0  0
   52.0130  -19.2025   89.3925 C   0  0  0  0  0  0  0  0  0  0  0  0
   51.4752  -18.0826   89.5134 O   0  0  0  0  0  0  0  0  0  0  0  0
   51.6171  -20.2613   89.9317 O   0  0  0  0  0  0  0  0  0  0  0  0
   51.8377  -17.3389   89.0736 H   0  0  0  0  0  0  0  0  0  0  0  0
   53.1466  -23.6685   86.0900 O   0  0  0  0  0  0  0  0  0  0  0  0
   52.7492  -21.6211   85.3461 O   0  0  0  0  0  0  0  0  0  0  0  0
   53.4406  -22.4595   85.9671 C   0  0  0  0  0  0  0  0  0  0  0  0
   53.7117  -24.2417   86.5698 H   0  0  0  0  0  0  0  0  0  0  0  0
   59.1489  -21.9197   88.9217 O   0  0  0  0  0  0  0  0  0  0  0  0
   58.8193  -19.5559   88.5281 O   0  0  0  0  0  0  0  0  0  0  0  0
   58.3147  -20.8726   88.4271 N   0  0  0  0  0  0  0  0  0  0  0  0
 15 16  1  0  0  0
  2 15  1  0  0  0
  2  1  1  0  0  0
  2  3  1  0  0  0
  3  4  1  0  0  0
  3  8  1  0  0  0
  4 12  1  0  0  0
 20 21  2  0  0  0
 24 25  1  0  0  0
  5  6  2  0  0  0
  5  9  1  0  0  0
  6 10  1  0  0  0
  8  7  1  0  0  0
 21 19  1  0  0  0
 21  9  1  0  0  0
  9 11  2  0  0  0
 10 25  1  0  0  0
 10 13  2  0  0  0
 11  1  1  0  0  0
 11 13  1  0  0  0
 25 23  2  0  0  0
 12  7  2  0  0  0
 13  4  1  0  0  0
 17 15  2  0  0  0
  1 14  1  0  0  0
 16 18  1  0  0  0
 19 22  1  0  0  0
M  CHG 1  24  -1
M  CHG 1  25   1
M  END
> <minimizedAffinity>
-7.70412

$$$$
3O5N_BR0_E_1


 25 27  0  0  0  0  0  0  0  0999 V2000
   53.6197  -19.2750   87.7951 N   0  0  0  0  0  0  0  0  0  0  0  0
   52.3728  -19.6794   87.1174 C   0  0  0  0  0  0  0  0  0  0  0  0
   52.5165  -21.0571   86.3985 C   0  0  0  0  0  0  0  0  0  0  0  0
   53.9173  -21.7133   86.4762 C   0  0  0  0  0  0  0  0  0  0  0  0
   55.9064  -20.7728   90.2298 C   0  0  0  0  0  0  0  0  0  0  0  0
   56.1107  -22.0210   89.6412 C   0  0  0  0  0  0  0  0  0  0  0  0
   53.6539  -20.4835   84.3552 C   0  0  0  0  0  0  0  0  0  0  0  0
   52.3050  -20.9665   84.8890 C   0  0  0  0  0  0  0  0  0  0  0  0
   55.0692  -19.8619   89.6073 C   0  0  0  0  0  0  0  0  0  0  0  0
   55.5056  -22.3835   88.4374 C   0  0  0  0  0  0  0  0  0  0  0  0
   54.4571  -20.2038   88.4078 C   0  0  0  0  0  0  0  0  0  0  0  0
   54.6886  -21.0943   85.3025 C   0  0  0  0  0  0  0  0  0  0  0  0
   54.6565  -21.4481   87.8099 C   0  0  0  0  0  0  0  0  0  0  0  0
   53.8664  -18.3221   87.8146 H   0  0  0  0  0  0  0  0  0  0  0  0
   52.0079  -18.5488   86.1440 C   0  0  0  0  0  0  0  0  0  0  0  0
   50.7911  -18.4188   85.8981 O   0  0  0  0  0  0  0  0  0  0  0  0
   52.9280  -17.8597   85.6469 O   0  0  0  0  0  0  0  0  0  0  0  0
   50.1663  -18.9787   86.3154 H   0  0  0  0  0  0  0  0  0  0  0  0
   55.6086  -17.5778   89.8402 O   0  0  0  0  0  0  0  0  0  0  0  0
   53.8769  -18.3141   91.0074 O   0  0  0  0  0  0  0  0  0  0  0  0
   54.8204  -18.4786   90.2016 C   0  0  0  0  0  0  0  0  0  0  0  0
   56.2945  -17.7717   89.2320 H   0  0  0  0  0  0  0  0  0  0  0  0
   55.5705  -24.7451   88.8210 O   0  0  0  0  0  0  0  0  0  0  0  0
   56.3256  -23.8832   86.6908 O   0  0  0  0  0  0  0  0  0  0  0  0
   55.7999  -23.6180   87.9760 N   0  0  0  0  0  0  0  0  0  0  0  0
 15 16  1  0  0  0
  2 15  1  0  0  0
  2  1  1  0  0  0
  2  3  1  0  0  0
  3  4  1  0  0  0
  3  8  1  0  0  0
  4 12  1  0  0  0
 20 21  2  0  0  0
 24 25  1  0  0  0
  5  6  2  0  0  0
  5  9  1  0  0  0
  6 10  1  0  0  0
  8  7  1  0  0  0
 21 19  1  0  0  0
 21  9  1  0  0  0
  9 11  2  0  0  0
 10 25  1  0  0  0
 10 13  2  0  0  0
 11  1  1  0  0  0
 11 13  1  0  0  0
 25 23  2  0  0  0
 12  7  2  0  0  0
 13  4  1  0  0  0
 17 15  2  0  0  0
  1 14  1  0  0  0
 16 18  1  0  0  0
 19 22  1  0  0  0
M  CHG 1  24  -1
M  CHG 1  25   1
M  END
> <minimizedAffinity>
-7.65353

$$$$
3O5N_BR0_E_1


 25 27  0  0  0  0  0  0  0  0999 V2000
   54.7124  -20.7442   87.3041 N   0  0  0  0  0  0  0  0  0  0  0  0
   55.1242  -21.6121   88.4243 C   0  0  0  0  0  0  0  0  0  0  0  0
   54.4314  -21.2095   89.7634 C   0  0  0  0  0  0  0  0  0  0  0  0
   53.5013  -19.9730   89.6941 C   0  0  0  0  0  0  0  0  0  0  0  0
   51.5410  -19.6745   85.8212 C   0  0  0  0  0  0  0  0  0  0  0  0
   50.8575  -19.2677   86.9672 C   0  0  0  0  0  0  0  0  0  0  0  0
   55.7395  -19.3281   90.5032 C   0  0  0  0  0  0  0  0  0  0  0  0
   55.4237  -20.7849   90.8435 C   0  0  0  0  0  0  0  0  0  0  0  0
   52.8285  -20.1701   85.9435 C   0  0  0  0  0  0  0  0  0  0  0  0
   51.4301  -19.3344   88.2377 C   0  0  0  0  0  0  0  0  0  0  0  0
   53.4166  -20.2447   87.2000 C   0  0  0  0  0  0  0  0  0  0  0  0
   54.4448  -18.7800   89.8995 C   0  0  0  0  0  0  0  0  0  0  0  0
   52.7427  -19.8385   88.3517 C   0  0  0  0  0  0  0  0  0  0  0  0
   55.3719  -20.5118   86.6111 H   0  0  0  0  0  0  0  0  0  0  0  0
   56.6553  -21.5299   88.5119 C   0  0  0  0  0  0  0  0  0  0  0  0
   57.2089  -22.4371   89.1665 O   0  0  0  0  0  0  0  0  0  0  0  0
   57.2410  -20.5703   87.9598 O   0  0  0  0  0  0  0  0  0  0  0  0
   56.6940  -23.1206   89.5480 H   0  0  0  0  0  0  0  0  0  0  0  0
   54.4672  -19.8013   84.2878 O   0  0  0  0  0  0  0  0  0  0  0  0
   53.4009  -21.7407   84.2162 O   0  0  0  0  0  0  0  0  0  0  0  0
   53.6254  -20.6179   84.7215 C   0  0  0  0  0  0  0  0  0  0  0  0
   54.5836  -18.9763   84.7165 H   0  0  0  0  0  0  0  0  0  0  0  0
   49.3248  -19.3876   89.3750 O   0  0  0  0  0  0  0  0  0  0  0  0
   51.0872  -17.9735   90.2383 O   0  0  0  0  0  0  0  0  0  0  0  0
   50.6599  -18.8970   89.2570 N   0  0  0  0  0  0  0  0  0  0  0  0
 15 16  1  0  0  0
  2 15  1  0  0  0
  2  1  1  0  0  0
  2  3  1  0  0  0
  3  4  1  0  0  0
  3  8  1  0  0  0
  4 12  1  0  0  0
 20 21  2  0  0  0
 24 25  1  0  0  0
  5  6  2  0  0  0
  5  9  1  0  0  0
  6 10  1  0  0  0
  8  7  1  0  0  0
 21 19  1  0  0  0
 21  9  1  0  0  0
  9 11  2  0  0  0
 10 25  1  0  0  0
 10 13  2  0  0  0
 11  1  1  0  0  0
 11 13  1  0  0  0
 25 23  2  0  0  0
 12  7  2  0  0  0
 13  4  1  0  0  0
 17 15  2  0  0  0
  1 14  1  0  0  0
 16 18  1  0  0  0
 19 22  1  0  0  0
M  CHG 1  24  -1
M  CHG 1  25   1
M  END
> <minimizedAffinity>
-7.49314

$$$$
3O5N_BR0_E_1


 25 27  0  0  0  0  0  0  0  0999 V2000
   55.5649  -20.6737   86.3329 N   0  0  0  0  0  0  0  0  0  0  0  0
   56.2157  -21.8933   86.8493 C   0  0  0  0  0  0  0  0  0  0  0  0
   56.3804  -21.8579   88.4007 C   0  0  0  0  0  0  0  0  0  0  0  0
   55.8941  -20.5640   89.0993 C   0  0  0  0  0  0  0  0  0  0  0  0
   52.4813  -18.8289   87.0320 C   0  0  0  0  0  0  0  0  0  0  0  0
   52.5627  -18.7295   88.4212 C   0  0  0  0  0  0  0  0  0  0  0  0
   58.3265  -20.4730   88.7052 C   0  0  0  0  0  0  0  0  0  0  0  0
   57.8397  -21.9155   88.8465 C   0  0  0  0  0  0  0  0  0  0  0  0
   53.4880  -19.4837   86.3421 C   0  0  0  0  0  0  0  0  0  0  0  0
   53.6316  -19.2611   89.1434 C   0  0  0  0  0  0  0  0  0  0  0  0
   54.5610  -20.0200   87.0430 C   0  0  0  0  0  0  0  0  0  0  0  0
   57.0979  -19.6155   89.0154 C   0  0  0  0  0  0  0  0  0  0  0  0
   54.6531  -19.9241   88.4315 C   0  0  0  0  0  0  0  0  0  0  0  0
   55.8483  -20.3121   85.4621 H   0  0  0  0  0  0  0  0  0  0  0  0
   57.5625  -22.0214   86.1224 C   0  0  0  0  0  0  0  0  0  0  0  0
   57.9235  -21.0189   85.4722 O   0  0  0  0  0  0  0  0  0  0  0  0
   58.1901  -23.1025   86.1999 O   0  0  0  0  0  0  0  0  0  0  0  0
   57.3922  -20.2471   85.4679 H   0  0  0  0  0  0  0  0  0  0  0  0
   54.4407  -19.1431   84.2116 O   0  0  0  0  0  0  0  0  0  0  0  0
   52.4687  -20.1487   84.2693 O   0  0  0  0  0  0  0  0  0  0  0  0
   53.4545  -19.6107   84.8217 C   0  0  0  0  0  0  0  0  0  0  0  0
   55.1458  -18.7533   84.6900 H   0  0  0  0  0  0  0  0  0  0  0  0
   52.7704  -19.9485   91.2681 O   0  0  0  0  0  0  0  0  0  0  0  0
   54.3093  -18.0846   91.1752 O   0  0  0  0  0  0  0  0  0  0  0  0
   53.5879  -19.0828   90.4812 N   0  0  0  0  0  0  0  0  0  0  0  0
 15 16  1  0  0  0
  2 15  1  0  0  0
  2  1  1  0  0  0
  2  3  1  0  0  0
  3  4  1  0  0  0
  3  8  1  0  0  0
  4 12  1  0  0  0
 20 21  2  0  0  0
 24 25  1  0  0  0
  5  6  2  0  0  0
  5  9  1  0  0  0
  6 10  1  0  0  0
  8  7  1  0  0  0
 21 19  1  0  0  0
 21  9  1  0  0  0
  9 11  2  0  0  0
 10 25  1  0  0  0
 10 13  2  0  0  0
 11  1  1  0  0  0
 11 13  1  0  0  0
 25 23  2  0  0  0
 12  7  2  0  0  0
 13  4  1  0  0  0
 17 15  2  0  0  0
  1 14  1  0  0  0
 16 18  1  0  0  0
 19 22  1  0  0  0
M  CHG 1  24  -1
M  CHG 1  25   1
M  END
> <minimizedAffinity>
-7.31599

$$$$
