1SGU_MK1_B_2632
  RCSB PDB12061704003D
Coordinates from PDB:1SGU:B:2632 Model:1 without hydrogens
 45 49  0  0  0  0            999 V2000
   17.9230    4.5360   12.1150   N 0  0  0  0  0  0  0  0  0  0  0  0
   17.5320    3.3370   12.9090   C 0  0  0  0  0  0  0  0  0  0  0  0
   18.5960    2.2350   13.0340   C 0  0  0  0  0  0  0  0  0  0  0  0
   17.9940    1.1050   13.8700   C 0  0  0  0  0  0  0  0  0  0  0  0
   17.2770    0.2430   13.3260   O 0  0  0  0  0  0  0  0  0  0  0  0
   18.2900    1.0990   15.1870   N 0  0  0  0  0  0  0  0  0  0  0  0
   17.8190    0.0520   16.2420   C 0  0  0  0  0  0  0  0  0  0  0  0
   18.3720    0.4010   17.6570   C 0  0  0  0  0  0  0  0  0  0  0  0
   18.4610   -1.3480   16.0670   C 0  0  0  0  0  0  0  0  0  0  0  0
   16.1950   -0.0290   16.2900   C 0  0  0  0  0  0  0  0  0  0  0  0
   19.0070    1.8220   11.6580   N 0  0  0  0  0  0  0  0  0  0  0  0
   19.3480    2.9580   10.7450   C 0  0  0  0  0  0  0  0  0  0  0  0
   18.2670    4.0750   10.7290   C 0  0  0  0  0  0  0  0  0  0  0  0
   20.0700    0.7890   11.6700   C 0  0  0  0  0  0  0  0  0  0  0  0
   19.9600   -0.1980   10.5230   C 0  0  0  0  0  0  0  0  0  0  0  0
   21.2710   -0.5680   10.0810   O 0  0  0  0  0  0  0  0  0  0  0  0
   19.2510   -1.5270   10.8420   C 0  0  0  0  0  0  0  0  0  0  0  0
   19.1360   -2.5230    9.6920   C 0  0  0  0  0  0  0  0  0  0  0  0
   18.4900   -3.7730   10.3260   C 0  0  0  0  0  0  0  0  0  0  0  0
   18.3250   -4.9130    9.3600   C 0  0  0  0  0  0  0  0  0  0  0  0
   19.4430   -5.5650    8.7560   C 0  0  0  0  0  0  0  0  0  0  0  0
   19.2260   -6.6360    7.8420   C 0  0  0  0  0  0  0  0  0  0  0  0
   17.8960   -7.0520    7.5330   C 0  0  0  0  0  0  0  0  0  0  0  0
   16.7910   -6.4030    8.1340   C 0  0  0  0  0  0  0  0  0  0  0  0
   16.9980   -5.3380    9.0440   C 0  0  0  0  0  0  0  0  0  0  0  0
   18.2820   -1.9630    8.5230   C 0  0  0  0  0  0  0  0  0  0  0  0
   17.4400   -1.0840    8.6810   O 0  0  0  0  0  0  0  0  0  0  0  0
   18.5250   -2.5170    7.3410   N 0  0  0  0  0  0  0  0  0  0  0  0
   17.8660   -2.1680    6.0730   C 0  0  0  0  0  0  0  0  0  0  0  0
   18.3830   -3.0890    4.9370   C 0  0  0  0  0  0  0  0  0  0  0  0
   19.7470   -3.4540    5.1540   O 0  0  0  0  0  0  0  0  0  0  0  0
   18.0330   -2.3210    3.6800   C 0  0  0  0  0  0  0  0  0  0  0  0
   18.2740   -0.8610    3.9180   C 0  0  0  0  0  0  0  0  0  0  0  0
   18.5400    0.2510    3.1050   C 0  0  0  0  0  0  0  0  0  0  0  0
   18.7160    1.5090    3.7300   C 0  0  0  0  0  0  0  0  0  0  0  0
   18.6290    1.6590    5.1500   C 0  0  0  0  0  0  0  0  0  0  0  0
   18.3590    0.5460    6.0020   C 0  0  0  0  0  0  0  0  0  0  0  0
   18.1640   -0.7630    5.4840   C 0  0  0  0  0  0  0  0  0  0  0  0
   16.9040    5.6260   12.1760   C 0  0  0  0  0  0  0  0  0  0  0  0
   16.4360    6.2820   13.5430   C 0  0  0  0  0  0  0  0  0  0  0  0
   17.2750    7.1070   14.3030   C 0  0  0  0  0  0  0  0  0  0  0  0
   16.8580    7.7290   15.5870   N 0  0  0  0  0  0  0  0  0  0  0  0
   15.5180    7.4200   15.9950   C 0  0  0  0  0  0  0  0  0  0  0  0
   14.6610    6.6010   15.2550   C 0  0  0  0  0  0  0  0  0  0  0  0
   15.1220    6.0330   14.0320   C 0  0  0  0  0  0  0  0  0  0  0  0
  1  2  1  0  0  0  0
  1 13  1  0  0  0  0
  1 39  1  0  0  0  0
  2  3  1  0  0  0  0
  3  4  1  0  0  0  0
  3 11  1  0  0  0  0
  4  5  2  0  0  0  0
  4  6  1  0  0  0  0
  6  7  1  0  0  0  0
  7  8  1  0  0  0  0
  7  9  1  0  0  0  0
  7 10  1  0  0  0  0
 11 12  1  0  0  0  0
 11 14  1  0  0  0  0
 12 13  1  0  0  0  0
 14 15  1  0  0  0  0
 15 16  1  0  0  0  0
 15 17  1  0  0  0  0
 17 18  1  0  0  0  0
 18 19  1  0  0  0  0
 18 26  1  0  0  0  0
 19 20  1  0  0  0  0
 20 21  2  0  0  0  0
 20 25  1  0  0  0  0
 21 22  1  0  0  0  0
 22 23  2  0  0  0  0
 23 24  1  0  0  0  0
 24 25  2  0  0  0  0
 26 27  2  0  0  0  0
 26 28  1  0  0  0  0
 28 29  1  0  0  0  0
 29 30  1  0  0  0  0
 29 38  1  0  0  0  0
 30 31  1  0  0  0  0
 30 32  1  0  0  0  0
 32 33  1  0  0  0  0
 33 34  2  0  0  0  0
 33 38  1  0  0  0  0
 34 35  1  0  0  0  0
 35 36  2  0  0  0  0
 36 37  1  0  0  0  0
 37 38  2  0  0  0  0
 39 40  1  0  0  0  0
 40 41  1  0  0  0  0
 40 45  2  0  0  0  0
 41 42  2  0  0  0  0
 42 43  1  0  0  0  0
 43 44  2  0  0  0  0
 44 45  1  0  0  0  0
A    1
N1
A    2
C1
A    3
C2
A    4
C3
A    5
O1
A    6
N2
A    7
C4
A    8
C5
A    9
C6
A   10
C7
A   11
N3
A   12
C8
A   13
C9
A   14
C10
A   15
C11
A   16
O2
A   17
C12
A   18
C13
A   19
C14
A   20
C15
A   21
C16
A   22
C17
A   23
C18
A   24
C19
A   25
C20
A   26
C21
A   27
O3
A   28
N4
A   29
C22
A   30
C23
A   31
O4
A   32
C24
A   33
C25
A   34
C26
A   35
C27
A   36
C28
A   37
C29
A   38
C30
A   39
C31
A   40
C32
A   41
C33
A   42
N5
A   43
C34
A   44
C35
A   45
C36
M  END
>  <InstanceId>
1SGU_MK1_B_2632

>  <ChemCompId>
MK1

>  <PdbId>
1SGU

>  <ChainId>
B

>  <ResidueNumber>
2632

>  <InsertionCode>


>  <Model>
1

>  <AltIds>


>  <MissingHeavyAtoms>
0

>  <ObservedFormula>
C36 N5 O4

>  <Name>
N-[2(R)-HYDROXY-1(S)-INDANYL]-5-[(2(S)-TERTIARY BUTYLAMINOCARBONYL)-4(3-PYRIDYLMETHYL)PIPERAZINO]-4(S)-HYDROXY-2(R)-PHENYLMETHYLPENTANAMIDE

>  <SystematicName>
(1S,2S,4R)-N-tert-butyl-1-[(2S,4R)-2-hydroxy-5-[[(1S,2R)-2-hydroxy-2,3-dihydro-1H-inden-1-yl]amino]-5-oxo-4-(phenylmethyl)pentyl]-4-(pyridin-3-ylmethyl)piperazine-2-carboxamide

>  <Synonyms>
INDINAVIR

>  <Type>
NON-POLYMER

>  <Formula>
C36 H47 N5 O4

>  <MolecularWeight>
613.789

>  <ModifiedDate>
2011-06-04

>  <Parent>


>  <OneLetterCode>


>  <SubcomponentList>


>  <AmbiguousFlag>
N

>  <InChI>
InChI=1S/C36H47N5O4/c1-36(2,3)39-35(45)31-24-40(22-26-12-9-15-37-21-26)16-17-41(31)23-29(42)19-28(18-25-10-5-4-6-11-25)34(44)38-33-30-14-8-7-13-27(30)20-32(33)43/h4-15,21,28-29,31-33,42-43H,16-20,22-24H2,1-3H3,(H,38,44)(H,39,45)/t28-,29+,31+,32-,33+/m1/s1

>  <InChIKey>
CBVCZFGXHXORBI-PXQQMZJSSA-N

>  <SMILES>
CC(C)(C)NC(=O)[C@@H]1C[N@@](CC[N@]1C[C@H](C[C@@H](Cc2ccccc2)C(=O)N[C@H]3c4ccccc4C[C@H]3O)O)Cc5cccnc5

$$$$
