1SGU_MK1_B_2632


 49 53  0  0  0  0  0  0  0  0999 V2000
   19.8620   -0.2380   10.6424 C   0  0  0  0  0  0  0  0  0  0  0  0
   21.1379   -0.5124   10.0527 O   0  0  0  0  0  0  0  0  0  0  0  0
   21.6859   -1.0059   10.6829 H   0  0  0  0  0  0  0  0  0  0  0  0
   20.0423    0.6695   11.8448 C   0  0  0  0  0  0  0  0  0  0  0  0
   17.9802    4.3976   12.6793 N   0  0  0  0  0  0  0  0  0  0  0  0
   17.5741    3.1356   13.3598 C   0  0  0  0  0  0  0  0  0  0  0  0
   18.6162    2.0059   13.3628 C   0  0  0  0  0  0  0  0  0  0  0  0
   19.0011    1.7196   11.9477 N   0  0  0  0  0  0  0  0  0  0  0  0
   19.3544    2.9314   11.1433 C   0  0  0  0  0  0  0  0  0  0  0  0
   18.2970    4.0658   11.2505 C   0  0  0  0  0  0  0  0  0  0  0  0
   18.0011    0.8126   14.0949 C   0  0  0  0  0  0  0  0  0  0  0  0
   17.0744    0.1688   13.5658 O   0  0  0  0  0  0  0  0  0  0  0  0
   18.5185    0.5087   15.3041 N   0  0  0  0  0  0  0  0  0  0  0  0
   19.2457    1.0860   15.6314 H   0  0  0  0  0  0  0  0  0  0  0  0
   18.0820   -0.6633   16.2352 C   0  0  0  0  0  0  0  0  0  0  0  0
   16.5330   -0.6892   16.4076 C   0  0  0  0  0  0  0  0  0  0  0  0
   18.4900   -0.4719   17.7184 C   0  0  0  0  0  0  0  0  0  0  0  0
   18.5946   -2.0904   15.6462 C   0  0  0  0  0  0  0  0  0  0  0  0
   16.9851    5.4965   12.8596 C   0  0  0  0  0  0  0  0  0  0  0  0
   16.5155    5.9971   14.2903 C   0  0  0  0  0  0  0  0  0  0  0  0
   17.3684    5.9933   15.4016 C   0  0  0  0  0  0  0  0  0  0  0  0
   16.9483    6.4548   16.7506 N   0  0  0  0  0  0  0  0  0  0  0  0
   15.5906    6.9105   16.8320 C   0  0  0  0  0  0  0  0  0  0  0  0
   14.7202    6.9254   15.7389 C   0  0  0  0  0  0  0  0  0  0  0  0
   15.1838    6.4676   14.4715 C   0  0  0  0  0  0  0  0  0  0  0  0
   19.2425   -1.6188   10.9260 C   0  0  0  0  0  0  0  0  0  0  0  0
   19.2876   -2.6262    9.7811 C   0  0  0  0  0  0  0  0  0  0  0  0
   18.3322   -2.2313    8.6232 C   0  0  0  0  0  0  0  0  0  0  0  0
   17.2323   -1.7223    8.8177 O   0  0  0  0  0  0  0  0  0  0  0  0
   18.7924   -2.4975    7.4065 N   0  0  0  0  0  0  0  0  0  0  0  0
   19.6797   -2.9198    7.3459 H   0  0  0  0  0  0  0  0  0  0  0  0
   18.0964   -2.2185    6.1409 C   0  0  0  0  0  0  0  0  0  0  0  0
   18.6368   -3.1491    5.0237 C   0  0  0  0  0  0  0  0  0  0  0  0
   20.0199   -3.4436    5.2265 O   0  0  0  0  0  0  0  0  0  0  0  0
   18.2300   -2.4371    3.7509 C   0  0  0  0  0  0  0  0  0  0  0  0
   18.4063   -0.9609    3.9406 C   0  0  0  0  0  0  0  0  0  0  0  0
   18.6061    0.1368    3.0900 C   0  0  0  0  0  0  0  0  0  0  0  0
   18.7334    1.4202    3.6738 C   0  0  0  0  0  0  0  0  0  0  0  0
   18.6635    1.6095    5.0900 C   0  0  0  0  0  0  0  0  0  0  0  0
   18.4604    0.5119    5.9797 C   0  0  0  0  0  0  0  0  0  0  0  0
   18.3183   -0.8200    5.5048 C   0  0  0  0  0  0  0  0  0  0  0  0
   20.5237   -2.6159    5.2705 H   0  0  0  0  0  0  0  0  0  0  0  0
   18.8797   -3.9664   10.4287 C   0  0  0  0  0  0  0  0  0  0  0  0
   18.6897   -5.0759    9.4323 C   0  0  0  0  0  0  0  0  0  0  0  0
   19.7916   -5.7080    8.7797 C   0  0  0  0  0  0  0  0  0  0  0  0
   19.5510   -6.7502    7.8387 C   0  0  0  0  0  0  0  0  0  0  0  0
   18.2134   -7.1573    7.5513 C   0  0  0  0  0  0  0  0  0  0  0  0
   17.1244   -6.5280    8.2005 C   0  0  0  0  0  0  0  0  0  0  0  0
   17.3549   -5.4917    9.1375 C   0  0  0  0  0  0  0  0  0  0  0  0
  5  6  1  0  0  0
  5 10  1  0  0  0
  5 19  1  0  0  0
  6  7  1  0  0  0
  7 11  1  0  0  0
  7  8  1  0  0  0
 11 12  2  0  0  0
 11 13  1  0  0  0
 13 15  1  0  0  0
 15 16  1  0  0  0
 15 17  1  0  0  0
 15 18  1  0  0  0
  8  9  1  0  0  0
  8  4  1  0  0  0
  9 10  1  0  0  0
  4  1  1  0  0  0
  1  2  1  0  0  0
  1 26  1  0  0  0
 26 27  1  0  0  0
 27 43  1  0  0  0
 27 28  1  0  0  0
 43 44  1  0  0  0
 44 45  2  0  0  0
 44 49  1  0  0  0
 45 46  1  0  0  0
 46 47  2  0  0  0
 47 48  1  0  0  0
 48 49  2  0  0  0
 28 29  2  0  0  0
 28 30  1  0  0  0
 30 32  1  0  0  0
 32 33  1  0  0  0
 32 41  1  0  0  0
 33 34  1  0  0  0
 33 35  1  0  0  0
 35 36  1  0  0  0
 36 37  2  0  0  0
 36 41  1  0  0  0
 37 38  1  0  0  0
 38 39  2  0  0  0
 39 40  1  0  0  0
 40 41  2  0  0  0
 19 20  1  0  0  0
 20 21  1  0  0  0
 20 25  2  0  0  0
 21 22  2  0  0  0
 22 23  1  0  0  0
 23 24  2  0  0  0
 24 25  1  0  0  0
 13 14  1  0  0  0
  2  3  1  0  0  0
 30 31  1  0  0  0
 34 42  1  0  0  0
M  END
> <minimizedAffinity>
-11.28990

$$$$
1SGU_MK1_B_2632


 49 53  0  0  0  0  0  0  0  0999 V2000
   18.1919    1.0449   11.7194 C   0  0  0  0  0  0  0  0  0  0  0  0
   17.3101    0.6098   12.7607 O   0  0  0  0  0  0  0  0  0  0  0  0
   16.6652    1.3088   12.9514 H   0  0  0  0  0  0  0  0  0  0  0  0
   18.9947    2.2395   12.1994 C   0  0  0  0  0  0  0  0  0  0  0  0
   17.5913    6.1927   13.3175 N   0  0  0  0  0  0  0  0  0  0  0  0
   17.7356    5.1195   14.3415 C   0  0  0  0  0  0  0  0  0  0  0  0
   18.6480    3.9429   13.9607 C   0  0  0  0  0  0  0  0  0  0  0  0
   18.1496    3.3590   12.6787 N   0  0  0  0  0  0  0  0  0  0  0  0
   17.8933    4.3624   11.5981 C   0  0  0  0  0  0  0  0  0  0  0  0
   17.0325    5.5664   12.0736 C   0  0  0  0  0  0  0  0  0  0  0  0
   18.6492    2.9616   15.1334 C   0  0  0  0  0  0  0  0  0  0  0  0
   19.6011    2.9549   15.9378 O   0  0  0  0  0  0  0  0  0  0  0  0
   17.5830    2.1406   15.2402 N   0  0  0  0  0  0  0  0  0  0  0  0
   16.8887    2.2254   14.5474 H   0  0  0  0  0  0  0  0  0  0  0  0
   17.3388    1.0717   16.3488 C   0  0  0  0  0  0  0  0  0  0  0  0
   18.4696   -0.0011   16.3456 C   0  0  0  0  0  0  0  0  0  0  0  0
   16.1246    0.1482   16.0738 C   0  0  0  0  0  0  0  0  0  0  0  0
   17.2471    1.7708   17.8148 C   0  0  0  0  0  0  0  0  0  0  0  0
   16.8259    7.3719   13.8213 C   0  0  0  0  0  0  0  0  0  0  0  0
   15.8228    7.2785   15.0473 C   0  0  0  0  0  0  0  0  0  0  0  0
   16.2153    7.5731   16.3594 C   0  0  0  0  0  0  0  0  0  0  0  0
   15.2932    7.4894   17.5222 N   0  0  0  0  0  0  0  0  0  0  0  0
   13.9566    7.0814   17.1987 C   0  0  0  0  0  0  0  0  0  0  0  0
   13.5397    6.7829   15.8988 C   0  0  0  0  0  0  0  0  0  0  0  0
   14.4735    6.8808   14.8267 C   0  0  0  0  0  0  0  0  0  0  0  0
   17.2863    1.2872   10.4980 C   0  0  0  0  0  0  0  0  0  0  0  0
   17.4081    0.2807    9.3579 C   0  0  0  0  0  0  0  0  0  0  0  0
   17.3517   -1.1840    9.8688 C   0  0  0  0  0  0  0  0  0  0  0  0
   16.6317   -1.5324   10.7999 O   0  0  0  0  0  0  0  0  0  0  0  0
   18.1515   -2.0282    9.2280 N   0  0  0  0  0  0  0  0  0  0  0  0
   18.7047   -1.6578    8.5028 H   0  0  0  0  0  0  0  0  0  0  0  0
   18.2858   -3.4669    9.5038 C   0  0  0  0  0  0  0  0  0  0  0  0
   19.5307   -3.7212   10.3934 C   0  0  0  0  0  0  0  0  0  0  0  0
   20.5628   -2.7740   10.1133 O   0  0  0  0  0  0  0  0  0  0  0  0
   19.8213   -5.1908   10.1733 C   0  0  0  0  0  0  0  0  0  0  0  0
   19.5870   -5.5231    8.7308 C   0  0  0  0  0  0  0  0  0  0  0  0
   20.0443   -6.5139    7.8490 C   0  0  0  0  0  0  0  0  0  0  0  0
   19.5765   -6.4873    6.5132 C   0  0  0  0  0  0  0  0  0  0  0  0
   18.6632   -5.4843    6.0588 C   0  0  0  0  0  0  0  0  0  0  0  0
   18.1805   -4.4645    6.9333 C   0  0  0  0  0  0  0  0  0  0  0  0
   18.5820   -4.3944    8.2948 C   0  0  0  0  0  0  0  0  0  0  0  0
   20.7890   -2.8116    9.1707 H   0  0  0  0  0  0  0  0  0  0  0  0
   18.7650    0.6056    8.6984 C   0  0  0  0  0  0  0  0  0  0  0  0
   18.6673    0.8325    7.2155 C   0  0  0  0  0  0  0  0  0  0  0  0
   19.1221    2.0383    6.5998 C   0  0  0  0  0  0  0  0  0  0  0  0
   18.9980    2.2009    5.1899 C   0  0  0  0  0  0  0  0  0  0  0  0
   18.4202    1.1619    4.3999 C   0  0  0  0  0  0  0  0  0  0  0  0
   17.9709   -0.0314    5.0144 C   0  0  0  0  0  0  0  0  0  0  0  0
   18.0912   -0.2013    6.4150 C   0  0  0  0  0  0  0  0  0  0  0  0
  5  6  1  0  0  0
  5 10  1  0  0  0
  5 19  1  0  0  0
  6  7  1  0  0  0
  7 11  1  0  0  0
  7  8  1  0  0  0
 11 12  2  0  0  0
 11 13  1  0  0  0
 13 15  1  0  0  0
 15 16  1  0  0  0
 15 17  1  0  0  0
 15 18  1  0  0  0
  8  9  1  0  0  0
  8  4  1  0  0  0
  9 10  1  0  0  0
  4  1  1  0  0  0
  1  2  1  0  0  0
  1 26  1  0  0  0
 26 27  1  0  0  0
 27 43  1  0  0  0
 27 28  1  0  0  0
 43 44  1  0  0  0
 44 45  2  0  0  0
 44 49  1  0  0  0
 45 46  1  0  0  0
 46 47  2  0  0  0
 47 48  1  0  0  0
 48 49  2  0  0  0
 28 29  2  0  0  0
 28 30  1  0  0  0
 30 32  1  0  0  0
 32 33  1  0  0  0
 32 41  1  0  0  0
 33 34  1  0  0  0
 33 35  1  0  0  0
 35 36  1  0  0  0
 36 37  2  0  0  0
 36 41  1  0  0  0
 37 38  1  0  0  0
 38 39  2  0  0  0
 39 40  1  0  0  0
 40 41  2  0  0  0
 19 20  1  0  0  0
 20 21  1  0  0  0
 20 25  2  0  0  0
 21 22  2  0  0  0
 22 23  1  0  0  0
 23 24  2  0  0  0
 24 25  1  0  0  0
 13 14  1  0  0  0
  2  3  1  0  0  0
 30 31  1  0  0  0
 34 42  1  0  0  0
M  END
> <minimizedAffinity>
-10.58054

$$$$
1SGU_MK1_B_2632


 49 53  0  0  0  0  0  0  0  0999 V2000
   18.7168   -1.1435   11.0605 C   0  0  0  0  0  0  0  0  0  0  0  0
   19.9760   -0.5761   11.4393 O   0  0  0  0  0  0  0  0  0  0  0  0
   20.1848   -0.8321   12.3513 H   0  0  0  0  0  0  0  0  0  0  0  0
   17.6153   -0.5592   11.9248 C   0  0  0  0  0  0  0  0  0  0  0  0
   17.8155    1.3844   15.8016 N   0  0  0  0  0  0  0  0  0  0  0  0
   18.3266    2.0693   14.5807 C   0  0  0  0  0  0  0  0  0  0  0  0
   17.8088    1.5292   13.2382 C   0  0  0  0  0  0  0  0  0  0  0  0
   18.1183    0.0690   13.1696 N   0  0  0  0  0  0  0  0  0  0  0  0
   17.7171   -0.7082   14.3842 C   0  0  0  0  0  0  0  0  0  0  0  0
   18.2042   -0.0622   15.7117 C   0  0  0  0  0  0  0  0  0  0  0  0
   18.4566    2.3564   12.1273 C   0  0  0  0  0  0  0  0  0  0  0  0
   19.6355    2.1317   11.7915 O   0  0  0  0  0  0  0  0  0  0  0  0
   17.6893    3.3046   11.5491 N   0  0  0  0  0  0  0  0  0  0  0  0
   16.7725    3.4024   11.8942 H   0  0  0  0  0  0  0  0  0  0  0  0
   18.1068    4.2608   10.3904 C   0  0  0  0  0  0  0  0  0  0  0  0
   19.2904    5.1773   10.8249 C   0  0  0  0  0  0  0  0  0  0  0  0
   17.0559    5.3542   10.0693 C   0  0  0  0  0  0  0  0  0  0  0  0
   18.5233    3.4145    9.0650 C   0  0  0  0  0  0  0  0  0  0  0  0
   18.2327    2.0661   17.0631 C   0  0  0  0  0  0  0  0  0  0  0  0
   17.4385    3.2982   17.6709 C   0  0  0  0  0  0  0  0  0  0  0  0
   17.3805    4.5416   17.0285 C   0  0  0  0  0  0  0  0  0  0  0  0
   16.6452    5.7091   17.5813 N   0  0  0  0  0  0  0  0  0  0  0  0
   15.9909    5.4663   18.8345 C   0  0  0  0  0  0  0  0  0  0  0  0
   16.0326    4.2356   19.4952 C   0  0  0  0  0  0  0  0  0  0  0  0
   16.7570    3.1552   18.9130 C   0  0  0  0  0  0  0  0  0  0  0  0
   18.9146   -2.6674   11.1581 C   0  0  0  0  0  0  0  0  0  0  0  0
   19.1373   -3.4043    9.8409 C   0  0  0  0  0  0  0  0  0  0  0  0
   18.1798   -2.9029    8.7268 C   0  0  0  0  0  0  0  0  0  0  0  0
   16.9884   -2.6858    8.9269 O   0  0  0  0  0  0  0  0  0  0  0  0
   18.7472   -2.7383    7.5376 N   0  0  0  0  0  0  0  0  0  0  0  0
   19.7059   -2.9504    7.4658 H   0  0  0  0  0  0  0  0  0  0  0  0
   18.0730   -2.2676    6.3179 C   0  0  0  0  0  0  0  0  0  0  0  0
   18.5843   -3.0649    5.0895 C   0  0  0  0  0  0  0  0  0  0  0  0
   19.9528   -3.4397    5.2554 O   0  0  0  0  0  0  0  0  0  0  0  0
   18.2164   -2.1762    3.9202 C   0  0  0  0  0  0  0  0  0  0  0  0
   18.4503   -0.7460    4.3027 C   0  0  0  0  0  0  0  0  0  0  0  0
   18.7007    0.4446    3.6041 C   0  0  0  0  0  0  0  0  0  0  0  0
   18.8749    1.6341    4.3516 C   0  0  0  0  0  0  0  0  0  0  0  0
   18.8015    1.6388    5.7803 C   0  0  0  0  0  0  0  0  0  0  0  0
   18.5475    0.4433    6.5176 C   0  0  0  0  0  0  0  0  0  0  0  0
   18.3558   -0.8080    5.8715 C   0  0  0  0  0  0  0  0  0  0  0  0
   20.4891   -2.6462    5.4091 H   0  0  0  0  0  0  0  0  0  0  0  0
   18.8916   -4.8892   10.1820 C   0  0  0  0  0  0  0  0  0  0  0  0
   18.7400   -5.7621    8.9676 C   0  0  0  0  0  0  0  0  0  0  0  0
   17.4699   -6.2573    8.5415 C   0  0  0  0  0  0  0  0  0  0  0  0
   17.3873   -7.0867    7.3861 C   0  0  0  0  0  0  0  0  0  0  0  0
   18.5708   -7.4199    6.6609 C   0  0  0  0  0  0  0  0  0  0  0  0
   19.8273   -6.9269    7.0868 C   0  0  0  0  0  0  0  0  0  0  0  0
   19.9181   -6.1014    8.2338 C   0  0  0  0  0  0  0  0  0  0  0  0
  5  6  1  0  0  0
  5 10  1  0  0  0
  5 19  1  0  0  0
  6  7  1  0  0  0
  7 11  1  0  0  0
  7  8  1  0  0  0
 11 12  2  0  0  0
 11 13  1  0  0  0
 13 15  1  0  0  0
 15 16  1  0  0  0
 15 17  1  0  0  0
 15 18  1  0  0  0
  8  9  1  0  0  0
  8  4  1  0  0  0
  9 10  1  0  0  0
  4  1  1  0  0  0
  1  2  1  0  0  0
  1 26  1  0  0  0
 26 27  1  0  0  0
 27 43  1  0  0  0
 27 28  1  0  0  0
 43 44  1  0  0  0
 44 45  2  0  0  0
 44 49  1  0  0  0
 45 46  1  0  0  0
 46 47  2  0  0  0
 47 48  1  0  0  0
 48 49  2  0  0  0
 28 29  2  0  0  0
 28 30  1  0  0  0
 30 32  1  0  0  0
 32 33  1  0  0  0
 32 41  1  0  0  0
 33 34  1  0  0  0
 33 35  1  0  0  0
 35 36  1  0  0  0
 36 37  2  0  0  0
 36 41  1  0  0  0
 37 38  1  0  0  0
 38 39  2  0  0  0
 39 40  1  0  0  0
 40 41  2  0  0  0
 19 20  1  0  0  0
 20 21  1  0  0  0
 20 25  2  0  0  0
 21 22  2  0  0  0
 22 23  1  0  0  0
 23 24  2  0  0  0
 24 25  1  0  0  0
 13 14  1  0  0  0
  2  3  1  0  0  0
 30 31  1  0  0  0
 34 42  1  0  0  0
M  END
> <minimizedAffinity>
-10.56698

$$$$
1SGU_MK1_B_2632


 49 53  0  0  0  0  0  0  0  0999 V2000
   17.9326   -2.6379    9.3585 C   0  0  0  0  0  0  0  0  0  0  0  0
   16.7013   -2.9824   10.0036 O   0  0  0  0  0  0  0  0  0  0  0  0
   16.8866   -3.5301   10.7825 H   0  0  0  0  0  0  0  0  0  0  0  0
   18.6036   -3.8956    8.8391 C   0  0  0  0  0  0  0  0  0  0  0  0
   17.2427   -6.8184    5.9317 N   0  0  0  0  0  0  0  0  0  0  0  0
   17.5859   -5.4305    5.5109 C   0  0  0  0  0  0  0  0  0  0  0  0
   18.4718   -4.6319    6.4802 C   0  0  0  0  0  0  0  0  0  0  0  0
   17.8018   -4.6075    7.8156 N   0  0  0  0  0  0  0  0  0  0  0  0
   17.3418   -5.9456    8.3036 C   0  0  0  0  0  0  0  0  0  0  0  0
   16.5208   -6.7334    7.2445 C   0  0  0  0  0  0  0  0  0  0  0  0
   18.6935   -3.2479    5.8689 C   0  0  0  0  0  0  0  0  0  0  0  0
   19.7205   -3.0205    5.2006 O   0  0  0  0  0  0  0  0  0  0  0  0
   17.7312   -2.3264    6.0856 N   0  0  0  0  0  0  0  0  0  0  0  0
   16.9630   -2.6096    6.6324 H   0  0  0  0  0  0  0  0  0  0  0  0
   17.7120   -0.8592    5.5584 C   0  0  0  0  0  0  0  0  0  0  0  0
   16.2498   -0.3364    5.4220 C   0  0  0  0  0  0  0  0  0  0  0  0
   18.1613   -0.7168    4.0817 C   0  0  0  0  0  0  0  0  0  0  0  0
   18.5571    0.1200    6.5449 C   0  0  0  0  0  0  0  0  0  0  0  0
   16.5211   -7.5815    4.8701 C   0  0  0  0  0  0  0  0  0  0  0  0
   15.7791   -6.8697    3.6615 C   0  0  0  0  0  0  0  0  0  0  0  0
   14.4833   -6.3511    3.7800 C   0  0  0  0  0  0  0  0  0  0  0  0
   13.7690   -5.6835    2.6604 N   0  0  0  0  0  0  0  0  0  0  0  0
   14.5125   -5.6072    1.4362 C   0  0  0  0  0  0  0  0  0  0  0  0
   15.8062   -6.1156    1.2921 C   0  0  0  0  0  0  0  0  0  0  0  0
   16.4358   -6.7466    2.4040 C   0  0  0  0  0  0  0  0  0  0  0  0
   18.7254   -1.8328   10.4044 C   0  0  0  0  0  0  0  0  0  0  0  0
   17.9123   -1.2154   11.5382 C   0  0  0  0  0  0  0  0  0  0  0  0
   17.1551    0.0602   11.0810 C   0  0  0  0  0  0  0  0  0  0  0  0
   16.0063    0.0285   10.6500 O   0  0  0  0  0  0  0  0  0  0  0  0
   17.8509    1.1866   11.1815 N   0  0  0  0  0  0  0  0  0  0  0  0
   18.7709    1.1155   11.5246 H   0  0  0  0  0  0  0  0  0  0  0  0
   17.3715    2.5312   10.8264 C   0  0  0  0  0  0  0  0  0  0  0  0
   18.2674    3.1357    9.7137 C   0  0  0  0  0  0  0  0  0  0  0  0
   19.6161    2.6817    9.8388 O   0  0  0  0  0  0  0  0  0  0  0  0
   17.9939    4.6213    9.8156 C   0  0  0  0  0  0  0  0  0  0  0  0
   17.8730    4.9965   11.2616 C   0  0  0  0  0  0  0  0  0  0  0  0
   18.0386    6.1762   12.0027 C   0  0  0  0  0  0  0  0  0  0  0  0
   17.8287    6.1216   13.4017 C   0  0  0  0  0  0  0  0  0  0  0  0
   17.4584    4.9051   14.0570 C   0  0  0  0  0  0  0  0  0  0  0  0
   17.2822    3.6900   13.3290 C   0  0  0  0  0  0  0  0  0  0  0  0
   17.4655    3.6279   11.9210 C   0  0  0  0  0  0  0  0  0  0  0  0
   19.9515    2.9039   10.7214 H   0  0  0  0  0  0  0  0  0  0  0  0
   18.9527   -0.9022   12.6343 C   0  0  0  0  0  0  0  0  0  0  0  0
   18.3906   -0.9737   14.0267 C   0  0  0  0  0  0  0  0  0  0  0  0
   17.3522   -0.1004   14.4727 C   0  0  0  0  0  0  0  0  0  0  0  0
   16.8629   -0.2093   15.8062 C   0  0  0  0  0  0  0  0  0  0  0  0
   17.4110   -1.1871   16.6898 C   0  0  0  0  0  0  0  0  0  0  0  0
   18.4400   -2.0505   16.2435 C   0  0  0  0  0  0  0  0  0  0  0  0
   18.9317   -1.9492   14.9195 C   0  0  0  0  0  0  0  0  0  0  0  0
  5  6  1  0  0  0
  5 10  1  0  0  0
  5 19  1  0  0  0
  6  7  1  0  0  0
  7 11  1  0  0  0
  7  8  1  0  0  0
 11 12  2  0  0  0
 11 13  1  0  0  0
 13 15  1  0  0  0
 15 16  1  0  0  0
 15 17  1  0  0  0
 15 18  1  0  0  0
  8  9  1  0  0  0
  8  4  1  0  0  0
  9 10  1  0  0  0
  4  1  1  0  0  0
  1  2  1  0  0  0
  1 26  1  0  0  0
 26 27  1  0  0  0
 27 43  1  0  0  0
 27 28  1  0  0  0
 43 44  1  0  0  0
 44 45  2  0  0  0
 44 49  1  0  0  0
 45 46  1  0  0  0
 46 47  2  0  0  0
 47 48  1  0  0  0
 48 49  2  0  0  0
 28 29  2  0  0  0
 28 30  1  0  0  0
 30 32  1  0  0  0
 32 33  1  0  0  0
 32 41  1  0  0  0
 33 34  1  0  0  0
 33 35  1  0  0  0
 35 36  1  0  0  0
 36 37  2  0  0  0
 36 41  1  0  0  0
 37 38  1  0  0  0
 38 39  2  0  0  0
 39 40  1  0  0  0
 40 41  2  0  0  0
 19 20  1  0  0  0
 20 21  1  0  0  0
 20 25  2  0  0  0
 21 22  2  0  0  0
 22 23  1  0  0  0
 23 24  2  0  0  0
 24 25  1  0  0  0
 13 14  1  0  0  0
  2  3  1  0  0  0
 30 31  1  0  0  0
 34 42  1  0  0  0
M  END
> <minimizedAffinity>
-10.55012

$$$$
1SGU_MK1_B_2632


 49 53  0  0  0  0  0  0  0  0999 V2000
   19.5184   -0.8556    9.5839 C   0  0  0  0  0  0  0  0  0  0  0  0
   20.1486   -1.9055   10.3266 O   0  0  0  0  0  0  0  0  0  0  0  0
   19.6176   -2.7143   10.2573 H   0  0  0  0  0  0  0  0  0  0  0  0
   18.1727   -0.5307   10.2047 C   0  0  0  0  0  0  0  0  0  0  0  0
   19.1067    3.5827   11.2321 N   0  0  0  0  0  0  0  0  0  0  0  0
   18.9949    2.5411   12.2920 C   0  0  0  0  0  0  0  0  0  0  0  0
   19.1238    1.0837   11.8212 C   0  0  0  0  0  0  0  0  0  0  0  0
   18.0998    0.8416   10.7602 N   0  0  0  0  0  0  0  0  0  0  0  0
   18.0696    1.8765    9.6793 C   0  0  0  0  0  0  0  0  0  0  0  0
   18.0217    3.3307   10.2265 C   0  0  0  0  0  0  0  0  0  0  0  0
   18.9718    0.1866   13.0502 C   0  0  0  0  0  0  0  0  0  0  0  0
   19.5768   -0.9015   13.1044 O   0  0  0  0  0  0  0  0  0  0  0  0
   18.1753    0.6419   14.0404 N   0  0  0  0  0  0  0  0  0  0  0  0
   17.7406    1.5128   13.8928 H   0  0  0  0  0  0  0  0  0  0  0  0
   17.8737   -0.0706   15.3941 C   0  0  0  0  0  0  0  0  0  0  0  0
   18.8028    0.4667   16.5244 C   0  0  0  0  0  0  0  0  0  0  0  0
   18.2901   -1.5634   15.4242 C   0  0  0  0  0  0  0  0  0  0  0  0
   16.3164    0.1316   15.8186 C   0  0  0  0  0  0  0  0  0  0  0  0
   19.1353    4.9692   11.7861 C   0  0  0  0  0  0  0  0  0  0  0  0
   18.3812    5.3701   13.1235 C   0  0  0  0  0  0  0  0  0  0  0  0
   19.0267    5.4003   14.3663 C   0  0  0  0  0  0  0  0  0  0  0  0
   18.3389    5.7700   15.6311 N   0  0  0  0  0  0  0  0  0  0  0  0
   16.9504    6.0984   15.4841 C   0  0  0  0  0  0  0  0  0  0  0  0
   16.2835    6.0769   14.2562 C   0  0  0  0  0  0  0  0  0  0  0  0
   16.9995    5.7118   13.0795 C   0  0  0  0  0  0  0  0  0  0  0  0
   19.4869   -1.3538    8.1273 C   0  0  0  0  0  0  0  0  0  0  0  0
   18.2905   -2.2155    7.7350 C   0  0  0  0  0  0  0  0  0  0  0  0
   18.3601   -3.6291    8.3724 C   0  0  0  0  0  0  0  0  0  0  0  0
   17.8109   -3.9030    9.4354 O   0  0  0  0  0  0  0  0  0  0  0  0
   19.0697   -4.5157    7.6843 N   0  0  0  0  0  0  0  0  0  0  0  0
   19.4871   -4.2038    6.8490 H   0  0  0  0  0  0  0  0  0  0  0  0
   19.2886   -5.9217    8.0572 C   0  0  0  0  0  0  0  0  0  0  0  0
   20.5815   -6.4525    7.3843 C   0  0  0  0  0  0  0  0  0  0  0  0
   20.7911   -5.8308    6.1153 O   0  0  0  0  0  0  0  0  0  0  0  0
   20.4062   -7.9556    7.4310 C   0  0  0  0  0  0  0  0  0  0  0  0
   18.9716   -8.2878    7.1516 C   0  0  0  0  0  0  0  0  0  0  0  0
   18.2851   -9.4090    6.6619 C   0  0  0  0  0  0  0  0  0  0  0  0
   16.8775   -9.3279    6.5350 C   0  0  0  0  0  0  0  0  0  0  0  0
   16.1600   -8.1426    6.8910 C   0  0  0  0  0  0  0  0  0  0  0  0
   16.8315   -6.9871    7.3924 C   0  0  0  0  0  0  0  0  0  0  0  0
   18.2422   -6.9561    7.5622 C   0  0  0  0  0  0  0  0  0  0  0  0
   20.0149   -5.9762    5.5520 H   0  0  0  0  0  0  0  0  0  0  0  0
   18.3478   -2.2784    6.1940 C   0  0  0  0  0  0  0  0  0  0  0  0
   18.4549   -0.9259    5.5464 C   0  0  0  0  0  0  0  0  0  0  0  0
   18.2683    0.2850    6.2804 C   0  0  0  0  0  0  0  0  0  0  0  0
   18.3751    1.5386    5.6122 C   0  0  0  0  0  0  0  0  0  0  0  0
   18.6663    1.5803    4.2155 C   0  0  0  0  0  0  0  0  0  0  0  0
   18.8505    0.3778    3.4920 C   0  0  0  0  0  0  0  0  0  0  0  0
   18.7466   -0.8725    4.1487 C   0  0  0  0  0  0  0  0  0  0  0  0
  5  6  1  0  0  0
  5 10  1  0  0  0
  5 19  1  0  0  0
  6  7  1  0  0  0
  7 11  1  0  0  0
  7  8  1  0  0  0
 11 12  2  0  0  0
 11 13  1  0  0  0
 13 15  1  0  0  0
 15 16  1  0  0  0
 15 17  1  0  0  0
 15 18  1  0  0  0
  8  9  1  0  0  0
  8  4  1  0  0  0
  9 10  1  0  0  0
  4  1  1  0  0  0
  1  2  1  0  0  0
  1 26  1  0  0  0
 26 27  1  0  0  0
 27 43  1  0  0  0
 27 28  1  0  0  0
 43 44  1  0  0  0
 44 45  2  0  0  0
 44 49  1  0  0  0
 45 46  1  0  0  0
 46 47  2  0  0  0
 47 48  1  0  0  0
 48 49  2  0  0  0
 28 29  2  0  0  0
 28 30  1  0  0  0
 30 32  1  0  0  0
 32 33  1  0  0  0
 32 41  1  0  0  0
 33 34  1  0  0  0
 33 35  1  0  0  0
 35 36  1  0  0  0
 36 37  2  0  0  0
 36 41  1  0  0  0
 37 38  1  0  0  0
 38 39  2  0  0  0
 39 40  1  0  0  0
 40 41  2  0  0  0
 19 20  1  0  0  0
 20 21  1  0  0  0
 20 25  2  0  0  0
 21 22  2  0  0  0
 22 23  1  0  0  0
 23 24  2  0  0  0
 24 25  1  0  0  0
 13 14  1  0  0  0
  2  3  1  0  0  0
 30 31  1  0  0  0
 34 42  1  0  0  0
M  END
> <minimizedAffinity>
-10.36958

$$$$
1SGU_MK1_B_2632


 49 53  0  0  0  0  0  0  0  0999 V2000
   19.6386   -0.4622    8.8303 C   0  0  0  0  0  0  0  0  0  0  0  0
   20.7555   -0.9205    9.6007 O   0  0  0  0  0  0  0  0  0  0  0  0
   20.5320   -1.7643   10.0237 H   0  0  0  0  0  0  0  0  0  0  0  0
   18.4688   -0.1743    9.7525 C   0  0  0  0  0  0  0  0  0  0  0  0
   18.1983   -0.8990   14.0245 N   0  0  0  0  0  0  0  0  0  0  0  0
   18.5229    0.4588   13.5029 C   0  0  0  0  0  0  0  0  0  0  0  0
   18.1491    0.7245   12.0360 C   0  0  0  0  0  0  0  0  0  0  0  0
   18.8064   -0.3164   11.1889 N   0  0  0  0  0  0  0  0  0  0  0  0
   18.6109   -1.7208   11.6682 C   0  0  0  0  0  0  0  0  0  0  0  0
   18.9288   -1.9008   13.1792 C   0  0  0  0  0  0  0  0  0  0  0  0
   18.5718    2.1560   11.7041 C   0  0  0  0  0  0  0  0  0  0  0  0
   19.6762    2.3699   11.1678 O   0  0  0  0  0  0  0  0  0  0  0  0
   17.6948    3.1354   12.0105 N   0  0  0  0  0  0  0  0  0  0  0  0
   16.8524    2.8568   12.4372 H   0  0  0  0  0  0  0  0  0  0  0  0
   17.8797    4.6628   11.7578 C   0  0  0  0  0  0  0  0  0  0  0  0
   16.7696    5.4844   12.4807 C   0  0  0  0  0  0  0  0  0  0  0  0
   17.5932    5.0967   10.2975 C   0  0  0  0  0  0  0  0  0  0  0  0
   19.3459    5.1578   12.2594 C   0  0  0  0  0  0  0  0  0  0  0  0
   18.4396   -1.0260   15.4927 C   0  0  0  0  0  0  0  0  0  0  0  0
   18.1662    0.1616   16.5090 C   0  0  0  0  0  0  0  0  0  0  0  0
   19.2016    0.8300   17.1749 C   0  0  0  0  0  0  0  0  0  0  0  0
   18.9677    1.9425   18.1325 N   0  0  0  0  0  0  0  0  0  0  0  0
   17.5886    2.2862   18.3263 C   0  0  0  0  0  0  0  0  0  0  0  0
   16.5376    1.6360   17.6740 C   0  0  0  0  0  0  0  0  0  0  0  0
   16.8284    0.5748   16.7683 C   0  0  0  0  0  0  0  0  0  0  0  0
   19.4073   -1.5511    7.7666 C   0  0  0  0  0  0  0  0  0  0  0  0
   18.0840   -2.3056    7.8507 C   0  0  0  0  0  0  0  0  0  0  0  0
   18.2633   -3.7259    8.4507 C   0  0  0  0  0  0  0  0  0  0  0  0
   17.6915   -4.0885    9.4745 O   0  0  0  0  0  0  0  0  0  0  0  0
   19.0925   -4.5143    7.7768 N   0  0  0  0  0  0  0  0  0  0  0  0
   19.5181   -4.1347    6.9742 H   0  0  0  0  0  0  0  0  0  0  0  0
   19.4328   -5.9034    8.1209 C   0  0  0  0  0  0  0  0  0  0  0  0
   20.6973   -6.3474    7.3400 C   0  0  0  0  0  0  0  0  0  0  0  0
   20.7600   -5.7117    6.0622 O   0  0  0  0  0  0  0  0  0  0  0  0
   20.6249   -7.8588    7.3911 C   0  0  0  0  0  0  0  0  0  0  0  0
   19.1969   -8.2840    7.2289 C   0  0  0  0  0  0  0  0  0  0  0  0
   18.5468   -9.4473    6.7902 C   0  0  0  0  0  0  0  0  0  0  0  0
   17.1312   -9.4585    6.7806 C   0  0  0  0  0  0  0  0  0  0  0  0
   16.3699   -8.3232    7.2026 C   0  0  0  0  0  0  0  0  0  0  0  0
   17.0039   -7.1267    7.6544 C   0  0  0  0  0  0  0  0  0  0  0  0
   18.4187   -7.0035    7.7072 C   0  0  0  0  0  0  0  0  0  0  0  0
   19.9509   -5.9070    5.5639 H   0  0  0  0  0  0  0  0  0  0  0  0
   17.5758   -2.3588    6.3944 C   0  0  0  0  0  0  0  0  0  0  0  0
   17.9620   -1.1526    5.5844 C   0  0  0  0  0  0  0  0  0  0  0  0
   17.6311    0.1751    5.9936 C   0  0  0  0  0  0  0  0  0  0  0  0
   18.0173    1.2804    5.1821 C   0  0  0  0  0  0  0  0  0  0  0  0
   18.7305    1.0580    3.9658 C   0  0  0  0  0  0  0  0  0  0  0  0
   19.0563   -0.2596    3.5642 C   0  0  0  0  0  0  0  0  0  0  0  0
   18.6767   -1.3638    4.3654 C   0  0  0  0  0  0  0  0  0  0  0  0
  5  6  1  0  0  0
  5 10  1  0  0  0
  5 19  1  0  0  0
  6  7  1  0  0  0
  7 11  1  0  0  0
  7  8  1  0  0  0
 11 12  2  0  0  0
 11 13  1  0  0  0
 13 15  1  0  0  0
 15 16  1  0  0  0
 15 17  1  0  0  0
 15 18  1  0  0  0
  8  9  1  0  0  0
  8  4  1  0  0  0
  9 10  1  0  0  0
  4  1  1  0  0  0
  1  2  1  0  0  0
  1 26  1  0  0  0
 26 27  1  0  0  0
 27 43  1  0  0  0
 27 28  1  0  0  0
 43 44  1  0  0  0
 44 45  2  0  0  0
 44 49  1  0  0  0
 45 46  1  0  0  0
 46 47  2  0  0  0
 47 48  1  0  0  0
 48 49  2  0  0  0
 28 29  2  0  0  0
 28 30  1  0  0  0
 30 32  1  0  0  0
 32 33  1  0  0  0
 32 41  1  0  0  0
 33 34  1  0  0  0
 33 35  1  0  0  0
 35 36  1  0  0  0
 36 37  2  0  0  0
 36 41  1  0  0  0
 37 38  1  0  0  0
 38 39  2  0  0  0
 39 40  1  0  0  0
 40 41  2  0  0  0
 19 20  1  0  0  0
 20 21  1  0  0  0
 20 25  2  0  0  0
 21 22  2  0  0  0
 22 23  1  0  0  0
 23 24  2  0  0  0
 24 25  1  0  0  0
 13 14  1  0  0  0
  2  3  1  0  0  0
 30 31  1  0  0  0
 34 42  1  0  0  0
M  END
> <minimizedAffinity>
-10.11092

$$$$
1SGU_MK1_B_2632


 49 53  0  0  0  0  0  0  0  0999 V2000
   18.8721    1.8804   11.6887 C   0  0  0  0  0  0  0  0  0  0  0  0
   20.1278    2.4462   11.2961 O   0  0  0  0  0  0  0  0  0  0  0  0
   19.9722    3.2012   10.7073 H   0  0  0  0  0  0  0  0  0  0  0  0
   18.1617    1.3240   10.4690 C   0  0  0  0  0  0  0  0  0  0  0  0
   19.8688   -2.6672   10.4093 N   0  0  0  0  0  0  0  0  0  0  0  0
   19.4299   -2.0093    9.1462 C   0  0  0  0  0  0  0  0  0  0  0  0
   19.2818   -0.4804    9.1987 C   0  0  0  0  0  0  0  0  0  0  0  0
   18.3374   -0.1387   10.3051 N   0  0  0  0  0  0  0  0  0  0  0  0
   18.6391   -0.8104   11.6082 C   0  0  0  0  0  0  0  0  0  0  0  0
   18.8576   -2.3432   11.4696 C   0  0  0  0  0  0  0  0  0  0  0  0
   18.8190   -0.0140    7.8180 C   0  0  0  0  0  0  0  0  0  0  0  0
   18.9132    1.1884    7.5040 O   0  0  0  0  0  0  0  0  0  0  0  0
   18.3294   -0.9602    6.9891 N   0  0  0  0  0  0  0  0  0  0  0  0
   18.2945   -1.8796    7.3395 H   0  0  0  0  0  0  0  0  0  0  0  0
   17.8136   -0.7459    5.5334 C   0  0  0  0  0  0  0  0  0  0  0  0
   17.9539   -2.0529    4.6957 C   0  0  0  0  0  0  0  0  0  0  0  0
   18.7099    0.1884    4.6810 C   0  0  0  0  0  0  0  0  0  0  0  0
   16.2618   -0.2578    5.5367 C   0  0  0  0  0  0  0  0  0  0  0  0
   20.1463   -4.1242   10.2349 C   0  0  0  0  0  0  0  0  0  0  0  0
   19.2709   -5.0534    9.2923 C   0  0  0  0  0  0  0  0  0  0  0  0
   19.8130   -5.7196    8.1858 C   0  0  0  0  0  0  0  0  0  0  0  0
   19.0109   -6.5920    7.2886 N   0  0  0  0  0  0  0  0  0  0  0  0
   17.6256   -6.7039    7.6435 C   0  0  0  0  0  0  0  0  0  0  0  0
   17.0605   -6.0508    8.7421 C   0  0  0  0  0  0  0  0  0  0  0  0
   17.8836   -5.2263    9.5629 C   0  0  0  0  0  0  0  0  0  0  0  0
   18.1392    3.0060   12.4414 C   0  0  0  0  0  0  0  0  0  0  0  0
   17.9289    2.7912   13.9372 C   0  0  0  0  0  0  0  0  0  0  0  0
   18.1524    4.0962   14.7475 C   0  0  0  0  0  0  0  0  0  0  0  0
   19.0420    4.8978   14.4781 O   0  0  0  0  0  0  0  0  0  0  0  0
   17.3138    4.2720   15.7619 N   0  0  0  0  0  0  0  0  0  0  0  0
   16.6402    3.5700   15.9128 H   0  0  0  0  0  0  0  0  0  0  0  0
   17.3001    5.4208   16.6805 C   0  0  0  0  0  0  0  0  0  0  0  0
   16.7014    4.9981   18.0476 C   0  0  0  0  0  0  0  0  0  0  0  0
   15.7060    3.9871   17.8804 O   0  0  0  0  0  0  0  0  0  0  0  0
   16.2934    6.3160   18.6712 C   0  0  0  0  0  0  0  0  0  0  0  0
   15.7240    7.2036   17.6061 C   0  0  0  0  0  0  0  0  0  0  0  0
   14.8412    8.2936   17.5836 C   0  0  0  0  0  0  0  0  0  0  0  0
   14.5376    8.8820   16.3323 C   0  0  0  0  0  0  0  0  0  0  0  0
   15.1063    8.3902   15.1152 C   0  0  0  0  0  0  0  0  0  0  0  0
   16.0077    7.2834   15.1075 C   0  0  0  0  0  0  0  0  0  0  0  0
   16.3842    6.6165   16.3047 C   0  0  0  0  0  0  0  0  0  0  0  0
   15.0171    4.3081   17.2776 H   0  0  0  0  0  0  0  0  0  0  0  0
   18.9495    1.6981   14.3184 C   0  0  0  0  0  0  0  0  0  0  0  0
   18.5061    0.8467   15.4753 C   0  0  0  0  0  0  0  0  0  0  0  0
   18.8563    1.1564   16.8248 C   0  0  0  0  0  0  0  0  0  0  0  0
   18.4133    0.3092   17.8810 C   0  0  0  0  0  0  0  0  0  0  0  0
   17.6242   -0.8435   17.5878 C   0  0  0  0  0  0  0  0  0  0  0  0
   17.2794   -1.1466   16.2489 C   0  0  0  0  0  0  0  0  0  0  0  0
   17.7152   -0.3093   15.1933 C   0  0  0  0  0  0  0  0  0  0  0  0
  5  6  1  0  0  0
  5 10  1  0  0  0
  5 19  1  0  0  0
  6  7  1  0  0  0
  7 11  1  0  0  0
  7  8  1  0  0  0
 11 12  2  0  0  0
 11 13  1  0  0  0
 13 15  1  0  0  0
 15 16  1  0  0  0
 15 17  1  0  0  0
 15 18  1  0  0  0
  8  9  1  0  0  0
  8  4  1  0  0  0
  9 10  1  0  0  0
  4  1  1  0  0  0
  1  2  1  0  0  0
  1 26  1  0  0  0
 26 27  1  0  0  0
 27 43  1  0  0  0
 27 28  1  0  0  0
 43 44  1  0  0  0
 44 45  2  0  0  0
 44 49  1  0  0  0
 45 46  1  0  0  0
 46 47  2  0  0  0
 47 48  1  0  0  0
 48 49  2  0  0  0
 28 29  2  0  0  0
 28 30  1  0  0  0
 30 32  1  0  0  0
 32 33  1  0  0  0
 32 41  1  0  0  0
 33 34  1  0  0  0
 33 35  1  0  0  0
 35 36  1  0  0  0
 36 37  2  0  0  0
 36 41  1  0  0  0
 37 38  1  0  0  0
 38 39  2  0  0  0
 39 40  1  0  0  0
 40 41  2  0  0  0
 19 20  1  0  0  0
 20 21  1  0  0  0
 20 25  2  0  0  0
 21 22  2  0  0  0
 22 23  1  0  0  0
 23 24  2  0  0  0
 24 25  1  0  0  0
 13 14  1  0  0  0
  2  3  1  0  0  0
 30 31  1  0  0  0
 34 42  1  0  0  0
M  END
> <minimizedAffinity>
-9.98485

$$$$
1SGU_MK1_B_2632


 49 53  0  0  0  0  0  0  0  0999 V2000
   18.6336   -2.2014   10.0815 C   0  0  0  0  0  0  0  0  0  0  0  0
   19.5547   -1.8904   11.1331 O   0  0  0  0  0  0  0  0  0  0  0  0
   20.3450   -1.4718   10.7574 H   0  0  0  0  0  0  0  0  0  0  0  0
   19.2522   -3.2279    9.1511 C   0  0  0  0  0  0  0  0  0  0  0  0
   17.3124   -6.6912    7.3931 N   0  0  0  0  0  0  0  0  0  0  0  0
   17.5596   -5.4653    6.5825 C   0  0  0  0  0  0  0  0  0  0  0  0
   18.6288   -4.5033    7.1241 C   0  0  0  0  0  0  0  0  0  0  0  0
   18.2537   -4.1232    8.5196 N   0  0  0  0  0  0  0  0  0  0  0  0
   17.9064   -5.2786    9.4054 C   0  0  0  0  0  0  0  0  0  0  0  0
   16.8816   -6.2551    8.7628 C   0  0  0  0  0  0  0  0  0  0  0  0
   18.7173   -3.3209    6.1586 C   0  0  0  0  0  0  0  0  0  0  0  0
   19.6837   -3.2269    5.3773 O   0  0  0  0  0  0  0  0  0  0  0  0
   17.7089   -2.4244    6.2013 N   0  0  0  0  0  0  0  0  0  0  0  0
   16.9968   -2.5913    6.8602 H   0  0  0  0  0  0  0  0  0  0  0  0
   17.5569   -1.1517    5.3135 C   0  0  0  0  0  0  0  0  0  0  0  0
   18.5280   -0.0266    5.7836 C   0  0  0  0  0  0  0  0  0  0  0  0
   16.2102   -0.4088    5.5066 C   0  0  0  0  0  0  0  0  0  0  0  0
   17.8357   -1.5019    3.7496 C   0  0  0  0  0  0  0  0  0  0  0  0
   16.3843   -7.6495    6.7219 C   0  0  0  0  0  0  0  0  0  0  0  0
   15.7390   -7.3604    5.3013 C   0  0  0  0  0  0  0  0  0  0  0  0
   16.4041   -7.6527    4.1037 C   0  0  0  0  0  0  0  0  0  0  0  0
   15.8195   -7.3874    2.7631 N   0  0  0  0  0  0  0  0  0  0  0  0
   14.5090   -6.8046    2.7857 C   0  0  0  0  0  0  0  0  0  0  0  0
   13.8239   -6.5044    3.9661 C   0  0  0  0  0  0  0  0  0  0  0  0
   14.4405   -6.7815    5.2206 C   0  0  0  0  0  0  0  0  0  0  0  0
   18.2725   -0.8461    9.4465 C   0  0  0  0  0  0  0  0  0  0  0  0
   18.5821    0.3933   10.2807 C   0  0  0  0  0  0  0  0  0  0  0  0
   17.6245    0.5293   11.4948 C   0  0  0  0  0  0  0  0  0  0  0  0
   16.4027    0.5195   11.3779 O   0  0  0  0  0  0  0  0  0  0  0  0
   18.2300    0.6687   12.6683 N   0  0  0  0  0  0  0  0  0  0  0  0
   19.2144    0.6798   12.6657 H   0  0  0  0  0  0  0  0  0  0  0  0
   17.5628    0.8080   13.9719 C   0  0  0  0  0  0  0  0  0  0  0  0
   17.9427    2.1660   14.6182 C   0  0  0  0  0  0  0  0  0  0  0  0
   19.2704    2.5513   14.2582 O   0  0  0  0  0  0  0  0  0  0  0  0
   17.6251    1.9549   16.0835 C   0  0  0  0  0  0  0  0  0  0  0  0
   18.0197    0.5621   16.4718 C   0  0  0  0  0  0  0  0  0  0  0  0
   18.3655   -0.0782   17.6713 C   0  0  0  0  0  0  0  0  0  0  0  0
   18.6896   -1.4555   17.6243 C   0  0  0  0  0  0  0  0  0  0  0  0
   18.6706   -2.1883   16.3958 C   0  0  0  0  0  0  0  0  0  0  0  0
   18.3222   -1.5636   15.1605 C   0  0  0  0  0  0  0  0  0  0  0  0
   17.9781   -0.1865   15.0892 C   0  0  0  0  0  0  0  0  0  0  0  0
   19.8911    1.8519   14.5160 H   0  0  0  0  0  0  0  0  0  0  0  0
   18.4287    1.5711    9.2953 C   0  0  0  0  0  0  0  0  0  0  0  0
   18.5398    2.9176    9.9545 C   0  0  0  0  0  0  0  0  0  0  0  0
   19.7058    3.3163   10.6764 C   0  0  0  0  0  0  0  0  0  0  0  0
   19.7523    4.6027   11.2868 C   0  0  0  0  0  0  0  0  0  0  0  0
   18.6364    5.4858   11.1761 C   0  0  0  0  0  0  0  0  0  0  0  0
   17.4828    5.0865   10.4597 C   0  0  0  0  0  0  0  0  0  0  0  0
   17.4287    3.8098    9.8495 C   0  0  0  0  0  0  0  0  0  0  0  0
  5  6  1  0  0  0
  5 10  1  0  0  0
  5 19  1  0  0  0
  6  7  1  0  0  0
  7 11  1  0  0  0
  7  8  1  0  0  0
 11 12  2  0  0  0
 11 13  1  0  0  0
 13 15  1  0  0  0
 15 16  1  0  0  0
 15 17  1  0  0  0
 15 18  1  0  0  0
  8  9  1  0  0  0
  8  4  1  0  0  0
  9 10  1  0  0  0
  4  1  1  0  0  0
  1  2  1  0  0  0
  1 26  1  0  0  0
 26 27  1  0  0  0
 27 43  1  0  0  0
 27 28  1  0  0  0
 43 44  1  0  0  0
 44 45  2  0  0  0
 44 49  1  0  0  0
 45 46  1  0  0  0
 46 47  2  0  0  0
 47 48  1  0  0  0
 48 49  2  0  0  0
 28 29  2  0  0  0
 28 30  1  0  0  0
 30 32  1  0  0  0
 32 33  1  0  0  0
 32 41  1  0  0  0
 33 34  1  0  0  0
 33 35  1  0  0  0
 35 36  1  0  0  0
 36 37  2  0  0  0
 36 41  1  0  0  0
 37 38  1  0  0  0
 38 39  2  0  0  0
 39 40  1  0  0  0
 40 41  2  0  0  0
 19 20  1  0  0  0
 20 21  1  0  0  0
 20 25  2  0  0  0
 21 22  2  0  0  0
 22 23  1  0  0  0
 23 24  2  0  0  0
 24 25  1  0  0  0
 13 14  1  0  0  0
  2  3  1  0  0  0
 30 31  1  0  0  0
 34 42  1  0  0  0
M  END
> <minimizedAffinity>
-9.96079

$$$$
1SGU_MK1_B_2632


 49 53  0  0  0  0  0  0  0  0999 V2000
   18.3224   -1.9837   10.1663 C   0  0  0  0  0  0  0  0  0  0  0  0
   16.9237   -1.7500    9.9664 O   0  0  0  0  0  0  0  0  0  0  0  0
   16.8032   -1.0852    9.2704 H   0  0  0  0  0  0  0  0  0  0  0  0
   18.9820   -0.7159   10.6758 C   0  0  0  0  0  0  0  0  0  0  0  0
   17.5161   -0.9424   14.7560 N   0  0  0  0  0  0  0  0  0  0  0  0
   17.4903    0.3472   14.0095 C   0  0  0  0  0  0  0  0  0  0  0  0
   17.5839    0.2422   12.4790 C   0  0  0  0  0  0  0  0  0  0  0  0
   18.8232   -0.5192   12.1364 N   0  0  0  0  0  0  0  0  0  0  0  0
   18.9922   -1.8012   12.8902 C   0  0  0  0  0  0  0  0  0  0  0  0
   18.8041   -1.6374   14.4246 C   0  0  0  0  0  0  0  0  0  0  0  0
   17.5501    1.6634   11.9160 C   0  0  0  0  0  0  0  0  0  0  0  0
   16.9446    1.8966   10.8520 O   0  0  0  0  0  0  0  0  0  0  0  0
   18.1883    2.6153   12.6293 N   0  0  0  0  0  0  0  0  0  0  0  0
   18.6396    2.3218   13.4536 H   0  0  0  0  0  0  0  0  0  0  0  0
   18.2835    4.1321   12.2813 C   0  0  0  0  0  0  0  0  0  0  0  0
   19.2129    4.3631   11.0513 C   0  0  0  0  0  0  0  0  0  0  0  0
   19.0558    4.9701   13.3321 C   0  0  0  0  0  0  0  0  0  0  0  0
   16.8087    4.7494   11.9807 C   0  0  0  0  0  0  0  0  0  0  0  0
   17.2575   -0.7690   16.2165 C   0  0  0  0  0  0  0  0  0  0  0  0
   17.6239    0.5635   16.9964 C   0  0  0  0  0  0  0  0  0  0  0  0
   18.9437    0.9008   17.3226 C   0  0  0  0  0  0  0  0  0  0  0  0
   19.3087    2.1418   18.0548 N   0  0  0  0  0  0  0  0  0  0  0  0
   18.1980    2.9788   18.4060 C   0  0  0  0  0  0  0  0  0  0  0  0
   16.8728    2.6657   18.0917 C   0  0  0  0  0  0  0  0  0  0  0  0
   16.5886    1.4588   17.3892 C   0  0  0  0  0  0  0  0  0  0  0  0
   18.8395   -2.5185    8.8182 C   0  0  0  0  0  0  0  0  0  0  0  0
   17.7777   -2.9662    7.8183 C   0  0  0  0  0  0  0  0  0  0  0  0
   17.1310   -4.3174    8.2252 C   0  0  0  0  0  0  0  0  0  0  0  0
   16.2724   -4.4034    9.0980 O   0  0  0  0  0  0  0  0  0  0  0  0
   17.5873   -5.3744    7.5636 N   0  0  0  0  0  0  0  0  0  0  0  0
   18.2870   -5.2132    6.8900 H   0  0  0  0  0  0  0  0  0  0  0  0
   17.1419   -6.7644    7.7461 C   0  0  0  0  0  0  0  0  0  0  0  0
   18.2417   -7.7414    7.2543 C   0  0  0  0  0  0  0  0  0  0  0  0
   18.9717   -7.1826    6.1608 O   0  0  0  0  0  0  0  0  0  0  0  0
   17.4848   -9.0335    7.0311 C   0  0  0  0  0  0  0  0  0  0  0  0
   16.1453   -8.7174    6.4379 C   0  0  0  0  0  0  0  0  0  0  0  0
   15.2106   -9.4149    5.6581 C   0  0  0  0  0  0  0  0  0  0  0  0
   14.0211   -8.7454    5.2826 C   0  0  0  0  0  0  0  0  0  0  0  0
   13.7645   -7.3948    5.6782 C   0  0  0  0  0  0  0  0  0  0  0  0
   14.6966   -6.6606    6.4718 C   0  0  0  0  0  0  0  0  0  0  0  0
   15.9226   -7.2327    6.9071 C   0  0  0  0  0  0  0  0  0  0  0  0
   18.3578   -6.9535    5.4456 H   0  0  0  0  0  0  0  0  0  0  0  0
   18.5312   -3.0728    6.4757 C   0  0  0  0  0  0  0  0  0  0  0  0
   18.5391   -1.7889    5.6936 C   0  0  0  0  0  0  0  0  0  0  0  0
   18.8779   -1.7461    4.3068 C   0  0  0  0  0  0  0  0  0  0  0  0
   18.8752   -0.4991    3.6180 C   0  0  0  0  0  0  0  0  0  0  0  0
   18.5360    0.7000    4.3142 C   0  0  0  0  0  0  0  0  0  0  0  0
   18.2008    0.6528    5.6886 C   0  0  0  0  0  0  0  0  0  0  0  0
   18.2005   -0.5827    6.3805 C   0  0  0  0  0  0  0  0  0  0  0  0
  5  6  1  0  0  0
  5 10  1  0  0  0
  5 19  1  0  0  0
  6  7  1  0  0  0
  7 11  1  0  0  0
  7  8  1  0  0  0
 11 12  2  0  0  0
 11 13  1  0  0  0
 13 15  1  0  0  0
 15 16  1  0  0  0
 15 17  1  0  0  0
 15 18  1  0  0  0
  8  9  1  0  0  0
  8  4  1  0  0  0
  9 10  1  0  0  0
  4  1  1  0  0  0
  1  2  1  0  0  0
  1 26  1  0  0  0
 26 27  1  0  0  0
 27 43  1  0  0  0
 27 28  1  0  0  0
 43 44  1  0  0  0
 44 45  2  0  0  0
 44 49  1  0  0  0
 45 46  1  0  0  0
 46 47  2  0  0  0
 47 48  1  0  0  0
 48 49  2  0  0  0
 28 29  2  0  0  0
 28 30  1  0  0  0
 30 32  1  0  0  0
 32 33  1  0  0  0
 32 41  1  0  0  0
 33 34  1  0  0  0
 33 35  1  0  0  0
 35 36  1  0  0  0
 36 37  2  0  0  0
 36 41  1  0  0  0
 37 38  1  0  0  0
 38 39  2  0  0  0
 39 40  1  0  0  0
 40 41  2  0  0  0
 19 20  1  0  0  0
 20 21  1  0  0  0
 20 25  2  0  0  0
 21 22  2  0  0  0
 22 23  1  0  0  0
 23 24  2  0  0  0
 24 25  1  0  0  0
 13 14  1  0  0  0
  2  3  1  0  0  0
 30 31  1  0  0  0
 34 42  1  0  0  0
M  END
> <minimizedAffinity>
-9.94569

$$$$
1SGU_MK1_B_2632


 49 53  0  0  0  0  0  0  0  0999 V2000
   17.0195    0.1987   11.1015 C   0  0  0  0  0  0  0  0  0  0  0  0
   15.9686   -0.0418   10.1588 O   0  0  0  0  0  0  0  0  0  0  0  0
   16.3497   -0.1754    9.2768 H   0  0  0  0  0  0  0  0  0  0  0  0
   17.7316    1.4915   10.7500 C   0  0  0  0  0  0  0  0  0  0  0  0
   17.8918    5.2562   12.9061 N   0  0  0  0  0  0  0  0  0  0  0  0
   18.1302    3.9654   13.6118 C   0  0  0  0  0  0  0  0  0  0  0  0
   18.5067    2.7703   12.7218 C   0  0  0  0  0  0  0  0  0  0  0  0
   17.4375    2.5973   11.6924 N   0  0  0  0  0  0  0  0  0  0  0  0
   17.0603    3.8540   10.9722 C   0  0  0  0  0  0  0  0  0  0  0  0
   16.7722    5.0442   11.9298 C   0  0  0  0  0  0  0  0  0  0  0  0
   18.6957    1.5574   13.6337 C   0  0  0  0  0  0  0  0  0  0  0  0
   19.6614    0.7900   13.4556 O   0  0  0  0  0  0  0  0  0  0  0  0
   17.7849    1.3870   14.6153 N   0  0  0  0  0  0  0  0  0  0  0  0
   17.0582    2.0494   14.6638 H   0  0  0  0  0  0  0  0  0  0  0  0
   17.7662    0.2481   15.6800 C   0  0  0  0  0  0  0  0  0  0  0  0
   18.0694   -1.1325   15.0229 C   0  0  0  0  0  0  0  0  0  0  0  0
   16.3568   -0.0561   16.2491 C   0  0  0  0  0  0  0  0  0  0  0  0
   18.8445    0.5444   16.8614 C   0  0  0  0  0  0  0  0  0  0  0  0
   17.6931    6.3996   13.8460 C   0  0  0  0  0  0  0  0  0  0  0  0
   16.5889    6.3864   14.9855 C   0  0  0  0  0  0  0  0  0  0  0  0
   16.8602    5.9403   16.2853 C   0  0  0  0  0  0  0  0  0  0  0  0
   15.8404    5.9168   17.3665 N   0  0  0  0  0  0  0  0  0  0  0  0
   14.5437    6.3907   16.9773 C   0  0  0  0  0  0  0  0  0  0  0  0
   14.2475    6.8417   15.6883 C   0  0  0  0  0  0  0  0  0  0  0  0
   15.2697    6.8373   14.6954 C   0  0  0  0  0  0  0  0  0  0  0  0
   17.8833   -1.0756   11.0776 C   0  0  0  0  0  0  0  0  0  0  0  0
   18.0569   -1.7473    9.7187 C   0  0  0  0  0  0  0  0  0  0  0  0
   18.3115   -3.2725    9.8540 C   0  0  0  0  0  0  0  0  0  0  0  0
   18.7958   -3.7752   10.8636 O   0  0  0  0  0  0  0  0  0  0  0  0
   17.9754   -3.9896    8.7882 N   0  0  0  0  0  0  0  0  0  0  0  0
   17.6070   -3.5004    8.0174 H   0  0  0  0  0  0  0  0  0  0  0  0
   18.1038   -5.4489    8.6550 C   0  0  0  0  0  0  0  0  0  0  0  0
   19.4649   -5.8028    8.0007 C   0  0  0  0  0  0  0  0  0  0  0  0
   19.8671   -4.7912    7.0756 O   0  0  0  0  0  0  0  0  0  0  0  0
   19.2468   -7.2086    7.4825 C   0  0  0  0  0  0  0  0  0  0  0  0
   17.8581   -7.3138    6.9285 C   0  0  0  0  0  0  0  0  0  0  0  0
   17.2195   -8.1364    5.9885 C   0  0  0  0  0  0  0  0  0  0  0  0
   15.8463   -7.9117    5.7274 C   0  0  0  0  0  0  0  0  0  0  0  0
   15.1160   -6.8782    6.3944 C   0  0  0  0  0  0  0  0  0  0  0  0
   15.7391   -6.0265    7.3557 C   0  0  0  0  0  0  0  0  0  0  0  0
   17.1120   -6.1620    7.6971 C   0  0  0  0  0  0  0  0  0  0  0  0
   19.1749   -4.6708    6.4069 H   0  0  0  0  0  0  0  0  0  0  0  0
   19.2584   -1.0204    9.0786 C   0  0  0  0  0  0  0  0  0  0  0  0
   18.9410   -0.4074    7.7431 C   0  0  0  0  0  0  0  0  0  0  0  0
   19.0130    1.0010    7.5170 C   0  0  0  0  0  0  0  0  0  0  0  0
   18.6941    1.5265    6.2319 C   0  0  0  0  0  0  0  0  0  0  0  0
   18.3040    0.6466    5.1778 C   0  0  0  0  0  0  0  0  0  0  0  0
   18.2341   -0.7485    5.4063 C   0  0  0  0  0  0  0  0  0  0  0  0
   18.5499   -1.2791    6.6807 C   0  0  0  0  0  0  0  0  0  0  0  0
  5  6  1  0  0  0
  5 10  1  0  0  0
  5 19  1  0  0  0
  6  7  1  0  0  0
  7 11  1  0  0  0
  7  8  1  0  0  0
 11 12  2  0  0  0
 11 13  1  0  0  0
 13 15  1  0  0  0
 15 16  1  0  0  0
 15 17  1  0  0  0
 15 18  1  0  0  0
  8  9  1  0  0  0
  8  4  1  0  0  0
  9 10  1  0  0  0
  4  1  1  0  0  0
  1  2  1  0  0  0
  1 26  1  0  0  0
 26 27  1  0  0  0
 27 43  1  0  0  0
 27 28  1  0  0  0
 43 44  1  0  0  0
 44 45  2  0  0  0
 44 49  1  0  0  0
 45 46  1  0  0  0
 46 47  2  0  0  0
 47 48  1  0  0  0
 48 49  2  0  0  0
 28 29  2  0  0  0
 28 30  1  0  0  0
 30 32  1  0  0  0
 32 33  1  0  0  0
 32 41  1  0  0  0
 33 34  1  0  0  0
 33 35  1  0  0  0
 35 36  1  0  0  0
 36 37  2  0  0  0
 36 41  1  0  0  0
 37 38  1  0  0  0
 38 39  2  0  0  0
 39 40  1  0  0  0
 40 41  2  0  0  0
 19 20  1  0  0  0
 20 21  1  0  0  0
 20 25  2  0  0  0
 21 22  2  0  0  0
 22 23  1  0  0  0
 23 24  2  0  0  0
 24 25  1  0  0  0
 13 14  1  0  0  0
  2  3  1  0  0  0
 30 31  1  0  0  0
 34 42  1  0  0  0
M  END
> <minimizedAffinity>
-9.73784

$$$$
