3V2N_MYR_A_1
  RCSB PDB12061711103D
Coordinates from PDB:3V2N:A:1 Model:1 without hydrogens
 16 15  0  0  0  0            999 V2000
    0.1770   -0.2640   11.6550   C 0  0  0  0  0  0  0  0  0  0  0  0
   -0.9240   -0.8240   11.6440   O 0  0  0  0  0  0  0  0  0  0  0  0
    0.3730    0.7560   12.3390   O 0  0  0  0  0  0  0  0  0  0  0  0
    1.2890   -0.8500   10.8080   C 0  0  0  0  0  0  0  0  0  0  0  0
    1.4990   -0.1630    9.4720   C 0  0  0  0  0  0  0  0  0  0  0  0
    2.6260   -0.7900    8.6700   C 0  0  0  0  0  0  0  0  0  0  0  0
    3.3320    0.2050    7.7670   C 0  0  0  0  0  0  0  0  0  0  0  0
    3.9360   -0.4270    6.5220   C 0  0  0  0  0  0  0  0  0  0  0  0
    5.2280    0.2820    6.1100   C 0  0  0  0  0  0  0  0  0  0  0  0
    5.8320   -0.3590    4.8520   C 0  0  0  0  0  0  0  0  0  0  0  0
    6.7500    0.5980    4.1240   C 0  0  0  0  0  0  0  0  0  0  0  0
    7.3770    0.0290    2.8760   C 0  0  0  0  0  0  0  0  0  0  0  0
    8.8330    0.4270    2.7010   C 0  0  0  0  0  0  0  0  0  0  0  0
    8.9980    1.2250    1.4060   C 0  0  0  0  0  0  0  0  0  0  0  0
    9.5200    0.3230    0.2940   C 0  0  0  0  0  0  0  0  0  0  0  0
   10.8760    0.7890   -0.2270   C 0  0  0  0  0  0  0  0  0  0  0  0
  1  2  2  0  0  0  0
  1  3  1  0  0  0  0
  1  4  1  0  0  0  0
  4  5  1  0  0  0  0
  5  6  1  0  0  0  0
  6  7  1  0  0  0  0
  7  8  1  0  0  0  0
  8  9  1  0  0  0  0
  9 10  1  0  0  0  0
 10 11  1  0  0  0  0
 11 12  1  0  0  0  0
 12 13  1  0  0  0  0
 13 14  1  0  0  0  0
 14 15  1  0  0  0  0
 15 16  1  0  0  0  0
A    1
C1
A    2
O1
A    3
O2
A    4
C2
A    5
C3
A    6
C4
A    7
C5
A    8
C6
A    9
C7
A   10
C8
A   11
C9
A   12
C10
A   13
C11
A   14
C12
A   15
C13
A   16
C14
M  END
>  <InstanceId>
3V2N_MYR_A_1

>  <ChemCompId>
MYR

>  <PdbId>
3V2N

>  <ChainId>
A

>  <ResidueNumber>
1

>  <InsertionCode>


>  <Model>
1

>  <AltIds>


>  <MissingHeavyAtoms>
0

>  <ObservedFormula>
C14 O2

>  <Name>
MYRISTIC ACID

>  <SystematicName>
tetradecanoic acid

>  <Synonyms>


>  <Type>
NON-POLYMER

>  <Formula>
C14 H28 O2

>  <MolecularWeight>
228.371

>  <ModifiedDate>
2014-04-23

>  <Parent>


>  <OneLetterCode>


>  <SubcomponentList>


>  <AmbiguousFlag>
N

>  <InChI>
InChI=1S/C14H28O2/c1-2-3-4-5-6-7-8-9-10-11-12-13-14(15)16/h2-13H2,1H3,(H,15,16)

>  <InChIKey>
TUNFSRHWOTWDNC-UHFFFAOYSA-N

>  <SMILES>
CCCCCCCCCCCCCC(=O)O

$$$$
