5IE1_6BS_A_407


 32 34  0  0  0  0  0  0  0  0999 V2000
   66.2272   47.7906    8.5840 C   0  0  0  0  0  0  0  0  0  0  0  0
   66.6014   48.6557    7.5592 C   0  0  0  0  0  0  0  0  0  0  0  0
   67.6348   49.4938    7.7066 N   0  0  0  0  0  0  0  0  0  0  0  0
   65.9280   48.6572    6.4112 N   0  0  0  0  0  0  0  0  0  0  0  0
   66.9592   47.8093    9.7636 C   0  0  0  0  0  0  0  0  0  0  0  0
   68.0253   48.6899    9.8851 C   0  0  0  0  0  0  0  0  0  0  0  0
   68.7985   48.6984   11.0340 C   0  0  0  0  0  0  0  0  0  0  0  0
   68.3517   49.5278    8.8336 C   0  0  0  0  0  0  0  0  0  0  0  0
   69.4161   50.4095    8.9609 C   0  0  0  0  0  0  0  0  0  0  0  0
   70.1499   50.4378   10.1420 C   0  0  0  0  0  0  0  0  0  0  0  0
   69.7939   49.6478   11.2337 C   0  0  0  0  0  0  0  0  0  0  0  0
   66.1923   49.2687    5.6863 H   0  0  0  0  0  0  0  0  0  0  0  0
   65.1657   48.0468    6.2870 H   0  0  0  0  0  0  0  0  0  0  0  0
   70.6648   49.6967   12.3264 C   0  0  0  0  0  0  0  0  0  0  0  0
   71.8535   49.0175   12.0805 C   0  0  0  0  0  0  0  0  0  0  0  0
   72.9040   49.0231   12.9867 C   0  0  0  0  0  0  0  0  0  0  0  0
   72.8248   49.7824   14.1366 C   0  0  0  0  0  0  0  0  0  0  0  0
   71.6870   50.5339   14.3557 C   0  0  0  0  0  0  0  0  0  0  0  0
   70.6616   50.5757   13.4199 C   0  0  0  0  0  0  0  0  0  0  0  0
   69.4497   51.4091   13.8481 C   0  0  0  0  0  0  0  0  0  0  0  0
   65.0539   46.8207    8.4750 C   0  0  0  0  0  0  0  0  0  0  0  0
   63.7045   47.5177    8.7721 C   0  0  0  0  0  0  0  0  0  0  0  0
   63.4592   49.6167   10.0492 N   0  0  0  0  0  0  0  0  0  0  0  0
   63.5705   48.2852   10.1097 C   0  0  0  0  0  0  0  0  0  0  0  0
   63.5543   47.6692   11.1727 O   0  0  0  0  0  0  0  0  0  0  0  0
   63.4644   50.0706    9.1757 H   0  0  0  0  0  0  0  0  0  0  0  0
   63.3277   50.4112   11.2950 C   0  0  0  0  0  0  0  0  0  0  0  0
   63.8083   51.8816   11.3110 C   0  0  0  0  0  0  0  0  0  0  0  0
   66.2937   51.6089   10.9813 C   0  0  0  0  0  0  0  0  0  0  0  0
   65.2053   52.1436   11.8897 C   0  0  0  0  0  0  0  0  0  0  0  0
   65.3983   53.6470   12.0723 C   0  0  0  0  0  0  0  0  0  0  0  0
   65.2857   51.4552   13.2508 C   0  0  0  0  0  0  0  0  0  0  0  0
  4  2  1  0  0  0
  2  3  2  0  0  0
  2  1  1  0  0  0
  3  8  1  0  0  0
 21 22  1  0  0  0
 21  1  1  0  0  0
 22 24  1  0  0  0
  1  5  2  0  0  0
  8  9  2  0  0  0
  8  6  1  0  0  0
  9 10  1  0  0  0
  5  6  1  0  0  0
 24 23  1  0  0  0
 24 25  2  0  0  0
 23 27  1  0  0  0
  6  7  2  0  0  0
 10 11  2  0  0  0
 29 30  1  0  0  0
  7 11  1  0  0  0
 27 28  1  0  0  0
 11 14  1  0  0  0
 28 30  1  0  0  0
 30 31  1  0  0  0
 30 32  1  0  0  0
 20 19  1  0  0  0
 14 19  2  0  0  0
 14 15  1  0  0  0
 19 18  1  0  0  0
 15 16  2  0  0  0
 18 17  2  0  0  0
 16 17  1  0  0  0
 23 26  1  0  0  0
  4 12  1  0  0  0
  4 13  1  0  0  0
M  END
> <minimizedAffinity>
-9.26509

$$$$
5IE1_6BS_A_407


 32 34  0  0  0  0  0  0  0  0999 V2000
   66.2118   47.8410    8.6721 C   0  0  0  0  0  0  0  0  0  0  0  0
   66.4823   48.7506    7.6532 C   0  0  0  0  0  0  0  0  0  0  0  0
   67.5069   49.6069    7.7469 N   0  0  0  0  0  0  0  0  0  0  0  0
   65.7165   48.7771    6.5651 N   0  0  0  0  0  0  0  0  0  0  0  0
   67.0383   47.8349    9.7878 C   0  0  0  0  0  0  0  0  0  0  0  0
   68.0925   48.7354    9.8545 C   0  0  0  0  0  0  0  0  0  0  0  0
   68.9576   48.7212   10.9359 C   0  0  0  0  0  0  0  0  0  0  0  0
   68.3136   49.6177    8.8119 C   0  0  0  0  0  0  0  0  0  0  0  0
   69.3666   50.5191    8.8846 C   0  0  0  0  0  0  0  0  0  0  0  0
   70.1947   50.5225   10.0019 C   0  0  0  0  0  0  0  0  0  0  0  0
   69.9464   49.6860   11.0888 C   0  0  0  0  0  0  0  0  0  0  0  0
   65.9073   49.4200    5.8444 H   0  0  0  0  0  0  0  0  0  0  0  0
   64.9591   48.1537    6.4809 H   0  0  0  0  0  0  0  0  0  0  0  0
   70.9034   49.7165   12.1076 C   0  0  0  0  0  0  0  0  0  0  0  0
   70.7100   50.7849   12.9770 C   0  0  0  0  0  0  0  0  0  0  0  0
   71.4794   50.9511   14.1196 C   0  0  0  0  0  0  0  0  0  0  0  0
   72.4162   50.0000   14.4701 C   0  0  0  0  0  0  0  0  0  0  0  0
   72.5613   48.8869   13.6655 C   0  0  0  0  0  0  0  0  0  0  0  0
   71.7495   48.6910   12.5558 C   0  0  0  0  0  0  0  0  0  0  0  0
   72.0845   47.4370   11.7421 C   0  0  0  0  0  0  0  0  0  0  0  0
   65.0537   46.8483    8.6233 C   0  0  0  0  0  0  0  0  0  0  0  0
   63.6966   47.5364    8.9053 C   0  0  0  0  0  0  0  0  0  0  0  0
   63.2771   49.6307   10.1443 N   0  0  0  0  0  0  0  0  0  0  0  0
   63.5511   48.3243   10.2298 C   0  0  0  0  0  0  0  0  0  0  0  0
   63.6724   47.7447   11.3062 O   0  0  0  0  0  0  0  0  0  0  0  0
   63.1758   50.0543    9.2614 H   0  0  0  0  0  0  0  0  0  0  0  0
   63.1255   50.4429   11.3763 C   0  0  0  0  0  0  0  0  0  0  0  0
   63.6859   51.8846   11.4079 C   0  0  0  0  0  0  0  0  0  0  0  0
   65.2788   51.4016   13.3026 C   0  0  0  0  0  0  0  0  0  0  0  0
   65.1123   52.0576   11.9470 C   0  0  0  0  0  0  0  0  0  0  0  0
   66.0990   51.4335   10.9633 C   0  0  0  0  0  0  0  0  0  0  0  0
   65.3920   53.5548   12.0612 C   0  0  0  0  0  0  0  0  0  0  0  0
  4  2  1  0  0  0
  2  3  2  0  0  0
  2  1  1  0  0  0
  3  8  1  0  0  0
 21 22  1  0  0  0
 21  1  1  0  0  0
 22 24  1  0  0  0
  1  5  2  0  0  0
  8  9  2  0  0  0
  8  6  1  0  0  0
  9 10  1  0  0  0
  5  6  1  0  0  0
 24 23  1  0  0  0
 24 25  2  0  0  0
 23 27  1  0  0  0
  6  7  2  0  0  0
 10 11  2  0  0  0
 29 30  1  0  0  0
  7 11  1  0  0  0
 27 28  1  0  0  0
 11 14  1  0  0  0
 28 30  1  0  0  0
 30 31  1  0  0  0
 30 32  1  0  0  0
 20 19  1  0  0  0
 14 19  2  0  0  0
 14 15  1  0  0  0
 19 18  1  0  0  0
 15 16  2  0  0  0
 18 17  2  0  0  0
 16 17  1  0  0  0
 23 26  1  0  0  0
  4 12  1  0  0  0
  4 13  1  0  0  0
M  END
> <minimizedAffinity>
-9.02299

$$$$
5IE1_6BS_A_407


 32 34  0  0  0  0  0  0  0  0999 V2000
   64.3950   51.5120   11.9724 C   0  0  0  0  0  0  0  0  0  0  0  0
   64.7127   52.7819   11.4980 C   0  0  0  0  0  0  0  0  0  0  0  0
   65.9867   53.1583   11.3337 N   0  0  0  0  0  0  0  0  0  0  0  0
   63.7420   53.6424   11.2002 N   0  0  0  0  0  0  0  0  0  0  0  0
   65.4334   50.6372   12.2627 C   0  0  0  0  0  0  0  0  0  0  0  0
   66.7437   51.0577   12.0815 C   0  0  0  0  0  0  0  0  0  0  0  0
   67.7965   50.1908   12.3222 C   0  0  0  0  0  0  0  0  0  0  0  0
   67.0004   52.3321   11.6077 C   0  0  0  0  0  0  0  0  0  0  0  0
   68.3124   52.7497   11.4316 C   0  0  0  0  0  0  0  0  0  0  0  0
   69.3575   51.8808   11.7263 C   0  0  0  0  0  0  0  0  0  0  0  0
   69.1180   50.6183   12.2661 C   0  0  0  0  0  0  0  0  0  0  0  0
   63.9661   54.5405   10.8647 H   0  0  0  0  0  0  0  0  0  0  0  0
   62.7999   53.3809   11.3153 H   0  0  0  0  0  0  0  0  0  0  0  0
   70.2440   49.8057   12.4292 C   0  0  0  0  0  0  0  0  0  0  0  0
   70.3816   48.8863   11.3945 C   0  0  0  0  0  0  0  0  0  0  0  0
   71.4835   48.0488   11.2974 C   0  0  0  0  0  0  0  0  0  0  0  0
   72.5260   48.1663   12.1943 C   0  0  0  0  0  0  0  0  0  0  0  0
   72.4472   49.1339   13.1766 C   0  0  0  0  0  0  0  0  0  0  0  0
   71.3727   50.0118   13.2367 C   0  0  0  0  0  0  0  0  0  0  0  0
   71.4148   50.9809   14.4223 C   0  0  0  0  0  0  0  0  0  0  0  0
   62.9623   51.0320   12.1870 C   0  0  0  0  0  0  0  0  0  0  0  0
   62.3954   50.3376   10.9255 C   0  0  0  0  0  0  0  0  0  0  0  0
   64.0020   49.0513    9.5612 N   0  0  0  0  0  0  0  0  0  0  0  0
   63.0407   48.9996   10.4897 C   0  0  0  0  0  0  0  0  0  0  0  0
   62.6761   47.9452   11.0041 O   0  0  0  0  0  0  0  0  0  0  0  0
   64.2731   49.9188    9.1830 H   0  0  0  0  0  0  0  0  0  0  0  0
   64.6606   47.8047    9.0999 C   0  0  0  0  0  0  0  0  0  0  0  0
   66.0794   47.4621    9.6128 C   0  0  0  0  0  0  0  0  0  0  0  0
   66.8789   47.5782    7.2238 C   0  0  0  0  0  0  0  0  0  0  0  0
   67.2493   47.7944    8.6770 C   0  0  0  0  0  0  0  0  0  0  0  0
   67.6547   49.2523    8.8795 C   0  0  0  0  0  0  0  0  0  0  0  0
   68.4207   46.8881    9.0505 C   0  0  0  0  0  0  0  0  0  0  0  0
  4  2  1  0  0  0
  2  3  2  0  0  0
  2  1  1  0  0  0
  3  8  1  0  0  0
 21 22  1  0  0  0
 21  1  1  0  0  0
 22 24  1  0  0  0
  1  5  2  0  0  0
  8  9  2  0  0  0
  8  6  1  0  0  0
  9 10  1  0  0  0
  5  6  1  0  0  0
 24 23  1  0  0  0
 24 25  2  0  0  0
 23 27  1  0  0  0
  6  7  2  0  0  0
 10 11  2  0  0  0
 29 30  1  0  0  0
  7 11  1  0  0  0
 27 28  1  0  0  0
 11 14  1  0  0  0
 28 30  1  0  0  0
 30 31  1  0  0  0
 30 32  1  0  0  0
 20 19  1  0  0  0
 14 19  2  0  0  0
 14 15  1  0  0  0
 19 18  1  0  0  0
 15 16  2  0  0  0
 18 17  2  0  0  0
 16 17  1  0  0  0
 23 26  1  0  0  0
  4 12  1  0  0  0
  4 13  1  0  0  0
M  END
> <minimizedAffinity>
-8.73246

$$$$
5IE1_6BS_A_407


 32 34  0  0  0  0  0  0  0  0999 V2000
   64.3829   51.9008   11.8298 C   0  0  0  0  0  0  0  0  0  0  0  0
   64.8030   53.1648   11.4241 C   0  0  0  0  0  0  0  0  0  0  0  0
   66.1045   53.4539   11.3048 N   0  0  0  0  0  0  0  0  0  0  0  0
   63.9046   54.1071   11.1480 N   0  0  0  0  0  0  0  0  0  0  0  0
   65.3479   50.9397   12.0991 C   0  0  0  0  0  0  0  0  0  0  0  0
   66.6893   51.2709   11.9658 C   0  0  0  0  0  0  0  0  0  0  0  0
   67.6705   50.3188   12.1862 C   0  0  0  0  0  0  0  0  0  0  0  0
   67.0489   52.5438   11.5596 C   0  0  0  0  0  0  0  0  0  0  0  0
   68.3915   52.8717   11.4313 C   0  0  0  0  0  0  0  0  0  0  0  0
   69.3636   51.9157   11.7054 C   0  0  0  0  0  0  0  0  0  0  0  0
   69.0204   50.6503   12.1784 C   0  0  0  0  0  0  0  0  0  0  0  0
   64.2011   55.0010   10.8611 H   0  0  0  0  0  0  0  0  0  0  0  0
   62.9435   53.9103   11.2307 H   0  0  0  0  0  0  0  0  0  0  0  0
   70.0804   49.7506   12.3255 C   0  0  0  0  0  0  0  0  0  0  0  0
   70.0871   48.7805   11.3286 C   0  0  0  0  0  0  0  0  0  0  0  0
   71.1078   47.8473   11.2184 C   0  0  0  0  0  0  0  0  0  0  0  0
   72.2007   47.9111   12.0591 C   0  0  0  0  0  0  0  0  0  0  0  0
   72.2539   48.9219   12.9987 C   0  0  0  0  0  0  0  0  0  0  0  0
   71.2620   49.8915   13.0689 C   0  0  0  0  0  0  0  0  0  0  0  0
   71.4460   50.9017   14.2056 C   0  0  0  0  0  0  0  0  0  0  0  0
   62.9144   51.5178   11.9910 C   0  0  0  0  0  0  0  0  0  0  0  0
   62.4011   50.6943   10.7855 C   0  0  0  0  0  0  0  0  0  0  0  0
   63.4528   48.7767    9.6392 N   0  0  0  0  0  0  0  0  0  0  0  0
   62.7874   49.1966   10.7208 C   0  0  0  0  0  0  0  0  0  0  0  0
   62.4954   48.4460   11.6485 O   0  0  0  0  0  0  0  0  0  0  0  0
   63.6781   49.4139    8.9232 H   0  0  0  0  0  0  0  0  0  0  0  0
   63.8522   47.3535    9.5155 C   0  0  0  0  0  0  0  0  0  0  0  0
   62.9356   46.3726    8.7466 C   0  0  0  0  0  0  0  0  0  0  0  0
   62.9363   45.1465   10.9504 C   0  0  0  0  0  0  0  0  0  0  0  0
   62.4570   45.1323    9.5131 C   0  0  0  0  0  0  0  0  0  0  0  0
   60.9311   45.0890    9.4938 C   0  0  0  0  0  0  0  0  0  0  0  0
   63.0062   43.8989    8.7989 C   0  0  0  0  0  0  0  0  0  0  0  0
  4  2  1  0  0  0
  2  3  2  0  0  0
  2  1  1  0  0  0
  3  8  1  0  0  0
 21 22  1  0  0  0
 21  1  1  0  0  0
 22 24  1  0  0  0
  1  5  2  0  0  0
  8  9  2  0  0  0
  8  6  1  0  0  0
  9 10  1  0  0  0
  5  6  1  0  0  0
 24 23  1  0  0  0
 24 25  2  0  0  0
 23 27  1  0  0  0
  6  7  2  0  0  0
 10 11  2  0  0  0
 29 30  1  0  0  0
  7 11  1  0  0  0
 27 28  1  0  0  0
 11 14  1  0  0  0
 28 30  1  0  0  0
 30 31  1  0  0  0
 30 32  1  0  0  0
 20 19  1  0  0  0
 14 19  2  0  0  0
 14 15  1  0  0  0
 19 18  1  0  0  0
 15 16  2  0  0  0
 18 17  2  0  0  0
 16 17  1  0  0  0
 23 26  1  0  0  0
  4 12  1  0  0  0
  4 13  1  0  0  0
M  END
> <minimizedAffinity>
-8.65215

$$$$
5IE1_6BS_A_407


 32 34  0  0  0  0  0  0  0  0999 V2000
   64.1237   50.8344   12.0307 C   0  0  0  0  0  0  0  0  0  0  0  0
   64.1844   52.1306   11.5257 C   0  0  0  0  0  0  0  0  0  0  0  0
   65.3566   52.7604   11.3809 N   0  0  0  0  0  0  0  0  0  0  0  0
   63.0654   52.7619   11.1785 N   0  0  0  0  0  0  0  0  0  0  0  0
   65.3120   50.2031   12.3725 C   0  0  0  0  0  0  0  0  0  0  0  0
   66.5111   50.8832   12.2103 C   0  0  0  0  0  0  0  0  0  0  0  0
   67.7135   50.2613   12.5026 C   0  0  0  0  0  0  0  0  0  0  0  0
   66.5113   52.1710   11.7043 C   0  0  0  0  0  0  0  0  0  0  0  0
   67.7124   52.8487   11.5474 C   0  0  0  0  0  0  0  0  0  0  0  0
   68.9060   52.2246   11.8935 C   0  0  0  0  0  0  0  0  0  0  0  0
   68.9182   50.9536   12.4655 C   0  0  0  0  0  0  0  0  0  0  0  0
   63.1078   53.6784   10.8214 H   0  0  0  0  0  0  0  0  0  0  0  0
   62.1952   52.3124   11.2788 H   0  0  0  0  0  0  0  0  0  0  0  0
   70.1832   50.3982   12.6804 C   0  0  0  0  0  0  0  0  0  0  0  0
   70.8216   50.9582   13.7821 C   0  0  0  0  0  0  0  0  0  0  0  0
   72.0428   50.4868   14.2419 C   0  0  0  0  0  0  0  0  0  0  0  0
   72.6241   49.3797   13.6575 C   0  0  0  0  0  0  0  0  0  0  0  0
   71.9618   48.7561   12.6184 C   0  0  0  0  0  0  0  0  0  0  0  0
   70.7115   49.1912   12.1984 C   0  0  0  0  0  0  0  0  0  0  0  0
   70.1475   48.4259   10.9973 C   0  0  0  0  0  0  0  0  0  0  0  0
   62.8163   50.0715   12.2251 C   0  0  0  0  0  0  0  0  0  0  0  0
   63.0603   48.5552   12.4155 C   0  0  0  0  0  0  0  0  0  0  0  0
   63.7723   47.7898   10.1785 N   0  0  0  0  0  0  0  0  0  0  0  0
   62.8966   47.6394   11.1782 C   0  0  0  0  0  0  0  0  0  0  0  0
   61.9970   46.8033   11.1472 O   0  0  0  0  0  0  0  0  0  0  0  0
   64.4863   48.4640   10.2485 H   0  0  0  0  0  0  0  0  0  0  0  0
   63.6705   46.9434    8.9645 C   0  0  0  0  0  0  0  0  0  0  0  0
   64.5173   45.6523    8.8670 C   0  0  0  0  0  0  0  0  0  0  0  0
   62.3227   44.4615    8.5123 C   0  0  0  0  0  0  0  0  0  0  0  0
   63.7597   44.3219    8.9718 C   0  0  0  0  0  0  0  0  0  0  0  0
   64.4623   43.2757    8.1101 C   0  0  0  0  0  0  0  0  0  0  0  0
   63.7927   43.8774   10.4328 C   0  0  0  0  0  0  0  0  0  0  0  0
  4  2  1  0  0  0
  2  3  2  0  0  0
  2  1  1  0  0  0
  3  8  1  0  0  0
 21 22  1  0  0  0
 21  1  1  0  0  0
 22 24  1  0  0  0
  1  5  2  0  0  0
  8  9  2  0  0  0
  8  6  1  0  0  0
  9 10  1  0  0  0
  5  6  1  0  0  0
 24 23  1  0  0  0
 24 25  2  0  0  0
 23 27  1  0  0  0
  6  7  2  0  0  0
 10 11  2  0  0  0
 29 30  1  0  0  0
  7 11  1  0  0  0
 27 28  1  0  0  0
 11 14  1  0  0  0
 28 30  1  0  0  0
 30 31  1  0  0  0
 30 32  1  0  0  0
 20 19  1  0  0  0
 14 19  2  0  0  0
 14 15  1  0  0  0
 19 18  1  0  0  0
 15 16  2  0  0  0
 18 17  2  0  0  0
 16 17  1  0  0  0
 23 26  1  0  0  0
  4 12  1  0  0  0
  4 13  1  0  0  0
M  END
> <minimizedAffinity>
-8.56926

$$$$
5IE1_6BS_A_407


 32 34  0  0  0  0  0  0  0  0999 V2000
   66.3344   47.8343    8.8233 C   0  0  0  0  0  0  0  0  0  0  0  0
   66.5062   48.8350    7.8705 C   0  0  0  0  0  0  0  0  0  0  0  0
   67.4824   49.7429    7.9918 N   0  0  0  0  0  0  0  0  0  0  0  0
   65.6929   48.8985    6.8190 N   0  0  0  0  0  0  0  0  0  0  0  0
   67.2082   47.7927    9.9014 C   0  0  0  0  0  0  0  0  0  0  0  0
   68.2101   48.7484    9.9983 C   0  0  0  0  0  0  0  0  0  0  0  0
   69.1215   48.7038   11.0402 C   0  0  0  0  0  0  0  0  0  0  0  0
   68.3333   49.7207    9.0217 C   0  0  0  0  0  0  0  0  0  0  0  0
   69.3343   50.6768    9.1247 C   0  0  0  0  0  0  0  0  0  0  0  0
   70.2093   50.6446   10.2052 C   0  0  0  0  0  0  0  0  0  0  0  0
   70.0583   49.7128   11.2306 C   0  0  0  0  0  0  0  0  0  0  0  0
   65.8140   49.6059    6.1450 H   0  0  0  0  0  0  0  0  0  0  0  0
   64.9701   48.2382    6.7151 H   0  0  0  0  0  0  0  0  0  0  0  0
   71.0559   49.7231   12.2101 C   0  0  0  0  0  0  0  0  0  0  0  0
   70.9295   50.8042   13.0762 C   0  0  0  0  0  0  0  0  0  0  0  0
   71.7487   50.9568   14.1854 C   0  0  0  0  0  0  0  0  0  0  0  0
   72.6701   49.9809   14.5075 C   0  0  0  0  0  0  0  0  0  0  0  0
   72.7495   48.8571   13.7087 C   0  0  0  0  0  0  0  0  0  0  0  0
   71.8884   48.6763   12.6341 C   0  0  0  0  0  0  0  0  0  0  0  0
   72.1529   47.4060   11.8199 C   0  0  0  0  0  0  0  0  0  0  0  0
   65.2349   46.7791    8.7409 C   0  0  0  0  0  0  0  0  0  0  0  0
   65.7393   45.4765    8.0746 C   0  0  0  0  0  0  0  0  0  0  0  0
   68.0326   45.7121    7.1902 N   0  0  0  0  0  0  0  0  0  0  0  0
   67.2566   45.1767    8.1389 C   0  0  0  0  0  0  0  0  0  0  0  0
   67.7080   44.4824    9.0465 O   0  0  0  0  0  0  0  0  0  0  0  0
   67.6323   46.2730    6.4871 H   0  0  0  0  0  0  0  0  0  0  0  0
   69.4950   45.4631    7.1948 C   0  0  0  0  0  0  0  0  0  0  0  0
   70.4159   46.3693    8.0459 C   0  0  0  0  0  0  0  0  0  0  0  0
   70.4628   48.3326    6.4636 C   0  0  0  0  0  0  0  0  0  0  0  0
   71.2962   47.3679    7.2825 C   0  0  0  0  0  0  0  0  0  0  0  0
   72.1403   48.1569    8.2804 C   0  0  0  0  0  0  0  0  0  0  0  0
   72.2174   46.5717    6.3604 C   0  0  0  0  0  0  0  0  0  0  0  0
  4  2  1  0  0  0
  2  3  2  0  0  0
  2  1  1  0  0  0
  3  8  1  0  0  0
 21 22  1  0  0  0
 21  1  1  0  0  0
 22 24  1  0  0  0
  1  5  2  0  0  0
  8  9  2  0  0  0
  8  6  1  0  0  0
  9 10  1  0  0  0
  5  6  1  0  0  0
 24 23  1  0  0  0
 24 25  2  0  0  0
 23 27  1  0  0  0
  6  7  2  0  0  0
 10 11  2  0  0  0
 29 30  1  0  0  0
  7 11  1  0  0  0
 27 28  1  0  0  0
 11 14  1  0  0  0
 28 30  1  0  0  0
 30 31  1  0  0  0
 30 32  1  0  0  0
 20 19  1  0  0  0
 14 19  2  0  0  0
 14 15  1  0  0  0
 19 18  1  0  0  0
 15 16  2  0  0  0
 18 17  2  0  0  0
 16 17  1  0  0  0
 23 26  1  0  0  0
  4 12  1  0  0  0
  4 13  1  0  0  0
M  END
> <minimizedAffinity>
-8.54184

$$$$
5IE1_6BS_A_407


 32 34  0  0  0  0  0  0  0  0999 V2000
   72.4708   49.7332    8.7958 C   0  0  0  0  0  0  0  0  0  0  0  0
   72.8079   49.1348   10.0070 C   0  0  0  0  0  0  0  0  0  0  0  0
   72.0834   49.3555   11.1107 N   0  0  0  0  0  0  0  0  0  0  0  0
   73.8647   48.3292   10.0791 N   0  0  0  0  0  0  0  0  0  0  0  0
   71.3556   50.5594    8.7557 C   0  0  0  0  0  0  0  0  0  0  0  0
   70.6252   50.7678    9.9175 C   0  0  0  0  0  0  0  0  0  0  0  0
   69.4841   51.5522    9.8955 C   0  0  0  0  0  0  0  0  0  0  0  0
   71.0072   50.1472   11.0937 C   0  0  0  0  0  0  0  0  0  0  0  0
   70.2762   50.3616   12.2540 C   0  0  0  0  0  0  0  0  0  0  0  0
   69.1616   51.1927   12.2224 C   0  0  0  0  0  0  0  0  0  0  0  0
   68.8021   51.8767   11.0624 C   0  0  0  0  0  0  0  0  0  0  0  0
   74.1035   47.9058   10.9353 H   0  0  0  0  0  0  0  0  0  0  0  0
   74.4078   48.1565    9.2763 H   0  0  0  0  0  0  0  0  0  0  0  0
   67.6105   52.6047   11.1331 C   0  0  0  0  0  0  0  0  0  0  0  0
   66.6596   51.9780   11.9318 C   0  0  0  0  0  0  0  0  0  0  0  0
   65.4409   52.5719   12.2265 C   0  0  0  0  0  0  0  0  0  0  0  0
   65.1712   53.8548   11.7945 C   0  0  0  0  0  0  0  0  0  0  0  0
   66.1391   54.5271   11.0744 C   0  0  0  0  0  0  0  0  0  0  0  0
   67.3814   53.9556   10.8315 C   0  0  0  0  0  0  0  0  0  0  0  0
   68.3125   54.8125    9.9681 C   0  0  0  0  0  0  0  0  0  0  0  0
   73.2642   49.5247    7.5089 C   0  0  0  0  0  0  0  0  0  0  0  0
   72.6407   48.4191    6.6238 C   0  0  0  0  0  0  0  0  0  0  0  0
   70.3329   47.7330    7.1722 N   0  0  0  0  0  0  0  0  0  0  0  0
   71.1135   48.4719    6.3761 C   0  0  0  0  0  0  0  0  0  0  0  0
   70.6597   49.1857    5.4851 O   0  0  0  0  0  0  0  0  0  0  0  0
   70.7363   47.1837    7.8828 H   0  0  0  0  0  0  0  0  0  0  0  0
   68.8611   47.7391    6.9873 C   0  0  0  0  0  0  0  0  0  0  0  0
   68.0208   48.8682    7.6295 C   0  0  0  0  0  0  0  0  0  0  0  0
   67.9973   48.1782   10.0551 C   0  0  0  0  0  0  0  0  0  0  0  0
   67.1526   48.4809    8.8342 C   0  0  0  0  0  0  0  0  0  0  0  0
   66.2002   49.6300    9.1558 C   0  0  0  0  0  0  0  0  0  0  0  0
   66.3412   47.2453    8.4496 C   0  0  0  0  0  0  0  0  0  0  0  0
  4  2  1  0  0  0
  2  3  2  0  0  0
  2  1  1  0  0  0
  3  8  1  0  0  0
 21 22  1  0  0  0
 21  1  1  0  0  0
 22 24  1  0  0  0
  1  5  2  0  0  0
  8  9  2  0  0  0
  8  6  1  0  0  0
  9 10  1  0  0  0
  5  6  1  0  0  0
 24 23  1  0  0  0
 24 25  2  0  0  0
 23 27  1  0  0  0
  6  7  2  0  0  0
 10 11  2  0  0  0
 29 30  1  0  0  0
  7 11  1  0  0  0
 27 28  1  0  0  0
 11 14  1  0  0  0
 28 30  1  0  0  0
 30 31  1  0  0  0
 30 32  1  0  0  0
 20 19  1  0  0  0
 14 19  2  0  0  0
 14 15  1  0  0  0
 19 18  1  0  0  0
 15 16  2  0  0  0
 18 17  2  0  0  0
 16 17  1  0  0  0
 23 26  1  0  0  0
  4 12  1  0  0  0
  4 13  1  0  0  0
M  END
> <minimizedAffinity>
-8.42822

$$$$
5IE1_6BS_A_407


 32 34  0  0  0  0  0  0  0  0999 V2000
   72.1792   46.4513   11.6763 C   0  0  0  0  0  0  0  0  0  0  0  0
   72.8447   46.7419   12.8643 C   0  0  0  0  0  0  0  0  0  0  0  0
   72.6360   47.8973   13.5071 N   0  0  0  0  0  0  0  0  0  0  0  0
   73.7035   45.8640   13.3771 N   0  0  0  0  0  0  0  0  0  0  0  0
   71.2826   47.3862   11.1765 C   0  0  0  0  0  0  0  0  0  0  0  0
   71.0884   48.5746   11.8669 C   0  0  0  0  0  0  0  0  0  0  0  0
   70.1681   49.5050   11.4135 C   0  0  0  0  0  0  0  0  0  0  0  0
   71.7781   48.8103   13.0430 C   0  0  0  0  0  0  0  0  0  0  0  0
   71.5836   50.0018   13.7280 C   0  0  0  0  0  0  0  0  0  0  0  0
   70.6916   50.9453   13.2298 C   0  0  0  0  0  0  0  0  0  0  0  0
   70.0389   50.7521   12.0136 C   0  0  0  0  0  0  0  0  0  0  0  0
   74.1744   46.0690   14.2170 H   0  0  0  0  0  0  0  0  0  0  0  0
   73.8680   45.0096   12.9164 H   0  0  0  0  0  0  0  0  0  0  0  0
   69.0983   51.7276   11.6692 C   0  0  0  0  0  0  0  0  0  0  0  0
   69.5634   52.5744   10.6684 C   0  0  0  0  0  0  0  0  0  0  0  0
   68.7587   53.5509   10.0994 C   0  0  0  0  0  0  0  0  0  0  0  0
   67.4305   53.6535   10.4610 C   0  0  0  0  0  0  0  0  0  0  0  0
   66.9275   52.7634   11.3895 C   0  0  0  0  0  0  0  0  0  0  0  0
   67.7170   51.7481   11.9137 C   0  0  0  0  0  0  0  0  0  0  0  0
   67.0197   50.8896   12.9736 C   0  0  0  0  0  0  0  0  0  0  0  0
   72.3838   45.1553   10.8968 C   0  0  0  0  0  0  0  0  0  0  0  0
   73.5853   45.2535    9.9265 C   0  0  0  0  0  0  0  0  0  0  0  0
   72.3692   46.3250    8.0636 N   0  0  0  0  0  0  0  0  0  0  0  0
   73.4995   46.2877    8.7778 C   0  0  0  0  0  0  0  0  0  0  0  0
   74.4424   47.0448    8.5609 O   0  0  0  0  0  0  0  0  0  0  0  0
   71.6323   45.7084    8.2782 H   0  0  0  0  0  0  0  0  0  0  0  0
   72.2232   47.2929    6.9491 C   0  0  0  0  0  0  0  0  0  0  0  0
   70.8359   47.9139    6.6608 C   0  0  0  0  0  0  0  0  0  0  0  0
   69.6694   49.8386    7.7988 C   0  0  0  0  0  0  0  0  0  0  0  0
   70.7241   49.4392    6.7869 C   0  0  0  0  0  0  0  0  0  0  0  0
   72.0739   50.0067    7.2190 C   0  0  0  0  0  0  0  0  0  0  0  0
   70.3579   49.9978    5.4133 C   0  0  0  0  0  0  0  0  0  0  0  0
  4  2  1  0  0  0
  2  3  2  0  0  0
  2  1  1  0  0  0
  3  8  1  0  0  0
 21 22  1  0  0  0
 21  1  1  0  0  0
 22 24  1  0  0  0
  1  5  2  0  0  0
  8  9  2  0  0  0
  8  6  1  0  0  0
  9 10  1  0  0  0
  5  6  1  0  0  0
 24 23  1  0  0  0
 24 25  2  0  0  0
 23 27  1  0  0  0
  6  7  2  0  0  0
 10 11  2  0  0  0
 29 30  1  0  0  0
  7 11  1  0  0  0
 27 28  1  0  0  0
 11 14  1  0  0  0
 28 30  1  0  0  0
 30 31  1  0  0  0
 30 32  1  0  0  0
 20 19  1  0  0  0
 14 19  2  0  0  0
 14 15  1  0  0  0
 19 18  1  0  0  0
 15 16  2  0  0  0
 18 17  2  0  0  0
 16 17  1  0  0  0
 23 26  1  0  0  0
  4 12  1  0  0  0
  4 13  1  0  0  0
M  END
> <minimizedAffinity>
-8.08695

$$$$
5IE1_6BS_A_407


 32 34  0  0  0  0  0  0  0  0999 V2000
   71.2048   47.2279   10.9506 C   0  0  0  0  0  0  0  0  0  0  0  0
   72.1017   47.5562   11.9637 C   0  0  0  0  0  0  0  0  0  0  0  0
   71.9129   48.6387   12.7282 N   0  0  0  0  0  0  0  0  0  0  0  0
   73.1664   46.7885   12.1837 N   0  0  0  0  0  0  0  0  0  0  0  0
   70.0998   48.0459   10.7568 C   0  0  0  0  0  0  0  0  0  0  0  0
   69.9324   49.1609   11.5665 C   0  0  0  0  0  0  0  0  0  0  0  0
   68.8168   49.9689   11.4230 C   0  0  0  0  0  0  0  0  0  0  0  0
   70.8567   49.4390   12.5579 C   0  0  0  0  0  0  0  0  0  0  0  0
   70.6873   50.5572   13.3626 C   0  0  0  0  0  0  0  0  0  0  0  0
   69.5860   51.3843   13.1701 C   0  0  0  0  0  0  0  0  0  0  0  0
   68.6819   51.1554   12.1343 C   0  0  0  0  0  0  0  0  0  0  0  0
   73.8009   47.0203   12.8999 H   0  0  0  0  0  0  0  0  0  0  0  0
   73.3195   45.9889   11.6302 H   0  0  0  0  0  0  0  0  0  0  0  0
   67.5681   52.0000   12.1047 C   0  0  0  0  0  0  0  0  0  0  0  0
   67.8142   53.1676   11.3898 C   0  0  0  0  0  0  0  0  0  0  0  0
   66.8187   54.1021   11.1438 C   0  0  0  0  0  0  0  0  0  0  0  0
   65.5197   53.8531   11.5386 C   0  0  0  0  0  0  0  0  0  0  0  0
   65.2388   52.6586   12.1724 C   0  0  0  0  0  0  0  0  0  0  0  0
   66.2229   51.6976   12.3643 C   0  0  0  0  0  0  0  0  0  0  0  0
   65.7546   50.4598   13.1358 C   0  0  0  0  0  0  0  0  0  0  0  0
   71.3738   46.0121   10.0437 C   0  0  0  0  0  0  0  0  0  0  0  0
   71.3208   46.4017    8.5469 C   0  0  0  0  0  0  0  0  0  0  0  0
   68.9661   46.7973    7.9177 N   0  0  0  0  0  0  0  0  0  0  0  0
   70.0470   46.0274    7.7509 C   0  0  0  0  0  0  0  0  0  0  0  0
   70.0593   45.0634    6.9894 O   0  0  0  0  0  0  0  0  0  0  0  0
   69.0020   47.5683    8.5289 H   0  0  0  0  0  0  0  0  0  0  0  0
   67.7132   46.4926    7.1842 C   0  0  0  0  0  0  0  0  0  0  0  0
   66.3891   46.3499    7.9715 C   0  0  0  0  0  0  0  0  0  0  0  0
   66.1934   48.0784    9.7975 C   0  0  0  0  0  0  0  0  0  0  0  0
   65.7137   47.6510    8.4252 C   0  0  0  0  0  0  0  0  0  0  0  0
   66.0260   48.7554    7.4185 C   0  0  0  0  0  0  0  0  0  0  0  0
   64.2058   47.4098    8.4585 C   0  0  0  0  0  0  0  0  0  0  0  0
  4  2  1  0  0  0
  2  3  2  0  0  0
  2  1  1  0  0  0
  3  8  1  0  0  0
 21 22  1  0  0  0
 21  1  1  0  0  0
 22 24  1  0  0  0
  1  5  2  0  0  0
  8  9  2  0  0  0
  8  6  1  0  0  0
  9 10  1  0  0  0
  5  6  1  0  0  0
 24 23  1  0  0  0
 24 25  2  0  0  0
 23 27  1  0  0  0
  6  7  2  0  0  0
 10 11  2  0  0  0
 29 30  1  0  0  0
  7 11  1  0  0  0
 27 28  1  0  0  0
 11 14  1  0  0  0
 28 30  1  0  0  0
 30 31  1  0  0  0
 30 32  1  0  0  0
 20 19  1  0  0  0
 14 19  2  0  0  0
 14 15  1  0  0  0
 19 18  1  0  0  0
 15 16  2  0  0  0
 18 17  2  0  0  0
 16 17  1  0  0  0
 23 26  1  0  0  0
  4 12  1  0  0  0
  4 13  1  0  0  0
M  END
> <minimizedAffinity>
-7.61387

$$$$
5IE1_6BS_A_407


 32 34  0  0  0  0  0  0  0  0999 V2000
   70.8403   45.1768    8.1582 C   0  0  0  0  0  0  0  0  0  0  0  0
   71.5037   45.8814    7.1572 C   0  0  0  0  0  0  0  0  0  0  0  0
   71.8637   47.1584    7.3351 N   0  0  0  0  0  0  0  0  0  0  0  0
   71.7891   45.2854    6.0020 N   0  0  0  0  0  0  0  0  0  0  0  0
   70.5685   45.8276    9.3541 C   0  0  0  0  0  0  0  0  0  0  0  0
   70.9551   47.1520    9.5073 C   0  0  0  0  0  0  0  0  0  0  0  0
   70.7348   47.8111   10.7052 C   0  0  0  0  0  0  0  0  0  0  0  0
   71.6112   47.8030    8.4778 C   0  0  0  0  0  0  0  0  0  0  0  0
   71.9925   49.1285    8.6340 C   0  0  0  0  0  0  0  0  0  0  0  0
   71.7180   49.7884    9.8270 C   0  0  0  0  0  0  0  0  0  0  0  0
   71.0004   49.1680   10.8481 C   0  0  0  0  0  0  0  0  0  0  0  0
   72.2582   45.7832    5.2939 H   0  0  0  0  0  0  0  0  0  0  0  0
   71.5312   44.3466    5.8555 H   0  0  0  0  0  0  0  0  0  0  0  0
   70.8721   49.9024   12.0310 C   0  0  0  0  0  0  0  0  0  0  0  0
   69.6402   50.5424   12.1199 C   0  0  0  0  0  0  0  0  0  0  0  0
   69.2562   51.2424   13.2545 C   0  0  0  0  0  0  0  0  0  0  0  0
   70.0666   51.2523   14.3717 C   0  0  0  0  0  0  0  0  0  0  0  0
   71.2544   50.5487   14.3331 C   0  0  0  0  0  0  0  0  0  0  0  0
   71.6101   49.7986   13.2197 C   0  0  0  0  0  0  0  0  0  0  0  0
   72.9850   49.1309   13.3212 C   0  0  0  0  0  0  0  0  0  0  0  0
   70.3989   43.7236    8.0079 C   0  0  0  0  0  0  0  0  0  0  0  0
   68.9907   43.6147    7.3753 C   0  0  0  0  0  0  0  0  0  0  0  0
   67.5752   45.6374    7.3285 N   0  0  0  0  0  0  0  0  0  0  0  0
   67.8661   44.4987    7.9670 C   0  0  0  0  0  0  0  0  0  0  0  0
   67.2681   44.1376    8.9777 O   0  0  0  0  0  0  0  0  0  0  0  0
   68.0707   45.8841    6.5143 H   0  0  0  0  0  0  0  0  0  0  0  0
   66.5080   46.5296    7.8439 C   0  0  0  0  0  0  0  0  0  0  0  0
   66.5896   48.0491    7.5650 C   0  0  0  0  0  0  0  0  0  0  0  0
   65.9556   49.9715    9.0693 C   0  0  0  0  0  0  0  0  0  0  0  0
   67.0172   48.9427    8.7370 C   0  0  0  0  0  0  0  0  0  0  0  0
   67.2726   48.0715    9.9644 C   0  0  0  0  0  0  0  0  0  0  0  0
   68.3125   49.6484    8.3405 C   0  0  0  0  0  0  0  0  0  0  0  0
  4  2  1  0  0  0
  2  3  2  0  0  0
  2  1  1  0  0  0
  3  8  1  0  0  0
 21 22  1  0  0  0
 21  1  1  0  0  0
 22 24  1  0  0  0
  1  5  2  0  0  0
  8  9  2  0  0  0
  8  6  1  0  0  0
  9 10  1  0  0  0
  5  6  1  0  0  0
 24 23  1  0  0  0
 24 25  2  0  0  0
 23 27  1  0  0  0
  6  7  2  0  0  0
 10 11  2  0  0  0
 29 30  1  0  0  0
  7 11  1  0  0  0
 27 28  1  0  0  0
 11 14  1  0  0  0
 28 30  1  0  0  0
 30 31  1  0  0  0
 30 32  1  0  0  0
 20 19  1  0  0  0
 14 19  2  0  0  0
 14 15  1  0  0  0
 19 18  1  0  0  0
 15 16  2  0  0  0
 18 17  2  0  0  0
 16 17  1  0  0  0
 23 26  1  0  0  0
  4 12  1  0  0  0
  4 13  1  0  0  0
M  END
> <minimizedAffinity>
-7.57709

$$$$
