5IE1_6BS_A_407
  RCSB PDB12061718093D
Coordinates from PDB:5IE1:A:407 Model:1 without hydrogens
 29 31  0  0  0  0            999 V2000
   65.1100   50.8090   10.3690   C 0  0  0  0  0  0  0  0  0  0  0  0
   64.3070   50.9420   11.6470   C 0  0  0  0  0  0  0  0  0  0  0  0
   64.3080   52.4030   12.0900   C 0  0  0  0  0  0  0  0  0  0  0  0
   64.9350   50.0820   12.7420   C 0  0  0  0  0  0  0  0  0  0  0  0
   62.8580   50.4750   11.4540   C 0  0  0  0  0  0  0  0  0  0  0  0
   62.6530   48.9960   11.0490   C 0  0  0  0  0  0  0  0  0  0  0  0
   63.1760   48.5200    9.7450   N 0  0  0  0  0  0  0  0  0  0  0  0
   63.6110   47.2620    9.6140   C 0  0  0  0  0  0  0  0  0  0  0  0
   63.5850   46.4550   10.5400   O 0  0  0  0  0  0  0  0  0  0  0  0
   64.1440   46.8310    8.2260   C 0  0  0  0  0  0  0  0  0  0  0  0
   65.6610   46.5560    8.0920   C 0  0  0  0  0  0  0  0  0  0  0  0
   66.4900   47.8020    8.3910   C 0  0  0  0  0  0  0  0  0  0  0  0
   66.4220   48.9660    7.6300   C 0  0  0  0  0  0  0  0  0  0  0  0
   67.1650   50.0360    7.9380   N 0  0  0  0  0  0  0  0  0  0  0  0
   65.6090   49.0260    6.5780   N 0  0  0  0  0  0  0  0  0  0  0  0
   67.3570   47.7720    9.4750   C 0  0  0  0  0  0  0  0  0  0  0  0
   68.1140   48.8980    9.7680   C 0  0  0  0  0  0  0  0  0  0  0  0
   69.0180   48.8800   10.8170   C 0  0  0  0  0  0  0  0  0  0  0  0
   68.0050   50.0280    8.9770   C 0  0  0  0  0  0  0  0  0  0  0  0
   68.7610   51.1530    9.2760   C 0  0  0  0  0  0  0  0  0  0  0  0
   69.6270   51.1320   10.3640   C 0  0  0  0  0  0  0  0  0  0  0  0
   69.7000   50.0260   11.2090   C 0  0  0  0  0  0  0  0  0  0  0  0
   70.6750   50.0910   12.2090   C 0  0  0  0  0  0  0  0  0  0  0  0
   70.6320   51.2940   12.9060   C 0  0  0  0  0  0  0  0  0  0  0  0
   71.4400   51.5340   14.0080   C 0  0  0  0  0  0  0  0  0  0  0  0
   72.2610   50.5380   14.4970   C 0  0  0  0  0  0  0  0  0  0  0  0
   72.2520   49.3070   13.8710   C 0  0  0  0  0  0  0  0  0  0  0  0
   71.3990   49.0480   12.8060   C 0  0  0  0  0  0  0  0  0  0  0  0
   71.5610   47.6540   12.1920   C 0  0  0  0  0  0  0  0  0  0  0  0
 15 13  1  0  0  0  0
 13 14  2  0  0  0  0
 13 12  1  0  0  0  0
 14 19  1  0  0  0  0
 11 10  1  0  0  0  0
 11 12  1  0  0  0  0
 10  8  1  0  0  0  0
 12 16  2  0  0  0  0
 19 20  2  0  0  0  0
 19 17  1  0  0  0  0
 20 21  1  0  0  0  0
 16 17  1  0  0  0  0
  8  7  1  0  0  0  0
  8  9  2  0  0  0  0
  7  6  1  0  0  0  0
 17 18  2  0  0  0  0
 21 22  2  0  0  0  0
  1  2  1  0  0  0  0
 18 22  1  0  0  0  0
  6  5  1  0  0  0  0
 22 23  1  0  0  0  0
  5  2  1  0  0  0  0
  2  3  1  0  0  0  0
  2  4  1  0  0  0  0
 29 28  1  0  0  0  0
 23 28  2  0  0  0  0
 23 24  1  0  0  0  0
 28 27  1  0  0  0  0
 24 25  2  0  0  0  0
 27 26  2  0  0  0  0
 25 26  1  0  0  0  0
A    1
C27
A    2
C26
A    3
C28
A    4
C29
A    5
C25
A    6
C23
A    7
N21
A    8
C20
A    9
O22
A   10
C19
A   11
C18
A   12
C9
A   13
C8
A   14
N7
A   15
N24
A   16
C10
A   17
C5
A   18
C6
A   19
C4
A   20
C3
A   21
C2
A   22
C1
A   23
C11
A   24
C12
A   25
C13
A   26
C14
A   27
C15
A   28
C16
A   29
C17
M  END
>  <InstanceId>
5IE1_6BS_A_407

>  <ChemCompId>
6BS

>  <PdbId>
5IE1

>  <ChainId>
A

>  <ResidueNumber>
407

>  <InsertionCode>


>  <Model>
1

>  <AltIds>


>  <MissingHeavyAtoms>
0

>  <ObservedFormula>
C25 N3 O

>  <Name>
3-[2-amino-6-(2-methylphenyl)quinolin-3-yl]-N-(3,3-dimethylbutyl)propanamide

>  <SystematicName>
3-[2-azanyl-6-(2-methylphenyl)quinolin-3-yl]-~{N}-(3,3-dimethylbutyl)propanamide

>  <Synonyms>


>  <Type>
NON-POLYMER

>  <Formula>
C25 H31 N3 O

>  <MolecularWeight>
389.533

>  <ModifiedDate>
2016-03-25

>  <Parent>


>  <OneLetterCode>


>  <SubcomponentList>


>  <AmbiguousFlag>
N

>  <InChI>
InChI=1S/C25H31N3O/c1-17-7-5-6-8-21(17)18-9-11-22-20(15-18)16-19(24(26)28-22)10-12-23(29)27-14-13-25(2,3)4/h5-9,11,15-16H,10,12-14H2,1-4H3,(H2,26,28)(H,27,29)

>  <InChIKey>
XKCSLMBNFSFIEK-UHFFFAOYSA-N

>  <SMILES>
Cc1ccccc1c2ccc3c(c2)cc(c(n3)N)CCC(=O)NCCC(C)(C)C

$$$$
