5NBW_8SK_L_301
  RCSB PDB12061719093D
Coordinates from PDB:5NBW:L:301 Model:1 without hydrogens
 21 25  0  0  0  0            999 V2000
   13.1500  -32.0840    4.4880   C 0  0  0  0  0  0  0  0  0  0  0  0
   13.0520  -33.3060    3.8150   C 0  0  0  0  0  0  0  0  0  0  0  0
   12.4180  -34.4040    4.4330   C 0  0  0  0  0  0  0  0  0  0  0  0
   11.8910  -34.2590    5.7360   C 0  0  0  0  0  0  0  0  0  0  0  0
   12.0030  -33.0280    6.4360   C 0  0  0  0  0  0  0  0  0  0  0  0
   12.6420  -31.9450    5.7990   C 0  0  0  0  0  0  0  0  0  0  0  0
   12.7660  -30.7230    6.4670   C 0  0  0  0  0  0  0  0  0  0  0  0
   12.2640  -30.5580    7.7620   C 0  0  0  0  0  0  0  0  0  0  0  0
   12.4030  -29.3030    8.3850   C 0  0  0  0  0  0  0  0  0  0  0  0
   11.9270  -29.1150    9.6880   C 0  0  0  0  0  0  0  0  0  0  0  0
   11.3010  -30.1860   10.3510   C 0  0  0  0  0  0  0  0  0  0  0  0
   11.1320  -31.4330    9.7370   C 0  0  0  0  0  0  0  0  0  0  0  0
   11.6220  -31.6440    8.4260   C 0  0  0  0  0  0  0  0  0  0  0  0
   11.4860  -32.8900    7.7640   C 0  0  0  0  0  0  0  0  0  0  0  0
   10.8480  -34.0000    8.3710   C 0  0  0  0  0  0  0  0  0  0  0  0
   10.7330  -35.2170    7.6790   C 0  0  0  0  0  0  0  0  0  0  0  0
   11.2590  -35.3510    6.3590   C 0  0  0  0  0  0  0  0  0  0  0  0
   11.1600  -36.5660    5.6570   C 0  0  0  0  0  0  0  0  0  0  0  0
   11.6760  -36.7220    4.3700   C 0  0  0  0  0  0  0  0  0  0  0  0
   12.3010  -35.6420    3.7560   C 0  0  0  0  0  0  0  0  0  0  0  0
   12.7960  -35.8010    2.5050   O 0  0  0  0  0  0  0  0  0  0  0  0
 21 20  1  0  0  0  0
 20 19  2  0  0  0  0
 20  3  1  0  0  0  0
  2  3  2  0  0  0  0
  2  1  1  0  0  0  0
 19 18  1  0  0  0  0
  3  4  1  0  0  0  0
  1  6  2  0  0  0  0
 18 17  2  0  0  0  0
  4 17  1  0  0  0  0
  4  5  2  0  0  0  0
  6  5  1  0  0  0  0
  6  7  1  0  0  0  0
 17 16  1  0  0  0  0
  5 14  1  0  0  0  0
  7  8  2  0  0  0  0
 16 15  2  0  0  0  0
  8  9  1  0  0  0  0
  8 13  1  0  0  0  0
 14 15  1  0  0  0  0
 14 13  2  0  0  0  0
  9 10  2  0  0  0  0
 13 12  1  0  0  0  0
 10 11  1  0  0  0  0
 12 11  2  0  0  0  0
A    1
CAM
A    2
CAN
A    3
CAF
A    4
CAC
A    5
CAB
A    6
CAE
A    7
CAJ
A    8
CAI
A    9
CAS
A   10
CAU
A   11
CAT
A   12
CAR
A   13
CAH
A   14
CAD
A   15
CAK
A   16
CAO
A   17
CAG
A   18
CAP
A   19
CAQ
A   20
CAL
A   21
OAA
M  END
>  <InstanceId>
5NBW_8SK_L_301

>  <ChemCompId>
8SK

>  <PdbId>
5NBW

>  <ChainId>
L

>  <ResidueNumber>
301

>  <InsertionCode>


>  <Model>
1

>  <AltIds>


>  <MissingHeavyAtoms>
0

>  <ObservedFormula>
C20 O

>  <Name>
benzo[a]pyren-3-ol

>  <SystematicName>
benzo[a]pyren-3-ol

>  <Synonyms>


>  <Type>
NON-POLYMER

>  <Formula>
C20 H12 O

>  <MolecularWeight>
268.309

>  <ModifiedDate>
2017-06-23

>  <Parent>


>  <OneLetterCode>


>  <SubcomponentList>


>  <AmbiguousFlag>
N

>  <InChI>
InChI=1S/C20H12O/c21-18-10-7-12-5-8-16-15-4-2-1-3-13(15)11-14-6-9-17(18)19(12)20(14)16/h1-11,21H

>  <InChIKey>
SPUUWWRWIAEPDB-UHFFFAOYSA-N

>  <SMILES>
c1ccc2c(c1)cc3ccc4c(ccc5c4c3c2cc5)O

$$$$
