5XPI_8C3_A_301
  RCSB PDB04211801253D
Coordinates from PDB:5XPI:A:301 Model:1 without hydrogens
 26 28  0  0  0  0            999 V2000
  -35.3550   -2.7670    5.8320   C 0  0  0  0  0  0  0  0  0  0  0  0
  -35.1890   -2.6490    7.3370   C 0  0  0  0  0  0  0  0  0  0  0  0
  -37.6080   -3.8360    6.2920   C 0  0  0  0  0  0  0  0  0  0  0  0
  -34.1570   -2.1220    7.7770   O 0  0  0  0  0  0  0  0  0  0  0  0
  -34.8900   -4.9650   10.1370   O 0  0  0  0  0  0  0  0  0  0  0  0
  -38.8610   -4.4910    5.8500   C 0  0  0  0  0  0  0  0  0  0  0  0
  -33.5610   -4.6270   12.9650   C 0  0  0  0  0  0  0  0  0  0  0  0
  -33.3800   -3.3400   12.1090   C 0  0  0  0  0  0  0  0  0  0  0  0
  -34.7860   -4.5970   13.9150   C 0  0  0  0  0  0  0  0  0  0  0  0
  -34.0790   -2.8490   15.5670   C 0  0  0  0  0  0  0  0  0  0  0  0
  -35.4710   -4.8200   16.2960   C 0  0  0  0  0  0  0  0  0  0  0  0
  -32.5800   -2.5110   15.3990   C 0  0  0  0  0  0  0  0  0  0  0  0
  -36.8090   -4.0600   16.2010   C 0  0  0  0  0  0  0  0  0  0  0  0
  -36.5690   -3.3530    5.3320   N 0  0  0  0  0  0  0  0  0  0  0  0
  -34.5290   -2.4000    4.7580   C 0  0  0  0  0  0  0  0  0  0  0  0
  -36.2640   -3.1410    8.1170   N 0  0  0  0  0  0  0  0  0  0  0  0
  -36.4340   -3.3090    3.9930   C 0  0  0  0  0  0  0  0  0  0  0  0
  -37.4350   -3.7220    7.5740   N 0  0  0  0  0  0  0  0  0  0  0  0
  -35.2390   -2.7530    3.6370   C 0  0  0  0  0  0  0  0  0  0  0  0
  -36.3210   -3.0910    9.6030   C 0  0  0  0  0  0  0  0  0  0  0  0
  -37.1700   -3.6630    2.8270   C 0  0  0  0  0  0  0  0  0  0  0  0
  -34.8740   -2.6210    1.9700   S 0  0  0  0  0  0  0  0  0  0  0  0
  -35.1680   -3.7720   10.3570   C 0  0  0  0  0  0  0  0  0  0  0  0
  -36.4670   -3.3450    1.6960   C 0  0  0  0  0  0  0  0  0  0  0  0
  -34.5210   -2.9790   11.2450   N 0  0  0  0  0  0  0  0  0  0  0  0
  -34.4440   -4.2910   15.3420   N 0  0  0  0  0  0  0  0  0  0  0  0
 24 22  1  0  0  0  0
 24 21  2  0  0  0  0
 22 19  1  0  0  0  0
 21 17  1  0  0  0  0
 19 17  2  0  0  0  0
 19 15  1  0  0  0  0
 17 14  1  0  0  0  0
 15  1  2  0  0  0  0
 14  1  1  0  0  0  0
 14  3  1  0  0  0  0
  1  2  1  0  0  0  0
  6  3  1  0  0  0  0
  3 18  2  0  0  0  0
  2  4  2  0  0  0  0
  2 16  1  0  0  0  0
 18 16  1  0  0  0  0
 16 20  1  0  0  0  0
 20 23  1  0  0  0  0
  5 23  2  0  0  0  0
 23 25  1  0  0  0  0
 25  8  1  0  0  0  0
  8  7  1  0  0  0  0
  7  9  1  0  0  0  0
  9 26  1  0  0  0  0
 26 10  1  0  0  0  0
 26 11  1  0  0  0  0
 12 10  1  0  0  0  0
 13 11  1  0  0  0  0
A    1
C1
A    2
C2
A    3
C3
A    4
O1
A    5
O2
A    6
C11
A    7
C12
A    8
C13
A    9
C14
A   10
C15
A   11
C16
A   12
C17
A   13
C18
A   14
N1
A   15
C4
A   16
N2
A   17
C5
A   18
N3
A   19
C6
A   20
C7
A   21
C8
A   22
S1
A   23
C9
A   24
C10
A   25
N4
A   26
N5
M  END
>  <InstanceId>
5XPI_8C3_A_301

>  <ChemCompId>
8C3

>  <PdbId>
5XPI

>  <ChainId>
A

>  <ResidueNumber>
301

>  <InsertionCode>


>  <Model>
1

>  <AltIds>


>  <MissingHeavyAtoms>
0

>  <ObservedFormula>
C18 N5 O2 S

>  <Name>
N-[3-(diethylamino)propyl]-2-(12-methyl-9-oxidanylidene-5-thia-1,10,11-triazatricyclo[6.4.0.0^2,6]dodeca-2(6),3,7,11-tetraen-10-yl)ethanamide

>  <SystematicName>
~{N}-[3-(diethylamino)propyl]-2-(12-methyl-9-oxidanylidene-5-thia-1,10,11-triazatricyclo[6.4.0.0^{2,6}]dodeca-2(6),3,7,11-tetraen-10-yl)ethanamide

>  <Synonyms>


>  <Type>
NON-POLYMER

>  <Formula>
C18 H25 N5 O2 S

>  <MolecularWeight>
375.488

>  <ModifiedDate>
2018-04-20

>  <Parent>


>  <OneLetterCode>


>  <SubcomponentList>


>  <AmbiguousFlag>
N

>  <InChI>
InChI=1S/C18H25N5O2S/c1-4-21(5-2)9-6-8-19-17(24)12-22-18(25)15-11-16-14(7-10-26-16)23(15)13(3)20-22/h7,10-11H,4-6,8-9,12H2,1-3H3,(H,19,24)

>  <InChIKey>
DRDIHUMOFDGYRJ-UHFFFAOYSA-N

>  <SMILES>
CCN(CC)CCCNC(=O)CN1C(=O)c2cc3c(n2C(=N1)C)ccs3

$$$$
