3L4V_KTL_A_1001


 34 34  0  0  0  0  0  0  0  0999 V2000
   43.3934   88.7184   33.3828 C   0  0  0  0  0  0  0  0  0  0  0  0
   43.2840   90.5391   31.8071 O   0  0  0  0  0  0  0  0  0  0  0  0
   43.0659   90.2112   33.1815 C   0  0  0  0  0  0  0  0  0  0  0  0
   43.0823   91.4768   31.6624 H   0  0  0  0  0  0  0  0  0  0  0  0
   43.8145   91.1621   34.1365 C   0  0  0  0  0  0  0  0  0  0  0  0
   47.0248   94.8105   33.9649 O   0  0  0  0  0  0  0  0  0  0  0  0
   45.7298   94.7229   36.5781 O   0  0  0  0  0  0  0  0  0  0  0  0
   45.0968   93.3082   33.1764 C   0  0  0  0  0  0  0  0  0  0  0  0
   45.9886   93.8552   34.3090 C   0  0  0  0  0  0  0  0  0  0  0  0
   45.0559   94.4670   35.3451 C   0  0  0  0  0  0  0  0  0  0  0  0
   43.9327   93.4332   35.4767 C   0  0  0  0  0  0  0  0  0  0  0  0
   43.6644   92.8329   33.9202 S   0  0  0  0  0  0  0  0  0  0  0  0
   47.6185   94.4197   33.3047 H   0  0  0  0  0  0  0  0  0  0  0  0
   46.4271   95.3818   36.4348 H   0  0  0  0  0  0  0  0  0  0  0  0
   43.0526   94.7567   37.3988 O   0  0  0  0  0  0  0  0  0  0  0  0
   42.7286   93.9973   36.2217 C   0  0  0  0  0  0  0  0  0  0  0  0
   42.2355   95.0779   37.8114 H   0  0  0  0  0  0  0  0  0  0  0  0
   41.4972   88.0710   32.0414 O   0  0  0  0  0  0  0  0  0  0  0  0
   42.9164   87.8886   32.1767 C   0  0  0  0  0  0  0  0  0  0  0  0
   41.1756   87.5554   31.2854 H   0  0  0  0  0  0  0  0  0  0  0  0
   44.4204   86.1096   32.9333 O   0  0  0  0  0  0  0  0  0  0  0  0
   43.2170   86.3793   32.2274 C   0  0  0  0  0  0  0  0  0  0  0  0
   44.5800   85.1529   32.9467 H   0  0  0  0  0  0  0  0  0  0  0  0
   42.3381   86.2236   29.9574 O   0  0  0  0  0  0  0  0  0  0  0  0
   43.3765   85.7689   30.8336 C   0  0  0  0  0  0  0  0  0  0  0  0
   42.4575   85.8257   29.0809 H   0  0  0  0  0  0  0  0  0  0  0  0
   45.5247   84.8477   30.2860 O   0  0  0  0  0  0  0  0  0  0  0  0
   44.7663   86.0784   30.2427 C   0  0  0  0  0  0  0  0  0  0  0  0
   46.4104   85.0007   29.9210 H   0  0  0  0  0  0  0  0  0  0  0  0
   42.6542   88.2473   34.4977 O   0  0  0  0  0  0  0  0  0  0  0  0
   44.7666   88.3307   35.9654 O   0  0  0  0  0  0  0  0  0  0  0  0
   42.6843   88.2864   37.0772 O   0  0  0  0  0  0  0  0  0  0  0  0
   43.4014   86.3133   35.7951 O   0  0  0  0  0  0  0  0  0  0  0  0
   43.3928   87.7862   35.8722 S   0  0  0  0  0  0  0  0  0  0  0  0
 27 28  1  0  0  0
 15 16  1  0  0  0
 24 25  1  0  0  0
  6  9  1  0  0  0
  2  3  1  0  0  0
 21 22  1  0  0  0
  7 10  1  0  0  0
 18 19  1  0  0  0
 31 34  2  0  0  0
 32 34  1  0  0  0
 33 34  2  0  0  0
 28 25  1  0  0  0
 16 11  1  0  0  0
  8  9  1  0  0  0
  8 12  1  0  0  0
  5  3  1  0  0  0
  5 12  1  0  0  0
 30  1  1  0  0  0
 30 34  1  0  0  0
 25 22  1  0  0  0
  9 10  1  0  0  0
  3  1  1  0  0  0
 22 19  1  0  0  0
 10 11  1  0  0  0
 19  1  1  0  0  0
 11 12  1  0  0  0
 27 29  1  0  0  0
 15 17  1  0  0  0
 24 26  1  0  0  0
  6 13  1  0  0  0
  2  4  1  0  0  0
 21 23  1  0  0  0
  7 14  1  0  0  0
 18 20  1  0  0  0
M  CHG 1  12   1
M  CHG 1  32  -1
M  END
> <minimizedAffinity>
-6.86202

$$$$
3L4V_KTL_A_1001


 34 34  0  0  0  0  0  0  0  0999 V2000
   42.7347   89.0414   33.4463 C   0  0  0  0  0  0  0  0  0  0  0  0
   43.4790   90.5866   31.7527 O   0  0  0  0  0  0  0  0  0  0  0  0
   42.9048   90.5241   33.0606 C   0  0  0  0  0  0  0  0  0  0  0  0
   43.5932   91.5144   31.4937 H   0  0  0  0  0  0  0  0  0  0  0  0
   43.6922   91.3630   34.0867 C   0  0  0  0  0  0  0  0  0  0  0  0
   46.9973   94.9297   34.0491 O   0  0  0  0  0  0  0  0  0  0  0  0
   45.8535   94.6367   36.7174 O   0  0  0  0  0  0  0  0  0  0  0  0
   44.9818   93.5548   33.2471 C   0  0  0  0  0  0  0  0  0  0  0  0
   45.9539   93.9734   34.3682 C   0  0  0  0  0  0  0  0  0  0  0  0
   45.1020   94.5114   35.5094 C   0  0  0  0  0  0  0  0  0  0  0  0
   43.9571   93.4987   35.6154 C   0  0  0  0  0  0  0  0  0  0  0  0
   43.5810   93.0498   34.0305 S   0  0  0  0  0  0  0  0  0  0  0  0
   47.5395   94.5860   33.3219 H   0  0  0  0  0  0  0  0  0  0  0  0
   46.5612   95.2881   36.5919 H   0  0  0  0  0  0  0  0  0  0  0  0
   42.3366   95.3279   36.1141 O   0  0  0  0  0  0  0  0  0  0  0  0
   42.8160   94.0226   36.4794 C   0  0  0  0  0  0  0  0  0  0  0  0
   41.6154   95.5858   36.7094 H   0  0  0  0  0  0  0  0  0  0  0  0
   44.8546   87.9701   33.0317 O   0  0  0  0  0  0  0  0  0  0  0  0
   44.0249   88.4925   34.0825 C   0  0  0  0  0  0  0  0  0  0  0  0
   45.6748   87.6184   33.4119 H   0  0  0  0  0  0  0  0  0  0  0  0
   42.6166   87.5566   35.8546 O   0  0  0  0  0  0  0  0  0  0  0  0
   43.8444   87.4032   35.1558 C   0  0  0  0  0  0  0  0  0  0  0  0
   42.5344   86.8568   36.5213 H   0  0  0  0  0  0  0  0  0  0  0  0
   46.2446   87.3405   35.5854 O   0  0  0  0  0  0  0  0  0  0  0  0
   44.9564   87.4290   36.2062 C   0  0  0  0  0  0  0  0  0  0  0  0
   46.9341   87.3584   36.2674 H   0  0  0  0  0  0  0  0  0  0  0  0
   44.1382   88.3065   38.2857 O   0  0  0  0  0  0  0  0  0  0  0  0
   44.8606   88.6871   37.0919 C   0  0  0  0  0  0  0  0  0  0  0  0
   44.0560   89.0744   38.8725 H   0  0  0  0  0  0  0  0  0  0  0  0
   42.5359   88.2928   32.2583 O   0  0  0  0  0  0  0  0  0  0  0  0
   41.7552   86.0447   31.2786 O   0  0  0  0  0  0  0  0  0  0  0  0
   41.0344   86.5754   33.4633 O   0  0  0  0  0  0  0  0  0  0  0  0
   40.2184   87.9195   31.5716 O   0  0  0  0  0  0  0  0  0  0  0  0
   41.3568   87.1775   32.1450 S   0  0  0  0  0  0  0  0  0  0  0  0
 27 28  1  0  0  0
 15 16  1  0  0  0
 24 25  1  0  0  0
  6  9  1  0  0  0
  2  3  1  0  0  0
 21 22  1  0  0  0
  7 10  1  0  0  0
 18 19  1  0  0  0
 31 34  2  0  0  0
 32 34  1  0  0  0
 33 34  2  0  0  0
 28 25  1  0  0  0
 16 11  1  0  0  0
  8  9  1  0  0  0
  8 12  1  0  0  0
  5  3  1  0  0  0
  5 12  1  0  0  0
 30  1  1  0  0  0
 30 34  1  0  0  0
 25 22  1  0  0  0
  9 10  1  0  0  0
  3  1  1  0  0  0
 22 19  1  0  0  0
 10 11  1  0  0  0
 19  1  1  0  0  0
 11 12  1  0  0  0
 27 29  1  0  0  0
 15 17  1  0  0  0
 24 26  1  0  0  0
  6 13  1  0  0  0
  2  4  1  0  0  0
 21 23  1  0  0  0
  7 14  1  0  0  0
 18 20  1  0  0  0
M  CHG 1  12   1
M  CHG 1  32  -1
M  END
> <minimizedAffinity>
-6.83510

$$$$
3L4V_KTL_A_1001


 34 34  0  0  0  0  0  0  0  0999 V2000
   42.8868   89.2405   34.0019 C   0  0  0  0  0  0  0  0  0  0  0  0
   41.1706   89.0895   32.3162 O   0  0  0  0  0  0  0  0  0  0  0  0
   42.1662   88.3210   32.9961 C   0  0  0  0  0  0  0  0  0  0  0  0
   40.7065   88.5253   31.6781 H   0  0  0  0  0  0  0  0  0  0  0  0
   41.5907   87.0303   33.6119 C   0  0  0  0  0  0  0  0  0  0  0  0
   45.6581   85.1094   31.7645 O   0  0  0  0  0  0  0  0  0  0  0  0
   43.9302   86.0761   29.6212 O   0  0  0  0  0  0  0  0  0  0  0  0
   43.5700   85.2627   33.2520 C   0  0  0  0  0  0  0  0  0  0  0  0
   44.3533   85.6993   31.9977 C   0  0  0  0  0  0  0  0  0  0  0  0
   43.4514   85.4296   30.8013 C   0  0  0  0  0  0  0  0  0  0  0  0
   42.0821   85.9450   31.2563 C   0  0  0  0  0  0  0  0  0  0  0  0
   41.9504   85.5426   32.8920 S   0  0  0  0  0  0  0  0  0  0  0  0
   46.2319   85.2818   32.5274 H   0  0  0  0  0  0  0  0  0  0  0  0
   44.7963   85.7112   29.3814 H   0  0  0  0  0  0  0  0  0  0  0  0
   41.1865   85.7435   28.9372 O   0  0  0  0  0  0  0  0  0  0  0  0
   40.9648   85.4752   30.3322 C   0  0  0  0  0  0  0  0  0  0  0  0
   40.4336   85.4151   28.4212 H   0  0  0  0  0  0  0  0  0  0  0  0
   43.5394   90.5197   32.0650 O   0  0  0  0  0  0  0  0  0  0  0  0
   43.0676   90.6529   33.4161 C   0  0  0  0  0  0  0  0  0  0  0  0
   43.6603   91.4002   31.6765 H   0  0  0  0  0  0  0  0  0  0  0  0
   43.7396   91.5972   35.5739 O   0  0  0  0  0  0  0  0  0  0  0  0
   44.0205   91.5900   34.1809 C   0  0  0  0  0  0  0  0  0  0  0  0
   44.3557   92.1955   36.0248 H   0  0  0  0  0  0  0  0  0  0  0  0
   43.0249   93.7887   34.5331 O   0  0  0  0  0  0  0  0  0  0  0  0
   43.9210   93.0400   33.7030 C   0  0  0  0  0  0  0  0  0  0  0  0
   42.9763   94.7033   34.2137 H   0  0  0  0  0  0  0  0  0  0  0  0
   45.5424   94.0891   32.2768 O   0  0  0  0  0  0  0  0  0  0  0  0
   45.3089   93.7091   33.6527 C   0  0  0  0  0  0  0  0  0  0  0  0
   46.4102   94.5160   32.2021 H   0  0  0  0  0  0  0  0  0  0  0  0
   44.1948   88.7336   34.2100 O   0  0  0  0  0  0  0  0  0  0  0  0
   44.8243   89.1854   36.6641 O   0  0  0  0  0  0  0  0  0  0  0  0
   43.6283   87.2018   36.2072 O   0  0  0  0  0  0  0  0  0  0  0  0
   45.9245   87.4403   35.3577 O   0  0  0  0  0  0  0  0  0  0  0  0
   44.6496   88.1227   35.6478 S   0  0  0  0  0  0  0  0  0  0  0  0
 27 28  1  0  0  0
 15 16  1  0  0  0
 24 25  1  0  0  0
  6  9  1  0  0  0
  2  3  1  0  0  0
 21 22  1  0  0  0
  7 10  1  0  0  0
 18 19  1  0  0  0
 31 34  2  0  0  0
 32 34  1  0  0  0
 33 34  2  0  0  0
 28 25  1  0  0  0
 16 11  1  0  0  0
  8  9  1  0  0  0
  8 12  1  0  0  0
  5  3  1  0  0  0
  5 12  1  0  0  0
 30  1  1  0  0  0
 30 34  1  0  0  0
 25 22  1  0  0  0
  9 10  1  0  0  0
  3  1  1  0  0  0
 22 19  1  0  0  0
 10 11  1  0  0  0
 19  1  1  0  0  0
 11 12  1  0  0  0
 27 29  1  0  0  0
 15 17  1  0  0  0
 24 26  1  0  0  0
  6 13  1  0  0  0
  2  4  1  0  0  0
 21 23  1  0  0  0
  7 14  1  0  0  0
 18 20  1  0  0  0
M  CHG 1  12   1
M  CHG 1  32  -1
M  END
> <minimizedAffinity>
-6.43657

$$$$
3L4V_KTL_A_1001


 34 34  0  0  0  0  0  0  0  0999 V2000
   41.2687   85.1501   31.9477 C   0  0  0  0  0  0  0  0  0  0  0  0
   41.0889   84.4911   34.2592 O   0  0  0  0  0  0  0  0  0  0  0  0
   41.3126   85.6226   33.4143 C   0  0  0  0  0  0  0  0  0  0  0  0
   41.1132   84.7710   35.1876 H   0  0  0  0  0  0  0  0  0  0  0  0
   40.3601   86.7913   33.7359 C   0  0  0  0  0  0  0  0  0  0  0  0
   43.3716   90.0627   31.7675 O   0  0  0  0  0  0  0  0  0  0  0  0
   44.8133   88.3630   33.6507 O   0  0  0  0  0  0  0  0  0  0  0  0
   41.2431   89.1771   32.8994 C   0  0  0  0  0  0  0  0  0  0  0  0
   42.7350   89.0162   32.5450 C   0  0  0  0  0  0  0  0  0  0  0  0
   43.4810   88.8332   33.8594 C   0  0  0  0  0  0  0  0  0  0  0  0
   42.6081   87.8421   34.6363 C   0  0  0  0  0  0  0  0  0  0  0  0
   41.0073   88.2540   34.2861 S   0  0  0  0  0  0  0  0  0  0  0  0
   42.8956   90.1786   30.9303 H   0  0  0  0  0  0  0  0  0  0  0  0
   45.3172   89.0283   33.1563 H   0  0  0  0  0  0  0  0  0  0  0  0
   44.3622   87.3699   36.3454 O   0  0  0  0  0  0  0  0  0  0  0  0
   43.0026   87.7722   36.1068 C   0  0  0  0  0  0  0  0  0  0  0  0
   44.5309   87.3508   37.3004 H   0  0  0  0  0  0  0  0  0  0  0  0
   43.3224   84.0829   32.6238 O   0  0  0  0  0  0  0  0  0  0  0  0
   42.6561   84.6635   31.4904 C   0  0  0  0  0  0  0  0  0  0  0  0
   44.2006   83.7691   32.3569 H   0  0  0  0  0  0  0  0  0  0  0  0
   43.2975   85.9199   29.4880 O   0  0  0  0  0  0  0  0  0  0  0  0
   43.5791   85.7270   30.8674 C   0  0  0  0  0  0  0  0  0  0  0  0
   43.8945   86.5938   29.1273 H   0  0  0  0  0  0  0  0  0  0  0  0
   45.4734   84.6129   29.8092 O   0  0  0  0  0  0  0  0  0  0  0  0
   45.0577   85.3471   30.9672 C   0  0  0  0  0  0  0  0  0  0  0  0
   46.4119   84.3823   29.8923 H   0  0  0  0  0  0  0  0  0  0  0  0
   45.1793   87.7312   30.7129 O   0  0  0  0  0  0  0  0  0  0  0  0
   45.9429   86.5923   31.1730 C   0  0  0  0  0  0  0  0  0  0  0  0
   45.7039   88.5392   30.8260 H   0  0  0  0  0  0  0  0  0  0  0  0
   40.9572   86.2662   31.1299 O   0  0  0  0  0  0  0  0  0  0  0  0
   38.6566   85.2950   30.5079 O   0  0  0  0  0  0  0  0  0  0  0  0
   39.0657   87.5477   29.9317 O   0  0  0  0  0  0  0  0  0  0  0  0
   40.3488   85.7717   28.8133 O   0  0  0  0  0  0  0  0  0  0  0  0
   39.7234   86.2239   30.0702 S   0  0  0  0  0  0  0  0  0  0  0  0
 27 28  1  0  0  0
 15 16  1  0  0  0
 24 25  1  0  0  0
  6  9  1  0  0  0
  2  3  1  0  0  0
 21 22  1  0  0  0
  7 10  1  0  0  0
 18 19  1  0  0  0
 31 34  2  0  0  0
 32 34  1  0  0  0
 33 34  2  0  0  0
 28 25  1  0  0  0
 16 11  1  0  0  0
  8  9  1  0  0  0
  8 12  1  0  0  0
  5  3  1  0  0  0
  5 12  1  0  0  0
 30  1  1  0  0  0
 30 34  1  0  0  0
 25 22  1  0  0  0
  9 10  1  0  0  0
  3  1  1  0  0  0
 22 19  1  0  0  0
 10 11  1  0  0  0
 19  1  1  0  0  0
 11 12  1  0  0  0
 27 29  1  0  0  0
 15 17  1  0  0  0
 24 26  1  0  0  0
  6 13  1  0  0  0
  2  4  1  0  0  0
 21 23  1  0  0  0
  7 14  1  0  0  0
 18 20  1  0  0  0
M  CHG 1  12   1
M  CHG 1  32  -1
M  END
> <minimizedAffinity>
-6.21589

$$$$
3L4V_KTL_A_1001


 34 34  0  0  0  0  0  0  0  0999 V2000
   44.7456   88.3576   35.9834 C   0  0  0  0  0  0  0  0  0  0  0  0
   42.9388   89.2289   34.6470 O   0  0  0  0  0  0  0  0  0  0  0  0
   43.7227   89.4980   35.8120 C   0  0  0  0  0  0  0  0  0  0  0  0
   42.2886   89.9380   34.5238 H   0  0  0  0  0  0  0  0  0  0  0  0
   44.3406   90.9101   35.7889 C   0  0  0  0  0  0  0  0  0  0  0  0
   45.8565   94.5396   32.9297 O   0  0  0  0  0  0  0  0  0  0  0  0
   45.2636   95.5387   35.6064 O   0  0  0  0  0  0  0  0  0  0  0  0
   44.5042   92.4669   33.6160 C   0  0  0  0  0  0  0  0  0  0  0  0
   45.3451   93.7016   33.9979 C   0  0  0  0  0  0  0  0  0  0  0  0
   44.4909   94.5403   34.9385 C   0  0  0  0  0  0  0  0  0  0  0  0
   43.8855   93.5081   35.8954 C   0  0  0  0  0  0  0  0  0  0  0  0
   43.5399   92.1461   34.9570 S   0  0  0  0  0  0  0  0  0  0  0  0
   46.4005   94.0044   32.3311 H   0  0  0  0  0  0  0  0  0  0  0  0
   45.6202   96.1616   34.9540 H   0  0  0  0  0  0  0  0  0  0  0  0
   42.1918   95.3158   36.1863 O   0  0  0  0  0  0  0  0  0  0  0  0
   42.7426   94.0970   36.7139 C   0  0  0  0  0  0  0  0  0  0  0  0
   41.4743   95.6224   36.7625 H   0  0  0  0  0  0  0  0  0  0  0  0
   43.3936   86.3756   35.7434 O   0  0  0  0  0  0  0  0  0  0  0  0
   44.3906   87.1662   35.0750 C   0  0  0  0  0  0  0  0  0  0  0  0
   43.1552   85.6179   35.1867 H   0  0  0  0  0  0  0  0  0  0  0  0
   46.0864   85.5495   35.7892 O   0  0  0  0  0  0  0  0  0  0  0  0
   45.5581   86.2477   34.6699 C   0  0  0  0  0  0  0  0  0  0  0  0
   46.8178   84.9817   35.5004 H   0  0  0  0  0  0  0  0  0  0  0  0
   47.9354   86.7853   34.7647 O   0  0  0  0  0  0  0  0  0  0  0  0
   46.7198   87.0219   34.0442 C   0  0  0  0  0  0  0  0  0  0  0  0
   48.6579   87.2844   34.3526 H   0  0  0  0  0  0  0  0  0  0  0  0
   48.2601   86.2426   32.3757 O   0  0  0  0  0  0  0  0  0  0  0  0
   46.8894   86.6685   32.5532 C   0  0  0  0  0  0  0  0  0  0  0  0
   48.4086   86.0100   31.4458 H   0  0  0  0  0  0  0  0  0  0  0  0
   44.6549   87.8750   37.3139 O   0  0  0  0  0  0  0  0  0  0  0  0
   47.1783   87.4622   37.6052 O   0  0  0  0  0  0  0  0  0  0  0  0
   46.2274   89.2337   38.8426 O   0  0  0  0  0  0  0  0  0  0  0  0
   45.5777   86.9200   39.3677 O   0  0  0  0  0  0  0  0  0  0  0  0
   45.9431   87.8782   38.3077 S   0  0  0  0  0  0  0  0  0  0  0  0
 27 28  1  0  0  0
 15 16  1  0  0  0
 24 25  1  0  0  0
  6  9  1  0  0  0
  2  3  1  0  0  0
 21 22  1  0  0  0
  7 10  1  0  0  0
 18 19  1  0  0  0
 31 34  2  0  0  0
 32 34  1  0  0  0
 33 34  2  0  0  0
 28 25  1  0  0  0
 16 11  1  0  0  0
  8  9  1  0  0  0
  8 12  1  0  0  0
  5  3  1  0  0  0
  5 12  1  0  0  0
 30  1  1  0  0  0
 30 34  1  0  0  0
 25 22  1  0  0  0
  9 10  1  0  0  0
  3  1  1  0  0  0
 22 19  1  0  0  0
 10 11  1  0  0  0
 19  1  1  0  0  0
 11 12  1  0  0  0
 27 29  1  0  0  0
 15 17  1  0  0  0
 24 26  1  0  0  0
  6 13  1  0  0  0
  2  4  1  0  0  0
 21 23  1  0  0  0
  7 14  1  0  0  0
 18 20  1  0  0  0
M  CHG 1  12   1
M  CHG 1  32  -1
M  END
> <minimizedAffinity>
-6.16315

$$$$
3L4V_KTL_A_1001


 34 34  0  0  0  0  0  0  0  0999 V2000
   43.3381   86.4878   32.5460 C   0  0  0  0  0  0  0  0  0  0  0  0
   41.2139   86.8116   33.6381 O   0  0  0  0  0  0  0  0  0  0  0  0
   41.8532   86.0766   32.5915 C   0  0  0  0  0  0  0  0  0  0  0  0
   40.2769   86.5647   33.6809 H   0  0  0  0  0  0  0  0  0  0  0  0
   41.6160   84.5582   32.7128 C   0  0  0  0  0  0  0  0  0  0  0  0
   42.4744   83.8138   27.9846 O   0  0  0  0  0  0  0  0  0  0  0  0
   40.5425   85.9721   28.3358 O   0  0  0  0  0  0  0  0  0  0  0  0
   41.9467   83.2078   30.4239 C   0  0  0  0  0  0  0  0  0  0  0  0
   41.9857   84.2426   29.2816 C   0  0  0  0  0  0  0  0  0  0  0  0
   40.5727   84.7906   29.1376 C   0  0  0  0  0  0  0  0  0  0  0  0
   40.1292   85.0335   30.5839 C   0  0  0  0  0  0  0  0  0  0  0  0
   40.7660   83.7570   31.4894 S   0  0  0  0  0  0  0  0  0  0  0  0
   43.3746   83.4648   28.0775 H   0  0  0  0  0  0  0  0  0  0  0  0
   40.8318   85.7590   27.4348 H   0  0  0  0  0  0  0  0  0  0  0  0
   38.1360   86.3452   29.8577 O   0  0  0  0  0  0  0  0  0  0  0  0
   38.6276   85.2751   30.6826 C   0  0  0  0  0  0  0  0  0  0  0  0
   37.1775   86.4325   29.9786 H   0  0  0  0  0  0  0  0  0  0  0  0
   44.1577   88.6399   31.8316 O   0  0  0  0  0  0  0  0  0  0  0  0
   43.5044   87.9713   32.9233 C   0  0  0  0  0  0  0  0  0  0  0  0
   44.2725   89.5782   32.0492 H   0  0  0  0  0  0  0  0  0  0  0  0
   44.8321   89.5729   34.2161 O   0  0  0  0  0  0  0  0  0  0  0  0
   44.2866   88.2608   34.2177 C   0  0  0  0  0  0  0  0  0  0  0  0
   45.3169   89.7225   35.0428 H   0  0  0  0  0  0  0  0  0  0  0  0
   46.5180   87.5841   33.5019 O   0  0  0  0  0  0  0  0  0  0  0  0
   45.4568   87.2964   34.4205 C   0  0  0  0  0  0  0  0  0  0  0  0
   47.2485   86.9627   33.6469 H   0  0  0  0  0  0  0  0  0  0  0  0
   44.9898   88.0721   36.6439 O   0  0  0  0  0  0  0  0  0  0  0  0
   45.9666   87.3330   35.8749 C   0  0  0  0  0  0  0  0  0  0  0  0
   45.2749   88.1182   37.5699 H   0  0  0  0  0  0  0  0  0  0  0  0
   43.7908   86.3722   31.2070 O   0  0  0  0  0  0  0  0  0  0  0  0
   45.1488   84.8307   29.6570 O   0  0  0  0  0  0  0  0  0  0  0  0
   46.2553   86.7247   30.5300 O   0  0  0  0  0  0  0  0  0  0  0  0
   45.5685   84.9255   32.0605 O   0  0  0  0  0  0  0  0  0  0  0  0
   45.2297   85.7007   30.8524 S   0  0  0  0  0  0  0  0  0  0  0  0
 27 28  1  0  0  0
 15 16  1  0  0  0
 24 25  1  0  0  0
  6  9  1  0  0  0
  2  3  1  0  0  0
 21 22  1  0  0  0
  7 10  1  0  0  0
 18 19  1  0  0  0
 31 34  2  0  0  0
 32 34  1  0  0  0
 33 34  2  0  0  0
 28 25  1  0  0  0
 16 11  1  0  0  0
  8  9  1  0  0  0
  8 12  1  0  0  0
  5  3  1  0  0  0
  5 12  1  0  0  0
 30  1  1  0  0  0
 30 34  1  0  0  0
 25 22  1  0  0  0
  9 10  1  0  0  0
  3  1  1  0  0  0
 22 19  1  0  0  0
 10 11  1  0  0  0
 19  1  1  0  0  0
 11 12  1  0  0  0
 27 29  1  0  0  0
 15 17  1  0  0  0
 24 26  1  0  0  0
  6 13  1  0  0  0
  2  4  1  0  0  0
 21 23  1  0  0  0
  7 14  1  0  0  0
 18 20  1  0  0  0
M  CHG 1  12   1
M  CHG 1  32  -1
M  END
> <minimizedAffinity>
-6.13572

$$$$
3L4V_KTL_A_1001


 34 34  0  0  0  0  0  0  0  0999 V2000
   43.3166   90.0325   33.9911 C   0  0  0  0  0  0  0  0  0  0  0  0
   43.5220   89.6074   36.3548 O   0  0  0  0  0  0  0  0  0  0  0  0
   43.6885   88.9983   35.0721 C   0  0  0  0  0  0  0  0  0  0  0  0
   43.7522   88.9693   37.0481 H   0  0  0  0  0  0  0  0  0  0  0  0
   45.0856   88.3701   34.8989 C   0  0  0  0  0  0  0  0  0  0  0  0
   48.6907   85.1080   34.8092 O   0  0  0  0  0  0  0  0  0  0  0  0
   48.4306   86.4020   32.2069 O   0  0  0  0  0  0  0  0  0  0  0  0
   46.3458   86.0394   35.2885 C   0  0  0  0  0  0  0  0  0  0  0  0
   47.6758   86.1009   34.5109 C   0  0  0  0  0  0  0  0  0  0  0  0
   47.3223   86.0390   33.0314 C   0  0  0  0  0  0  0  0  0  0  0  0
   46.1360   87.0000   32.9019 C   0  0  0  0  0  0  0  0  0  0  0  0
   45.2111   86.7929   34.3007 S   0  0  0  0  0  0  0  0  0  0  0  0
   48.9152   85.1482   35.7520 H   0  0  0  0  0  0  0  0  0  0  0  0
   49.1485   85.7613   32.3297 H   0  0  0  0  0  0  0  0  0  0  0  0
   46.1779   86.1461   30.5588 O   0  0  0  0  0  0  0  0  0  0  0  0
   45.4211   86.8400   31.5654 C   0  0  0  0  0  0  0  0  0  0  0  0
   45.6547   86.0873   29.7442 H   0  0  0  0  0  0  0  0  0  0  0  0
   43.3072   90.3231   31.5976 O   0  0  0  0  0  0  0  0  0  0  0  0
   43.1018   89.3449   32.6303 C   0  0  0  0  0  0  0  0  0  0  0  0
   43.1763   89.9096   30.7299 H   0  0  0  0  0  0  0  0  0  0  0  0
   40.7783   89.1192   33.3719 O   0  0  0  0  0  0  0  0  0  0  0  0
   41.7304   88.6792   32.4131 C   0  0  0  0  0  0  0  0  0  0  0  0
   39.9281   88.6822   33.2074 H   0  0  0  0  0  0  0  0  0  0  0  0
   41.3225   86.7174   33.8039 O   0  0  0  0  0  0  0  0  0  0  0  0
   41.7974   87.1549   32.5249 C   0  0  0  0  0  0  0  0  0  0  0  0
   41.3732   85.7500   33.8540 H   0  0  0  0  0  0  0  0  0  0  0  0
   39.9045   87.3482   31.0609 O   0  0  0  0  0  0  0  0  0  0  0  0
   41.0105   86.4751   31.3868 C   0  0  0  0  0  0  0  0  0  0  0  0
   39.3818   86.9544   30.3450 H   0  0  0  0  0  0  0  0  0  0  0  0
   44.4178   90.9089   33.8164 O   0  0  0  0  0  0  0  0  0  0  0  0
   43.7054   92.6935   35.5283 O   0  0  0  0  0  0  0  0  0  0  0  0
   45.6509   93.1304   34.2641 O   0  0  0  0  0  0  0  0  0  0  0  0
   43.4719   93.0557   33.1248 O   0  0  0  0  0  0  0  0  0  0  0  0
   44.3142   92.4880   34.1942 S   0  0  0  0  0  0  0  0  0  0  0  0
 27 28  1  0  0  0
 15 16  1  0  0  0
 24 25  1  0  0  0
  6  9  1  0  0  0
  2  3  1  0  0  0
 21 22  1  0  0  0
  7 10  1  0  0  0
 18 19  1  0  0  0
 31 34  2  0  0  0
 32 34  1  0  0  0
 33 34  2  0  0  0
 28 25  1  0  0  0
 16 11  1  0  0  0
  8  9  1  0  0  0
  8 12  1  0  0  0
  5  3  1  0  0  0
  5 12  1  0  0  0
 30  1  1  0  0  0
 30 34  1  0  0  0
 25 22  1  0  0  0
  9 10  1  0  0  0
  3  1  1  0  0  0
 22 19  1  0  0  0
 10 11  1  0  0  0
 19  1  1  0  0  0
 11 12  1  0  0  0
 27 29  1  0  0  0
 15 17  1  0  0  0
 24 26  1  0  0  0
  6 13  1  0  0  0
  2  4  1  0  0  0
 21 23  1  0  0  0
  7 14  1  0  0  0
 18 20  1  0  0  0
M  CHG 1  12   1
M  CHG 1  32  -1
M  END
> <minimizedAffinity>
-6.09067

$$$$
3L4V_KTL_A_1001


 34 34  0  0  0  0  0  0  0  0999 V2000
   41.8769   84.5136   30.4775 C   0  0  0  0  0  0  0  0  0  0  0  0
   42.2244   82.7015   32.0284 O   0  0  0  0  0  0  0  0  0  0  0  0
   42.4509   84.1016   31.8475 C   0  0  0  0  0  0  0  0  0  0  0  0
   42.5801   82.4247   32.8873 H   0  0  0  0  0  0  0  0  0  0  0  0
   41.9304   84.9372   33.0338 C   0  0  0  0  0  0  0  0  0  0  0  0
   43.3383   89.4635   31.9488 O   0  0  0  0  0  0  0  0  0  0  0  0
   45.4114   87.5511   31.2009 O   0  0  0  0  0  0  0  0  0  0  0  0
   42.3673   87.5578   33.3706 C   0  0  0  0  0  0  0  0  0  0  0  0
   43.2281   88.0361   32.1842 C   0  0  0  0  0  0  0  0  0  0  0  0
   44.6166   87.4442   32.3827 C   0  0  0  0  0  0  0  0  0  0  0  0
   44.3372   85.9939   32.7906 C   0  0  0  0  0  0  0  0  0  0  0  0
   42.9700   86.0418   33.7823 S   0  0  0  0  0  0  0  0  0  0  0  0
   42.4532   89.8396   31.8224 H   0  0  0  0  0  0  0  0  0  0  0  0
   45.5554   88.4873   30.9917 H   0  0  0  0  0  0  0  0  0  0  0  0
   46.6745   85.2036   32.4261 O   0  0  0  0  0  0  0  0  0  0  0  0
   45.5804   85.3143   33.3523 C   0  0  0  0  0  0  0  0  0  0  0  0
   47.4217   84.7622   32.8596 H   0  0  0  0  0  0  0  0  0  0  0  0
   42.5291   84.0285   28.2075 O   0  0  0  0  0  0  0  0  0  0  0  0
   42.9982   84.6247   29.4282 C   0  0  0  0  0  0  0  0  0  0  0  0
   43.2221   84.0880   27.5314 H   0  0  0  0  0  0  0  0  0  0  0  0
   45.3998   84.9386   29.7932 O   0  0  0  0  0  0  0  0  0  0  0  0
   44.3472   83.9840   29.8032 C   0  0  0  0  0  0  0  0  0  0  0  0
   46.2330   84.5037   30.0330 H   0  0  0  0  0  0  0  0  0  0  0  0
   46.1030   83.0482   28.3923 O   0  0  0  0  0  0  0  0  0  0  0  0
   44.7527   82.8696   28.8367 C   0  0  0  0  0  0  0  0  0  0  0  0
   46.3397   82.3326   27.7817 H   0  0  0  0  0  0  0  0  0  0  0  0
   43.1419   81.2325   29.5358 O   0  0  0  0  0  0  0  0  0  0  0  0
   44.5658   81.4791   29.4755 C   0  0  0  0  0  0  0  0  0  0  0  0
   42.9810   80.3626   29.9337 H   0  0  0  0  0  0  0  0  0  0  0  0
   41.3256   85.8146   30.5993 O   0  0  0  0  0  0  0  0  0  0  0  0
   39.3943   87.5047   30.4084 O   0  0  0  0  0  0  0  0  0  0  0  0
   39.9877   86.3228   28.4527 O   0  0  0  0  0  0  0  0  0  0  0  0
   39.0020   85.0955   30.3431 O   0  0  0  0  0  0  0  0  0  0  0  0
   39.8929   86.1956   29.9289 S   0  0  0  0  0  0  0  0  0  0  0  0
 27 28  1  0  0  0
 15 16  1  0  0  0
 24 25  1  0  0  0
  6  9  1  0  0  0
  2  3  1  0  0  0
 21 22  1  0  0  0
  7 10  1  0  0  0
 18 19  1  0  0  0
 31 34  2  0  0  0
 32 34  1  0  0  0
 33 34  2  0  0  0
 28 25  1  0  0  0
 16 11  1  0  0  0
  8  9  1  0  0  0
  8 12  1  0  0  0
  5  3  1  0  0  0
  5 12  1  0  0  0
 30  1  1  0  0  0
 30 34  1  0  0  0
 25 22  1  0  0  0
  9 10  1  0  0  0
  3  1  1  0  0  0
 22 19  1  0  0  0
 10 11  1  0  0  0
 19  1  1  0  0  0
 11 12  1  0  0  0
 27 29  1  0  0  0
 15 17  1  0  0  0
 24 26  1  0  0  0
  6 13  1  0  0  0
  2  4  1  0  0  0
 21 23  1  0  0  0
  7 14  1  0  0  0
 18 20  1  0  0  0
M  CHG 1  12   1
M  CHG 1  32  -1
M  END
> <minimizedAffinity>
-6.08818

$$$$
3L4V_KTL_A_1001


 34 34  0  0  0  0  0  0  0  0999 V2000
   44.8110   85.6377   31.8145 C   0  0  0  0  0  0  0  0  0  0  0  0
   45.4726   84.5219   29.7830 O   0  0  0  0  0  0  0  0  0  0  0  0
   44.3545   84.7407   30.6469 C   0  0  0  0  0  0  0  0  0  0  0  0
   45.2026   83.9582   29.0412 H   0  0  0  0  0  0  0  0  0  0  0  0
   43.1201   85.2642   29.8862 C   0  0  0  0  0  0  0  0  0  0  0  0
   38.5614   86.9183   29.5271 O   0  0  0  0  0  0  0  0  0  0  0  0
   39.4483   86.9880   32.3060 O   0  0  0  0  0  0  0  0  0  0  0  0
   40.5503   85.3411   29.1363 C   0  0  0  0  0  0  0  0  0  0  0  0
   39.8647   86.4499   29.9596 C   0  0  0  0  0  0  0  0  0  0  0  0
   39.7732   85.9404   31.3913 C   0  0  0  0  0  0  0  0  0  0  0  0
   41.1535   85.3259   31.6460 C   0  0  0  0  0  0  0  0  0  0  0  0
   41.6066   84.5776   30.2005 S   0  0  0  0  0  0  0  0  0  0  0  0
   38.6208   87.2426   28.6149 H   0  0  0  0  0  0  0  0  0  0  0  0
   38.5678   87.3376   32.0978 H   0  0  0  0  0  0  0  0  0  0  0  0
   41.0767   85.2095   34.1362 O   0  0  0  0  0  0  0  0  0  0  0  0
   41.1680   84.4697   32.9068 C   0  0  0  0  0  0  0  0  0  0  0  0
   41.0924   84.5941   34.8859 H   0  0  0  0  0  0  0  0  0  0  0  0
   45.2379   87.8683   31.0047 O   0  0  0  0  0  0  0  0  0  0  0  0
   44.2457   87.0616   31.6608 C   0  0  0  0  0  0  0  0  0  0  0  0
   44.9011   88.7717   30.8978 H   0  0  0  0  0  0  0  0  0  0  0  0
   43.5835   86.8366   34.0082 O   0  0  0  0  0  0  0  0  0  0  0  0
   43.8168   87.7676   32.9603 C   0  0  0  0  0  0  0  0  0  0  0  0
   43.3159   87.3125   34.8099 H   0  0  0  0  0  0  0  0  0  0  0  0
   41.5802   88.2388   33.8116 O   0  0  0  0  0  0  0  0  0  0  0  0
   42.5268   88.5721   32.7891 C   0  0  0  0  0  0  0  0  0  0  0  0
   40.7711   88.7588   33.6850 H   0  0  0  0  0  0  0  0  0  0  0  0
   43.4465   90.3863   31.5138 O   0  0  0  0  0  0  0  0  0  0  0  0
   42.8096   90.0875   32.7775 C   0  0  0  0  0  0  0  0  0  0  0  0
   43.6420   91.3352   31.4666 H   0  0  0  0  0  0  0  0  0  0  0  0
   46.2216   85.7684   31.7499 O   0  0  0  0  0  0  0  0  0  0  0  0
   48.3789   86.3791   33.0134 O   0  0  0  0  0  0  0  0  0  0  0  0
   46.4578   85.9392   34.3133 O   0  0  0  0  0  0  0  0  0  0  0  0
   47.4819   84.1080   33.0291 O   0  0  0  0  0  0  0  0  0  0  0  0
   47.1557   85.5460   33.0633 S   0  0  0  0  0  0  0  0  0  0  0  0
 27 28  1  0  0  0
 15 16  1  0  0  0
 24 25  1  0  0  0
  6  9  1  0  0  0
  2  3  1  0  0  0
 21 22  1  0  0  0
  7 10  1  0  0  0
 18 19  1  0  0  0
 31 34  2  0  0  0
 32 34  1  0  0  0
 33 34  2  0  0  0
 28 25  1  0  0  0
 16 11  1  0  0  0
  8  9  1  0  0  0
  8 12  1  0  0  0
  5  3  1  0  0  0
  5 12  1  0  0  0
 30  1  1  0  0  0
 30 34  1  0  0  0
 25 22  1  0  0  0
  9 10  1  0  0  0
  3  1  1  0  0  0
 22 19  1  0  0  0
 10 11  1  0  0  0
 19  1  1  0  0  0
 11 12  1  0  0  0
 27 29  1  0  0  0
 15 17  1  0  0  0
 24 26  1  0  0  0
  6 13  1  0  0  0
  2  4  1  0  0  0
 21 23  1  0  0  0
  7 14  1  0  0  0
 18 20  1  0  0  0
M  CHG 1  12   1
M  CHG 1  32  -1
M  END
> <minimizedAffinity>
-6.04268

$$$$
3L4V_KTL_A_1001


 34 34  0  0  0  0  0  0  0  0999 V2000
   43.5837   90.3901   33.9966 C   0  0  0  0  0  0  0  0  0  0  0  0
   45.1611   88.5754   34.1654 O   0  0  0  0  0  0  0  0  0  0  0  0
   44.6314   89.6913   34.8855 C   0  0  0  0  0  0  0  0  0  0  0  0
   45.8233   88.1233   34.7112 H   0  0  0  0  0  0  0  0  0  0  0  0
   44.1182   89.2956   36.2842 C   0  0  0  0  0  0  0  0  0  0  0  0
   43.8780   87.1211   40.6270 O   0  0  0  0  0  0  0  0  0  0  0  0
   46.6591   87.4205   39.7966 O   0  0  0  0  0  0  0  0  0  0  0  0
   43.2986   87.5763   38.1667 C   0  0  0  0  0  0  0  0  0  0  0  0
   44.2722   87.6989   39.3559 C   0  0  0  0  0  0  0  0  0  0  0  0
   45.5925   87.0882   38.9068 C   0  0  0  0  0  0  0  0  0  0  0  0
   45.7897   87.6499   37.4949 C   0  0  0  0  0  0  0  0  0  0  0  0
   44.2558   87.6867   36.7874 S   0  0  0  0  0  0  0  0  0  0  0  0
   43.0368   87.5108   40.9123 H   0  0  0  0  0  0  0  0  0  0  0  0
   46.4810   87.0404   40.6710 H   0  0  0  0  0  0  0  0  0  0  0  0
   47.7587   86.1206   37.5667 O   0  0  0  0  0  0  0  0  0  0  0  0
   46.8867   86.9094   36.7392 C   0  0  0  0  0  0  0  0  0  0  0  0
   48.4243   85.6849   37.0117 H   0  0  0  0  0  0  0  0  0  0  0  0
   43.1873   90.2859   31.6205 O   0  0  0  0  0  0  0  0  0  0  0  0
   43.1821   89.4875   32.8156 C   0  0  0  0  0  0  0  0  0  0  0  0
   42.9364   89.7350   30.8625 H   0  0  0  0  0  0  0  0  0  0  0  0
   41.4543   88.5676   34.2880 O   0  0  0  0  0  0  0  0  0  0  0  0
   41.8183   88.7820   32.9312 C   0  0  0  0  0  0  0  0  0  0  0  0
   40.5931   88.1228   34.3253 H   0  0  0  0  0  0  0  0  0  0  0  0
   42.8843   87.3063   31.3079 O   0  0  0  0  0  0  0  0  0  0  0  0
   41.8103   87.4121   32.2502 C   0  0  0  0  0  0  0  0  0  0  0  0
   42.8613   86.4321   30.8882 H   0  0  0  0  0  0  0  0  0  0  0  0
   43.2501   86.1852   33.7285 O   0  0  0  0  0  0  0  0  0  0  0  0
   41.8760   86.2719   33.2857 C   0  0  0  0  0  0  0  0  0  0  0  0
   43.3343   85.4756   34.3845 H   0  0  0  0  0  0  0  0  0  0  0  0
   44.1831   91.5403   33.4229 O   0  0  0  0  0  0  0  0  0  0  0  0
   42.8249   93.6190   34.0990 O   0  0  0  0  0  0  0  0  0  0  0  0
   44.4446   92.8456   35.6328 O   0  0  0  0  0  0  0  0  0  0  0  0
   45.1810   93.7725   33.4764 O   0  0  0  0  0  0  0  0  0  0  0  0
   44.1576   92.9790   34.1822 S   0  0  0  0  0  0  0  0  0  0  0  0
 27 28  1  0  0  0
 15 16  1  0  0  0
 24 25  1  0  0  0
  6  9  1  0  0  0
  2  3  1  0  0  0
 21 22  1  0  0  0
  7 10  1  0  0  0
 18 19  1  0  0  0
 31 34  2  0  0  0
 32 34  1  0  0  0
 33 34  2  0  0  0
 28 25  1  0  0  0
 16 11  1  0  0  0
  8  9  1  0  0  0
  8 12  1  0  0  0
  5  3  1  0  0  0
  5 12  1  0  0  0
 30  1  1  0  0  0
 30 34  1  0  0  0
 25 22  1  0  0  0
  9 10  1  0  0  0
  3  1  1  0  0  0
 22 19  1  0  0  0
 10 11  1  0  0  0
 19  1  1  0  0  0
 11 12  1  0  0  0
 27 29  1  0  0  0
 15 17  1  0  0  0
 24 26  1  0  0  0
  6 13  1  0  0  0
  2  4  1  0  0  0
 21 23  1  0  0  0
  7 14  1  0  0  0
 18 20  1  0  0  0
M  CHG 1  12   1
M  CHG 1  32  -1
M  END
> <minimizedAffinity>
-5.98057

$$$$
