6HQY_GKW_A_504
  RCSB PDB11101803503D
Coordinates from PDB:6HQY:A:504 Model:1 without hydrogens
 22 24  0  0  0  0            999 V2000
   41.8470   37.5780   91.9670   C 0  0  0  0  0  0  0  0  0  0  0  0
   42.9870   38.2650   91.6030   O 0  0  0  0  0  0  0  0  0  0  0  0
   43.5150   38.1290   90.3300   C 0  0  0  0  0  0  0  0  0  0  0  0
   44.8460   38.4850   90.0760   C 0  0  0  0  0  0  0  0  0  0  0  0
   45.3690   38.3420   88.7730   C 0  0  0  0  0  0  0  0  0  0  0  0
   44.5570   37.8450   87.7150   C 0  0  0  0  0  0  0  0  0  0  0  0
   45.1750   37.7130   86.3420   C 0  0  0  0  0  0  0  0  0  0  0  0
   44.4180   36.9430   85.3410   N 0  0  0  0  0  0  0  0  0  0  0  0
   43.4050   37.4080   84.5730   C 0  0  0  0  0  0  0  0  0  0  0  0
   42.9670   36.3770   83.7290   C 0  0  0  0  0  0  0  0  0  0  0  0
   43.7910   35.2190   84.0180   C 0  0  0  0  0  0  0  0  0  0  0  0
   43.8370   33.8990   83.5070   C 0  0  0  0  0  0  0  0  0  0  0  0
   44.7600   32.9800   83.9890   C 0  0  0  0  0  0  0  0  0  0  0  0
   45.6720   33.3540   85.0000   C 0  0  0  0  0  0  0  0  0  0  0  0
   46.7180   32.3220   85.5540   C 0  0  0  0  0  0  0  0  0  0  0  0
   47.2940   32.5340   86.6360   O 0  0  0  0  0  0  0  0  0  0  0  0
   47.0200   31.1060   84.8280   N 0  0  0  0  0  0  0  0  0  0  0  0
   47.8770   30.2450   85.2730   O 0  0  0  0  0  0  0  0  0  0  0  0
   45.6190   34.6590   85.4980   C 0  0  0  0  0  0  0  0  0  0  0  0
   44.6700   35.5960   84.9980   C 0  0  0  0  0  0  0  0  0  0  0  0
   43.2330   37.4890   87.9650   C 0  0  0  0  0  0  0  0  0  0  0  0
   42.7050   37.6310   89.2760   C 0  0  0  0  0  0  0  0  0  0  0  0
 12 13  2  0  0  0  0
 12 11  1  0  0  0  0
 10 11  1  0  0  0  0
 10  9  2  0  0  0  0
 13 14  1  0  0  0  0
 11 20  2  0  0  0  0
  9  8  1  0  0  0  0
 17 18  1  0  0  0  0
 17 15  1  0  0  0  0
 20  8  1  0  0  0  0
 20 19  1  0  0  0  0
 14 19  2  0  0  0  0
 14 15  1  0  0  0  0
  8  7  1  0  0  0  0
 15 16  2  0  0  0  0
  7  6  1  0  0  0  0
  6 21  2  0  0  0  0
  6  5  1  0  0  0  0
 21 22  1  0  0  0  0
  5  4  2  0  0  0  0
 22  3  2  0  0  0  0
  4  3  1  0  0  0  0
  3  2  1  0  0  0  0
  2  1  1  0  0  0  0
A    1
C01
A    2
O02
A    3
C03
A    4
C04
A    5
C05
A    6
C06
A    7
C07
A    8
N08
A    9
C09
A   10
C10
A   11
C11
A   12
C12
A   13
C13
A   14
C14
A   15
C15
A   16
O16
A   17
N17
A   18
O18
A   19
C19
A   20
C20
A   21
C21
A   22
C22
M  END
>  <InstanceId>
6HQY_GKW_A_504

>  <ChemCompId>
GKW

>  <PdbId>
6HQY

>  <ChainId>
A

>  <ResidueNumber>
504

>  <InsertionCode>


>  <Model>
1

>  <AltIds>


>  <MissingHeavyAtoms>
0

>  <ObservedFormula>
C17 N2 O3

>  <Name>
1-[(4-methoxyphenyl)methyl]-~{N}-oxidanyl-indole-6-carboxamide

>  <SystematicName>
1-[(4-methoxyphenyl)methyl]-~{N}-oxidanyl-indole-6-carboxamide

>  <Synonyms>


>  <Type>
NON-POLYMER

>  <Formula>
C17 H16 N2 O3

>  <MolecularWeight>
296.321

>  <ModifiedDate>
2018-10-26

>  <Parent>


>  <OneLetterCode>


>  <SubcomponentList>


>  <AmbiguousFlag>
N

>  <InChI>
InChI=1S/C17H16N2O3/c1-22-15-6-2-12(3-7-15)11-19-9-8-13-4-5-14(10-16(13)19)17(20)18-21/h2-10,21H,11H2,1H3,(H,18,20)

>  <InChIKey>
AJRGHIGYPXNABY-UHFFFAOYSA-N

>  <SMILES>
COc1ccc(cc1)Cn2ccc3c2cc(cc3)C(=O)NO

$$$$
