5T19_73U_A_402


 25 27  0  0  0  0  0  0  0  0999 V2000
   -1.3456   61.4730    2.5358 C   0  0  0  0  0  0  0  0  0  0  0  0
   -0.2031   59.3758    1.6734 C   0  0  0  0  0  0  0  0  0  0  0  0
   -0.3439   62.9156    0.3366 C   0  0  0  0  0  0  0  0  0  0  0  0
   -1.1269   63.5428    1.2923 C   0  0  0  0  0  0  0  0  0  0  0  0
   -1.6323   62.8229    2.3722 C   0  0  0  0  0  0  0  0  0  0  0  0
   -0.5533   60.8442    1.5705 C   0  0  0  0  0  0  0  0  0  0  0  0
   -0.0551   61.5646    0.4861 C   0  0  0  0  0  0  0  0  0  0  0  0
   -3.6019   59.3548    4.7295 C   0  0  0  0  0  0  0  0  0  0  0  0
   -1.9085   60.7929    3.6685 N   0  0  0  0  0  0  0  0  0  0  0  0
   -3.4052   60.0854    3.6078 C   0  0  0  0  0  0  0  0  0  0  0  0
   -4.5510   58.6528    4.9571 O   0  0  0  0  0  0  0  0  0  0  0  0
   -2.4309   59.5709    5.6779 N   0  0  0  0  0  0  0  0  0  0  0  0
   -1.3739   60.6387    4.9374 S   0  0  0  0  0  0  0  0  0  0  0  0
   -0.0177   60.1254    4.9175 O   0  0  0  0  0  0  0  0  0  0  0  0
   -1.4329   61.8565    5.6968 O   0  0  0  0  0  0  0  0  0  0  0  0
   -2.3159   59.1585    6.5644 H   0  0  0  0  0  0  0  0  0  0  0  0
   -1.2331   67.2040    0.2574 C   0  0  0  0  0  0  0  0  0  0  0  0
   -2.3249   67.6508    1.0006 C   0  0  0  0  0  0  0  0  0  0  0  0
   -3.0105   66.7542    1.8048 C   0  0  0  0  0  0  0  0  0  0  0  0
   -2.5922   65.4377    1.8818 C   0  0  0  0  0  0  0  0  0  0  0  0
   -1.4926   64.9983    1.1622 C   0  0  0  0  0  0  0  0  0  0  0  0
   -0.8108   65.8770    0.3338 C   0  0  0  0  0  0  0  0  0  0  0  0
   -3.5253   69.6313    1.9544 C   0  0  0  0  0  0  0  0  0  0  0  0
   -2.7668   69.0043    0.9225 N   0  0  0  0  0  0  0  0  0  0  0  0
   -2.5382   69.5287    0.1213 H   0  0  0  0  0  0  0  0  0  0  0  0
 17 22  2  0  0  0
 17 18  1  0  0  0
  3  7  2  0  0  0
  3  4  1  0  0  0
 22 21  1  0  0  0
  7  6  1  0  0  0
 24 18  1  0  0  0
 24 23  1  0  0  0
 18 19  2  0  0  0
 21  4  1  0  0  0
 21 20  2  0  0  0
  4  5  2  0  0  0
 19 20  1  0  0  0
  6  2  1  0  0  0
  6  1  2  0  0  0
  5  1  1  0  0  0
  1  9  1  0  0  0
 10  9  1  0  0  0
 10  8  1  0  0  0
  9 13  1  0  0  0
  8 11  2  0  0  0
  8 12  1  0  0  0
 14 13  2  0  0  0
 13 12  1  0  0  0
 13 15  2  0  0  0
 24 25  1  0  0  0
 12 16  1  0  0  0
M  END
> <minimizedAffinity>
-10.03297

$$$$
5T19_73U_A_402


 25 27  0  0  0  0  0  0  0  0999 V2000
   -2.6043   66.4696    0.7115 C   0  0  0  0  0  0  0  0  0  0  0  0
   -1.2757   68.2085   -0.5763 C   0  0  0  0  0  0  0  0  0  0  0  0
   -0.3158   64.8376    0.8563 C   0  0  0  0  0  0  0  0  0  0  0  0
   -1.5116   64.4250    1.4216 C   0  0  0  0  0  0  0  0  0  0  0  0
   -2.6387   65.2410    1.3601 C   0  0  0  0  0  0  0  0  0  0  0  0
   -1.3963   66.8814    0.1402 C   0  0  0  0  0  0  0  0  0  0  0  0
   -0.2673   66.0668    0.2100 C   0  0  0  0  0  0  0  0  0  0  0  0
   -5.9978   67.8776   -0.2326 C   0  0  0  0  0  0  0  0  0  0  0  0
   -3.8021   67.2614    0.6954 N   0  0  0  0  0  0  0  0  0  0  0  0
   -4.8787   67.1921   -0.5618 C   0  0  0  0  0  0  0  0  0  0  0  0
   -7.0002   67.9508   -0.8922 O   0  0  0  0  0  0  0  0  0  0  0  0
   -5.7865   68.5631    1.1101 N   0  0  0  0  0  0  0  0  0  0  0  0
   -4.2389   68.1871    1.6292 S   0  0  0  0  0  0  0  0  0  0  0  0
   -4.2380   67.6644    2.9819 O   0  0  0  0  0  0  0  0  0  0  0  0
   -3.4852   69.4083    1.5682 O   0  0  0  0  0  0  0  0  0  0  0  0
   -6.4400   69.1247    1.5863 H   0  0  0  0  0  0  0  0  0  0  0  0
   -0.8837   60.8922    2.6911 C   0  0  0  0  0  0  0  0  0  0  0  0
   -1.9022   60.7725    3.6358 C   0  0  0  0  0  0  0  0  0  0  0  0
   -2.7562   61.8424    3.8516 C   0  0  0  0  0  0  0  0  0  0  0  0
   -2.6070   63.0034    3.1140 C   0  0  0  0  0  0  0  0  0  0  0  0
   -1.6103   63.1146    2.1579 C   0  0  0  0  0  0  0  0  0  0  0  0
   -0.7320   62.0622    1.9473 C   0  0  0  0  0  0  0  0  0  0  0  0
   -3.3234   59.1370    4.8920 C   0  0  0  0  0  0  0  0  0  0  0  0
   -2.0594   59.5821    4.4049 N   0  0  0  0  0  0  0  0  0  0  0  0
   -1.2604   59.0440    4.6083 H   0  0  0  0  0  0  0  0  0  0  0  0
 17 22  2  0  0  0
 17 18  1  0  0  0
  3  7  2  0  0  0
  3  4  1  0  0  0
 22 21  1  0  0  0
  7  6  1  0  0  0
 24 18  1  0  0  0
 24 23  1  0  0  0
 18 19  2  0  0  0
 21  4  1  0  0  0
 21 20  2  0  0  0
  4  5  2  0  0  0
 19 20  1  0  0  0
  6  2  1  0  0  0
  6  1  2  0  0  0
  5  1  1  0  0  0
  1  9  1  0  0  0
 10  9  1  0  0  0
 10  8  1  0  0  0
  9 13  1  0  0  0
  8 11  2  0  0  0
  8 12  1  0  0  0
 14 13  2  0  0  0
 13 12  1  0  0  0
 13 15  2  0  0  0
 24 25  1  0  0  0
 12 16  1  0  0  0
M  END
> <minimizedAffinity>
-8.08572

$$$$
5T19_73U_A_402


 25 27  0  0  0  0  0  0  0  0999 V2000
   -2.3884   66.5647    1.0570 C   0  0  0  0  0  0  0  0  0  0  0  0
   -1.0202   68.2350   -0.2792 C   0  0  0  0  0  0  0  0  0  0  0  0
   -0.3030   64.6878    0.8344 C   0  0  0  0  0  0  0  0  0  0  0  0
   -1.4675   64.3689    1.5141 C   0  0  0  0  0  0  0  0  0  0  0  0
   -2.4920   65.3047    1.6341 C   0  0  0  0  0  0  0  0  0  0  0  0
   -1.2127   66.8819    0.3699 C   0  0  0  0  0  0  0  0  0  0  0  0
   -0.1851   65.9467    0.2579 C   0  0  0  0  0  0  0  0  0  0  0  0
   -4.6127   69.3321    2.3927 C   0  0  0  0  0  0  0  0  0  0  0  0
   -3.4806   67.4810    1.2292 N   0  0  0  0  0  0  0  0  0  0  0  0
   -3.6171   68.4345    2.5770 C   0  0  0  0  0  0  0  0  0  0  0  0
   -4.9118   70.2190    3.1471 O   0  0  0  0  0  0  0  0  0  0  0  0
   -5.3149   69.0353    1.0751 N   0  0  0  0  0  0  0  0  0  0  0  0
   -4.5621   67.7037    0.3923 S   0  0  0  0  0  0  0  0  0  0  0  0
   -4.1684   67.9543   -0.9807 O   0  0  0  0  0  0  0  0  0  0  0  0
   -5.5143   66.6296    0.4478 O   0  0  0  0  0  0  0  0  0  0  0  0
   -6.0729   69.5346    0.6939 H   0  0  0  0  0  0  0  0  0  0  0  0
   -1.0278   60.7449    2.5910 C   0  0  0  0  0  0  0  0  0  0  0  0
   -2.0466   60.6310    3.5360 C   0  0  0  0  0  0  0  0  0  0  0  0
   -2.8397   61.7328    3.8144 C   0  0  0  0  0  0  0  0  0  0  0  0
   -2.6308   62.9214    3.1378 C   0  0  0  0  0  0  0  0  0  0  0  0
   -1.6342   63.0286    2.1812 C   0  0  0  0  0  0  0  0  0  0  0  0
   -0.8159   61.9426    1.9087 C   0  0  0  0  0  0  0  0  0  0  0  0
   -3.5018   59.0969    4.8784 C   0  0  0  0  0  0  0  0  0  0  0  0
   -2.2650   59.4118    4.2426 N   0  0  0  0  0  0  0  0  0  0  0  0
   -1.5299   58.7590    4.2936 H   0  0  0  0  0  0  0  0  0  0  0  0
 17 22  2  0  0  0
 17 18  1  0  0  0
  3  7  2  0  0  0
  3  4  1  0  0  0
 22 21  1  0  0  0
  7  6  1  0  0  0
 24 18  1  0  0  0
 24 23  1  0  0  0
 18 19  2  0  0  0
 21  4  1  0  0  0
 21 20  2  0  0  0
  4  5  2  0  0  0
 19 20  1  0  0  0
  6  2  1  0  0  0
  6  1  2  0  0  0
  5  1  1  0  0  0
  1  9  1  0  0  0
 10  9  1  0  0  0
 10  8  1  0  0  0
  9 13  1  0  0  0
  8 11  2  0  0  0
  8 12  1  0  0  0
 14 13  2  0  0  0
 13 12  1  0  0  0
 13 15  2  0  0  0
 24 25  1  0  0  0
 12 16  1  0  0  0
M  END
> <minimizedAffinity>
-7.89484

$$$$
5T19_73U_A_402


 25 27  0  0  0  0  0  0  0  0999 V2000
   -3.1908   67.0757    0.7303 C   0  0  0  0  0  0  0  0  0  0  0  0
   -2.2422   68.8699   -0.7956 C   0  0  0  0  0  0  0  0  0  0  0  0
   -0.8444   65.5582    0.3943 C   0  0  0  0  0  0  0  0  0  0  0  0
   -1.8768   65.0911    1.1917 C   0  0  0  0  0  0  0  0  0  0  0  0
   -3.0310   65.8507    1.3667 C   0  0  0  0  0  0  0  0  0  0  0  0
   -2.1478   67.5426   -0.0754 C   0  0  0  0  0  0  0  0  0  0  0  0
   -0.9900   66.7846   -0.2428 C   0  0  0  0  0  0  0  0  0  0  0  0
   -6.7375   68.3892    0.4375 C   0  0  0  0  0  0  0  0  0  0  0  0
   -4.4037   67.8080    0.9643 N   0  0  0  0  0  0  0  0  0  0  0  0
   -5.6599   67.7861   -0.1155 C   0  0  0  0  0  0  0  0  0  0  0  0
   -7.8324   68.4658   -0.0530 O   0  0  0  0  0  0  0  0  0  0  0  0
   -6.3439   68.9764    1.7857 N   0  0  0  0  0  0  0  0  0  0  0  0
   -4.7220   68.6354    2.0290 S   0  0  0  0  0  0  0  0  0  0  0  0
   -4.4919   68.0088    3.3164 O   0  0  0  0  0  0  0  0  0  0  0  0
   -4.0306   69.8924    1.9579 O   0  0  0  0  0  0  0  0  0  0  0  0
   -6.9346   69.4669    2.4019 H   0  0  0  0  0  0  0  0  0  0  0  0
   -2.3935   62.2035    3.6169 C   0  0  0  0  0  0  0  0  0  0  0  0
   -1.4417   61.2989    3.1478 C   0  0  0  0  0  0  0  0  0  0  0  0
   -0.6682   61.6373    2.0489 C   0  0  0  0  0  0  0  0  0  0  0  0
   -0.8290   62.8724    1.4465 C   0  0  0  0  0  0  0  0  0  0  0  0
   -1.7577   63.7816    1.9268 C   0  0  0  0  0  0  0  0  0  0  0  0
   -2.5568   63.4486    3.0103 C   0  0  0  0  0  0  0  0  0  0  0  0
   -2.3712   59.1851    4.1177 C   0  0  0  0  0  0  0  0  0  0  0  0
   -1.2736   60.0214    3.7586 N   0  0  0  0  0  0  0  0  0  0  0  0
   -0.3599   59.7029    3.9402 H   0  0  0  0  0  0  0  0  0  0  0  0
 17 22  2  0  0  0
 17 18  1  0  0  0
  3  7  2  0  0  0
  3  4  1  0  0  0
 22 21  1  0  0  0
  7  6  1  0  0  0
 24 18  1  0  0  0
 24 23  1  0  0  0
 18 19  2  0  0  0
 21  4  1  0  0  0
 21 20  2  0  0  0
  4  5  2  0  0  0
 19 20  1  0  0  0
  6  2  1  0  0  0
  6  1  2  0  0  0
  5  1  1  0  0  0
  1  9  1  0  0  0
 10  9  1  0  0  0
 10  8  1  0  0  0
  9 13  1  0  0  0
  8 11  2  0  0  0
  8 12  1  0  0  0
 14 13  2  0  0  0
 13 12  1  0  0  0
 13 15  2  0  0  0
 24 25  1  0  0  0
 12 16  1  0  0  0
M  END
> <minimizedAffinity>
-7.63925

$$$$
5T19_73U_A_402


 25 27  0  0  0  0  0  0  0  0999 V2000
   -3.4436   68.0347    1.5724 C   0  0  0  0  0  0  0  0  0  0  0  0
   -3.1105   70.0049    0.0056 C   0  0  0  0  0  0  0  0  0  0  0  0
   -1.5187   66.5717    0.1317 C   0  0  0  0  0  0  0  0  0  0  0  0
   -2.1581   66.0087    1.2244 C   0  0  0  0  0  0  0  0  0  0  0  0
   -3.1003   66.7402    1.9434 C   0  0  0  0  0  0  0  0  0  0  0  0
   -2.7979   68.5985    0.4678 C   0  0  0  0  0  0  0  0  0  0  0  0
   -1.8492   67.8676   -0.2457 C   0  0  0  0  0  0  0  0  0  0  0  0
   -5.0607   70.2043    4.2309 C   0  0  0  0  0  0  0  0  0  0  0  0
   -4.4166   68.7318    2.3657 N   0  0  0  0  0  0  0  0  0  0  0  0
   -4.0155   69.4625    3.7974 C   0  0  0  0  0  0  0  0  0  0  0  0
   -5.0646   70.9228    5.1948 O   0  0  0  0  0  0  0  0  0  0  0  0
   -6.2508   69.9766    3.3094 N   0  0  0  0  0  0  0  0  0  0  0  0
   -5.7731   68.8869    2.1303 S   0  0  0  0  0  0  0  0  0  0  0  0
   -6.0597   69.3785    0.7964 O   0  0  0  0  0  0  0  0  0  0  0  0
   -6.5037   67.6757    2.3807 O   0  0  0  0  0  0  0  0  0  0  0  0
   -7.1388   70.3936    3.3914 H   0  0  0  0  0  0  0  0  0  0  0  0
   -2.1533   62.6630    3.0390 C   0  0  0  0  0  0  0  0  0  0  0  0
   -1.0826   62.0294    2.4094 C   0  0  0  0  0  0  0  0  0  0  0  0
   -0.3994   62.6922    1.4023 C   0  0  0  0  0  0  0  0  0  0  0  0
   -0.7677   63.9785    1.0503 C   0  0  0  0  0  0  0  0  0  0  0  0
   -1.8160   64.6181    1.6919 C   0  0  0  0  0  0  0  0  0  0  0  0
   -2.5257   63.9594    2.6848 C   0  0  0  0  0  0  0  0  0  0  0  0
   -1.0182   60.1129    4.0206 C   0  0  0  0  0  0  0  0  0  0  0  0
   -0.7002   60.7015    2.7614 N   0  0  0  0  0  0  0  0  0  0  0  0
   -0.1946   60.1679    2.1065 H   0  0  0  0  0  0  0  0  0  0  0  0
 17 22  2  0  0  0
 17 18  1  0  0  0
  3  7  2  0  0  0
  3  4  1  0  0  0
 22 21  1  0  0  0
  7  6  1  0  0  0
 24 18  1  0  0  0
 24 23  1  0  0  0
 18 19  2  0  0  0
 21  4  1  0  0  0
 21 20  2  0  0  0
  4  5  2  0  0  0
 19 20  1  0  0  0
  6  2  1  0  0  0
  6  1  2  0  0  0
  5  1  1  0  0  0
  1  9  1  0  0  0
 10  9  1  0  0  0
 10  8  1  0  0  0
  9 13  1  0  0  0
  8 11  2  0  0  0
  8 12  1  0  0  0
 14 13  2  0  0  0
 13 12  1  0  0  0
 13 15  2  0  0  0
 24 25  1  0  0  0
 12 16  1  0  0  0
M  END
> <minimizedAffinity>
-7.27848

$$$$
5T19_73U_A_402


 25 27  0  0  0  0  0  0  0  0999 V2000
   -3.6209   68.1498    1.5252 C   0  0  0  0  0  0  0  0  0  0  0  0
   -3.4959   70.1071   -0.0874 C   0  0  0  0  0  0  0  0  0  0  0  0
   -1.8156   66.7140   -0.0874 C   0  0  0  0  0  0  0  0  0  0  0  0
   -2.3276   66.1502    1.0701 C   0  0  0  0  0  0  0  0  0  0  0  0
   -3.2102   66.8685    1.8730 C   0  0  0  0  0  0  0  0  0  0  0  0
   -3.1038   68.7145    0.3553 C   0  0  0  0  0  0  0  0  0  0  0  0
   -2.2142   67.9969   -0.4428 C   0  0  0  0  0  0  0  0  0  0  0  0
   -6.7665   69.2505    3.3374 C   0  0  0  0  0  0  0  0  0  0  0  0
   -4.5259   68.8340    2.4056 N   0  0  0  0  0  0  0  0  0  0  0  0
   -6.1685   68.6632    2.2752 C   0  0  0  0  0  0  0  0  0  0  0  0
   -7.9429   69.2317    3.5845 O   0  0  0  0  0  0  0  0  0  0  0  0
   -5.7117   69.9600    4.1748 N   0  0  0  0  0  0  0  0  0  0  0  0
   -4.2319   69.7237    3.4262 S   0  0  0  0  0  0  0  0  0  0  0  0
   -3.2381   69.2115    4.3497 O   0  0  0  0  0  0  0  0  0  0  0  0
   -3.8263   71.0057    2.9209 O   0  0  0  0  0  0  0  0  0  0  0  0
   -5.8702   70.4653    5.0047 H   0  0  0  0  0  0  0  0  0  0  0  0
   -2.0247   62.8489    2.9399 C   0  0  0  0  0  0  0  0  0  0  0  0
   -1.0475   62.2094    2.1781 C   0  0  0  0  0  0  0  0  0  0  0  0
   -0.5228   62.8537    1.0691 C   0  0  0  0  0  0  0  0  0  0  0  0
   -0.9526   64.1282    0.7446 C   0  0  0  0  0  0  0  0  0  0  0  0
   -1.9060   64.7741    1.5150 C   0  0  0  0  0  0  0  0  0  0  0  0
   -2.4590   64.1333    2.6136 C   0  0  0  0  0  0  0  0  0  0  0  0
    0.2286   60.1234    1.6367 C   0  0  0  0  0  0  0  0  0  0  0  0
   -0.6033   60.8936    2.5015 N   0  0  0  0  0  0  0  0  0  0  0  0
   -0.8831   60.4997    3.3593 H   0  0  0  0  0  0  0  0  0  0  0  0
 17 22  2  0  0  0
 17 18  1  0  0  0
  3  7  2  0  0  0
  3  4  1  0  0  0
 22 21  1  0  0  0
  7  6  1  0  0  0
 24 18  1  0  0  0
 24 23  1  0  0  0
 18 19  2  0  0  0
 21  4  1  0  0  0
 21 20  2  0  0  0
  4  5  2  0  0  0
 19 20  1  0  0  0
  6  2  1  0  0  0
  6  1  2  0  0  0
  5  1  1  0  0  0
  1  9  1  0  0  0
 10  9  1  0  0  0
 10  8  1  0  0  0
  9 13  1  0  0  0
  8 11  2  0  0  0
  8 12  1  0  0  0
 14 13  2  0  0  0
 13 12  1  0  0  0
 13 15  2  0  0  0
 24 25  1  0  0  0
 12 16  1  0  0  0
M  END
> <minimizedAffinity>
-7.25053

$$$$
