2X96_RX3_A_1615
  RCSB PDB12061707233D
Coordinates from PDB:2X96:A:1615 Model:1 without hydrogens
 44 48  0  0  0  0            999 V2000
   25.0930   -1.8240   21.9450   C 0  0  0  0  0  0  0  0  0  0  0  0
   24.0670   -1.8910   22.5870   O 0  0  0  0  0  0  0  0  0  0  0  0
   25.1250   -2.5030   20.6670   O 0  0  0  0  0  0  0  0  0  0  0  0
   23.9810   -2.6860   19.8400   C 0  0  0  0  0  0  0  0  0  0  0  0
   24.4070   -3.3810   18.5600   C 0  0  0  0  0  0  0  0  0  0  0  0
   25.2980   -2.7560   17.6750   C 0  0  0  0  0  0  0  0  0  0  0  0
   25.6810   -3.4130   16.4980   C 0  0  0  0  0  0  0  0  0  0  0  0
   25.1680   -4.6860   16.1920   C 0  0  0  0  0  0  0  0  0  0  0  0
   24.2790   -5.3100   17.0720   C 0  0  0  0  0  0  0  0  0  0  0  0
   23.8970   -4.6560   18.2540   C 0  0  0  0  0  0  0  0  0  0  0  0
   27.5900    1.6350   21.6000   O 0  0  0  0  0  0  0  0  0  0  0  0
   26.5990    1.4260   22.7290   P 0  0  0  0  0  0  0  0  0  0  0  0
   25.1950    1.7250   22.3080   O 0  0  0  0  0  0  0  0  0  0  0  0
   26.8470   -0.2640   23.0800   C 0  0  0  0  0  0  0  0  0  0  0  0
   26.1920   -1.1710   22.3110   N 0  0  0  0  0  0  0  0  0  0  0  0
   27.7150   -0.8050   24.2080   C 0  0  0  0  0  0  0  0  0  0  0  0
   27.6380   -2.3260   24.3210   C 0  0  0  0  0  0  0  0  0  0  0  0
   28.2430   -3.1780   23.3700   C 0  0  0  0  0  0  0  0  0  0  0  0
   28.1430   -4.5740   23.4790   C 0  0  0  0  0  0  0  0  0  0  0  0
   27.4310   -5.1370   24.5500   C 0  0  0  0  0  0  0  0  0  0  0  0
   26.8170   -4.3000   25.4980   C 0  0  0  0  0  0  0  0  0  0  0  0
   26.9190   -2.9030   25.3790   C 0  0  0  0  0  0  0  0  0  0  0  0
   29.2330    3.5810   23.9640   C 0  0  0  0  0  0  0  0  0  0  0  0
   29.6300    2.5640   24.5470   O 0  0  0  0  0  0  0  0  0  0  0  0
   27.7760    3.8220   23.6840   C 0  0  0  0  0  0  0  0  0  0  0  0
   27.2270    4.8920   24.6270   C 0  0  0  0  0  0  0  0  0  0  0  0
   26.0070    4.3030   25.3310   C 0  0  0  0  0  0  0  0  0  0  0  0
   26.0850    2.7860   25.1760   C 0  0  0  0  0  0  0  0  0  0  0  0
   26.8720    2.6410   23.9110   C 0  0  0  0  0  0  0  0  0  0  0  0
   30.0120    4.5700   23.5210   N 0  0  0  0  0  0  0  0  0  0  0  0
   31.4650    4.5930   23.6750   C 0  0  0  0  0  0  0  0  0  0  0  0
   31.8930    4.7100   25.1250   C 0  0  0  0  0  0  0  0  0  0  0  0
   31.0410    4.9460   26.0180   O 0  0  0  0  0  0  0  0  0  0  0  0
   31.9830    5.7620   22.8240   C 0  0  0  0  0  0  0  0  0  0  0  0
   31.4150    7.1170   23.1830   C 0  0  0  0  0  0  0  0  0  0  0  0
   31.7430    7.8820   24.2990   C 0  0  0  0  0  0  0  0  0  0  0  0
   30.4650    7.8450   22.4780   C 0  0  0  0  0  0  0  0  0  0  0  0
   31.0240    9.0340   24.2800   N 0  0  0  0  0  0  0  0  0  0  0  0
   30.2310    9.0380   23.1770   C 0  0  0  0  0  0  0  0  0  0  0  0
   29.7860    7.5530   21.2820   C 0  0  0  0  0  0  0  0  0  0  0  0
   29.2960    9.9670   22.6680   C 0  0  0  0  0  0  0  0  0  0  0  0
   28.8620    8.4810   20.7860   C 0  0  0  0  0  0  0  0  0  0  0  0
   28.6190    9.6810   21.4700   C 0  0  0  0  0  0  0  0  0  0  0  0
   33.1000    4.5660   25.4020   O 0  0  0  0  0  0  0  0  0  0  0  0
 44 32  1  0  0  0  0
 32 33  2  0  0  0  0
 32 31  1  0  0  0  0
 31 34  1  0  0  0  0
 31 30  1  0  0  0  0
 34 35  1  0  0  0  0
 35 36  2  0  0  0  0
 35 37  1  0  0  0  0
 37 39  1  0  0  0  0
 37 40  2  0  0  0  0
 40 42  1  0  0  0  0
 42 43  2  0  0  0  0
 43 41  1  0  0  0  0
 41 39  2  0  0  0  0
 39 38  1  0  0  0  0
 38 36  1  0  0  0  0
 30 23  1  0  0  0  0
 23 24  2  0  0  0  0
 23 25  1  0  0  0  0
 25 26  1  0  0  0  0
 25 29  1  0  0  0  0
 26 27  1  0  0  0  0
 27 28  1  0  0  0  0
 28 29  1  0  0  0  0
 29 12  1  0  0  0  0
 12 11  2  0  0  0  0
 12 13  1  0  0  0  0
 12 14  1  0  0  0  0
 14 16  1  0  0  0  0
 14 15  1  0  0  0  0
 16 17  1  0  0  0  0
 17 18  2  0  0  0  0
 17 22  1  0  0  0  0
 22 21  2  0  0  0  0
 21 20  1  0  0  0  0
 20 19  2  0  0  0  0
 19 18  1  0  0  0  0
 15  1  1  0  0  0  0
  1  2  2  0  0  0  0
  1  3  1  0  0  0  0
  3  4  1  0  0  0  0
  4  5  1  0  0  0  0
  5  6  1  0  0  0  0
  5 10  2  0  0  0  0
  6  7  2  0  0  0  0
 10  9  1  0  0  0  0
  9  8  2  0  0  0  0
  8  7  1  0  0  0  0
A    1
C1
A    2
O2
A    3
O1
A    4
C2
A    5
C3
A    6
C4
A    7
C6
A    8
C8
A    9
C7
A   10
C5
A   11
O3
A   12
P1
A   13
O4
A   14
C9
A   15
N1
A   16
C10
A   17
C11
A   18
C12
A   19
C14
A   20
C16
A   21
C15
A   22
C13
A   23
C19
A   24
O5
A   25
C18
A   26
C20
A   27
C21
A   28
C22
A   29
C17
A   30
N2
A   31
C23
A   32
C24
A   33
O6
A   34
C25
A   35
C26
A   36
C27
A   37
C28
A   38
N3
A   39
C29
A   40
C30
A   41
C31
A   42
C32
A   43
C33
A   44
OXT
M  END
>  <InstanceId>
2X96_RX3_A_1615

>  <ChemCompId>
RX3

>  <PdbId>
2X96

>  <ChainId>
A

>  <ResidueNumber>
1615

>  <InsertionCode>


>  <Model>
1

>  <AltIds>


>  <MissingHeavyAtoms>
0

>  <ObservedFormula>
C33 N3 O7 P

>  <Name>
N-({(1S,2R)-2-[(S)-[(1R)-1-{[(BENZYLOXY)CARBONYL]AMINO}-2-PHENYLETHYL](HYDROXY)PHOSPHORYL]CYCLOPENTYL}CARBONYL)-L-TRYPTOPHAN

>  <SystematicName>
(2S)-2-[[(1S)-2-[hydroxy-(2-phenyl-1-phenylmethoxycarbonylamino-ethyl)phosphoryl]cyclopentyl]carbonylamino]-3-(1H-indol-3-yl)propanoic acid

>  <Synonyms>
RXPA380

>  <Type>
NON-POLYMER

>  <Formula>
C33 H36 N3 O7 P

>  <MolecularWeight>
617.629

>  <ModifiedDate>
2012-04-02

>  <Parent>


>  <OneLetterCode>


>  <SubcomponentList>
PHQ PPH IQ0 TRP

>  <AmbiguousFlag>


>  <InChI>
InChI=1S/C33H36N3O7P/c37-31(35-28(32(38)39)19-24-20-34-27-16-8-7-14-25(24)27)26-15-9-17-29(26)44(41,42)30(18-22-10-3-1-4-11-22)36-33(40)43-21-23-12-5-2-6-13-23/h1-8,10-14,16,20,26,28-30,34H,9,15,17-19,21H2,(H,35,37)(H,36,40)(H,38,39)(H,41,42)/t26-,28+,29-,30-/m1/s1

>  <InChIKey>
IMPJIKIXNAGRCR-RRFVUZEHSA-N

>  <SMILES>
c1ccc(cc1)CC(NC(=O)OCc2ccccc2)[P@](=O)(C3CCC[C@H]3C(=O)N[C@@H](Cc4c[nH]c5c4cccc5)C(=O)O)O

$$$$
