2X96_RX3_A_1615


 49 53  0  0  0  0  0  0  0  0999 V2000
   27.2903    6.6663   26.1249 C   0  0  0  0  0  0  0  0  0  0  0  0
   26.9190    7.2409   27.4914 C   0  0  0  0  0  0  0  0  0  0  0  0
   26.5735    6.0679   28.4055 C   0  0  0  0  0  0  0  0  0  0  0  0
   27.1592    4.8105   27.7673 C   0  0  0  0  0  0  0  0  0  0  0  0
   27.1823    5.1780   26.3164 C   0  0  0  0  0  0  0  0  0  0  0  0
   26.1502    4.8498   23.9300 O   0  0  0  0  0  0  0  0  0  0  0  0
   26.8609    4.0862   25.0309 P   0  0  0  0  0  0  0  0  0  0  0  0
   25.9627    3.0924   25.6968 O   0  0  0  0  0  0  0  0  0  0  0  0
   25.2659    3.5609   26.1823 H   0  0  0  0  0  0  0  0  0  0  0  0
   28.1480    3.3278   24.1314 C   0  0  0  0  0  0  0  0  0  0  0  0
   26.9382    1.5350   22.6752 C   0  0  0  0  0  0  0  0  0  0  0  0
   25.7462    1.5064   22.8935 O   0  0  0  0  0  0  0  0  0  0  0  0
   27.8237    2.2889   23.3199 N   0  0  0  0  0  0  0  0  0  0  0  0
   28.6920    1.8856   23.0904 H   0  0  0  0  0  0  0  0  0  0  0  0
   27.4426    0.6852   21.6175 O   0  0  0  0  0  0  0  0  0  0  0  0
   27.0704   -0.6790   21.4540 C   0  0  0  0  0  0  0  0  0  0  0  0
   27.3959   -1.4327   22.7303 C   0  0  0  0  0  0  0  0  0  0  0  0
   28.7132   -1.4820   23.2099 C   0  0  0  0  0  0  0  0  0  0  0  0
   28.9952   -2.1820   24.3906 C   0  0  0  0  0  0  0  0  0  0  0  0
   27.9709   -2.8460   25.0886 C   0  0  0  0  0  0  0  0  0  0  0  0
   26.6577   -2.7992   24.6116 C   0  0  0  0  0  0  0  0  0  0  0  0
   26.3716   -2.0949   23.4314 C   0  0  0  0  0  0  0  0  0  0  0  0
   29.6181    3.7162   24.2115 C   0  0  0  0  0  0  0  0  0  0  0  0
   29.9782    4.8301   23.2308 C   0  0  0  0  0  0  0  0  0  0  0  0
   29.0222    5.3953   22.3574 C   0  0  0  0  0  0  0  0  0  0  0  0
   29.3771    6.4037   21.4475 C   0  0  0  0  0  0  0  0  0  0  0  0
   30.7035    6.8615   21.4020 C   0  0  0  0  0  0  0  0  0  0  0  0
   31.6661    6.3011   22.2597 C   0  0  0  0  0  0  0  0  0  0  0  0
   31.3027    5.2890   23.1651 C   0  0  0  0  0  0  0  0  0  0  0  0
   28.6440    7.1647   25.7024 C   0  0  0  0  0  0  0  0  0  0  0  0
   29.6909    6.6338   26.0948 O   0  0  0  0  0  0  0  0  0  0  0  0
   28.5721    8.2153   24.8825 N   0  0  0  0  0  0  0  0  0  0  0  0
   27.6797    8.5477   24.6326 H   0  0  0  0  0  0  0  0  0  0  0  0
   29.7400    8.9012   24.3339 C   0  0  0  0  0  0  0  0  0  0  0  0
   30.9183    8.8944   25.2883 C   0  0  0  0  0  0  0  0  0  0  0  0
   32.0081    8.3728   24.9428 O   0  0  0  0  0  0  0  0  0  0  0  0
   30.7763    9.4160   26.4118 O   0  0  0  0  0  0  0  0  0  0  0  0
   29.9552    9.7996   26.6498 H   0  0  0  0  0  0  0  0  0  0  0  0
   29.2917   10.3270   23.9801 C   0  0  0  0  0  0  0  0  0  0  0  0
   28.4483   10.4420   22.7299 C   0  0  0  0  0  0  0  0  0  0  0  0
   27.8397    9.3947   22.0436 C   0  0  0  0  0  0  0  0  0  0  0  0
   28.1288   11.6008   22.0338 C   0  0  0  0  0  0  0  0  0  0  0  0
   27.1724    9.8903   20.9696 N   0  0  0  0  0  0  0  0  0  0  0  0
   27.3334   11.2388   20.9371 C   0  0  0  0  0  0  0  0  0  0  0  0
   28.4761   12.9418   22.2743 C   0  0  0  0  0  0  0  0  0  0  0  0
   26.8691   12.2419   20.0571 C   0  0  0  0  0  0  0  0  0  0  0  0
   28.0099   13.9282   21.3964 C   0  0  0  0  0  0  0  0  0  0  0  0
   27.2098   13.5842   20.2970 C   0  0  0  0  0  0  0  0  0  0  0  0
   26.6564    9.3592   20.3208 H   0  0  0  0  0  0  0  0  0  0  0  0
 37 35  1  0  0  0
 35 36  2  0  0  0
 35 34  1  0  0  0
 34 39  1  0  0  0
 34 32  1  0  0  0
 39 40  1  0  0  0
 40 41  2  0  0  0
 40 42  1  0  0  0
 42 44  1  0  0  0
 42 45  2  0  0  0
 45 47  1  0  0  0
 47 48  2  0  0  0
 48 46  1  0  0  0
 46 44  2  0  0  0
 44 43  1  0  0  0
 43 41  1  0  0  0
 32 30  1  0  0  0
 30 31  2  0  0  0
 30  1  1  0  0  0
  1  2  1  0  0  0
  1  5  1  0  0  0
  2  3  1  0  0  0
  3  4  1  0  0  0
  4  5  1  0  0  0
  5  7  1  0  0  0
  7  6  2  0  0  0
  7  8  1  0  0  0
  7 10  1  0  0  0
 10 23  1  0  0  0
 10 13  1  0  0  0
 23 24  1  0  0  0
 24 25  2  0  0  0
 24 29  1  0  0  0
 29 28  2  0  0  0
 28 27  1  0  0  0
 27 26  2  0  0  0
 26 25  1  0  0  0
 13 11  1  0  0  0
 11 12  2  0  0  0
 11 15  1  0  0  0
 15 16  1  0  0  0
 16 17  1  0  0  0
 17 18  1  0  0  0
 17 22  2  0  0  0
 18 19  2  0  0  0
 22 21  1  0  0  0
 21 20  2  0  0  0
 20 19  1  0  0  0
  8  9  1  0  0  0
 13 14  1  0  0  0
 32 33  1  0  0  0
 43 49  1  0  0  0
 37 38  1  0  0  0
M  END
> <minimizedAffinity>
-11.49000

$$$$
2X96_RX3_A_1615


 49 53  0  0  0  0  0  0  0  0999 V2000
   27.7634    4.3403   23.7075 C   0  0  0  0  0  0  0  0  0  0  0  0
   27.2039    5.4131   24.6411 C   0  0  0  0  0  0  0  0  0  0  0  0
   26.1052    4.7654   25.4803 C   0  0  0  0  0  0  0  0  0  0  0  0
   26.3038    3.2539   25.3951 C   0  0  0  0  0  0  0  0  0  0  0  0
   26.9902    3.1027   24.0735 C   0  0  0  0  0  0  0  0  0  0  0  0
   27.8001    1.8594   21.9133 O   0  0  0  0  0  0  0  0  0  0  0  0
   26.7264    1.8029   22.9831 P   0  0  0  0  0  0  0  0  0  0  0  0
   25.3727    2.1351   22.4399 O   0  0  0  0  0  0  0  0  0  0  0  0
   25.3521    3.0667   22.1706 H   0  0  0  0  0  0  0  0  0  0  0  0
   26.8533    0.1404   23.4936 C   0  0  0  0  0  0  0  0  0  0  0  0
   24.7464   -1.0023   22.4672 C   0  0  0  0  0  0  0  0  0  0  0  0
   24.0380   -0.2061   21.8897 O   0  0  0  0  0  0  0  0  0  0  0  0
   25.8451   -0.7028   23.1538 N   0  0  0  0  0  0  0  0  0  0  0  0
   26.0150   -1.5077   23.6946 H   0  0  0  0  0  0  0  0  0  0  0  0
   24.3732   -2.3992   22.3978 O   0  0  0  0  0  0  0  0  0  0  0  0
   25.1847   -3.4057   21.8023 C   0  0  0  0  0  0  0  0  0  0  0  0
   25.2523   -3.1600   20.3063 C   0  0  0  0  0  0  0  0  0  0  0  0
   24.0757   -3.0209   19.5554 C   0  0  0  0  0  0  0  0  0  0  0  0
   24.1572   -2.7937   18.1750 C   0  0  0  0  0  0  0  0  0  0  0  0
   25.4079   -2.7185   17.5368 C   0  0  0  0  0  0  0  0  0  0  0  0
   26.5816   -2.8581   18.2831 C   0  0  0  0  0  0  0  0  0  0  0  0
   26.5030   -3.0814   19.6669 C   0  0  0  0  0  0  0  0  0  0  0  0
   27.9921   -0.4351   24.3245 C   0  0  0  0  0  0  0  0  0  0  0  0
   27.8665   -1.9452   24.5141 C   0  0  0  0  0  0  0  0  0  0  0  0
   28.3848   -2.8627   23.5729 C   0  0  0  0  0  0  0  0  0  0  0  0
   28.2404   -4.2473   23.7539 C   0  0  0  0  0  0  0  0  0  0  0  0
   27.5708   -4.7326   24.8883 C   0  0  0  0  0  0  0  0  0  0  0  0
   27.0427   -3.8298   25.8278 C   0  0  0  0  0  0  0  0  0  0  0  0
   27.1885   -2.4448   25.6367 C   0  0  0  0  0  0  0  0  0  0  0  0
   29.2545    4.2389   23.8674 C   0  0  0  0  0  0  0  0  0  0  0  0
   29.7857    3.3175   24.5003 O   0  0  0  0  0  0  0  0  0  0  0  0
   29.9052    5.2352   23.2631 N   0  0  0  0  0  0  0  0  0  0  0  0
   29.3746    5.9102   22.7814 H   0  0  0  0  0  0  0  0  0  0  0  0
   31.3590    5.3830   23.2743 C   0  0  0  0  0  0  0  0  0  0  0  0
   31.8981    5.7120   24.6529 C   0  0  0  0  0  0  0  0  0  0  0  0
   31.7446    6.8631   25.1330 O   0  0  0  0  0  0  0  0  0  0  0  0
   32.4900    4.8177   25.2888 O   0  0  0  0  0  0  0  0  0  0  0  0
   32.5938    3.9658   24.9126 H   0  0  0  0  0  0  0  0  0  0  0  0
   31.7025    6.4704   22.2455 C   0  0  0  0  0  0  0  0  0  0  0  0
   30.5105    7.1413   21.5999 C   0  0  0  0  0  0  0  0  0  0  0  0
   29.8590    6.7319   20.4397 C   0  0  0  0  0  0  0  0  0  0  0  0
   29.8502    8.2835   22.0344 C   0  0  0  0  0  0  0  0  0  0  0  0
   28.8389    7.5878   20.1725 N   0  0  0  0  0  0  0  0  0  0  0  0
   28.8106    8.5495   21.1316 C   0  0  0  0  0  0  0  0  0  0  0  0
   30.0818    9.1110   23.1472 C   0  0  0  0  0  0  0  0  0  0  0  0
   27.9771    9.6701   21.3456 C   0  0  0  0  0  0  0  0  0  0  0  0
   29.2493   10.2185   23.3504 C   0  0  0  0  0  0  0  0  0  0  0  0
   28.2023   10.4967   22.4597 C   0  0  0  0  0  0  0  0  0  0  0  0
   28.2211    7.5220   19.4088 H   0  0  0  0  0  0  0  0  0  0  0  0
 37 35  1  0  0  0
 35 36  2  0  0  0
 35 34  1  0  0  0
 34 39  1  0  0  0
 34 32  1  0  0  0
 39 40  1  0  0  0
 40 41  2  0  0  0
 40 42  1  0  0  0
 42 44  1  0  0  0
 42 45  2  0  0  0
 45 47  1  0  0  0
 47 48  2  0  0  0
 48 46  1  0  0  0
 46 44  2  0  0  0
 44 43  1  0  0  0
 43 41  1  0  0  0
 32 30  1  0  0  0
 30 31  2  0  0  0
 30  1  1  0  0  0
  1  2  1  0  0  0
  1  5  1  0  0  0
  2  3  1  0  0  0
  3  4  1  0  0  0
  4  5  1  0  0  0
  5  7  1  0  0  0
  7  6  2  0  0  0
  7  8  1  0  0  0
  7 10  1  0  0  0
 10 23  1  0  0  0
 10 13  1  0  0  0
 23 24  1  0  0  0
 24 25  2  0  0  0
 24 29  1  0  0  0
 29 28  2  0  0  0
 28 27  1  0  0  0
 27 26  2  0  0  0
 26 25  1  0  0  0
 13 11  1  0  0  0
 11 12  2  0  0  0
 11 15  1  0  0  0
 15 16  1  0  0  0
 16 17  1  0  0  0
 17 18  1  0  0  0
 17 22  2  0  0  0
 18 19  2  0  0  0
 22 21  1  0  0  0
 21 20  2  0  0  0
 20 19  1  0  0  0
  8  9  1  0  0  0
 13 14  1  0  0  0
 32 33  1  0  0  0
 43 49  1  0  0  0
 37 38  1  0  0  0
M  END
> <minimizedAffinity>
-11.31164

$$$$
2X96_RX3_A_1615


 49 53  0  0  0  0  0  0  0  0999 V2000
   27.6573    4.1661   23.4969 C   0  0  0  0  0  0  0  0  0  0  0  0
   27.0788    5.2890   24.3572 C   0  0  0  0  0  0  0  0  0  0  0  0
   25.9573    4.6900   25.2024 C   0  0  0  0  0  0  0  0  0  0  0  0
   26.1526    3.1757   25.2039 C   0  0  0  0  0  0  0  0  0  0  0  0
   26.8709    2.9518   23.9098 C   0  0  0  0  0  0  0  0  0  0  0  0
   27.7279    1.5934   21.8389 O   0  0  0  0  0  0  0  0  0  0  0  0
   26.6295    1.5957   22.8849 P   0  0  0  0  0  0  0  0  0  0  0  0
   25.2896    1.8996   22.2933 O   0  0  0  0  0  0  0  0  0  0  0  0
   25.2773    2.8154   21.9739 H   0  0  0  0  0  0  0  0  0  0  0  0
   26.7407   -0.0372   23.4867 C   0  0  0  0  0  0  0  0  0  0  0  0
   24.7413   -1.2704   22.3554 C   0  0  0  0  0  0  0  0  0  0  0  0
   24.0750   -0.5198   21.6758 O   0  0  0  0  0  0  0  0  0  0  0  0
   25.7746   -0.9147   23.1130 N   0  0  0  0  0  0  0  0  0  0  0  0
   25.9075   -1.6848   23.7117 H   0  0  0  0  0  0  0  0  0  0  0  0
   24.3915   -2.6749   22.3357 O   0  0  0  0  0  0  0  0  0  0  0  0
   25.1523   -3.6698   21.6593 C   0  0  0  0  0  0  0  0  0  0  0  0
   24.9912   -4.9908   22.3886 C   0  0  0  0  0  0  0  0  0  0  0  0
   25.6579   -6.1386   21.9349 C   0  0  0  0  0  0  0  0  0  0  0  0
   25.4981   -7.3498   22.6212 C   0  0  0  0  0  0  0  0  0  0  0  0
   24.6642   -7.4253   23.7510 C   0  0  0  0  0  0  0  0  0  0  0  0
   23.9979   -6.2829   24.2039 C   0  0  0  0  0  0  0  0  0  0  0  0
   24.1597   -5.0671   23.5209 C   0  0  0  0  0  0  0  0  0  0  0  0
   27.8196   -0.5500   24.4309 C   0  0  0  0  0  0  0  0  0  0  0  0
   27.7530   -2.0638   24.6205 C   0  0  0  0  0  0  0  0  0  0  0  0
   28.3524   -2.9590   23.7063 C   0  0  0  0  0  0  0  0  0  0  0  0
   28.2620   -4.3483   23.8860 C   0  0  0  0  0  0  0  0  0  0  0  0
   27.5655   -4.8610   24.9919 C   0  0  0  0  0  0  0  0  0  0  0  0
   26.9572   -3.9810   25.9039 C   0  0  0  0  0  0  0  0  0  0  0  0
   27.0494   -2.5912   25.7142 C   0  0  0  0  0  0  0  0  0  0  0  0
   29.1437    4.0702   23.6992 C   0  0  0  0  0  0  0  0  0  0  0  0
   29.6832    3.0409   24.1250 O   0  0  0  0  0  0  0  0  0  0  0  0
   29.7804    5.1972   23.3743 N   0  0  0  0  0  0  0  0  0  0  0  0
   29.2447    5.9517   23.0381 H   0  0  0  0  0  0  0  0  0  0  0  0
   31.2262    5.3772   23.4882 C   0  0  0  0  0  0  0  0  0  0  0  0
   31.6392    5.9107   24.8462 C   0  0  0  0  0  0  0  0  0  0  0  0
   30.8429    6.6137   25.5175 O   0  0  0  0  0  0  0  0  0  0  0  0
   32.7777    5.6341   25.2724 O   0  0  0  0  0  0  0  0  0  0  0  0
   33.3563    5.1082   24.7559 H   0  0  0  0  0  0  0  0  0  0  0  0
   31.6479    6.3146   22.3469 C   0  0  0  0  0  0  0  0  0  0  0  0
   30.5115    7.0353   21.6565 C   0  0  0  0  0  0  0  0  0  0  0  0
   29.8851    6.6506   20.4742 C   0  0  0  0  0  0  0  0  0  0  0  0
   29.8875    8.2077   22.0636 C   0  0  0  0  0  0  0  0  0  0  0  0
   28.9148    7.5500   20.1677 N   0  0  0  0  0  0  0  0  0  0  0  0
   28.8946    8.5160   21.1226 C   0  0  0  0  0  0  0  0  0  0  0  0
   30.1153    9.0286   23.1821 C   0  0  0  0  0  0  0  0  0  0  0  0
   28.1048    9.6736   21.3032 C   0  0  0  0  0  0  0  0  0  0  0  0
   29.3263   10.1730   23.3518 C   0  0  0  0  0  0  0  0  0  0  0  0
   28.3260   10.4940   22.4227 C   0  0  0  0  0  0  0  0  0  0  0  0
   28.3229    7.5087   19.3821 H   0  0  0  0  0  0  0  0  0  0  0  0
 37 35  1  0  0  0
 35 36  2  0  0  0
 35 34  1  0  0  0
 34 39  1  0  0  0
 34 32  1  0  0  0
 39 40  1  0  0  0
 40 41  2  0  0  0
 40 42  1  0  0  0
 42 44  1  0  0  0
 42 45  2  0  0  0
 45 47  1  0  0  0
 47 48  2  0  0  0
 48 46  1  0  0  0
 46 44  2  0  0  0
 44 43  1  0  0  0
 43 41  1  0  0  0
 32 30  1  0  0  0
 30 31  2  0  0  0
 30  1  1  0  0  0
  1  2  1  0  0  0
  1  5  1  0  0  0
  2  3  1  0  0  0
  3  4  1  0  0  0
  4  5  1  0  0  0
  5  7  1  0  0  0
  7  6  2  0  0  0
  7  8  1  0  0  0
  7 10  1  0  0  0
 10 23  1  0  0  0
 10 13  1  0  0  0
 23 24  1  0  0  0
 24 25  2  0  0  0
 24 29  1  0  0  0
 29 28  2  0  0  0
 28 27  1  0  0  0
 27 26  2  0  0  0
 26 25  1  0  0  0
 13 11  1  0  0  0
 11 12  2  0  0  0
 11 15  1  0  0  0
 15 16  1  0  0  0
 16 17  1  0  0  0
 17 18  1  0  0  0
 17 22  2  0  0  0
 18 19  2  0  0  0
 22 21  1  0  0  0
 21 20  2  0  0  0
 20 19  1  0  0  0
  8  9  1  0  0  0
 13 14  1  0  0  0
 32 33  1  0  0  0
 43 49  1  0  0  0
 37 38  1  0  0  0
M  END
> <minimizedAffinity>
-11.29910

$$$$
2X96_RX3_A_1615


 49 53  0  0  0  0  0  0  0  0999 V2000
   26.9153   -4.2709   21.5665 C   0  0  0  0  0  0  0  0  0  0  0  0
   25.9260   -5.1863   22.2868 C   0  0  0  0  0  0  0  0  0  0  0  0
   24.8685   -4.2989   22.9387 C   0  0  0  0  0  0  0  0  0  0  0  0
   24.9415   -2.9345   22.2571 C   0  0  0  0  0  0  0  0  0  0  0  0
   26.3658   -2.8898   21.7988 C   0  0  0  0  0  0  0  0  0  0  0  0
   26.4308   -0.2762   21.6166 O   0  0  0  0  0  0  0  0  0  0  0  0
   27.3412   -1.4768   21.7899 P   0  0  0  0  0  0  0  0  0  0  0  0
   28.1995   -1.7106   20.5871 O   0  0  0  0  0  0  0  0  0  0  0  0
   27.6421   -1.9759   19.8388 H   0  0  0  0  0  0  0  0  0  0  0  0
   28.2651   -0.9941   23.1878 C   0  0  0  0  0  0  0  0  0  0  0  0
   27.9055    1.4289   24.0812 C   0  0  0  0  0  0  0  0  0  0  0  0
   26.8184    1.5611   24.6009 O   0  0  0  0  0  0  0  0  0  0  0  0
   28.3401    0.3323   23.4674 N   0  0  0  0  0  0  0  0  0  0  0  0
   29.1169    0.6419   22.9479 H   0  0  0  0  0  0  0  0  0  0  0  0
   28.8135    2.5547   24.1399 O   0  0  0  0  0  0  0  0  0  0  0  0
   28.3996    3.9114   24.0216 C   0  0  0  0  0  0  0  0  0  0  0  0
   29.5154    4.7102   23.3737 C   0  0  0  0  0  0  0  0  0  0  0  0
   30.8548    4.4580   23.7058 C   0  0  0  0  0  0  0  0  0  0  0  0
   31.8723    5.2048   23.0970 C   0  0  0  0  0  0  0  0  0  0  0  0
   31.5593    6.2130   22.1680 C   0  0  0  0  0  0  0  0  0  0  0  0
   30.2252    6.4667   21.8367 C   0  0  0  0  0  0  0  0  0  0  0  0
   29.2040    5.7170   22.4417 C   0  0  0  0  0  0  0  0  0  0  0  0
   29.0275   -1.9428   24.1028 C   0  0  0  0  0  0  0  0  0  0  0  0
   28.0976   -2.8734   24.8782 C   0  0  0  0  0  0  0  0  0  0  0  0
   26.9974   -2.3848   25.6179 C   0  0  0  0  0  0  0  0  0  0  0  0
   26.1664   -3.2540   26.3421 C   0  0  0  0  0  0  0  0  0  0  0  0
   26.4293   -4.6331   26.3334 C   0  0  0  0  0  0  0  0  0  0  0  0
   27.5261   -5.1309   25.6085 C   0  0  0  0  0  0  0  0  0  0  0  0
   28.3553   -4.2528   24.8891 C   0  0  0  0  0  0  0  0  0  0  0  0
   27.0454   -4.6783   20.1255 C   0  0  0  0  0  0  0  0  0  0  0  0
   27.8453   -5.5486   19.7589 O   0  0  0  0  0  0  0  0  0  0  0  0
   26.2191   -4.0031   19.3239 N   0  0  0  0  0  0  0  0  0  0  0  0
   25.6200   -3.3365   19.7314 H   0  0  0  0  0  0  0  0  0  0  0  0
   26.1513   -4.1950   17.8768 C   0  0  0  0  0  0  0  0  0  0  0  0
   27.0975   -3.2791   17.1250 C   0  0  0  0  0  0  0  0  0  0  0  0
   27.2076   -3.3716   15.8767 O   0  0  0  0  0  0  0  0  0  0  0  0
   27.7543   -2.4411   17.7737 O   0  0  0  0  0  0  0  0  0  0  0  0
   27.6575   -2.3885   18.7042 H   0  0  0  0  0  0  0  0  0  0  0  0
   24.6874   -3.9741   17.4679 C   0  0  0  0  0  0  0  0  0  0  0  0
   23.8411   -5.2265   17.4140 C   0  0  0  0  0  0  0  0  0  0  0  0
   23.5096   -5.9523   16.2731 C   0  0  0  0  0  0  0  0  0  0  0  0
   23.2363   -5.8801   18.4801 C   0  0  0  0  0  0  0  0  0  0  0  0
   22.7331   -7.0097   16.6242 N   0  0  0  0  0  0  0  0  0  0  0  0
   22.5474   -6.9899   17.9698 C   0  0  0  0  0  0  0  0  0  0  0  0
   23.2334   -5.5865   19.8550 C   0  0  0  0  0  0  0  0  0  0  0  0
   21.8381   -7.8320   18.8553 C   0  0  0  0  0  0  0  0  0  0  0  0
   22.5278   -6.4281   20.7239 C   0  0  0  0  0  0  0  0  0  0  0  0
   21.8371   -7.5447   20.2311 C   0  0  0  0  0  0  0  0  0  0  0  0
   22.3650   -7.6807   16.0049 H   0  0  0  0  0  0  0  0  0  0  0  0
 37 35  1  0  0  0
 35 36  2  0  0  0
 35 34  1  0  0  0
 34 39  1  0  0  0
 34 32  1  0  0  0
 39 40  1  0  0  0
 40 41  2  0  0  0
 40 42  1  0  0  0
 42 44  1  0  0  0
 42 45  2  0  0  0
 45 47  1  0  0  0
 47 48  2  0  0  0
 48 46  1  0  0  0
 46 44  2  0  0  0
 44 43  1  0  0  0
 43 41  1  0  0  0
 32 30  1  0  0  0
 30 31  2  0  0  0
 30  1  1  0  0  0
  1  2  1  0  0  0
  1  5  1  0  0  0
  2  3  1  0  0  0
  3  4  1  0  0  0
  4  5  1  0  0  0
  5  7  1  0  0  0
  7  6  2  0  0  0
  7  8  1  0  0  0
  7 10  1  0  0  0
 10 23  1  0  0  0
 10 13  1  0  0  0
 23 24  1  0  0  0
 24 25  2  0  0  0
 24 29  1  0  0  0
 29 28  2  0  0  0
 28 27  1  0  0  0
 27 26  2  0  0  0
 26 25  1  0  0  0
 13 11  1  0  0  0
 11 12  2  0  0  0
 11 15  1  0  0  0
 15 16  1  0  0  0
 16 17  1  0  0  0
 17 18  1  0  0  0
 17 22  2  0  0  0
 18 19  2  0  0  0
 22 21  1  0  0  0
 21 20  2  0  0  0
 20 19  1  0  0  0
  8  9  1  0  0  0
 13 14  1  0  0  0
 32 33  1  0  0  0
 43 49  1  0  0  0
 37 38  1  0  0  0
M  END
> <minimizedAffinity>
-11.18828

$$$$
2X96_RX3_A_1615


 49 53  0  0  0  0  0  0  0  0999 V2000
   31.1207    6.8287   23.2387 C   0  0  0  0  0  0  0  0  0  0  0  0
   31.4982    7.2030   21.8059 C   0  0  0  0  0  0  0  0  0  0  0  0
   30.4187    6.6413   20.8838 C   0  0  0  0  0  0  0  0  0  0  0  0
   29.1961    6.3439   21.7488 C   0  0  0  0  0  0  0  0  0  0  0  0
   29.8142    6.0977   23.0897 C   0  0  0  0  0  0  0  0  0  0  0  0
   29.6675    5.3827   25.6067 O   0  0  0  0  0  0  0  0  0  0  0  0
   29.2569    4.9302   24.2185 P   0  0  0  0  0  0  0  0  0  0  0  0
   30.0016    3.7087   23.7815 O   0  0  0  0  0  0  0  0  0  0  0  0
   30.9392    3.9270   23.6624 H   0  0  0  0  0  0  0  0  0  0  0  0
   27.5562    4.6276   24.4574 C   0  0  0  0  0  0  0  0  0  0  0  0
   27.0970    2.3627   23.2500 C   0  0  0  0  0  0  0  0  0  0  0  0
   27.7449    2.2555   22.2312 O   0  0  0  0  0  0  0  0  0  0  0  0
   27.0616    3.4365   24.0335 N   0  0  0  0  0  0  0  0  0  0  0  0
   26.2666    3.2946   24.5966 H   0  0  0  0  0  0  0  0  0  0  0  0
   26.3008    1.2241   23.6564 O   0  0  0  0  0  0  0  0  0  0  0  0
   26.1406    0.0496   22.8684 C   0  0  0  0  0  0  0  0  0  0  0  0
   26.8717   -1.0968   23.5422 C   0  0  0  0  0  0  0  0  0  0  0  0
   28.1687   -0.9147   24.0447 C   0  0  0  0  0  0  0  0  0  0  0  0
   28.8284   -1.9843   24.6646 C   0  0  0  0  0  0  0  0  0  0  0  0
   28.2056   -3.2404   24.7732 C   0  0  0  0  0  0  0  0  0  0  0  0
   26.9137   -3.4243   24.2719 C   0  0  0  0  0  0  0  0  0  0  0  0
   26.2487   -2.3533   23.6544 C   0  0  0  0  0  0  0  0  0  0  0  0
   26.5707    5.6113   25.0733 C   0  0  0  0  0  0  0  0  0  0  0  0
   26.7447    5.7371   26.5853 C   0  0  0  0  0  0  0  0  0  0  0  0
   26.6280    4.6232   27.4466 C   0  0  0  0  0  0  0  0  0  0  0  0
   26.7700    4.7625   28.8363 C   0  0  0  0  0  0  0  0  0  0  0  0
   27.0329    6.0285   29.3833 C   0  0  0  0  0  0  0  0  0  0  0  0
   27.1425    7.1462   28.5378 C   0  0  0  0  0  0  0  0  0  0  0  0
   26.9951    6.9982   27.1477 C   0  0  0  0  0  0  0  0  0  0  0  0
   31.0759    8.0583   24.1021 C   0  0  0  0  0  0  0  0  0  0  0  0
   32.1028    8.6611   24.4397 O   0  0  0  0  0  0  0  0  0  0  0  0
   29.8324    8.4001   24.4457 N   0  0  0  0  0  0  0  0  0  0  0  0
   29.0904    7.8469   24.1102 H   0  0  0  0  0  0  0  0  0  0  0  0
   29.5075    9.5473   25.2905 C   0  0  0  0  0  0  0  0  0  0  0  0
   29.8732    9.3193   26.7444 C   0  0  0  0  0  0  0  0  0  0  0  0
   29.6136   10.1963   27.6060 O   0  0  0  0  0  0  0  0  0  0  0  0
   30.4312    8.2488   27.0561 O   0  0  0  0  0  0  0  0  0  0  0  0
   30.6159    7.6078   26.3982 H   0  0  0  0  0  0  0  0  0  0  0  0
   28.0073    9.8216   25.1087 C   0  0  0  0  0  0  0  0  0  0  0  0
   27.5371    9.8864   23.6726 C   0  0  0  0  0  0  0  0  0  0  0  0
   26.9570    8.8511   22.9448 C   0  0  0  0  0  0  0  0  0  0  0  0
   27.5989   10.9776   22.8152 C   0  0  0  0  0  0  0  0  0  0  0  0
   26.6731    9.2887   21.6909 N   0  0  0  0  0  0  0  0  0  0  0  0
   27.0572   10.5872   21.5820 C   0  0  0  0  0  0  0  0  0  0  0  0
   28.0904   12.2789   23.0189 C   0  0  0  0  0  0  0  0  0  0  0  0
   27.0015   11.5212   20.5232 C   0  0  0  0  0  0  0  0  0  0  0  0
   28.0297   13.1968   21.9631 C   0  0  0  0  0  0  0  0  0  0  0  0
   27.4872   12.8246   20.7246 C   0  0  0  0  0  0  0  0  0  0  0  0
   26.2571    8.7527   20.9775 H   0  0  0  0  0  0  0  0  0  0  0  0
 37 35  1  0  0  0
 35 36  2  0  0  0
 35 34  1  0  0  0
 34 39  1  0  0  0
 34 32  1  0  0  0
 39 40  1  0  0  0
 40 41  2  0  0  0
 40 42  1  0  0  0
 42 44  1  0  0  0
 42 45  2  0  0  0
 45 47  1  0  0  0
 47 48  2  0  0  0
 48 46  1  0  0  0
 46 44  2  0  0  0
 44 43  1  0  0  0
 43 41  1  0  0  0
 32 30  1  0  0  0
 30 31  2  0  0  0
 30  1  1  0  0  0
  1  2  1  0  0  0
  1  5  1  0  0  0
  2  3  1  0  0  0
  3  4  1  0  0  0
  4  5  1  0  0  0
  5  7  1  0  0  0
  7  6  2  0  0  0
  7  8  1  0  0  0
  7 10  1  0  0  0
 10 23  1  0  0  0
 10 13  1  0  0  0
 23 24  1  0  0  0
 24 25  2  0  0  0
 24 29  1  0  0  0
 29 28  2  0  0  0
 28 27  1  0  0  0
 27 26  2  0  0  0
 26 25  1  0  0  0
 13 11  1  0  0  0
 11 12  2  0  0  0
 11 15  1  0  0  0
 15 16  1  0  0  0
 16 17  1  0  0  0
 17 18  1  0  0  0
 17 22  2  0  0  0
 18 19  2  0  0  0
 22 21  1  0  0  0
 21 20  2  0  0  0
 20 19  1  0  0  0
  8  9  1  0  0  0
 13 14  1  0  0  0
 32 33  1  0  0  0
 43 49  1  0  0  0
 37 38  1  0  0  0
M  END
> <minimizedAffinity>
-11.11879

$$$$
2X96_RX3_A_1615


 49 53  0  0  0  0  0  0  0  0999 V2000
   29.9251    7.4303   25.1149 C   0  0  0  0  0  0  0  0  0  0  0  0
   30.3787    6.2905   26.0262 C   0  0  0  0  0  0  0  0  0  0  0  0
   31.6971    5.7554   25.4725 C   0  0  0  0  0  0  0  0  0  0  0  0
   32.2618    6.8241   24.5396 C   0  0  0  0  0  0  0  0  0  0  0  0
   31.0227    7.5342   24.0912 C   0  0  0  0  0  0  0  0  0  0  0  0
   31.1141    7.0691   21.5137 O   0  0  0  0  0  0  0  0  0  0  0  0
   30.7779    8.1607   22.5115 P   0  0  0  0  0  0  0  0  0  0  0  0
   31.7682    9.2813   22.4748 O   0  0  0  0  0  0  0  0  0  0  0  0
   32.6278    8.9636   22.7927 H   0  0  0  0  0  0  0  0  0  0  0  0
   29.1981    8.6450   21.9541 C   0  0  0  0  0  0  0  0  0  0  0  0
   26.9200    8.5201   23.2161 C   0  0  0  0  0  0  0  0  0  0  0  0
   26.3724    9.6004   23.2661 O   0  0  0  0  0  0  0  0  0  0  0  0
   28.1264    8.2884   22.7073 N   0  0  0  0  0  0  0  0  0  0  0  0
   28.3660    7.3998   23.0571 H   0  0  0  0  0  0  0  0  0  0  0  0
   26.1987    7.3823   23.7456 O   0  0  0  0  0  0  0  0  0  0  0  0
   26.6498    6.6036   24.8485 C   0  0  0  0  0  0  0  0  0  0  0  0
   26.8433    5.1699   24.3904 C   0  0  0  0  0  0  0  0  0  0  0  0
   26.0000    4.1532   24.8628 C   0  0  0  0  0  0  0  0  0  0  0  0
   26.1930    2.8350   24.4284 C   0  0  0  0  0  0  0  0  0  0  0  0
   27.2331    2.5230   23.5349 C   0  0  0  0  0  0  0  0  0  0  0  0
   28.0752    3.5345   23.0640 C   0  0  0  0  0  0  0  0  0  0  0  0
   27.8815    4.8567   23.4941 C   0  0  0  0  0  0  0  0  0  0  0  0
   28.9210    9.4081   20.6660 C   0  0  0  0  0  0  0  0  0  0  0  0
   28.4663   10.8424   20.9275 C   0  0  0  0  0  0  0  0  0  0  0  0
   27.3247   11.3908   20.3013 C   0  0  0  0  0  0  0  0  0  0  0  0
   26.9348   12.7185   20.5379 C   0  0  0  0  0  0  0  0  0  0  0  0
   27.6891   13.5180   21.4112 C   0  0  0  0  0  0  0  0  0  0  0  0
   28.8322   12.9868   22.0336 C   0  0  0  0  0  0  0  0  0  0  0  0
   29.2176   11.6574   21.7881 C   0  0  0  0  0  0  0  0  0  0  0  0
   29.6777    8.6738   25.9223 C   0  0  0  0  0  0  0  0  0  0  0  0
   29.0860    9.6543   25.4531 O   0  0  0  0  0  0  0  0  0  0  0  0
   30.1631    8.5864   27.1625 N   0  0  0  0  0  0  0  0  0  0  0  0
   30.6105    7.7502   27.4271 H   0  0  0  0  0  0  0  0  0  0  0  0
   30.0696    9.6588   28.1507 C   0  0  0  0  0  0  0  0  0  0  0  0
   31.2509   10.6077   28.0906 C   0  0  0  0  0  0  0  0  0  0  0  0
   31.2964   11.6084   28.8493 O   0  0  0  0  0  0  0  0  0  0  0  0
   32.1649   10.3684   27.2772 O   0  0  0  0  0  0  0  0  0  0  0  0
   32.1115    9.6167   26.7204 H   0  0  0  0  0  0  0  0  0  0  0  0
   29.9391    8.9857   29.5251 C   0  0  0  0  0  0  0  0  0  0  0  0
   29.5184    7.5333   29.4900 C   0  0  0  0  0  0  0  0  0  0  0  0
   30.3129    6.4343   29.8048 C   0  0  0  0  0  0  0  0  0  0  0  0
   28.2749    7.0256   29.1358 C   0  0  0  0  0  0  0  0  0  0  0  0
   29.5865    5.2971   29.6510 N   0  0  0  0  0  0  0  0  0  0  0  0
   28.3348    5.6284   29.2401 C   0  0  0  0  0  0  0  0  0  0  0  0
   27.0987    7.6787   28.7274 C   0  0  0  0  0  0  0  0  0  0  0  0
   27.1893    4.8611   28.9311 C   0  0  0  0  0  0  0  0  0  0  0  0
   25.9690    6.9087   28.4244 C   0  0  0  0  0  0  0  0  0  0  0  0
   26.0101    5.5106   28.5275 C   0  0  0  0  0  0  0  0  0  0  0  0
   29.9135    4.3824   29.8112 H   0  0  0  0  0  0  0  0  0  0  0  0
 37 35  1  0  0  0
 35 36  2  0  0  0
 35 34  1  0  0  0
 34 39  1  0  0  0
 34 32  1  0  0  0
 39 40  1  0  0  0
 40 41  2  0  0  0
 40 42  1  0  0  0
 42 44  1  0  0  0
 42 45  2  0  0  0
 45 47  1  0  0  0
 47 48  2  0  0  0
 48 46  1  0  0  0
 46 44  2  0  0  0
 44 43  1  0  0  0
 43 41  1  0  0  0
 32 30  1  0  0  0
 30 31  2  0  0  0
 30  1  1  0  0  0
  1  2  1  0  0  0
  1  5  1  0  0  0
  2  3  1  0  0  0
  3  4  1  0  0  0
  4  5  1  0  0  0
  5  7  1  0  0  0
  7  6  2  0  0  0
  7  8  1  0  0  0
  7 10  1  0  0  0
 10 23  1  0  0  0
 10 13  1  0  0  0
 23 24  1  0  0  0
 24 25  2  0  0  0
 24 29  1  0  0  0
 29 28  2  0  0  0
 28 27  1  0  0  0
 27 26  2  0  0  0
 26 25  1  0  0  0
 13 11  1  0  0  0
 11 12  2  0  0  0
 11 15  1  0  0  0
 15 16  1  0  0  0
 16 17  1  0  0  0
 17 18  1  0  0  0
 17 22  2  0  0  0
 18 19  2  0  0  0
 22 21  1  0  0  0
 21 20  2  0  0  0
 20 19  1  0  0  0
  8  9  1  0  0  0
 13 14  1  0  0  0
 32 33  1  0  0  0
 43 49  1  0  0  0
 37 38  1  0  0  0
M  END
> <minimizedAffinity>
-11.08312

$$$$
2X96_RX3_A_1615


 49 53  0  0  0  0  0  0  0  0999 V2000
   27.9677    8.7478   25.7431 C   0  0  0  0  0  0  0  0  0  0  0  0
   28.8138    8.8993   27.0068 C   0  0  0  0  0  0  0  0  0  0  0  0
   29.5891    7.5985   27.2003 C   0  0  0  0  0  0  0  0  0  0  0  0
   29.5770    6.8625   25.8625 C   0  0  0  0  0  0  0  0  0  0  0  0
   28.3194    7.3764   25.2343 C   0  0  0  0  0  0  0  0  0  0  0  0
   27.9935    6.0714   22.9850 O   0  0  0  0  0  0  0  0  0  0  0  0
   27.2619    6.4351   24.2629 P   0  0  0  0  0  0  0  0  0  0  0  0
   26.1428    7.3967   24.0164 O   0  0  0  0  0  0  0  0  0  0  0  0
   26.5063    8.2500   23.7325 H   0  0  0  0  0  0  0  0  0  0  0  0
   26.6966    4.8684   24.7793 C   0  0  0  0  0  0  0  0  0  0  0  0
   28.0464    2.8601   23.8082 C   0  0  0  0  0  0  0  0  0  0  0  0
   29.2181    2.9144   24.1139 O   0  0  0  0  0  0  0  0  0  0  0  0
   27.1308    3.7822   24.0903 N   0  0  0  0  0  0  0  0  0  0  0  0
   26.3813    3.5655   23.4900 H   0  0  0  0  0  0  0  0  0  0  0  0
   27.6005    1.6894   23.0829 O   0  0  0  0  0  0  0  0  0  0  0  0
   26.5423    0.8438   23.5202 C   0  0  0  0  0  0  0  0  0  0  0  0
   27.1007   -0.5411   23.7907 C   0  0  0  0  0  0  0  0  0  0  0  0
   26.3113   -1.6802   23.5737 C   0  0  0  0  0  0  0  0  0  0  0  0
   26.8437   -2.9511   23.8282 C   0  0  0  0  0  0  0  0  0  0  0  0
   28.1565   -3.0911   24.3124 C   0  0  0  0  0  0  0  0  0  0  0  0
   28.9443   -1.9572   24.5305 C   0  0  0  0  0  0  0  0  0  0  0  0
   28.4150   -0.6828   24.2722 C   0  0  0  0  0  0  0  0  0  0  0  0
   25.7223    4.6234   25.9235 C   0  0  0  0  0  0  0  0  0  0  0  0
   26.2062    5.2319   27.2379 C   0  0  0  0  0  0  0  0  0  0  0  0
   25.7267    6.4752   27.7076 C   0  0  0  0  0  0  0  0  0  0  0  0
   26.1995    7.0288   28.9078 C   0  0  0  0  0  0  0  0  0  0  0  0
   27.1650    6.3381   29.6575 C   0  0  0  0  0  0  0  0  0  0  0  0
   27.6566    5.1044   29.1966 C   0  0  0  0  0  0  0  0  0  0  0  0
   27.1803    4.5592   27.9915 C   0  0  0  0  0  0  0  0  0  0  0  0
   28.2466    9.8785   24.7927 C   0  0  0  0  0  0  0  0  0  0  0  0
   28.9470   10.8474   25.1127 O   0  0  0  0  0  0  0  0  0  0  0  0
   27.6608    9.7085   23.6057 N   0  0  0  0  0  0  0  0  0  0  0  0
   27.1311    8.8909   23.4632 H   0  0  0  0  0  0  0  0  0  0  0  0
   27.7595   10.6645   22.5048 C   0  0  0  0  0  0  0  0  0  0  0  0
   26.6703   10.4698   21.4679 C   0  0  0  0  0  0  0  0  0  0  0  0
   26.8039   10.9490   20.3140 O   0  0  0  0  0  0  0  0  0  0  0  0
   25.6514    9.8274   21.7895 O   0  0  0  0  0  0  0  0  0  0  0  0
   25.5715    9.4784   22.6554 H   0  0  0  0  0  0  0  0  0  0  0  0
   29.1640   10.5057   21.9037 C   0  0  0  0  0  0  0  0  0  0  0  0
   29.6030    9.0774   21.6695 C   0  0  0  0  0  0  0  0  0  0  0  0
   29.1151    8.2115   20.6946 C   0  0  0  0  0  0  0  0  0  0  0  0
   30.5620    8.3647   22.3779 C   0  0  0  0  0  0  0  0  0  0  0  0
   29.7493    7.0152   20.7994 N   0  0  0  0  0  0  0  0  0  0  0  0
   30.6399    7.0791   21.8233 C   0  0  0  0  0  0  0  0  0  0  0  0
   31.3684    8.7417   23.4662 C   0  0  0  0  0  0  0  0  0  0  0  0
   31.5489    6.1441   22.3671 C   0  0  0  0  0  0  0  0  0  0  0  0
   32.2665    7.8075   23.9970 C   0  0  0  0  0  0  0  0  0  0  0  0
   32.3604    6.5188   23.4518 C   0  0  0  0  0  0  0  0  0  0  0  0
   29.5899    6.2302   20.2271 H   0  0  0  0  0  0  0  0  0  0  0  0
 37 35  1  0  0  0
 35 36  2  0  0  0
 35 34  1  0  0  0
 34 39  1  0  0  0
 34 32  1  0  0  0
 39 40  1  0  0  0
 40 41  2  0  0  0
 40 42  1  0  0  0
 42 44  1  0  0  0
 42 45  2  0  0  0
 45 47  1  0  0  0
 47 48  2  0  0  0
 48 46  1  0  0  0
 46 44  2  0  0  0
 44 43  1  0  0  0
 43 41  1  0  0  0
 32 30  1  0  0  0
 30 31  2  0  0  0
 30  1  1  0  0  0
  1  2  1  0  0  0
  1  5  1  0  0  0
  2  3  1  0  0  0
  3  4  1  0  0  0
  4  5  1  0  0  0
  5  7  1  0  0  0
  7  6  2  0  0  0
  7  8  1  0  0  0
  7 10  1  0  0  0
 10 23  1  0  0  0
 10 13  1  0  0  0
 23 24  1  0  0  0
 24 25  2  0  0  0
 24 29  1  0  0  0
 29 28  2  0  0  0
 28 27  1  0  0  0
 27 26  2  0  0  0
 26 25  1  0  0  0
 13 11  1  0  0  0
 11 12  2  0  0  0
 11 15  1  0  0  0
 15 16  1  0  0  0
 16 17  1  0  0  0
 17 18  1  0  0  0
 17 22  2  0  0  0
 18 19  2  0  0  0
 22 21  1  0  0  0
 21 20  2  0  0  0
 20 19  1  0  0  0
  8  9  1  0  0  0
 13 14  1  0  0  0
 32 33  1  0  0  0
 43 49  1  0  0  0
 37 38  1  0  0  0
M  END
> <minimizedAffinity>
-11.00902

$$$$
2X96_RX3_A_1615


 49 53  0  0  0  0  0  0  0  0999 V2000
   26.8297    7.0065   26.7685 C   0  0  0  0  0  0  0  0  0  0  0  0
   26.4959    7.1397   28.2539 C   0  0  0  0  0  0  0  0  0  0  0  0
   26.3679    5.7296   28.8251 C   0  0  0  0  0  0  0  0  0  0  0  0
   27.0532    4.7812   27.8441 C   0  0  0  0  0  0  0  0  0  0  0  0
   26.9202    5.5208   26.5495 C   0  0  0  0  0  0  0  0  0  0  0  0
   26.4422    5.8710   23.9967 O   0  0  0  0  0  0  0  0  0  0  0  0
   26.6383    4.7765   25.0282 P   0  0  0  0  0  0  0  0  0  0  0  0
   25.3755    4.0193   25.2924 O   0  0  0  0  0  0  0  0  0  0  0  0
   24.7330    4.6031   25.7252 H   0  0  0  0  0  0  0  0  0  0  0  0
   27.8540    3.7992   24.2486 C   0  0  0  0  0  0  0  0  0  0  0  0
   27.3351    1.4711   23.1955 C   0  0  0  0  0  0  0  0  0  0  0  0
   28.0107    0.5931   23.6875 O   0  0  0  0  0  0  0  0  0  0  0  0
   27.4327    2.7680   23.4727 N   0  0  0  0  0  0  0  0  0  0  0  0
   26.9509    3.2064   22.7345 H   0  0  0  0  0  0  0  0  0  0  0  0
   26.3296    1.0773   22.2316 O   0  0  0  0  0  0  0  0  0  0  0  0
   25.3214    0.1069   22.4922 C   0  0  0  0  0  0  0  0  0  0  0  0
   25.3869   -0.9680   21.4230 C   0  0  0  0  0  0  0  0  0  0  0  0
   24.2114   -1.5606   20.9385 C   0  0  0  0  0  0  0  0  0  0  0  0
   24.2909   -2.5512   19.9505 C   0  0  0  0  0  0  0  0  0  0  0  0
   25.5395   -2.9642   19.4529 C   0  0  0  0  0  0  0  0  0  0  0  0
   26.7122   -2.3758   19.9353 C   0  0  0  0  0  0  0  0  0  0  0  0
   26.6353   -1.3801   20.9219 C   0  0  0  0  0  0  0  0  0  0  0  0
   29.3574    3.9890   24.3982 C   0  0  0  0  0  0  0  0  0  0  0  0
   29.9350    4.9128   23.3281 C   0  0  0  0  0  0  0  0  0  0  0  0
   31.3147    5.2102   23.2624 C   0  0  0  0  0  0  0  0  0  0  0  0
   31.8240    6.0790   22.2844 C   0  0  0  0  0  0  0  0  0  0  0  0
   30.9508    6.6639   21.3536 C   0  0  0  0  0  0  0  0  0  0  0  0
   29.5747    6.3831   21.4138 C   0  0  0  0  0  0  0  0  0  0  0  0
   29.0728    5.5149   22.3989 C   0  0  0  0  0  0  0  0  0  0  0  0
   28.0757    7.7823   26.4446 C   0  0  0  0  0  0  0  0  0  0  0  0
   28.7455    8.3442   27.3206 O   0  0  0  0  0  0  0  0  0  0  0  0
   28.3530    7.7878   25.1391 N   0  0  0  0  0  0  0  0  0  0  0  0
   27.7493    7.2978   24.5352 H   0  0  0  0  0  0  0  0  0  0  0  0
   29.5001    8.4782   24.5534 C   0  0  0  0  0  0  0  0  0  0  0  0
   30.7322    8.4064   25.4343 C   0  0  0  0  0  0  0  0  0  0  0  0
   31.3429    7.3177   25.5787 O   0  0  0  0  0  0  0  0  0  0  0  0
   31.1176    9.4466   26.0034 O   0  0  0  0  0  0  0  0  0  0  0  0
   30.6479   10.2483   25.8825 H   0  0  0  0  0  0  0  0  0  0  0  0
   29.0604    9.9266   24.2927 C   0  0  0  0  0  0  0  0  0  0  0  0
   28.2825   10.1397   23.0132 C   0  0  0  0  0  0  0  0  0  0  0  0
   27.6272    9.1609   22.2709 C   0  0  0  0  0  0  0  0  0  0  0  0
   28.0809   11.3381   22.3405 C   0  0  0  0  0  0  0  0  0  0  0  0
   27.0457    9.7351   21.1862 N   0  0  0  0  0  0  0  0  0  0  0  0
   27.3085   11.0678   21.2016 C   0  0  0  0  0  0  0  0  0  0  0  0
   28.5169   12.6417   22.6358 C   0  0  0  0  0  0  0  0  0  0  0  0
   26.9588   12.1272   20.3345 C   0  0  0  0  0  0  0  0  0  0  0  0
   28.1640   13.6843   21.7702 C   0  0  0  0  0  0  0  0  0  0  0  0
   27.3885   13.4325   20.6291 C   0  0  0  0  0  0  0  0  0  0  0  0
   26.5198    9.2628   20.5010 H   0  0  0  0  0  0  0  0  0  0  0  0
 37 35  1  0  0  0
 35 36  2  0  0  0
 35 34  1  0  0  0
 34 39  1  0  0  0
 34 32  1  0  0  0
 39 40  1  0  0  0
 40 41  2  0  0  0
 40 42  1  0  0  0
 42 44  1  0  0  0
 42 45  2  0  0  0
 45 47  1  0  0  0
 47 48  2  0  0  0
 48 46  1  0  0  0
 46 44  2  0  0  0
 44 43  1  0  0  0
 43 41  1  0  0  0
 32 30  1  0  0  0
 30 31  2  0  0  0
 30  1  1  0  0  0
  1  2  1  0  0  0
  1  5  1  0  0  0
  2  3  1  0  0  0
  3  4  1  0  0  0
  4  5  1  0  0  0
  5  7  1  0  0  0
  7  6  2  0  0  0
  7  8  1  0  0  0
  7 10  1  0  0  0
 10 23  1  0  0  0
 10 13  1  0  0  0
 23 24  1  0  0  0
 24 25  2  0  0  0
 24 29  1  0  0  0
 29 28  2  0  0  0
 28 27  1  0  0  0
 27 26  2  0  0  0
 26 25  1  0  0  0
 13 11  1  0  0  0
 11 12  2  0  0  0
 11 15  1  0  0  0
 15 16  1  0  0  0
 16 17  1  0  0  0
 17 18  1  0  0  0
 17 22  2  0  0  0
 18 19  2  0  0  0
 22 21  1  0  0  0
 21 20  2  0  0  0
 20 19  1  0  0  0
  8  9  1  0  0  0
 13 14  1  0  0  0
 32 33  1  0  0  0
 43 49  1  0  0  0
 37 38  1  0  0  0
M  END
> <minimizedAffinity>
-10.96771

$$$$
2X96_RX3_A_1615


 49 53  0  0  0  0  0  0  0  0999 V2000
   31.2571    6.6265   23.1404 C   0  0  0  0  0  0  0  0  0  0  0  0
   31.5832    7.0730   21.7157 C   0  0  0  0  0  0  0  0  0  0  0  0
   30.4205    6.6473   20.8224 C   0  0  0  0  0  0  0  0  0  0  0  0
   29.2278    6.3712   21.7349 C   0  0  0  0  0  0  0  0  0  0  0  0
   29.8974    5.9939   23.0193 C   0  0  0  0  0  0  0  0  0  0  0  0
   29.5395    5.2853   25.5169 O   0  0  0  0  0  0  0  0  0  0  0  0
   29.3215    4.7904   24.0999 P   0  0  0  0  0  0  0  0  0  0  0  0
   30.2098    3.6343   23.7647 O   0  0  0  0  0  0  0  0  0  0  0  0
   31.1330    3.9313   23.7437 H   0  0  0  0  0  0  0  0  0  0  0  0
   27.6367    4.3447   24.1593 C   0  0  0  0  0  0  0  0  0  0  0  0
   27.3438    1.8143   23.6027 C   0  0  0  0  0  0  0  0  0  0  0  0
   28.1918    1.1338   24.1385 O   0  0  0  0  0  0  0  0  0  0  0  0
   27.2832    3.1422   23.6376 N   0  0  0  0  0  0  0  0  0  0  0  0
   26.6612    3.3717   22.9098 H   0  0  0  0  0  0  0  0  0  0  0  0
   26.3021    1.1264   22.8699 O   0  0  0  0  0  0  0  0  0  0  0  0
   25.8506   -0.1868   23.1827 C   0  0  0  0  0  0  0  0  0  0  0  0
   25.6427   -0.9549   21.8905 C   0  0  0  0  0  0  0  0  0  0  0  0
   24.3571   -1.3639   21.5063 C   0  0  0  0  0  0  0  0  0  0  0  0
   24.1837   -2.0717   20.3094 C   0  0  0  0  0  0  0  0  0  0  0  0
   25.2896   -2.3864   19.4998 C   0  0  0  0  0  0  0  0  0  0  0  0
   26.5717   -1.9808   19.8816 C   0  0  0  0  0  0  0  0  0  0  0  0
   26.7477   -1.2677   21.0779 C   0  0  0  0  0  0  0  0  0  0  0  0
   26.5206    5.2159   24.7194 C   0  0  0  0  0  0  0  0  0  0  0  0
   26.6690    5.4552   26.2204 C   0  0  0  0  0  0  0  0  0  0  0  0
   26.9025    6.7430   26.7527 C   0  0  0  0  0  0  0  0  0  0  0  0
   27.0578    6.9400   28.1339 C   0  0  0  0  0  0  0  0  0  0  0  0
   26.9799    5.8413   29.0045 C   0  0  0  0  0  0  0  0  0  0  0  0
   26.7567    4.5536   28.4865 C   0  0  0  0  0  0  0  0  0  0  0  0
   26.6062    4.3649   27.1016 C   0  0  0  0  0  0  0  0  0  0  0  0
   31.3425    7.7941   24.0831 C   0  0  0  0  0  0  0  0  0  0  0  0
   32.4269    8.2392   24.4804 O   0  0  0  0  0  0  0  0  0  0  0  0
   30.1424    8.2682   24.4242 N   0  0  0  0  0  0  0  0  0  0  0  0
   29.3466    7.8361   24.0380 H   0  0  0  0  0  0  0  0  0  0  0  0
   29.9403    9.3911   25.3374 C   0  0  0  0  0  0  0  0  0  0  0  0
   30.5133    9.1279   26.7164 C   0  0  0  0  0  0  0  0  0  0  0  0
   30.2769    8.0414   27.3018 O   0  0  0  0  0  0  0  0  0  0  0  0
   31.2180   10.0097   27.2455 O   0  0  0  0  0  0  0  0  0  0  0  0
   31.3822   10.8130   26.7919 H   0  0  0  0  0  0  0  0  0  0  0  0
   28.4288    9.6602   25.3820 C   0  0  0  0  0  0  0  0  0  0  0  0
   27.7540    9.7514   24.0314 C   0  0  0  0  0  0  0  0  0  0  0  0
   26.9655    8.7724   23.4330 C   0  0  0  0  0  0  0  0  0  0  0  0
   27.7966   10.8154   23.1394 C   0  0  0  0  0  0  0  0  0  0  0  0
   26.5402    9.2172   22.2224 N   0  0  0  0  0  0  0  0  0  0  0  0
   27.0354   10.4651   22.0149 C   0  0  0  0  0  0  0  0  0  0  0  0
   28.4455   12.0597   23.2246 C   0  0  0  0  0  0  0  0  0  0  0  0
   26.9156   11.3821   20.9467 C   0  0  0  0  0  0  0  0  0  0  0  0
   28.3195   12.9614   22.1606 C   0  0  0  0  0  0  0  0  0  0  0  0
   27.5586   12.6291   21.0303 C   0  0  0  0  0  0  0  0  0  0  0  0
   25.9669    8.7172   21.5975 H   0  0  0  0  0  0  0  0  0  0  0  0
 37 35  1  0  0  0
 35 36  2  0  0  0
 35 34  1  0  0  0
 34 39  1  0  0  0
 34 32  1  0  0  0
 39 40  1  0  0  0
 40 41  2  0  0  0
 40 42  1  0  0  0
 42 44  1  0  0  0
 42 45  2  0  0  0
 45 47  1  0  0  0
 47 48  2  0  0  0
 48 46  1  0  0  0
 46 44  2  0  0  0
 44 43  1  0  0  0
 43 41  1  0  0  0
 32 30  1  0  0  0
 30 31  2  0  0  0
 30  1  1  0  0  0
  1  2  1  0  0  0
  1  5  1  0  0  0
  2  3  1  0  0  0
  3  4  1  0  0  0
  4  5  1  0  0  0
  5  7  1  0  0  0
  7  6  2  0  0  0
  7  8  1  0  0  0
  7 10  1  0  0  0
 10 23  1  0  0  0
 10 13  1  0  0  0
 23 24  1  0  0  0
 24 25  2  0  0  0
 24 29  1  0  0  0
 29 28  2  0  0  0
 28 27  1  0  0  0
 27 26  2  0  0  0
 26 25  1  0  0  0
 13 11  1  0  0  0
 11 12  2  0  0  0
 11 15  1  0  0  0
 15 16  1  0  0  0
 16 17  1  0  0  0
 17 18  1  0  0  0
 17 22  2  0  0  0
 18 19  2  0  0  0
 22 21  1  0  0  0
 21 20  2  0  0  0
 20 19  1  0  0  0
  8  9  1  0  0  0
 13 14  1  0  0  0
 32 33  1  0  0  0
 43 49  1  0  0  0
 37 38  1  0  0  0
M  END
> <minimizedAffinity>
-10.96695

$$$$
2X96_RX3_A_1615


 49 53  0  0  0  0  0  0  0  0999 V2000
   26.7356    6.6298   26.8780 C   0  0  0  0  0  0  0  0  0  0  0  0
   26.3692    6.9842   28.3187 C   0  0  0  0  0  0  0  0  0  0  0  0
   26.2831    5.6790   29.1061 C   0  0  0  0  0  0  0  0  0  0  0  0
   27.0215    4.6146   28.2979 C   0  0  0  0  0  0  0  0  0  0  0  0
   26.8855    5.1330   26.9003 C   0  0  0  0  0  0  0  0  0  0  0  0
   25.5120    4.7206   24.7067 O   0  0  0  0  0  0  0  0  0  0  0  0
   26.6601    4.1455   25.5139 P   0  0  0  0  0  0  0  0  0  0  0  0
   26.3087    2.8304   26.1343 O   0  0  0  0  0  0  0  0  0  0  0  0
   25.6241    2.9636   26.8084 H   0  0  0  0  0  0  0  0  0  0  0  0
   27.8891    3.9990   24.2855 C   0  0  0  0  0  0  0  0  0  0  0  0
   30.2710    4.7709   25.0129 C   0  0  0  0  0  0  0  0  0  0  0  0
   30.6950    4.1131   25.9386 O   0  0  0  0  0  0  0  0  0  0  0  0
   29.0577    4.6621   24.4797 N   0  0  0  0  0  0  0  0  0  0  0  0
   28.9527    5.4887   23.9554 H   0  0  0  0  0  0  0  0  0  0  0  0
   31.1612    5.7521   24.4297 O   0  0  0  0  0  0  0  0  0  0  0  0
   31.5518    5.7507   23.0609 C   0  0  0  0  0  0  0  0  0  0  0  0
   30.8222    6.8701   22.3414 C   0  0  0  0  0  0  0  0  0  0  0  0
   29.9175    6.5802   21.3094 C   0  0  0  0  0  0  0  0  0  0  0  0
   29.2522    7.6265   20.6565 C   0  0  0  0  0  0  0  0  0  0  0  0
   29.4958    8.9632   21.0189 C   0  0  0  0  0  0  0  0  0  0  0  0
   30.3979    9.2543   22.0463 C   0  0  0  0  0  0  0  0  0  0  0  0
   31.0625    8.2078   22.7050 C   0  0  0  0  0  0  0  0  0  0  0  0
   27.7417    3.2126   22.9900 C   0  0  0  0  0  0  0  0  0  0  0  0
   27.2203    1.7969   23.2267 C   0  0  0  0  0  0  0  0  0  0  0  0
   27.9808    0.8254   23.9154 C   0  0  0  0  0  0  0  0  0  0  0  0
   27.4934   -0.4774   24.1044 C   0  0  0  0  0  0  0  0  0  0  0  0
   26.2291   -0.8248   23.6025 C   0  0  0  0  0  0  0  0  0  0  0  0
   25.4663    0.1302   22.9079 C   0  0  0  0  0  0  0  0  0  0  0  0
   25.9638    1.4314   22.7198 C   0  0  0  0  0  0  0  0  0  0  0  0
   27.9578    7.3931   26.4501 C   0  0  0  0  0  0  0  0  0  0  0  0
   29.1022    6.9910   26.6956 O   0  0  0  0  0  0  0  0  0  0  0  0
   27.6587    8.5187   25.7983 N   0  0  0  0  0  0  0  0  0  0  0  0
   26.7085    8.7327   25.6551 H   0  0  0  0  0  0  0  0  0  0  0  0
   28.6589    9.4522   25.2848 C   0  0  0  0  0  0  0  0  0  0  0  0
   29.7577    9.7364   26.2903 C   0  0  0  0  0  0  0  0  0  0  0  0
   29.5164   10.4284   27.3110 O   0  0  0  0  0  0  0  0  0  0  0  0
   30.8935    9.2683   26.0778 O   0  0  0  0  0  0  0  0  0  0  0  0
   31.0526    8.7547   25.3104 H   0  0  0  0  0  0  0  0  0  0  0  0
   27.9069   10.7274   24.8755 C   0  0  0  0  0  0  0  0  0  0  0  0
   27.3141   10.7032   23.4843 C   0  0  0  0  0  0  0  0  0  0  0  0
   26.5455    9.6830   22.9304 C   0  0  0  0  0  0  0  0  0  0  0  0
   27.4270   11.6810   22.5041 C   0  0  0  0  0  0  0  0  0  0  0  0
   26.1996   10.0208   21.6613 N   0  0  0  0  0  0  0  0  0  0  0  0
   26.7272   11.2388   21.3722 C   0  0  0  0  0  0  0  0  0  0  0  0
   28.0909   12.9203   22.5155 C   0  0  0  0  0  0  0  0  0  0  0  0
   26.6858   12.0561   20.2204 C   0  0  0  0  0  0  0  0  0  0  0  0
   28.0428   13.7228   21.3689 C   0  0  0  0  0  0  0  0  0  0  0  0
   27.3439   13.2979   20.2296 C   0  0  0  0  0  0  0  0  0  0  0  0
   25.6554    9.4727   21.0507 H   0  0  0  0  0  0  0  0  0  0  0  0
 37 35  1  0  0  0
 35 36  2  0  0  0
 35 34  1  0  0  0
 34 39  1  0  0  0
 34 32  1  0  0  0
 39 40  1  0  0  0
 40 41  2  0  0  0
 40 42  1  0  0  0
 42 44  1  0  0  0
 42 45  2  0  0  0
 45 47  1  0  0  0
 47 48  2  0  0  0
 48 46  1  0  0  0
 46 44  2  0  0  0
 44 43  1  0  0  0
 43 41  1  0  0  0
 32 30  1  0  0  0
 30 31  2  0  0  0
 30  1  1  0  0  0
  1  2  1  0  0  0
  1  5  1  0  0  0
  2  3  1  0  0  0
  3  4  1  0  0  0
  4  5  1  0  0  0
  5  7  1  0  0  0
  7  6  2  0  0  0
  7  8  1  0  0  0
  7 10  1  0  0  0
 10 23  1  0  0  0
 10 13  1  0  0  0
 23 24  1  0  0  0
 24 25  2  0  0  0
 24 29  1  0  0  0
 29 28  2  0  0  0
 28 27  1  0  0  0
 27 26  2  0  0  0
 26 25  1  0  0  0
 13 11  1  0  0  0
 11 12  2  0  0  0
 11 15  1  0  0  0
 15 16  1  0  0  0
 16 17  1  0  0  0
 17 18  1  0  0  0
 17 22  2  0  0  0
 18 19  2  0  0  0
 22 21  1  0  0  0
 21 20  2  0  0  0
 20 19  1  0  0  0
  8  9  1  0  0  0
 13 14  1  0  0  0
 32 33  1  0  0  0
 43 49  1  0  0  0
 37 38  1  0  0  0
M  END
> <minimizedAffinity>
-10.95794

$$$$
