1NC1_MTH_A_233


 24 26  0  0  0  0  0  0  0  0999 V2000
   57.7472   71.7105   21.8052 C   0  0  0  0  0  0  0  0  0  0  0  0
   58.2333   72.1311   20.4919 O   0  0  0  0  0  0  0  0  0  0  0  0
   57.8357   74.0972   21.7337 C   0  0  0  0  0  0  0  0  0  0  0  0
   58.7147   75.2366   22.0073 O   0  0  0  0  0  0  0  0  0  0  0  0
   58.0761   72.8631   22.7273 C   0  0  0  0  0  0  0  0  0  0  0  0
   59.5010   72.7414   23.1104 O   0  0  0  0  0  0  0  0  0  0  0  0
   58.0106   73.5633   20.2592 C   0  0  0  0  0  0  0  0  0  0  0  0
   59.6393   74.9664   21.8934 H   0  0  0  0  0  0  0  0  0  0  0  0
   60.0462   72.6752   22.3109 H   0  0  0  0  0  0  0  0  0  0  0  0
   56.7660   73.6765   19.2731 N   0  0  0  0  0  0  0  0  0  0  0  0
   56.8008   73.3319   17.9234 C   0  0  0  0  0  0  0  0  0  0  0  0
   55.6463   73.4909   17.2996 C   0  0  0  0  0  0  0  0  0  0  0  0
   54.7948   73.9652   18.2823 C   0  0  0  0  0  0  0  0  0  0  0  0
   53.4142   74.3358   18.3026 C   0  0  0  0  0  0  0  0  0  0  0  0
   52.6334   74.2665   17.2178 N   0  0  0  0  0  0  0  0  0  0  0  0
   52.8912   74.7755   19.5067 N   0  0  0  0  0  0  0  0  0  0  0  0
   53.6675   74.8460   20.5998 C   0  0  0  0  0  0  0  0  0  0  0  0
   54.9749   74.5228   20.6912 N   0  0  0  0  0  0  0  0  0  0  0  0
   55.4696   74.0905   19.4967 C   0  0  0  0  0  0  0  0  0  0  0  0
   53.0064   73.9537   16.3620 H   0  0  0  0  0  0  0  0  0  0  0  0
   51.6862   74.5284   17.2755 H   0  0  0  0  0  0  0  0  0  0  0  0
   56.2648   71.3477   21.7232 C   0  0  0  0  0  0  0  0  0  0  0  0
   55.5143   69.7794   23.9161 C   0  0  0  0  0  0  0  0  0  0  0  0
   55.9303   69.6045   22.1356 S   0  0  0  0  0  0  0  0  0  0  0  0
 23 24  1  0  0  0
 24 22  1  0  0  0
 22  1  1  0  0  0
  1  2  1  0  0  0
  1  5  1  0  0  0
  2  7  1  0  0  0
  3  4  1  0  0  0
  3  5  1  0  0  0
  3  7  1  0  0  0
  5  6  1  0  0  0
  7 10  1  0  0  0
 10 11  1  0  0  0
 10 19  1  0  0  0
 11 12  2  0  0  0
 12 13  1  0  0  0
 13 14  2  0  0  0
 13 19  1  0  0  0
 14 15  1  0  0  0
 14 16  1  0  0  0
 16 17  2  0  0  0
 17 18  1  0  0  0
 18 19  2  0  0  0
  4  8  1  0  0  0
  6  9  1  0  0  0
 15 20  1  0  0  0
 15 21  1  0  0  0
M  END
> <minimizedAffinity>
-9.14662

$$$$
