4HFP_15U_B_402


 42 44  0  0  0  0  0  0  0  0999 V2000
    5.9609   14.3397    0.1510 C   0  0  0  0  0  0  0  0  0  0  0  0
    6.3905   14.6136   -1.2728 C   0  0  0  0  0  0  0  0  0  0  0  0
    6.5271   13.6714   -2.0344 O   0  0  0  0  0  0  0  0  0  0  0  0
    6.6113   15.8724   -1.6762 N   0  0  0  0  0  0  0  0  0  0  0  0
    6.4600   17.0076   -0.7434 C   0  0  0  0  0  0  0  0  0  0  0  0
    5.5595   18.0872   -1.3630 C   0  0  0  0  0  0  0  0  0  0  0  0
    5.9474   18.4393   -2.7979 C   0  0  0  0  0  0  0  0  0  0  0  0
    5.9740   17.1580   -3.6238 C   0  0  0  0  0  0  0  0  0  0  0  0
    7.0445   16.2419   -3.0348 C   0  0  0  0  0  0  0  0  0  0  0  0
    5.0282   19.4948   -3.4030 C   0  0  0  0  0  0  0  0  0  0  0  0
    7.8058   17.5275   -0.2979 C   0  0  0  0  0  0  0  0  0  0  0  0
    8.8232   17.1615   -0.9250 O   0  0  0  0  0  0  0  0  0  0  0  0
    7.8685   18.2988    0.6849 O   0  0  0  0  0  0  0  0  0  0  0  0
    7.0852   18.5528    1.1319 H   0  0  0  0  0  0  0  0  0  0  0  0
    4.9032   13.3451    0.2138 N   0  0  0  0  0  0  0  0  0  0  0  0
    5.1191   12.7353    1.0024 H   0  0  0  0  0  0  0  0  0  0  0  0
    3.3794   13.8053    0.3894 S   0  0  0  0  0  0  0  0  0  0  0  0
    2.5501   12.6332    0.4367 O   0  0  0  0  0  0  0  0  0  0  0  0
    3.2454   14.5285    1.6286 O   0  0  0  0  0  0  0  0  0  0  0  0
    3.3433   12.5388   -3.9416 C   0  0  0  0  0  0  0  0  0  0  0  0
    3.7342   13.6232   -4.9451 C   0  0  0  0  0  0  0  0  0  0  0  0
    2.8014   14.8216   -4.8000 C   0  0  0  0  0  0  0  0  0  0  0  0
    2.7291   15.2462   -3.3450 C   0  0  0  0  0  0  0  0  0  0  0  0
    2.3250   16.5370   -3.0047 C   0  0  0  0  0  0  0  0  0  0  0  0
    2.2608   16.9317   -1.6659 C   0  0  0  0  0  0  0  0  0  0  0  0
    2.5903   16.0691   -0.6160 C   0  0  0  0  0  0  0  0  0  0  0  0
    3.0012   14.7579   -0.8463 C   0  0  0  0  0  0  0  0  0  0  0  0
    3.0929   14.2891   -2.2588 C   0  0  0  0  0  0  0  0  0  0  0  0
    3.7345   13.0809   -6.3714 C   0  0  0  0  0  0  0  0  0  0  0  0
    3.4864   13.0325   -2.5788 N   0  0  0  0  0  0  0  0  0  0  0  0
    3.8715   12.4493   -1.8854 H   0  0  0  0  0  0  0  0  0  0  0  0
    7.1195   13.9014    1.0533 C   0  0  0  0  0  0  0  0  0  0  0  0
    7.4992   12.4348    0.8848 C   0  0  0  0  0  0  0  0  0  0  0  0
    8.8940   12.3092    0.2958 C   0  0  0  0  0  0  0  0  0  0  0  0
    9.7773   13.3191    0.8438 N   0  0  0  0  0  0  0  0  0  0  0  0
   10.0383   13.2453    1.7902 H   0  0  0  0  0  0  0  0  0  0  0  0
   10.2562   14.3438    0.1350 C   0  0  0  0  0  0  0  0  0  0  0  0
   10.1140   14.3178   -1.1909 N   0  0  0  0  0  0  0  0  0  0  0  0
   10.8345   15.3250    0.6931 N   0  0  0  0  0  0  0  0  0  0  0  0
   10.4582   15.0608   -1.7375 H   0  0  0  0  0  0  0  0  0  0  0  0
    9.6650   13.5557   -1.6230 H   0  0  0  0  0  0  0  0  0  0  0  0
   11.1791   16.0686    0.1475 H   0  0  0  0  0  0  0  0  0  0  0  0
 29 21  1  0  0  0
 21 22  1  0  0  0
 21 20  1  0  0  0
 22 23  1  0  0  0
 20 30  1  0  0  0
 23 24  2  0  0  0
 23 28  1  0  0  0
  8  9  1  0  0  0
  8  7  1  0  0  0
 24 25  1  0  0  0
 10  7  1  0  0  0
  9  4  1  0  0  0
 30 28  1  0  0  0
 28 27  2  0  0  0
  7  6  1  0  0  0
  3  2  2  0  0  0
 25 26  2  0  0  0
  4  2  1  0  0  0
  4  5  1  0  0  0
  2  1  1  0  0  0
 27 26  1  0  0  0
 27 17  1  0  0  0
  6  5  1  0  0  0
  5 11  1  0  0  0
 39 37  2  0  0  0
 12 11  2  0  0  0
 15  1  1  0  0  0
 15 17  1  0  0  0
 11 13  1  0  0  0
  1 32  1  0  0  0
 17 18  2  0  0  0
 17 19  2  0  0  0
 33 32  1  0  0  0
 33 34  1  0  0  0
 37 38  1  0  0  0
 37 35  1  0  0  0
 34 35  1  0  0  0
 30 31  1  0  0  0
 15 16  1  0  0  0
 35 36  1  0  0  0
 38 40  1  0  0  0
 38 41  1  0  0  0
 39 42  1  0  0  0
 13 14  1  0  0  0
M  END
> <minimizedAffinity>
-9.43960

$$$$
4HFP_15U_B_402


 42 44  0  0  0  0  0  0  0  0999 V2000
    3.7036   15.3115   -1.5152 C   0  0  0  0  0  0  0  0  0  0  0  0
    3.1583   15.7785   -2.8461 C   0  0  0  0  0  0  0  0  0  0  0  0
    3.1963   16.9684   -3.1092 O   0  0  0  0  0  0  0  0  0  0  0  0
    2.6478   14.8905   -3.7105 N   0  0  0  0  0  0  0  0  0  0  0  0
    2.5897   13.4526   -3.3780 C   0  0  0  0  0  0  0  0  0  0  0  0
    3.2011   12.6198   -4.5151 C   0  0  0  0  0  0  0  0  0  0  0  0
    2.6786   13.0156   -5.8949 C   0  0  0  0  0  0  0  0  0  0  0  0
    2.8954   14.5126   -6.0869 C   0  0  0  0  0  0  0  0  0  0  0  0
    2.0809   15.2452   -5.0229 C   0  0  0  0  0  0  0  0  0  0  0  0
    3.3144   12.1944   -7.0114 C   0  0  0  0  0  0  0  0  0  0  0  0
    1.1849   13.0358   -3.0134 C   0  0  0  0  0  0  0  0  0  0  0  0
    0.4102   13.8979   -2.5455 O   0  0  0  0  0  0  0  0  0  0  0  0
    0.8375   11.8457   -3.1798 O   0  0  0  0  0  0  0  0  0  0  0  0
    1.4445   11.2255   -3.5332 H   0  0  0  0  0  0  0  0  0  0  0  0
    5.0364   15.8339   -1.2649 N   0  0  0  0  0  0  0  0  0  0  0  0
    5.1180   15.9609   -0.2561 H   0  0  0  0  0  0  0  0  0  0  0  0
    6.3238   15.0035   -1.7316 S   0  0  0  0  0  0  0  0  0  0  0  0
    6.0083   13.6030   -1.6794 O   0  0  0  0  0  0  0  0  0  0  0  0
    6.6502   15.3635   -3.0882 O   0  0  0  0  0  0  0  0  0  0  0  0
    7.8517   19.1847   -0.9927 C   0  0  0  0  0  0  0  0  0  0  0  0
    9.3532   19.2974   -0.7314 C   0  0  0  0  0  0  0  0  0  0  0  0
    9.7339   18.4405    0.4718 C   0  0  0  0  0  0  0  0  0  0  0  0
    9.1846   17.0363    0.3000 C   0  0  0  0  0  0  0  0  0  0  0  0
    9.7421   15.9685    1.0029 C   0  0  0  0  0  0  0  0  0  0  0  0
    9.2406   14.6740    0.8439 C   0  0  0  0  0  0  0  0  0  0  0  0
    8.1720   14.3865   -0.0107 C   0  0  0  0  0  0  0  0  0  0  0  0
    7.5408   15.3808   -0.7550 C   0  0  0  0  0  0  0  0  0  0  0  0
    8.0428   16.7790   -0.6263 C   0  0  0  0  0  0  0  0  0  0  0  0
    9.7724   20.7521   -0.5403 C   0  0  0  0  0  0  0  0  0  0  0  0
    7.4937   17.8098   -1.3135 N   0  0  0  0  0  0  0  0  0  0  0  0
    6.8485   17.6282   -2.0346 H   0  0  0  0  0  0  0  0  0  0  0  0
    2.7926   15.6675   -0.3355 C   0  0  0  0  0  0  0  0  0  0  0  0
    2.3710   14.4592    0.4926 C   0  0  0  0  0  0  0  0  0  0  0  0
    3.0214   14.4999    1.8649 C   0  0  0  0  0  0  0  0  0  0  0  0
    4.4625   14.3921    1.7554 N   0  0  0  0  0  0  0  0  0  0  0  0
    4.9672   15.1832    1.4575 H   0  0  0  0  0  0  0  0  0  0  0  0
    5.1427   13.2785    2.0363 C   0  0  0  0  0  0  0  0  0  0  0  0
    5.3192   12.3823    1.0644 N   0  0  0  0  0  0  0  0  0  0  0  0
    5.6157   13.0629    3.1932 N   0  0  0  0  0  0  0  0  0  0  0  0
    5.8171   11.5523    1.2446 H   0  0  0  0  0  0  0  0  0  0  0  0
    4.9516   12.5507    0.1668 H   0  0  0  0  0  0  0  0  0  0  0  0
    6.1138   12.2333    3.3746 H   0  0  0  0  0  0  0  0  0  0  0  0
 29 21  1  0  0  0
 21 22  1  0  0  0
 21 20  1  0  0  0
 22 23  1  0  0  0
 20 30  1  0  0  0
 23 24  2  0  0  0
 23 28  1  0  0  0
  8  9  1  0  0  0
  8  7  1  0  0  0
 24 25  1  0  0  0
 10  7  1  0  0  0
  9  4  1  0  0  0
 30 28  1  0  0  0
 28 27  2  0  0  0
  7  6  1  0  0  0
  3  2  2  0  0  0
 25 26  2  0  0  0
  4  2  1  0  0  0
  4  5  1  0  0  0
  2  1  1  0  0  0
 27 26  1  0  0  0
 27 17  1  0  0  0
  6  5  1  0  0  0
  5 11  1  0  0  0
 39 37  2  0  0  0
 12 11  2  0  0  0
 15  1  1  0  0  0
 15 17  1  0  0  0
 11 13  1  0  0  0
  1 32  1  0  0  0
 17 18  2  0  0  0
 17 19  2  0  0  0
 33 32  1  0  0  0
 33 34  1  0  0  0
 37 38  1  0  0  0
 37 35  1  0  0  0
 34 35  1  0  0  0
 30 31  1  0  0  0
 15 16  1  0  0  0
 35 36  1  0  0  0
 38 40  1  0  0  0
 38 41  1  0  0  0
 39 42  1  0  0  0
 13 14  1  0  0  0
M  END
> <minimizedAffinity>
-8.69310

$$$$
4HFP_15U_B_402


 42 44  0  0  0  0  0  0  0  0999 V2000
    3.8499   16.3442   -1.8624 C   0  0  0  0  0  0  0  0  0  0  0  0
    2.9531   16.4547   -3.0750 C   0  0  0  0  0  0  0  0  0  0  0  0
    2.5159   17.5508   -3.3817 O   0  0  0  0  0  0  0  0  0  0  0  0
    2.6547   15.3613   -3.7903 N   0  0  0  0  0  0  0  0  0  0  0  0
    3.1744   14.0340   -3.4030 C   0  0  0  0  0  0  0  0  0  0  0  0
    3.8385   13.3517   -4.6087 C   0  0  0  0  0  0  0  0  0  0  0  0
    2.9799   13.3987   -5.8712 C   0  0  0  0  0  0  0  0  0  0  0  0
    2.6087   14.8502   -6.1542 C   0  0  0  0  0  0  0  0  0  0  0  0
    1.7816   15.3615   -4.9766 C   0  0  0  0  0  0  0  0  0  0  0  0
    3.6657   12.7377   -7.0620 C   0  0  0  0  0  0  0  0  0  0  0  0
    2.0978   13.1974   -2.7542 C   0  0  0  0  0  0  0  0  0  0  0  0
    2.1208   11.9595   -2.9256 O   0  0  0  0  0  0  0  0  0  0  0  0
    1.2124   13.7610   -2.0736 O   0  0  0  0  0  0  0  0  0  0  0  0
    1.2257   14.6917   -1.9658 H   0  0  0  0  0  0  0  0  0  0  0  0
    4.6721   17.5299   -1.6895 N   0  0  0  0  0  0  0  0  0  0  0  0
    4.8870   17.5964   -0.6946 H   0  0  0  0  0  0  0  0  0  0  0  0
    6.0629   17.6622   -2.4724 S   0  0  0  0  0  0  0  0  0  0  0  0
    6.1573   16.5883   -3.4219 O   0  0  0  0  0  0  0  0  0  0  0  0
    6.0891   18.9189   -3.1771 O   0  0  0  0  0  0  0  0  0  0  0  0
    7.5789   13.9200   -0.4573 C   0  0  0  0  0  0  0  0  0  0  0  0
    8.0701   14.1015    0.9784 C   0  0  0  0  0  0  0  0  0  0  0  0
    9.1884   15.1385    1.0145 C   0  0  0  0  0  0  0  0  0  0  0  0
    8.7488   16.3972    0.2898 C   0  0  0  0  0  0  0  0  0  0  0  0
    9.3740   17.6167    0.5488 C   0  0  0  0  0  0  0  0  0  0  0  0
    8.9689   18.7779   -0.1145 C   0  0  0  0  0  0  0  0  0  0  0  0
    7.9360   18.7783   -1.0567 C   0  0  0  0  0  0  0  0  0  0  0  0
    7.2493   17.6133   -1.3920 C   0  0  0  0  0  0  0  0  0  0  0  0
    7.6389   16.3474   -0.7071 C   0  0  0  0  0  0  0  0  0  0  0  0
    8.5165   12.7727    1.5811 C   0  0  0  0  0  0  0  0  0  0  0  0
    7.0252   15.1673   -0.9663 N   0  0  0  0  0  0  0  0  0  0  0  0
    6.1995   15.1530   -1.5022 H   0  0  0  0  0  0  0  0  0  0  0  0
    3.0766   16.0734   -0.5673 C   0  0  0  0  0  0  0  0  0  0  0  0
    3.9203   15.4130    0.5170 C   0  0  0  0  0  0  0  0  0  0  0  0
    3.0380   14.6409    1.4831 C   0  0  0  0  0  0  0  0  0  0  0  0
    3.8042   14.1778    2.6227 N   0  0  0  0  0  0  0  0  0  0  0  0
    3.7028   14.6562    3.4772 H   0  0  0  0  0  0  0  0  0  0  0  0
    4.6399   13.1380    2.5768 C   0  0  0  0  0  0  0  0  0  0  0  0
    5.5099   12.9805    3.5754 N   0  0  0  0  0  0  0  0  0  0  0  0
    4.6199   12.3116    1.6149 N   0  0  0  0  0  0  0  0  0  0  0  0
    6.1376   12.2220    3.5663 H   0  0  0  0  0  0  0  0  0  0  0  0
    5.5245   13.6226    4.3215 H   0  0  0  0  0  0  0  0  0  0  0  0
    5.2471   11.5528    1.6047 H   0  0  0  0  0  0  0  0  0  0  0  0
 29 21  1  0  0  0
 21 22  1  0  0  0
 21 20  1  0  0  0
 22 23  1  0  0  0
 20 30  1  0  0  0
 23 24  2  0  0  0
 23 28  1  0  0  0
  8  9  1  0  0  0
  8  7  1  0  0  0
 24 25  1  0  0  0
 10  7  1  0  0  0
  9  4  1  0  0  0
 30 28  1  0  0  0
 28 27  2  0  0  0
  7  6  1  0  0  0
  3  2  2  0  0  0
 25 26  2  0  0  0
  4  2  1  0  0  0
  4  5  1  0  0  0
  2  1  1  0  0  0
 27 26  1  0  0  0
 27 17  1  0  0  0
  6  5  1  0  0  0
  5 11  1  0  0  0
 39 37  2  0  0  0
 12 11  2  0  0  0
 15  1  1  0  0  0
 15 17  1  0  0  0
 11 13  1  0  0  0
  1 32  1  0  0  0
 17 18  2  0  0  0
 17 19  2  0  0  0
 33 32  1  0  0  0
 33 34  1  0  0  0
 37 38  1  0  0  0
 37 35  1  0  0  0
 34 35  1  0  0  0
 30 31  1  0  0  0
 15 16  1  0  0  0
 35 36  1  0  0  0
 38 40  1  0  0  0
 38 41  1  0  0  0
 39 42  1  0  0  0
 13 14  1  0  0  0
M  END
> <minimizedAffinity>
-8.52416

$$$$
4HFP_15U_B_402


 42 44  0  0  0  0  0  0  0  0999 V2000
    6.4364   14.3007    0.5728 C   0  0  0  0  0  0  0  0  0  0  0  0
    6.7358   14.4905   -0.8973 C   0  0  0  0  0  0  0  0  0  0  0  0
    6.8822   13.5028   -1.5970 O   0  0  0  0  0  0  0  0  0  0  0  0
    6.8335   15.7258   -1.4077 N   0  0  0  0  0  0  0  0  0  0  0  0
    6.6716   16.9177   -0.5507 C   0  0  0  0  0  0  0  0  0  0  0  0
    5.6508   17.8833   -1.1720 C   0  0  0  0  0  0  0  0  0  0  0  0
    5.9023   18.1473   -2.6555 C   0  0  0  0  0  0  0  0  0  0  0  0
    5.9590   16.8099   -3.3855 C   0  0  0  0  0  0  0  0  0  0  0  0
    7.1347   16.0159   -2.8202 C   0  0  0  0  0  0  0  0  0  0  0  0
    4.8657   19.0887   -3.2592 C   0  0  0  0  0  0  0  0  0  0  0  0
    8.0060   17.5593   -0.2548 C   0  0  0  0  0  0  0  0  0  0  0  0
    8.2380   18.6949   -0.7226 O   0  0  0  0  0  0  0  0  0  0  0  0
    8.8421   16.9393    0.4389 O   0  0  0  0  0  0  0  0  0  0  0  0
    8.6348   16.0891    0.7738 H   0  0  0  0  0  0  0  0  0  0  0  0
    5.3195   13.3951    0.7836 N   0  0  0  0  0  0  0  0  0  0  0  0
    5.5885   12.7677    1.5415 H   0  0  0  0  0  0  0  0  0  0  0  0
    3.8748   13.9770    1.1562 S   0  0  0  0  0  0  0  0  0  0  0  0
    3.6775   13.8394    2.5725 O   0  0  0  0  0  0  0  0  0  0  0  0
    3.8250   15.3740    0.8063 O   0  0  0  0  0  0  0  0  0  0  0  0
    3.8357   13.5604   -3.3369 C   0  0  0  0  0  0  0  0  0  0  0  0
    2.4498   13.4783   -3.9757 C   0  0  0  0  0  0  0  0  0  0  0  0
    1.6800   12.2988   -3.3895 C   0  0  0  0  0  0  0  0  0  0  0  0
    1.7195   12.3588   -1.8737 C   0  0  0  0  0  0  0  0  0  0  0  0
    0.7597   11.6895   -1.1148 C   0  0  0  0  0  0  0  0  0  0  0  0
    0.7916   11.7459    0.2810 C   0  0  0  0  0  0  0  0  0  0  0  0
    1.7703   12.4613    0.9777 C   0  0  0  0  0  0  0  0  0  0  0  0
    2.7772   13.1607    0.3158 C   0  0  0  0  0  0  0  0  0  0  0  0
    2.7839   13.1379   -1.1751 C   0  0  0  0  0  0  0  0  0  0  0  0
    2.5474   13.3858   -5.4957 C   0  0  0  0  0  0  0  0  0  0  0  0
    3.7214   13.7914   -1.9034 N   0  0  0  0  0  0  0  0  0  0  0  0
    4.3294   14.4266   -1.4605 H   0  0  0  0  0  0  0  0  0  0  0  0
    7.6460   13.8043    1.3720 C   0  0  0  0  0  0  0  0  0  0  0  0
    7.8336   12.2926    1.3137 C   0  0  0  0  0  0  0  0  0  0  0  0
    9.1101   11.9419    0.5684 C   0  0  0  0  0  0  0  0  0  0  0  0
   10.1656   12.8838    0.8832 N   0  0  0  0  0  0  0  0  0  0  0  0
   10.6424   12.7800    1.7382 H   0  0  0  0  0  0  0  0  0  0  0  0
   10.5265   13.8844    0.0768 C   0  0  0  0  0  0  0  0  0  0  0  0
   10.1934   13.8100   -1.2126 N   0  0  0  0  0  0  0  0  0  0  0  0
   11.1702   14.8878    0.5100 N   0  0  0  0  0  0  0  0  0  0  0  0
   10.4472   14.5343   -1.8291 H   0  0  0  0  0  0  0  0  0  0  0  0
    9.6937   13.0307   -1.5477 H   0  0  0  0  0  0  0  0  0  0  0  0
   11.4245   15.6127   -0.1056 H   0  0  0  0  0  0  0  0  0  0  0  0
 29 21  1  0  0  0
 21 22  1  0  0  0
 21 20  1  0  0  0
 22 23  1  0  0  0
 20 30  1  0  0  0
 23 24  2  0  0  0
 23 28  1  0  0  0
  8  9  1  0  0  0
  8  7  1  0  0  0
 24 25  1  0  0  0
 10  7  1  0  0  0
  9  4  1  0  0  0
 30 28  1  0  0  0
 28 27  2  0  0  0
  7  6  1  0  0  0
  3  2  2  0  0  0
 25 26  2  0  0  0
  4  2  1  0  0  0
  4  5  1  0  0  0
  2  1  1  0  0  0
 27 26  1  0  0  0
 27 17  1  0  0  0
  6  5  1  0  0  0
  5 11  1  0  0  0
 39 37  2  0  0  0
 12 11  2  0  0  0
 15  1  1  0  0  0
 15 17  1  0  0  0
 11 13  1  0  0  0
  1 32  1  0  0  0
 17 18  2  0  0  0
 17 19  2  0  0  0
 33 32  1  0  0  0
 33 34  1  0  0  0
 37 38  1  0  0  0
 37 35  1  0  0  0
 34 35  1  0  0  0
 30 31  1  0  0  0
 15 16  1  0  0  0
 35 36  1  0  0  0
 38 40  1  0  0  0
 38 41  1  0  0  0
 39 42  1  0  0  0
 13 14  1  0  0  0
M  END
> <minimizedAffinity>
-8.17542

$$$$
4HFP_15U_B_402


 42 44  0  0  0  0  0  0  0  0999 V2000
    6.0638   14.3532   -0.0484 C   0  0  0  0  0  0  0  0  0  0  0  0
    6.0573   14.5488   -1.5479 C   0  0  0  0  0  0  0  0  0  0  0  0
    5.7263   13.6151   -2.2586 O   0  0  0  0  0  0  0  0  0  0  0  0
    6.4092   15.7313   -2.0714 N   0  0  0  0  0  0  0  0  0  0  0  0
    6.8252   16.8529   -1.2050 C   0  0  0  0  0  0  0  0  0  0  0  0
    6.0362   18.1215   -1.5636 C   0  0  0  0  0  0  0  0  0  0  0  0
    6.0053   18.4030   -3.0647 C   0  0  0  0  0  0  0  0  0  0  0  0
    5.4768   17.1656   -3.7817 C   0  0  0  0  0  0  0  0  0  0  0  0
    6.4486   16.0179   -3.5157 C   0  0  0  0  0  0  0  0  0  0  0  0
    5.1983   19.6520   -3.4023 C   0  0  0  0  0  0  0  0  0  0  0  0
    8.3227   17.0428   -1.2442 C   0  0  0  0  0  0  0  0  0  0  0  0
    8.7926   18.1469   -0.8940 O   0  0  0  0  0  0  0  0  0  0  0  0
    9.0487   16.1004   -1.6308 O   0  0  0  0  0  0  0  0  0  0  0  0
    8.6625   15.2858   -1.8861 H   0  0  0  0  0  0  0  0  0  0  0  0
    5.0460   13.4070    0.3767 N   0  0  0  0  0  0  0  0  0  0  0  0
    5.4951   12.7654    1.0302 H   0  0  0  0  0  0  0  0  0  0  0  0
    3.7108   13.9318    1.0885 S   0  0  0  0  0  0  0  0  0  0  0  0
    3.8883   13.8489    2.5117 O   0  0  0  0  0  0  0  0  0  0  0  0
    3.4896   15.3072    0.7198 O   0  0  0  0  0  0  0  0  0  0  0  0
    2.4055   13.5034   -3.2098 C   0  0  0  0  0  0  0  0  0  0  0  0
    0.9055   13.3031   -3.4226 C   0  0  0  0  0  0  0  0  0  0  0  0
    0.4373   12.0642   -2.6655 C   0  0  0  0  0  0  0  0  0  0  0  0
    0.9093   12.1306   -1.2248 C   0  0  0  0  0  0  0  0  0  0  0  0
    0.2685   11.3844   -0.2361 C   0  0  0  0  0  0  0  0  0  0  0  0
    0.6988   11.4463    1.0918 C   0  0  0  0  0  0  0  0  0  0  0  0
    1.7756   12.2433    1.4918 C   0  0  0  0  0  0  0  0  0  0  0  0
    2.4870   13.0238    0.5831 C   0  0  0  0  0  0  0  0  0  0  0  0
    2.0633   12.9984   -0.8463 C   0  0  0  0  0  0  0  0  0  0  0  0
    0.5656   13.2158   -4.9076 C   0  0  0  0  0  0  0  0  0  0  0  0
    2.6931   13.7271   -1.7996 N   0  0  0  0  0  0  0  0  0  0  0  0
    3.3494   14.4123   -1.5372 H   0  0  0  0  0  0  0  0  0  0  0  0
    7.4260   13.9052    0.4921 C   0  0  0  0  0  0  0  0  0  0  0  0
    7.4029   12.5173    1.1221 C   0  0  0  0  0  0  0  0  0  0  0  0
    8.8048   12.0899    1.5223 C   0  0  0  0  0  0  0  0  0  0  0  0
    9.1339   10.8007    0.9479 N   0  0  0  0  0  0  0  0  0  0  0  0
    8.5684   10.0292    1.1811 H   0  0  0  0  0  0  0  0  0  0  0  0
   10.1619   10.6024    0.1199 C   0  0  0  0  0  0  0  0  0  0  0  0
   10.8017    9.4333    0.1736 N   0  0  0  0  0  0  0  0  0  0  0  0
   10.5335   11.4930   -0.7031 N   0  0  0  0  0  0  0  0  0  0  0  0
   11.5633    9.2610   -0.4259 H   0  0  0  0  0  0  0  0  0  0  0  0
   10.5124    8.7428    0.8129 H   0  0  0  0  0  0  0  0  0  0  0  0
   11.2950   11.3218   -1.3032 H   0  0  0  0  0  0  0  0  0  0  0  0
 29 21  1  0  0  0
 21 22  1  0  0  0
 21 20  1  0  0  0
 22 23  1  0  0  0
 20 30  1  0  0  0
 23 24  2  0  0  0
 23 28  1  0  0  0
  8  9  1  0  0  0
  8  7  1  0  0  0
 24 25  1  0  0  0
 10  7  1  0  0  0
  9  4  1  0  0  0
 30 28  1  0  0  0
 28 27  2  0  0  0
  7  6  1  0  0  0
  3  2  2  0  0  0
 25 26  2  0  0  0
  4  2  1  0  0  0
  4  5  1  0  0  0
  2  1  1  0  0  0
 27 26  1  0  0  0
 27 17  1  0  0  0
  6  5  1  0  0  0
  5 11  1  0  0  0
 39 37  2  0  0  0
 12 11  2  0  0  0
 15  1  1  0  0  0
 15 17  1  0  0  0
 11 13  1  0  0  0
  1 32  1  0  0  0
 17 18  2  0  0  0
 17 19  2  0  0  0
 33 32  1  0  0  0
 33 34  1  0  0  0
 37 38  1  0  0  0
 37 35  1  0  0  0
 34 35  1  0  0  0
 30 31  1  0  0  0
 15 16  1  0  0  0
 35 36  1  0  0  0
 38 40  1  0  0  0
 38 41  1  0  0  0
 39 42  1  0  0  0
 13 14  1  0  0  0
M  END
> <minimizedAffinity>
-7.97455

$$$$
4HFP_15U_B_402


 42 44  0  0  0  0  0  0  0  0999 V2000
    6.1431   14.3500    0.2123 C   0  0  0  0  0  0  0  0  0  0  0  0
    6.3929   14.5694   -1.2629 C   0  0  0  0  0  0  0  0  0  0  0  0
    6.3682   13.6064   -2.0103 O   0  0  0  0  0  0  0  0  0  0  0  0
    6.6336   15.8038   -1.7260 N   0  0  0  0  0  0  0  0  0  0  0  0
    6.6787   16.9634   -0.8122 C   0  0  0  0  0  0  0  0  0  0  0  0
    5.7704   18.0867   -1.3351 C   0  0  0  0  0  0  0  0  0  0  0  0
    5.9823   18.3867   -2.8179 C   0  0  0  0  0  0  0  0  0  0  0  0
    5.8193   17.0912   -3.6052 C   0  0  0  0  0  0  0  0  0  0  0  0
    6.9016   16.1196   -3.1396 C   0  0  0  0  0  0  0  0  0  0  0  0
    5.0558   19.4873   -3.3234 C   0  0  0  0  0  0  0  0  0  0  0  0
    8.1013   17.4044   -0.5642 C   0  0  0  0  0  0  0  0  0  0  0  0
    8.3039   18.3371    0.2429 O   0  0  0  0  0  0  0  0  0  0  0  0
    9.0332   16.8350   -1.1742 O   0  0  0  0  0  0  0  0  0  0  0  0
    8.8451   16.1388   -1.7724 H   0  0  0  0  0  0  0  0  0  0  0  0
    5.0986   13.3662    0.4423 N   0  0  0  0  0  0  0  0  0  0  0  0
    5.4167   12.7729    1.2086 H   0  0  0  0  0  0  0  0  0  0  0  0
    3.6153   13.8433    0.8125 S   0  0  0  0  0  0  0  0  0  0  0  0
    3.5115   15.2534    0.5581 O   0  0  0  0  0  0  0  0  0  0  0  0
    2.6728   13.1425   -0.0225 O   0  0  0  0  0  0  0  0  0  0  0  0
   -0.4558   13.5205    2.7321 C   0  0  0  0  0  0  0  0  0  0  0  0
   -0.5269   13.9549    4.1956 C   0  0  0  0  0  0  0  0  0  0  0  0
    0.4497   13.1292    5.0274 C   0  0  0  0  0  0  0  0  0  0  0  0
    1.8241   13.1535    4.3846 C   0  0  0  0  0  0  0  0  0  0  0  0
    2.9623   12.8701    5.1391 C   0  0  0  0  0  0  0  0  0  0  0  0
    4.2294   12.8952    4.5506 C   0  0  0  0  0  0  0  0  0  0  0  0
    4.4195   13.1980    3.1990 C   0  0  0  0  0  0  0  0  0  0  0  0
    3.3495   13.4913    2.3561 C   0  0  0  0  0  0  0  0  0  0  0  0
    1.9763   13.4845    2.9370 C   0  0  0  0  0  0  0  0  0  0  0  0
   -1.9509   13.8506    4.7336 C   0  0  0  0  0  0  0  0  0  0  0  0
    0.8766   13.7609    2.1950 N   0  0  0  0  0  0  0  0  0  0  0  0
    0.9789   14.1267    1.2867 H   0  0  0  0  0  0  0  0  0  0  0  0
    7.4037   13.9357    0.9789 C   0  0  0  0  0  0  0  0  0  0  0  0
    7.6937   12.4409    0.9085 C   0  0  0  0  0  0  0  0  0  0  0  0
    9.0630   12.1913    0.2996 C   0  0  0  0  0  0  0  0  0  0  0  0
   10.0335   13.1397    0.8084 N   0  0  0  0  0  0  0  0  0  0  0  0
   10.3373   13.0407    1.7396 H   0  0  0  0  0  0  0  0  0  0  0  0
   10.5380   14.1403    0.0830 C   0  0  0  0  0  0  0  0  0  0  0  0
   10.4910   14.0447   -1.2464 N   0  0  0  0  0  0  0  0  0  0  0  0
   11.0527   15.1629    0.6290 N   0  0  0  0  0  0  0  0  0  0  0  0
   10.8559   14.7685   -1.8052 H   0  0  0  0  0  0  0  0  0  0  0  0
   10.0913   13.2505   -1.6690 H   0  0  0  0  0  0  0  0  0  0  0  0
   11.4179   15.8873    0.0713 H   0  0  0  0  0  0  0  0  0  0  0  0
 29 21  1  0  0  0
 21 22  1  0  0  0
 21 20  1  0  0  0
 22 23  1  0  0  0
 20 30  1  0  0  0
 23 24  2  0  0  0
 23 28  1  0  0  0
  8  9  1  0  0  0
  8  7  1  0  0  0
 24 25  1  0  0  0
 10  7  1  0  0  0
  9  4  1  0  0  0
 30 28  1  0  0  0
 28 27  2  0  0  0
  7  6  1  0  0  0
  3  2  2  0  0  0
 25 26  2  0  0  0
  4  2  1  0  0  0
  4  5  1  0  0  0
  2  1  1  0  0  0
 27 26  1  0  0  0
 27 17  1  0  0  0
  6  5  1  0  0  0
  5 11  1  0  0  0
 39 37  2  0  0  0
 12 11  2  0  0  0
 15  1  1  0  0  0
 15 17  1  0  0  0
 11 13  1  0  0  0
  1 32  1  0  0  0
 17 18  2  0  0  0
 17 19  2  0  0  0
 33 32  1  0  0  0
 33 34  1  0  0  0
 37 38  1  0  0  0
 37 35  1  0  0  0
 34 35  1  0  0  0
 30 31  1  0  0  0
 15 16  1  0  0  0
 35 36  1  0  0  0
 38 40  1  0  0  0
 38 41  1  0  0  0
 39 42  1  0  0  0
 13 14  1  0  0  0
M  END
> <minimizedAffinity>
-7.92652

$$$$
4HFP_15U_B_402


 42 44  0  0  0  0  0  0  0  0999 V2000
    7.7522   15.2313    0.1970 C   0  0  0  0  0  0  0  0  0  0  0  0
    7.5819   16.7124   -0.0561 C   0  0  0  0  0  0  0  0  0  0  0  0
    8.3355   17.4919    0.5017 O   0  0  0  0  0  0  0  0  0  0  0  0
    6.6186   17.1454   -0.8811 N   0  0  0  0  0  0  0  0  0  0  0  0
    5.6986   16.1963   -1.5403 C   0  0  0  0  0  0  0  0  0  0  0  0
    5.6509   16.4666   -3.0519 C   0  0  0  0  0  0  0  0  0  0  0  0
    5.4542   17.9432   -3.3902 C   0  0  0  0  0  0  0  0  0  0  0  0
    6.5383   18.7526   -2.6872 C   0  0  0  0  0  0  0  0  0  0  0  0
    6.3629   18.5645   -1.1819 C   0  0  0  0  0  0  0  0  0  0  0  0
    5.4331   18.1941   -4.8941 C   0  0  0  0  0  0  0  0  0  0  0  0
    4.3399   16.2108   -0.8818 C   0  0  0  0  0  0  0  0  0  0  0  0
    3.3293   16.0395   -1.5972 O   0  0  0  0  0  0  0  0  0  0  0  0
    4.2603   16.4006    0.3520 O   0  0  0  0  0  0  0  0  0  0  0  0
    5.0390   16.5254    0.8580 H   0  0  0  0  0  0  0  0  0  0  0  0
    6.4941   14.5963    0.5518 N   0  0  0  0  0  0  0  0  0  0  0  0
    6.0155   14.3822   -0.3232 H   0  0  0  0  0  0  0  0  0  0  0  0
    6.4921   13.2510    1.4206 S   0  0  0  0  0  0  0  0  0  0  0  0
    6.6156   12.1308    0.5296 O   0  0  0  0  0  0  0  0  0  0  0  0
    7.6202   13.2674    2.3171 O   0  0  0  0  0  0  0  0  0  0  0  0
    2.3595   13.0044   -0.3748 C   0  0  0  0  0  0  0  0  0  0  0  0
    1.2605   13.7216    0.4084 C   0  0  0  0  0  0  0  0  0  0  0  0
    1.1889   13.1638    1.8265 C   0  0  0  0  0  0  0  0  0  0  0  0
    2.5713   13.1655    2.4523 C   0  0  0  0  0  0  0  0  0  0  0  0
    2.7195   13.1338    3.8387 C   0  0  0  0  0  0  0  0  0  0  0  0
    3.9912   13.1388    4.4176 C   0  0  0  0  0  0  0  0  0  0  0  0
    5.1606   13.1732    3.6520 C   0  0  0  0  0  0  0  0  0  0  0  0
    5.1242   13.2019    2.2595 C   0  0  0  0  0  0  0  0  0  0  0  0
    3.7908   13.2047    1.5923 C   0  0  0  0  0  0  0  0  0  0  0  0
   -0.0841   13.6165   -0.3052 C   0  0  0  0  0  0  0  0  0  0  0  0
    3.6576   13.2352    0.2441 N   0  0  0  0  0  0  0  0  0  0  0  0
    4.4436   13.4146   -0.3210 H   0  0  0  0  0  0  0  0  0  0  0  0
    8.3755   14.4879   -0.9894 C   0  0  0  0  0  0  0  0  0  0  0  0
    9.8915   14.3592   -0.8968 C   0  0  0  0  0  0  0  0  0  0  0  0
   10.3006   12.8970   -0.8462 C   0  0  0  0  0  0  0  0  0  0  0  0
    9.4424   12.1529    0.0539 N   0  0  0  0  0  0  0  0  0  0  0  0
    8.7244   12.6388    0.5204 H   0  0  0  0  0  0  0  0  0  0  0  0
    9.5726   10.8447    0.2848 C   0  0  0  0  0  0  0  0  0  0  0  0
    8.9147   10.3155    1.3173 N   0  0  0  0  0  0  0  0  0  0  0  0
   10.2998   10.1095   -0.4497 N   0  0  0  0  0  0  0  0  0  0  0  0
    8.9932    9.3533    1.5100 H   0  0  0  0  0  0  0  0  0  0  0  0
    8.3506   10.8872    1.8867 H   0  0  0  0  0  0  0  0  0  0  0  0
   10.3790    9.1472   -0.2580 H   0  0  0  0  0  0  0  0  0  0  0  0
 29 21  1  0  0  0
 21 22  1  0  0  0
 21 20  1  0  0  0
 22 23  1  0  0  0
 20 30  1  0  0  0
 23 24  2  0  0  0
 23 28  1  0  0  0
  8  9  1  0  0  0
  8  7  1  0  0  0
 24 25  1  0  0  0
 10  7  1  0  0  0
  9  4  1  0  0  0
 30 28  1  0  0  0
 28 27  2  0  0  0
  7  6  1  0  0  0
  3  2  2  0  0  0
 25 26  2  0  0  0
  4  2  1  0  0  0
  4  5  1  0  0  0
  2  1  1  0  0  0
 27 26  1  0  0  0
 27 17  1  0  0  0
  6  5  1  0  0  0
  5 11  1  0  0  0
 39 37  2  0  0  0
 12 11  2  0  0  0
 15  1  1  0  0  0
 15 17  1  0  0  0
 11 13  1  0  0  0
  1 32  1  0  0  0
 17 18  2  0  0  0
 17 19  2  0  0  0
 33 32  1  0  0  0
 33 34  1  0  0  0
 37 38  1  0  0  0
 37 35  1  0  0  0
 34 35  1  0  0  0
 30 31  1  0  0  0
 15 16  1  0  0  0
 35 36  1  0  0  0
 38 40  1  0  0  0
 38 41  1  0  0  0
 39 42  1  0  0  0
 13 14  1  0  0  0
M  END
> <minimizedAffinity>
-7.73475

$$$$
4HFP_15U_B_402


 42 44  0  0  0  0  0  0  0  0999 V2000
    6.3780   14.4370    0.4177 C   0  0  0  0  0  0  0  0  0  0  0  0
    6.3445   14.5071   -1.0925 C   0  0  0  0  0  0  0  0  0  0  0  0
    6.1027   13.4902   -1.7203 O   0  0  0  0  0  0  0  0  0  0  0  0
    6.5761   15.6710   -1.7151 N   0  0  0  0  0  0  0  0  0  0  0  0
    6.8850   16.8952   -0.9485 C   0  0  0  0  0  0  0  0  0  0  0  0
    5.9736   18.0473   -1.3987 C   0  0  0  0  0  0  0  0  0  0  0  0
    5.9074   18.2000   -2.9171 C   0  0  0  0  0  0  0  0  0  0  0  0
    5.4988   16.8623   -3.5240 C   0  0  0  0  0  0  0  0  0  0  0  0
    6.5797   15.8402   -3.1784 C   0  0  0  0  0  0  0  0  0  0  0  0
    4.9802   19.3327   -3.3445 C   0  0  0  0  0  0  0  0  0  0  0  0
    8.3564   17.2258   -1.0229 C   0  0  0  0  0  0  0  0  0  0  0  0
    9.1687   16.2921   -1.1980 O   0  0  0  0  0  0  0  0  0  0  0  0
    8.7227   18.4155   -0.9001 O   0  0  0  0  0  0  0  0  0  0  0  0
    8.0862   19.0907   -0.7699 H   0  0  0  0  0  0  0  0  0  0  0  0
    5.0501   14.5675    0.9936 N   0  0  0  0  0  0  0  0  0  0  0  0
    4.3913   14.5773    0.2150 H   0  0  0  0  0  0  0  0  0  0  0  0
    4.5173   13.4744    2.0357 S   0  0  0  0  0  0  0  0  0  0  0  0
    4.3058   12.2386    1.3344 O   0  0  0  0  0  0  0  0  0  0  0  0
    5.5133   13.2728    3.0575 O   0  0  0  0  0  0  0  0  0  0  0  0
    0.7845   14.5587   -0.2563 C   0  0  0  0  0  0  0  0  0  0  0  0
   -0.0276   15.7165    0.3230 C   0  0  0  0  0  0  0  0  0  0  0  0
   -0.4358   15.3942    1.7572 C   0  0  0  0  0  0  0  0  0  0  0  0
    0.7799   14.9600    2.5548 C   0  0  0  0  0  0  0  0  0  0  0  0
    0.7764   15.0383    3.9472 C   0  0  0  0  0  0  0  0  0  0  0  0
    1.8958   14.6424    4.6840 C   0  0  0  0  0  0  0  0  0  0  0  0
    3.0560   14.1540    4.0757 C   0  0  0  0  0  0  0  0  0  0  0  0
    3.1619   14.0309    2.6919 C   0  0  0  0  0  0  0  0  0  0  0  0
    1.9968   14.4465    1.8593 C   0  0  0  0  0  0  0  0  0  0  0  0
   -1.2396   16.0311   -0.5489 C   0  0  0  0  0  0  0  0  0  0  0  0
    2.0101   14.3660    0.5066 N   0  0  0  0  0  0  0  0  0  0  0  0
    2.8539   14.1759    0.0365 H   0  0  0  0  0  0  0  0  0  0  0  0
    7.0323   13.1552    0.9443 C   0  0  0  0  0  0  0  0  0  0  0  0
    8.5419   13.2721    1.1203 C   0  0  0  0  0  0  0  0  0  0  0  0
    9.1629   11.9005    1.3238 C   0  0  0  0  0  0  0  0  0  0  0  0
   10.1247   11.6105    0.2791 N   0  0  0  0  0  0  0  0  0  0  0  0
   10.6090   12.3637   -0.1299 H   0  0  0  0  0  0  0  0  0  0  0  0
   10.3895   10.3776   -0.1586 C   0  0  0  0  0  0  0  0  0  0  0  0
    9.9960    9.3433    0.5859 N   0  0  0  0  0  0  0  0  0  0  0  0
   10.9990   10.1777   -1.2528 N   0  0  0  0  0  0  0  0  0  0  0  0
   10.1786    8.4235    0.2864 H   0  0  0  0  0  0  0  0  0  0  0  0
    9.5229    9.4998    1.4350 H   0  0  0  0  0  0  0  0  0  0  0  0
   11.1822    9.2582   -1.5533 H   0  0  0  0  0  0  0  0  0  0  0  0
 29 21  1  0  0  0
 21 22  1  0  0  0
 21 20  1  0  0  0
 22 23  1  0  0  0
 20 30  1  0  0  0
 23 24  2  0  0  0
 23 28  1  0  0  0
  8  9  1  0  0  0
  8  7  1  0  0  0
 24 25  1  0  0  0
 10  7  1  0  0  0
  9  4  1  0  0  0
 30 28  1  0  0  0
 28 27  2  0  0  0
  7  6  1  0  0  0
  3  2  2  0  0  0
 25 26  2  0  0  0
  4  2  1  0  0  0
  4  5  1  0  0  0
  2  1  1  0  0  0
 27 26  1  0  0  0
 27 17  1  0  0  0
  6  5  1  0  0  0
  5 11  1  0  0  0
 39 37  2  0  0  0
 12 11  2  0  0  0
 15  1  1  0  0  0
 15 17  1  0  0  0
 11 13  1  0  0  0
  1 32  1  0  0  0
 17 18  2  0  0  0
 17 19  2  0  0  0
 33 32  1  0  0  0
 33 34  1  0  0  0
 37 38  1  0  0  0
 37 35  1  0  0  0
 34 35  1  0  0  0
 30 31  1  0  0  0
 15 16  1  0  0  0
 35 36  1  0  0  0
 38 40  1  0  0  0
 38 41  1  0  0  0
 39 42  1  0  0  0
 13 14  1  0  0  0
M  END
> <minimizedAffinity>
-7.71740

$$$$
4HFP_15U_B_402


 42 44  0  0  0  0  0  0  0  0999 V2000
    5.7722   14.3084   -0.4991 C   0  0  0  0  0  0  0  0  0  0  0  0
    5.7920   14.6649   -1.9686 C   0  0  0  0  0  0  0  0  0  0  0  0
    5.3894   13.8442   -2.7753 O   0  0  0  0  0  0  0  0  0  0  0  0
    6.2442   15.8636   -2.3618 N   0  0  0  0  0  0  0  0  0  0  0  0
    6.7462   16.8464   -1.3801 C   0  0  0  0  0  0  0  0  0  0  0  0
    6.0675   18.2076   -1.5974 C   0  0  0  0  0  0  0  0  0  0  0  0
    6.0701   18.6513   -3.0591 C   0  0  0  0  0  0  0  0  0  0  0  0
    5.4455   17.5469   -3.9046 C   0  0  0  0  0  0  0  0  0  0  0  0
    6.3169   16.3003   -3.7667 C   0  0  0  0  0  0  0  0  0  0  0  0
    5.3718   19.9923   -3.2576 C   0  0  0  0  0  0  0  0  0  0  0  0
    8.2544   16.9142   -1.4020 C   0  0  0  0  0  0  0  0  0  0  0  0
    8.8101   17.9549   -0.9890 O   0  0  0  0  0  0  0  0  0  0  0  0
    8.9042   15.9380   -1.8373 O   0  0  0  0  0  0  0  0  0  0  0  0
    8.4547   15.1732   -2.1392 H   0  0  0  0  0  0  0  0  0  0  0  0
    4.4947   13.7437   -0.0979 N   0  0  0  0  0  0  0  0  0  0  0  0
    4.6849   13.1042    0.6736 H   0  0  0  0  0  0  0  0  0  0  0  0
    3.3080   14.7062    0.3818 S   0  0  0  0  0  0  0  0  0  0  0  0
    3.8289   16.0370    0.5277 O   0  0  0  0  0  0  0  0  0  0  0  0
    2.2720   14.7121   -0.6199 O   0  0  0  0  0  0  0  0  0  0  0  0
    0.6952   11.0489    0.7826 C   0  0  0  0  0  0  0  0  0  0  0  0
   -0.3364   11.1004    1.9090 C   0  0  0  0  0  0  0  0  0  0  0  0
    0.3674   11.3215    3.2443 C   0  0  0  0  0  0  0  0  0  0  0  0
    1.3101   12.5061    3.1409 C   0  0  0  0  0  0  0  0  0  0  0  0
    1.7241   13.1821    4.2885 C   0  0  0  0  0  0  0  0  0  0  0  0
    2.5893   14.2754    4.1959 C   0  0  0  0  0  0  0  0  0  0  0  0
    3.0782   14.7396    2.9711 C   0  0  0  0  0  0  0  0  0  0  0  0
    2.7306   14.1332    1.7659 C   0  0  0  0  0  0  0  0  0  0  0  0
    1.8039   12.9658    1.8094 C   0  0  0  0  0  0  0  0  0  0  0  0
   -1.1953    9.8393    1.9287 C   0  0  0  0  0  0  0  0  0  0  0  0
    1.4080   12.3156    0.6884 N   0  0  0  0  0  0  0  0  0  0  0  0
    1.6034   12.7019   -0.1958 H   0  0  0  0  0  0  0  0  0  0  0  0
    6.8964   13.3464   -0.1001 C   0  0  0  0  0  0  0  0  0  0  0  0
    7.9083   13.9599    0.8608 C   0  0  0  0  0  0  0  0  0  0  0  0
    8.5043   12.8913    1.7614 C   0  0  0  0  0  0  0  0  0  0  0  0
    8.0803   11.5701    1.3433 N   0  0  0  0  0  0  0  0  0  0  0  0
    7.1146   11.3907    1.2761 H   0  0  0  0  0  0  0  0  0  0  0  0
    8.9279   10.5832    1.0445 C   0  0  0  0  0  0  0  0  0  0  0  0
   10.0780   10.8959    0.4460 N   0  0  0  0  0  0  0  0  0  0  0  0
    8.6612    9.3733    1.3161 N   0  0  0  0  0  0  0  0  0  0  0  0
   10.7211   10.1873    0.2145 H   0  0  0  0  0  0  0  0  0  0  0  0
   10.2839   11.8354    0.2357 H   0  0  0  0  0  0  0  0  0  0  0  0
    9.3035    8.6638    1.0851 H   0  0  0  0  0  0  0  0  0  0  0  0
 29 21  1  0  0  0
 21 22  1  0  0  0
 21 20  1  0  0  0
 22 23  1  0  0  0
 20 30  1  0  0  0
 23 24  2  0  0  0
 23 28  1  0  0  0
  8  9  1  0  0  0
  8  7  1  0  0  0
 24 25  1  0  0  0
 10  7  1  0  0  0
  9  4  1  0  0  0
 30 28  1  0  0  0
 28 27  2  0  0  0
  7  6  1  0  0  0
  3  2  2  0  0  0
 25 26  2  0  0  0
  4  2  1  0  0  0
  4  5  1  0  0  0
  2  1  1  0  0  0
 27 26  1  0  0  0
 27 17  1  0  0  0
  6  5  1  0  0  0
  5 11  1  0  0  0
 39 37  2  0  0  0
 12 11  2  0  0  0
 15  1  1  0  0  0
 15 17  1  0  0  0
 11 13  1  0  0  0
  1 32  1  0  0  0
 17 18  2  0  0  0
 17 19  2  0  0  0
 33 32  1  0  0  0
 33 34  1  0  0  0
 37 38  1  0  0  0
 37 35  1  0  0  0
 34 35  1  0  0  0
 30 31  1  0  0  0
 15 16  1  0  0  0
 35 36  1  0  0  0
 38 40  1  0  0  0
 38 41  1  0  0  0
 39 42  1  0  0  0
 13 14  1  0  0  0
M  END
> <minimizedAffinity>
-7.65359

$$$$
4HFP_15U_B_402


 42 44  0  0  0  0  0  0  0  0999 V2000
    2.1503   16.0716   -1.7520 C   0  0  0  0  0  0  0  0  0  0  0  0
    2.2078   16.4513   -3.2146 C   0  0  0  0  0  0  0  0  0  0  0  0
    2.5119   17.5942   -3.5110 O   0  0  0  0  0  0  0  0  0  0  0  0
    1.9292   15.5387   -4.1558 N   0  0  0  0  0  0  0  0  0  0  0  0
    1.5452   14.1606   -3.7887 C   0  0  0  0  0  0  0  0  0  0  0  0
    2.4054   13.1470   -4.5588 C   0  0  0  0  0  0  0  0  0  0  0  0
    2.4916   13.4485   -6.0539 C   0  0  0  0  0  0  0  0  0  0  0  0
    2.9781   14.8823   -6.2344 C   0  0  0  0  0  0  0  0  0  0  0  0
    1.9439   15.8119   -5.6031 C   0  0  0  0  0  0  0  0  0  0  0  0
    3.3682   12.4459   -6.7965 C   0  0  0  0  0  0  0  0  0  0  0  0
    0.0606   13.9462   -3.9616 C   0  0  0  0  0  0  0  0  0  0  0  0
   -0.7257   14.7108   -3.3620 O   0  0  0  0  0  0  0  0  0  0  0  0
   -0.3416   13.0109   -4.6884 O   0  0  0  0  0  0  0  0  0  0  0  0
    0.2762   12.4566   -5.1233 H   0  0  0  0  0  0  0  0  0  0  0  0
    3.3537   16.4724   -1.0426 N   0  0  0  0  0  0  0  0  0  0  0  0
    3.0517   17.0200   -0.2368 H   0  0  0  0  0  0  0  0  0  0  0  0
    4.3676   15.3615   -0.4926 S   0  0  0  0  0  0  0  0  0  0  0  0
    3.9803   15.0111    0.8457 O   0  0  0  0  0  0  0  0  0  0  0  0
    4.2841   14.1915   -1.3297 O   0  0  0  0  0  0  0  0  0  0  0  0
    8.1707   12.9527   -0.1807 C   0  0  0  0  0  0  0  0  0  0  0  0
    9.3384   13.6573    0.5088 C   0  0  0  0  0  0  0  0  0  0  0  0
    9.6647   14.9545   -0.2247 C   0  0  0  0  0  0  0  0  0  0  0  0
    8.4010   15.7735   -0.4121 C   0  0  0  0  0  0  0  0  0  0  0  0
    8.4764   17.1476   -0.6384 C   0  0  0  0  0  0  0  0  0  0  0  0
    7.3143   17.9046   -0.8080 C   0  0  0  0  0  0  0  0  0  0  0  0
    6.0383   17.3349   -0.7625 C   0  0  0  0  0  0  0  0  0  0  0  0
    5.8518   15.9712   -0.5470 C   0  0  0  0  0  0  0  0  0  0  0  0
    7.0604   15.1196   -0.3533 C   0  0  0  0  0  0  0  0  0  0  0  0
   10.5567   12.7434    0.6028 C   0  0  0  0  0  0  0  0  0  0  0  0
    6.9763   13.7850   -0.1344 N   0  0  0  0  0  0  0  0  0  0  0  0
    6.1020   13.3751    0.0572 H   0  0  0  0  0  0  0  0  0  0  0  0
    0.9255   16.6449   -1.0312 C   0  0  0  0  0  0  0  0  0  0  0  0
    0.4032   15.7485    0.0856 C   0  0  0  0  0  0  0  0  0  0  0  0
    0.6596   14.2868   -0.2397 C   0  0  0  0  0  0  0  0  0  0  0  0
    1.2973   13.6152    0.8749 N   0  0  0  0  0  0  0  0  0  0  0  0
    1.3617   14.0948    1.7323 H   0  0  0  0  0  0  0  0  0  0  0  0
    1.8022   12.3817    0.8023 C   0  0  0  0  0  0  0  0  0  0  0  0
    0.9560   11.3569    0.6903 N   0  0  0  0  0  0  0  0  0  0  0  0
    3.0527   12.1725    0.8376 N   0  0  0  0  0  0  0  0  0  0  0  0
    1.3018   10.4368    0.6349 H   0  0  0  0  0  0  0  0  0  0  0  0
   -0.0144   11.5205    0.6630 H   0  0  0  0  0  0  0  0  0  0  0  0
    3.3997   11.2528    0.7823 H   0  0  0  0  0  0  0  0  0  0  0  0
 29 21  1  0  0  0
 21 22  1  0  0  0
 21 20  1  0  0  0
 22 23  1  0  0  0
 20 30  1  0  0  0
 23 24  2  0  0  0
 23 28  1  0  0  0
  8  9  1  0  0  0
  8  7  1  0  0  0
 24 25  1  0  0  0
 10  7  1  0  0  0
  9  4  1  0  0  0
 30 28  1  0  0  0
 28 27  2  0  0  0
  7  6  1  0  0  0
  3  2  2  0  0  0
 25 26  2  0  0  0
  4  2  1  0  0  0
  4  5  1  0  0  0
  2  1  1  0  0  0
 27 26  1  0  0  0
 27 17  1  0  0  0
  6  5  1  0  0  0
  5 11  1  0  0  0
 39 37  2  0  0  0
 12 11  2  0  0  0
 15  1  1  0  0  0
 15 17  1  0  0  0
 11 13  1  0  0  0
  1 32  1  0  0  0
 17 18  2  0  0  0
 17 19  2  0  0  0
 33 32  1  0  0  0
 33 34  1  0  0  0
 37 38  1  0  0  0
 37 35  1  0  0  0
 34 35  1  0  0  0
 30 31  1  0  0  0
 15 16  1  0  0  0
 35 36  1  0  0  0
 38 40  1  0  0  0
 38 41  1  0  0  0
 39 42  1  0  0  0
 13 14  1  0  0  0
M  END
> <minimizedAffinity>
-7.18226

$$$$
