5CAS_4ZQ_A_1102


 36 39  0  0  0  0  0  0  0  0999 V2000
  -52.6202    1.2733  -19.5418 C   0  0  0  0  0  0  0  0  0  0  0  0
  -53.6250    2.2191  -19.7452 C   0  0  0  0  0  0  0  0  0  0  0  0
  -53.7652    1.6583  -22.0120 C   0  0  0  0  0  0  0  0  0  0  0  0
  -52.7247    0.7275  -21.9057 C   0  0  0  0  0  0  0  0  0  0  0  0
  -52.1501    0.5081  -20.6434 C   0  0  0  0  0  0  0  0  0  0  0  0
  -51.0557   -0.0289  -18.7850 C   0  0  0  0  0  0  0  0  0  0  0  0
  -51.9147    0.8907  -18.4577 N   0  0  0  0  0  0  0  0  0  0  0  0
  -54.1632    2.3522  -20.9449 N   0  0  0  0  0  0  0  0  0  0  0  0
  -51.1634   -0.3125  -20.1256 N   0  0  0  0  0  0  0  0  0  0  0  0
  -49.7824    0.1267  -16.5751 C   0  0  0  0  0  0  0  0  0  0  0  0
  -50.0907   -0.7043  -17.8254 C   0  0  0  0  0  0  0  0  0  0  0  0
  -50.6990   -1.9301  -17.4279 O   0  0  0  0  0  0  0  0  0  0  0  0
  -51.5387   -1.7438  -16.9794 H   0  0  0  0  0  0  0  0  0  0  0  0
  -50.3851   -1.3420  -20.8402 C   0  0  0  0  0  0  0  0  0  0  0  0
  -51.2368   -2.4952  -21.4027 C   0  0  0  0  0  0  0  0  0  0  0  0
  -49.3437   -0.7546  -21.7805 C   0  0  0  0  0  0  0  0  0  0  0  0
  -48.2786   -1.6375  -21.9058 F   0  0  0  0  0  0  0  0  0  0  0  0
  -49.9141   -0.5436  -23.0277 F   0  0  0  0  0  0  0  0  0  0  0  0
  -48.8545    0.4444  -21.2827 F   0  0  0  0  0  0  0  0  0  0  0  0
  -54.3945    1.9849  -23.2183 N   0  0  0  0  0  0  0  0  0  0  0  0
  -54.7088    2.9149  -23.2936 H   0  0  0  0  0  0  0  0  0  0  0  0
  -54.6375    1.1821  -24.3226 C   0  0  0  0  0  0  0  0  0  0  0  0
  -55.8562    1.3122  -25.0081 C   0  0  0  0  0  0  0  0  0  0  0  0
  -56.0744    0.4922  -26.1142 C   0  0  0  0  0  0  0  0  0  0  0  0
  -55.1319   -0.3793  -26.4722 N   0  0  0  0  0  0  0  0  0  0  0  0
  -53.9815   -0.5011  -25.7912 C   0  0  0  0  0  0  0  0  0  0  0  0
  -53.7326    0.3100  -24.7617 N   0  0  0  0  0  0  0  0  0  0  0  0
  -52.9636   -1.3585  -26.2180 N   0  0  0  0  0  0  0  0  0  0  0  0
  -52.0366   -1.9525  -25.2238 C   0  0  0  0  0  0  0  0  0  0  0  0
  -50.6068   -1.9679  -25.8194 C   0  0  0  0  0  0  0  0  0  0  0  0
  -50.5953   -2.6709  -27.1989 C   0  0  0  0  0  0  0  0  0  0  0  0
  -51.6259   -2.0505  -28.1686 C   0  0  0  0  0  0  0  0  0  0  0  0
  -53.0263   -1.9958  -27.5523 C   0  0  0  0  0  0  0  0  0  0  0  0
  -51.2578   -0.7304  -28.4135 F   0  0  0  0  0  0  0  0  0  0  0  0
  -49.3002   -2.5309  -27.7862 O   0  0  0  0  0  0  0  0  0  0  0  0
  -48.3137   -3.3850  -27.1957 C   0  0  0  0  0  0  0  0  0  0  0  0
 34 32  1  0  0  0
 32 33  1  0  0  0
 32 31  1  0  0  0
 35 36  1  0  0  0
 35 31  1  0  0  0
 33 28  1  0  0  0
 31 30  1  0  0  0
 25 24  2  0  0  0
 25 26  1  0  0  0
 24 23  1  0  0  0
 28 26  1  0  0  0
 28 29  1  0  0  0
 30 29  1  0  0  0
 26 27  2  0  0  0
 23 22  2  0  0  0
 27 22  1  0  0  0
 22 20  1  0  0  0
 20  3  1  0  0  0
 19 16  1  0  0  0
 18 16  1  0  0  0
  3  4  2  0  0  0
  3  8  1  0  0  0
  4  5  1  0  0  0
 16 17  1  0  0  0
 16 14  1  0  0  0
 15 14  1  0  0  0
 14  9  1  0  0  0
  8  2  2  0  0  0
  5  9  1  0  0  0
  5  1  2  0  0  0
  9  6  1  0  0  0
  2  1  1  0  0  0
  1  7  1  0  0  0
  6  7  2  0  0  0
  6 11  1  0  0  0
 11 12  1  0  0  0
 11 10  1  0  0  0
 20 21  1  0  0  0
 12 13  1  0  0  0
M  END
> <minimizedAffinity>
-8.86829

$$$$
5CAS_4ZQ_A_1102


 36 39  0  0  0  0  0  0  0  0999 V2000
  -52.6712    1.5263  -19.3357 C   0  0  0  0  0  0  0  0  0  0  0  0
  -53.6301    2.4821  -19.6710 C   0  0  0  0  0  0  0  0  0  0  0  0
  -53.8181    1.6098  -21.8334 C   0  0  0  0  0  0  0  0  0  0  0  0
  -52.8237    0.6532  -21.5965 C   0  0  0  0  0  0  0  0  0  0  0  0
  -52.2492    0.5887  -20.3168 C   0  0  0  0  0  0  0  0  0  0  0  0
  -51.1658    0.2696  -18.4026 C   0  0  0  0  0  0  0  0  0  0  0  0
  -51.9757    1.2684  -18.2092 N   0  0  0  0  0  0  0  0  0  0  0  0
  -54.1720    2.4685  -20.8764 N   0  0  0  0  0  0  0  0  0  0  0  0
  -51.2993   -0.1975  -19.6884 N   0  0  0  0  0  0  0  0  0  0  0  0
  -49.7208    0.7246  -16.3449 C   0  0  0  0  0  0  0  0  0  0  0  0
  -50.2266   -0.3085  -17.3577 C   0  0  0  0  0  0  0  0  0  0  0  0
  -50.9562   -1.3173  -16.6645 O   0  0  0  0  0  0  0  0  0  0  0  0
  -51.7289   -0.9193  -16.2338 H   0  0  0  0  0  0  0  0  0  0  0  0
  -50.5790   -1.3563  -20.2491 C   0  0  0  0  0  0  0  0  0  0  0  0
  -49.0575   -1.3241  -20.0128 C   0  0  0  0  0  0  0  0  0  0  0  0
  -51.2745   -2.6802  -19.9719 C   0  0  0  0  0  0  0  0  0  0  0  0
  -52.6154   -2.4518  -19.6894 F   0  0  0  0  0  0  0  0  0  0  0  0
  -51.1737   -3.4978  -21.0884 F   0  0  0  0  0  0  0  0  0  0  0  0
  -50.7044   -3.3137  -18.8771 F   0  0  0  0  0  0  0  0  0  0  0  0
  -54.4414    1.7912  -23.0730 N   0  0  0  0  0  0  0  0  0  0  0  0
  -54.9846    2.6078  -23.1583 H   0  0  0  0  0  0  0  0  0  0  0  0
  -54.4011    0.9816  -24.1982 C   0  0  0  0  0  0  0  0  0  0  0  0
  -55.5047    0.9614  -25.0664 C   0  0  0  0  0  0  0  0  0  0  0  0
  -55.4376    0.1380  -26.1894 C   0  0  0  0  0  0  0  0  0  0  0  0
  -54.3438   -0.5959  -26.3917 N   0  0  0  0  0  0  0  0  0  0  0  0
  -53.3075   -0.5764  -25.5387 C   0  0  0  0  0  0  0  0  0  0  0  0
  -53.3314    0.2434  -24.4865 N   0  0  0  0  0  0  0  0  0  0  0  0
  -52.1311   -1.2853  -25.7973 N   0  0  0  0  0  0  0  0  0  0  0  0
  -51.2430   -0.8579  -26.9061 C   0  0  0  0  0  0  0  0  0  0  0  0
  -50.6948   -2.1174  -27.6221 C   0  0  0  0  0  0  0  0  0  0  0  0
  -50.0279   -3.0780  -26.6074 C   0  0  0  0  0  0  0  0  0  0  0  0
  -50.9790   -3.4349  -25.4432 C   0  0  0  0  0  0  0  0  0  0  0  0
  -51.5529   -2.1837  -24.7731 C   0  0  0  0  0  0  0  0  0  0  0  0
  -52.0671   -4.1300  -25.9637 F   0  0  0  0  0  0  0  0  0  0  0  0
  -49.6741   -4.2920  -27.2731 O   0  0  0  0  0  0  0  0  0  0  0  0
  -48.2710   -4.5759  -27.2282 C   0  0  0  0  0  0  0  0  0  0  0  0
 34 32  1  0  0  0
 32 33  1  0  0  0
 32 31  1  0  0  0
 35 36  1  0  0  0
 35 31  1  0  0  0
 33 28  1  0  0  0
 31 30  1  0  0  0
 25 24  2  0  0  0
 25 26  1  0  0  0
 24 23  1  0  0  0
 28 26  1  0  0  0
 28 29  1  0  0  0
 30 29  1  0  0  0
 26 27  2  0  0  0
 23 22  2  0  0  0
 27 22  1  0  0  0
 22 20  1  0  0  0
 20  3  1  0  0  0
 19 16  1  0  0  0
 18 16  1  0  0  0
  3  4  2  0  0  0
  3  8  1  0  0  0
  4  5  1  0  0  0
 16 17  1  0  0  0
 16 14  1  0  0  0
 15 14  1  0  0  0
 14  9  1  0  0  0
  8  2  2  0  0  0
  5  9  1  0  0  0
  5  1  2  0  0  0
  9  6  1  0  0  0
  2  1  1  0  0  0
  1  7  1  0  0  0
  6  7  2  0  0  0
  6 11  1  0  0  0
 11 12  1  0  0  0
 11 10  1  0  0  0
 20 21  1  0  0  0
 12 13  1  0  0  0
M  END
> <minimizedAffinity>
-7.78214

$$$$
5CAS_4ZQ_A_1102


 36 39  0  0  0  0  0  0  0  0999 V2000
  -51.2244   -3.5032  -20.6604 C   0  0  0  0  0  0  0  0  0  0  0  0
  -51.2217   -4.6894  -21.3943 C   0  0  0  0  0  0  0  0  0  0  0  0
  -51.8770   -3.5529  -23.3311 C   0  0  0  0  0  0  0  0  0  0  0  0
  -51.9581   -2.3292  -22.6555 C   0  0  0  0  0  0  0  0  0  0  0  0
  -51.6043   -2.2907  -21.2971 C   0  0  0  0  0  0  0  0  0  0  0  0
  -51.1198   -1.9400  -19.1565 C   0  0  0  0  0  0  0  0  0  0  0  0
  -50.9447   -3.2100  -19.3738 N   0  0  0  0  0  0  0  0  0  0  0  0
  -51.5186   -4.6612  -22.6818 N   0  0  0  0  0  0  0  0  0  0  0  0
  -51.5196   -1.3188  -20.3156 N   0  0  0  0  0  0  0  0  0  0  0  0
  -50.8133   -2.2022  -16.6334 C   0  0  0  0  0  0  0  0  0  0  0  0
  -50.8964   -1.2426  -17.8255 C   0  0  0  0  0  0  0  0  0  0  0  0
  -49.6649   -0.5341  -17.9359 O   0  0  0  0  0  0  0  0  0  0  0  0
  -48.9453   -1.1614  -18.1080 H   0  0  0  0  0  0  0  0  0  0  0  0
  -51.7613    0.1290  -20.4623 C   0  0  0  0  0  0  0  0  0  0  0  0
  -50.8104    0.8273  -21.4522 C   0  0  0  0  0  0  0  0  0  0  0  0
  -53.2368    0.4761  -20.5889 C   0  0  0  0  0  0  0  0  0  0  0  0
  -53.5761    0.5848  -21.9317 F   0  0  0  0  0  0  0  0  0  0  0  0
  -53.9987   -0.5242  -20.0025 F   0  0  0  0  0  0  0  0  0  0  0  0
  -53.5092    1.6902  -19.9751 F   0  0  0  0  0  0  0  0  0  0  0  0
  -52.2316   -3.7232  -24.6739 N   0  0  0  0  0  0  0  0  0  0  0  0
  -53.1000   -4.1600  -24.8303 H   0  0  0  0  0  0  0  0  0  0  0  0
  -51.5312   -3.3629  -25.8153 C   0  0  0  0  0  0  0  0  0  0  0  0
  -52.0058   -2.3015  -26.6027 C   0  0  0  0  0  0  0  0  0  0  0  0
  -51.2826   -1.9611  -27.7449 C   0  0  0  0  0  0  0  0  0  0  0  0
  -50.1837   -2.6517  -28.0472 N   0  0  0  0  0  0  0  0  0  0  0  0
  -49.7579   -3.6758  -27.2910 C   0  0  0  0  0  0  0  0  0  0  0  0
  -50.4071   -3.9834  -26.1669 N   0  0  0  0  0  0  0  0  0  0  0  0
  -48.5618   -4.3440  -27.5673 N   0  0  0  0  0  0  0  0  0  0  0  0
  -47.7796   -3.9837  -28.7751 C   0  0  0  0  0  0  0  0  0  0  0  0
  -47.2078   -5.2780  -29.4055 C   0  0  0  0  0  0  0  0  0  0  0  0
  -46.4161   -6.0955  -28.3557 C   0  0  0  0  0  0  0  0  0  0  0  0
  -47.2615   -6.3835  -27.0949 C   0  0  0  0  0  0  0  0  0  0  0  0
  -47.8616   -5.1034  -26.5073 C   0  0  0  0  0  0  0  0  0  0  0  0
  -48.3394   -7.1837  -27.4634 F   0  0  0  0  0  0  0  0  0  0  0  0
  -46.0371   -7.3497  -28.9260 O   0  0  0  0  0  0  0  0  0  0  0  0
  -46.0913   -7.3621  -30.3572 C   0  0  0  0  0  0  0  0  0  0  0  0
 34 32  1  0  0  0
 32 33  1  0  0  0
 32 31  1  0  0  0
 35 36  1  0  0  0
 35 31  1  0  0  0
 33 28  1  0  0  0
 31 30  1  0  0  0
 25 24  2  0  0  0
 25 26  1  0  0  0
 24 23  1  0  0  0
 28 26  1  0  0  0
 28 29  1  0  0  0
 30 29  1  0  0  0
 26 27  2  0  0  0
 23 22  2  0  0  0
 27 22  1  0  0  0
 22 20  1  0  0  0
 20  3  1  0  0  0
 19 16  1  0  0  0
 18 16  1  0  0  0
  3  4  2  0  0  0
  3  8  1  0  0  0
  4  5  1  0  0  0
 16 17  1  0  0  0
 16 14  1  0  0  0
 15 14  1  0  0  0
 14  9  1  0  0  0
  8  2  2  0  0  0
  5  9  1  0  0  0
  5  1  2  0  0  0
  9  6  1  0  0  0
  2  1  1  0  0  0
  1  7  1  0  0  0
  6  7  2  0  0  0
  6 11  1  0  0  0
 11 12  1  0  0  0
 11 10  1  0  0  0
 20 21  1  0  0  0
 12 13  1  0  0  0
M  END
> <minimizedAffinity>
-7.57443

$$$$
5CAS_4ZQ_A_1102


 36 39  0  0  0  0  0  0  0  0999 V2000
  -48.8963   -4.2436  -25.9337 C   0  0  0  0  0  0  0  0  0  0  0  0
  -47.7445   -4.9411  -25.5700 C   0  0  0  0  0  0  0  0  0  0  0  0
  -48.0529   -4.3797  -23.3201 C   0  0  0  0  0  0  0  0  0  0  0  0
  -49.1888   -3.6131  -23.6070 C   0  0  0  0  0  0  0  0  0  0  0  0
  -49.6396   -3.5571  -24.9356 C   0  0  0  0  0  0  0  0  0  0  0  0
  -50.5642   -3.2814  -26.9379 C   0  0  0  0  0  0  0  0  0  0  0  0
  -49.5174   -4.0326  -27.1124 N   0  0  0  0  0  0  0  0  0  0  0  0
  -47.3911   -4.9998  -24.2978 N   0  0  0  0  0  0  0  0  0  0  0  0
  -50.6946   -2.9640  -25.6069 N   0  0  0  0  0  0  0  0  0  0  0  0
  -51.5857   -1.3160  -28.2119 C   0  0  0  0  0  0  0  0  0  0  0  0
  -51.5137   -2.8370  -28.0375 C   0  0  0  0  0  0  0  0  0  0  0  0
  -51.0394   -3.4196  -29.2484 O   0  0  0  0  0  0  0  0  0  0  0  0
  -50.1430   -3.0981  -29.4325 H   0  0  0  0  0  0  0  0  0  0  0  0
  -51.7958   -2.1716  -25.0275 C   0  0  0  0  0  0  0  0  0  0  0  0
  -52.6859   -2.9570  -24.0464 C   0  0  0  0  0  0  0  0  0  0  0  0
  -51.3589   -0.7860  -24.5772 C   0  0  0  0  0  0  0  0  0  0  0  0
  -50.7098   -0.8774  -23.3524 F   0  0  0  0  0  0  0  0  0  0  0  0
  -50.4919   -0.2468  -25.5169 F   0  0  0  0  0  0  0  0  0  0  0  0
  -52.4568    0.0481  -24.4229 F   0  0  0  0  0  0  0  0  0  0  0  0
  -47.4913   -4.4875  -22.0430 N   0  0  0  0  0  0  0  0  0  0  0  0
  -46.7964   -5.1777  -21.9430 H   0  0  0  0  0  0  0  0  0  0  0  0
  -47.7764   -3.7582  -20.8985 C   0  0  0  0  0  0  0  0  0  0  0  0
  -46.8459   -3.7439  -19.8468 C   0  0  0  0  0  0  0  0  0  0  0  0
  -47.1586   -3.0033  -18.7079 C   0  0  0  0  0  0  0  0  0  0  0  0
  -48.3183   -2.3488  -18.6572 N   0  0  0  0  0  0  0  0  0  0  0  0
  -49.2026   -2.3914  -19.6663 C   0  0  0  0  0  0  0  0  0  0  0  0
  -48.8993   -3.0522  -20.7849 N   0  0  0  0  0  0  0  0  0  0  0  0
  -50.3801   -1.6390  -19.6420 N   0  0  0  0  0  0  0  0  0  0  0  0
  -51.6875   -2.3117  -19.8390 C   0  0  0  0  0  0  0  0  0  0  0  0
  -52.5898   -1.4057  -20.7135 C   0  0  0  0  0  0  0  0  0  0  0  0
  -52.6909    0.0155  -20.1075 C   0  0  0  0  0  0  0  0  0  0  0  0
  -51.2973    0.6374  -19.8655 C   0  0  0  0  0  0  0  0  0  0  0  0
  -50.3970   -0.2866  -19.0411 C   0  0  0  0  0  0  0  0  0  0  0  0
  -50.6678    0.7950  -21.0971 F   0  0  0  0  0  0  0  0  0  0  0  0
  -53.3984    0.8632  -21.0146 O   0  0  0  0  0  0  0  0  0  0  0  0
  -53.6737    2.1629  -20.4796 C   0  0  0  0  0  0  0  0  0  0  0  0
 34 32  1  0  0  0
 32 33  1  0  0  0
 32 31  1  0  0  0
 35 36  1  0  0  0
 35 31  1  0  0  0
 33 28  1  0  0  0
 31 30  1  0  0  0
 25 24  2  0  0  0
 25 26  1  0  0  0
 24 23  1  0  0  0
 28 26  1  0  0  0
 28 29  1  0  0  0
 30 29  1  0  0  0
 26 27  2  0  0  0
 23 22  2  0  0  0
 27 22  1  0  0  0
 22 20  1  0  0  0
 20  3  1  0  0  0
 19 16  1  0  0  0
 18 16  1  0  0  0
  3  4  2  0  0  0
  3  8  1  0  0  0
  4  5  1  0  0  0
 16 17  1  0  0  0
 16 14  1  0  0  0
 15 14  1  0  0  0
 14  9  1  0  0  0
  8  2  2  0  0  0
  5  9  1  0  0  0
  5  1  2  0  0  0
  9  6  1  0  0  0
  2  1  1  0  0  0
  1  7  1  0  0  0
  6  7  2  0  0  0
  6 11  1  0  0  0
 11 12  1  0  0  0
 11 10  1  0  0  0
 20 21  1  0  0  0
 12 13  1  0  0  0
M  END
> <minimizedAffinity>
-7.45288

$$$$
5CAS_4ZQ_A_1102


 36 39  0  0  0  0  0  0  0  0999 V2000
  -53.7638   -0.0829  -25.5641 C   0  0  0  0  0  0  0  0  0  0  0  0
  -54.4683    0.9046  -24.8756 C   0  0  0  0  0  0  0  0  0  0  0  0
  -53.0311    0.7217  -23.0389 C   0  0  0  0  0  0  0  0  0  0  0  0
  -52.3038   -0.3141  -23.6375 C   0  0  0  0  0  0  0  0  0  0  0  0
  -52.6568   -0.7153  -24.9360 C   0  0  0  0  0  0  0  0  0  0  0  0
  -53.0001   -1.5567  -26.9644 C   0  0  0  0  0  0  0  0  0  0  0  0
  -53.9060   -0.6416  -26.7836 N   0  0  0  0  0  0  0  0  0  0  0  0
  -54.0646    1.2765  -23.6733 N   0  0  0  0  0  0  0  0  0  0  0  0
  -52.1921   -1.6394  -25.8556 N   0  0  0  0  0  0  0  0  0  0  0  0
  -53.8181   -2.0134  -29.3416 C   0  0  0  0  0  0  0  0  0  0  0  0
  -52.8445   -2.3956  -28.2214 C   0  0  0  0  0  0  0  0  0  0  0  0
  -51.5101   -2.2004  -28.6816 O   0  0  0  0  0  0  0  0  0  0  0  0
  -51.3732   -1.2626  -28.8882 H   0  0  0  0  0  0  0  0  0  0  0  0
  -51.0236   -2.5298  -25.7218 C   0  0  0  0  0  0  0  0  0  0  0  0
  -49.6765   -1.7888  -25.6323 C   0  0  0  0  0  0  0  0  0  0  0  0
  -51.2420   -3.6512  -24.7176 C   0  0  0  0  0  0  0  0  0  0  0  0
  -50.5510   -4.7845  -25.1275 F   0  0  0  0  0  0  0  0  0  0  0  0
  -50.7751   -3.2542  -23.4728 F   0  0  0  0  0  0  0  0  0  0  0  0
  -52.5883   -3.9747  -24.6292 F   0  0  0  0  0  0  0  0  0  0  0  0
  -52.7944    1.1870  -21.7407 N   0  0  0  0  0  0  0  0  0  0  0  0
  -53.3266    1.9689  -21.4676 H   0  0  0  0  0  0  0  0  0  0  0  0
  -51.9151    0.7009  -20.7848 C   0  0  0  0  0  0  0  0  0  0  0  0
  -52.1732    0.9514  -19.4274 C   0  0  0  0  0  0  0  0  0  0  0  0
  -51.2724    0.4517  -18.4880 C   0  0  0  0  0  0  0  0  0  0  0  0
  -50.2086   -0.2319  -18.9084 N   0  0  0  0  0  0  0  0  0  0  0  0
  -49.9702   -0.4436  -20.2124 C   0  0  0  0  0  0  0  0  0  0  0  0
  -50.8470   -0.0182  -21.1233 N   0  0  0  0  0  0  0  0  0  0  0  0
  -48.8979   -1.2294  -20.6439 N   0  0  0  0  0  0  0  0  0  0  0  0
  -48.1898   -0.8820  -21.9004 C   0  0  0  0  0  0  0  0  0  0  0  0
  -47.8452   -2.1883  -22.6583 C   0  0  0  0  0  0  0  0  0  0  0  0
  -47.0704   -3.1659  -21.7411 C   0  0  0  0  0  0  0  0  0  0  0  0
  -47.8270   -3.4377  -20.4216 C   0  0  0  0  0  0  0  0  0  0  0  0
  -48.2051   -2.1391  -19.7044 C   0  0  0  0  0  0  0  0  0  0  0  0
  -49.0260   -4.0755  -20.7274 F   0  0  0  0  0  0  0  0  0  0  0  0
  -46.9058   -4.4136  -22.4179 O   0  0  0  0  0  0  0  0  0  0  0  0
  -47.4829   -4.4290  -23.7286 C   0  0  0  0  0  0  0  0  0  0  0  0
 34 32  1  0  0  0
 32 33  1  0  0  0
 32 31  1  0  0  0
 35 36  1  0  0  0
 35 31  1  0  0  0
 33 28  1  0  0  0
 31 30  1  0  0  0
 25 24  2  0  0  0
 25 26  1  0  0  0
 24 23  1  0  0  0
 28 26  1  0  0  0
 28 29  1  0  0  0
 30 29  1  0  0  0
 26 27  2  0  0  0
 23 22  2  0  0  0
 27 22  1  0  0  0
 22 20  1  0  0  0
 20  3  1  0  0  0
 19 16  1  0  0  0
 18 16  1  0  0  0
  3  4  2  0  0  0
  3  8  1  0  0  0
  4  5  1  0  0  0
 16 17  1  0  0  0
 16 14  1  0  0  0
 15 14  1  0  0  0
 14  9  1  0  0  0
  8  2  2  0  0  0
  5  9  1  0  0  0
  5  1  2  0  0  0
  9  6  1  0  0  0
  2  1  1  0  0  0
  1  7  1  0  0  0
  6  7  2  0  0  0
  6 11  1  0  0  0
 11 12  1  0  0  0
 11 10  1  0  0  0
 20 21  1  0  0  0
 12 13  1  0  0  0
M  END
> <minimizedAffinity>
-7.43155

$$$$
5CAS_4ZQ_A_1102


 36 39  0  0  0  0  0  0  0  0999 V2000
  -53.5890    0.9590  -23.2660 C   0  0  0  0  0  0  0  0  0  0  0  0
  -54.4697    1.8867  -22.7100 C   0  0  0  0  0  0  0  0  0  0  0  0
  -53.4180    1.7142  -20.6275 C   0  0  0  0  0  0  0  0  0  0  0  0
  -52.5301    0.7364  -21.0921 C   0  0  0  0  0  0  0  0  0  0  0  0
  -52.5955    0.3618  -22.4438 C   0  0  0  0  0  0  0  0  0  0  0  0
  -52.4820   -0.4273  -24.5185 C   0  0  0  0  0  0  0  0  0  0  0  0
  -53.4550    0.4351  -24.5017 N   0  0  0  0  0  0  0  0  0  0  0  0
  -54.3340    2.2379  -21.4431 N   0  0  0  0  0  0  0  0  0  0  0  0
  -51.9070   -0.5068  -23.2726 N   0  0  0  0  0  0  0  0  0  0  0  0
  -53.1334   -1.4024  -26.7887 C   0  0  0  0  0  0  0  0  0  0  0  0
  -52.0337   -1.2150  -25.7378 C   0  0  0  0  0  0  0  0  0  0  0  0
  -50.9553   -0.4886  -26.3210 O   0  0  0  0  0  0  0  0  0  0  0  0
  -51.2651    0.3909  -26.5882 H   0  0  0  0  0  0  0  0  0  0  0  0
  -50.7408   -1.3420  -22.9281 C   0  0  0  0  0  0  0  0  0  0  0  0
  -49.5829   -0.5648  -22.2747 C   0  0  0  0  0  0  0  0  0  0  0  0
  -51.1252   -2.6570  -22.2673 C   0  0  0  0  0  0  0  0  0  0  0  0
  -49.9889   -3.4340  -22.0804 F   0  0  0  0  0  0  0  0  0  0  0  0
  -51.7137   -2.4012  -21.0371 F   0  0  0  0  0  0  0  0  0  0  0  0
  -52.0078   -3.3681  -23.0676 F   0  0  0  0  0  0  0  0  0  0  0  0
  -53.4699    2.1470  -19.2979 N   0  0  0  0  0  0  0  0  0  0  0  0
  -54.1155    2.8666  -19.1119 H   0  0  0  0  0  0  0  0  0  0  0  0
  -52.7393    1.7043  -18.2056 C   0  0  0  0  0  0  0  0  0  0  0  0
  -53.0534    2.1952  -16.9279 C   0  0  0  0  0  0  0  0  0  0  0  0
  -52.3024    1.7338  -15.8479 C   0  0  0  0  0  0  0  0  0  0  0  0
  -51.3212    0.8589  -16.0660 N   0  0  0  0  0  0  0  0  0  0  0  0
  -51.0247    0.4168  -17.2984 C   0  0  0  0  0  0  0  0  0  0  0  0
  -51.7649    0.8069  -18.3375 N   0  0  0  0  0  0  0  0  0  0  0  0
  -50.0492   -0.5610  -17.5120 N   0  0  0  0  0  0  0  0  0  0  0  0
  -49.6177   -0.8803  -18.8950 C   0  0  0  0  0  0  0  0  0  0  0  0
  -49.4119   -2.4109  -19.0142 C   0  0  0  0  0  0  0  0  0  0  0  0
  -48.4497   -2.9218  -17.9140 C   0  0  0  0  0  0  0  0  0  0  0  0
  -48.9171   -2.5030  -16.5021 C   0  0  0  0  0  0  0  0  0  0  0  0
  -49.1639   -0.9950  -16.4082 C   0  0  0  0  0  0  0  0  0  0  0  0
  -50.1420   -3.1134  -16.2469 F   0  0  0  0  0  0  0  0  0  0  0  0
  -48.4046   -4.3495  -17.9560 O   0  0  0  0  0  0  0  0  0  0  0  0
  -49.1661   -4.9102  -19.0316 C   0  0  0  0  0  0  0  0  0  0  0  0
 34 32  1  0  0  0
 32 33  1  0  0  0
 32 31  1  0  0  0
 35 36  1  0  0  0
 35 31  1  0  0  0
 33 28  1  0  0  0
 31 30  1  0  0  0
 25 24  2  0  0  0
 25 26  1  0  0  0
 24 23  1  0  0  0
 28 26  1  0  0  0
 28 29  1  0  0  0
 30 29  1  0  0  0
 26 27  2  0  0  0
 23 22  2  0  0  0
 27 22  1  0  0  0
 22 20  1  0  0  0
 20  3  1  0  0  0
 19 16  1  0  0  0
 18 16  1  0  0  0
  3  4  2  0  0  0
  3  8  1  0  0  0
  4  5  1  0  0  0
 16 17  1  0  0  0
 16 14  1  0  0  0
 15 14  1  0  0  0
 14  9  1  0  0  0
  8  2  2  0  0  0
  5  9  1  0  0  0
  5  1  2  0  0  0
  9  6  1  0  0  0
  2  1  1  0  0  0
  1  7  1  0  0  0
  6  7  2  0  0  0
  6 11  1  0  0  0
 11 12  1  0  0  0
 11 10  1  0  0  0
 20 21  1  0  0  0
 12 13  1  0  0  0
M  END
> <minimizedAffinity>
-7.43009

$$$$
5CAS_4ZQ_A_1102


 36 39  0  0  0  0  0  0  0  0999 V2000
  -48.2852   -2.4519  -19.0125 C   0  0  0  0  0  0  0  0  0  0  0  0
  -47.1667   -3.2376  -19.2904 C   0  0  0  0  0  0  0  0  0  0  0  0
  -47.5511   -3.0618  -21.5913 C   0  0  0  0  0  0  0  0  0  0  0  0
  -48.7185   -2.3135  -21.3978 C   0  0  0  0  0  0  0  0  0  0  0  0
  -49.0879   -1.9781  -20.0853 C   0  0  0  0  0  0  0  0  0  0  0  0
  -49.9136   -1.3180  -18.1301 C   0  0  0  0  0  0  0  0  0  0  0  0
  -48.8451   -2.0108  -17.8673 N   0  0  0  0  0  0  0  0  0  0  0  0
  -46.8380   -3.4844  -20.5465 N   0  0  0  0  0  0  0  0  0  0  0  0
  -50.1076   -1.2566  -19.4895 N   0  0  0  0  0  0  0  0  0  0  0  0
  -50.7559   -1.3357  -15.7178 C   0  0  0  0  0  0  0  0  0  0  0  0
  -50.8040   -0.6575  -17.0913 C   0  0  0  0  0  0  0  0  0  0  0  0
  -50.3513    0.6873  -16.9594 O   0  0  0  0  0  0  0  0  0  0  0  0
  -49.4294    0.6900  -16.6579 H   0  0  0  0  0  0  0  0  0  0  0  0
  -51.1899   -0.5107  -20.1592 C   0  0  0  0  0  0  0  0  0  0  0  0
  -50.6955    0.5445  -21.1660 C   0  0  0  0  0  0  0  0  0  0  0  0
  -52.3278   -1.4051  -20.6270 C   0  0  0  0  0  0  0  0  0  0  0  0
  -52.2946   -2.6052  -19.9281 F   0  0  0  0  0  0  0  0  0  0  0  0
  -53.5398   -0.7712  -20.3930 F   0  0  0  0  0  0  0  0  0  0  0  0
  -52.2037   -1.6893  -21.9793 F   0  0  0  0  0  0  0  0  0  0  0  0
  -47.0976   -3.4825  -22.8464 N   0  0  0  0  0  0  0  0  0  0  0  0
  -46.1236   -3.4368  -22.9817 H   0  0  0  0  0  0  0  0  0  0  0  0
  -47.8282   -3.9546  -23.9264 C   0  0  0  0  0  0  0  0  0  0  0  0
  -47.6304   -5.2751  -24.3613 C   0  0  0  0  0  0  0  0  0  0  0  0
  -48.3776   -5.7234  -25.4496 C   0  0  0  0  0  0  0  0  0  0  0  0
  -49.2374   -4.8899  -26.0342 N   0  0  0  0  0  0  0  0  0  0  0  0
  -49.3972   -3.6248  -25.6145 C   0  0  0  0  0  0  0  0  0  0  0  0
  -48.7296   -3.1934  -24.5431 N   0  0  0  0  0  0  0  0  0  0  0  0
  -50.3575   -2.7805  -26.1787 N   0  0  0  0  0  0  0  0  0  0  0  0
  -50.5826   -1.4325  -25.6016 C   0  0  0  0  0  0  0  0  0  0  0  0
  -52.1015   -1.1292  -25.6160 C   0  0  0  0  0  0  0  0  0  0  0  0
  -52.6845   -1.3175  -27.0380 C   0  0  0  0  0  0  0  0  0  0  0  0
  -52.3622   -2.7159  -27.6106 C   0  0  0  0  0  0  0  0  0  0  0  0
  -50.8642   -3.0254  -27.5476 C   0  0  0  0  0  0  0  0  0  0  0  0
  -52.9895   -3.6706  -26.8149 F   0  0  0  0  0  0  0  0  0  0  0  0
  -54.1061   -1.1822  -26.9841 O   0  0  0  0  0  0  0  0  0  0  0  0
  -54.5503   -0.2489  -25.9927 C   0  0  0  0  0  0  0  0  0  0  0  0
 34 32  1  0  0  0
 32 33  1  0  0  0
 32 31  1  0  0  0
 35 36  1  0  0  0
 35 31  1  0  0  0
 33 28  1  0  0  0
 31 30  1  0  0  0
 25 24  2  0  0  0
 25 26  1  0  0  0
 24 23  1  0  0  0
 28 26  1  0  0  0
 28 29  1  0  0  0
 30 29  1  0  0  0
 26 27  2  0  0  0
 23 22  2  0  0  0
 27 22  1  0  0  0
 22 20  1  0  0  0
 20  3  1  0  0  0
 19 16  1  0  0  0
 18 16  1  0  0  0
  3  4  2  0  0  0
  3  8  1  0  0  0
  4  5  1  0  0  0
 16 17  1  0  0  0
 16 14  1  0  0  0
 15 14  1  0  0  0
 14  9  1  0  0  0
  8  2  2  0  0  0
  5  9  1  0  0  0
  5  1  2  0  0  0
  9  6  1  0  0  0
  2  1  1  0  0  0
  1  7  1  0  0  0
  6  7  2  0  0  0
  6 11  1  0  0  0
 11 12  1  0  0  0
 11 10  1  0  0  0
 20 21  1  0  0  0
 12 13  1  0  0  0
M  END
> <minimizedAffinity>
-7.37632

$$$$
5CAS_4ZQ_A_1102


 36 39  0  0  0  0  0  0  0  0999 V2000
  -51.4296   -3.8823  -25.0186 C   0  0  0  0  0  0  0  0  0  0  0  0
  -52.4460   -3.0946  -25.5590 C   0  0  0  0  0  0  0  0  0  0  0  0
  -51.7872   -1.2632  -24.2612 C   0  0  0  0  0  0  0  0  0  0  0  0
  -50.7779   -2.0000  -23.6297 C   0  0  0  0  0  0  0  0  0  0  0  0
  -50.5736   -3.3312  -24.0269 C   0  0  0  0  0  0  0  0  0  0  0  0
  -50.0386   -5.4478  -24.4439 C   0  0  0  0  0  0  0  0  0  0  0  0
  -51.0429   -5.1591  -25.2176 N   0  0  0  0  0  0  0  0  0  0  0  0
  -52.5645   -1.8332  -25.1828 N   0  0  0  0  0  0  0  0  0  0  0  0
  -49.6989   -4.3495  -23.6904 N   0  0  0  0  0  0  0  0  0  0  0  0
  -49.7032   -7.6378  -23.1710 C   0  0  0  0  0  0  0  0  0  0  0  0
  -49.3323   -6.7919  -24.3940 C   0  0  0  0  0  0  0  0  0  0  0  0
  -49.7079   -7.4960  -25.5747 O   0  0  0  0  0  0  0  0  0  0  0  0
  -50.6693   -7.6251  -25.5821 H   0  0  0  0  0  0  0  0  0  0  0  0
  -48.5728   -4.2885  -22.7394 C   0  0  0  0  0  0  0  0  0  0  0  0
  -47.4956   -3.2513  -23.1075 C   0  0  0  0  0  0  0  0  0  0  0  0
  -49.0201   -4.3062  -21.2857 C   0  0  0  0  0  0  0  0  0  0  0  0
  -48.1304   -5.0630  -20.5338 F   0  0  0  0  0  0  0  0  0  0  0  0
  -49.0476   -3.0086  -20.7949 F   0  0  0  0  0  0  0  0  0  0  0  0
  -50.2794   -4.8763  -21.1672 F   0  0  0  0  0  0  0  0  0  0  0  0
  -52.1057    0.0588  -23.9311 N   0  0  0  0  0  0  0  0  0  0  0  0
  -51.9334    0.7243  -24.6358 H   0  0  0  0  0  0  0  0  0  0  0  0
  -52.6300    0.5626  -22.7503 C   0  0  0  0  0  0  0  0  0  0  0  0
  -53.7005    1.4696  -22.8091 C   0  0  0  0  0  0  0  0  0  0  0  0
  -54.2075    1.9608  -21.6070 C   0  0  0  0  0  0  0  0  0  0  0  0
  -53.6597    1.5610  -20.4598 N   0  0  0  0  0  0  0  0  0  0  0  0
  -52.6238    0.7079  -20.4267 C   0  0  0  0  0  0  0  0  0  0  0  0
  -52.1584    0.1871  -21.5633 N   0  0  0  0  0  0  0  0  0  0  0  0
  -52.1059    0.2295  -19.2199 N   0  0  0  0  0  0  0  0  0  0  0  0
  -52.3329    0.9920  -17.9678 C   0  0  0  0  0  0  0  0  0  0  0  0
  -51.0423    0.9455  -17.1125 C   0  0  0  0  0  0  0  0  0  0  0  0
  -50.5832   -0.5166  -16.8922 C   0  0  0  0  0  0  0  0  0  0  0  0
  -50.4270   -1.2774  -18.2279 C   0  0  0  0  0  0  0  0  0  0  0  0
  -51.6910   -1.1849  -19.0868 C   0  0  0  0  0  0  0  0  0  0  0  0
  -49.4132   -0.6691  -18.9628 F   0  0  0  0  0  0  0  0  0  0  0  0
  -49.3137   -0.5162  -16.2362 O   0  0  0  0  0  0  0  0  0  0  0  0
  -48.8574   -1.8267  -15.8816 C   0  0  0  0  0  0  0  0  0  0  0  0
 34 32  1  0  0  0
 32 33  1  0  0  0
 32 31  1  0  0  0
 35 36  1  0  0  0
 35 31  1  0  0  0
 33 28  1  0  0  0
 31 30  1  0  0  0
 25 24  2  0  0  0
 25 26  1  0  0  0
 24 23  1  0  0  0
 28 26  1  0  0  0
 28 29  1  0  0  0
 30 29  1  0  0  0
 26 27  2  0  0  0
 23 22  2  0  0  0
 27 22  1  0  0  0
 22 20  1  0  0  0
 20  3  1  0  0  0
 19 16  1  0  0  0
 18 16  1  0  0  0
  3  4  2  0  0  0
  3  8  1  0  0  0
  4  5  1  0  0  0
 16 17  1  0  0  0
 16 14  1  0  0  0
 15 14  1  0  0  0
 14  9  1  0  0  0
  8  2  2  0  0  0
  5  9  1  0  0  0
  5  1  2  0  0  0
  9  6  1  0  0  0
  2  1  1  0  0  0
  1  7  1  0  0  0
  6  7  2  0  0  0
  6 11  1  0  0  0
 11 12  1  0  0  0
 11 10  1  0  0  0
 20 21  1  0  0  0
 12 13  1  0  0  0
M  END
> <minimizedAffinity>
-7.31094

$$$$
5CAS_4ZQ_A_1102


 36 39  0  0  0  0  0  0  0  0999 V2000
  -50.9460   -3.5602  -21.0794 C   0  0  0  0  0  0  0  0  0  0  0  0
  -50.3313   -4.5649  -20.3323 C   0  0  0  0  0  0  0  0  0  0  0  0
  -50.6470   -3.3578  -18.3535 C   0  0  0  0  0  0  0  0  0  0  0  0
  -51.2257   -2.2802  -19.0349 C   0  0  0  0  0  0  0  0  0  0  0  0
  -51.4031   -2.3850  -20.4238 C   0  0  0  0  0  0  0  0  0  0  0  0
  -51.7919   -2.2716  -22.6092 C   0  0  0  0  0  0  0  0  0  0  0  0
  -51.2181   -3.4183  -22.3929 N   0  0  0  0  0  0  0  0  0  0  0  0
  -50.2317   -4.4352  -19.0208 N   0  0  0  0  0  0  0  0  0  0  0  0
  -51.9405   -1.5928  -21.4233 N   0  0  0  0  0  0  0  0  0  0  0  0
  -51.2354   -0.8428  -24.6532 C   0  0  0  0  0  0  0  0  0  0  0  0
  -52.2485   -1.7656  -23.9670 C   0  0  0  0  0  0  0  0  0  0  0  0
  -52.4552   -2.9147  -24.7841 O   0  0  0  0  0  0  0  0  0  0  0  0
  -51.6212   -3.4020  -24.8736 H   0  0  0  0  0  0  0  0  0  0  0  0
  -52.5986   -0.2811  -21.2733 C   0  0  0  0  0  0  0  0  0  0  0  0
  -53.7813   -0.2812  -20.2870 C   0  0  0  0  0  0  0  0  0  0  0  0
  -51.6111    0.8680  -21.1389 C   0  0  0  0  0  0  0  0  0  0  0  0
  -52.0643    1.9594  -21.8692 F   0  0  0  0  0  0  0  0  0  0  0  0
  -51.4970    1.2252  -19.8030 F   0  0  0  0  0  0  0  0  0  0  0  0
  -50.3664    0.5050  -21.6325 F   0  0  0  0  0  0  0  0  0  0  0  0
  -50.3909   -3.3592  -16.9779 N   0  0  0  0  0  0  0  0  0  0  0  0
  -50.6531   -4.1787  -16.4993 H   0  0  0  0  0  0  0  0  0  0  0  0
  -49.8196   -2.3680  -16.1943 C   0  0  0  0  0  0  0  0  0  0  0  0
  -48.4677   -2.4777  -15.8303 C   0  0  0  0  0  0  0  0  0  0  0  0
  -47.9193   -1.4675  -15.0416 C   0  0  0  0  0  0  0  0  0  0  0  0
  -48.6910   -0.4498  -14.6612 N   0  0  0  0  0  0  0  0  0  0  0  0
  -49.9866   -0.3740  -15.0042 C   0  0  0  0  0  0  0  0  0  0  0  0
  -50.5161   -1.3038  -15.8010 N   0  0  0  0  0  0  0  0  0  0  0  0
  -50.7700    0.7346  -14.6711 N   0  0  0  0  0  0  0  0  0  0  0  0
  -52.1014    0.9110  -15.3012 C   0  0  0  0  0  0  0  0  0  0  0  0
  -52.3101    2.4129  -15.6178 C   0  0  0  0  0  0  0  0  0  0  0  0
  -52.0863    3.2760  -14.3521 C   0  0  0  0  0  0  0  0  0  0  0  0
  -50.7106    3.0008  -13.7047 C   0  0  0  0  0  0  0  0  0  0  0  0
  -50.4945    1.5084  -13.4400 C   0  0  0  0  0  0  0  0  0  0  0  0
  -49.7189    3.3831  -14.6037 F   0  0  0  0  0  0  0  0  0  0  0  0
  -52.1334    4.6581  -14.7122 O   0  0  0  0  0  0  0  0  0  0  0  0
  -53.1766    4.9668  -15.6437 C   0  0  0  0  0  0  0  0  0  0  0  0
 34 32  1  0  0  0
 32 33  1  0  0  0
 32 31  1  0  0  0
 35 36  1  0  0  0
 35 31  1  0  0  0
 33 28  1  0  0  0
 31 30  1  0  0  0
 25 24  2  0  0  0
 25 26  1  0  0  0
 24 23  1  0  0  0
 28 26  1  0  0  0
 28 29  1  0  0  0
 30 29  1  0  0  0
 26 27  2  0  0  0
 23 22  2  0  0  0
 27 22  1  0  0  0
 22 20  1  0  0  0
 20  3  1  0  0  0
 19 16  1  0  0  0
 18 16  1  0  0  0
  3  4  2  0  0  0
  3  8  1  0  0  0
  4  5  1  0  0  0
 16 17  1  0  0  0
 16 14  1  0  0  0
 15 14  1  0  0  0
 14  9  1  0  0  0
  8  2  2  0  0  0
  5  9  1  0  0  0
  5  1  2  0  0  0
  9  6  1  0  0  0
  2  1  1  0  0  0
  1  7  1  0  0  0
  6  7  2  0  0  0
  6 11  1  0  0  0
 11 12  1  0  0  0
 11 10  1  0  0  0
 20 21  1  0  0  0
 12 13  1  0  0  0
M  END
> <minimizedAffinity>
-7.29051

$$$$
5CAS_4ZQ_A_1102


 36 39  0  0  0  0  0  0  0  0999 V2000
  -52.7308    1.5940  -18.6716 C   0  0  0  0  0  0  0  0  0  0  0  0
  -53.3636    1.9739  -19.8551 C   0  0  0  0  0  0  0  0  0  0  0  0
  -51.8317    0.7474  -21.1284 C   0  0  0  0  0  0  0  0  0  0  0  0
  -51.1063    0.3650  -19.9935 C   0  0  0  0  0  0  0  0  0  0  0  0
  -51.5717    0.7739  -18.7334 C   0  0  0  0  0  0  0  0  0  0  0  0
  -52.0664    1.2839  -16.6274 C   0  0  0  0  0  0  0  0  0  0  0  0
  -52.9672    1.8567  -17.3699 N   0  0  0  0  0  0  0  0  0  0  0  0
  -52.9106    1.5225  -21.0117 N   0  0  0  0  0  0  0  0  0  0  0  0
  -51.1811    0.5911  -17.4183 N   0  0  0  0  0  0  0  0  0  0  0  0
  -51.9496    2.7820  -14.5608 C   0  0  0  0  0  0  0  0  0  0  0  0
  -52.0116    1.3528  -15.1107 C   0  0  0  0  0  0  0  0  0  0  0  0
  -53.1955    0.7227  -14.6290 O   0  0  0  0  0  0  0  0  0  0  0  0
  -53.9728    1.2018  -14.9563 H   0  0  0  0  0  0  0  0  0  0  0  0
  -50.0578   -0.2252  -16.9204 C   0  0  0  0  0  0  0  0  0  0  0  0
  -49.1954    0.4768  -15.8549 C   0  0  0  0  0  0  0  0  0  0  0  0
  -50.4532   -1.6638  -16.6242 C   0  0  0  0  0  0  0  0  0  0  0  0
  -51.3362   -2.1140  -17.5977 F   0  0  0  0  0  0  0  0  0  0  0  0
  -49.3199   -2.4644  -16.6271 F   0  0  0  0  0  0  0  0  0  0  0  0
  -51.0853   -1.7548  -15.3926 F   0  0  0  0  0  0  0  0  0  0  0  0
  -51.4516    0.4282  -22.4367 N   0  0  0  0  0  0  0  0  0  0  0  0
  -50.8615    1.0815  -22.8775 H   0  0  0  0  0  0  0  0  0  0  0  0
  -51.7897   -0.6796  -23.1993 C   0  0  0  0  0  0  0  0  0  0  0  0
  -52.4865   -0.4938  -24.4043 C   0  0  0  0  0  0  0  0  0  0  0  0
  -52.8143   -1.6248  -25.1505 C   0  0  0  0  0  0  0  0  0  0  0  0
  -52.4639   -2.8271  -24.6949 N   0  0  0  0  0  0  0  0  0  0  0  0
  -51.8147   -2.9839  -23.5305 C   0  0  0  0  0  0  0  0  0  0  0  0
  -51.4470   -1.9112  -22.8278 N   0  0  0  0  0  0  0  0  0  0  0  0
  -51.3786   -4.2390  -23.0970 N   0  0  0  0  0  0  0  0  0  0  0  0
  -51.4855   -4.6001  -21.6621 C   0  0  0  0  0  0  0  0  0  0  0  0
  -50.2186   -5.3899  -21.2491 C   0  0  0  0  0  0  0  0  0  0  0  0
  -49.9927   -6.5961  -22.1932 C   0  0  0  0  0  0  0  0  0  0  0  0
  -49.9554   -6.1656  -23.6766 C   0  0  0  0  0  0  0  0  0  0  0  0
  -51.1889   -5.3447  -24.0622 C   0  0  0  0  0  0  0  0  0  0  0  0
  -48.8586   -5.3288  -23.8627 F   0  0  0  0  0  0  0  0  0  0  0  0
  -48.7392   -7.2075  -21.8818 O   0  0  0  0  0  0  0  0  0  0  0  0
  -48.2113   -6.8056  -20.6125 C   0  0  0  0  0  0  0  0  0  0  0  0
 34 32  1  0  0  0
 32 33  1  0  0  0
 32 31  1  0  0  0
 35 36  1  0  0  0
 35 31  1  0  0  0
 33 28  1  0  0  0
 31 30  1  0  0  0
 25 24  2  0  0  0
 25 26  1  0  0  0
 24 23  1  0  0  0
 28 26  1  0  0  0
 28 29  1  0  0  0
 30 29  1  0  0  0
 26 27  2  0  0  0
 23 22  2  0  0  0
 27 22  1  0  0  0
 22 20  1  0  0  0
 20  3  1  0  0  0
 19 16  1  0  0  0
 18 16  1  0  0  0
  3  4  2  0  0  0
  3  8  1  0  0  0
  4  5  1  0  0  0
 16 17  1  0  0  0
 16 14  1  0  0  0
 15 14  1  0  0  0
 14  9  1  0  0  0
  8  2  2  0  0  0
  5  9  1  0  0  0
  5  1  2  0  0  0
  9  6  1  0  0  0
  2  1  1  0  0  0
  1  7  1  0  0  0
  6  7  2  0  0  0
  6 11  1  0  0  0
 11 12  1  0  0  0
 11 10  1  0  0  0
 20 21  1  0  0  0
 12 13  1  0  0  0
M  END
> <minimizedAffinity>
-7.11593

$$$$
