1M0B_0ZQ_B_201
  RCSB PDB12061703143D
Coordinates from PDB:1M0B:B:201 Model:1 without hydrogens
 50 52  0  0  0  0            999 V2000
   -8.3880   15.5290   -2.5950   O 0  0  0  0  0  0  0  0  0  0  0  0
   -8.2370   16.5330   -3.2540   C 0  0  0  0  0  0  0  0  0  0  0  0
   -8.3700   16.6440   -4.6150   O 0  0  0  0  0  0  0  0  0  0  0  0
   -9.0020   15.5950   -5.4930   C 0  0  0  0  0  0  0  0  0  0  0  0
   -8.9150   16.1400   -6.9140   C 0  0  0  0  0  0  0  0  0  0  0  0
  -10.4790   15.3880   -5.0860   C 0  0  0  0  0  0  0  0  0  0  0  0
   -8.1980   14.2870   -5.3690   C 0  0  0  0  0  0  0  0  0  0  0  0
   -7.9010   17.7520   -2.7510   N 0  0  0  0  0  0  0  0  0  0  0  0
   -7.6340   17.9260   -1.3270   C 0  0  0  0  0  0  0  0  0  0  0  0
   -8.8060   18.6250   -0.6340   C 0  0  0  0  0  0  0  0  0  0  0  0
   -6.3200   18.6940   -1.1310   C 0  0  0  0  0  0  0  0  0  0  0  0
   -5.1400   18.0280   -1.7760   C 0  0  0  0  0  0  0  0  0  0  0  0
   -4.6920   18.4390   -3.0330   C 0  0  0  0  0  0  0  0  0  0  0  0
   -4.5230   16.9350   -1.1660   C 0  0  0  0  0  0  0  0  0  0  0  0
   -3.6530   17.7710   -3.6760   C 0  0  0  0  0  0  0  0  0  0  0  0
   -3.4830   16.2590   -1.8020   C 0  0  0  0  0  0  0  0  0  0  0  0
   -3.0490   16.6780   -3.0590   C 0  0  0  0  0  0  0  0  0  0  0  0
   -9.5760   17.7220    0.3270   C 0  0  0  0  0  0  0  0  0  0  0  0
  -10.6760   17.0270   -0.3340   N 0  0  0  0  0  0  0  0  0  0  0  0
  -11.2620   15.9140    0.4180   C 0  0  0  0  0  0  0  0  0  0  0  0
  -10.4190   15.2950    1.5460   C 0  0  0  0  0  0  0  0  0  0  0  0
   -9.3730   14.6980    1.2960   O 0  0  0  0  0  0  0  0  0  0  0  0
  -11.6570   14.7930   -0.5430   C 0  0  0  0  0  0  0  0  0  0  0  0
  -12.3830   13.6630    0.1200   C 0  0  0  0  0  0  0  0  0  0  0  0
  -12.1080   12.3500   -0.2290   C 0  0  0  0  0  0  0  0  0  0  0  0
  -13.3250   13.9120    1.1130   C 0  0  0  0  0  0  0  0  0  0  0  0
  -12.7520   11.2930    0.3990   C 0  0  0  0  0  0  0  0  0  0  0  0
  -13.9790   12.8590    1.7520   C 0  0  0  0  0  0  0  0  0  0  0  0
  -13.6910   11.5490    1.3950   C 0  0  0  0  0  0  0  0  0  0  0  0
  -10.9030   15.4250    2.7800   N 0  0  0  0  0  0  0  0  0  0  0  0
  -10.2460   14.8750    3.9650   C 0  0  0  0  0  0  0  0  0  0  0  0
  -11.3350   14.6100    5.0010   C 0  0  0  0  0  0  0  0  0  0  0  0
  -12.1910   15.4600    5.2250   O 0  0  0  0  0  0  0  0  0  0  0  0
   -9.2210   15.8670    4.5270   C 0  0  0  0  0  0  0  0  0  0  0  0
   -8.4970   15.3860    5.7830   C 0  0  0  0  0  0  0  0  0  0  0  0
   -9.3760   15.4210    7.0340   C 0  0  0  0  0  0  0  0  0  0  0  0
   -8.9920   14.8270    8.0690   O 0  0  0  0  0  0  0  0  0  0  0  0
  -10.4510   16.0560    6.9880   O 0  0  0  0  0  0  0  0  0  0  0  0
  -11.3100   13.4390    5.6310   N 0  0  0  0  0  0  0  0  0  0  0  0
  -12.3090   13.1080    6.6370   C 0  0  0  0  0  0  0  0  0  0  0  0
  -11.7400   12.4240    7.8820   C 0  0  0  0  0  0  0  0  0  0  0  0
  -10.6190   11.9180    7.8780   O 0  0  0  0  0  0  0  0  0  0  0  0
  -13.4140   12.2430    6.0110   C 0  0  0  0  0  0  0  0  0  0  0  0
  -12.9260   10.9370    5.4420   C 0  0  0  0  0  0  0  0  0  0  0  0
  -13.0590    9.7580    6.1590   C 0  0  0  0  0  0  0  0  0  0  0  0
  -12.3430   10.8860    4.1760   C 0  0  0  0  0  0  0  0  0  0  0  0
  -12.6220    8.5450    5.6230   C 0  0  0  0  0  0  0  0  0  0  0  0
  -11.9020    9.6750    3.6310   C 0  0  0  0  0  0  0  0  0  0  0  0
  -12.0430    8.5060    4.3560   C 0  0  0  0  0  0  0  0  0  0  0  0
  -12.5220   12.4160    8.9550   N 0  0  0  0  0  0  0  0  0  0  0  0
  1  2  2  0  0  0  0
  2  3  1  0  0  0  0
  3  4  1  0  0  0  0
  4  5  1  0  0  0  0
  4  6  1  0  0  0  0
  4  7  1  0  0  0  0
  8  9  1  0  0  0  0
  9 10  1  0  0  0  0
  9 11  1  0  0  0  0
 10 18  1  0  0  0  0
 11 12  1  0  0  0  0
 12 13  2  0  0  0  0
 12 14  1  0  0  0  0
 13 15  1  0  0  0  0
 14 16  2  0  0  0  0
 15 17  2  0  0  0  0
 16 17  1  0  0  0  0
 19 20  1  0  0  0  0
 20 21  1  0  0  0  0
 20 23  1  0  0  0  0
 21 22  2  0  0  0  0
 23 24  1  0  0  0  0
 24 25  2  0  0  0  0
 24 26  1  0  0  0  0
 25 27  1  0  0  0  0
 26 28  2  0  0  0  0
 27 29  2  0  0  0  0
 28 29  1  0  0  0  0
 30 31  1  0  0  0  0
 31 32  1  0  0  0  0
 31 34  1  0  0  0  0
 32 33  2  0  0  0  0
 34 35  1  0  0  0  0
 35 36  1  0  0  0  0
 36 37  2  0  0  0  0
 36 38  1  0  0  0  0
 39 40  1  0  0  0  0
 40 41  1  0  0  0  0
 40 43  1  0  0  0  0
 41 42  2  0  0  0  0
 43 44  1  0  0  0  0
 44 45  2  0  0  0  0
 44 46  1  0  0  0  0
 45 47  1  0  0  0  0
 46 48  2  0  0  0  0
 47 49  2  0  0  0  0
 48 49  1  0  0  0  0
  2  8  1  0  0  0  0
 18 19  1  0  0  0  0
 21 30  1  0  0  0  0
 32 39  1  0  0  0  0
 41 50  1  0  0  0  0
A    1
O1
A    2
C
A    3
O2
A    4
CT
A    5
C1
A    6
C2
A    7
C3
A    8
N
A    9
CA
A   10
C4
A   11
CB
A   12
CG
A   13
CD1
A   14
CD2
A   15
CE1
A   16
CE2
A   17
CZ
A   18
CM
A   19
N1
A   20
CA1
A   21
C5
A   22
O
A   23
CB1
A   24
CG1
A   25
CD11
A   26
CD21
A   27
CE11
A   28
CE21
A   29
CZ1
A   30
N2
A   31
CA2
A   32
C6
A   33
O3
A   34
CB2
A   35
CG2
A   36
CD
A   37
OE1
A   38
OE2
A   39
N3
A   40
CA3
A   41
C7
A   42
O4
A   43
CB3
A   44
CG3
A   45
CD12
A   46
CD22
A   47
CE12
A   48
CE22
A   49
CZ2
A   50
N4
M  END
>  <InstanceId>
1M0B_0ZQ_B_201

>  <ChemCompId>
0ZQ

>  <PdbId>
1M0B

>  <ChainId>
B

>  <ResidueNumber>
201

>  <InsertionCode>


>  <Model>
1

>  <AltIds>


>  <MissingHeavyAtoms>
0

>  <ObservedFormula>
C38 N5 O7

>  <Name>
N-{(3S)-3-[(tert-butoxycarbonyl)amino]-4-phenylbutyl}-L-phenylalanyl-L-alpha-glutamyl-L-phenylalaninamide

>  <SystematicName>
(4S)-5-[[(2S)-1-azanyl-1-oxo-3-phenyl-propan-2-yl]amino]-4-[[(2S)-2-[[(3S)-3-[(2-methylpropan-2-yl)oxycarbonylamino]-4-phenyl-butyl]amino]-3-phenyl-propanoyl]amino]-5-oxo-pentanoic acid

>  <Synonyms>


>  <Type>
peptide-like

>  <Formula>
C38 H49 N5 O7

>  <MolecularWeight>
687.825

>  <ModifiedDate>
2011-07-13

>  <Parent>


>  <OneLetterCode>


>  <SubcomponentList>
BOC Q00 GLU PHE NH2

>  <AmbiguousFlag>
N

>  <InChI>
InChI=1S/C38H49N5O7/c1-38(2,3)50-37(49)41-29(23-26-13-7-4-8-14-26)21-22-40-32(25-28-17-11-6-12-18-28)36(48)42-30(19-20-33(44)45)35(47)43-31(34(39)46)24-27-15-9-5-10-16-27/h4-18,29-32,40H,19-25H2,1-3H3,(H2,39,46)(H,41,49)(H,42,48)(H,43,47)(H,44,45)/t29-,30+,31+,32+/m1/s1

>  <InChIKey>
CBWQRQVEXJTNOT-ZLESDFJESA-N

>  <SMILES>
CC(C)(C)OC(=O)N[C@H](CCN[C@@H](Cc1ccccc1)C(=O)N[C@@H](CCC(=O)O)C(=O)N[C@@H](Cc2ccccc2)C(=O)N)Cc3ccccc3

$$$$
