1M0B_0ZQ_B_201


 57 59  0  0  0  0  0  0  0  0999 V2000
  -10.4887   14.1243    2.0916 C   0  0  0  0  0  0  0  0  0  0  0  0
  -11.9374   13.7132    2.4052 C   0  0  0  0  0  0  0  0  0  0  0  0
  -12.8854   14.3705    1.9782 O   0  0  0  0  0  0  0  0  0  0  0  0
  -12.0891   12.6366    3.1746 N   0  0  0  0  0  0  0  0  0  0  0  0
  -11.2814   12.1624    3.4779 H   0  0  0  0  0  0  0  0  0  0  0  0
  -13.3926   12.1223    3.5924 C   0  0  0  0  0  0  0  0  0  0  0  0
  -13.4357   12.1903    5.1165 C   0  0  0  0  0  0  0  0  0  0  0  0
  -14.2658   12.8985    5.6775 O   0  0  0  0  0  0  0  0  0  0  0  0
  -12.5507   11.4593    5.7881 N   0  0  0  0  0  0  0  0  0  0  0  0
  -11.9066   10.9024    5.2938 H   0  0  0  0  0  0  0  0  0  0  0  0
  -12.5202   11.4703    7.2437 C   0  0  0  0  0  0  0  0  0  0  0  0
  -11.6166   12.5506    7.8421 C   0  0  0  0  0  0  0  0  0  0  0  0
  -10.4008   12.3888    7.9341 O   0  0  0  0  0  0  0  0  0  0  0  0
  -12.2206   13.6618    8.2461 N   0  0  0  0  0  0  0  0  0  0  0  0
  -13.1966   13.7525    8.1552 H   0  0  0  0  0  0  0  0  0  0  0  0
  -11.6923   14.3951    8.6367 H   0  0  0  0  0  0  0  0  0  0  0  0
  -12.1142   10.0843    7.7682 C   0  0  0  0  0  0  0  0  0  0  0  0
  -12.2801    9.9154    9.2553 C   0  0  0  0  0  0  0  0  0  0  0  0
  -13.5237   10.0604    9.8504 C   0  0  0  0  0  0  0  0  0  0  0  0
  -11.1877    9.5960   10.0614 C   0  0  0  0  0  0  0  0  0  0  0  0
  -13.6795    9.8863   11.2270 C   0  0  0  0  0  0  0  0  0  0  0  0
  -11.3343    9.4200   11.4418 C   0  0  0  0  0  0  0  0  0  0  0  0
  -12.5810    9.5651   12.0221 C   0  0  0  0  0  0  0  0  0  0  0  0
  -13.5781   10.6726    3.1290 C   0  0  0  0  0  0  0  0  0  0  0  0
  -12.2987    9.9948    2.6423 C   0  0  0  0  0  0  0  0  0  0  0  0
  -11.8858    8.8010    3.5043 C   0  0  0  0  0  0  0  0  0  0  0  0
  -12.4869    8.5878    4.5835 O   0  0  0  0  0  0  0  0  0  0  0  0
  -10.9638    8.0632    3.0960 O   0  0  0  0  0  0  0  0  0  0  0  0
  -10.5366    8.2531    2.2840 H   0  0  0  0  0  0  0  0  0  0  0  0
   -9.9950   13.8855    0.7326 N   0  0  0  0  0  0  0  0  0  0  0  0
   -9.5281   12.9787    0.7228 H   0  0  0  0  0  0  0  0  0  0  0  0
  -11.0125   13.8788   -0.3136 C   0  0  0  0  0  0  0  0  0  0  0  0
  -11.2332   15.2670   -0.9102 C   0  0  0  0  0  0  0  0  0  0  0  0
  -10.1115   15.7169   -1.8492 C   0  0  0  0  0  0  0  0  0  0  0  0
   -9.3296   18.1347   -0.6389 O   0  0  0  0  0  0  0  0  0  0  0  0
   -8.5952   17.1740   -0.5862 C   0  0  0  0  0  0  0  0  0  0  0  0
   -8.8757   15.9492   -1.1088 N   0  0  0  0  0  0  0  0  0  0  0  0
   -8.2367   15.2105   -0.9858 H   0  0  0  0  0  0  0  0  0  0  0  0
   -7.3550   17.1254   -0.0015 O   0  0  0  0  0  0  0  0  0  0  0  0
   -6.1129   17.7364   -0.5971 C   0  0  0  0  0  0  0  0  0  0  0  0
   -6.1136   19.1929   -0.1472 C   0  0  0  0  0  0  0  0  0  0  0  0
   -6.1714   17.6500   -2.1396 C   0  0  0  0  0  0  0  0  0  0  0  0
   -4.8777   17.0029   -0.0413 C   0  0  0  0  0  0  0  0  0  0  0  0
   -9.8667   14.6969   -2.9692 C   0  0  0  0  0  0  0  0  0  0  0  0
   -9.5076   15.3295   -4.2817 C   0  0  0  0  0  0  0  0  0  0  0  0
  -10.3982   15.2899   -5.3564 C   0  0  0  0  0  0  0  0  0  0  0  0
   -8.2467   15.8959   -4.4733 C   0  0  0  0  0  0  0  0  0  0  0  0
  -10.0395   15.7983   -6.6022 C   0  0  0  0  0  0  0  0  0  0  0  0
   -7.8778   16.4065   -5.7168 C   0  0  0  0  0  0  0  0  0  0  0  0
   -8.7759   16.3561   -6.7820 C   0  0  0  0  0  0  0  0  0  0  0  0
  -10.3328   15.6031    2.4451 C   0  0  0  0  0  0  0  0  0  0  0  0
   -9.7343   15.8362    3.7983 C   0  0  0  0  0  0  0  0  0  0  0  0
   -8.4872   16.4285    3.9226 C   0  0  0  0  0  0  0  0  0  0  0  0
  -10.4305   15.4858    4.9506 C   0  0  0  0  0  0  0  0  0  0  0  0
   -7.9348   16.6773    5.1713 C   0  0  0  0  0  0  0  0  0  0  0  0
   -9.8868   15.7305    6.2113 C   0  0  0  0  0  0  0  0  0  0  0  0
   -8.6387   16.3277    6.3209 C   0  0  0  0  0  0  0  0  0  0  0  0
 35 36  2  0  0  0
 36 39  1  0  0  0
 39 40  1  0  0  0
 40 41  1  0  0  0
 40 42  1  0  0  0
 40 43  1  0  0  0
 37 34  1  0  0  0
 34 33  1  0  0  0
 34 44  1  0  0  0
 33 32  1  0  0  0
 44 45  1  0  0  0
 45 46  2  0  0  0
 45 47  1  0  0  0
 46 48  1  0  0  0
 47 49  2  0  0  0
 48 50  2  0  0  0
 49 50  1  0  0  0
 30  1  1  0  0  0
  1  2  1  0  0  0
  1 51  1  0  0  0
  2  3  2  0  0  0
 51 52  1  0  0  0
 52 53  2  0  0  0
 52 54  1  0  0  0
 53 55  1  0  0  0
 54 56  2  0  0  0
 55 57  2  0  0  0
 56 57  1  0  0  0
  4  6  1  0  0  0
  6  7  1  0  0  0
  6 24  1  0  0  0
  7  8  2  0  0  0
 24 25  1  0  0  0
 25 26  1  0  0  0
 26 27  2  0  0  0
 26 28  1  0  0  0
  9 11  1  0  0  0
 11 12  1  0  0  0
 11 17  1  0  0  0
 12 13  2  0  0  0
 17 18  1  0  0  0
 18 19  2  0  0  0
 18 20  1  0  0  0
 19 21  1  0  0  0
 20 22  2  0  0  0
 21 23  2  0  0  0
 22 23  1  0  0  0
 36 37  1  0  0  0
 32 30  1  0  0  0
  2  4  1  0  0  0
  7  9  1  0  0  0
 12 14  1  0  0  0
 37 38  1  0  0  0
 30 31  1  0  0  0
  4  5  1  0  0  0
 28 29  1  0  0  0
  9 10  1  0  0  0
 14 15  1  0  0  0
 14 16  1  0  0  0
M  END
> <minimizedAffinity>
-9.35758

$$$$
1M0B_0ZQ_B_201


 57 59  0  0  0  0  0  0  0  0999 V2000
  -10.3179   14.2602    1.3112 C   0  0  0  0  0  0  0  0  0  0  0  0
  -11.8012   14.0762    1.6746 C   0  0  0  0  0  0  0  0  0  0  0  0
  -12.6752   14.7271    1.1041 O   0  0  0  0  0  0  0  0  0  0  0  0
  -12.0641   13.2028    2.6452 N   0  0  0  0  0  0  0  0  0  0  0  0
  -11.3105   12.7193    3.0545 H   0  0  0  0  0  0  0  0  0  0  0  0
  -13.4137   12.9246    3.1345 C   0  0  0  0  0  0  0  0  0  0  0  0
  -13.4056   13.1698    4.6409 C   0  0  0  0  0  0  0  0  0  0  0  0
  -14.4577   13.3813    5.2356 O   0  0  0  0  0  0  0  0  0  0  0  0
  -12.2290   13.1410    5.2604 N   0  0  0  0  0  0  0  0  0  0  0  0
  -11.4118   12.9625    4.7413 H   0  0  0  0  0  0  0  0  0  0  0  0
  -12.1319   13.3696    6.6950 C   0  0  0  0  0  0  0  0  0  0  0  0
  -11.0901   14.4178    7.0921 C   0  0  0  0  0  0  0  0  0  0  0  0
  -11.2796   15.6162    6.8908 O   0  0  0  0  0  0  0  0  0  0  0  0
   -9.9845   13.9571    7.6651 N   0  0  0  0  0  0  0  0  0  0  0  0
   -9.8709   12.9898    7.8087 H   0  0  0  0  0  0  0  0  0  0  0  0
   -9.2784   14.5828    7.9463 H   0  0  0  0  0  0  0  0  0  0  0  0
  -11.8555   12.0421    7.4178 C   0  0  0  0  0  0  0  0  0  0  0  0
  -12.9126   11.6530    8.4171 C   0  0  0  0  0  0  0  0  0  0  0  0
  -14.1467   11.1825    7.9960 C   0  0  0  0  0  0  0  0  0  0  0  0
  -12.6655   11.7454    9.7867 C   0  0  0  0  0  0  0  0  0  0  0  0
  -15.1199   10.8055    8.9236 C   0  0  0  0  0  0  0  0  0  0  0  0
  -13.6349   11.3701   10.7235 C   0  0  0  0  0  0  0  0  0  0  0  0
  -14.8608   10.9000   10.2897 C   0  0  0  0  0  0  0  0  0  0  0  0
  -13.8077   11.4716    2.8442 C   0  0  0  0  0  0  0  0  0  0  0  0
  -12.6521   10.5801    2.3937 C   0  0  0  0  0  0  0  0  0  0  0  0
  -12.1444    9.6509    3.4972 C   0  0  0  0  0  0  0  0  0  0  0  0
  -12.4887    9.8639    4.6836 O   0  0  0  0  0  0  0  0  0  0  0  0
  -11.4073    8.6943    3.1768 O   0  0  0  0  0  0  0  0  0  0  0  0
  -11.1701    8.5657    2.2795 H   0  0  0  0  0  0  0  0  0  0  0  0
   -9.9272   14.0282   -0.0821 N   0  0  0  0  0  0  0  0  0  0  0  0
  -10.6886   13.5302   -0.5432 H   0  0  0  0  0  0  0  0  0  0  0  0
   -9.6371   15.2274   -0.8616 C   0  0  0  0  0  0  0  0  0  0  0  0
   -8.1576   15.3337   -1.2243 C   0  0  0  0  0  0  0  0  0  0  0  0
   -7.7914   16.6409   -1.9312 C   0  0  0  0  0  0  0  0  0  0  0  0
   -5.7858   18.6038   -1.7154 O   0  0  0  0  0  0  0  0  0  0  0  0
   -5.5696   17.5940   -2.3468 C   0  0  0  0  0  0  0  0  0  0  0  0
   -6.4490   16.5666   -2.4985 N   0  0  0  0  0  0  0  0  0  0  0  0
   -6.1760   15.7629   -2.9973 H   0  0  0  0  0  0  0  0  0  0  0  0
   -4.4177   17.2863   -3.0256 O   0  0  0  0  0  0  0  0  0  0  0  0
   -3.0981   16.9860   -2.3628 C   0  0  0  0  0  0  0  0  0  0  0  0
   -2.5179   15.7968   -3.1198 C   0  0  0  0  0  0  0  0  0  0  0  0
   -3.3260   16.6192   -0.8784 C   0  0  0  0  0  0  0  0  0  0  0  0
   -2.1769   18.2127   -2.5018 C   0  0  0  0  0  0  0  0  0  0  0  0
   -8.8042   16.9949   -3.0283 C   0  0  0  0  0  0  0  0  0  0  0  0
   -8.5248   16.3160   -4.3371 C   0  0  0  0  0  0  0  0  0  0  0  0
   -7.9335   17.0182   -5.3893 C   0  0  0  0  0  0  0  0  0  0  0  0
   -8.9249   14.9962   -4.5499 C   0  0  0  0  0  0  0  0  0  0  0  0
   -7.7492   16.4212   -6.6338 C   0  0  0  0  0  0  0  0  0  0  0  0
   -8.7458   14.3901   -5.7923 C   0  0  0  0  0  0  0  0  0  0  0  0
   -8.1580   15.1050   -6.8351 C   0  0  0  0  0  0  0  0  0  0  0  0
   -9.9008   15.6678    1.7367 C   0  0  0  0  0  0  0  0  0  0  0  0
   -9.1025   15.6992    3.0036 C   0  0  0  0  0  0  0  0  0  0  0  0
   -8.7184   14.5195    3.6218 C   0  0  0  0  0  0  0  0  0  0  0  0
   -8.7129   16.9109    3.5654 C   0  0  0  0  0  0  0  0  0  0  0  0
   -7.9531   14.5348    4.7796 C   0  0  0  0  0  0  0  0  0  0  0  0
   -7.9437   16.9402    4.7283 C   0  0  0  0  0  0  0  0  0  0  0  0
   -7.5630   15.7510    5.3345 C   0  0  0  0  0  0  0  0  0  0  0  0
 35 36  2  0  0  0
 36 39  1  0  0  0
 39 40  1  0  0  0
 40 41  1  0  0  0
 40 42  1  0  0  0
 40 43  1  0  0  0
 37 34  1  0  0  0
 34 33  1  0  0  0
 34 44  1  0  0  0
 33 32  1  0  0  0
 44 45  1  0  0  0
 45 46  2  0  0  0
 45 47  1  0  0  0
 46 48  1  0  0  0
 47 49  2  0  0  0
 48 50  2  0  0  0
 49 50  1  0  0  0
 30  1  1  0  0  0
  1  2  1  0  0  0
  1 51  1  0  0  0
  2  3  2  0  0  0
 51 52  1  0  0  0
 52 53  2  0  0  0
 52 54  1  0  0  0
 53 55  1  0  0  0
 54 56  2  0  0  0
 55 57  2  0  0  0
 56 57  1  0  0  0
  4  6  1  0  0  0
  6  7  1  0  0  0
  6 24  1  0  0  0
  7  8  2  0  0  0
 24 25  1  0  0  0
 25 26  1  0  0  0
 26 27  2  0  0  0
 26 28  1  0  0  0
  9 11  1  0  0  0
 11 12  1  0  0  0
 11 17  1  0  0  0
 12 13  2  0  0  0
 17 18  1  0  0  0
 18 19  2  0  0  0
 18 20  1  0  0  0
 19 21  1  0  0  0
 20 22  2  0  0  0
 21 23  2  0  0  0
 22 23  1  0  0  0
 36 37  1  0  0  0
 32 30  1  0  0  0
  2  4  1  0  0  0
  7  9  1  0  0  0
 12 14  1  0  0  0
 37 38  1  0  0  0
 30 31  1  0  0  0
  4  5  1  0  0  0
 28 29  1  0  0  0
  9 10  1  0  0  0
 14 15  1  0  0  0
 14 16  1  0  0  0
M  END
> <minimizedAffinity>
-9.07297

$$$$
1M0B_0ZQ_B_201


 57 59  0  0  0  0  0  0  0  0999 V2000
   -8.7968   15.8049   -0.1464 C   0  0  0  0  0  0  0  0  0  0  0  0
   -8.6821   15.0650    1.1974 C   0  0  0  0  0  0  0  0  0  0  0  0
   -8.0121   14.0382    1.2962 O   0  0  0  0  0  0  0  0  0  0  0  0
   -9.3641   15.5871    2.2154 N   0  0  0  0  0  0  0  0  0  0  0  0
   -9.8779   16.4121    2.0585 H   0  0  0  0  0  0  0  0  0  0  0  0
   -9.3893   14.9990    3.5540 C   0  0  0  0  0  0  0  0  0  0  0  0
  -10.8548   14.8601    3.9569 C   0  0  0  0  0  0  0  0  0  0  0  0
  -11.5778   15.8506    3.9988 O   0  0  0  0  0  0  0  0  0  0  0  0
  -11.2970   13.6408    4.2508 N   0  0  0  0  0  0  0  0  0  0  0  0
  -10.6801   12.8754    4.1982 H   0  0  0  0  0  0  0  0  0  0  0  0
  -12.6801   13.4212    4.6490 C   0  0  0  0  0  0  0  0  0  0  0  0
  -12.8386   12.6180    5.9419 C   0  0  0  0  0  0  0  0  0  0  0  0
  -13.9361   12.1962    6.3025 O   0  0  0  0  0  0  0  0  0  0  0  0
  -11.7286   12.4042    6.6384 N   0  0  0  0  0  0  0  0  0  0  0  0
  -10.8688   12.7590    6.3157 H   0  0  0  0  0  0  0  0  0  0  0  0
  -11.7653   11.8908    7.4776 H   0  0  0  0  0  0  0  0  0  0  0  0
  -13.4526   12.7474    3.5043 C   0  0  0  0  0  0  0  0  0  0  0  0
  -13.0536   13.2185    2.1308 C   0  0  0  0  0  0  0  0  0  0  0  0
  -12.0848   12.5439    1.4040 C   0  0  0  0  0  0  0  0  0  0  0  0
  -13.6612   14.3352    1.5572 C   0  0  0  0  0  0  0  0  0  0  0  0
  -11.7282   12.9714    0.1235 C   0  0  0  0  0  0  0  0  0  0  0  0
  -13.3100   14.7709    0.2747 C   0  0  0  0  0  0  0  0  0  0  0  0
  -12.3439   14.0872   -0.4403 C   0  0  0  0  0  0  0  0  0  0  0  0
   -8.6552   15.8979    4.5558 C   0  0  0  0  0  0  0  0  0  0  0  0
   -8.3403   15.2304    5.8931 C   0  0  0  0  0  0  0  0  0  0  0  0
   -9.4605   15.3883    6.9222 C   0  0  0  0  0  0  0  0  0  0  0  0
  -10.1208   16.4536    6.9500 O   0  0  0  0  0  0  0  0  0  0  0  0
   -9.6920   14.4383    7.7000 O   0  0  0  0  0  0  0  0  0  0  0  0
   -9.1778   13.6565    7.6506 H   0  0  0  0  0  0  0  0  0  0  0  0
   -8.2030   17.1416   -0.2374 N   0  0  0  0  0  0  0  0  0  0  0  0
   -8.5224   17.6827    0.5661 H   0  0  0  0  0  0  0  0  0  0  0  0
   -6.7442   17.1814   -0.2550 C   0  0  0  0  0  0  0  0  0  0  0  0
   -6.2115   18.5145   -0.7756 C   0  0  0  0  0  0  0  0  0  0  0  0
   -5.6466   18.4371   -2.1959 C   0  0  0  0  0  0  0  0  0  0  0  0
   -4.3339   20.0871   -4.0604 O   0  0  0  0  0  0  0  0  0  0  0  0
   -3.6971   19.5554   -3.1790 C   0  0  0  0  0  0  0  0  0  0  0  0
   -4.2238   18.7608   -2.2078 N   0  0  0  0  0  0  0  0  0  0  0  0
   -3.6374   18.3998   -1.5042 H   0  0  0  0  0  0  0  0  0  0  0  0
   -2.3419   19.6427   -2.9841 O   0  0  0  0  0  0  0  0  0  0  0  0
   -1.3469   18.6266   -3.4822 C   0  0  0  0  0  0  0  0  0  0  0  0
    0.0134   19.1052   -2.9882 C   0  0  0  0  0  0  0  0  0  0  0  0
   -1.3716   18.5791   -5.0273 C   0  0  0  0  0  0  0  0  0  0  0  0
   -1.6866   17.2528   -2.8739 C   0  0  0  0  0  0  0  0  0  0  0  0
   -5.8740   17.0546   -2.8217 C   0  0  0  0  0  0  0  0  0  0  0  0
   -6.0995   17.1028   -4.3046 C   0  0  0  0  0  0  0  0  0  0  0  0
   -5.0329   16.9393   -5.1908 C   0  0  0  0  0  0  0  0  0  0  0  0
   -7.3638   17.3921   -4.8195 C   0  0  0  0  0  0  0  0  0  0  0  0
   -5.2181   17.0678   -6.5649 C   0  0  0  0  0  0  0  0  0  0  0  0
   -7.5592   17.5240   -6.1934 C   0  0  0  0  0  0  0  0  0  0  0  0
   -6.4840   17.3623   -7.0661 C   0  0  0  0  0  0  0  0  0  0  0  0
   -8.2078   14.9034   -1.2311 C   0  0  0  0  0  0  0  0  0  0  0  0
   -8.9250   14.9967   -2.5428 C   0  0  0  0  0  0  0  0  0  0  0  0
   -8.4903   14.2624   -3.6352 C   0  0  0  0  0  0  0  0  0  0  0  0
  -10.0520   15.8009   -2.6782 C   0  0  0  0  0  0  0  0  0  0  0  0
   -9.1638   14.3169   -4.8475 C   0  0  0  0  0  0  0  0  0  0  0  0
  -10.7380   15.8644   -3.8907 C   0  0  0  0  0  0  0  0  0  0  0  0
  -10.2937   15.1208   -4.9752 C   0  0  0  0  0  0  0  0  0  0  0  0
 35 36  2  0  0  0
 36 39  1  0  0  0
 39 40  1  0  0  0
 40 41  1  0  0  0
 40 42  1  0  0  0
 40 43  1  0  0  0
 37 34  1  0  0  0
 34 33  1  0  0  0
 34 44  1  0  0  0
 33 32  1  0  0  0
 44 45  1  0  0  0
 45 46  2  0  0  0
 45 47  1  0  0  0
 46 48  1  0  0  0
 47 49  2  0  0  0
 48 50  2  0  0  0
 49 50  1  0  0  0
 30  1  1  0  0  0
  1  2  1  0  0  0
  1 51  1  0  0  0
  2  3  2  0  0  0
 51 52  1  0  0  0
 52 53  2  0  0  0
 52 54  1  0  0  0
 53 55  1  0  0  0
 54 56  2  0  0  0
 55 57  2  0  0  0
 56 57  1  0  0  0
  4  6  1  0  0  0
  6  7  1  0  0  0
  6 24  1  0  0  0
  7  8  2  0  0  0
 24 25  1  0  0  0
 25 26  1  0  0  0
 26 27  2  0  0  0
 26 28  1  0  0  0
  9 11  1  0  0  0
 11 12  1  0  0  0
 11 17  1  0  0  0
 12 13  2  0  0  0
 17 18  1  0  0  0
 18 19  2  0  0  0
 18 20  1  0  0  0
 19 21  1  0  0  0
 20 22  2  0  0  0
 21 23  2  0  0  0
 22 23  1  0  0  0
 36 37  1  0  0  0
 32 30  1  0  0  0
  2  4  1  0  0  0
  7  9  1  0  0  0
 12 14  1  0  0  0
 37 38  1  0  0  0
 30 31  1  0  0  0
  4  5  1  0  0  0
 28 29  1  0  0  0
  9 10  1  0  0  0
 14 15  1  0  0  0
 14 16  1  0  0  0
M  END
> <minimizedAffinity>
-9.05590

$$$$
1M0B_0ZQ_B_201


 57 59  0  0  0  0  0  0  0  0999 V2000
  -11.5292   15.8037    1.6563 C   0  0  0  0  0  0  0  0  0  0  0  0
  -10.8462   15.1175    2.8516 C   0  0  0  0  0  0  0  0  0  0  0  0
   -9.8190   14.4586    2.6973 O   0  0  0  0  0  0  0  0  0  0  0  0
  -11.4451   15.2616    4.0324 N   0  0  0  0  0  0  0  0  0  0  0  0
  -12.2651   15.8047    4.0765 H   0  0  0  0  0  0  0  0  0  0  0  0
  -10.9482   14.6553    5.2669 C   0  0  0  0  0  0  0  0  0  0  0  0
  -12.0627   13.7662    5.8117 C   0  0  0  0  0  0  0  0  0  0  0  0
  -13.2321   13.9979    5.5214 O   0  0  0  0  0  0  0  0  0  0  0  0
  -11.7097   12.7517    6.5960 N   0  0  0  0  0  0  0  0  0  0  0  0
  -10.7575   12.6028    6.7971 H   0  0  0  0  0  0  0  0  0  0  0  0
  -12.7105   11.8583    7.1614 C   0  0  0  0  0  0  0  0  0  0  0  0
  -12.8017   11.9075    8.6881 C   0  0  0  0  0  0  0  0  0  0  0  0
  -12.8171   10.8785    9.3616 O   0  0  0  0  0  0  0  0  0  0  0  0
  -12.8573   13.1171    9.2329 N   0  0  0  0  0  0  0  0  0  0  0  0
  -12.8425   13.9167    8.6588 H   0  0  0  0  0  0  0  0  0  0  0  0
  -12.9134   13.2143   10.2110 H   0  0  0  0  0  0  0  0  0  0  0  0
  -12.4529   10.4192    6.6884 C   0  0  0  0  0  0  0  0  0  0  0  0
  -13.5460    9.8501    5.8231 C   0  0  0  0  0  0  0  0  0  0  0  0
  -14.8079   10.4239    5.8068 C   0  0  0  0  0  0  0  0  0  0  0  0
  -13.3060    8.7425    5.0102 C   0  0  0  0  0  0  0  0  0  0  0  0
  -15.8156    9.9059    4.9909 C   0  0  0  0  0  0  0  0  0  0  0  0
  -14.3099    8.2165    4.1894 C   0  0  0  0  0  0  0  0  0  0  0  0
  -15.5635    8.8001    4.1811 C   0  0  0  0  0  0  0  0  0  0  0  0
  -10.5908   15.7341    6.2960 C   0  0  0  0  0  0  0  0  0  0  0  0
   -9.1092   15.7937    6.6623 C   0  0  0  0  0  0  0  0  0  0  0  0
   -8.1869   15.7647    5.4427 C   0  0  0  0  0  0  0  0  0  0  0  0
   -7.9929   16.8212    4.7964 O   0  0  0  0  0  0  0  0  0  0  0  0
   -7.6421   14.6834    5.1345 O   0  0  0  0  0  0  0  0  0  0  0  0
   -7.8104   13.9130    5.6407 H   0  0  0  0  0  0  0  0  0  0  0  0
  -10.8258   16.9232    1.0242 N   0  0  0  0  0  0  0  0  0  0  0  0
  -10.6428   17.6247    1.7418 H   0  0  0  0  0  0  0  0  0  0  0  0
   -9.5555   16.5887    0.3883 C   0  0  0  0  0  0  0  0  0  0  0  0
   -9.0734   17.6931   -0.5497 C   0  0  0  0  0  0  0  0  0  0  0  0
   -7.7411   17.3788   -1.2342 C   0  0  0  0  0  0  0  0  0  0  0  0
   -8.2870   14.9793   -2.6002 O   0  0  0  0  0  0  0  0  0  0  0  0
   -8.1574   16.0077   -3.2252 C   0  0  0  0  0  0  0  0  0  0  0  0
   -7.9193   17.2293   -2.6747 N   0  0  0  0  0  0  0  0  0  0  0  0
   -7.8666   18.0222   -3.2558 H   0  0  0  0  0  0  0  0  0  0  0  0
   -8.2217   16.1484   -4.5884 O   0  0  0  0  0  0  0  0  0  0  0  0
   -9.1558   15.3688   -5.4776 C   0  0  0  0  0  0  0  0  0  0  0  0
  -10.5248   15.4538   -4.8124 C   0  0  0  0  0  0  0  0  0  0  0  0
   -8.6917   13.8968   -5.5667 C   0  0  0  0  0  0  0  0  0  0  0  0
   -9.1921   16.0300   -6.8683 C   0  0  0  0  0  0  0  0  0  0  0  0
   -6.6879   18.4572   -0.9464 C   0  0  0  0  0  0  0  0  0  0  0  0
   -5.3084   18.0768   -1.3983 C   0  0  0  0  0  0  0  0  0  0  0  0
   -4.6424   16.9972   -0.8146 C   0  0  0  0  0  0  0  0  0  0  0  0
   -4.6385   18.8451   -2.3514 C   0  0  0  0  0  0  0  0  0  0  0  0
   -3.3306   16.6905   -1.1671 C   0  0  0  0  0  0  0  0  0  0  0  0
   -3.3250   18.5468   -2.7101 C   0  0  0  0  0  0  0  0  0  0  0  0
   -2.6710   17.4684   -2.1158 C   0  0  0  0  0  0  0  0  0  0  0  0
  -11.8368   14.7314    0.6115 C   0  0  0  0  0  0  0  0  0  0  0  0
  -12.5618   13.5440    1.1665 C   0  0  0  0  0  0  0  0  0  0  0  0
  -12.1151   12.2595    0.8986 C   0  0  0  0  0  0  0  0  0  0  0  0
  -13.6783   13.7122    1.9793 C   0  0  0  0  0  0  0  0  0  0  0  0
  -12.7602   11.1521    1.4314 C   0  0  0  0  0  0  0  0  0  0  0  0
  -14.3354   12.6079    2.5212 C   0  0  0  0  0  0  0  0  0  0  0  0
  -13.8748   11.3275    2.2476 C   0  0  0  0  0  0  0  0  0  0  0  0
 35 36  2  0  0  0
 36 39  1  0  0  0
 39 40  1  0  0  0
 40 41  1  0  0  0
 40 42  1  0  0  0
 40 43  1  0  0  0
 37 34  1  0  0  0
 34 33  1  0  0  0
 34 44  1  0  0  0
 33 32  1  0  0  0
 44 45  1  0  0  0
 45 46  2  0  0  0
 45 47  1  0  0  0
 46 48  1  0  0  0
 47 49  2  0  0  0
 48 50  2  0  0  0
 49 50  1  0  0  0
 30  1  1  0  0  0
  1  2  1  0  0  0
  1 51  1  0  0  0
  2  3  2  0  0  0
 51 52  1  0  0  0
 52 53  2  0  0  0
 52 54  1  0  0  0
 53 55  1  0  0  0
 54 56  2  0  0  0
 55 57  2  0  0  0
 56 57  1  0  0  0
  4  6  1  0  0  0
  6  7  1  0  0  0
  6 24  1  0  0  0
  7  8  2  0  0  0
 24 25  1  0  0  0
 25 26  1  0  0  0
 26 27  2  0  0  0
 26 28  1  0  0  0
  9 11  1  0  0  0
 11 12  1  0  0  0
 11 17  1  0  0  0
 12 13  2  0  0  0
 17 18  1  0  0  0
 18 19  2  0  0  0
 18 20  1  0  0  0
 19 21  1  0  0  0
 20 22  2  0  0  0
 21 23  2  0  0  0
 22 23  1  0  0  0
 36 37  1  0  0  0
 32 30  1  0  0  0
  2  4  1  0  0  0
  7  9  1  0  0  0
 12 14  1  0  0  0
 37 38  1  0  0  0
 30 31  1  0  0  0
  4  5  1  0  0  0
 28 29  1  0  0  0
  9 10  1  0  0  0
 14 15  1  0  0  0
 14 16  1  0  0  0
M  END
> <minimizedAffinity>
-8.93291

$$$$
1M0B_0ZQ_B_201


 57 59  0  0  0  0  0  0  0  0999 V2000
  -10.3144   14.8150    1.2968 C   0  0  0  0  0  0  0  0  0  0  0  0
  -11.7432   14.3446    1.6186 C   0  0  0  0  0  0  0  0  0  0  0  0
  -12.6987   14.7249    0.9438 O   0  0  0  0  0  0  0  0  0  0  0  0
  -11.8729   13.5371    2.6698 N   0  0  0  0  0  0  0  0  0  0  0  0
  -11.0605   13.2763    3.1608 H   0  0  0  0  0  0  0  0  0  0  0  0
  -13.1592   13.0177    3.1326 C   0  0  0  0  0  0  0  0  0  0  0  0
  -13.2039   13.2102    4.6460 C   0  0  0  0  0  0  0  0  0  0  0  0
  -14.2790   13.3751    5.2137 O   0  0  0  0  0  0  0  0  0  0  0  0
  -12.0468   13.1884    5.3012 N   0  0  0  0  0  0  0  0  0  0  0  0
  -11.2096   13.0482    4.8026 H   0  0  0  0  0  0  0  0  0  0  0  0
  -11.9999   13.3690    6.7451 C   0  0  0  0  0  0  0  0  0  0  0  0
  -11.0292   14.4576    7.2081 C   0  0  0  0  0  0  0  0  0  0  0  0
  -11.3631   15.6409    7.2403 O   0  0  0  0  0  0  0  0  0  0  0  0
   -9.8202   14.0478    7.5729 N   0  0  0  0  0  0  0  0  0  0  0  0
   -9.5917   13.0910    7.5326 H   0  0  0  0  0  0  0  0  0  0  0  0
   -9.1521   14.7007    7.8837 H   0  0  0  0  0  0  0  0  0  0  0  0
  -11.6684   12.0330    7.4281 C   0  0  0  0  0  0  0  0  0  0  0  0
  -11.9685   12.0041    8.9034 C   0  0  0  0  0  0  0  0  0  0  0  0
  -13.1494   12.5371    9.3968 C   0  0  0  0  0  0  0  0  0  0  0  0
  -11.0701   11.4278    9.8012 C   0  0  0  0  0  0  0  0  0  0  0  0
  -13.4344   12.4940   10.7630 C   0  0  0  0  0  0  0  0  0  0  0  0
  -11.3473   11.3804   11.1719 C   0  0  0  0  0  0  0  0  0  0  0  0
  -12.5301   11.9136   11.6503 C   0  0  0  0  0  0  0  0  0  0  0  0
  -13.2983   11.5296    2.7912 C   0  0  0  0  0  0  0  0  0  0  0  0
  -14.7342   11.0089    2.8020 C   0  0  0  0  0  0  0  0  0  0  0  0
  -15.0850   10.2398    4.0765 C   0  0  0  0  0  0  0  0  0  0  0  0
  -14.4390    9.2047    4.3644 O   0  0  0  0  0  0  0  0  0  0  0  0
  -16.0028   10.6781    4.8021 O   0  0  0  0  0  0  0  0  0  0  0  0
  -16.4645   11.4552    4.5554 H   0  0  0  0  0  0  0  0  0  0  0  0
   -9.9654   15.0080   -0.1134 N   0  0  0  0  0  0  0  0  0  0  0  0
  -10.0920   15.9953   -0.3361 H   0  0  0  0  0  0  0  0  0  0  0  0
   -8.6028   14.6355   -0.4803 C   0  0  0  0  0  0  0  0  0  0  0  0
   -7.6004   15.7455   -0.1722 C   0  0  0  0  0  0  0  0  0  0  0  0
   -7.0342   16.4252   -1.4211 C   0  0  0  0  0  0  0  0  0  0  0  0
   -6.5032   16.5196   -4.1836 O   0  0  0  0  0  0  0  0  0  0  0  0
   -7.6490   16.5310   -3.7935 C   0  0  0  0  0  0  0  0  0  0  0  0
   -8.0285   16.4626   -2.4885 N   0  0  0  0  0  0  0  0  0  0  0  0
   -8.9862   16.4380   -2.2616 H   0  0  0  0  0  0  0  0  0  0  0  0
   -8.7756   16.6148   -4.5719 O   0  0  0  0  0  0  0  0  0  0  0  0
   -9.2423   15.5291   -5.5069 C   0  0  0  0  0  0  0  0  0  0  0  0
   -8.7237   15.9216   -6.8856 C   0  0  0  0  0  0  0  0  0  0  0  0
  -10.7870   15.4662   -5.5113 C   0  0  0  0  0  0  0  0  0  0  0  0
   -8.6281   14.1879   -5.0636 C   0  0  0  0  0  0  0  0  0  0  0  0
   -6.5384   17.8454   -1.1179 C   0  0  0  0  0  0  0  0  0  0  0  0
   -5.1517   18.1123   -1.6257 C   0  0  0  0  0  0  0  0  0  0  0  0
   -4.8958   19.2115   -2.4479 C   0  0  0  0  0  0  0  0  0  0  0  0
   -4.1132   17.2216   -1.3505 C   0  0  0  0  0  0  0  0  0  0  0  0
   -3.6312   19.4183   -2.9931 C   0  0  0  0  0  0  0  0  0  0  0  0
   -2.8442   17.4194   -1.8923 C   0  0  0  0  0  0  0  0  0  0  0  0
   -2.6045   18.5190   -2.7152 C   0  0  0  0  0  0  0  0  0  0  0  0
  -10.0585   16.1064    2.0733 C   0  0  0  0  0  0  0  0  0  0  0  0
   -9.1540   15.9271    3.2536 C   0  0  0  0  0  0  0  0  0  0  0  0
   -8.7458   14.6600    3.6402 C   0  0  0  0  0  0  0  0  0  0  0  0
   -8.6895   17.0294    3.9639 C   0  0  0  0  0  0  0  0  0  0  0  0
   -7.8839   14.4825    4.7134 C   0  0  0  0  0  0  0  0  0  0  0  0
   -7.8229   16.8649    5.0441 C   0  0  0  0  0  0  0  0  0  0  0  0
   -7.4194   15.5905    5.4178 C   0  0  0  0  0  0  0  0  0  0  0  0
 35 36  2  0  0  0
 36 39  1  0  0  0
 39 40  1  0  0  0
 40 41  1  0  0  0
 40 42  1  0  0  0
 40 43  1  0  0  0
 37 34  1  0  0  0
 34 33  1  0  0  0
 34 44  1  0  0  0
 33 32  1  0  0  0
 44 45  1  0  0  0
 45 46  2  0  0  0
 45 47  1  0  0  0
 46 48  1  0  0  0
 47 49  2  0  0  0
 48 50  2  0  0  0
 49 50  1  0  0  0
 30  1  1  0  0  0
  1  2  1  0  0  0
  1 51  1  0  0  0
  2  3  2  0  0  0
 51 52  1  0  0  0
 52 53  2  0  0  0
 52 54  1  0  0  0
 53 55  1  0  0  0
 54 56  2  0  0  0
 55 57  2  0  0  0
 56 57  1  0  0  0
  4  6  1  0  0  0
  6  7  1  0  0  0
  6 24  1  0  0  0
  7  8  2  0  0  0
 24 25  1  0  0  0
 25 26  1  0  0  0
 26 27  2  0  0  0
 26 28  1  0  0  0
  9 11  1  0  0  0
 11 12  1  0  0  0
 11 17  1  0  0  0
 12 13  2  0  0  0
 17 18  1  0  0  0
 18 19  2  0  0  0
 18 20  1  0  0  0
 19 21  1  0  0  0
 20 22  2  0  0  0
 21 23  2  0  0  0
 22 23  1  0  0  0
 36 37  1  0  0  0
 32 30  1  0  0  0
  2  4  1  0  0  0
  7  9  1  0  0  0
 12 14  1  0  0  0
 37 38  1  0  0  0
 30 31  1  0  0  0
  4  5  1  0  0  0
 28 29  1  0  0  0
  9 10  1  0  0  0
 14 15  1  0  0  0
 14 16  1  0  0  0
M  END
> <minimizedAffinity>
-8.88837

$$$$
1M0B_0ZQ_B_201


 57 59  0  0  0  0  0  0  0  0999 V2000
   -9.2330   15.3997    1.2206 C   0  0  0  0  0  0  0  0  0  0  0  0
   -8.8917   16.5694    0.2817 C   0  0  0  0  0  0  0  0  0  0  0  0
   -9.7639   17.3513   -0.0936 O   0  0  0  0  0  0  0  0  0  0  0  0
   -7.6212   16.6584   -0.1078 N   0  0  0  0  0  0  0  0  0  0  0  0
   -6.9803   15.9946    0.2356 H   0  0  0  0  0  0  0  0  0  0  0  0
   -7.1285   17.6906   -1.0190 C   0  0  0  0  0  0  0  0  0  0  0  0
   -6.8764   17.0186   -2.3660 C   0  0  0  0  0  0  0  0  0  0  0  0
   -7.0096   15.8044   -2.4823 O   0  0  0  0  0  0  0  0  0  0  0  0
   -6.5160   17.7975   -3.3819 N   0  0  0  0  0  0  0  0  0  0  0  0
   -6.4266   18.7678   -3.2411 H   0  0  0  0  0  0  0  0  0  0  0  0
   -6.2517   17.2365   -4.6991 C   0  0  0  0  0  0  0  0  0  0  0  0
   -5.0659   17.8761   -5.4248 C   0  0  0  0  0  0  0  0  0  0  0  0
   -4.3357   18.6907   -4.8627 O   0  0  0  0  0  0  0  0  0  0  0  0
   -4.8751   17.4966   -6.6827 N   0  0  0  0  0  0  0  0  0  0  0  0
   -5.4823   16.8416   -7.0968 H   0  0  0  0  0  0  0  0  0  0  0  0
   -4.1263   17.8701   -7.2014 H   0  0  0  0  0  0  0  0  0  0  0  0
   -7.5171   17.3217   -5.5666 C   0  0  0  0  0  0  0  0  0  0  0  0
   -8.4143   16.1164   -5.4674 C   0  0  0  0  0  0  0  0  0  0  0  0
   -7.9426   14.8535   -5.7905 C   0  0  0  0  0  0  0  0  0  0  0  0
   -9.7340   16.2454   -5.0350 C   0  0  0  0  0  0  0  0  0  0  0  0
   -8.7703   13.7344   -5.6814 C   0  0  0  0  0  0  0  0  0  0  0  0
  -10.5708   15.1295   -4.9228 C   0  0  0  0  0  0  0  0  0  0  0  0
  -10.0867   13.8752   -5.2460 C   0  0  0  0  0  0  0  0  0  0  0  0
   -5.8271   18.3050   -0.4904 C   0  0  0  0  0  0  0  0  0  0  0  0
   -4.7093   17.2964   -0.2333 C   0  0  0  0  0  0  0  0  0  0  0  0
   -3.7124   17.1965   -1.3888 C   0  0  0  0  0  0  0  0  0  0  0  0
   -3.0565   16.1393   -1.5420 O   0  0  0  0  0  0  0  0  0  0  0  0
   -3.5919   18.1748   -2.1566 O   0  0  0  0  0  0  0  0  0  0  0  0
   -4.0987   18.9494   -2.0115 H   0  0  0  0  0  0  0  0  0  0  0  0
   -9.7600   14.1744    0.6136 N   0  0  0  0  0  0  0  0  0  0  0  0
   -9.2181   13.3880    0.9719 H   0  0  0  0  0  0  0  0  0  0  0  0
  -11.1707   13.9022    0.8703 C   0  0  0  0  0  0  0  0  0  0  0  0
  -11.5256   14.0513    2.3480 C   0  0  0  0  0  0  0  0  0  0  0  0
  -12.6906   13.1636    2.7920 C   0  0  0  0  0  0  0  0  0  0  0  0
  -13.2542   10.7556    1.4482 O   0  0  0  0  0  0  0  0  0  0  0  0
  -12.5776   10.7369    2.4517 C   0  0  0  0  0  0  0  0  0  0  0  0
  -12.2178   11.8357    3.1694 N   0  0  0  0  0  0  0  0  0  0  0  0
  -11.6310   11.7334    3.9532 H   0  0  0  0  0  0  0  0  0  0  0  0
  -12.0475    9.6265    3.0584 O   0  0  0  0  0  0  0  0  0  0  0  0
  -12.8099    8.7295    3.9991 C   0  0  0  0  0  0  0  0  0  0  0  0
  -14.2747    9.1233    3.8474 C   0  0  0  0  0  0  0  0  0  0  0  0
  -12.3370    8.9665    5.4517 C   0  0  0  0  0  0  0  0  0  0  0  0
  -12.6007    7.2639    3.5738 C   0  0  0  0  0  0  0  0  0  0  0  0
  -13.4704   13.7916    3.9549 C   0  0  0  0  0  0  0  0  0  0  0  0
  -12.8197   13.5795    5.2904 C   0  0  0  0  0  0  0  0  0  0  0  0
  -13.0463   12.4061    6.0126 C   0  0  0  0  0  0  0  0  0  0  0  0
  -12.0432   14.5853    5.8674 C   0  0  0  0  0  0  0  0  0  0  0  0
  -12.5161   12.2378    7.2891 C   0  0  0  0  0  0  0  0  0  0  0  0
  -11.5089   14.4268    7.1451 C   0  0  0  0  0  0  0  0  0  0  0  0
  -11.7472   13.2514    7.8562 C   0  0  0  0  0  0  0  0  0  0  0  0
   -7.9841   15.0743    2.0394 C   0  0  0  0  0  0  0  0  0  0  0  0
   -8.1208   15.3976    3.4956 C   0  0  0  0  0  0  0  0  0  0  0  0
   -8.0890   14.3886    4.4455 C   0  0  0  0  0  0  0  0  0  0  0  0
   -8.2561   16.7160    3.9187 C   0  0  0  0  0  0  0  0  0  0  0  0
   -8.1844   14.6777    5.7996 C   0  0  0  0  0  0  0  0  0  0  0  0
   -8.3527   17.0200    5.2763 C   0  0  0  0  0  0  0  0  0  0  0  0
   -8.3156   15.9999    6.2167 C   0  0  0  0  0  0  0  0  0  0  0  0
 35 36  2  0  0  0
 36 39  1  0  0  0
 39 40  1  0  0  0
 40 41  1  0  0  0
 40 42  1  0  0  0
 40 43  1  0  0  0
 37 34  1  0  0  0
 34 33  1  0  0  0
 34 44  1  0  0  0
 33 32  1  0  0  0
 44 45  1  0  0  0
 45 46  2  0  0  0
 45 47  1  0  0  0
 46 48  1  0  0  0
 47 49  2  0  0  0
 48 50  2  0  0  0
 49 50  1  0  0  0
 30  1  1  0  0  0
  1  2  1  0  0  0
  1 51  1  0  0  0
  2  3  2  0  0  0
 51 52  1  0  0  0
 52 53  2  0  0  0
 52 54  1  0  0  0
 53 55  1  0  0  0
 54 56  2  0  0  0
 55 57  2  0  0  0
 56 57  1  0  0  0
  4  6  1  0  0  0
  6  7  1  0  0  0
  6 24  1  0  0  0
  7  8  2  0  0  0
 24 25  1  0  0  0
 25 26  1  0  0  0
 26 27  2  0  0  0
 26 28  1  0  0  0
  9 11  1  0  0  0
 11 12  1  0  0  0
 11 17  1  0  0  0
 12 13  2  0  0  0
 17 18  1  0  0  0
 18 19  2  0  0  0
 18 20  1  0  0  0
 19 21  1  0  0  0
 20 22  2  0  0  0
 21 23  2  0  0  0
 22 23  1  0  0  0
 36 37  1  0  0  0
 32 30  1  0  0  0
  2  4  1  0  0  0
  7  9  1  0  0  0
 12 14  1  0  0  0
 37 38  1  0  0  0
 30 31  1  0  0  0
  4  5  1  0  0  0
 28 29  1  0  0  0
  9 10  1  0  0  0
 14 15  1  0  0  0
 14 16  1  0  0  0
M  END
> <minimizedAffinity>
-8.83276

$$$$
1M0B_0ZQ_B_201


 57 59  0  0  0  0  0  0  0  0999 V2000
   -8.7372   15.8958   -0.0773 C   0  0  0  0  0  0  0  0  0  0  0  0
   -8.6884   15.1157    1.2476 C   0  0  0  0  0  0  0  0  0  0  0  0
   -7.9923   14.1077    1.3600 O   0  0  0  0  0  0  0  0  0  0  0  0
   -9.4544   15.5819    2.2323 N   0  0  0  0  0  0  0  0  0  0  0  0
   -9.9840   16.3950    2.0664 H   0  0  0  0  0  0  0  0  0  0  0  0
   -9.5498   14.9491    3.5471 C   0  0  0  0  0  0  0  0  0  0  0  0
  -10.9845   14.4528    3.7046 C   0  0  0  0  0  0  0  0  0  0  0  0
  -11.8958   15.2535    3.8886 O   0  0  0  0  0  0  0  0  0  0  0  0
  -11.1909   13.1410    3.6317 N   0  0  0  0  0  0  0  0  0  0  0  0
  -10.4282   12.5377    3.4779 H   0  0  0  0  0  0  0  0  0  0  0  0
  -12.5283   12.5838    3.7761 C   0  0  0  0  0  0  0  0  0  0  0  0
  -13.0852   12.6554    5.1996 C   0  0  0  0  0  0  0  0  0  0  0  0
  -14.1887   13.1468    5.4308 O   0  0  0  0  0  0  0  0  0  0  0  0
  -12.3129   12.1550    6.1566 N   0  0  0  0  0  0  0  0  0  0  0  0
  -11.4354   11.7702    5.9303 H   0  0  0  0  0  0  0  0  0  0  0  0
  -12.6177   12.1687    7.0927 H   0  0  0  0  0  0  0  0  0  0  0  0
  -12.5477   11.1339    3.2678 C   0  0  0  0  0  0  0  0  0  0  0  0
  -13.9041   10.4818    3.3175 C   0  0  0  0  0  0  0  0  0  0  0  0
  -14.1074    9.3246    4.0534 C   0  0  0  0  0  0  0  0  0  0  0  0
  -14.9862   11.0374    2.6351 C   0  0  0  0  0  0  0  0  0  0  0  0
  -15.3696    8.7306    4.1129 C   0  0  0  0  0  0  0  0  0  0  0  0
  -16.2546   10.4489    2.6889 C   0  0  0  0  0  0  0  0  0  0  0  0
  -16.4439    9.2961    3.4287 C   0  0  0  0  0  0  0  0  0  0  0  0
   -9.2197   15.9529    4.6580 C   0  0  0  0  0  0  0  0  0  0  0  0
   -8.8267   15.3168    5.9899 C   0  0  0  0  0  0  0  0  0  0  0  0
  -10.0146   15.1090    6.9304 C   0  0  0  0  0  0  0  0  0  0  0  0
  -10.8363   16.0415    7.0943 O   0  0  0  0  0  0  0  0  0  0  0  0
  -10.1361   14.0036    7.4999 O   0  0  0  0  0  0  0  0  0  0  0  0
   -9.5022   13.3292    7.3538 H   0  0  0  0  0  0  0  0  0  0  0  0
   -7.4604   16.2801   -0.6854 N   0  0  0  0  0  0  0  0  0  0  0  0
   -6.9965   15.4301   -1.0058 H   0  0  0  0  0  0  0  0  0  0  0  0
   -7.5542   17.1954   -1.8183 C   0  0  0  0  0  0  0  0  0  0  0  0
   -6.8545   16.6472   -3.0600 C   0  0  0  0  0  0  0  0  0  0  0  0
   -6.6035   17.7029   -4.1394 C   0  0  0  0  0  0  0  0  0  0  0  0
   -5.1314   19.6590   -2.7507 O   0  0  0  0  0  0  0  0  0  0  0  0
   -4.5770   18.9629   -3.5711 C   0  0  0  0  0  0  0  0  0  0  0  0
   -5.1762   17.9701   -4.2832 N   0  0  0  0  0  0  0  0  0  0  0  0
   -4.6398   17.4250   -4.9033 H   0  0  0  0  0  0  0  0  0  0  0  0
   -3.2584   19.0326   -3.9437 O   0  0  0  0  0  0  0  0  0  0  0  0
   -2.1521   18.2398   -3.2970 C   0  0  0  0  0  0  0  0  0  0  0  0
   -1.1341   19.2681   -2.8176 C   0  0  0  0  0  0  0  0  0  0  0  0
   -1.5096   17.2900   -4.3339 C   0  0  0  0  0  0  0  0  0  0  0  0
   -2.7289   17.4572   -2.1021 C   0  0  0  0  0  0  0  0  0  0  0  0
   -7.1961   17.2831   -5.4912 C   0  0  0  0  0  0  0  0  0  0  0  0
   -8.1889   16.1630   -5.3833 C   0  0  0  0  0  0  0  0  0  0  0  0
   -9.4371   16.3747   -4.7944 C   0  0  0  0  0  0  0  0  0  0  0  0
   -7.8496   14.8739   -5.7963 C   0  0  0  0  0  0  0  0  0  0  0  0
  -10.3304   15.3220   -4.6127 C   0  0  0  0  0  0  0  0  0  0  0  0
   -8.7364   13.8133   -5.6177 C   0  0  0  0  0  0  0  0  0  0  0  0
   -9.9777   14.0388   -5.0242 C   0  0  0  0  0  0  0  0  0  0  0  0
   -9.5585   15.0785   -1.0741 C   0  0  0  0  0  0  0  0  0  0  0  0
  -10.9081   14.6840   -0.5579 C   0  0  0  0  0  0  0  0  0  0  0  0
  -11.2058   13.3522   -0.3147 C   0  0  0  0  0  0  0  0  0  0  0  0
  -11.8740   15.6489   -0.2907 C   0  0  0  0  0  0  0  0  0  0  0  0
  -12.4421   12.9765    0.1919 C   0  0  0  0  0  0  0  0  0  0  0  0
  -13.1201   15.2848    0.2188 C   0  0  0  0  0  0  0  0  0  0  0  0
  -13.4032   13.9478    0.4610 C   0  0  0  0  0  0  0  0  0  0  0  0
 35 36  2  0  0  0
 36 39  1  0  0  0
 39 40  1  0  0  0
 40 41  1  0  0  0
 40 42  1  0  0  0
 40 43  1  0  0  0
 37 34  1  0  0  0
 34 33  1  0  0  0
 34 44  1  0  0  0
 33 32  1  0  0  0
 44 45  1  0  0  0
 45 46  2  0  0  0
 45 47  1  0  0  0
 46 48  1  0  0  0
 47 49  2  0  0  0
 48 50  2  0  0  0
 49 50  1  0  0  0
 30  1  1  0  0  0
  1  2  1  0  0  0
  1 51  1  0  0  0
  2  3  2  0  0  0
 51 52  1  0  0  0
 52 53  2  0  0  0
 52 54  1  0  0  0
 53 55  1  0  0  0
 54 56  2  0  0  0
 55 57  2  0  0  0
 56 57  1  0  0  0
  4  6  1  0  0  0
  6  7  1  0  0  0
  6 24  1  0  0  0
  7  8  2  0  0  0
 24 25  1  0  0  0
 25 26  1  0  0  0
 26 27  2  0  0  0
 26 28  1  0  0  0
  9 11  1  0  0  0
 11 12  1  0  0  0
 11 17  1  0  0  0
 12 13  2  0  0  0
 17 18  1  0  0  0
 18 19  2  0  0  0
 18 20  1  0  0  0
 19 21  1  0  0  0
 20 22  2  0  0  0
 21 23  2  0  0  0
 22 23  1  0  0  0
 36 37  1  0  0  0
 32 30  1  0  0  0
  2  4  1  0  0  0
  7  9  1  0  0  0
 12 14  1  0  0  0
 37 38  1  0  0  0
 30 31  1  0  0  0
  4  5  1  0  0  0
 28 29  1  0  0  0
  9 10  1  0  0  0
 14 15  1  0  0  0
 14 16  1  0  0  0
M  END
> <minimizedAffinity>
-8.72719

$$$$
1M0B_0ZQ_B_201


 57 59  0  0  0  0  0  0  0  0999 V2000
   -8.7547   16.0263    0.0128 C   0  0  0  0  0  0  0  0  0  0  0  0
   -8.7062   15.1715    1.2907 C   0  0  0  0  0  0  0  0  0  0  0  0
   -7.9877   14.1753    1.3556 O   0  0  0  0  0  0  0  0  0  0  0  0
   -9.4975   15.5615    2.2886 N   0  0  0  0  0  0  0  0  0  0  0  0
  -10.0443   16.3704    2.1616 H   0  0  0  0  0  0  0  0  0  0  0  0
   -9.5966   14.8510    3.5628 C   0  0  0  0  0  0  0  0  0  0  0  0
  -11.0400   14.3746    3.7012 C   0  0  0  0  0  0  0  0  0  0  0  0
  -11.9505   15.1910    3.8008 O   0  0  0  0  0  0  0  0  0  0  0  0
  -11.2546   13.0621    3.7062 N   0  0  0  0  0  0  0  0  0  0  0  0
  -10.4920   12.4456    3.6187 H   0  0  0  0  0  0  0  0  0  0  0  0
  -12.6007   12.5235    3.8389 C   0  0  0  0  0  0  0  0  0  0  0  0
  -13.1603   12.5825    5.2619 C   0  0  0  0  0  0  0  0  0  0  0  0
  -14.2817   13.0331    5.4902 O   0  0  0  0  0  0  0  0  0  0  0  0
  -12.3698   12.1174    6.2220 N   0  0  0  0  0  0  0  0  0  0  0  0
  -11.4784   11.7647    5.9980 H   0  0  0  0  0  0  0  0  0  0  0  0
  -12.6751   12.1252    7.1579 H   0  0  0  0  0  0  0  0  0  0  0  0
  -12.6410   11.0817    3.3091 C   0  0  0  0  0  0  0  0  0  0  0  0
  -14.0048   10.4452    3.3581 C   0  0  0  0  0  0  0  0  0  0  0  0
  -14.2350    9.3223    4.1378 C   0  0  0  0  0  0  0  0  0  0  0  0
  -15.0669   10.9817    2.6305 C   0  0  0  0  0  0  0  0  0  0  0  0
  -15.5043    8.7434    4.1961 C   0  0  0  0  0  0  0  0  0  0  0  0
  -16.3422   10.4081    2.6827 C   0  0  0  0  0  0  0  0  0  0  0  0
  -16.5585    9.2896    3.4664 C   0  0  0  0  0  0  0  0  0  0  0  0
   -9.2385   15.7779    4.7304 C   0  0  0  0  0  0  0  0  0  0  0  0
   -8.8971   15.0543    6.0315 C   0  0  0  0  0  0  0  0  0  0  0  0
  -10.0791   14.9655    6.9979 C   0  0  0  0  0  0  0  0  0  0  0  0
  -10.8993   15.9121    7.0508 O   0  0  0  0  0  0  0  0  0  0  0  0
  -10.1975   13.9388    7.6999 O   0  0  0  0  0  0  0  0  0  0  0  0
   -9.5649   13.2507    7.6341 H   0  0  0  0  0  0  0  0  0  0  0  0
   -7.4779   16.4474   -0.5703 N   0  0  0  0  0  0  0  0  0  0  0  0
   -7.6218   16.5939   -1.5694 H   0  0  0  0  0  0  0  0  0  0  0  0
   -6.9059   17.6697   -0.0146 C   0  0  0  0  0  0  0  0  0  0  0  0
   -6.5163   18.6685   -1.1019 C   0  0  0  0  0  0  0  0  0  0  0  0
   -5.8819   18.0184   -2.3337 C   0  0  0  0  0  0  0  0  0  0  0  0
   -7.0954   15.6562   -3.2660 O   0  0  0  0  0  0  0  0  0  0  0  0
   -7.3495   16.7114   -3.8017 C   0  0  0  0  0  0  0  0  0  0  0  0
   -6.8469   17.9182   -3.4237 N   0  0  0  0  0  0  0  0  0  0  0  0
   -7.1381   18.7340   -3.8915 H   0  0  0  0  0  0  0  0  0  0  0  0
   -8.1783   16.9016   -4.8784 O   0  0  0  0  0  0  0  0  0  0  0  0
   -9.0725   15.8362   -5.4581 C   0  0  0  0  0  0  0  0  0  0  0  0
   -8.2281   14.5678   -5.5005 C   0  0  0  0  0  0  0  0  0  0  0  0
   -9.5124   16.2372   -6.8849 C   0  0  0  0  0  0  0  0  0  0  0  0
  -10.2872   15.6425   -4.5309 C   0  0  0  0  0  0  0  0  0  0  0  0
   -4.6397   18.7871   -2.8037 C   0  0  0  0  0  0  0  0  0  0  0  0
   -3.4804   17.8954   -3.1398 C   0  0  0  0  0  0  0  0  0  0  0  0
   -3.5048   16.5410   -2.8013 C   0  0  0  0  0  0  0  0  0  0  0  0
   -2.3273   18.4226   -3.7227 C   0  0  0  0  0  0  0  0  0  0  0  0
   -2.3997   15.7257   -3.0319 C   0  0  0  0  0  0  0  0  0  0  0  0
   -1.2155   17.6150   -3.9565 C   0  0  0  0  0  0  0  0  0  0  0  0
   -1.2527   16.2652   -3.6094 C   0  0  0  0  0  0  0  0  0  0  0  0
   -9.5728   15.2658   -1.0306 C   0  0  0  0  0  0  0  0  0  0  0  0
  -10.8972   14.7864   -0.5211 C   0  0  0  0  0  0  0  0  0  0  0  0
  -11.1173   13.4363   -0.2973 C   0  0  0  0  0  0  0  0  0  0  0  0
  -11.9173   15.6898   -0.2407 C   0  0  0  0  0  0  0  0  0  0  0  0
  -12.3297   12.9824    0.2031 C   0  0  0  0  0  0  0  0  0  0  0  0
  -13.1402   15.2469    0.2627 C   0  0  0  0  0  0  0  0  0  0  0  0
  -13.3453   13.8924    0.4855 C   0  0  0  0  0  0  0  0  0  0  0  0
 35 36  2  0  0  0
 36 39  1  0  0  0
 39 40  1  0  0  0
 40 41  1  0  0  0
 40 42  1  0  0  0
 40 43  1  0  0  0
 37 34  1  0  0  0
 34 33  1  0  0  0
 34 44  1  0  0  0
 33 32  1  0  0  0
 44 45  1  0  0  0
 45 46  2  0  0  0
 45 47  1  0  0  0
 46 48  1  0  0  0
 47 49  2  0  0  0
 48 50  2  0  0  0
 49 50  1  0  0  0
 30  1  1  0  0  0
  1  2  1  0  0  0
  1 51  1  0  0  0
  2  3  2  0  0  0
 51 52  1  0  0  0
 52 53  2  0  0  0
 52 54  1  0  0  0
 53 55  1  0  0  0
 54 56  2  0  0  0
 55 57  2  0  0  0
 56 57  1  0  0  0
  4  6  1  0  0  0
  6  7  1  0  0  0
  6 24  1  0  0  0
  7  8  2  0  0  0
 24 25  1  0  0  0
 25 26  1  0  0  0
 26 27  2  0  0  0
 26 28  1  0  0  0
  9 11  1  0  0  0
 11 12  1  0  0  0
 11 17  1  0  0  0
 12 13  2  0  0  0
 17 18  1  0  0  0
 18 19  2  0  0  0
 18 20  1  0  0  0
 19 21  1  0  0  0
 20 22  2  0  0  0
 21 23  2  0  0  0
 22 23  1  0  0  0
 36 37  1  0  0  0
 32 30  1  0  0  0
  2  4  1  0  0  0
  7  9  1  0  0  0
 12 14  1  0  0  0
 37 38  1  0  0  0
 30 31  1  0  0  0
  4  5  1  0  0  0
 28 29  1  0  0  0
  9 10  1  0  0  0
 14 15  1  0  0  0
 14 16  1  0  0  0
M  END
> <minimizedAffinity>
-8.70861

$$$$
1M0B_0ZQ_B_201


 57 59  0  0  0  0  0  0  0  0999 V2000
   -8.7162   14.5407    2.5040 C   0  0  0  0  0  0  0  0  0  0  0  0
  -10.1865   14.9927    2.4934 C   0  0  0  0  0  0  0  0  0  0  0  0
  -10.4869   16.1536    2.2192 O   0  0  0  0  0  0  0  0  0  0  0  0
  -11.0877   14.0678    2.8196 N   0  0  0  0  0  0  0  0  0  0  0  0
  -10.7698   13.1593    3.0266 H   0  0  0  0  0  0  0  0  0  0  0  0
  -12.5245   14.3314    2.8863 C   0  0  0  0  0  0  0  0  0  0  0  0
  -13.0206   13.7851    4.2223 C   0  0  0  0  0  0  0  0  0  0  0  0
  -13.9715   14.3148    4.7886 O   0  0  0  0  0  0  0  0  0  0  0  0
  -12.3863   12.7309    4.7272 N   0  0  0  0  0  0  0  0  0  0  0  0
  -11.6310   12.3371    4.2336 H   0  0  0  0  0  0  0  0  0  0  0  0
  -12.7924   12.1505    5.9992 C   0  0  0  0  0  0  0  0  0  0  0  0
  -12.0320   12.6996    7.2083 C   0  0  0  0  0  0  0  0  0  0  0  0
  -12.2519   13.8287    7.6435 O   0  0  0  0  0  0  0  0  0  0  0  0
  -11.1343   11.8875    7.7538 N   0  0  0  0  0  0  0  0  0  0  0  0
  -10.9877   10.9905    7.3755 H   0  0  0  0  0  0  0  0  0  0  0  0
  -10.6153   12.1824    8.5367 H   0  0  0  0  0  0  0  0  0  0  0  0
  -12.6660   10.6203    5.9392 C   0  0  0  0  0  0  0  0  0  0  0  0
  -13.8136    9.9339    5.2469 C   0  0  0  0  0  0  0  0  0  0  0  0
  -14.9913   10.6157    4.9822 C   0  0  0  0  0  0  0  0  0  0  0  0
  -13.7088    8.6023    4.8458 C   0  0  0  0  0  0  0  0  0  0  0  0
  -16.0482    9.9833    4.3245 C   0  0  0  0  0  0  0  0  0  0  0  0
  -14.7629    7.9604    4.1863 C   0  0  0  0  0  0  0  0  0  0  0  0
  -15.9312    8.6529    3.9264 C   0  0  0  0  0  0  0  0  0  0  0  0
  -13.2580   13.6363    1.7333 C   0  0  0  0  0  0  0  0  0  0  0  0
  -13.2465   14.4110    0.4170 C   0  0  0  0  0  0  0  0  0  0  0  0
  -11.8745   14.4282   -0.2584 C   0  0  0  0  0  0  0  0  0  0  0  0
  -11.2188   13.3628   -0.3401 O   0  0  0  0  0  0  0  0  0  0  0  0
  -11.4532   15.5092   -0.7219 O   0  0  0  0  0  0  0  0  0  0  0  0
  -11.9706   16.2863   -0.6425 H   0  0  0  0  0  0  0  0  0  0  0  0
   -8.0506   14.3674    1.2099 N   0  0  0  0  0  0  0  0  0  0  0  0
   -8.7064   13.9075    0.5784 H   0  0  0  0  0  0  0  0  0  0  0  0
   -7.5949   15.5962    0.5679 C   0  0  0  0  0  0  0  0  0  0  0  0
   -7.8658   15.5946   -0.9349 C   0  0  0  0  0  0  0  0  0  0  0  0
   -7.8329   16.9886   -1.5660 C   0  0  0  0  0  0  0  0  0  0  0  0
   -5.8902   18.8556   -0.7522 O   0  0  0  0  0  0  0  0  0  0  0  0
   -5.6986   18.1849   -1.7415 C   0  0  0  0  0  0  0  0  0  0  0  0
   -6.5497   17.2348   -2.2156 N   0  0  0  0  0  0  0  0  0  0  0  0
   -6.2964   16.7069   -3.0070 H   0  0  0  0  0  0  0  0  0  0  0  0
   -4.6069   18.2457   -2.5702 O   0  0  0  0  0  0  0  0  0  0  0  0
   -3.3503   17.4368   -2.3770 C   0  0  0  0  0  0  0  0  0  0  0  0
   -3.3207   16.4397   -3.5297 C   0  0  0  0  0  0  0  0  0  0  0  0
   -3.4065   16.6922   -1.0233 C   0  0  0  0  0  0  0  0  0  0  0  0
   -2.1327   18.3776   -2.4489 C   0  0  0  0  0  0  0  0  0  0  0  0
   -8.9747   17.1820   -2.5728 C   0  0  0  0  0  0  0  0  0  0  0  0
   -8.9123   16.2318   -3.7326 C   0  0  0  0  0  0  0  0  0  0  0  0
   -8.1761   16.5529   -4.8748 C   0  0  0  0  0  0  0  0  0  0  0  0
   -9.6540   15.0498   -3.7203 C   0  0  0  0  0  0  0  0  0  0  0  0
   -8.1822   15.7169   -5.9885 C   0  0  0  0  0  0  0  0  0  0  0  0
   -9.6676   14.2070   -4.8306 C   0  0  0  0  0  0  0  0  0  0  0  0
   -8.9310   14.5427   -5.9658 C   0  0  0  0  0  0  0  0  0  0  0  0
   -7.9268   15.5290    3.3622 C   0  0  0  0  0  0  0  0  0  0  0  0
   -8.3183   15.5135    4.8079 C   0  0  0  0  0  0  0  0  0  0  0  0
   -8.7235   16.6793    5.4388 C   0  0  0  0  0  0  0  0  0  0  0  0
   -8.3056   14.3259    5.5324 C   0  0  0  0  0  0  0  0  0  0  0  0
   -9.1174   16.6727    6.7696 C   0  0  0  0  0  0  0  0  0  0  0  0
   -8.6992   14.3055    6.8701 C   0  0  0  0  0  0  0  0  0  0  0  0
   -9.1062   15.4798    7.4881 C   0  0  0  0  0  0  0  0  0  0  0  0
 35 36  2  0  0  0
 36 39  1  0  0  0
 39 40  1  0  0  0
 40 41  1  0  0  0
 40 42  1  0  0  0
 40 43  1  0  0  0
 37 34  1  0  0  0
 34 33  1  0  0  0
 34 44  1  0  0  0
 33 32  1  0  0  0
 44 45  1  0  0  0
 45 46  2  0  0  0
 45 47  1  0  0  0
 46 48  1  0  0  0
 47 49  2  0  0  0
 48 50  2  0  0  0
 49 50  1  0  0  0
 30  1  1  0  0  0
  1  2  1  0  0  0
  1 51  1  0  0  0
  2  3  2  0  0  0
 51 52  1  0  0  0
 52 53  2  0  0  0
 52 54  1  0  0  0
 53 55  1  0  0  0
 54 56  2  0  0  0
 55 57  2  0  0  0
 56 57  1  0  0  0
  4  6  1  0  0  0
  6  7  1  0  0  0
  6 24  1  0  0  0
  7  8  2  0  0  0
 24 25  1  0  0  0
 25 26  1  0  0  0
 26 27  2  0  0  0
 26 28  1  0  0  0
  9 11  1  0  0  0
 11 12  1  0  0  0
 11 17  1  0  0  0
 12 13  2  0  0  0
 17 18  1  0  0  0
 18 19  2  0  0  0
 18 20  1  0  0  0
 19 21  1  0  0  0
 20 22  2  0  0  0
 21 23  2  0  0  0
 22 23  1  0  0  0
 36 37  1  0  0  0
 32 30  1  0  0  0
  2  4  1  0  0  0
  7  9  1  0  0  0
 12 14  1  0  0  0
 37 38  1  0  0  0
 30 31  1  0  0  0
  4  5  1  0  0  0
 28 29  1  0  0  0
  9 10  1  0  0  0
 14 15  1  0  0  0
 14 16  1  0  0  0
M  END
> <minimizedAffinity>
-8.66733

$$$$
1M0B_0ZQ_B_201


 57 59  0  0  0  0  0  0  0  0999 V2000
  -12.6285   13.0395    4.9561 C   0  0  0  0  0  0  0  0  0  0  0  0
  -11.8847   14.3654    4.7217 C   0  0  0  0  0  0  0  0  0  0  0  0
  -12.3772   15.4354    5.0761 O   0  0  0  0  0  0  0  0  0  0  0  0
  -10.7103   14.2781    4.0996 N   0  0  0  0  0  0  0  0  0  0  0  0
  -10.3816   13.3852    3.8467 H   0  0  0  0  0  0  0  0  0  0  0  0
   -9.8836   15.4391    3.7728 C   0  0  0  0  0  0  0  0  0  0  0  0
   -9.4640   15.2959    2.3123 C   0  0  0  0  0  0  0  0  0  0  0  0
   -9.8093   14.3114    1.6667 O   0  0  0  0  0  0  0  0  0  0  0  0
   -8.7252   16.2698    1.7883 N   0  0  0  0  0  0  0  0  0  0  0  0
   -8.4767   17.0430    2.3447 H   0  0  0  0  0  0  0  0  0  0  0  0
   -8.2786   16.2092    0.4040 C   0  0  0  0  0  0  0  0  0  0  0  0
   -6.9654   16.9484    0.1376 C   0  0  0  0  0  0  0  0  0  0  0  0
   -5.9205   16.3377   -0.0809 O   0  0  0  0  0  0  0  0  0  0  0  0
   -7.0264   18.2746    0.1525 N   0  0  0  0  0  0  0  0  0  0  0  0
   -7.8827   18.7261    0.3315 H   0  0  0  0  0  0  0  0  0  0  0  0
   -6.2152   18.8066   -0.0155 H   0  0  0  0  0  0  0  0  0  0  0  0
   -9.3842   16.7341   -0.5251 C   0  0  0  0  0  0  0  0  0  0  0  0
   -9.2856   16.2361   -1.9428 C   0  0  0  0  0  0  0  0  0  0  0  0
   -9.9085   15.0580   -2.3248 C   0  0  0  0  0  0  0  0  0  0  0  0
   -8.5769   16.9581   -2.9028 C   0  0  0  0  0  0  0  0  0  0  0  0
   -9.8309   14.6064   -3.6438 C   0  0  0  0  0  0  0  0  0  0  0  0
   -8.4936   16.5130   -4.2268 C   0  0  0  0  0  0  0  0  0  0  0  0
   -9.1218   15.3374   -4.5950 C   0  0  0  0  0  0  0  0  0  0  0  0
   -8.6416   15.4911    4.6701 C   0  0  0  0  0  0  0  0  0  0  0  0
   -8.7700   16.4198    5.8760 C   0  0  0  0  0  0  0  0  0  0  0  0
   -9.4834   15.7695    7.0621 C   0  0  0  0  0  0  0  0  0  0  0  0
   -8.8542   14.9649    7.7889 O   0  0  0  0  0  0  0  0  0  0  0  0
  -10.6759   16.0730    7.2781 O   0  0  0  0  0  0  0  0  0  0  0  0
  -11.1149   16.6785    6.7136 H   0  0  0  0  0  0  0  0  0  0  0  0
  -13.1106   12.7629    6.3121 N   0  0  0  0  0  0  0  0  0  0  0  0
  -13.7882   13.4845    6.5580 H   0  0  0  0  0  0  0  0  0  0  0  0
  -13.7492   11.4640    6.4993 C   0  0  0  0  0  0  0  0  0  0  0  0
  -12.7752   10.3078    6.2838 C   0  0  0  0  0  0  0  0  0  0  0  0
  -13.2565    9.2838    5.2531 C   0  0  0  0  0  0  0  0  0  0  0  0
  -11.7867    8.5464    2.9689 O   0  0  0  0  0  0  0  0  0  0  0  0
  -11.6842    7.8938    3.9831 C   0  0  0  0  0  0  0  0  0  0  0  0
  -12.3218    8.1677    5.1537 N   0  0  0  0  0  0  0  0  0  0  0  0
  -12.1502    7.6056    5.9436 H   0  0  0  0  0  0  0  0  0  0  0  0
  -10.9205    6.7671    4.1553 O   0  0  0  0  0  0  0  0  0  0  0  0
  -11.3831    5.3714    3.8256 C   0  0  0  0  0  0  0  0  0  0  0  0
  -11.4882    4.6457    5.1621 C   0  0  0  0  0  0  0  0  0  0  0  0
  -10.3460    4.6743    2.9153 C   0  0  0  0  0  0  0  0  0  0  0  0
  -12.7633    5.4483    3.1460 C   0  0  0  0  0  0  0  0  0  0  0  0
  -14.6608    8.7623    5.5856 C   0  0  0  0  0  0  0  0  0  0  0  0
  -15.6238    8.8754    4.4403 C   0  0  0  0  0  0  0  0  0  0  0  0
  -15.7386   10.0685    3.7241 C   0  0  0  0  0  0  0  0  0  0  0  0
  -16.4767    7.8167    4.1251 C   0  0  0  0  0  0  0  0  0  0  0  0
  -16.6893   10.2097    2.7165 C   0  0  0  0  0  0  0  0  0  0  0  0
  -17.4324    7.9486    3.1190 C   0  0  0  0  0  0  0  0  0  0  0  0
  -17.5384    9.1475    2.4151 C   0  0  0  0  0  0  0  0  0  0  0  0
  -13.7947   12.9741    3.9703 C   0  0  0  0  0  0  0  0  0  0  0  0
  -13.3648   12.8870    2.5381 C   0  0  0  0  0  0  0  0  0  0  0  0
  -13.4721   13.9888    1.7039 C   0  0  0  0  0  0  0  0  0  0  0  0
  -12.8283   11.7082    2.0300 C   0  0  0  0  0  0  0  0  0  0  0  0
  -13.0495   13.9300    0.3831 C   0  0  0  0  0  0  0  0  0  0  0  0
  -12.3997   11.6359    0.7049 C   0  0  0  0  0  0  0  0  0  0  0  0
  -12.5097   12.7482   -0.1181 C   0  0  0  0  0  0  0  0  0  0  0  0
 35 36  2  0  0  0
 36 39  1  0  0  0
 39 40  1  0  0  0
 40 41  1  0  0  0
 40 42  1  0  0  0
 40 43  1  0  0  0
 37 34  1  0  0  0
 34 33  1  0  0  0
 34 44  1  0  0  0
 33 32  1  0  0  0
 44 45  1  0  0  0
 45 46  2  0  0  0
 45 47  1  0  0  0
 46 48  1  0  0  0
 47 49  2  0  0  0
 48 50  2  0  0  0
 49 50  1  0  0  0
 30  1  1  0  0  0
  1  2  1  0  0  0
  1 51  1  0  0  0
  2  3  2  0  0  0
 51 52  1  0  0  0
 52 53  2  0  0  0
 52 54  1  0  0  0
 53 55  1  0  0  0
 54 56  2  0  0  0
 55 57  2  0  0  0
 56 57  1  0  0  0
  4  6  1  0  0  0
  6  7  1  0  0  0
  6 24  1  0  0  0
  7  8  2  0  0  0
 24 25  1  0  0  0
 25 26  1  0  0  0
 26 27  2  0  0  0
 26 28  1  0  0  0
  9 11  1  0  0  0
 11 12  1  0  0  0
 11 17  1  0  0  0
 12 13  2  0  0  0
 17 18  1  0  0  0
 18 19  2  0  0  0
 18 20  1  0  0  0
 19 21  1  0  0  0
 20 22  2  0  0  0
 21 23  2  0  0  0
 22 23  1  0  0  0
 36 37  1  0  0  0
 32 30  1  0  0  0
  2  4  1  0  0  0
  7  9  1  0  0  0
 12 14  1  0  0  0
 37 38  1  0  0  0
 30 31  1  0  0  0
  4  5  1  0  0  0
 28 29  1  0  0  0
  9 10  1  0  0  0
 14 15  1  0  0  0
 14 16  1  0  0  0
M  END
> <minimizedAffinity>
-8.66661

$$$$
