5I3V_68M_A_404


 33 35  0  0  0  0  0  0  0  0999 V2000
   66.5252   47.8230    8.5825 C   0  0  0  0  0  0  0  0  0  0  0  0
   66.7037   48.7633    7.5635 C   0  0  0  0  0  0  0  0  0  0  0  0
   67.6300   49.7295    7.6526 N   0  0  0  0  0  0  0  0  0  0  0  0
   65.9223   48.6890    6.4813 N   0  0  0  0  0  0  0  0  0  0  0  0
   67.3663   47.9006    9.6878 C   0  0  0  0  0  0  0  0  0  0  0  0
   68.3306   48.9224    9.7719 C   0  0  0  0  0  0  0  0  0  0  0  0
   69.2085   49.0197   10.8736 C   0  0  0  0  0  0  0  0  0  0  0  0
   68.4534   49.8241    8.7290 C   0  0  0  0  0  0  0  0  0  0  0  0
   69.4069   50.8319    8.7926 C   0  0  0  0  0  0  0  0  0  0  0  0
   70.2676   50.9497    9.8900 C   0  0  0  0  0  0  0  0  0  0  0  0
   70.1526   50.0525   10.9554 C   0  0  0  0  0  0  0  0  0  0  0  0
   66.0298   49.3403    5.7509 H   0  0  0  0  0  0  0  0  0  0  0  0
   65.2395   47.9829    6.4148 H   0  0  0  0  0  0  0  0  0  0  0  0
   71.0923   50.1359   12.0120 C   0  0  0  0  0  0  0  0  0  0  0  0
   70.8008   51.0990   12.9100 N   0  0  0  0  0  0  0  0  0  0  0  0
   71.5232   51.3318   14.0152 C   0  0  0  0  0  0  0  0  0  0  0  0
   72.6492   50.5463   14.2444 C   0  0  0  0  0  0  0  0  0  0  0  0
   72.9916   49.5472   13.3527 C   0  0  0  0  0  0  0  0  0  0  0  0
   72.2059   49.3188   12.2124 C   0  0  0  0  0  0  0  0  0  0  0  0
   72.6213   48.2381   11.2476 C   0  0  0  0  0  0  0  0  0  0  0  0
   65.4431   46.7563    8.5332 C   0  0  0  0  0  0  0  0  0  0  0  0
   64.0915   47.4622    8.8381 C   0  0  0  0  0  0  0  0  0  0  0  0
   62.9076   46.4653    8.8657 C   0  0  0  0  0  0  0  0  0  0  0  0
   64.1071   49.6211    9.9643 N   0  0  0  0  0  0  0  0  0  0  0  0
   64.1328   48.3038   10.1271 C   0  0  0  0  0  0  0  0  0  0  0  0
   64.1987   47.7796   11.2370 O   0  0  0  0  0  0  0  0  0  0  0  0
   63.9817   49.9646    9.0503 H   0  0  0  0  0  0  0  0  0  0  0  0
   64.2521   50.6055   11.0472 C   0  0  0  0  0  0  0  0  0  0  0  0
   65.6427   51.2411   10.8267 C   0  0  0  0  0  0  0  0  0  0  0  0
   65.2551   52.7561   12.7599 C   0  0  0  0  0  0  0  0  0  0  0  0
   66.2948   51.8955   12.0529 C   0  0  0  0  0  0  0  0  0  0  0  0
   66.7799   50.8051   13.0258 C   0  0  0  0  0  0  0  0  0  0  0  0
   67.4874   52.7434   11.6245 C   0  0  0  0  0  0  0  0  0  0  0  0
  4  2  1  0  0  0
  2  3  2  0  0  0
  2  1  1  0  0  0
  3  8  1  0  0  0
 23 22  1  0  0  0
 21 22  1  0  0  0
 21  1  1  0  0  0
 22 25  1  0  0  0
  1  5  2  0  0  0
  8  9  2  0  0  0
  8  6  1  0  0  0
  9 10  1  0  0  0
  5  6  1  0  0  0
 24 25  1  0  0  0
 24 28  1  0  0  0
 25 26  2  0  0  0
  6  7  2  0  0  0
 10 11  2  0  0  0
 28 29  1  0  0  0
 29 31  1  0  0  0
  7 11  1  0  0  0
 11 14  1  0  0  0
 32 31  1  0  0  0
 31 33  1  0  0  0
 31 30  1  0  0  0
 15 14  2  0  0  0
 15 16  1  0  0  0
 14 19  1  0  0  0
 16 17  2  0  0  0
 19 20  1  0  0  0
 19 18  2  0  0  0
 17 18  1  0  0  0
 24 27  1  0  0  0
  4 12  1  0  0  0
  4 13  1  0  0  0
M  END
> <minimizedAffinity>
-9.62694

$$$$
5I3V_68M_A_404


 33 35  0  0  0  0  0  0  0  0999 V2000
   66.3251   48.3776    8.6808 C   0  0  0  0  0  0  0  0  0  0  0  0
   66.9176   48.7824    7.4809 C   0  0  0  0  0  0  0  0  0  0  0  0
   68.1343   49.3467    7.4526 N   0  0  0  0  0  0  0  0  0  0  0  0
   66.2420   48.6010    6.3416 N   0  0  0  0  0  0  0  0  0  0  0  0
   67.0554   48.5499    9.8521 C   0  0  0  0  0  0  0  0  0  0  0  0
   68.3287   49.1482    9.8098 C   0  0  0  0  0  0  0  0  0  0  0  0
   69.1007   49.3241   10.9790 C   0  0  0  0  0  0  0  0  0  0  0  0
   68.8567   49.5296    8.5884 C   0  0  0  0  0  0  0  0  0  0  0  0
   70.1160   50.1122    8.5291 C   0  0  0  0  0  0  0  0  0  0  0  0
   70.8801   50.3103    9.6849 C   0  0  0  0  0  0  0  0  0  0  0  0
   70.3597   49.9380   10.9273 C   0  0  0  0  0  0  0  0  0  0  0  0
   66.6390   48.8782    5.4845 H   0  0  0  0  0  0  0  0  0  0  0  0
   65.3475   48.1902    6.3598 H   0  0  0  0  0  0  0  0  0  0  0  0
   71.1864   50.0652   12.0705 C   0  0  0  0  0  0  0  0  0  0  0  0
   72.2280   49.2085   12.0733 N   0  0  0  0  0  0  0  0  0  0  0  0
   73.1662   49.1779   13.0306 C   0  0  0  0  0  0  0  0  0  0  0  0
   73.0532   50.0700   14.0931 C   0  0  0  0  0  0  0  0  0  0  0  0
   72.0024   50.9669   14.1374 C   0  0  0  0  0  0  0  0  0  0  0  0
   71.0447   50.9838   13.1117 C   0  0  0  0  0  0  0  0  0  0  0  0
   69.8980   51.9574   13.2034 C   0  0  0  0  0  0  0  0  0  0  0  0
   64.9238   47.7918    8.7464 C   0  0  0  0  0  0  0  0  0  0  0  0
   65.0550   46.3577    9.3328 C   0  0  0  0  0  0  0  0  0  0  0  0
   63.6811   45.7598    9.7211 C   0  0  0  0  0  0  0  0  0  0  0  0
   67.0815   45.1341    8.7616 N   0  0  0  0  0  0  0  0  0  0  0  0
   65.8301   45.4010    8.4076 C   0  0  0  0  0  0  0  0  0  0  0  0
   65.3176   44.9269    7.3959 O   0  0  0  0  0  0  0  0  0  0  0  0
   67.3980   45.4936    9.6217 H   0  0  0  0  0  0  0  0  0  0  0  0
   68.0303   44.3417    7.9649 C   0  0  0  0  0  0  0  0  0  0  0  0
   69.0964   45.3536    7.4895 C   0  0  0  0  0  0  0  0  0  0  0  0
   71.5417   45.4011    7.0409 C   0  0  0  0  0  0  0  0  0  0  0  0
   70.4873   45.2277    8.1271 C   0  0  0  0  0  0  0  0  0  0  0  0
   70.6761   46.3335    9.1818 C   0  0  0  0  0  0  0  0  0  0  0  0
   70.6352   43.8687    8.8022 C   0  0  0  0  0  0  0  0  0  0  0  0
  4  2  1  0  0  0
  2  3  2  0  0  0
  2  1  1  0  0  0
  3  8  1  0  0  0
 23 22  1  0  0  0
 21 22  1  0  0  0
 21  1  1  0  0  0
 22 25  1  0  0  0
  1  5  2  0  0  0
  8  9  2  0  0  0
  8  6  1  0  0  0
  9 10  1  0  0  0
  5  6  1  0  0  0
 24 25  1  0  0  0
 24 28  1  0  0  0
 25 26  2  0  0  0
  6  7  2  0  0  0
 10 11  2  0  0  0
 28 29  1  0  0  0
 29 31  1  0  0  0
  7 11  1  0  0  0
 11 14  1  0  0  0
 32 31  1  0  0  0
 31 33  1  0  0  0
 31 30  1  0  0  0
 15 14  2  0  0  0
 15 16  1  0  0  0
 14 19  1  0  0  0
 16 17  2  0  0  0
 19 20  1  0  0  0
 19 18  2  0  0  0
 17 18  1  0  0  0
 24 27  1  0  0  0
  4 12  1  0  0  0
  4 13  1  0  0  0
M  END
> <minimizedAffinity>
-9.12790

$$$$
5I3V_68M_A_404


 33 35  0  0  0  0  0  0  0  0999 V2000
   71.6577   50.1191    8.8088 C   0  0  0  0  0  0  0  0  0  0  0  0
   72.1271   49.5442    9.9935 C   0  0  0  0  0  0  0  0  0  0  0  0
   71.5450   49.7951   11.1758 N   0  0  0  0  0  0  0  0  0  0  0  0
   73.1857   48.7300    9.9330 N   0  0  0  0  0  0  0  0  0  0  0  0
   70.5386   50.9416    8.8891 C   0  0  0  0  0  0  0  0  0  0  0  0
   69.9402   51.2014   10.1363 C   0  0  0  0  0  0  0  0  0  0  0  0
   68.7953   52.0201   10.2493 C   0  0  0  0  0  0  0  0  0  0  0  0
   70.4569   50.6026   11.2723 C   0  0  0  0  0  0  0  0  0  0  0  0
   69.8715   50.8410   12.5089 C   0  0  0  0  0  0  0  0  0  0  0  0
   68.7492   51.6680   12.6342 C   0  0  0  0  0  0  0  0  0  0  0  0
   68.2189   52.2867   11.4989 C   0  0  0  0  0  0  0  0  0  0  0  0
   73.5341   48.3136   10.7542 H   0  0  0  0  0  0  0  0  0  0  0  0
   73.6169   48.5468    9.0671 H   0  0  0  0  0  0  0  0  0  0  0  0
   67.0309   53.0457   11.6370 C   0  0  0  0  0  0  0  0  0  0  0  0
   66.0587   52.3968   12.3098 N   0  0  0  0  0  0  0  0  0  0  0  0
   64.8652   52.9346   12.5994 C   0  0  0  0  0  0  0  0  0  0  0  0
   64.6049   54.2323   12.1683 C   0  0  0  0  0  0  0  0  0  0  0  0
   65.5681   54.9390   11.4731 C   0  0  0  0  0  0  0  0  0  0  0  0
   66.8135   54.3529   11.1988 C   0  0  0  0  0  0  0  0  0  0  0  0
   67.8321   55.1418   10.4170 C   0  0  0  0  0  0  0  0  0  0  0  0
   72.3359   49.8994    7.4661 C   0  0  0  0  0  0  0  0  0  0  0  0
   71.2122   49.8208    6.3941 C   0  0  0  0  0  0  0  0  0  0  0  0
   71.7808   49.6154    4.9691 C   0  0  0  0  0  0  0  0  0  0  0  0
   68.8850   49.1136    6.5104 N   0  0  0  0  0  0  0  0  0  0  0  0
   70.1467   48.7578    6.7203 C   0  0  0  0  0  0  0  0  0  0  0  0
   70.4534   47.6521    7.1608 O   0  0  0  0  0  0  0  0  0  0  0  0
   68.7226   49.9885    6.0892 H   0  0  0  0  0  0  0  0  0  0  0  0
   67.7118   48.2987    6.8602 C   0  0  0  0  0  0  0  0  0  0  0  0
   67.0437   49.0436    8.0372 C   0  0  0  0  0  0  0  0  0  0  0  0
   66.2013   47.0404    9.2455 C   0  0  0  0  0  0  0  0  0  0  0  0
   67.0295   48.3116    9.3865 C   0  0  0  0  0  0  0  0  0  0  0  0
   68.4666   47.9253    9.7819 C   0  0  0  0  0  0  0  0  0  0  0  0
   66.4435   49.2130   10.4676 C   0  0  0  0  0  0  0  0  0  0  0  0
  4  2  1  0  0  0
  2  3  2  0  0  0
  2  1  1  0  0  0
  3  8  1  0  0  0
 23 22  1  0  0  0
 21 22  1  0  0  0
 21  1  1  0  0  0
 22 25  1  0  0  0
  1  5  2  0  0  0
  8  9  2  0  0  0
  8  6  1  0  0  0
  9 10  1  0  0  0
  5  6  1  0  0  0
 24 25  1  0  0  0
 24 28  1  0  0  0
 25 26  2  0  0  0
  6  7  2  0  0  0
 10 11  2  0  0  0
 28 29  1  0  0  0
 29 31  1  0  0  0
  7 11  1  0  0  0
 11 14  1  0  0  0
 32 31  1  0  0  0
 31 33  1  0  0  0
 31 30  1  0  0  0
 15 14  2  0  0  0
 15 16  1  0  0  0
 14 19  1  0  0  0
 16 17  2  0  0  0
 19 20  1  0  0  0
 19 18  2  0  0  0
 17 18  1  0  0  0
 24 27  1  0  0  0
  4 12  1  0  0  0
  4 13  1  0  0  0
M  END
> <minimizedAffinity>
-8.48883

$$$$
5I3V_68M_A_404


 33 35  0  0  0  0  0  0  0  0999 V2000
   64.3705   50.7393   12.3035 C   0  0  0  0  0  0  0  0  0  0  0  0
   64.3259   51.9788   11.6586 C   0  0  0  0  0  0  0  0  0  0  0  0
   65.4420   52.6744   11.3938 N   0  0  0  0  0  0  0  0  0  0  0  0
   63.1348   52.4736   11.3067 N   0  0  0  0  0  0  0  0  0  0  0  0
   65.6210   50.2291   12.6368 C   0  0  0  0  0  0  0  0  0  0  0  0
   66.7843   50.9711   12.3586 C   0  0  0  0  0  0  0  0  0  0  0  0
   68.0686   50.4748   12.6715 C   0  0  0  0  0  0  0  0  0  0  0  0
   66.6700   52.1941   11.7204 C   0  0  0  0  0  0  0  0  0  0  0  0
   67.8092   52.9335   11.4300 C   0  0  0  0  0  0  0  0  0  0  0  0
   69.0854   52.4598   11.7553 C   0  0  0  0  0  0  0  0  0  0  0  0
   69.2190   51.2305   12.4065 C   0  0  0  0  0  0  0  0  0  0  0  0
   63.0787   53.3448   10.8515 H   0  0  0  0  0  0  0  0  0  0  0  0
   62.3139   51.9669   11.5028 H   0  0  0  0  0  0  0  0  0  0  0  0
   70.5231   50.7312   12.6443 C   0  0  0  0  0  0  0  0  0  0  0  0
   71.1430   51.3313   13.6809 N   0  0  0  0  0  0  0  0  0  0  0  0
   72.3646   50.9923   14.1171 C   0  0  0  0  0  0  0  0  0  0  0  0
   73.0420   49.9730   13.4541 C   0  0  0  0  0  0  0  0  0  0  0  0
   72.4503   49.3280   12.3844 C   0  0  0  0  0  0  0  0  0  0  0  0
   71.1638   49.6962   11.9615 C   0  0  0  0  0  0  0  0  0  0  0  0
   70.5579   48.9897   10.7762 C   0  0  0  0  0  0  0  0  0  0  0  0
   63.1175   49.9599   12.6692 C   0  0  0  0  0  0  0  0  0  0  0  0
   63.5812   48.6534   13.3733 C   0  0  0  0  0  0  0  0  0  0  0  0
   63.3441   48.7007   14.9022 C   0  0  0  0  0  0  0  0  0  0  0  0
   63.8098   46.4608   12.3390 N   0  0  0  0  0  0  0  0  0  0  0  0
   62.9564   47.3874   12.7581 C   0  0  0  0  0  0  0  0  0  0  0  0
   61.7389   47.2555   12.6530 O   0  0  0  0  0  0  0  0  0  0  0  0
   64.7661   46.6062   12.5221 H   0  0  0  0  0  0  0  0  0  0  0  0
   63.4335   45.2333   11.6217 C   0  0  0  0  0  0  0  0  0  0  0  0
   64.1172   45.3510   10.2414 C   0  0  0  0  0  0  0  0  0  0  0  0
   61.7853   45.7238    9.4631 C   0  0  0  0  0  0  0  0  0  0  0  0
   63.2538   45.9028    9.0982 C   0  0  0  0  0  0  0  0  0  0  0  0
   63.5385   47.4044    8.9119 C   0  0  0  0  0  0  0  0  0  0  0  0
   63.5734   45.1729    7.7983 C   0  0  0  0  0  0  0  0  0  0  0  0
  4  2  1  0  0  0
  2  3  2  0  0  0
  2  1  1  0  0  0
  3  8  1  0  0  0
 23 22  1  0  0  0
 21 22  1  0  0  0
 21  1  1  0  0  0
 22 25  1  0  0  0
  1  5  2  0  0  0
  8  9  2  0  0  0
  8  6  1  0  0  0
  9 10  1  0  0  0
  5  6  1  0  0  0
 24 25  1  0  0  0
 24 28  1  0  0  0
 25 26  2  0  0  0
  6  7  2  0  0  0
 10 11  2  0  0  0
 28 29  1  0  0  0
 29 31  1  0  0  0
  7 11  1  0  0  0
 11 14  1  0  0  0
 32 31  1  0  0  0
 31 33  1  0  0  0
 31 30  1  0  0  0
 15 14  2  0  0  0
 15 16  1  0  0  0
 14 19  1  0  0  0
 16 17  2  0  0  0
 19 20  1  0  0  0
 19 18  2  0  0  0
 17 18  1  0  0  0
 24 27  1  0  0  0
  4 12  1  0  0  0
  4 13  1  0  0  0
M  END
> <minimizedAffinity>
-8.44475

$$$$
5I3V_68M_A_404


 33 35  0  0  0  0  0  0  0  0999 V2000
   64.5647   50.7888   11.9469 C   0  0  0  0  0  0  0  0  0  0  0  0
   64.5677   52.0620   11.3694 C   0  0  0  0  0  0  0  0  0  0  0  0
   65.7029   52.7582   11.2076 N   0  0  0  0  0  0  0  0  0  0  0  0
   63.4031   52.5886   10.9775 N   0  0  0  0  0  0  0  0  0  0  0  0
   65.7897   50.2472   12.3230 C   0  0  0  0  0  0  0  0  0  0  0  0
   66.9731   50.9899   12.1530 C   0  0  0  0  0  0  0  0  0  0  0  0
   68.2331   50.4629   12.5114 C   0  0  0  0  0  0  0  0  0  0  0  0
   66.9060   52.2470   11.5773 C   0  0  0  0  0  0  0  0  0  0  0  0
   68.0660   52.9881   11.3936 C   0  0  0  0  0  0  0  0  0  0  0  0
   69.3174   52.4831   11.7652 C   0  0  0  0  0  0  0  0  0  0  0  0
   69.4030   51.2189   12.3546 C   0  0  0  0  0  0  0  0  0  0  0  0
   63.3805   53.4837   10.5683 H   0  0  0  0  0  0  0  0  0  0  0  0
   62.5680   52.0812   11.0982 H   0  0  0  0  0  0  0  0  0  0  0  0
   70.6870   50.6926   12.6391 C   0  0  0  0  0  0  0  0  0  0  0  0
   71.2706   51.2621   13.7133 N   0  0  0  0  0  0  0  0  0  0  0  0
   72.4662   50.8939   14.1955 C   0  0  0  0  0  0  0  0  0  0  0  0
   73.1552   49.8758   13.5427 C   0  0  0  0  0  0  0  0  0  0  0  0
   72.6005   49.2615   12.4357 C   0  0  0  0  0  0  0  0  0  0  0  0
   71.3400   49.6599   11.9646 C   0  0  0  0  0  0  0  0  0  0  0  0
   70.7751   48.9866   10.7403 C   0  0  0  0  0  0  0  0  0  0  0  0
   63.2864   50.0050   12.1969 C   0  0  0  0  0  0  0  0  0  0  0  0
   63.6973   48.5243   12.4345 C   0  0  0  0  0  0  0  0  0  0  0  0
   62.8094   47.8379   13.5006 C   0  0  0  0  0  0  0  0  0  0  0  0
   64.9424   47.3545   10.6993 N   0  0  0  0  0  0  0  0  0  0  0  0
   63.7365   47.6979   11.1356 C   0  0  0  0  0  0  0  0  0  0  0  0
   62.7082   47.3894   10.5369 O   0  0  0  0  0  0  0  0  0  0  0  0
   65.7134   47.5762   11.2700 H   0  0  0  0  0  0  0  0  0  0  0  0
   65.2128   46.6677    9.4273 C   0  0  0  0  0  0  0  0  0  0  0  0
   65.3597   47.7987    8.3853 C   0  0  0  0  0  0  0  0  0  0  0  0
   67.7417   47.5980    9.0700 C   0  0  0  0  0  0  0  0  0  0  0  0
   66.7578   48.4167    8.2433 C   0  0  0  0  0  0  0  0  0  0  0  0
   67.1957   48.3748    6.7677 C   0  0  0  0  0  0  0  0  0  0  0  0
   66.7422   49.8666    8.7144 C   0  0  0  0  0  0  0  0  0  0  0  0
  4  2  1  0  0  0
  2  3  2  0  0  0
  2  1  1  0  0  0
  3  8  1  0  0  0
 23 22  1  0  0  0
 21 22  1  0  0  0
 21  1  1  0  0  0
 22 25  1  0  0  0
  1  5  2  0  0  0
  8  9  2  0  0  0
  8  6  1  0  0  0
  9 10  1  0  0  0
  5  6  1  0  0  0
 24 25  1  0  0  0
 24 28  1  0  0  0
 25 26  2  0  0  0
  6  7  2  0  0  0
 10 11  2  0  0  0
 28 29  1  0  0  0
 29 31  1  0  0  0
  7 11  1  0  0  0
 11 14  1  0  0  0
 32 31  1  0  0  0
 31 33  1  0  0  0
 31 30  1  0  0  0
 15 14  2  0  0  0
 15 16  1  0  0  0
 14 19  1  0  0  0
 16 17  2  0  0  0
 19 20  1  0  0  0
 19 18  2  0  0  0
 17 18  1  0  0  0
 24 27  1  0  0  0
  4 12  1  0  0  0
  4 13  1  0  0  0
M  END
> <minimizedAffinity>
-8.33892

$$$$
5I3V_68M_A_404


 33 35  0  0  0  0  0  0  0  0999 V2000
   71.9402   47.6443   10.5731 C   0  0  0  0  0  0  0  0  0  0  0  0
   72.7974   47.9308   11.6397 C   0  0  0  0  0  0  0  0  0  0  0  0
   72.5851   48.9780   12.4508 N   0  0  0  0  0  0  0  0  0  0  0  0
   73.8533   47.1362   11.8422 N   0  0  0  0  0  0  0  0  0  0  0  0
   70.8323   48.4666   10.3959 C   0  0  0  0  0  0  0  0  0  0  0  0
   70.6236   49.5655   11.2503 C   0  0  0  0  0  0  0  0  0  0  0  0
   69.5015   50.4103   11.1054 C   0  0  0  0  0  0  0  0  0  0  0  0
   71.5127   49.7955   12.2860 C   0  0  0  0  0  0  0  0  0  0  0  0
   71.3149   50.8697   13.1437 C   0  0  0  0  0  0  0  0  0  0  0  0
   70.2173   51.7255   12.9953 C   0  0  0  0  0  0  0  0  0  0  0  0
   69.3137   51.5126   11.9507 C   0  0  0  0  0  0  0  0  0  0  0  0
   74.4708   47.3184   12.5870 H   0  0  0  0  0  0  0  0  0  0  0  0
   74.0134   46.3690   11.2464 H   0  0  0  0  0  0  0  0  0  0  0  0
   68.1637   52.3361   11.8751 C   0  0  0  0  0  0  0  0  0  0  0  0
   68.4279   53.5813   11.4297 N   0  0  0  0  0  0  0  0  0  0  0  0
   67.4893   54.5187   11.2350 C   0  0  0  0  0  0  0  0  0  0  0  0
   66.1662   54.1968   11.5235 C   0  0  0  0  0  0  0  0  0  0  0  0
   65.8439   52.9343   11.9846 C   0  0  0  0  0  0  0  0  0  0  0  0
   66.8480   51.9702   12.1636 C   0  0  0  0  0  0  0  0  0  0  0  0
   66.4658   50.6114   12.6916 C   0  0  0  0  0  0  0  0  0  0  0  0
   72.1919   46.5007    9.6036 C   0  0  0  0  0  0  0  0  0  0  0  0
   71.5144   46.8851    8.2578 C   0  0  0  0  0  0  0  0  0  0  0  0
   72.3400   46.4153    7.0357 C   0  0  0  0  0  0  0  0  0  0  0  0
   69.2565   47.1032    7.3723 N   0  0  0  0  0  0  0  0  0  0  0  0
   70.0576   46.3953    8.1594 C   0  0  0  0  0  0  0  0  0  0  0  0
   69.6642   45.4136    8.7858 O   0  0  0  0  0  0  0  0  0  0  0  0
   69.6608   47.8321    6.8483 H   0  0  0  0  0  0  0  0  0  0  0  0
   67.8105   46.8801    7.2245 C   0  0  0  0  0  0  0  0  0  0  0  0
   67.1768   48.2857    7.3203 C   0  0  0  0  0  0  0  0  0  0  0  0
   65.0400   48.1081    8.5794 C   0  0  0  0  0  0  0  0  0  0  0  0
   66.4715   48.6264    8.6407 C   0  0  0  0  0  0  0  0  0  0  0  0
   67.1985   47.9367    9.8097 C   0  0  0  0  0  0  0  0  0  0  0  0
   66.4839   50.1337    8.8697 C   0  0  0  0  0  0  0  0  0  0  0  0
  4  2  1  0  0  0
  2  3  2  0  0  0
  2  1  1  0  0  0
  3  8  1  0  0  0
 23 22  1  0  0  0
 21 22  1  0  0  0
 21  1  1  0  0  0
 22 25  1  0  0  0
  1  5  2  0  0  0
  8  9  2  0  0  0
  8  6  1  0  0  0
  9 10  1  0  0  0
  5  6  1  0  0  0
 24 25  1  0  0  0
 24 28  1  0  0  0
 25 26  2  0  0  0
  6  7  2  0  0  0
 10 11  2  0  0  0
 28 29  1  0  0  0
 29 31  1  0  0  0
  7 11  1  0  0  0
 11 14  1  0  0  0
 32 31  1  0  0  0
 31 33  1  0  0  0
 31 30  1  0  0  0
 15 14  2  0  0  0
 15 16  1  0  0  0
 14 19  1  0  0  0
 16 17  2  0  0  0
 19 20  1  0  0  0
 19 18  2  0  0  0
 17 18  1  0  0  0
 24 27  1  0  0  0
  4 12  1  0  0  0
  4 13  1  0  0  0
M  END
> <minimizedAffinity>
-8.27882

$$$$
5I3V_68M_A_404


 33 35  0  0  0  0  0  0  0  0999 V2000
   72.6069   47.1164   10.8278 C   0  0  0  0  0  0  0  0  0  0  0  0
   73.1851   47.2715   12.0912 C   0  0  0  0  0  0  0  0  0  0  0  0
   72.9196   48.3384   12.8598 N   0  0  0  0  0  0  0  0  0  0  0  0
   74.0249   46.3284   12.5298 N   0  0  0  0  0  0  0  0  0  0  0  0
   71.7149   48.0948   10.4010 C   0  0  0  0  0  0  0  0  0  0  0  0
   71.4488   49.2121   11.2145 C   0  0  0  0  0  0  0  0  0  0  0  0
   70.5380   50.2149   10.8161 C   0  0  0  0  0  0  0  0  0  0  0  0
   72.0575   49.3067   12.4541 C   0  0  0  0  0  0  0  0  0  0  0  0
   71.7974   50.3981   13.2726 C   0  0  0  0  0  0  0  0  0  0  0  0
   70.9124   51.4080   12.8777 C   0  0  0  0  0  0  0  0  0  0  0  0
   70.2948   51.3325   11.6263 C   0  0  0  0  0  0  0  0  0  0  0  0
   74.4441   46.4162   13.4163 H   0  0  0  0  0  0  0  0  0  0  0  0
   74.2242   45.5460   11.9664 H   0  0  0  0  0  0  0  0  0  0  0  0
   69.3359   52.3183   11.2867 C   0  0  0  0  0  0  0  0  0  0  0  0
   69.8066   53.2469   10.4294 N   0  0  0  0  0  0  0  0  0  0  0  0
   69.0659   54.2491    9.9348 C   0  0  0  0  0  0  0  0  0  0  0  0
   67.7380   54.3496   10.3399 C   0  0  0  0  0  0  0  0  0  0  0  0
   67.2087   53.4235   11.2189 C   0  0  0  0  0  0  0  0  0  0  0  0
   68.0063   52.3769   11.7069 C   0  0  0  0  0  0  0  0  0  0  0  0
   67.4051   51.3989   12.6833 C   0  0  0  0  0  0  0  0  0  0  0  0
   72.9379   45.9484    9.9127 C   0  0  0  0  0  0  0  0  0  0  0  0
   74.3408   46.2285    9.3034 C   0  0  0  0  0  0  0  0  0  0  0  0
   75.2984   45.0237    9.4692 C   0  0  0  0  0  0  0  0  0  0  0  0
   74.0071   47.9658    7.6300 N   0  0  0  0  0  0  0  0  0  0  0  0
   74.2754   46.6815    7.8329 C   0  0  0  0  0  0  0  0  0  0  0  0
   74.4497   45.8920    6.9071 O   0  0  0  0  0  0  0  0  0  0  0  0
   73.9511   48.5498    8.4206 H   0  0  0  0  0  0  0  0  0  0  0  0
   73.7873   48.5813    6.3126 C   0  0  0  0  0  0  0  0  0  0  0  0
   72.2679   48.4589    6.0622 C   0  0  0  0  0  0  0  0  0  0  0  0
   70.9701   50.3753    5.1534 C   0  0  0  0  0  0  0  0  0  0  0  0
   71.4156   49.6804    6.4341 C   0  0  0  0  0  0  0  0  0  0  0  0
   70.1666   49.2241    7.2103 C   0  0  0  0  0  0  0  0  0  0  0  0
   72.2200   50.6365    7.3078 C   0  0  0  0  0  0  0  0  0  0  0  0
  4  2  1  0  0  0
  2  3  2  0  0  0
  2  1  1  0  0  0
  3  8  1  0  0  0
 23 22  1  0  0  0
 21 22  1  0  0  0
 21  1  1  0  0  0
 22 25  1  0  0  0
  1  5  2  0  0  0
  8  9  2  0  0  0
  8  6  1  0  0  0
  9 10  1  0  0  0
  5  6  1  0  0  0
 24 25  1  0  0  0
 24 28  1  0  0  0
 25 26  2  0  0  0
  6  7  2  0  0  0
 10 11  2  0  0  0
 28 29  1  0  0  0
 29 31  1  0  0  0
  7 11  1  0  0  0
 11 14  1  0  0  0
 32 31  1  0  0  0
 31 33  1  0  0  0
 31 30  1  0  0  0
 15 14  2  0  0  0
 15 16  1  0  0  0
 14 19  1  0  0  0
 16 17  2  0  0  0
 19 20  1  0  0  0
 19 18  2  0  0  0
 17 18  1  0  0  0
 24 27  1  0  0  0
  4 12  1  0  0  0
  4 13  1  0  0  0
M  END
> <minimizedAffinity>
-8.26274

$$$$
5I3V_68M_A_404


 33 35  0  0  0  0  0  0  0  0999 V2000
   65.1894   53.4267   11.9835 C   0  0  0  0  0  0  0  0  0  0  0  0
   65.5748   54.4715   11.1383 C   0  0  0  0  0  0  0  0  0  0  0  0
   66.8109   54.5384   10.6214 N   0  0  0  0  0  0  0  0  0  0  0  0
   64.6811   55.4231   10.8501 N   0  0  0  0  0  0  0  0  0  0  0  0
   66.1251   52.4322   12.2492 C   0  0  0  0  0  0  0  0  0  0  0  0
   67.4204   52.5166   11.7052 C   0  0  0  0  0  0  0  0  0  0  0  0
   68.3880   51.5164   11.9444 C   0  0  0  0  0  0  0  0  0  0  0  0
   67.7387   53.5799   10.8779 C   0  0  0  0  0  0  0  0  0  0  0  0
   69.0094   53.6720   10.3253 C   0  0  0  0  0  0  0  0  0  0  0  0
   69.9822   52.6968   10.5736 C   0  0  0  0  0  0  0  0  0  0  0  0
   69.6806   51.6204   11.4124 C   0  0  0  0  0  0  0  0  0  0  0  0
   64.9298   56.1687   10.2572 H   0  0  0  0  0  0  0  0  0  0  0  0
   63.7743   55.3783   11.2308 H   0  0  0  0  0  0  0  0  0  0  0  0
   70.6500   50.6007   11.5764 C   0  0  0  0  0  0  0  0  0  0  0  0
   70.7267   49.7634   10.5219 N   0  0  0  0  0  0  0  0  0  0  0  0
   71.6019   48.7515   10.4350 C   0  0  0  0  0  0  0  0  0  0  0  0
   72.4729   48.5399   11.4999 C   0  0  0  0  0  0  0  0  0  0  0  0
   72.4327   49.3695   12.6047 C   0  0  0  0  0  0  0  0  0  0  0  0
   71.5146   50.4297   12.6586 C   0  0  0  0  0  0  0  0  0  0  0  0
   71.4800   51.2999   13.8885 C   0  0  0  0  0  0  0  0  0  0  0  0
   63.8153   53.3600   12.6304 C   0  0  0  0  0  0  0  0  0  0  0  0
   62.9721   52.3446   11.8083 C   0  0  0  0  0  0  0  0  0  0  0  0
   62.8575   52.7537   10.3198 C   0  0  0  0  0  0  0  0  0  0  0  0
   63.7503   50.2653   10.8080 N   0  0  0  0  0  0  0  0  0  0  0  0
   63.4791   50.8968   11.9439 C   0  0  0  0  0  0  0  0  0  0  0  0
   63.6100   50.3601   13.0419 O   0  0  0  0  0  0  0  0  0  0  0  0
   63.6894   50.7835    9.9731 H   0  0  0  0  0  0  0  0  0  0  0  0
   64.1348   48.8497   10.7036 C   0  0  0  0  0  0  0  0  0  0  0  0
   65.6779   48.8477   10.7777 C   0  0  0  0  0  0  0  0  0  0  0  0
   65.5661   47.9843    8.4486 C   0  0  0  0  0  0  0  0  0  0  0  0
   66.4241   48.7621    9.4388 C   0  0  0  0  0  0  0  0  0  0  0  0
   66.6587   50.1793    8.8846 C   0  0  0  0  0  0  0  0  0  0  0  0
   67.7720   48.0758    9.6310 C   0  0  0  0  0  0  0  0  0  0  0  0
  4  2  1  0  0  0
  2  3  2  0  0  0
  2  1  1  0  0  0
  3  8  1  0  0  0
 23 22  1  0  0  0
 21 22  1  0  0  0
 21  1  1  0  0  0
 22 25  1  0  0  0
  1  5  2  0  0  0
  8  9  2  0  0  0
  8  6  1  0  0  0
  9 10  1  0  0  0
  5  6  1  0  0  0
 24 25  1  0  0  0
 24 28  1  0  0  0
 25 26  2  0  0  0
  6  7  2  0  0  0
 10 11  2  0  0  0
 28 29  1  0  0  0
 29 31  1  0  0  0
  7 11  1  0  0  0
 11 14  1  0  0  0
 32 31  1  0  0  0
 31 33  1  0  0  0
 31 30  1  0  0  0
 15 14  2  0  0  0
 15 16  1  0  0  0
 14 19  1  0  0  0
 16 17  2  0  0  0
 19 20  1  0  0  0
 19 18  2  0  0  0
 17 18  1  0  0  0
 24 27  1  0  0  0
  4 12  1  0  0  0
  4 13  1  0  0  0
M  END
> <minimizedAffinity>
-7.97222

$$$$
5I3V_68M_A_404


 33 35  0  0  0  0  0  0  0  0999 V2000
   69.3164   51.1675   12.3010 C   0  0  0  0  0  0  0  0  0  0  0  0
   70.2092   51.1927   13.3765 C   0  0  0  0  0  0  0  0  0  0  0  0
   71.3818   50.5424   13.3325 N   0  0  0  0  0  0  0  0  0  0  0  0
   69.8716   51.8816   14.4714 N   0  0  0  0  0  0  0  0  0  0  0  0
   69.6981   50.4679   11.1609 C   0  0  0  0  0  0  0  0  0  0  0  0
   70.9286   49.7853   11.1291 C   0  0  0  0  0  0  0  0  0  0  0  0
   71.3509   49.0782    9.9821 C   0  0  0  0  0  0  0  0  0  0  0  0
   71.7654   49.8479   12.2299 C   0  0  0  0  0  0  0  0  0  0  0  0
   72.9873   49.1880   12.2102 C   0  0  0  0  0  0  0  0  0  0  0  0
   73.4055   48.4668   11.0859 C   0  0  0  0  0  0  0  0  0  0  0  0
   72.5701   48.3868    9.9685 C   0  0  0  0  0  0  0  0  0  0  0  0
   70.4843   51.9136   15.2413 H   0  0  0  0  0  0  0  0  0  0  0  0
   69.0102   52.3569   14.5077 H   0  0  0  0  0  0  0  0  0  0  0  0
   73.0526   47.7278    8.8112 C   0  0  0  0  0  0  0  0  0  0  0  0
   72.7837   46.4063    8.7989 N   0  0  0  0  0  0  0  0  0  0  0  0
   73.1047   45.5890    7.7857 C   0  0  0  0  0  0  0  0  0  0  0  0
   73.7684   46.1293    6.6879 C   0  0  0  0  0  0  0  0  0  0  0  0
   74.0687   47.4780    6.6533 C   0  0  0  0  0  0  0  0  0  0  0  0
   73.7055   48.3100    7.7237 C   0  0  0  0  0  0  0  0  0  0  0  0
   74.0701   49.7711    7.6652 C   0  0  0  0  0  0  0  0  0  0  0  0
   67.9563   51.8449   12.3487 C   0  0  0  0  0  0  0  0  0  0  0  0
   66.9024   50.7349   12.6228 C   0  0  0  0  0  0  0  0  0  0  0  0
   65.9079   51.1393   13.7379 C   0  0  0  0  0  0  0  0  0  0  0  0
   65.3885   49.2146   11.4710 N   0  0  0  0  0  0  0  0  0  0  0  0
   66.1541   50.2927   11.3515 C   0  0  0  0  0  0  0  0  0  0  0  0
   66.2738   50.8996   10.2893 O   0  0  0  0  0  0  0  0  0  0  0  0
   65.2870   48.8255   12.3696 H   0  0  0  0  0  0  0  0  0  0  0  0
   64.6808   48.5582   10.3614 C   0  0  0  0  0  0  0  0  0  0  0  0
   65.4704   47.2570   10.0973 C   0  0  0  0  0  0  0  0  0  0  0  0
   67.8036   47.6438    9.3295 C   0  0  0  0  0  0  0  0  0  0  0  0
   66.4004   47.2605    8.8758 C   0  0  0  0  0  0  0  0  0  0  0  0
   66.4476   45.8517    8.2562 C   0  0  0  0  0  0  0  0  0  0  0  0
   65.8904   48.2451    7.8294 C   0  0  0  0  0  0  0  0  0  0  0  0
  4  2  1  0  0  0
  2  3  2  0  0  0
  2  1  1  0  0  0
  3  8  1  0  0  0
 23 22  1  0  0  0
 21 22  1  0  0  0
 21  1  1  0  0  0
 22 25  1  0  0  0
  1  5  2  0  0  0
  8  9  2  0  0  0
  8  6  1  0  0  0
  9 10  1  0  0  0
  5  6  1  0  0  0
 24 25  1  0  0  0
 24 28  1  0  0  0
 25 26  2  0  0  0
  6  7  2  0  0  0
 10 11  2  0  0  0
 28 29  1  0  0  0
 29 31  1  0  0  0
  7 11  1  0  0  0
 11 14  1  0  0  0
 32 31  1  0  0  0
 31 33  1  0  0  0
 31 30  1  0  0  0
 15 14  2  0  0  0
 15 16  1  0  0  0
 14 19  1  0  0  0
 16 17  2  0  0  0
 19 20  1  0  0  0
 19 18  2  0  0  0
 17 18  1  0  0  0
 24 27  1  0  0  0
  4 12  1  0  0  0
  4 13  1  0  0  0
M  END
> <minimizedAffinity>
-7.56681

$$$$
5I3V_68M_A_404


 33 35  0  0  0  0  0  0  0  0999 V2000
   67.4774   49.4710   10.5410 C   0  0  0  0  0  0  0  0  0  0  0  0
   67.6580   50.3510   11.6122 C   0  0  0  0  0  0  0  0  0  0  0  0
   68.8562   50.5159   12.1925 N   0  0  0  0  0  0  0  0  0  0  0  0
   66.6013   51.0352   12.0622 N   0  0  0  0  0  0  0  0  0  0  0  0
   68.5945   48.7890   10.0698 C   0  0  0  0  0  0  0  0  0  0  0  0
   69.8451   48.9666   10.6908 C   0  0  0  0  0  0  0  0  0  0  0  0
   71.0005   48.2999   10.2274 C   0  0  0  0  0  0  0  0  0  0  0  0
   69.9550   49.8511   11.7498 C   0  0  0  0  0  0  0  0  0  0  0  0
   71.1842   50.0448   12.3665 C   0  0  0  0  0  0  0  0  0  0  0  0
   72.3310   49.3727   11.9282 C   0  0  0  0  0  0  0  0  0  0  0  0
   72.2369   48.4703   10.8652 C   0  0  0  0  0  0  0  0  0  0  0  0
   66.7043   51.6607   12.8155 H   0  0  0  0  0  0  0  0  0  0  0  0
   65.7201   50.9136   11.6404 H   0  0  0  0  0  0  0  0  0  0  0  0
   73.4259   47.8709   10.3819 C   0  0  0  0  0  0  0  0  0  0  0  0
   73.7222   46.7059   10.9932 N   0  0  0  0  0  0  0  0  0  0  0  0
   74.7745   45.9405   10.6701 C   0  0  0  0  0  0  0  0  0  0  0  0
   75.6216   46.3783    9.6561 C   0  0  0  0  0  0  0  0  0  0  0  0
   75.3621   47.5669    9.0000 C   0  0  0  0  0  0  0  0  0  0  0  0
   74.2435   48.3380    9.3517 C   0  0  0  0  0  0  0  0  0  0  0  0
   74.0036   49.6411    8.6336 C   0  0  0  0  0  0  0  0  0  0  0  0
   66.1191   49.2206    9.9058 C   0  0  0  0  0  0  0  0  0  0  0  0
   65.8371   47.6954   10.0161 C   0  0  0  0  0  0  0  0  0  0  0  0
   64.3490   47.3994   10.3226 C   0  0  0  0  0  0  0  0  0  0  0  0
   67.3820   46.1410    8.9546 N   0  0  0  0  0  0  0  0  0  0  0  0
   66.3122   46.9077    8.7810 C   0  0  0  0  0  0  0  0  0  0  0  0
   65.7372   46.9988    7.6984 O   0  0  0  0  0  0  0  0  0  0  0  0
   67.7442   46.0643    9.8668 H   0  0  0  0  0  0  0  0  0  0  0  0
   68.0666   45.3977    7.8861 C   0  0  0  0  0  0  0  0  0  0  0  0
   69.4112   46.1316    7.6864 C   0  0  0  0  0  0  0  0  0  0  0  0
   70.5299   44.1045    6.7796 C   0  0  0  0  0  0  0  0  0  0  0  0
   70.6769   45.2654    7.7555 C   0  0  0  0  0  0  0  0  0  0  0  0
   71.9019   46.1040    7.3469 C   0  0  0  0  0  0  0  0  0  0  0  0
   70.8823   44.7469    9.1745 C   0  0  0  0  0  0  0  0  0  0  0  0
  4  2  1  0  0  0
  2  3  2  0  0  0
  2  1  1  0  0  0
  3  8  1  0  0  0
 23 22  1  0  0  0
 21 22  1  0  0  0
 21  1  1  0  0  0
 22 25  1  0  0  0
  1  5  2  0  0  0
  8  9  2  0  0  0
  8  6  1  0  0  0
  9 10  1  0  0  0
  5  6  1  0  0  0
 24 25  1  0  0  0
 24 28  1  0  0  0
 25 26  2  0  0  0
  6  7  2  0  0  0
 10 11  2  0  0  0
 28 29  1  0  0  0
 29 31  1  0  0  0
  7 11  1  0  0  0
 11 14  1  0  0  0
 32 31  1  0  0  0
 31 33  1  0  0  0
 31 30  1  0  0  0
 15 14  2  0  0  0
 15 16  1  0  0  0
 14 19  1  0  0  0
 16 17  2  0  0  0
 19 20  1  0  0  0
 19 18  2  0  0  0
 17 18  1  0  0  0
 24 27  1  0  0  0
  4 12  1  0  0  0
  4 13  1  0  0  0
M  END
> <minimizedAffinity>
-7.46004

$$$$
