2QWE_GNA_A_800


 32 32  0  0  0  0  0  0  0  0999 V2000
   24.5231   18.5647   64.2820 C   0  0  0  0  0  0  0  0  0  0  0  0
   23.7453   17.5268   63.7587 C   0  0  0  0  0  0  0  0  0  0  0  0
   24.2174   16.6013   62.6395 C   0  0  0  0  0  0  0  0  0  0  0  0
   25.7537   16.5518   62.6942 C   0  0  0  0  0  0  0  0  0  0  0  0
   26.2996   17.9823   62.7048 C   0  0  0  0  0  0  0  0  0  0  0  0
   25.8771   18.6299   63.9220 O   0  0  0  0  0  0  0  0  0  0  0  0
   27.0108   14.8046   61.5008 C   0  0  0  0  0  0  0  0  0  0  0  0
   27.3860   14.2556   60.1200 C   0  0  0  0  0  0  0  0  0  0  0  0
   26.2312   15.8818   61.4612 N   0  0  0  0  0  0  0  0  0  0  0  0
   27.4176   14.3054   62.5508 O   0  0  0  0  0  0  0  0  0  0  0  0
   25.9632   16.2451   60.5863 H   0  0  0  0  0  0  0  0  0  0  0  0
   23.9819   19.5271   65.1439 C   0  0  0  0  0  0  0  0  0  0  0  0
   22.7983   19.8497   64.9516 O   0  0  0  0  0  0  0  0  0  0  0  0
   24.6249   19.9923   66.1181 O   0  0  0  0  0  0  0  0  0  0  0  0
   25.5176   19.7415   66.2530 H   0  0  0  0  0  0  0  0  0  0  0  0
   27.8269   18.0047   62.6539 C   0  0  0  0  0  0  0  0  0  0  0  0
   28.3164   17.0669   63.5378 O   0  0  0  0  0  0  0  0  0  0  0  0
   28.0225   17.2849   64.4361 H   0  0  0  0  0  0  0  0  0  0  0  0
   28.3747   19.3996   63.0417 C   0  0  0  0  0  0  0  0  0  0  0  0
   27.7641   20.2514   62.1711 O   0  0  0  0  0  0  0  0  0  0  0  0
   28.0130   20.0189   61.2629 H   0  0  0  0  0  0  0  0  0  0  0  0
   29.8857   19.6130   62.8557 C   0  0  0  0  0  0  0  0  0  0  0  0
   30.3711   18.8461   61.8300 O   0  0  0  0  0  0  0  0  0  0  0  0
   30.2237   17.9084   62.0297 H   0  0  0  0  0  0  0  0  0  0  0  0
   23.6019   15.2825   62.7253 N   0  0  0  0  0  0  0  0  0  0  0  0
   23.0725   15.0900   63.5327 H   0  0  0  0  0  0  0  0  0  0  0  0
   23.6879   14.3084   61.8113 C   0  0  0  0  0  0  0  0  0  0  0  0
   23.5607   14.5699   60.5056 N   0  0  0  0  0  0  0  0  0  0  0  0
   23.9376   13.0634   62.2097 N   0  0  0  0  0  0  0  0  0  0  0  0
   23.3759   15.4884   60.2032 H   0  0  0  0  0  0  0  0  0  0  0  0
   24.0325   12.8632   63.1689 H   0  0  0  0  0  0  0  0  0  0  0  0
   24.0276   12.3426   61.5452 H   0  0  0  0  0  0  0  0  0  0  0  0
 12  1  1  0  0  0
 12 13  2  0  0  0
 12 14  1  0  0  0
  1  2  1  0  0  0
  1  6  1  0  0  0
  2  3  1  0  0  0
  3  4  1  0  0  0
  3 25  1  0  0  0
  4  5  1  0  0  0
  4  9  1  0  0  0
  5 16  1  0  0  0
  5  6  1  0  0  0
 16 19  1  0  0  0
 16 17  1  0  0  0
 19 22  1  0  0  0
 19 20  1  0  0  0
 22 23  1  0  0  0
  7  8  1  0  0  0
  7  9  1  0  0  0
  7 10  2  0  0  0
 25 27  1  0  0  0
 27 28  2  0  0  0
 27 29  1  0  0  0
  9 11  1  0  0  0
 25 26  1  0  0  0
 28 30  1  0  0  0
 29 31  1  0  0  0
 29 32  1  0  0  0
 14 15  1  0  0  0
 17 18  1  0  0  0
 20 21  1  0  0  0
 23 24  1  0  0  0
M  END
> <minimizedAffinity>
-8.03862

$$$$
2QWE_GNA_A_800


 32 32  0  0  0  0  0  0  0  0999 V2000
   26.4239   20.8745   64.5570 C   0  0  0  0  0  0  0  0  0  0  0  0
   27.0233   20.2137   63.4799 C   0  0  0  0  0  0  0  0  0  0  0  0
   26.6503   18.7976   63.0464 C   0  0  0  0  0  0  0  0  0  0  0  0
   25.1958   18.5470   63.4792 C   0  0  0  0  0  0  0  0  0  0  0  0
   25.0497   18.8924   64.9637 C   0  0  0  0  0  0  0  0  0  0  0  0
   25.2795   20.3057   65.1348 O   0  0  0  0  0  0  0  0  0  0  0  0
   24.2765   16.6290   62.2409 C   0  0  0  0  0  0  0  0  0  0  0  0
   24.0924   15.1075   62.2479 C   0  0  0  0  0  0  0  0  0  0  0  0
   24.9134   17.1019   63.3088 N   0  0  0  0  0  0  0  0  0  0  0  0
   23.8491   17.3490   61.3376 O   0  0  0  0  0  0  0  0  0  0  0  0
   25.2061   16.4728   64.0073 H   0  0  0  0  0  0  0  0  0  0  0  0
   26.9397   22.0744   65.0631 C   0  0  0  0  0  0  0  0  0  0  0  0
   27.6968   21.9899   66.0437 O   0  0  0  0  0  0  0  0  0  0  0  0
   26.7201   23.1832   64.5142 O   0  0  0  0  0  0  0  0  0  0  0  0
   26.1469   23.2346   63.7748 H   0  0  0  0  0  0  0  0  0  0  0  0
   23.6502   18.5668   65.4845 C   0  0  0  0  0  0  0  0  0  0  0  0
   22.7928   19.5851   65.1262 O   0  0  0  0  0  0  0  0  0  0  0  0
   23.0962   20.4173   65.5215 H   0  0  0  0  0  0  0  0  0  0  0  0
   23.6508   18.4250   67.0259 C   0  0  0  0  0  0  0  0  0  0  0  0
   22.8385   17.3570   67.2628 O   0  0  0  0  0  0  0  0  0  0  0  0
   21.9476   17.5484   66.9304 H   0  0  0  0  0  0  0  0  0  0  0  0
   23.0514   19.5986   67.8175 C   0  0  0  0  0  0  0  0  0  0  0  0
   23.6506   20.7822   67.4771 O   0  0  0  0  0  0  0  0  0  0  0  0
   24.5976   20.7358   67.6819 H   0  0  0  0  0  0  0  0  0  0  0  0
   26.8636   18.5894   61.6194 N   0  0  0  0  0  0  0  0  0  0  0  0
   26.2592   19.0652   61.0048 H   0  0  0  0  0  0  0  0  0  0  0  0
   27.8026   17.8132   61.0648 C   0  0  0  0  0  0  0  0  0  0  0  0
   29.1041   18.0732   61.2316 N   0  0  0  0  0  0  0  0  0  0  0  0
   27.4316   16.7450   60.3631 N   0  0  0  0  0  0  0  0  0  0  0  0
   29.3862   18.8615   61.7495 H   0  0  0  0  0  0  0  0  0  0  0  0
   26.4756   16.5471   60.2360 H   0  0  0  0  0  0  0  0  0  0  0  0
   28.1133   16.1526   59.9710 H   0  0  0  0  0  0  0  0  0  0  0  0
 12  1  1  0  0  0
 12 13  2  0  0  0
 12 14  1  0  0  0
  1  2  1  0  0  0
  1  6  1  0  0  0
  2  3  1  0  0  0
  3  4  1  0  0  0
  3 25  1  0  0  0
  4  5  1  0  0  0
  4  9  1  0  0  0
  5 16  1  0  0  0
  5  6  1  0  0  0
 16 19  1  0  0  0
 16 17  1  0  0  0
 19 22  1  0  0  0
 19 20  1  0  0  0
 22 23  1  0  0  0
  7  8  1  0  0  0
  7  9  1  0  0  0
  7 10  2  0  0  0
 25 27  1  0  0  0
 27 28  2  0  0  0
 27 29  1  0  0  0
  9 11  1  0  0  0
 25 26  1  0  0  0
 28 30  1  0  0  0
 29 31  1  0  0  0
 29 32  1  0  0  0
 14 15  1  0  0  0
 17 18  1  0  0  0
 20 21  1  0  0  0
 23 24  1  0  0  0
M  END
> <minimizedAffinity>
-7.72671

$$$$
2QWE_GNA_A_800


 32 32  0  0  0  0  0  0  0  0999 V2000
   25.1294   18.5232   64.6349 C   0  0  0  0  0  0  0  0  0  0  0  0
   26.3095   19.1519   65.0448 C   0  0  0  0  0  0  0  0  0  0  0  0
   27.7042   18.6373   64.6951 C   0  0  0  0  0  0  0  0  0  0  0  0
   27.5905   17.8407   63.3843 C   0  0  0  0  0  0  0  0  0  0  0  0
   26.4708   16.8058   63.5241 C   0  0  0  0  0  0  0  0  0  0  0  0
   25.2162   17.4996   63.6800 O   0  0  0  0  0  0  0  0  0  0  0  0
   29.8196   17.5814   62.3738 C   0  0  0  0  0  0  0  0  0  0  0  0
   31.0672   16.6937   62.3070 C   0  0  0  0  0  0  0  0  0  0  0  0
   28.8681   17.1175   63.1795 N   0  0  0  0  0  0  0  0  0  0  0  0
   29.7019   18.6179   61.7190 O   0  0  0  0  0  0  0  0  0  0  0  0
   29.0170   16.2681   63.6543 H   0  0  0  0  0  0  0  0  0  0  0  0
   23.8815   18.8899   65.1549 C   0  0  0  0  0  0  0  0  0  0  0  0
   23.4649   20.0234   64.8660 O   0  0  0  0  0  0  0  0  0  0  0  0
   23.1704   18.0931   65.8170 O   0  0  0  0  0  0  0  0  0  0  0  0
   23.4955   17.2403   66.0290 H   0  0  0  0  0  0  0  0  0  0  0  0
   26.3734   15.9085   62.2907 C   0  0  0  0  0  0  0  0  0  0  0  0
   26.6275   16.6657   61.1671 O   0  0  0  0  0  0  0  0  0  0  0  0
   25.9696   17.3753   61.0998 H   0  0  0  0  0  0  0  0  0  0  0  0
   24.9630   15.2820   62.1701 C   0  0  0  0  0  0  0  0  0  0  0  0
   25.2029   13.9796   61.8499 O   0  0  0  0  0  0  0  0  0  0  0  0
   25.6773   13.9366   61.0049 H   0  0  0  0  0  0  0  0  0  0  0  0
   24.0656   15.8363   61.0518 C   0  0  0  0  0  0  0  0  0  0  0  0
   23.6998   17.1312   61.3071 O   0  0  0  0  0  0  0  0  0  0  0  0
   23.2001   17.1682   62.1377 H   0  0  0  0  0  0  0  0  0  0  0  0
   28.6819   19.7162   64.6226 N   0  0  0  0  0  0  0  0  0  0  0  0
   29.5652   19.5441   65.0218 H   0  0  0  0  0  0  0  0  0  0  0  0
   28.4935   20.9185   64.0651 C   0  0  0  0  0  0  0  0  0  0  0  0
   28.6147   21.0970   62.7449 N   0  0  0  0  0  0  0  0  0  0  0  0
   28.1465   21.9457   64.8369 N   0  0  0  0  0  0  0  0  0  0  0  0
   28.8709   20.3419   62.1676 H   0  0  0  0  0  0  0  0  0  0  0  0
   28.0554   21.8220   65.8093 H   0  0  0  0  0  0  0  0  0  0  0  0
   27.9811   22.8292   64.4354 H   0  0  0  0  0  0  0  0  0  0  0  0
 12  1  1  0  0  0
 12 13  2  0  0  0
 12 14  1  0  0  0
  1  2  1  0  0  0
  1  6  1  0  0  0
  2  3  1  0  0  0
  3  4  1  0  0  0
  3 25  1  0  0  0
  4  5  1  0  0  0
  4  9  1  0  0  0
  5 16  1  0  0  0
  5  6  1  0  0  0
 16 19  1  0  0  0
 16 17  1  0  0  0
 19 22  1  0  0  0
 19 20  1  0  0  0
 22 23  1  0  0  0
  7  8  1  0  0  0
  7  9  1  0  0  0
  7 10  2  0  0  0
 25 27  1  0  0  0
 27 28  2  0  0  0
 27 29  1  0  0  0
  9 11  1  0  0  0
 25 26  1  0  0  0
 28 30  1  0  0  0
 29 31  1  0  0  0
 29 32  1  0  0  0
 14 15  1  0  0  0
 17 18  1  0  0  0
 20 21  1  0  0  0
 23 24  1  0  0  0
M  END
> <minimizedAffinity>
-7.56283

$$$$
2QWE_GNA_A_800


 32 32  0  0  0  0  0  0  0  0999 V2000
   26.8712   20.9581   64.3877 C   0  0  0  0  0  0  0  0  0  0  0  0
   25.8547   20.0356   64.1201 C   0  0  0  0  0  0  0  0  0  0  0  0
   26.0370   18.8194   63.2145 C   0  0  0  0  0  0  0  0  0  0  0  0
   27.5275   18.4407   63.2393 C   0  0  0  0  0  0  0  0  0  0  0  0
   28.3643   19.6845   62.9279 C   0  0  0  0  0  0  0  0  0  0  0  0
   28.1784   20.6446   63.9877 O   0  0  0  0  0  0  0  0  0  0  0  0
   27.7212   16.1346   62.4015 C   0  0  0  0  0  0  0  0  0  0  0  0
   27.9779   15.2718   61.1611 C   0  0  0  0  0  0  0  0  0  0  0  0
   27.7611   17.4436   62.1677 N   0  0  0  0  0  0  0  0  0  0  0  0
   27.5213   15.6555   63.5184 O   0  0  0  0  0  0  0  0  0  0  0  0
   27.9516   17.7598   61.2550 H   0  0  0  0  0  0  0  0  0  0  0  0
   26.6108   22.1723   65.0358 C   0  0  0  0  0  0  0  0  0  0  0  0
   26.1544   22.1058   66.1886 O   0  0  0  0  0  0  0  0  0  0  0  0
   26.8942   23.2824   64.5196 O   0  0  0  0  0  0  0  0  0  0  0  0
   27.2381   23.3199   63.6488 H   0  0  0  0  0  0  0  0  0  0  0  0
   29.8537   19.3546   62.8344 C   0  0  0  0  0  0  0  0  0  0  0  0
   30.1123   18.8065   61.5962 O   0  0  0  0  0  0  0  0  0  0  0  0
   29.5964   17.9921   61.4890 H   0  0  0  0  0  0  0  0  0  0  0  0
   30.2682   18.3441   63.9314 C   0  0  0  0  0  0  0  0  0  0  0  0
   30.6463   19.1271   64.9803 O   0  0  0  0  0  0  0  0  0  0  0  0
   31.3965   19.6820   64.7156 H   0  0  0  0  0  0  0  0  0  0  0  0
   31.4770   17.4499   63.6112 C   0  0  0  0  0  0  0  0  0  0  0  0
   31.1776   16.5481   62.6248 O   0  0  0  0  0  0  0  0  0  0  0  0
   30.4518   15.9759   62.9193 H   0  0  0  0  0  0  0  0  0  0  0  0
   25.1631   17.7173   63.5978 N   0  0  0  0  0  0  0  0  0  0  0  0
   25.4694   17.1422   64.3358 H   0  0  0  0  0  0  0  0  0  0  0  0
   23.9839   17.4127   63.0423 C   0  0  0  0  0  0  0  0  0  0  0  0
   22.8507   17.4605   63.7514 N   0  0  0  0  0  0  0  0  0  0  0  0
   23.9375   17.0890   61.7523 N   0  0  0  0  0  0  0  0  0  0  0  0
   22.8770   17.6992   64.7061 H   0  0  0  0  0  0  0  0  0  0  0  0
   24.7673   17.0517   61.2239 H   0  0  0  0  0  0  0  0  0  0  0  0
   23.0732   16.8869   61.3263 H   0  0  0  0  0  0  0  0  0  0  0  0
 12  1  1  0  0  0
 12 13  2  0  0  0
 12 14  1  0  0  0
  1  2  1  0  0  0
  1  6  1  0  0  0
  2  3  1  0  0  0
  3  4  1  0  0  0
  3 25  1  0  0  0
  4  5  1  0  0  0
  4  9  1  0  0  0
  5 16  1  0  0  0
  5  6  1  0  0  0
 16 19  1  0  0  0
 16 17  1  0  0  0
 19 22  1  0  0  0
 19 20  1  0  0  0
 22 23  1  0  0  0
  7  8  1  0  0  0
  7  9  1  0  0  0
  7 10  2  0  0  0
 25 27  1  0  0  0
 27 28  2  0  0  0
 27 29  1  0  0  0
  9 11  1  0  0  0
 25 26  1  0  0  0
 28 30  1  0  0  0
 29 31  1  0  0  0
 29 32  1  0  0  0
 14 15  1  0  0  0
 17 18  1  0  0  0
 20 21  1  0  0  0
 23 24  1  0  0  0
M  END
> <minimizedAffinity>
-7.51924

$$$$
2QWE_GNA_A_800


 32 32  0  0  0  0  0  0  0  0999 V2000
   28.1223   19.7890   63.3141 C   0  0  0  0  0  0  0  0  0  0  0  0
   26.8736   19.4932   62.7579 C   0  0  0  0  0  0  0  0  0  0  0  0
   26.6251   18.3099   61.8251 C   0  0  0  0  0  0  0  0  0  0  0  0
   27.6738   17.2330   62.1510 C   0  0  0  0  0  0  0  0  0  0  0  0
   29.0665   17.8689   62.1290 C   0  0  0  0  0  0  0  0  0  0  0  0
   29.1483   18.8406   63.1914 O   0  0  0  0  0  0  0  0  0  0  0  0
   27.3614   14.9265   61.3511 C   0  0  0  0  0  0  0  0  0  0  0  0
   27.3342   14.0251   60.1119 C   0  0  0  0  0  0  0  0  0  0  0  0
   27.6161   16.2048   61.0849 N   0  0  0  0  0  0  0  0  0  0  0  0
   27.1877   14.4976   62.4926 O   0  0  0  0  0  0  0  0  0  0  0  0
   27.7709   16.4762   60.1513 H   0  0  0  0  0  0  0  0  0  0  0  0
   28.3637   20.9979   63.9792 C   0  0  0  0  0  0  0  0  0  0  0  0
   27.3725   21.6912   64.2596 O   0  0  0  0  0  0  0  0  0  0  0  0
   29.5140   21.3404   64.3514 O   0  0  0  0  0  0  0  0  0  0  0  0
   30.2545   20.8091   64.1338 H   0  0  0  0  0  0  0  0  0  0  0  0
   30.1658   16.8291   62.3434 C   0  0  0  0  0  0  0  0  0  0  0  0
   29.8174   16.0243   63.4070 O   0  0  0  0  0  0  0  0  0  0  0  0
   29.7282   16.5659   64.2067 H   0  0  0  0  0  0  0  0  0  0  0  0
   31.5222   17.5103   62.6477 C   0  0  0  0  0  0  0  0  0  0  0  0
   32.4074   16.8687   61.8347 O   0  0  0  0  0  0  0  0  0  0  0  0
   32.4314   15.9262   62.0627 H   0  0  0  0  0  0  0  0  0  0  0  0
   32.0613   17.3443   64.0778 C   0  0  0  0  0  0  0  0  0  0  0  0
   31.3307   18.0824   64.9707 O   0  0  0  0  0  0  0  0  0  0  0  0
   31.3878   19.0220   64.7366 H   0  0  0  0  0  0  0  0  0  0  0  0
   25.2559   17.8182   61.9196 N   0  0  0  0  0  0  0  0  0  0  0  0
   24.6564   18.0228   61.1660 H   0  0  0  0  0  0  0  0  0  0  0  0
   24.7360   17.1152   62.9331 C   0  0  0  0  0  0  0  0  0  0  0  0
   24.5919   17.6546   64.1487 N   0  0  0  0  0  0  0  0  0  0  0  0
   24.3251   15.8682   62.7158 N   0  0  0  0  0  0  0  0  0  0  0  0
   24.8934   18.5765   64.3171 H   0  0  0  0  0  0  0  0  0  0  0  0
   24.4279   15.4644   61.8238 H   0  0  0  0  0  0  0  0  0  0  0  0
   23.9185   15.3494   63.4471 H   0  0  0  0  0  0  0  0  0  0  0  0
 12  1  1  0  0  0
 12 13  2  0  0  0
 12 14  1  0  0  0
  1  2  1  0  0  0
  1  6  1  0  0  0
  2  3  1  0  0  0
  3  4  1  0  0  0
  3 25  1  0  0  0
  4  5  1  0  0  0
  4  9  1  0  0  0
  5 16  1  0  0  0
  5  6  1  0  0  0
 16 19  1  0  0  0
 16 17  1  0  0  0
 19 22  1  0  0  0
 19 20  1  0  0  0
 22 23  1  0  0  0
  7  8  1  0  0  0
  7  9  1  0  0  0
  7 10  2  0  0  0
 25 27  1  0  0  0
 27 28  2  0  0  0
 27 29  1  0  0  0
  9 11  1  0  0  0
 25 26  1  0  0  0
 28 30  1  0  0  0
 29 31  1  0  0  0
 29 32  1  0  0  0
 14 15  1  0  0  0
 17 18  1  0  0  0
 20 21  1  0  0  0
 23 24  1  0  0  0
M  END
> <minimizedAffinity>
-7.37285

$$$$
2QWE_GNA_A_800


 32 32  0  0  0  0  0  0  0  0999 V2000
   26.4154   15.9256   62.0966 C   0  0  0  0  0  0  0  0  0  0  0  0
   25.3326   16.5231   62.7496 C   0  0  0  0  0  0  0  0  0  0  0  0
   25.4856   17.5271   63.8901 C   0  0  0  0  0  0  0  0  0  0  0  0
   26.8479   18.2205   63.7194 C   0  0  0  0  0  0  0  0  0  0  0  0
   27.9358   17.1539   63.5672 C   0  0  0  0  0  0  0  0  0  0  0  0
   27.7021   16.4258   62.3446 O   0  0  0  0  0  0  0  0  0  0  0  0
   26.8746   20.2955   65.0426 C   0  0  0  0  0  0  0  0  0  0  0  0
   27.2182   20.9054   66.4060 C   0  0  0  0  0  0  0  0  0  0  0  0
   27.1234   18.9916   64.9550 N   0  0  0  0  0  0  0  0  0  0  0  0
   26.4315   20.9614   64.1060 O   0  0  0  0  0  0  0  0  0  0  0  0
   27.5022   18.5246   65.7345 H   0  0  0  0  0  0  0  0  0  0  0  0
   26.2410   14.8513   61.2148 C   0  0  0  0  0  0  0  0  0  0  0  0
   25.7976   15.1186   60.0862 O   0  0  0  0  0  0  0  0  0  0  0  0
   26.5865   13.6795   61.5088 O   0  0  0  0  0  0  0  0  0  0  0  0
   26.9197   13.4898   62.3638 H   0  0  0  0  0  0  0  0  0  0  0  0
   29.3303   17.7752   63.4972 C   0  0  0  0  0  0  0  0  0  0  0  0
   29.6674   18.2562   64.7444 O   0  0  0  0  0  0  0  0  0  0  0  0
   29.0278   18.9340   65.0132 H   0  0  0  0  0  0  0  0  0  0  0  0
   29.3684   18.9401   62.4786 C   0  0  0  0  0  0  0  0  0  0  0  0
   30.3517   18.5866   61.6043 O   0  0  0  0  0  0  0  0  0  0  0  0
   31.1943   18.5103   62.0788 H   0  0  0  0  0  0  0  0  0  0  0  0
   29.7683   20.3168   63.0338 C   0  0  0  0  0  0  0  0  0  0  0  0
   28.9595   21.3043   62.5373 O   0  0  0  0  0  0  0  0  0  0  0  0
   29.0430   21.3355   61.5714 H   0  0  0  0  0  0  0  0  0  0  0  0
   24.3717   18.4660   63.9442 N   0  0  0  0  0  0  0  0  0  0  0  0
   24.1406   18.9313   63.1079 H   0  0  0  0  0  0  0  0  0  0  0  0
   23.6330   18.7560   65.0222 C   0  0  0  0  0  0  0  0  0  0  0  0
   22.6815   19.6952   64.9783 N   0  0  0  0  0  0  0  0  0  0  0  0
   23.8287   18.0725   66.1472 N   0  0  0  0  0  0  0  0  0  0  0  0
   22.5309   20.2050   64.1496 H   0  0  0  0  0  0  0  0  0  0  0  0
   24.5271   17.3797   66.1871 H   0  0  0  0  0  0  0  0  0  0  0  0
   23.2751   18.2595   66.9395 H   0  0  0  0  0  0  0  0  0  0  0  0
 12  1  1  0  0  0
 12 13  2  0  0  0
 12 14  1  0  0  0
  1  2  1  0  0  0
  1  6  1  0  0  0
  2  3  1  0  0  0
  3  4  1  0  0  0
  3 25  1  0  0  0
  4  5  1  0  0  0
  4  9  1  0  0  0
  5 16  1  0  0  0
  5  6  1  0  0  0
 16 19  1  0  0  0
 16 17  1  0  0  0
 19 22  1  0  0  0
 19 20  1  0  0  0
 22 23  1  0  0  0
  7  8  1  0  0  0
  7  9  1  0  0  0
  7 10  2  0  0  0
 25 27  1  0  0  0
 27 28  2  0  0  0
 27 29  1  0  0  0
  9 11  1  0  0  0
 25 26  1  0  0  0
 28 30  1  0  0  0
 29 31  1  0  0  0
 29 32  1  0  0  0
 14 15  1  0  0  0
 17 18  1  0  0  0
 20 21  1  0  0  0
 23 24  1  0  0  0
M  END
> <minimizedAffinity>
-7.15124

$$$$
2QWE_GNA_A_800


 32 32  0  0  0  0  0  0  0  0999 V2000
   26.6606   17.4194   59.2785 C   0  0  0  0  0  0  0  0  0  0  0  0
   27.4808   18.1590   60.1365 C   0  0  0  0  0  0  0  0  0  0  0  0
   27.1107   18.4877   61.5812 C   0  0  0  0  0  0  0  0  0  0  0  0
   26.1521   17.3915   62.0763 C   0  0  0  0  0  0  0  0  0  0  0  0
   25.0069   17.2382   61.0716 C   0  0  0  0  0  0  0  0  0  0  0  0
   25.5478   16.7616   59.8226 O   0  0  0  0  0  0  0  0  0  0  0  0
   26.1729   17.5782   64.5303 C   0  0  0  0  0  0  0  0  0  0  0  0
   25.4284   18.1346   65.7489 C   0  0  0  0  0  0  0  0  0  0  0  0
   25.5793   17.8381   63.3685 N   0  0  0  0  0  0  0  0  0  0  0  0
   27.2143   16.9273   64.6242 O   0  0  0  0  0  0  0  0  0  0  0  0
   24.7338   18.3424   63.3668 H   0  0  0  0  0  0  0  0  0  0  0  0
   26.9249   17.3273   57.9060 C   0  0  0  0  0  0  0  0  0  0  0  0
   27.5783   18.2527   57.3976 O   0  0  0  0  0  0  0  0  0  0  0  0
   26.5925   16.3251   57.2248 O   0  0  0  0  0  0  0  0  0  0  0  0
   26.0994   15.6330   57.6195 H   0  0  0  0  0  0  0  0  0  0  0  0
   23.9608   16.2348   61.5560 C   0  0  0  0  0  0  0  0  0  0  0  0
   23.4777   16.6493   62.7788 O   0  0  0  0  0  0  0  0  0  0  0  0
   24.2061   16.6868   63.4184 H   0  0  0  0  0  0  0  0  0  0  0  0
   24.5751   14.8221   61.7075 C   0  0  0  0  0  0  0  0  0  0  0  0
   24.6018   14.3320   60.4365 O   0  0  0  0  0  0  0  0  0  0  0  0
   23.6972   14.2838   60.0895 H   0  0  0  0  0  0  0  0  0  0  0  0
   23.7637   13.8123   62.5353 C   0  0  0  0  0  0  0  0  0  0  0  0
   22.8351   13.1699   61.7602 O   0  0  0  0  0  0  0  0  0  0  0  0
   22.2168   13.8197   61.3910 H   0  0  0  0  0  0  0  0  0  0  0  0
   28.2892   18.6375   62.4263 N   0  0  0  0  0  0  0  0  0  0  0  0
   28.2147   19.2560   63.1886 H   0  0  0  0  0  0  0  0  0  0  0  0
   29.4628   18.0145   62.2647 C   0  0  0  0  0  0  0  0  0  0  0  0
   30.5376   18.6679   61.8093 N   0  0  0  0  0  0  0  0  0  0  0  0
   29.5677   16.7297   62.5956 N   0  0  0  0  0  0  0  0  0  0  0  0
   30.4678   19.6184   61.5625 H   0  0  0  0  0  0  0  0  0  0  0  0
   28.7811   16.2421   62.9315 H   0  0  0  0  0  0  0  0  0  0  0  0
   30.4319   16.2668   62.5046 H   0  0  0  0  0  0  0  0  0  0  0  0
 12  1  1  0  0  0
 12 13  2  0  0  0
 12 14  1  0  0  0
  1  2  1  0  0  0
  1  6  1  0  0  0
  2  3  1  0  0  0
  3  4  1  0  0  0
  3 25  1  0  0  0
  4  5  1  0  0  0
  4  9  1  0  0  0
  5 16  1  0  0  0
  5  6  1  0  0  0
 16 19  1  0  0  0
 16 17  1  0  0  0
 19 22  1  0  0  0
 19 20  1  0  0  0
 22 23  1  0  0  0
  7  8  1  0  0  0
  7  9  1  0  0  0
  7 10  2  0  0  0
 25 27  1  0  0  0
 27 28  2  0  0  0
 27 29  1  0  0  0
  9 11  1  0  0  0
 25 26  1  0  0  0
 28 30  1  0  0  0
 29 31  1  0  0  0
 29 32  1  0  0  0
 14 15  1  0  0  0
 17 18  1  0  0  0
 20 21  1  0  0  0
 23 24  1  0  0  0
M  END
> <minimizedAffinity>
-7.06531

$$$$
2QWE_GNA_A_800


 32 32  0  0  0  0  0  0  0  0999 V2000
   29.9297   17.3357   62.5514 C   0  0  0  0  0  0  0  0  0  0  0  0
   29.4425   16.1359   62.0231 C   0  0  0  0  0  0  0  0  0  0  0  0
   27.9560   15.8370   61.8411 C   0  0  0  0  0  0  0  0  0  0  0  0
   27.2281   17.1819   61.6768 C   0  0  0  0  0  0  0  0  0  0  0  0
   27.6259   18.1092   62.8285 C   0  0  0  0  0  0  0  0  0  0  0  0
   29.0340   18.4014   62.7220 O   0  0  0  0  0  0  0  0  0  0  0  0
   25.0052   16.8092   60.6885 C   0  0  0  0  0  0  0  0  0  0  0  0
   23.5294   16.5335   60.9967 C   0  0  0  0  0  0  0  0  0  0  0  0
   25.7713   16.9248   61.7699 N   0  0  0  0  0  0  0  0  0  0  0  0
   25.4351   16.9369   59.5414 O   0  0  0  0  0  0  0  0  0  0  0  0
   25.3580   16.8369   62.6591 H   0  0  0  0  0  0  0  0  0  0  0  0
   31.2751   17.4890   62.9100 C   0  0  0  0  0  0  0  0  0  0  0  0
   32.0835   17.6777   61.9866 O   0  0  0  0  0  0  0  0  0  0  0  0
   31.6506   17.5163   64.1089 O   0  0  0  0  0  0  0  0  0  0  0  0
   31.0313   17.3725   64.7972 H   0  0  0  0  0  0  0  0  0  0  0  0
   26.8567   19.4290   62.7827 C   0  0  0  0  0  0  0  0  0  0  0  0
   27.7504   20.4596   62.5836 O   0  0  0  0  0  0  0  0  0  0  0  0
   28.3847   20.4837   63.3171 H   0  0  0  0  0  0  0  0  0  0  0  0
   26.0916   19.6717   64.1063 C   0  0  0  0  0  0  0  0  0  0  0  0
   24.8698   19.1075   63.8935 O   0  0  0  0  0  0  0  0  0  0  0  0
   24.4327   19.5532   63.1511 H   0  0  0  0  0  0  0  0  0  0  0  0
   25.8231   21.1390   64.4780 C   0  0  0  0  0  0  0  0  0  0  0  0
   25.0021   21.7394   63.5608 O   0  0  0  0  0  0  0  0  0  0  0  0
   25.4262   21.7245   62.6886 H   0  0  0  0  0  0  0  0  0  0  0  0
   27.7150   14.9202   60.7335 N   0  0  0  0  0  0  0  0  0  0  0  0
   28.3649   14.9345   59.9942 H   0  0  0  0  0  0  0  0  0  0  0  0
   26.6944   14.0608   60.6257 C   0  0  0  0  0  0  0  0  0  0  0  0
   26.0989   13.8360   59.4492 N   0  0  0  0  0  0  0  0  0  0  0  0
   26.2889   13.3946   61.7041 N   0  0  0  0  0  0  0  0  0  0  0  0
   26.3933   14.3250   58.6471 H   0  0  0  0  0  0  0  0  0  0  0  0
   26.7223   13.5547   62.5735 H   0  0  0  0  0  0  0  0  0  0  0  0
   25.5555   12.7417   61.6325 H   0  0  0  0  0  0  0  0  0  0  0  0
 12  1  1  0  0  0
 12 13  2  0  0  0
 12 14  1  0  0  0
  1  2  1  0  0  0
  1  6  1  0  0  0
  2  3  1  0  0  0
  3  4  1  0  0  0
  3 25  1  0  0  0
  4  5  1  0  0  0
  4  9  1  0  0  0
  5 16  1  0  0  0
  5  6  1  0  0  0
 16 19  1  0  0  0
 16 17  1  0  0  0
 19 22  1  0  0  0
 19 20  1  0  0  0
 22 23  1  0  0  0
  7  8  1  0  0  0
  7  9  1  0  0  0
  7 10  2  0  0  0
 25 27  1  0  0  0
 27 28  2  0  0  0
 27 29  1  0  0  0
  9 11  1  0  0  0
 25 26  1  0  0  0
 28 30  1  0  0  0
 29 31  1  0  0  0
 29 32  1  0  0  0
 14 15  1  0  0  0
 17 18  1  0  0  0
 20 21  1  0  0  0
 23 24  1  0  0  0
M  END
> <minimizedAffinity>
-6.97156

$$$$
2QWE_GNA_A_800


 32 32  0  0  0  0  0  0  0  0999 V2000
   26.6461   17.7340   61.1934 C   0  0  0  0  0  0  0  0  0  0  0  0
   25.7747   16.6792   61.4836 C   0  0  0  0  0  0  0  0  0  0  0  0
   25.0953   16.4955   62.8389 C   0  0  0  0  0  0  0  0  0  0  0  0
   24.9787   17.8830   63.4923 C   0  0  0  0  0  0  0  0  0  0  0  0
   26.3522   18.5595   63.4770 C   0  0  0  0  0  0  0  0  0  0  0  0
   26.7373   18.7940   62.1073 O   0  0  0  0  0  0  0  0  0  0  0  0
   23.6034   18.4057   65.4652 C   0  0  0  0  0  0  0  0  0  0  0  0
   23.3274   18.0446   66.9289 C   0  0  0  0  0  0  0  0  0  0  0  0
   24.5729   17.6879   64.9045 N   0  0  0  0  0  0  0  0  0  0  0  0
   22.9968   19.2986   64.8721 O   0  0  0  0  0  0  0  0  0  0  0  0
   25.0351   17.0062   65.4440 H   0  0  0  0  0  0  0  0  0  0  0  0
   27.4195   17.7493   60.0256 C   0  0  0  0  0  0  0  0  0  0  0  0
   26.8290   17.5138   58.9590 O   0  0  0  0  0  0  0  0  0  0  0  0
   28.6364   18.0625   60.0312 O   0  0  0  0  0  0  0  0  0  0  0  0
   29.0712   18.2380   60.8424 H   0  0  0  0  0  0  0  0  0  0  0  0
   26.3287   19.9025   64.2061 C   0  0  0  0  0  0  0  0  0  0  0  0
   25.9066   20.8788   63.3291 O   0  0  0  0  0  0  0  0  0  0  0  0
   26.5228   20.9305   62.5818 H   0  0  0  0  0  0  0  0  0  0  0  0
   27.7360   20.2717   64.7346 C   0  0  0  0  0  0  0  0  0  0  0  0
   27.5040   20.7686   65.9818 O   0  0  0  0  0  0  0  0  0  0  0  0
   26.9385   21.5541   65.9169 H   0  0  0  0  0  0  0  0  0  0  0  0
   28.4823   21.3764   63.9690 C   0  0  0  0  0  0  0  0  0  0  0  0
   28.6693   21.0294   62.6574 O   0  0  0  0  0  0  0  0  0  0  0  0
   29.2021   20.2202   62.6099 H   0  0  0  0  0  0  0  0  0  0  0  0
   23.8126   15.8132   62.7187 N   0  0  0  0  0  0  0  0  0  0  0  0
   23.0320   16.2586   63.1207 H   0  0  0  0  0  0  0  0  0  0  0  0
   23.5947   14.6391   62.1140 C   0  0  0  0  0  0  0  0  0  0  0  0
   23.2500   13.5524   62.8138 N   0  0  0  0  0  0  0  0  0  0  0  0
   23.6910   14.5626   60.7888 N   0  0  0  0  0  0  0  0  0  0  0  0
   23.1768   13.6012   63.7944 H   0  0  0  0  0  0  0  0  0  0  0  0
   23.9442   15.3581   60.2670 H   0  0  0  0  0  0  0  0  0  0  0  0
   23.5090   13.7106   60.3304 H   0  0  0  0  0  0  0  0  0  0  0  0
 12  1  1  0  0  0
 12 13  2  0  0  0
 12 14  1  0  0  0
  1  2  1  0  0  0
  1  6  1  0  0  0
  2  3  1  0  0  0
  3  4  1  0  0  0
  3 25  1  0  0  0
  4  5  1  0  0  0
  4  9  1  0  0  0
  5 16  1  0  0  0
  5  6  1  0  0  0
 16 19  1  0  0  0
 16 17  1  0  0  0
 19 22  1  0  0  0
 19 20  1  0  0  0
 22 23  1  0  0  0
  7  8  1  0  0  0
  7  9  1  0  0  0
  7 10  2  0  0  0
 25 27  1  0  0  0
 27 28  2  0  0  0
 27 29  1  0  0  0
  9 11  1  0  0  0
 25 26  1  0  0  0
 28 30  1  0  0  0
 29 31  1  0  0  0
 29 32  1  0  0  0
 14 15  1  0  0  0
 17 18  1  0  0  0
 20 21  1  0  0  0
 23 24  1  0  0  0
M  END
> <minimizedAffinity>
-6.97074

$$$$
2QWE_GNA_A_800


 32 32  0  0  0  0  0  0  0  0999 V2000
   24.7771   19.2287   65.0047 C   0  0  0  0  0  0  0  0  0  0  0  0
   24.9034   17.9864   64.3748 C   0  0  0  0  0  0  0  0  0  0  0  0
   26.1597   17.5437   63.6278 C   0  0  0  0  0  0  0  0  0  0  0  0
   27.3528   18.3003   64.2359 C   0  0  0  0  0  0  0  0  0  0  0  0
   27.0358   19.7981   64.2583 C   0  0  0  0  0  0  0  0  0  0  0  0
   25.9243   20.0225   65.1493 O   0  0  0  0  0  0  0  0  0  0  0  0
   29.3614   17.0676   63.5264 C   0  0  0  0  0  0  0  0  0  0  0  0
   30.5013   17.0165   62.5033 C   0  0  0  0  0  0  0  0  0  0  0  0
   28.5242   18.0869   63.3531 N   0  0  0  0  0  0  0  0  0  0  0  0
   29.2483   16.2508   64.4413 O   0  0  0  0  0  0  0  0  0  0  0  0
   28.6876   18.7187   62.6160 H   0  0  0  0  0  0  0  0  0  0  0  0
   23.5439   19.6885   65.4841 C   0  0  0  0  0  0  0  0  0  0  0  0
   22.5503   19.4758   64.7704 O   0  0  0  0  0  0  0  0  0  0  0  0
   23.4206   20.2212   66.6155 O   0  0  0  0  0  0  0  0  0  0  0  0
   24.1778   20.3767   67.1451 H   0  0  0  0  0  0  0  0  0  0  0  0
   28.2242   20.6198   64.7564 C   0  0  0  0  0  0  0  0  0  0  0  0
   28.9783   19.8421   65.6089 O   0  0  0  0  0  0  0  0  0  0  0  0
   28.4353   19.5725   66.3661 H   0  0  0  0  0  0  0  0  0  0  0  0
   27.7471   21.8832   65.5130 C   0  0  0  0  0  0  0  0  0  0  0  0
   27.2627   22.6960   64.5327 O   0  0  0  0  0  0  0  0  0  0  0  0
   27.9744   22.9105   63.9095 H   0  0  0  0  0  0  0  0  0  0  0  0
   28.8342   22.6932   66.2381 C   0  0  0  0  0  0  0  0  0  0  0  0
   30.0679   22.4698   65.6868 O   0  0  0  0  0  0  0  0  0  0  0  0
   30.2922   21.5295   65.7666 H   0  0  0  0  0  0  0  0  0  0  0  0
   26.3297   16.0961   63.6553 N   0  0  0  0  0  0  0  0  0  0  0  0
   26.4663   15.6805   64.5373 H   0  0  0  0  0  0  0  0  0  0  0  0
   26.3180   15.2779   62.5960 C   0  0  0  0  0  0  0  0  0  0  0  0
   27.3355   14.4444   62.3526 N   0  0  0  0  0  0  0  0  0  0  0  0
   25.2583   15.2722   61.7909 N   0  0  0  0  0  0  0  0  0  0  0  0
   28.1228   14.4429   62.9437 H   0  0  0  0  0  0  0  0  0  0  0  0
   24.5055   15.8827   61.9636 H   0  0  0  0  0  0  0  0  0  0  0  0
   25.2271   14.6574   61.0226 H   0  0  0  0  0  0  0  0  0  0  0  0
 12  1  1  0  0  0
 12 13  2  0  0  0
 12 14  1  0  0  0
  1  2  1  0  0  0
  1  6  1  0  0  0
  2  3  1  0  0  0
  3  4  1  0  0  0
  3 25  1  0  0  0
  4  5  1  0  0  0
  4  9  1  0  0  0
  5 16  1  0  0  0
  5  6  1  0  0  0
 16 19  1  0  0  0
 16 17  1  0  0  0
 19 22  1  0  0  0
 19 20  1  0  0  0
 22 23  1  0  0  0
  7  8  1  0  0  0
  7  9  1  0  0  0
  7 10  2  0  0  0
 25 27  1  0  0  0
 27 28  2  0  0  0
 27 29  1  0  0  0
  9 11  1  0  0  0
 25 26  1  0  0  0
 28 30  1  0  0  0
 29 31  1  0  0  0
 29 32  1  0  0  0
 14 15  1  0  0  0
 17 18  1  0  0  0
 20 21  1  0  0  0
 23 24  1  0  0  0
M  END
> <minimizedAffinity>
-6.84088

$$$$
