2QPU_QPU_A_3000


 42 44  0  0  0  0  0  0  0  0999 V2000
  167.3214   51.0772    8.2315 C   0  0  0  0  0  0  0  0  0  0  0  0
  165.8222   50.8170    7.9713 C   0  0  0  0  0  0  0  0  0  0  0  0
  164.9737   51.4228    9.0972 C   0  0  0  0  0  0  0  0  0  0  0  0
  165.3971   50.7687   10.4245 C   0  0  0  0  0  0  0  0  0  0  0  0
  166.9182   51.0602   10.6459 C   0  0  0  0  0  0  0  0  0  0  0  0
  167.4329   50.4217   11.9308 C   0  0  0  0  0  0  0  0  0  0  0  0
  165.4660   51.3675    6.7125 O   0  0  0  0  0  0  0  0  0  0  0  0
  163.5951   51.1740    8.8449 O   0  0  0  0  0  0  0  0  0  0  0  0
  167.6820   50.5280    9.5201 O   0  0  0  0  0  0  0  0  0  0  0  0
  165.6309   52.3233    6.7193 H   0  0  0  0  0  0  0  0  0  0  0  0
  163.4431   50.2173    8.7952 H   0  0  0  0  0  0  0  0  0  0  0  0
  164.5664   51.3225   11.5212 N   0  0  0  0  0  0  0  0  0  0  0  0
  165.1686   51.7899   12.1989 H   0  0  0  0  0  0  0  0  0  0  0  0
  163.8273   50.2307   12.1923 C   0  0  0  0  0  0  0  0  0  0  0  0
  162.3006   50.5021   12.2180 C   0  0  0  0  0  0  0  0  0  0  0  0
  162.0276   51.7317   13.0916 C   0  0  0  0  0  0  0  0  0  0  0  0
  162.0686   51.2699   14.5549 C   0  0  0  0  0  0  0  0  0  0  0  0
  163.4442   50.6205   14.8217 C   0  0  0  0  0  0  0  0  0  0  0  0
  163.9480   50.4773   16.2506 C   0  0  0  0  0  0  0  0  0  0  0  0
  164.3155   50.0936   13.6524 C   0  0  0  0  0  0  0  0  0  0  0  0
  161.8244   50.6803   10.8948 O   0  0  0  0  0  0  0  0  0  0  0  0
  160.7517   52.3034   12.8133 O   0  0  0  0  0  0  0  0  0  0  0  0
  161.8319   52.3959   15.3999 O   0  0  0  0  0  0  0  0  0  0  0  0
  164.6718   48.7339   13.8977 O   0  0  0  0  0  0  0  0  0  0  0  0
  162.2803   51.4324   10.4857 H   0  0  0  0  0  0  0  0  0  0  0  0
  160.0587   51.6470   12.9861 H   0  0  0  0  0  0  0  0  0  0  0  0
  162.5073   53.0721   15.2343 H   0  0  0  0  0  0  0  0  0  0  0  0
  163.8770   48.1793   13.8587 H   0  0  0  0  0  0  0  0  0  0  0  0
  167.5986   52.4809    8.2003 O   0  0  0  0  0  0  0  0  0  0  0  0
  170.2433   55.0863    6.0982 C   0  0  0  0  0  0  0  0  0  0  0  0
  168.9279   54.6577    5.4146 C   0  0  0  0  0  0  0  0  0  0  0  0
  167.9279   54.1665    6.4749 C   0  0  0  0  0  0  0  0  0  0  0  0
  168.5421   52.9754    7.2034 C   0  0  0  0  0  0  0  0  0  0  0  0
  169.8690   53.4453    7.8838 C   0  0  0  0  0  0  0  0  0  0  0  0
  168.3922   55.7656    4.6913 O   0  0  0  0  0  0  0  0  0  0  0  0
  166.7270   53.7685    5.8481 O   0  0  0  0  0  0  0  0  0  0  0  0
  170.7895   53.9862    6.8735 O   0  0  0  0  0  0  0  0  0  0  0  0
  168.2179   56.4976    5.3035 H   0  0  0  0  0  0  0  0  0  0  0  0
  166.9125   53.0554    5.2172 H   0  0  0  0  0  0  0  0  0  0  0  0
  170.6087   52.3339    8.6258 C   0  0  0  0  0  0  0  0  0  0  0  0
  170.1364   52.1913    9.9531 O   0  0  0  0  0  0  0  0  0  0  0  0
  170.2834   53.0176   10.4392 H   0  0  0  0  0  0  0  0  0  0  0  0
 14 15  1  0  0  0
 14 20  1  0  0  0
 14 12  1  0  0  0
 15 16  1  0  0  0
 15 21  1  0  0  0
 16 17  1  0  0  0
 16 22  1  0  0  0
 17 18  1  0  0  0
 17 23  1  0  0  0
 18 19  1  0  0  0
 18 20  1  0  0  0
 20 24  1  0  0  0
  1  2  1  0  0  0
  1  9  1  0  0  0
  1 29  1  0  0  0
  2  3  1  0  0  0
  2  7  1  0  0  0
  3  4  1  0  0  0
  3  8  1  0  0  0
  4  5  1  0  0  0
  4 12  1  0  0  0
  5  6  1  0  0  0
  5  9  1  0  0  0
 30 31  1  0  0  0
 30 37  1  0  0  0
 31 32  1  0  0  0
 31 35  1  0  0  0
 32 33  1  0  0  0
 32 36  1  0  0  0
 33 34  1  0  0  0
 33 29  1  0  0  0
 34 40  1  0  0  0
 34 37  1  0  0  0
 40 41  1  0  0  0
 21 25  1  0  0  0
 22 26  1  0  0  0
 23 27  1  0  0  0
 24 28  1  0  0  0
 12 13  1  0  0  0
  7 10  1  0  0  0
  8 11  1  0  0  0
 35 38  1  0  0  0
 36 39  1  0  0  0
 41 42  1  0  0  0
M  END
> <minimizedAffinity>
-8.98887

$$$$
2QPU_QPU_A_3000


 42 44  0  0  0  0  0  0  0  0999 V2000
  164.3180   49.2727   12.3088 C   0  0  0  0  0  0  0  0  0  0  0  0
  165.8281   48.9908   12.4615 C   0  0  0  0  0  0  0  0  0  0  0  0
  166.6424   50.2369   12.0889 C   0  0  0  0  0  0  0  0  0  0  0  0
  166.3219   50.6026   10.6286 C   0  0  0  0  0  0  0  0  0  0  0  0
  164.7859   50.8809   10.5236 C   0  0  0  0  0  0  0  0  0  0  0  0
  164.3720   51.2250    9.0976 C   0  0  0  0  0  0  0  0  0  0  0  0
  166.0939   48.5892   13.7966 O   0  0  0  0  0  0  0  0  0  0  0  0
  168.0315   49.9619   12.2327 O   0  0  0  0  0  0  0  0  0  0  0  0
  164.0486   49.6947   10.9518 O   0  0  0  0  0  0  0  0  0  0  0  0
  165.8351   49.2988   14.4053 H   0  0  0  0  0  0  0  0  0  0  0  0
  168.2763   49.2225   11.6545 H   0  0  0  0  0  0  0  0  0  0  0  0
  167.1228   51.7894   10.2421 N   0  0  0  0  0  0  0  0  0  0  0  0
  166.4964   52.5660   10.0301 H   0  0  0  0  0  0  0  0  0  0  0  0
  167.9394   51.4777    9.0485 C   0  0  0  0  0  0  0  0  0  0  0  0
  169.4359   51.8178    9.2720 C   0  0  0  0  0  0  0  0  0  0  0  0
  169.5826   53.3343    9.4407 C   0  0  0  0  0  0  0  0  0  0  0  0
  169.5507   53.9547    8.0371 C   0  0  0  0  0  0  0  0  0  0  0  0
  168.2312   53.5381    7.3509 C   0  0  0  0  0  0  0  0  0  0  0  0
  167.7116   54.3368    6.1643 C   0  0  0  0  0  0  0  0  0  0  0  0
  167.4340   52.3027    7.8431 C   0  0  0  0  0  0  0  0  0  0  0  0
  169.9229   51.1131   10.4013 O   0  0  0  0  0  0  0  0  0  0  0  0
  170.8097   53.6774   10.0799 O   0  0  0  0  0  0  0  0  0  0  0  0
  169.6707   55.3721    8.1572 O   0  0  0  0  0  0  0  0  0  0  0  0
  167.1919   51.4228    6.7463 O   0  0  0  0  0  0  0  0  0  0  0  0
  169.4122   51.3672   11.1859 H   0  0  0  0  0  0  0  0  0  0  0  0
  171.5532   53.3571    9.5457 H   0  0  0  0  0  0  0  0  0  0  0  0
  168.9429   55.7134    8.7000 H   0  0  0  0  0  0  0  0  0  0  0  0
  168.0326   51.0463    6.4422 H   0  0  0  0  0  0  0  0  0  0  0  0
  163.9022   50.2855   13.2305 O   0  0  0  0  0  0  0  0  0  0  0  0
  160.6922   50.7202   16.0069 C   0  0  0  0  0  0  0  0  0  0  0  0
  161.3206   49.3240   15.8143 C   0  0  0  0  0  0  0  0  0  0  0  0
  162.7214   49.4660   15.1953 C   0  0  0  0  0  0  0  0  0  0  0  0
  162.5846   50.1604   13.8442 C   0  0  0  0  0  0  0  0  0  0  0  0
  161.9476   51.5691   14.0770 C   0  0  0  0  0  0  0  0  0  0  0  0
  161.3923   48.6633   17.0776 O   0  0  0  0  0  0  0  0  0  0  0  0
  163.2930   48.1879   15.0135 O   0  0  0  0  0  0  0  0  0  0  0  0
  160.6433   51.4294   14.7403 O   0  0  0  0  0  0  0  0  0  0  0  0
  161.9389   49.1857   17.6852 H   0  0  0  0  0  0  0  0  0  0  0  0
  162.7275   47.6612   14.4273 H   0  0  0  0  0  0  0  0  0  0  0  0
  161.7226   52.3642   12.7924 C   0  0  0  0  0  0  0  0  0  0  0  0
  161.5145   51.5102   11.6822 O   0  0  0  0  0  0  0  0  0  0  0  0
  162.2985   50.9545   11.5503 H   0  0  0  0  0  0  0  0  0  0  0  0
 14 15  1  0  0  0
 14 20  1  0  0  0
 14 12  1  0  0  0
 15 16  1  0  0  0
 15 21  1  0  0  0
 16 17  1  0  0  0
 16 22  1  0  0  0
 17 18  1  0  0  0
 17 23  1  0  0  0
 18 19  1  0  0  0
 18 20  1  0  0  0
 20 24  1  0  0  0
  1  2  1  0  0  0
  1  9  1  0  0  0
  1 29  1  0  0  0
  2  3  1  0  0  0
  2  7  1  0  0  0
  3  4  1  0  0  0
  3  8  1  0  0  0
  4  5  1  0  0  0
  4 12  1  0  0  0
  5  6  1  0  0  0
  5  9  1  0  0  0
 30 31  1  0  0  0
 30 37  1  0  0  0
 31 32  1  0  0  0
 31 35  1  0  0  0
 32 33  1  0  0  0
 32 36  1  0  0  0
 33 34  1  0  0  0
 33 29  1  0  0  0
 34 40  1  0  0  0
 34 37  1  0  0  0
 40 41  1  0  0  0
 21 25  1  0  0  0
 22 26  1  0  0  0
 23 27  1  0  0  0
 24 28  1  0  0  0
 12 13  1  0  0  0
  7 10  1  0  0  0
  8 11  1  0  0  0
 35 38  1  0  0  0
 36 39  1  0  0  0
 41 42  1  0  0  0
M  END
> <minimizedAffinity>
-8.18455

$$$$
2QPU_QPU_A_3000


 42 44  0  0  0  0  0  0  0  0999 V2000
  168.0330   51.1618    8.6956 C   0  0  0  0  0  0  0  0  0  0  0  0
  166.6042   51.0744    8.1177 C   0  0  0  0  0  0  0  0  0  0  0  0
  165.5840   51.5919    9.1403 C   0  0  0  0  0  0  0  0  0  0  0  0
  165.6911   50.7256   10.4080 C   0  0  0  0  0  0  0  0  0  0  0  0
  167.1510   50.8472   10.9573 C   0  0  0  0  0  0  0  0  0  0  0  0
  167.3569   49.9941   12.2035 C   0  0  0  0  0  0  0  0  0  0  0  0
  166.5428   51.8231    6.9134 O   0  0  0  0  0  0  0  0  0  0  0  0
  164.2723   51.5039    8.5949 O   0  0  0  0  0  0  0  0  0  0  0  0
  168.0928   50.4099    9.9298 O   0  0  0  0  0  0  0  0  0  0  0  0
  166.7599   52.7503    7.0977 H   0  0  0  0  0  0  0  0  0  0  0  0
  164.0763   50.5806    8.3713 H   0  0  0  0  0  0  0  0  0  0  0  0
  164.6910   51.1942   11.3979 N   0  0  0  0  0  0  0  0  0  0  0  0
  165.1734   51.5739   12.2125 H   0  0  0  0  0  0  0  0  0  0  0  0
  163.8326   50.0650   11.8181 C   0  0  0  0  0  0  0  0  0  0  0  0
  162.3269   50.4276   11.7375 C   0  0  0  0  0  0  0  0  0  0  0  0
  162.0241   51.5291   12.7596 C   0  0  0  0  0  0  0  0  0  0  0  0
  161.8879   50.8537   14.1313 C   0  0  0  0  0  0  0  0  0  0  0  0
  163.1942   50.0844   14.4266 C   0  0  0  0  0  0  0  0  0  0  0  0
  163.5369   49.6987   15.8583 C   0  0  0  0  0  0  0  0  0  0  0  0
  164.1569   49.6816   13.2799 C   0  0  0  0  0  0  0  0  0  0  0  0
  162.0021   50.8305   10.4179 O   0  0  0  0  0  0  0  0  0  0  0  0
  160.8143   52.2169   12.4507 O   0  0  0  0  0  0  0  0  0  0  0  0
  161.6192   51.8548   15.1129 O   0  0  0  0  0  0  0  0  0  0  0  0
  164.4180   48.2804   13.3460 O   0  0  0  0  0  0  0  0  0  0  0  0
  162.5350   51.6039   10.1756 H   0  0  0  0  0  0  0  0  0  0  0  0
  160.0755   51.5884   12.4524 H   0  0  0  0  0  0  0  0  0  0  0  0
  162.3407   52.5031   15.1195 H   0  0  0  0  0  0  0  0  0  0  0  0
  163.6054   47.7902   13.1453 H   0  0  0  0  0  0  0  0  0  0  0  0
  168.3944   52.5261    8.9329 O   0  0  0  0  0  0  0  0  0  0  0  0
  172.3107   52.5813    7.2415 C   0  0  0  0  0  0  0  0  0  0  0  0
  172.1595   52.2901    8.7494 C   0  0  0  0  0  0  0  0  0  0  0  0
  170.7235   51.8269    9.0472 C   0  0  0  0  0  0  0  0  0  0  0  0
  169.7625   52.9384    8.6381 C   0  0  0  0  0  0  0  0  0  0  0  0
  169.9413   53.2053    7.1080 C   0  0  0  0  0  0  0  0  0  0  0  0
  173.1018   51.2879    9.1307 O   0  0  0  0  0  0  0  0  0  0  0  0
  170.5842   51.5668   10.4280 O   0  0  0  0  0  0  0  0  0  0  0  0
  171.3354   53.5715    6.8197 O   0  0  0  0  0  0  0  0  0  0  0  0
  172.9350   50.4778    8.6239 H   0  0  0  0  0  0  0  0  0  0  0  0
  170.7792   52.3734   10.9302 H   0  0  0  0  0  0  0  0  0  0  0  0
  169.0550   54.3269    6.5699 C   0  0  0  0  0  0  0  0  0  0  0  0
  168.1472   53.8492    5.5938 O   0  0  0  0  0  0  0  0  0  0  0  0
  168.6418   53.4806    4.8452 H   0  0  0  0  0  0  0  0  0  0  0  0
 14 15  1  0  0  0
 14 20  1  0  0  0
 14 12  1  0  0  0
 15 16  1  0  0  0
 15 21  1  0  0  0
 16 17  1  0  0  0
 16 22  1  0  0  0
 17 18  1  0  0  0
 17 23  1  0  0  0
 18 19  1  0  0  0
 18 20  1  0  0  0
 20 24  1  0  0  0
  1  2  1  0  0  0
  1  9  1  0  0  0
  1 29  1  0  0  0
  2  3  1  0  0  0
  2  7  1  0  0  0
  3  4  1  0  0  0
  3  8  1  0  0  0
  4  5  1  0  0  0
  4 12  1  0  0  0
  5  6  1  0  0  0
  5  9  1  0  0  0
 30 31  1  0  0  0
 30 37  1  0  0  0
 31 32  1  0  0  0
 31 35  1  0  0  0
 32 33  1  0  0  0
 32 36  1  0  0  0
 33 34  1  0  0  0
 33 29  1  0  0  0
 34 40  1  0  0  0
 34 37  1  0  0  0
 40 41  1  0  0  0
 21 25  1  0  0  0
 22 26  1  0  0  0
 23 27  1  0  0  0
 24 28  1  0  0  0
 12 13  1  0  0  0
  7 10  1  0  0  0
  8 11  1  0  0  0
 35 38  1  0  0  0
 36 39  1  0  0  0
 41 42  1  0  0  0
M  END
> <minimizedAffinity>
-7.92954

$$$$
2QPU_QPU_A_3000


 42 44  0  0  0  0  0  0  0  0999 V2000
  164.6540   51.2025   12.7480 C   0  0  0  0  0  0  0  0  0  0  0  0
  165.4713   50.7361   13.9718 C   0  0  0  0  0  0  0  0  0  0  0  0
  165.0073   49.3447   14.4225 C   0  0  0  0  0  0  0  0  0  0  0  0
  163.5151   49.4301   14.7898 C   0  0  0  0  0  0  0  0  0  0  0  0
  162.7294   49.9030   13.5222 C   0  0  0  0  0  0  0  0  0  0  0  0
  161.2380   50.0437   13.8039 C   0  0  0  0  0  0  0  0  0  0  0  0
  166.8501   50.7290   13.6353 O   0  0  0  0  0  0  0  0  0  0  0  0
  165.7678   48.9286   15.5515 O   0  0  0  0  0  0  0  0  0  0  0  0
  163.2477   51.1973   13.0862 O   0  0  0  0  0  0  0  0  0  0  0  0
  166.9994   50.1187   12.8962 H   0  0  0  0  0  0  0  0  0  0  0  0
  165.6500   49.5658   16.2733 H   0  0  0  0  0  0  0  0  0  0  0  0
  163.0564   48.0989   15.2555 N   0  0  0  0  0  0  0  0  0  0  0  0
  162.2144   47.8334   14.7446 H   0  0  0  0  0  0  0  0  0  0  0  0
  162.7566   48.1488   16.7034 C   0  0  0  0  0  0  0  0  0  0  0  0
  161.9442   46.9108   17.1644 C   0  0  0  0  0  0  0  0  0  0  0  0
  160.5656   46.9418   16.4950 C   0  0  0  0  0  0  0  0  0  0  0  0
  159.6962   47.9286   17.2866 C   0  0  0  0  0  0  0  0  0  0  0  0
  160.4046   49.3010   17.2971 C   0  0  0  0  0  0  0  0  0  0  0  0
  159.6070   50.5608   17.6018 C   0  0  0  0  0  0  0  0  0  0  0  0
  161.9257   49.4134   17.0187 C   0  0  0  0  0  0  0  0  0  0  0  0
  162.6564   45.7268   16.8480 O   0  0  0  0  0  0  0  0  0  0  0  0
  159.9468   45.6576   16.5024 O   0  0  0  0  0  0  0  0  0  0  0  0
  158.4053   47.9939   16.6805 O   0  0  0  0  0  0  0  0  0  0  0  0
  162.5538   50.1292   18.0813 O   0  0  0  0  0  0  0  0  0  0  0  0
  162.7994   45.6818   15.8896 H   0  0  0  0  0  0  0  0  0  0  0  0
  159.8342   45.3582   17.4181 H   0  0  0  0  0  0  0  0  0  0  0  0
  158.4954   48.2793   15.7579 H   0  0  0  0  0  0  0  0  0  0  0  0
  162.5084   49.6045   18.8958 H   0  0  0  0  0  0  0  0  0  0  0  0
  164.8938   50.3432   11.6289 O   0  0  0  0  0  0  0  0  0  0  0  0
  166.0792   50.8387    7.5607 C   0  0  0  0  0  0  0  0  0  0  0  0
  166.8373   51.6214    8.6533 C   0  0  0  0  0  0  0  0  0  0  0  0
  166.6165   50.9511   10.0199 C   0  0  0  0  0  0  0  0  0  0  0  0
  165.1221   50.9565   10.3250 C   0  0  0  0  0  0  0  0  0  0  0  0
  164.3873   50.1553    9.2014 C   0  0  0  0  0  0  0  0  0  0  0  0
  168.2266   51.6561    8.3273 O   0  0  0  0  0  0  0  0  0  0  0  0
  167.3052   51.6715   11.0200 O   0  0  0  0  0  0  0  0  0  0  0  0
  164.6668   50.7556    7.8891 O   0  0  0  0  0  0  0  0  0  0  0  0
  168.5698   50.7502    8.2779 H   0  0  0  0  0  0  0  0  0  0  0  0
  166.9767   52.5838   11.0455 H   0  0  0  0  0  0  0  0  0  0  0  0
  162.8697   50.1101    9.3680 C   0  0  0  0  0  0  0  0  0  0  0  0
  162.4446   50.8867   10.4730 O   0  0  0  0  0  0  0  0  0  0  0  0
  162.8401   50.5356   11.2862 H   0  0  0  0  0  0  0  0  0  0  0  0
 14 15  1  0  0  0
 14 20  1  0  0  0
 14 12  1  0  0  0
 15 16  1  0  0  0
 15 21  1  0  0  0
 16 17  1  0  0  0
 16 22  1  0  0  0
 17 18  1  0  0  0
 17 23  1  0  0  0
 18 19  1  0  0  0
 18 20  1  0  0  0
 20 24  1  0  0  0
  1  2  1  0  0  0
  1  9  1  0  0  0
  1 29  1  0  0  0
  2  3  1  0  0  0
  2  7  1  0  0  0
  3  4  1  0  0  0
  3  8  1  0  0  0
  4  5  1  0  0  0
  4 12  1  0  0  0
  5  6  1  0  0  0
  5  9  1  0  0  0
 30 31  1  0  0  0
 30 37  1  0  0  0
 31 32  1  0  0  0
 31 35  1  0  0  0
 32 33  1  0  0  0
 32 36  1  0  0  0
 33 34  1  0  0  0
 33 29  1  0  0  0
 34 40  1  0  0  0
 34 37  1  0  0  0
 40 41  1  0  0  0
 21 25  1  0  0  0
 22 26  1  0  0  0
 23 27  1  0  0  0
 24 28  1  0  0  0
 12 13  1  0  0  0
  7 10  1  0  0  0
  8 11  1  0  0  0
 35 38  1  0  0  0
 36 39  1  0  0  0
 41 42  1  0  0  0
M  END
> <minimizedAffinity>
-7.76378

$$$$
2QPU_QPU_A_3000


 42 44  0  0  0  0  0  0  0  0999 V2000
  166.2637   51.1898   11.7816 C   0  0  0  0  0  0  0  0  0  0  0  0
  166.8493   50.4285   12.9902 C   0  0  0  0  0  0  0  0  0  0  0  0
  165.8821   49.3276   13.4451 C   0  0  0  0  0  0  0  0  0  0  0  0
  164.5493   49.9896   13.8378 C   0  0  0  0  0  0  0  0  0  0  0  0
  163.9946   50.7448   12.5849 C   0  0  0  0  0  0  0  0  0  0  0  0
  162.6830   51.4582   12.8922 C   0  0  0  0  0  0  0  0  0  0  0  0
  168.1092   49.8827   12.6303 O   0  0  0  0  0  0  0  0  0  0  0  0
  166.4340   48.6358   14.5599 O   0  0  0  0  0  0  0  0  0  0  0  0
  164.9738   51.7350   12.1436 O   0  0  0  0  0  0  0  0  0  0  0  0
  167.9956   49.2697   11.8872 H   0  0  0  0  0  0  0  0  0  0  0  0
  166.5867   49.2614   15.2853 H   0  0  0  0  0  0  0  0  0  0  0  0
  163.6107   48.9419   14.3077 N   0  0  0  0  0  0  0  0  0  0  0  0
  162.8423   48.8531   13.6428 H   0  0  0  0  0  0  0  0  0  0  0  0
  163.0710   49.3094   15.6352 C   0  0  0  0  0  0  0  0  0  0  0  0
  163.5189   48.3105   16.7337 C   0  0  0  0  0  0  0  0  0  0  0  0
  162.8984   46.9392   16.4433 C   0  0  0  0  0  0  0  0  0  0  0  0
  161.4458   46.9819   16.9376 C   0  0  0  0  0  0  0  0  0  0  0  0
  160.7234   48.1460   16.2247 C   0  0  0  0  0  0  0  0  0  0  0  0
  159.2030   48.1660   16.1608 C   0  0  0  0  0  0  0  0  0  0  0  0
  161.5261   49.3088   15.5864 C   0  0  0  0  0  0  0  0  0  0  0  0
  164.9345   48.2493   16.7757 O   0  0  0  0  0  0  0  0  0  0  0  0
  163.5945   45.8925   17.1157 O   0  0  0  0  0  0  0  0  0  0  0  0
  160.8308   45.7219   16.6694 O   0  0  0  0  0  0  0  0  0  0  0  0
  161.0446   50.5541   16.0898 O   0  0  0  0  0  0  0  0  0  0  0  0
  165.2712   47.9563   15.9145 H   0  0  0  0  0  0  0  0  0  0  0  0
  163.5616   46.0452   18.0730 H   0  0  0  0  0  0  0  0  0  0  0  0
  160.8642   45.5421   15.7168 H   0  0  0  0  0  0  0  0  0  0  0  0
  161.2536   50.6234   17.0345 H   0  0  0  0  0  0  0  0  0  0  0  0
  166.1298   50.3156   10.6564 O   0  0  0  0  0  0  0  0  0  0  0  0
  167.1552   53.0270    7.5263 C   0  0  0  0  0  0  0  0  0  0  0  0
  165.8100   52.2753    7.4435 C   0  0  0  0  0  0  0  0  0  0  0  0
  165.4117   51.7688    8.8401 C   0  0  0  0  0  0  0  0  0  0  0  0
  166.5000   50.8243    9.3401 C   0  0  0  0  0  0  0  0  0  0  0  0
  167.8452   51.6178    9.4128 C   0  0  0  0  0  0  0  0  0  0  0  0
  164.8128   53.1537    6.9225 O   0  0  0  0  0  0  0  0  0  0  0  0
  164.1842   51.0755    8.7624 O   0  0  0  0  0  0  0  0  0  0  0  0
  168.1795   52.1656    8.0904 O   0  0  0  0  0  0  0  0  0  0  0  0
  164.7212   53.9222    7.5073 H   0  0  0  0  0  0  0  0  0  0  0  0
  164.2747   50.3248    8.1549 H   0  0  0  0  0  0  0  0  0  0  0  0
  169.0341   50.7755    9.8710 C   0  0  0  0  0  0  0  0  0  0  0  0
  169.8610   50.4075    8.7820 O   0  0  0  0  0  0  0  0  0  0  0  0
  169.3491   49.8756    8.1527 H   0  0  0  0  0  0  0  0  0  0  0  0
 14 15  1  0  0  0
 14 20  1  0  0  0
 14 12  1  0  0  0
 15 16  1  0  0  0
 15 21  1  0  0  0
 16 17  1  0  0  0
 16 22  1  0  0  0
 17 18  1  0  0  0
 17 23  1  0  0  0
 18 19  1  0  0  0
 18 20  1  0  0  0
 20 24  1  0  0  0
  1  2  1  0  0  0
  1  9  1  0  0  0
  1 29  1  0  0  0
  2  3  1  0  0  0
  2  7  1  0  0  0
  3  4  1  0  0  0
  3  8  1  0  0  0
  4  5  1  0  0  0
  4 12  1  0  0  0
  5  6  1  0  0  0
  5  9  1  0  0  0
 30 31  1  0  0  0
 30 37  1  0  0  0
 31 32  1  0  0  0
 31 35  1  0  0  0
 32 33  1  0  0  0
 32 36  1  0  0  0
 33 34  1  0  0  0
 33 29  1  0  0  0
 34 40  1  0  0  0
 34 37  1  0  0  0
 40 41  1  0  0  0
 21 25  1  0  0  0
 22 26  1  0  0  0
 23 27  1  0  0  0
 24 28  1  0  0  0
 12 13  1  0  0  0
  7 10  1  0  0  0
  8 11  1  0  0  0
 35 38  1  0  0  0
 36 39  1  0  0  0
 41 42  1  0  0  0
M  END
> <minimizedAffinity>
-7.62066

$$$$
2QPU_QPU_A_3000


 42 44  0  0  0  0  0  0  0  0999 V2000
  162.7918   48.7281   16.4709 C   0  0  0  0  0  0  0  0  0  0  0  0
  161.9643   49.5383   15.4500 C   0  0  0  0  0  0  0  0  0  0  0  0
  162.5337   49.3534   14.0372 C   0  0  0  0  0  0  0  0  0  0  0  0
  163.9924   49.8443   14.0378 C   0  0  0  0  0  0  0  0  0  0  0  0
  164.7900   48.9954   15.0824 C   0  0  0  0  0  0  0  0  0  0  0  0
  166.2468   49.4350   15.1710 C   0  0  0  0  0  0  0  0  0  0  0  0
  160.6096   49.1194   15.5120 O   0  0  0  0  0  0  0  0  0  0  0  0
  161.7625   50.1065   13.1077 O   0  0  0  0  0  0  0  0  0  0  0  0
  164.1749   49.1453   16.3989 O   0  0  0  0  0  0  0  0  0  0  0  0
  160.5529   48.1753   15.2965 H   0  0  0  0  0  0  0  0  0  0  0  0
  161.7863   51.0447   13.3531 H   0  0  0  0  0  0  0  0  0  0  0  0
  164.5503   49.6994   12.6714 N   0  0  0  0  0  0  0  0  0  0  0  0
  165.2761   48.9827   12.6765 H   0  0  0  0  0  0  0  0  0  0  0  0
  165.1330   50.9847   12.2274 C   0  0  0  0  0  0  0  0  0  0  0  0
  164.2854   51.6430   11.1079 C   0  0  0  0  0  0  0  0  0  0  0  0
  164.3361   50.7569    9.8581 C   0  0  0  0  0  0  0  0  0  0  0  0
  165.6685   51.0415    9.1510 C   0  0  0  0  0  0  0  0  0  0  0  0
  166.8164   50.7650   10.1466 C   0  0  0  0  0  0  0  0  0  0  0  0
  168.2263   50.5244    9.6266 C   0  0  0  0  0  0  0  0  0  0  0  0
  166.5568   50.7466   11.6751 C   0  0  0  0  0  0  0  0  0  0  0  0
  162.9569   51.8341   11.5638 O   0  0  0  0  0  0  0  0  0  0  0  0
  163.2599   51.0398    8.9671 O   0  0  0  0  0  0  0  0  0  0  0  0
  165.7565   50.2203    7.9866 O   0  0  0  0  0  0  0  0  0  0  0  0
  167.4622   51.6385   12.3238 O   0  0  0  0  0  0  0  0  0  0  0  0
  162.5701   50.9769   11.8014 H   0  0  0  0  0  0  0  0  0  0  0  0
  163.3084   51.9668    8.6855 H   0  0  0  0  0  0  0  0  0  0  0  0
  165.6968   49.2870    8.2438 H   0  0  0  0  0  0  0  0  0  0  0  0
  167.2563   52.5511   12.0677 H   0  0  0  0  0  0  0  0  0  0  0  0
  162.6862   47.3266   16.2012 O   0  0  0  0  0  0  0  0  0  0  0  0
  162.3748   45.8946   20.2079 C   0  0  0  0  0  0  0  0  0  0  0  0
  163.6480   45.5650   19.4008 C   0  0  0  0  0  0  0  0  0  0  0  0
  163.7887   46.5501   18.2281 C   0  0  0  0  0  0  0  0  0  0  0  0
  162.5614   46.4141   17.3328 C   0  0  0  0  0  0  0  0  0  0  0  0
  161.2932   46.7559   18.1808 C   0  0  0  0  0  0  0  0  0  0  0  0
  164.7832   45.6420   20.2629 O   0  0  0  0  0  0  0  0  0  0  0  0
  164.9505   46.2440   17.4863 O   0  0  0  0  0  0  0  0  0  0  0  0
  161.2079   45.8609   19.3436 O   0  0  0  0  0  0  0  0  0  0  0  0
  164.8517   46.5380   20.6281 H   0  0  0  0  0  0  0  0  0  0  0  0
  164.8879   45.3373   17.1471 H   0  0  0  0  0  0  0  0  0  0  0  0
  159.9816   46.6261   17.4087 C   0  0  0  0  0  0  0  0  0  0  0  0
  160.2056   46.2418   16.0644 O   0  0  0  0  0  0  0  0  0  0  0  0
  160.7424   46.9167   15.6203 H   0  0  0  0  0  0  0  0  0  0  0  0
 14 15  1  0  0  0
 14 20  1  0  0  0
 14 12  1  0  0  0
 15 16  1  0  0  0
 15 21  1  0  0  0
 16 17  1  0  0  0
 16 22  1  0  0  0
 17 18  1  0  0  0
 17 23  1  0  0  0
 18 19  1  0  0  0
 18 20  1  0  0  0
 20 24  1  0  0  0
  1  2  1  0  0  0
  1  9  1  0  0  0
  1 29  1  0  0  0
  2  3  1  0  0  0
  2  7  1  0  0  0
  3  4  1  0  0  0
  3  8  1  0  0  0
  4  5  1  0  0  0
  4 12  1  0  0  0
  5  6  1  0  0  0
  5  9  1  0  0  0
 30 31  1  0  0  0
 30 37  1  0  0  0
 31 32  1  0  0  0
 31 35  1  0  0  0
 32 33  1  0  0  0
 32 36  1  0  0  0
 33 34  1  0  0  0
 33 29  1  0  0  0
 34 40  1  0  0  0
 34 37  1  0  0  0
 40 41  1  0  0  0
 21 25  1  0  0  0
 22 26  1  0  0  0
 23 27  1  0  0  0
 24 28  1  0  0  0
 12 13  1  0  0  0
  7 10  1  0  0  0
  8 11  1  0  0  0
 35 38  1  0  0  0
 36 39  1  0  0  0
 41 42  1  0  0  0
M  END
> <minimizedAffinity>
-7.49204

$$$$
2QPU_QPU_A_3000


 42 44  0  0  0  0  0  0  0  0999 V2000
  163.9557   50.3551   12.3152 C   0  0  0  0  0  0  0  0  0  0  0  0
  162.4439   50.6646   12.3576 C   0  0  0  0  0  0  0  0  0  0  0  0
  162.1995   52.0381   12.9965 C   0  0  0  0  0  0  0  0  0  0  0  0
  162.7701   52.0126   14.4258 C   0  0  0  0  0  0  0  0  0  0  0  0
  164.3000   51.6986   14.3323 C   0  0  0  0  0  0  0  0  0  0  0  0
  164.9452   51.6255   15.7113 C   0  0  0  0  0  0  0  0  0  0  0  0
  161.9219   50.6164   11.0385 O   0  0  0  0  0  0  0  0  0  0  0  0
  160.8026   52.3090   13.0303 O   0  0  0  0  0  0  0  0  0  0  0  0
  164.4908   50.4171   13.6576 O   0  0  0  0  0  0  0  0  0  0  0  0
  162.3711   51.2773   10.4887 H   0  0  0  0  0  0  0  0  0  0  0  0
  160.3521   51.6208   13.5445 H   0  0  0  0  0  0  0  0  0  0  0  0
  162.5170   53.3246   15.0692 N   0  0  0  0  0  0  0  0  0  0  0  0
  163.3905   53.8483   15.1248 H   0  0  0  0  0  0  0  0  0  0  0  0
  161.9795   53.1205   16.4323 C   0  0  0  0  0  0  0  0  0  0  0  0
  160.5109   53.6051   16.5489 C   0  0  0  0  0  0  0  0  0  0  0  0
  160.4706   55.1250   16.3538 C   0  0  0  0  0  0  0  0  0  0  0  0
  160.8903   55.7668   17.6834 C   0  0  0  0  0  0  0  0  0  0  0  0
  162.2896   55.2333   18.0609 C   0  0  0  0  0  0  0  0  0  0  0  0
  163.1466   55.9990   19.0586 C   0  0  0  0  0  0  0  0  0  0  0  0
  162.8296   53.9143   17.4503 C   0  0  0  0  0  0  0  0  0  0  0  0
  159.7079   52.9306   15.5952 O   0  0  0  0  0  0  0  0  0  0  0  0
  159.1648   55.5772   16.0035 O   0  0  0  0  0  0  0  0  0  0  0  0
  160.8780   57.1865   17.5337 O   0  0  0  0  0  0  0  0  0  0  0  0
  163.2404   53.0365   18.4975 O   0  0  0  0  0  0  0  0  0  0  0  0
  160.0405   53.1164   14.7031 H   0  0  0  0  0  0  0  0  0  0  0  0
  158.5417   55.3440   16.7095 H   0  0  0  0  0  0  0  0  0  0  0  0
  161.4858   57.4418   16.8222 H   0  0  0  0  0  0  0  0  0  0  0  0
  162.4638   52.7527   19.0048 H   0  0  0  0  0  0  0  0  0  0  0  0
  164.6347   51.2907   11.4715 O   0  0  0  0  0  0  0  0  0  0  0  0
  167.3148   51.1475    8.1552 C   0  0  0  0  0  0  0  0  0  0  0  0
  165.8263   50.8160    7.9190 C   0  0  0  0  0  0  0  0  0  0  0  0
  164.9776   51.3949    9.0636 C   0  0  0  0  0  0  0  0  0  0  0  0
  165.4431   50.7696   10.3745 C   0  0  0  0  0  0  0  0  0  0  0  0
  166.9512   51.1262   10.5818 C   0  0  0  0  0  0  0  0  0  0  0  0
  165.4179   51.3594    6.6638 O   0  0  0  0  0  0  0  0  0  0  0  0
  163.6166   51.0856    8.8501 O   0  0  0  0  0  0  0  0  0  0  0  0
  167.7455   50.6381    9.4454 O   0  0  0  0  0  0  0  0  0  0  0  0
  165.5400   52.3216    6.6730 H   0  0  0  0  0  0  0  0  0  0  0  0
  163.5056   50.1227    8.8144 H   0  0  0  0  0  0  0  0  0  0  0  0
  167.5571   50.5299   11.8508 C   0  0  0  0  0  0  0  0  0  0  0  0
  167.3154   51.3519   12.9782 O   0  0  0  0  0  0  0  0  0  0  0  0
  167.7230   52.2209   12.8381 H   0  0  0  0  0  0  0  0  0  0  0  0
 14 15  1  0  0  0
 14 20  1  0  0  0
 14 12  1  0  0  0
 15 16  1  0  0  0
 15 21  1  0  0  0
 16 17  1  0  0  0
 16 22  1  0  0  0
 17 18  1  0  0  0
 17 23  1  0  0  0
 18 19  1  0  0  0
 18 20  1  0  0  0
 20 24  1  0  0  0
  1  2  1  0  0  0
  1  9  1  0  0  0
  1 29  1  0  0  0
  2  3  1  0  0  0
  2  7  1  0  0  0
  3  4  1  0  0  0
  3  8  1  0  0  0
  4  5  1  0  0  0
  4 12  1  0  0  0
  5  6  1  0  0  0
  5  9  1  0  0  0
 30 31  1  0  0  0
 30 37  1  0  0  0
 31 32  1  0  0  0
 31 35  1  0  0  0
 32 33  1  0  0  0
 32 36  1  0  0  0
 33 34  1  0  0  0
 33 29  1  0  0  0
 34 40  1  0  0  0
 34 37  1  0  0  0
 40 41  1  0  0  0
 21 25  1  0  0  0
 22 26  1  0  0  0
 23 27  1  0  0  0
 24 28  1  0  0  0
 12 13  1  0  0  0
  7 10  1  0  0  0
  8 11  1  0  0  0
 35 38  1  0  0  0
 36 39  1  0  0  0
 41 42  1  0  0  0
M  END
> <minimizedAffinity>
-7.48308

$$$$
2QPU_QPU_A_3000


 42 44  0  0  0  0  0  0  0  0999 V2000
  165.1335   48.9540   13.1575 C   0  0  0  0  0  0  0  0  0  0  0  0
  166.6478   48.9377   12.8575 C   0  0  0  0  0  0  0  0  0  0  0  0
  167.0599   50.2245   12.1303 C   0  0  0  0  0  0  0  0  0  0  0  0
  166.2653   50.3100   10.8150 C   0  0  0  0  0  0  0  0  0  0  0  0
  164.7413   50.3260   11.1686 C   0  0  0  0  0  0  0  0  0  0  0  0
  163.8732   50.3809    9.9169 C   0  0  0  0  0  0  0  0  0  0  0  0
  167.3619   48.7897   14.0751 O   0  0  0  0  0  0  0  0  0  0  0  0
  168.4569   50.1948   11.8590 O   0  0  0  0  0  0  0  0  0  0  0  0
  164.4056   49.1180   11.9184 O   0  0  0  0  0  0  0  0  0  0  0  0
  167.1575   49.5342   14.6624 H   0  0  0  0  0  0  0  0  0  0  0  0
  168.6629   49.4237   11.3078 H   0  0  0  0  0  0  0  0  0  0  0  0
  166.6725   51.5348   10.0846 N   0  0  0  0  0  0  0  0  0  0  0  0
  165.9087   52.2105   10.1047 H   0  0  0  0  0  0  0  0  0  0  0  0
  166.9938   51.1990    8.6801 C   0  0  0  0  0  0  0  0  0  0  0  0
  168.4596   51.5598    8.3244 C   0  0  0  0  0  0  0  0  0  0  0  0
  168.6293   53.0816    8.3941 C   0  0  0  0  0  0  0  0  0  0  0  0
  168.0670   53.6635    7.0898 C   0  0  0  0  0  0  0  0  0  0  0  0
  166.5954   53.2156    6.9518 C   0  0  0  0  0  0  0  0  0  0  0  0
  165.6573   53.9767    6.0263 C   0  0  0  0  0  0  0  0  0  0  0  0
  166.0615   51.9862    7.7313 C   0  0  0  0  0  0  0  0  0  0  0  0
  169.3442   50.8906    9.2070 O   0  0  0  0  0  0  0  0  0  0  0  0
  169.9991   53.4540    8.5244 O   0  0  0  0  0  0  0  0  0  0  0  0
  168.1958   55.0848    7.1263 O   0  0  0  0  0  0  0  0  0  0  0  0
  165.4467   51.0746    6.8219 O   0  0  0  0  0  0  0  0  0  0  0  0
  169.1564   51.1608   10.1195 H   0  0  0  0  0  0  0  0  0  0  0  0
  170.4974   53.1266    7.7592 H   0  0  0  0  0  0  0  0  0  0  0  0
  167.7149   55.4334    7.8932 H   0  0  0  0  0  0  0  0  0  0  0  0
  166.1215   50.6983    6.2355 H   0  0  0  0  0  0  0  0  0  0  0  0
  164.8135   50.0174   14.0603 O   0  0  0  0  0  0  0  0  0  0  0  0
  162.2063   47.9382   16.7213 C   0  0  0  0  0  0  0  0  0  0  0  0
  161.5871   48.8008   15.6016 C   0  0  0  0  0  0  0  0  0  0  0  0
  162.6273   49.0382   14.4938 C   0  0  0  0  0  0  0  0  0  0  0  0
  163.8235   49.7637   15.1014 C   0  0  0  0  0  0  0  0  0  0  0  0
  164.4254   48.8624   16.2283 C   0  0  0  0  0  0  0  0  0  0  0  0
  160.4368   48.1364   15.0791 O   0  0  0  0  0  0  0  0  0  0  0  0
  162.0620   49.8329   13.4728 O   0  0  0  0  0  0  0  0  0  0  0  0
  163.4026   48.5748   17.2441 O   0  0  0  0  0  0  0  0  0  0  0  0
  160.6970   47.2738   14.7198 H   0  0  0  0  0  0  0  0  0  0  0  0
  161.7788   50.6830   13.8441 H   0  0  0  0  0  0  0  0  0  0  0  0
  165.6185   49.4885   16.9475 C   0  0  0  0  0  0  0  0  0  0  0  0
  166.7683   48.6667   16.8596 O   0  0  0  0  0  0  0  0  0  0  0  0
  166.5874   47.8115   17.2802 H   0  0  0  0  0  0  0  0  0  0  0  0
 14 15  1  0  0  0
 14 20  1  0  0  0
 14 12  1  0  0  0
 15 16  1  0  0  0
 15 21  1  0  0  0
 16 17  1  0  0  0
 16 22  1  0  0  0
 17 18  1  0  0  0
 17 23  1  0  0  0
 18 19  1  0  0  0
 18 20  1  0  0  0
 20 24  1  0  0  0
  1  2  1  0  0  0
  1  9  1  0  0  0
  1 29  1  0  0  0
  2  3  1  0  0  0
  2  7  1  0  0  0
  3  4  1  0  0  0
  3  8  1  0  0  0
  4  5  1  0  0  0
  4 12  1  0  0  0
  5  6  1  0  0  0
  5  9  1  0  0  0
 30 31  1  0  0  0
 30 37  1  0  0  0
 31 32  1  0  0  0
 31 35  1  0  0  0
 32 33  1  0  0  0
 32 36  1  0  0  0
 33 34  1  0  0  0
 33 29  1  0  0  0
 34 40  1  0  0  0
 34 37  1  0  0  0
 40 41  1  0  0  0
 21 25  1  0  0  0
 22 26  1  0  0  0
 23 27  1  0  0  0
 24 28  1  0  0  0
 12 13  1  0  0  0
  7 10  1  0  0  0
  8 11  1  0  0  0
 35 38  1  0  0  0
 36 39  1  0  0  0
 41 42  1  0  0  0
M  END
> <minimizedAffinity>
-7.39856

$$$$
2QPU_QPU_A_3000


 42 44  0  0  0  0  0  0  0  0999 V2000
  164.9887   51.2065   12.0339 C   0  0  0  0  0  0  0  0  0  0  0  0
  165.6106   50.8704   13.4063 C   0  0  0  0  0  0  0  0  0  0  0  0
  165.0052   49.5745   13.9618 C   0  0  0  0  0  0  0  0  0  0  0  0
  163.4866   49.7771   14.1095 C   0  0  0  0  0  0  0  0  0  0  0  0
  162.9019   50.1123   12.6975 C   0  0  0  0  0  0  0  0  0  0  0  0
  161.3987   50.3581   12.7542 C   0  0  0  0  0  0  0  0  0  0  0  0
  167.0180   50.7546   13.2635 O   0  0  0  0  0  0  0  0  0  0  0  0
  165.5863   49.2782   15.2269 O   0  0  0  0  0  0  0  0  0  0  0  0
  163.5531   51.3115   12.1761 O   0  0  0  0  0  0  0  0  0  0  0  0
  167.2219   50.0449   12.6345 H   0  0  0  0  0  0  0  0  0  0  0  0
  165.4174   50.0108   15.8399 H   0  0  0  0  0  0  0  0  0  0  0  0
  162.8882   48.5426   14.6729 N   0  0  0  0  0  0  0  0  0  0  0  0
  161.9791   48.3792   14.2400 H   0  0  0  0  0  0  0  0  0  0  0  0
  162.7162   48.6894   16.1349 C   0  0  0  0  0  0  0  0  0  0  0  0
  162.0961   47.4179   16.7705 C   0  0  0  0  0  0  0  0  0  0  0  0
  160.6684   47.2416   16.2411 C   0  0  0  0  0  0  0  0  0  0  0  0
  159.7663   48.1967   17.0349 C   0  0  0  0  0  0  0  0  0  0  0  0
  160.3105   49.6323   16.8668 C   0  0  0  0  0  0  0  0  0  0  0  0
  159.4042   50.8219   17.1490 C   0  0  0  0  0  0  0  0  0  0  0  0
  161.7774   49.8811   16.4306 C   0  0  0  0  0  0  0  0  0  0  0  0
  162.9081   46.2932   16.4792 O   0  0  0  0  0  0  0  0  0  0  0  0
  160.2044   45.9045   16.4111 O   0  0  0  0  0  0  0  0  0  0  0  0
  158.4272   48.0693   16.5569 O   0  0  0  0  0  0  0  0  0  0  0  0
  162.4122   50.7520   17.3658 O   0  0  0  0  0  0  0  0  0  0  0  0
  162.9685   46.1783   15.5179 H   0  0  0  0  0  0  0  0  0  0  0  0
  160.2097   45.6778   17.3542 H   0  0  0  0  0  0  0  0  0  0  0  0
  158.4004   48.2791   15.6102 H   0  0  0  0  0  0  0  0  0  0  0  0
  162.5009   50.3004   18.2196 H   0  0  0  0  0  0  0  0  0  0  0  0
  165.3152   50.1953   11.0752 O   0  0  0  0  0  0  0  0  0  0  0  0
  167.0947   52.6541    8.0771 C   0  0  0  0  0  0  0  0  0  0  0  0
  165.6949   52.0608    7.8131 C   0  0  0  0  0  0  0  0  0  0  0  0
  165.0433   51.6549    9.1459 C   0  0  0  0  0  0  0  0  0  0  0  0
  165.9279   50.6095    9.8176 C   0  0  0  0  0  0  0  0  0  0  0  0
  167.3342   51.2439   10.0709 C   0  0  0  0  0  0  0  0  0  0  0  0
  164.8948   53.0293    7.1352 O   0  0  0  0  0  0  0  0  0  0  0  0
  163.7653   51.1062    8.9030 O   0  0  0  0  0  0  0  0  0  0  0  0
  167.9172   51.7009    8.8013 O   0  0  0  0  0  0  0  0  0  0  0  0
  164.8135   53.8239    7.6856 H   0  0  0  0  0  0  0  0  0  0  0  0
  163.8509   50.3284    8.3298 H   0  0  0  0  0  0  0  0  0  0  0  0
  168.3359   50.2867   10.7140 C   0  0  0  0  0  0  0  0  0  0  0  0
  169.3145   50.9844   11.4627 O   0  0  0  0  0  0  0  0  0  0  0  0
  169.8095   51.5767   10.8754 H   0  0  0  0  0  0  0  0  0  0  0  0
 14 15  1  0  0  0
 14 20  1  0  0  0
 14 12  1  0  0  0
 15 16  1  0  0  0
 15 21  1  0  0  0
 16 17  1  0  0  0
 16 22  1  0  0  0
 17 18  1  0  0  0
 17 23  1  0  0  0
 18 19  1  0  0  0
 18 20  1  0  0  0
 20 24  1  0  0  0
  1  2  1  0  0  0
  1  9  1  0  0  0
  1 29  1  0  0  0
  2  3  1  0  0  0
  2  7  1  0  0  0
  3  4  1  0  0  0
  3  8  1  0  0  0
  4  5  1  0  0  0
  4 12  1  0  0  0
  5  6  1  0  0  0
  5  9  1  0  0  0
 30 31  1  0  0  0
 30 37  1  0  0  0
 31 32  1  0  0  0
 31 35  1  0  0  0
 32 33  1  0  0  0
 32 36  1  0  0  0
 33 34  1  0  0  0
 33 29  1  0  0  0
 34 40  1  0  0  0
 34 37  1  0  0  0
 40 41  1  0  0  0
 21 25  1  0  0  0
 22 26  1  0  0  0
 23 27  1  0  0  0
 24 28  1  0  0  0
 12 13  1  0  0  0
  7 10  1  0  0  0
  8 11  1  0  0  0
 35 38  1  0  0  0
 36 39  1  0  0  0
 41 42  1  0  0  0
M  END
> <minimizedAffinity>
-7.13802

$$$$
2QPU_QPU_A_3000


 42 44  0  0  0  0  0  0  0  0999 V2000
  166.3734   50.2863   10.1738 C   0  0  0  0  0  0  0  0  0  0  0  0
  167.8739   50.4332   10.5057 C   0  0  0  0  0  0  0  0  0  0  0  0
  168.3603   51.8459   10.1562 C   0  0  0  0  0  0  0  0  0  0  0  0
  168.1308   52.0759    8.6518 C   0  0  0  0  0  0  0  0  0  0  0  0
  166.6007   51.9196    8.3646 C   0  0  0  0  0  0  0  0  0  0  0  0
  166.2836   52.1038    6.8851 C   0  0  0  0  0  0  0  0  0  0  0  0
  168.0758   50.1509   11.8819 O   0  0  0  0  0  0  0  0  0  0  0  0
  169.7444   51.9661   10.4657 O   0  0  0  0  0  0  0  0  0  0  0  0
  166.1650   50.5868    8.7743 O   0  0  0  0  0  0  0  0  0  0  0  0
  167.5641   50.7761   12.4187 H   0  0  0  0  0  0  0  0  0  0  0  0
  170.2472   51.3092    9.9593 H   0  0  0  0  0  0  0  0  0  0  0  0
  168.6221   53.4277    8.2903 N   0  0  0  0  0  0  0  0  0  0  0  0
  167.8304   54.0663    8.2139 H   0  0  0  0  0  0  0  0  0  0  0  0
  169.3357   53.3735    6.9955 C   0  0  0  0  0  0  0  0  0  0  0  0
  170.8665   53.2183    7.1897 C   0  0  0  0  0  0  0  0  0  0  0  0
  171.4135   54.4802    7.8666 C   0  0  0  0  0  0  0  0  0  0  0  0
  171.5620   55.5532    6.7791 C   0  0  0  0  0  0  0  0  0  0  0  0
  170.1854   55.7626    6.1110 C   0  0  0  0  0  0  0  0  0  0  0  0
  169.9100   57.0406    5.3319 C   0  0  0  0  0  0  0  0  0  0  0  0
  169.0813   54.6783    6.2070 C   0  0  0  0  0  0  0  0  0  0  0  0
  171.1361   52.0536    7.9514 O   0  0  0  0  0  0  0  0  0  0  0  0
  172.6819   54.2454    8.4734 O   0  0  0  0  0  0  0  0  0  0  0  0
  172.0572   56.7506    7.3782 O   0  0  0  0  0  0  0  0  0  0  0  0
  168.6216   54.3478    4.8972 O   0  0  0  0  0  0  0  0  0  0  0  0
  170.7054   52.1268    8.8175 H   0  0  0  0  0  0  0  0  0  0  0  0
  173.3168   53.9631    7.7966 H   0  0  0  0  0  0  0  0  0  0  0  0
  171.4429   57.0446    8.0689 H   0  0  0  0  0  0  0  0  0  0  0  0
  169.3330   53.9072    4.4066 H   0  0  0  0  0  0  0  0  0  0  0  0
  165.5922   51.1672   10.9875 O   0  0  0  0  0  0  0  0  0  0  0  0
  162.2596   50.7964   13.6252 C   0  0  0  0  0  0  0  0  0  0  0  0
  163.6807   50.6102   14.1971 C   0  0  0  0  0  0  0  0  0  0  0  0
  164.7088   51.2579   13.2541 C   0  0  0  0  0  0  0  0  0  0  0  0
  164.6087   50.5804   11.8913 C   0  0  0  0  0  0  0  0  0  0  0  0
  163.1598   50.7900   11.3425 C   0  0  0  0  0  0  0  0  0  0  0  0
  163.7454   51.2002   15.4953 O   0  0  0  0  0  0  0  0  0  0  0  0
  166.0093   51.0815   13.7748 O   0  0  0  0  0  0  0  0  0  0  0  0
  162.1781   50.2379   12.2870 O   0  0  0  0  0  0  0  0  0  0  0  0
  163.5414   52.1464   15.4309 H   0  0  0  0  0  0  0  0  0  0  0  0
  166.1965   50.1338   13.8625 H   0  0  0  0  0  0  0  0  0  0  0  0
  162.9114   50.1285    9.9884 C   0  0  0  0  0  0  0  0  0  0  0  0
  163.2624   50.9868    8.9183 O   0  0  0  0  0  0  0  0  0  0  0  0
  162.7200   51.7900    8.9568 H   0  0  0  0  0  0  0  0  0  0  0  0
 14 15  1  0  0  0
 14 20  1  0  0  0
 14 12  1  0  0  0
 15 16  1  0  0  0
 15 21  1  0  0  0
 16 17  1  0  0  0
 16 22  1  0  0  0
 17 18  1  0  0  0
 17 23  1  0  0  0
 18 19  1  0  0  0
 18 20  1  0  0  0
 20 24  1  0  0  0
  1  2  1  0  0  0
  1  9  1  0  0  0
  1 29  1  0  0  0
  2  3  1  0  0  0
  2  7  1  0  0  0
  3  4  1  0  0  0
  3  8  1  0  0  0
  4  5  1  0  0  0
  4 12  1  0  0  0
  5  6  1  0  0  0
  5  9  1  0  0  0
 30 31  1  0  0  0
 30 37  1  0  0  0
 31 32  1  0  0  0
 31 35  1  0  0  0
 32 33  1  0  0  0
 32 36  1  0  0  0
 33 34  1  0  0  0
 33 29  1  0  0  0
 34 40  1  0  0  0
 34 37  1  0  0  0
 40 41  1  0  0  0
 21 25  1  0  0  0
 22 26  1  0  0  0
 23 27  1  0  0  0
 24 28  1  0  0  0
 12 13  1  0  0  0
  7 10  1  0  0  0
  8 11  1  0  0  0
 35 38  1  0  0  0
 36 39  1  0  0  0
 41 42  1  0  0  0
M  END
> <minimizedAffinity>
-6.98183

$$$$
