6B98_D07_A_1003


 14 15  0  0  0  0  0  0  0  0999 V2000
   33.9063   -7.1217   13.5758 C   0  0  0  0  0  0  0  0  0  0  0  0
   33.7429   -7.8179   10.0949 C   0  0  0  0  0  0  0  0  0  0  0  0
   31.6415   -6.3773    9.3625 C   0  0  0  0  0  0  0  0  0  0  0  0
   29.6177   -4.2826   11.9674 Cl  0  0  0  0  0  0  0  0  0  0  0  0
   30.7941   -5.3145   11.2140 C   0  0  0  0  0  0  0  0  0  0  0  0
   31.6899   -5.7973   12.0912 N   0  0  0  0  0  0  0  0  0  0  0  0
   32.5943   -6.6066   11.5053 C   0  0  0  0  0  0  0  0  0  0  0  0
   30.6996   -5.5358    9.8768 N   0  0  0  0  0  0  0  0  0  0  0  0
   32.6413   -6.9725   10.1578 C   0  0  0  0  0  0  0  0  0  0  0  0
   34.3082   -7.9618   11.3092 N   0  0  0  0  0  0  0  0  0  0  0  0
   33.6033   -7.2209   12.1574 N   0  0  0  0  0  0  0  0  0  0  0  0
   31.5011   -6.6039    8.0458 N   0  0  0  0  0  0  0  0  0  0  0  0
   31.5305   -5.5889    6.9848 C   0  0  0  0  0  0  0  0  0  0  0  0
   31.3659   -7.5381    7.7659 H   0  0  0  0  0  0  0  0  0  0  0  0
  1 11  1  0  0  0
 11 10  1  0  0  0
 11  7  1  0  0  0
 10  2  2  0  0  0
  7  6  2  0  0  0
  7  9  1  0  0  0
  6  5  1  0  0  0
  2  9  1  0  0  0
  9  3  2  0  0  0
  5  4  1  0  0  0
  5  8  2  0  0  0
  3  8  1  0  0  0
  3 12  1  0  0  0
 12 13  1  0  0  0
 12 14  1  0  0  0
M  END
> <minimizedAffinity>
-6.22200

$$$$
6B98_D07_A_1003


 14 15  0  0  0  0  0  0  0  0999 V2000
   32.2732   -6.9115    9.8065 C   0  0  0  0  0  0  0  0  0  0  0  0
   34.5858   -7.8590   12.3328 C   0  0  0  0  0  0  0  0  0  0  0  0
   33.7009   -6.4716   14.4112 C   0  0  0  0  0  0  0  0  0  0  0  0
   30.6110   -4.1008   14.0933 Cl  0  0  0  0  0  0  0  0  0  0  0  0
   31.8727   -5.2456   13.7554 C   0  0  0  0  0  0  0  0  0  0  0  0
   31.8587   -5.6625   12.4783 N   0  0  0  0  0  0  0  0  0  0  0  0
   32.8459   -6.5418   12.2166 C   0  0  0  0  0  0  0  0  0  0  0  0
   32.7210   -5.5894   14.7595 N   0  0  0  0  0  0  0  0  0  0  0  0
   33.8245   -6.9910   13.1069 C   0  0  0  0  0  0  0  0  0  0  0  0
   34.1132   -7.9194   11.0727 N   0  0  0  0  0  0  0  0  0  0  0  0
   33.0561   -7.1167   11.0142 N   0  0  0  0  0  0  0  0  0  0  0  0
   34.5442   -6.7651   15.4150 N   0  0  0  0  0  0  0  0  0  0  0  0
   35.6458   -5.9207   15.8948 C   0  0  0  0  0  0  0  0  0  0  0  0
   34.4111   -7.6270   15.8717 H   0  0  0  0  0  0  0  0  0  0  0  0
  1 11  1  0  0  0
 11 10  1  0  0  0
 11  7  1  0  0  0
 10  2  2  0  0  0
  7  6  2  0  0  0
  7  9  1  0  0  0
  6  5  1  0  0  0
  2  9  1  0  0  0
  9  3  2  0  0  0
  5  4  1  0  0  0
  5  8  2  0  0  0
  3  8  1  0  0  0
  3 12  1  0  0  0
 12 13  1  0  0  0
 12 14  1  0  0  0
M  END
> <minimizedAffinity>
-6.18135

$$$$
6B98_D07_A_1003


 14 15  0  0  0  0  0  0  0  0999 V2000
   31.5156   -4.7685   15.4403 C   0  0  0  0  0  0  0  0  0  0  0  0
   34.3292   -6.8151   14.7168 C   0  0  0  0  0  0  0  0  0  0  0  0
   34.0123   -7.2568   12.1221 C   0  0  0  0  0  0  0  0  0  0  0  0
   30.9559   -5.7900   10.1788 Cl  0  0  0  0  0  0  0  0  0  0  0  0
   32.1025   -6.1911   11.4202 C   0  0  0  0  0  0  0  0  0  0  0  0
   31.7691   -5.6723   12.6137 N   0  0  0  0  0  0  0  0  0  0  0  0
   32.6546   -5.9949   13.5770 C   0  0  0  0  0  0  0  0  0  0  0  0
   33.1715   -6.9619   11.0896 N   0  0  0  0  0  0  0  0  0  0  0  0
   33.7912   -6.7950   13.4352 C   0  0  0  0  0  0  0  0  0  0  0  0
   33.5714   -6.0959   15.5674 N   0  0  0  0  0  0  0  0  0  0  0  0
   32.5584   -5.6016   14.8640 N   0  0  0  0  0  0  0  0  0  0  0  0
   35.0397   -8.0483   11.7719 N   0  0  0  0  0  0  0  0  0  0  0  0
   35.2668   -9.4252   12.2299 C   0  0  0  0  0  0  0  0  0  0  0  0
   35.7025   -7.6700   11.1500 H   0  0  0  0  0  0  0  0  0  0  0  0
  1 11  1  0  0  0
 11 10  1  0  0  0
 11  7  1  0  0  0
 10  2  2  0  0  0
  7  6  2  0  0  0
  7  9  1  0  0  0
  6  5  1  0  0  0
  2  9  1  0  0  0
  9  3  2  0  0  0
  5  4  1  0  0  0
  5  8  2  0  0  0
  3  8  1  0  0  0
  3 12  1  0  0  0
 12 13  1  0  0  0
 12 14  1  0  0  0
M  END
> <minimizedAffinity>
-5.89855

$$$$
6B98_D07_A_1003


 14 15  0  0  0  0  0  0  0  0999 V2000
   30.7917   -4.6684   13.6884 C   0  0  0  0  0  0  0  0  0  0  0  0
   29.8931   -4.8168   10.2535 C   0  0  0  0  0  0  0  0  0  0  0  0
   31.7246   -6.4771    9.2960 C   0  0  0  0  0  0  0  0  0  0  0  0
   34.4926   -7.9855   11.6051 Cl  0  0  0  0  0  0  0  0  0  0  0  0
   33.1150   -7.1103   11.0110 C   0  0  0  0  0  0  0  0  0  0  0  0
   32.5060   -6.3974   11.9731 N   0  0  0  0  0  0  0  0  0  0  0  0
   31.4446   -5.7106   11.5065 C   0  0  0  0  0  0  0  0  0  0  0  0
   32.8016   -7.2135    9.6930 N   0  0  0  0  0  0  0  0  0  0  0  0
   30.9886   -5.6698   10.1865 C   0  0  0  0  0  0  0  0  0  0  0  0
   29.7098   -4.3678   11.5104 N   0  0  0  0  0  0  0  0  0  0  0  0
   30.6568   -4.9181   12.2626 N   0  0  0  0  0  0  0  0  0  0  0  0
   31.4608   -6.5721    7.9821 N   0  0  0  0  0  0  0  0  0  0  0  0
   31.5092   -5.4742    7.0080 C   0  0  0  0  0  0  0  0  0  0  0  0
   31.2117   -7.4612    7.6403 H   0  0  0  0  0  0  0  0  0  0  0  0
  1 11  1  0  0  0
 11 10  1  0  0  0
 11  7  1  0  0  0
 10  2  2  0  0  0
  7  6  2  0  0  0
  7  9  1  0  0  0
  6  5  1  0  0  0
  2  9  1  0  0  0
  9  3  2  0  0  0
  5  4  1  0  0  0
  5  8  2  0  0  0
  3  8  1  0  0  0
  3 12  1  0  0  0
 12 13  1  0  0  0
 12 14  1  0  0  0
M  END
> <minimizedAffinity>
-5.86791

$$$$
6B98_D07_A_1003


 14 15  0  0  0  0  0  0  0  0999 V2000
   30.3911   -4.4036   13.0704 C   0  0  0  0  0  0  0  0  0  0  0  0
   33.3169   -6.3650   13.5398 C   0  0  0  0  0  0  0  0  0  0  0  0
   33.6386   -7.4248   11.1312 C   0  0  0  0  0  0  0  0  0  0  0  0
   31.1253   -6.6689    8.2363 Cl  0  0  0  0  0  0  0  0  0  0  0  0
   31.9433   -6.6875    9.7683 C   0  0  0  0  0  0  0  0  0  0  0  0
   31.3270   -5.9268   10.6883 N   0  0  0  0  0  0  0  0  0  0  0  0
   31.9577   -5.9525   11.8789 C   0  0  0  0  0  0  0  0  0  0  0  0
   33.0682   -7.4392    9.8926 N   0  0  0  0  0  0  0  0  0  0  0  0
   33.1031   -6.6836   12.2037 C   0  0  0  0  0  0  0  0  0  0  0  0
   32.3693   -5.5197   13.9898 N   0  0  0  0  0  0  0  0  0  0  0  0
   31.5504   -5.2753   12.9725 N   0  0  0  0  0  0  0  0  0  0  0  0
   34.7281   -8.2042   11.2324 N   0  0  0  0  0  0  0  0  0  0  0  0
   34.9476   -9.2598   12.2297 C   0  0  0  0  0  0  0  0  0  0  0  0
   35.4468   -8.0536   10.5766 H   0  0  0  0  0  0  0  0  0  0  0  0
  1 11  1  0  0  0
 11 10  1  0  0  0
 11  7  1  0  0  0
 10  2  2  0  0  0
  7  6  2  0  0  0
  7  9  1  0  0  0
  6  5  1  0  0  0
  2  9  1  0  0  0
  9  3  2  0  0  0
  5  4  1  0  0  0
  5  8  2  0  0  0
  3  8  1  0  0  0
  3 12  1  0  0  0
 12 13  1  0  0  0
 12 14  1  0  0  0
M  END
> <minimizedAffinity>
-5.81207

$$$$
6B98_D07_A_1003


 14 15  0  0  0  0  0  0  0  0999 V2000
   35.0109   -8.2575   12.1625 C   0  0  0  0  0  0  0  0  0  0  0  0
   33.7727   -6.2544   14.8238 C   0  0  0  0  0  0  0  0  0  0  0  0
   31.6920   -5.0764   13.6791 C   0  0  0  0  0  0  0  0  0  0  0  0
   30.7898   -5.7530    9.9378 Cl  0  0  0  0  0  0  0  0  0  0  0  0
   31.5483   -5.7875   11.4999 C   0  0  0  0  0  0  0  0  0  0  0  0
   32.6146   -6.6040   11.5345 N   0  0  0  0  0  0  0  0  0  0  0  0
   33.2076   -6.6196   12.7446 C   0  0  0  0  0  0  0  0  0  0  0  0
   31.0267   -5.0172   12.4901 N   0  0  0  0  0  0  0  0  0  0  0  0
   32.8350   -5.8787   13.8690 C   0  0  0  0  0  0  0  0  0  0  0  0
   34.6494   -7.1410   14.3136 N   0  0  0  0  0  0  0  0  0  0  0  0
   34.2957   -7.3562   13.0511 N   0  0  0  0  0  0  0  0  0  0  0  0
   31.1739   -4.2782   14.6274 N   0  0  0  0  0  0  0  0  0  0  0  0
   30.4585   -4.7174   15.8325 C   0  0  0  0  0  0  0  0  0  0  0  0
   31.2842   -3.3078   14.5029 H   0  0  0  0  0  0  0  0  0  0  0  0
  1 11  1  0  0  0
 11 10  1  0  0  0
 11  7  1  0  0  0
 10  2  2  0  0  0
  7  6  2  0  0  0
  7  9  1  0  0  0
  6  5  1  0  0  0
  2  9  1  0  0  0
  9  3  2  0  0  0
  5  4  1  0  0  0
  5  8  2  0  0  0
  3  8  1  0  0  0
  3 12  1  0  0  0
 12 13  1  0  0  0
 12 14  1  0  0  0
M  END
> <minimizedAffinity>
-5.67453

$$$$
6B98_D07_A_1003


 14 15  0  0  0  0  0  0  0  0999 V2000
   30.4154   -5.4274    9.2534 C   0  0  0  0  0  0  0  0  0  0  0  0
   33.2248   -7.4897    9.9478 C   0  0  0  0  0  0  0  0  0  0  0  0
   33.5965   -7.0295   12.5320 C   0  0  0  0  0  0  0  0  0  0  0  0
   31.3140   -4.5355   14.4914 Cl  0  0  0  0  0  0  0  0  0  0  0  0
   32.0190   -5.5209   13.2471 C   0  0  0  0  0  0  0  0  0  0  0  0
   31.4031   -5.3703   12.0627 N   0  0  0  0  0  0  0  0  0  0  0  0
   31.9598   -6.1275   11.0968 C   0  0  0  0  0  0  0  0  0  0  0  0
   33.0809   -6.3060   13.5667 N   0  0  0  0  0  0  0  0  0  0  0  0
   33.0666   -6.9700   11.2274 C   0  0  0  0  0  0  0  0  0  0  0  0
   32.2964   -6.9911    9.1085 N   0  0  0  0  0  0  0  0  0  0  0  0
   31.5332   -6.1663    9.8174 N   0  0  0  0  0  0  0  0  0  0  0  0
   34.6660   -7.7684   12.8707 N   0  0  0  0  0  0  0  0  0  0  0  0
   34.9151   -9.1615   12.4779 C   0  0  0  0  0  0  0  0  0  0  0  0
   35.3467   -7.3356   13.4351 H   0  0  0  0  0  0  0  0  0  0  0  0
  1 11  1  0  0  0
 11 10  1  0  0  0
 11  7  1  0  0  0
 10  2  2  0  0  0
  7  6  2  0  0  0
  7  9  1  0  0  0
  6  5  1  0  0  0
  2  9  1  0  0  0
  9  3  2  0  0  0
  5  4  1  0  0  0
  5  8  2  0  0  0
  3  8  1  0  0  0
  3 12  1  0  0  0
 12 13  1  0  0  0
 12 14  1  0  0  0
M  END
> <minimizedAffinity>
-5.67288

$$$$
6B98_D07_A_1003


 14 15  0  0  0  0  0  0  0  0999 V2000
   34.6971   -8.0327   11.9683 C   0  0  0  0  0  0  0  0  0  0  0  0
   32.3350   -7.0344    9.5083 C   0  0  0  0  0  0  0  0  0  0  0  0
   30.7987   -5.3731   10.8895 C   0  0  0  0  0  0  0  0  0  0  0  0
   31.4636   -4.6791   14.6771 Cl  0  0  0  0  0  0  0  0  0  0  0  0
   31.5774   -5.2702   13.0479 C   0  0  0  0  0  0  0  0  0  0  0  0
   32.6017   -6.1236   12.8821 N   0  0  0  0  0  0  0  0  0  0  0  0
   32.6802   -6.5892   11.6199 C   0  0  0  0  0  0  0  0  0  0  0  0
   30.6610   -4.8450   12.1394 N   0  0  0  0  0  0  0  0  0  0  0  0
   31.8174   -6.2904   10.5623 C   0  0  0  0  0  0  0  0  0  0  0  0
   33.4157   -7.7364    9.9008 N   0  0  0  0  0  0  0  0  0  0  0  0
   33.6166   -7.4572   11.1841 N   0  0  0  0  0  0  0  0  0  0  0  0
   29.8581   -4.9612   10.0233 N   0  0  0  0  0  0  0  0  0  0  0  0
   30.0776   -4.1076    8.8485 C   0  0  0  0  0  0  0  0  0  0  0  0
   28.9352   -5.2597   10.1917 H   0  0  0  0  0  0  0  0  0  0  0  0
  1 11  1  0  0  0
 11 10  1  0  0  0
 11  7  1  0  0  0
 10  2  2  0  0  0
  7  6  2  0  0  0
  7  9  1  0  0  0
  6  5  1  0  0  0
  2  9  1  0  0  0
  9  3  2  0  0  0
  5  4  1  0  0  0
  5  8  2  0  0  0
  3  8  1  0  0  0
  3 12  1  0  0  0
 12 13  1  0  0  0
 12 14  1  0  0  0
M  END
> <minimizedAffinity>
-5.63558

$$$$
6B98_D07_A_1003


 14 15  0  0  0  0  0  0  0  0999 V2000
   33.7904   -8.0181   10.0621 C   0  0  0  0  0  0  0  0  0  0  0  0
   31.0405   -5.8299   10.5893 C   0  0  0  0  0  0  0  0  0  0  0  0
   31.4244   -5.0904   13.1060 C   0  0  0  0  0  0  0  0  0  0  0  0
   34.4247   -6.4807   15.1879 Cl  0  0  0  0  0  0  0  0  0  0  0  0
   33.3030   -6.1424   13.9057 C   0  0  0  0  0  0  0  0  0  0  0  0
   33.5965   -6.8104   12.7777 N   0  0  0  0  0  0  0  0  0  0  0  0
   32.7177   -6.5546   11.7885 C   0  0  0  0  0  0  0  0  0  0  0  0
   32.2781   -5.2849   14.1515 N   0  0  0  0  0  0  0  0  0  0  0  0
   31.5928   -5.7291   11.8609 C   0  0  0  0  0  0  0  0  0  0  0  0
   31.7659   -6.6599    9.8148 N   0  0  0  0  0  0  0  0  0  0  0  0
   32.7822   -7.0928   10.5530 N   0  0  0  0  0  0  0  0  0  0  0  0
   30.4027   -4.2657   13.3901 N   0  0  0  0  0  0  0  0  0  0  0  0
   30.2626   -3.4463   14.6009 C   0  0  0  0  0  0  0  0  0  0  0  0
   29.6800   -4.2048   12.7242 H   0  0  0  0  0  0  0  0  0  0  0  0
  1 11  1  0  0  0
 11 10  1  0  0  0
 11  7  1  0  0  0
 10  2  2  0  0  0
  7  6  2  0  0  0
  7  9  1  0  0  0
  6  5  1  0  0  0
  2  9  1  0  0  0
  9  3  2  0  0  0
  5  4  1  0  0  0
  5  8  2  0  0  0
  3  8  1  0  0  0
  3 12  1  0  0  0
 12 13  1  0  0  0
 12 14  1  0  0  0
M  END
> <minimizedAffinity>
-5.63489

$$$$
6B98_D07_A_1003


 14 15  0  0  0  0  0  0  0  0999 V2000
   29.9423   -4.4319   12.2259 C   0  0  0  0  0  0  0  0  0  0  0  0
   31.9170   -4.9587   15.1329 C   0  0  0  0  0  0  0  0  0  0  0  0
   33.7907   -6.5934   14.2139 C   0  0  0  0  0  0  0  0  0  0  0  0
   33.7755   -7.8026   10.4982 Cl  0  0  0  0  0  0  0  0  0  0  0  0
   33.3822   -7.0091   11.9923 C   0  0  0  0  0  0  0  0  0  0  0  0
   32.2803   -6.2469   11.8939 N   0  0  0  0  0  0  0  0  0  0  0  0
   31.9714   -5.6419   13.0578 C   0  0  0  0  0  0  0  0  0  0  0  0
   34.1784   -7.2287   13.0711 N   0  0  0  0  0  0  0  0  0  0  0  0
   32.6499   -5.7679   14.2726 C   0  0  0  0  0  0  0  0  0  0  0  0
   30.8719   -4.3992   14.4929 N   0  0  0  0  0  0  0  0  0  0  0  0
   30.9159   -4.8200   13.2334 N   0  0  0  0  0  0  0  0  0  0  0  0
   34.5767   -6.8574   15.2710 N   0  0  0  0  0  0  0  0  0  0  0  0
   35.5966   -5.9642   15.8357 C   0  0  0  0  0  0  0  0  0  0  0  0
   34.4578   -7.7315   15.7081 H   0  0  0  0  0  0  0  0  0  0  0  0
  1 11  1  0  0  0
 11 10  1  0  0  0
 11  7  1  0  0  0
 10  2  2  0  0  0
  7  6  2  0  0  0
  7  9  1  0  0  0
  6  5  1  0  0  0
  2  9  1  0  0  0
  9  3  2  0  0  0
  5  4  1  0  0  0
  5  8  2  0  0  0
  3  8  1  0  0  0
  3 12  1  0  0  0
 12 13  1  0  0  0
 12 14  1  0  0  0
M  END
> <minimizedAffinity>
-5.52677

$$$$
