4GR0_R4B_A_306


 49 52  0  0  0  0  0  0  0  0999 V2000
   -7.3220   24.8995   -4.0700 C   0  0  0  0  0  0  0  0  0  0  0  0
   -9.2640   25.9609   -4.9468 O   0  0  0  0  0  0  0  0  0  0  0  0
   -8.0290   26.0048   -4.7889 C   0  0  0  0  0  0  0  0  0  0  0  0
   -7.2920   27.0098   -5.2344 N   0  0  0  0  0  0  0  0  0  0  0  0
   -6.3099   26.9596   -5.1893 H   0  0  0  0  0  0  0  0  0  0  0  0
   -7.9395   28.1931   -5.7928 C   0  0  0  0  0  0  0  0  0  0  0  0
   -7.7074   29.3950   -4.8939 C   0  0  0  0  0  0  0  0  0  0  0  0
   -7.4984   28.4969   -7.2247 C   0  0  0  0  0  0  0  0  0  0  0  0
   -6.3027   28.6383   -7.5084 O   0  0  0  0  0  0  0  0  0  0  0  0
   -8.4653   28.5820   -8.1321 N   0  0  0  0  0  0  0  0  0  0  0  0
   -9.3867   28.3349   -7.8886 H   0  0  0  0  0  0  0  0  0  0  0  0
   -8.1735   29.0369   -9.4815 C   0  0  0  0  0  0  0  0  0  0  0  0
   -8.1402   27.8572  -10.4506 C   0  0  0  0  0  0  0  0  0  0  0  0
   -9.2396   30.0520   -9.8946 C   0  0  0  0  0  0  0  0  0  0  0  0
  -10.3866   29.6914  -10.1765 O   0  0  0  0  0  0  0  0  0  0  0  0
   -8.8470   31.3217   -9.9481 N   0  0  0  0  0  0  0  0  0  0  0  0
   -9.4863   32.0241  -10.2075 H   0  0  0  0  0  0  0  0  0  0  0  0
   -7.9172   31.5592   -9.7283 H   0  0  0  0  0  0  0  0  0  0  0  0
   -7.4642   23.6572   -4.9309 C   0  0  0  0  0  0  0  0  0  0  0  0
   -5.1122   21.8091   -7.0696 N   0  0  0  0  0  0  0  0  0  0  0  0
   -6.2869   22.1560   -6.5626 O   0  0  0  0  0  0  0  0  0  0  0  0
   -4.8620   23.4364   -5.5195 C   0  0  0  0  0  0  0  0  0  0  0  0
   -4.2086   22.5897   -6.4336 C   0  0  0  0  0  0  0  0  0  0  0  0
   -6.2217   23.1370   -5.6271 C   0  0  0  0  0  0  0  0  0  0  0  0
   -2.7544   22.4730   -6.7009 C   0  0  0  0  0  0  0  0  0  0  0  0
   -1.8698   23.3273   -6.0513 C   0  0  0  0  0  0  0  0  0  0  0  0
   -0.5028   23.2367   -6.3198 C   0  0  0  0  0  0  0  0  0  0  0  0
   -0.0525   22.2987   -7.2453 C   0  0  0  0  0  0  0  0  0  0  0  0
   -0.9537   21.4736   -7.9090 C   0  0  0  0  0  0  0  0  0  0  0  0
   -2.3106   21.5597   -7.6461 C   0  0  0  0  0  0  0  0  0  0  0  0
    4.5758   24.3504   -8.7678 Cl  0  0  0  0  0  0  0  0  0  0  0  0
    3.5111   22.9747   -8.3430 C   0  0  0  0  0  0  0  0  0  0  0  0
    2.1867   23.2092   -7.9665 C   0  0  0  0  0  0  0  0  0  0  0  0
    4.0180   21.6817   -8.3978 C   0  0  0  0  0  0  0  0  0  0  0  0
    3.2055   20.6045   -8.0750 C   0  0  0  0  0  0  0  0  0  0  0  0
    1.8890   20.8350   -7.6974 C   0  0  0  0  0  0  0  0  0  0  0  0
    1.3821   22.1319   -7.6231 C   0  0  0  0  0  0  0  0  0  0  0  0
   -8.0993   24.6516   -2.7778 C   0  0  0  0  0  0  0  0  0  0  0  0
   -7.9334   25.9536   -1.5212 P   0  0  0  0  0  0  0  0  0  0  0  0
   -8.5231   27.2267   -2.0871 O   0  0  0  0  0  0  0  0  0  0  0  0
   -6.5004   26.0283   -1.0648 O   0  0  0  0  0  0  0  0  0  0  0  0
   -7.9975   27.5155   -2.8495 H   0  0  0  0  0  0  0  0  0  0  0  0
   -8.8912   25.4509   -0.1529 C   0  0  0  0  0  0  0  0  0  0  0  0
   -9.6470   26.4022    0.5112 C   0  0  0  0  0  0  0  0  0  0  0  0
  -10.4106   26.0302    1.6127 C   0  0  0  0  0  0  0  0  0  0  0  0
  -10.3979   24.7136    2.0395 C   0  0  0  0  0  0  0  0  0  0  0  0
  -11.4595   24.2676    3.5537 Br  0  0  0  0  0  0  0  0  0  0  0  0
   -9.6256   23.7592    1.3806 C   0  0  0  0  0  0  0  0  0  0  0  0
   -8.8658   24.1238    0.2710 C   0  0  0  0  0  0  0  0  0  0  0  0
 13 12  1  0  0  0
 15 14  2  0  0  0
 12 14  1  0  0  0
 12 10  1  0  0  0
 14 16  1  0  0  0
 31 32  1  0  0  0
 32 34  2  0  0  0
 32 33  1  0  0  0
 34 35  1  0  0  0
 10  8  1  0  0  0
 33 37  2  0  0  0
 27 26  2  0  0  0
 27 28  1  0  0  0
 35 36  2  0  0  0
 37 36  1  0  0  0
 37 28  1  0  0  0
 26 25  1  0  0  0
 28 29  2  0  0  0
  9  8  2  0  0  0
  8  6  1  0  0  0
 25 23  1  0  0  0
 25 30  2  0  0  0
 20 23  2  0  0  0
 20 21  1  0  0  0
 29 30  1  0  0  0
 23 22  1  0  0  0
 21 24  1  0  0  0
  6  7  1  0  0  0
  6  4  1  0  0  0
  2  3  2  0  0  0
 22 24  2  0  0  0
 24 19  1  0  0  0
  4  3  1  0  0  0
  3  1  1  0  0  0
 19  1  1  0  0  0
  1 38  1  0  0  0
 38 39  1  0  0  0
 39 41  2  0  0  0
 39 40  1  0  0  0
 39 43  1  0  0  0
 49 43  2  0  0  0
 49 48  1  0  0  0
 43 44  1  0  0  0
 48 46  2  0  0  0
 44 45  2  0  0  0
 46 45  1  0  0  0
 46 47  1  0  0  0
 40 42  1  0  0  0
  4  5  1  0  0  0
 10 11  1  0  0  0
 16 17  1  0  0  0
 16 18  1  0  0  0
M  END
> <minimizedAffinity>
-12.01167

$$$$
4GR0_R4B_A_306


 49 52  0  0  0  0  0  0  0  0999 V2000
   -8.8292   25.5658   -3.3803 C   0  0  0  0  0  0  0  0  0  0  0  0
   -7.2562   25.4850   -1.5954 O   0  0  0  0  0  0  0  0  0  0  0  0
   -8.4553   25.5006   -1.9332 C   0  0  0  0  0  0  0  0  0  0  0  0
   -9.4414   25.4650   -1.0511 N   0  0  0  0  0  0  0  0  0  0  0  0
  -10.3726   25.3680   -1.3555 H   0  0  0  0  0  0  0  0  0  0  0  0
   -9.1444   25.5699    0.3744 C   0  0  0  0  0  0  0  0  0  0  0  0
   -9.8469   26.7766    0.9719 C   0  0  0  0  0  0  0  0  0  0  0  0
   -9.4937   24.3017    1.1532 C   0  0  0  0  0  0  0  0  0  0  0  0
   -9.6604   23.2216    0.5737 O   0  0  0  0  0  0  0  0  0  0  0  0
   -9.5892   24.4295    2.4723 N   0  0  0  0  0  0  0  0  0  0  0  0
   -9.3221   25.2742    2.9017 H   0  0  0  0  0  0  0  0  0  0  0  0
  -10.0851   23.3320    3.2864 C   0  0  0  0  0  0  0  0  0  0  0  0
   -9.0585   22.9445    4.3484 C   0  0  0  0  0  0  0  0  0  0  0  0
  -11.4025   23.7615    3.9327 C   0  0  0  0  0  0  0  0  0  0  0  0
  -11.6071   24.9404    4.2383 O   0  0  0  0  0  0  0  0  0  0  0  0
  -12.2858   22.7926    4.1571 N   0  0  0  0  0  0  0  0  0  0  0  0
  -13.1537   23.0039    4.5709 H   0  0  0  0  0  0  0  0  0  0  0  0
  -12.0716   21.8642    3.9093 H   0  0  0  0  0  0  0  0  0  0  0  0
   -8.8707   24.1350   -3.8859 C   0  0  0  0  0  0  0  0  0  0  0  0
   -6.8560   22.7041   -6.6089 N   0  0  0  0  0  0  0  0  0  0  0  0
   -7.9572   23.0589   -5.9619 O   0  0  0  0  0  0  0  0  0  0  0  0
   -6.3409   23.6906   -4.6405 C   0  0  0  0  0  0  0  0  0  0  0  0
   -5.8362   23.0835   -5.8049 C   0  0  0  0  0  0  0  0  0  0  0  0
   -7.7311   23.6673   -4.7701 C   0  0  0  0  0  0  0  0  0  0  0  0
   -4.4217   22.8217   -6.1660 C   0  0  0  0  0  0  0  0  0  0  0  0
   -3.4094   23.5072   -5.5029 C   0  0  0  0  0  0  0  0  0  0  0  0
   -2.0782   23.2816   -5.8579 C   0  0  0  0  0  0  0  0  0  0  0  0
   -1.7907   22.3818   -6.8811 C   0  0  0  0  0  0  0  0  0  0  0  0
   -2.8166   21.7283   -7.5549 C   0  0  0  0  0  0  0  0  0  0  0  0
   -4.1386   21.9488   -7.2063 C   0  0  0  0  0  0  0  0  0  0  0  0
    3.2459   23.8238   -7.5894 Cl  0  0  0  0  0  0  0  0  0  0  0  0
    1.8891   22.6651   -7.7412 C   0  0  0  0  0  0  0  0  0  0  0  0
    0.6276   23.0007   -7.2446 C   0  0  0  0  0  0  0  0  0  0  0  0
    2.1086   21.4398   -8.3595 C   0  0  0  0  0  0  0  0  0  0  0  0
    1.0675   20.5321   -8.4883 C   0  0  0  0  0  0  0  0  0  0  0  0
   -0.1873   20.8618   -7.9926 C   0  0  0  0  0  0  0  0  0  0  0  0
   -0.4071   22.0824   -7.3551 C   0  0  0  0  0  0  0  0  0  0  0  0
   -7.6783   26.2707   -4.0974 C   0  0  0  0  0  0  0  0  0  0  0  0
   -8.1761   27.6332   -5.1916 P   0  0  0  0  0  0  0  0  0  0  0  0
   -9.5394   27.3029   -5.7584 O   0  0  0  0  0  0  0  0  0  0  0  0
   -7.0832   27.8945   -6.1939 O   0  0  0  0  0  0  0  0  0  0  0  0
   -9.4740   26.5137   -6.3186 H   0  0  0  0  0  0  0  0  0  0  0  0
   -8.3144   29.0534   -4.1883 C   0  0  0  0  0  0  0  0  0  0  0  0
   -8.8350   30.2091   -4.7454 C   0  0  0  0  0  0  0  0  0  0  0  0
   -8.9452   31.3591   -3.9705 C   0  0  0  0  0  0  0  0  0  0  0  0
   -8.5227   31.3379   -2.6527 C   0  0  0  0  0  0  0  0  0  0  0  0
   -8.6955   32.9425   -1.6458 Br  0  0  0  0  0  0  0  0  0  0  0  0
   -7.9847   30.1792   -2.0962 C   0  0  0  0  0  0  0  0  0  0  0  0
   -7.8802   29.0215   -2.8646 C   0  0  0  0  0  0  0  0  0  0  0  0
 13 12  1  0  0  0
 15 14  2  0  0  0
 12 14  1  0  0  0
 12 10  1  0  0  0
 14 16  1  0  0  0
 31 32  1  0  0  0
 32 34  2  0  0  0
 32 33  1  0  0  0
 34 35  1  0  0  0
 10  8  1  0  0  0
 33 37  2  0  0  0
 27 26  2  0  0  0
 27 28  1  0  0  0
 35 36  2  0  0  0
 37 36  1  0  0  0
 37 28  1  0  0  0
 26 25  1  0  0  0
 28 29  2  0  0  0
  9  8  2  0  0  0
  8  6  1  0  0  0
 25 23  1  0  0  0
 25 30  2  0  0  0
 20 23  2  0  0  0
 20 21  1  0  0  0
 29 30  1  0  0  0
 23 22  1  0  0  0
 21 24  1  0  0  0
  6  7  1  0  0  0
  6  4  1  0  0  0
  2  3  2  0  0  0
 22 24  2  0  0  0
 24 19  1  0  0  0
  4  3  1  0  0  0
  3  1  1  0  0  0
 19  1  1  0  0  0
  1 38  1  0  0  0
 38 39  1  0  0  0
 39 41  2  0  0  0
 39 40  1  0  0  0
 39 43  1  0  0  0
 49 43  2  0  0  0
 49 48  1  0  0  0
 43 44  1  0  0  0
 48 46  2  0  0  0
 44 45  2  0  0  0
 46 45  1  0  0  0
 46 47  1  0  0  0
 40 42  1  0  0  0
  4  5  1  0  0  0
 10 11  1  0  0  0
 16 17  1  0  0  0
 16 18  1  0  0  0
M  END
> <minimizedAffinity>
-11.69155

$$$$
4GR0_R4B_A_306


 49 52  0  0  0  0  0  0  0  0999 V2000
   -8.0373   25.4433   -3.6027 C   0  0  0  0  0  0  0  0  0  0  0  0
   -9.6345   26.5109   -5.0083 O   0  0  0  0  0  0  0  0  0  0  0  0
   -8.4935   26.5425   -4.5092 C   0  0  0  0  0  0  0  0  0  0  0  0
   -7.6433   27.5292   -4.7445 N   0  0  0  0  0  0  0  0  0  0  0  0
   -6.7146   27.4676   -4.4235 H   0  0  0  0  0  0  0  0  0  0  0  0
   -8.0863   28.7089   -5.4815 C   0  0  0  0  0  0  0  0  0  0  0  0
   -7.7069   29.9731   -4.7303 C   0  0  0  0  0  0  0  0  0  0  0  0
   -7.5560   28.7531   -6.9147 C   0  0  0  0  0  0  0  0  0  0  0  0
   -6.3527   28.5978   -7.1557 O   0  0  0  0  0  0  0  0  0  0  0  0
   -8.4587   28.9498   -7.8696 N   0  0  0  0  0  0  0  0  0  0  0  0
   -9.4173   28.9382   -7.6454 H   0  0  0  0  0  0  0  0  0  0  0  0
   -8.0421   29.1821   -9.2429 C   0  0  0  0  0  0  0  0  0  0  0  0
   -8.2010   27.9112  -10.0746 C   0  0  0  0  0  0  0  0  0  0  0  0
   -8.8830   30.3207   -9.8209 C   0  0  0  0  0  0  0  0  0  0  0  0
  -10.0987   30.1899   -9.9941 O   0  0  0  0  0  0  0  0  0  0  0  0
   -8.2229   31.4314  -10.1372 N   0  0  0  0  0  0  0  0  0  0  0  0
   -8.7071   32.2013  -10.5140 H   0  0  0  0  0  0  0  0  0  0  0  0
   -7.2502   31.4834   -9.9945 H   0  0  0  0  0  0  0  0  0  0  0  0
   -8.1917   24.1463   -4.3766 C   0  0  0  0  0  0  0  0  0  0  0  0
   -5.7883   21.9558   -6.0933 N   0  0  0  0  0  0  0  0  0  0  0  0
   -6.9509   22.3194   -5.5703 O   0  0  0  0  0  0  0  0  0  0  0  0
   -5.6521   24.0356   -5.2160 C   0  0  0  0  0  0  0  0  0  0  0  0
   -4.9621   23.0061   -5.8821 C   0  0  0  0  0  0  0  0  0  0  0  0
   -6.9529   23.5638   -5.0287 C   0  0  0  0  0  0  0  0  0  0  0  0
   -3.5383   22.9717   -6.2957 C   0  0  0  0  0  0  0  0  0  0  0  0
   -3.1629   22.1968   -7.3880 C   0  0  0  0  0  0  0  0  0  0  0  0
   -1.8196   22.1423   -7.7643 C   0  0  0  0  0  0  0  0  0  0  0  0
   -0.8779   22.8568   -7.0282 C   0  0  0  0  0  0  0  0  0  0  0  0
   -1.2661   23.6017   -5.9199 C   0  0  0  0  0  0  0  0  0  0  0  0
   -2.5973   23.6587   -5.5428 C   0  0  0  0  0  0  0  0  0  0  0  0
    3.4946   20.3228   -8.5800 Cl  0  0  0  0  0  0  0  0  0  0  0  0
    2.6225   21.7729   -7.9942 C   0  0  0  0  0  0  0  0  0  0  0  0
    1.2460   21.7128   -7.7653 C   0  0  0  0  0  0  0  0  0  0  0  0
    3.3317   22.9468   -7.7688 C   0  0  0  0  0  0  0  0  0  0  0  0
    2.6719   24.0783   -7.3118 C   0  0  0  0  0  0  0  0  0  0  0  0
    1.3026   24.0224   -7.0862 C   0  0  0  0  0  0  0  0  0  0  0  0
    0.5844   22.8520   -7.3289 C   0  0  0  0  0  0  0  0  0  0  0  0
   -9.0247   25.4003   -2.4370 C   0  0  0  0  0  0  0  0  0  0  0  0
   -8.2817   25.6233   -0.7940 P   0  0  0  0  0  0  0  0  0  0  0  0
   -7.0737   26.5214   -0.9456 O   0  0  0  0  0  0  0  0  0  0  0  0
   -8.0358   24.2754   -0.1693 O   0  0  0  0  0  0  0  0  0  0  0  0
   -6.4051   26.0751   -1.4884 H   0  0  0  0  0  0  0  0  0  0  0  0
   -9.4711   26.4425    0.1842 C   0  0  0  0  0  0  0  0  0  0  0  0
   -9.1207   27.6373    0.7898 C   0  0  0  0  0  0  0  0  0  0  0  0
  -10.0467   28.3050    1.5846 C   0  0  0  0  0  0  0  0  0  0  0  0
  -11.3059   27.7612    1.7700 C   0  0  0  0  0  0  0  0  0  0  0  0
  -12.5263   28.7191    2.8707 Br  0  0  0  0  0  0  0  0  0  0  0  0
  -11.6537   26.5512    1.1728 C   0  0  0  0  0  0  0  0  0  0  0  0
  -10.7336   25.8822    0.3681 C   0  0  0  0  0  0  0  0  0  0  0  0
 13 12  1  0  0  0
 15 14  2  0  0  0
 12 14  1  0  0  0
 12 10  1  0  0  0
 14 16  1  0  0  0
 31 32  1  0  0  0
 32 34  2  0  0  0
 32 33  1  0  0  0
 34 35  1  0  0  0
 10  8  1  0  0  0
 33 37  2  0  0  0
 27 26  2  0  0  0
 27 28  1  0  0  0
 35 36  2  0  0  0
 37 36  1  0  0  0
 37 28  1  0  0  0
 26 25  1  0  0  0
 28 29  2  0  0  0
  9  8  2  0  0  0
  8  6  1  0  0  0
 25 23  1  0  0  0
 25 30  2  0  0  0
 20 23  2  0  0  0
 20 21  1  0  0  0
 29 30  1  0  0  0
 23 22  1  0  0  0
 21 24  1  0  0  0
  6  7  1  0  0  0
  6  4  1  0  0  0
  2  3  2  0  0  0
 22 24  2  0  0  0
 24 19  1  0  0  0
  4  3  1  0  0  0
  3  1  1  0  0  0
 19  1  1  0  0  0
  1 38  1  0  0  0
 38 39  1  0  0  0
 39 41  2  0  0  0
 39 40  1  0  0  0
 39 43  1  0  0  0
 49 43  2  0  0  0
 49 48  1  0  0  0
 43 44  1  0  0  0
 48 46  2  0  0  0
 44 45  2  0  0  0
 46 45  1  0  0  0
 46 47  1  0  0  0
 40 42  1  0  0  0
  4  5  1  0  0  0
 10 11  1  0  0  0
 16 17  1  0  0  0
 16 18  1  0  0  0
M  END
> <minimizedAffinity>
-11.64370

$$$$
4GR0_R4B_A_306


 49 52  0  0  0  0  0  0  0  0999 V2000
   -9.0026   26.1361   -3.5823 C   0  0  0  0  0  0  0  0  0  0  0  0
   -7.1257   25.8311   -2.1501 O   0  0  0  0  0  0  0  0  0  0  0  0
   -8.3667   25.8451   -2.2597 C   0  0  0  0  0  0  0  0  0  0  0  0
   -9.1721   25.6125   -1.2355 N   0  0  0  0  0  0  0  0  0  0  0  0
  -10.1417   25.5231   -1.3805 H   0  0  0  0  0  0  0  0  0  0  0  0
   -8.6187   25.4889    0.1097 C   0  0  0  0  0  0  0  0  0  0  0  0
   -8.8511   26.7678    0.8950 C   0  0  0  0  0  0  0  0  0  0  0  0
   -9.1634   24.2809    0.8720 C   0  0  0  0  0  0  0  0  0  0  0  0
   -9.3854   23.2090    0.2960 O   0  0  0  0  0  0  0  0  0  0  0  0
   -9.3643   24.4497    2.1746 N   0  0  0  0  0  0  0  0  0  0  0  0
   -9.0530   25.2738    2.6140 H   0  0  0  0  0  0  0  0  0  0  0  0
  -10.0402   23.4270    2.9560 C   0  0  0  0  0  0  0  0  0  0  0  0
   -9.1282   22.9089    4.0659 C   0  0  0  0  0  0  0  0  0  0  0  0
  -11.3211   24.0256    3.5377 C   0  0  0  0  0  0  0  0  0  0  0  0
  -11.5544   25.2353    3.4522 O   0  0  0  0  0  0  0  0  0  0  0  0
  -12.1392   23.1728    4.1480 N   0  0  0  0  0  0  0  0  0  0  0  0
  -12.9808   23.4957    4.5439 H   0  0  0  0  0  0  0  0  0  0  0  0
  -11.9032   22.2187    4.2040 H   0  0  0  0  0  0  0  0  0  0  0  0
   -9.2979   24.7950   -4.2297 C   0  0  0  0  0  0  0  0  0  0  0  0
   -7.0129   22.0377   -5.0651 N   0  0  0  0  0  0  0  0  0  0  0  0
   -8.1209   22.6118   -4.6178 O   0  0  0  0  0  0  0  0  0  0  0  0
   -6.8748   24.2873   -5.2482 C   0  0  0  0  0  0  0  0  0  0  0  0
   -6.2199   23.0602   -5.4599 C   0  0  0  0  0  0  0  0  0  0  0  0
   -8.1190   23.9664   -4.7018 C   0  0  0  0  0  0  0  0  0  0  0  0
   -4.8559   22.8261   -5.9931 C   0  0  0  0  0  0  0  0  0  0  0  0
   -4.6762   21.9257   -7.0379 C   0  0  0  0  0  0  0  0  0  0  0  0
   -3.3904   21.6842   -7.5251 C   0  0  0  0  0  0  0  0  0  0  0  0
   -2.3089   22.3419   -6.9446 C   0  0  0  0  0  0  0  0  0  0  0  0
   -2.5029   23.2154   -5.8802 C   0  0  0  0  0  0  0  0  0  0  0  0
   -3.7764   23.4581   -5.3934 C   0  0  0  0  0  0  0  0  0  0  0  0
    2.7202   23.9626   -7.1174 Cl  0  0  0  0  0  0  0  0  0  0  0  0
    1.4059   22.8165   -7.5244 C   0  0  0  0  0  0  0  0  0  0  0  0
    0.1091   23.0510   -7.0617 C   0  0  0  0  0  0  0  0  0  0  0  0
    1.6936   21.7027   -8.3045 C   0  0  0  0  0  0  0  0  0  0  0  0
    0.6863   20.8068   -8.6316 C   0  0  0  0  0  0  0  0  0  0  0  0
   -0.6036   21.0358   -8.1704 C   0  0  0  0  0  0  0  0  0  0  0  0
   -0.8925   22.1419   -7.3720 C   0  0  0  0  0  0  0  0  0  0  0  0
   -7.9407   26.8308   -4.4340 C   0  0  0  0  0  0  0  0  0  0  0  0
   -8.0594   28.6434   -4.4796 P   0  0  0  0  0  0  0  0  0  0  0  0
   -7.0021   29.2041   -3.5541 O   0  0  0  0  0  0  0  0  0  0  0  0
   -9.4792   29.0587   -4.1986 O   0  0  0  0  0  0  0  0  0  0  0  0
   -7.1990   28.9412   -2.6414 H   0  0  0  0  0  0  0  0  0  0  0  0
   -7.6882   29.1264   -6.1140 C   0  0  0  0  0  0  0  0  0  0  0  0
   -7.5496   30.4762   -6.3899 C   0  0  0  0  0  0  0  0  0  0  0  0
   -7.2653   30.8891   -7.6875 C   0  0  0  0  0  0  0  0  0  0  0  0
   -7.1346   29.9454   -8.6915 C   0  0  0  0  0  0  0  0  0  0  0  0
   -6.7496   30.5723  -10.4457 Br  0  0  0  0  0  0  0  0  0  0  0  0
   -7.2890   28.5880   -8.4170 C   0  0  0  0  0  0  0  0  0  0  0  0
   -7.5648   28.1675   -7.1175 C   0  0  0  0  0  0  0  0  0  0  0  0
 13 12  1  0  0  0
 15 14  2  0  0  0
 12 14  1  0  0  0
 12 10  1  0  0  0
 14 16  1  0  0  0
 31 32  1  0  0  0
 32 34  2  0  0  0
 32 33  1  0  0  0
 34 35  1  0  0  0
 10  8  1  0  0  0
 33 37  2  0  0  0
 27 26  2  0  0  0
 27 28  1  0  0  0
 35 36  2  0  0  0
 37 36  1  0  0  0
 37 28  1  0  0  0
 26 25  1  0  0  0
 28 29  2  0  0  0
  9  8  2  0  0  0
  8  6  1  0  0  0
 25 23  1  0  0  0
 25 30  2  0  0  0
 20 23  2  0  0  0
 20 21  1  0  0  0
 29 30  1  0  0  0
 23 22  1  0  0  0
 21 24  1  0  0  0
  6  7  1  0  0  0
  6  4  1  0  0  0
  2  3  2  0  0  0
 22 24  2  0  0  0
 24 19  1  0  0  0
  4  3  1  0  0  0
  3  1  1  0  0  0
 19  1  1  0  0  0
  1 38  1  0  0  0
 38 39  1  0  0  0
 39 41  2  0  0  0
 39 40  1  0  0  0
 39 43  1  0  0  0
 49 43  2  0  0  0
 49 48  1  0  0  0
 43 44  1  0  0  0
 48 46  2  0  0  0
 44 45  2  0  0  0
 46 45  1  0  0  0
 46 47  1  0  0  0
 40 42  1  0  0  0
  4  5  1  0  0  0
 10 11  1  0  0  0
 16 17  1  0  0  0
 16 18  1  0  0  0
M  END
> <minimizedAffinity>
-11.54904

$$$$
4GR0_R4B_A_306


 49 52  0  0  0  0  0  0  0  0999 V2000
   -9.1533   25.8905   -2.9838 C   0  0  0  0  0  0  0  0  0  0  0  0
   -8.5052   26.9972   -0.9783 O   0  0  0  0  0  0  0  0  0  0  0  0
   -9.1159   26.0427   -1.4960 C   0  0  0  0  0  0  0  0  0  0  0  0
   -9.7537   25.1340   -0.7753 N   0  0  0  0  0  0  0  0  0  0  0  0
  -10.1315   24.3355   -1.2100 H   0  0  0  0  0  0  0  0  0  0  0  0
   -9.8955   25.3190    0.6658 C   0  0  0  0  0  0  0  0  0  0  0  0
   -8.5383   25.5626    1.3022 C   0  0  0  0  0  0  0  0  0  0  0  0
  -10.8718   26.4368    1.0323 C   0  0  0  0  0  0  0  0  0  0  0  0
  -10.4692   27.5087    1.5005 O   0  0  0  0  0  0  0  0  0  0  0  0
  -12.1578   26.1923    0.8043 N   0  0  0  0  0  0  0  0  0  0  0  0
  -12.4209   25.3812    0.3122 H   0  0  0  0  0  0  0  0  0  0  0  0
  -13.1793   27.1129    1.2756 C   0  0  0  0  0  0  0  0  0  0  0  0
  -14.4074   27.0622    0.3695 C   0  0  0  0  0  0  0  0  0  0  0  0
  -13.5459   26.7397    2.7123 C   0  0  0  0  0  0  0  0  0  0  0  0
  -13.2594   27.4830    3.6560 O   0  0  0  0  0  0  0  0  0  0  0  0
  -14.1632   25.5725    2.8728 N   0  0  0  0  0  0  0  0  0  0  0  0
  -14.4259   25.2743    3.7735 H   0  0  0  0  0  0  0  0  0  0  0  0
  -14.3575   25.0068    2.0908 H   0  0  0  0  0  0  0  0  0  0  0  0
   -9.0816   24.4018   -3.2727 C   0  0  0  0  0  0  0  0  0  0  0  0
   -7.3826   23.0112   -6.2225 N   0  0  0  0  0  0  0  0  0  0  0  0
   -8.4051   23.3808   -5.4641 O   0  0  0  0  0  0  0  0  0  0  0  0
   -6.6512   23.8913   -4.2722 C   0  0  0  0  0  0  0  0  0  0  0  0
   -6.2795   23.3154   -5.5008 C   0  0  0  0  0  0  0  0  0  0  0  0
   -8.0470   23.9282   -4.2750 C   0  0  0  0  0  0  0  0  0  0  0  0
   -4.9156   23.0140   -5.9997 C   0  0  0  0  0  0  0  0  0  0  0  0
   -4.7484   22.0574   -6.9954 C   0  0  0  0  0  0  0  0  0  0  0  0
   -3.4637   21.7534   -7.4492 C   0  0  0  0  0  0  0  0  0  0  0  0
   -2.3711   22.4067   -6.8847 C   0  0  0  0  0  0  0  0  0  0  0  0
   -2.5537   23.3378   -5.8682 C   0  0  0  0  0  0  0  0  0  0  0  0
   -3.8262   23.6427   -5.4148 C   0  0  0  0  0  0  0  0  0  0  0  0
    2.7197   23.8286   -6.9880 Cl  0  0  0  0  0  0  0  0  0  0  0  0
    1.3701   22.7254   -7.3979 C   0  0  0  0  0  0  0  0  0  0  0  0
    0.0745   23.0195   -6.9669 C   0  0  0  0  0  0  0  0  0  0  0  0
    1.6295   21.5847   -8.1486 C   0  0  0  0  0  0  0  0  0  0  0  0
    0.5947   20.7213   -8.4776 C   0  0  0  0  0  0  0  0  0  0  0  0
   -0.6941   21.0097   -8.0478 C   0  0  0  0  0  0  0  0  0  0  0  0
   -0.9554   22.1431   -7.2787 C   0  0  0  0  0  0  0  0  0  0  0  0
   -7.8692   26.5225   -3.5198 C   0  0  0  0  0  0  0  0  0  0  0  0
   -8.0752   27.5187   -5.0253 P   0  0  0  0  0  0  0  0  0  0  0  0
   -9.4732   27.2832   -5.5537 O   0  0  0  0  0  0  0  0  0  0  0  0
   -6.9452   27.2265   -5.9768 O   0  0  0  0  0  0  0  0  0  0  0  0
   -9.5642   26.3566   -5.8257 H   0  0  0  0  0  0  0  0  0  0  0  0
   -7.9316   29.1885   -4.5419 C   0  0  0  0  0  0  0  0  0  0  0  0
   -8.2884   30.1728   -5.4479 C   0  0  0  0  0  0  0  0  0  0  0  0
   -8.1724   31.5125   -5.0919 C   0  0  0  0  0  0  0  0  0  0  0  0
   -7.6908   31.8469   -3.8381 C   0  0  0  0  0  0  0  0  0  0  0  0
   -7.5514   33.6954   -3.4116 Br  0  0  0  0  0  0  0  0  0  0  0  0
   -7.3174   30.8566   -2.9316 C   0  0  0  0  0  0  0  0  0  0  0  0
   -7.4400   29.5128   -3.2790 C   0  0  0  0  0  0  0  0  0  0  0  0
 13 12  1  0  0  0
 15 14  2  0  0  0
 12 14  1  0  0  0
 12 10  1  0  0  0
 14 16  1  0  0  0
 31 32  1  0  0  0
 32 34  2  0  0  0
 32 33  1  0  0  0
 34 35  1  0  0  0
 10  8  1  0  0  0
 33 37  2  0  0  0
 27 26  2  0  0  0
 27 28  1  0  0  0
 35 36  2  0  0  0
 37 36  1  0  0  0
 37 28  1  0  0  0
 26 25  1  0  0  0
 28 29  2  0  0  0
  9  8  2  0  0  0
  8  6  1  0  0  0
 25 23  1  0  0  0
 25 30  2  0  0  0
 20 23  2  0  0  0
 20 21  1  0  0  0
 29 30  1  0  0  0
 23 22  1  0  0  0
 21 24  1  0  0  0
  6  7  1  0  0  0
  6  4  1  0  0  0
  2  3  2  0  0  0
 22 24  2  0  0  0
 24 19  1  0  0  0
  4  3  1  0  0  0
  3  1  1  0  0  0
 19  1  1  0  0  0
  1 38  1  0  0  0
 38 39  1  0  0  0
 39 41  2  0  0  0
 39 40  1  0  0  0
 39 43  1  0  0  0
 49 43  2  0  0  0
 49 48  1  0  0  0
 43 44  1  0  0  0
 48 46  2  0  0  0
 44 45  2  0  0  0
 46 45  1  0  0  0
 46 47  1  0  0  0
 40 42  1  0  0  0
  4  5  1  0  0  0
 10 11  1  0  0  0
 16 17  1  0  0  0
 16 18  1  0  0  0
M  END
> <minimizedAffinity>
-11.05605

$$$$
4GR0_R4B_A_306


 49 52  0  0  0  0  0  0  0  0999 V2000
   -8.2346   26.1058   -3.3571 C   0  0  0  0  0  0  0  0  0  0  0  0
   -9.6252   26.8956   -5.1204 O   0  0  0  0  0  0  0  0  0  0  0  0
   -8.7977   27.1796   -4.2334 C   0  0  0  0  0  0  0  0  0  0  0  0
   -8.3837   28.4185   -4.0199 N   0  0  0  0  0  0  0  0  0  0  0  0
   -7.6499   28.5914   -3.3867 H   0  0  0  0  0  0  0  0  0  0  0  0
   -9.0180   29.5278   -4.7258 C   0  0  0  0  0  0  0  0  0  0  0  0
   -9.2526   30.6908   -3.7778 C   0  0  0  0  0  0  0  0  0  0  0  0
   -8.2307   29.9834   -5.9545 C   0  0  0  0  0  0  0  0  0  0  0  0
   -7.6162   31.0569   -5.9575 O   0  0  0  0  0  0  0  0  0  0  0  0
   -8.2364   29.1578   -6.9956 N   0  0  0  0  0  0  0  0  0  0  0  0
   -8.6283   28.2593   -6.9042 H   0  0  0  0  0  0  0  0  0  0  0  0
   -7.6686   29.5708   -8.2685 C   0  0  0  0  0  0  0  0  0  0  0  0
   -6.1787   29.2402   -8.3245 C   0  0  0  0  0  0  0  0  0  0  0  0
   -8.4266   28.8637   -9.3923 C   0  0  0  0  0  0  0  0  0  0  0  0
   -9.6351   29.0529   -9.5623 O   0  0  0  0  0  0  0  0  0  0  0  0
   -7.7121   28.0317  -10.1449 N   0  0  0  0  0  0  0  0  0  0  0  0
   -8.1418   27.5455  -10.8853 H   0  0  0  0  0  0  0  0  0  0  0  0
   -6.7535   27.9022   -9.9616 H   0  0  0  0  0  0  0  0  0  0  0  0
   -8.5723   24.7811   -4.0174 C   0  0  0  0  0  0  0  0  0  0  0  0
   -6.6532   22.5120   -6.1830 N   0  0  0  0  0  0  0  0  0  0  0  0
   -7.7282   23.0290   -5.6049 O   0  0  0  0  0  0  0  0  0  0  0  0
   -6.0799   24.2216   -4.8184 C   0  0  0  0  0  0  0  0  0  0  0  0
   -5.6137   23.2351   -5.7067 C   0  0  0  0  0  0  0  0  0  0  0  0
   -7.4672   24.0694   -4.7735 C   0  0  0  0  0  0  0  0  0  0  0  0
   -4.2140   22.9340   -6.0937 C   0  0  0  0  0  0  0  0  0  0  0  0
   -3.1734   23.6344   -5.4927 C   0  0  0  0  0  0  0  0  0  0  0  0
   -1.8562   23.3710   -5.8732 C   0  0  0  0  0  0  0  0  0  0  0  0
   -1.6110   22.4188   -6.8592 C   0  0  0  0  0  0  0  0  0  0  0  0
   -2.6650   21.7501   -7.4721 C   0  0  0  0  0  0  0  0  0  0  0  0
   -3.9731   22.0080   -7.0981 C   0  0  0  0  0  0  0  0  0  0  0  0
    3.4535   23.7035   -7.6650 Cl  0  0  0  0  0  0  0  0  0  0  0  0
    2.0596   22.5859   -7.7865 C   0  0  0  0  0  0  0  0  0  0  0  0
    0.8180   22.9621   -7.2691 C   0  0  0  0  0  0  0  0  0  0  0  0
    2.2307   21.3516   -8.4022 C   0  0  0  0  0  0  0  0  0  0  0  0
    1.1603   20.4754   -8.5075 C   0  0  0  0  0  0  0  0  0  0  0  0
   -0.0747   20.8455   -7.9912 C   0  0  0  0  0  0  0  0  0  0  0  0
   -0.2459   22.0752   -7.3563 C   0  0  0  0  0  0  0  0  0  0  0  0
   -9.0054   26.1689   -2.0389 C   0  0  0  0  0  0  0  0  0  0  0  0
   -7.9836   26.4694   -0.5668 P   0  0  0  0  0  0  0  0  0  0  0  0
   -6.5737   26.0164   -0.8763 O   0  0  0  0  0  0  0  0  0  0  0  0
   -8.6381   25.8380    0.6334 O   0  0  0  0  0  0  0  0  0  0  0  0
   -6.5668   25.0573   -1.0215 H   0  0  0  0  0  0  0  0  0  0  0  0
   -7.9753   28.1945   -0.3092 C   0  0  0  0  0  0  0  0  0  0  0  0
   -6.9007   28.9290   -0.7815 C   0  0  0  0  0  0  0  0  0  0  0  0
   -6.8636   30.3047   -0.5791 C   0  0  0  0  0  0  0  0  0  0  0  0
   -7.8974   30.9230    0.1024 C   0  0  0  0  0  0  0  0  0  0  0  0
   -7.7874   32.8058    0.3509 Br  0  0  0  0  0  0  0  0  0  0  0  0
   -8.9715   30.1820    0.5910 C   0  0  0  0  0  0  0  0  0  0  0  0
   -9.0189   28.8050    0.3834 C   0  0  0  0  0  0  0  0  0  0  0  0
 13 12  1  0  0  0
 15 14  2  0  0  0
 12 14  1  0  0  0
 12 10  1  0  0  0
 14 16  1  0  0  0
 31 32  1  0  0  0
 32 34  2  0  0  0
 32 33  1  0  0  0
 34 35  1  0  0  0
 10  8  1  0  0  0
 33 37  2  0  0  0
 27 26  2  0  0  0
 27 28  1  0  0  0
 35 36  2  0  0  0
 37 36  1  0  0  0
 37 28  1  0  0  0
 26 25  1  0  0  0
 28 29  2  0  0  0
  9  8  2  0  0  0
  8  6  1  0  0  0
 25 23  1  0  0  0
 25 30  2  0  0  0
 20 23  2  0  0  0
 20 21  1  0  0  0
 29 30  1  0  0  0
 23 22  1  0  0  0
 21 24  1  0  0  0
  6  7  1  0  0  0
  6  4  1  0  0  0
  2  3  2  0  0  0
 22 24  2  0  0  0
 24 19  1  0  0  0
  4  3  1  0  0  0
  3  1  1  0  0  0
 19  1  1  0  0  0
  1 38  1  0  0  0
 38 39  1  0  0  0
 39 41  2  0  0  0
 39 40  1  0  0  0
 39 43  1  0  0  0
 49 43  2  0  0  0
 49 48  1  0  0  0
 43 44  1  0  0  0
 48 46  2  0  0  0
 44 45  2  0  0  0
 46 45  1  0  0  0
 46 47  1  0  0  0
 40 42  1  0  0  0
  4  5  1  0  0  0
 10 11  1  0  0  0
 16 17  1  0  0  0
 16 18  1  0  0  0
M  END
> <minimizedAffinity>
-10.97557

$$$$
4GR0_R4B_A_306


 49 52  0  0  0  0  0  0  0  0999 V2000
   -8.3338   26.1020   -3.5610 C   0  0  0  0  0  0  0  0  0  0  0  0
   -9.9829   27.3170   -4.7737 O   0  0  0  0  0  0  0  0  0  0  0  0
   -8.8148   27.2839   -4.3419 C   0  0  0  0  0  0  0  0  0  0  0  0
   -7.9561   28.2710   -4.5422 N   0  0  0  0  0  0  0  0  0  0  0  0
   -7.0124   28.1645   -4.2830 H   0  0  0  0  0  0  0  0  0  0  0  0
   -8.4122   29.5182   -5.1486 C   0  0  0  0  0  0  0  0  0  0  0  0
   -8.0642   30.6966   -4.2561 C   0  0  0  0  0  0  0  0  0  0  0  0
   -7.8671   29.7312   -6.5609 C   0  0  0  0  0  0  0  0  0  0  0  0
   -6.9137   30.4912   -6.7698 O   0  0  0  0  0  0  0  0  0  0  0  0
   -8.4637   29.0464   -7.5307 N   0  0  0  0  0  0  0  0  0  0  0  0
   -9.1297   28.3577   -7.3039 H   0  0  0  0  0  0  0  0  0  0  0  0
   -8.1408   29.3060   -8.9241 C   0  0  0  0  0  0  0  0  0  0  0  0
   -7.8515   28.0000   -9.6607 C   0  0  0  0  0  0  0  0  0  0  0  0
   -9.3146   30.0458   -9.5664 C   0  0  0  0  0  0  0  0  0  0  0  0
   -9.7580   31.0871   -9.0721 O   0  0  0  0  0  0  0  0  0  0  0  0
   -9.8272   29.4891  -10.6602 N   0  0  0  0  0  0  0  0  0  0  0  0
  -10.5849   29.9165  -11.1212 H   0  0  0  0  0  0  0  0  0  0  0  0
   -9.4490   28.6497  -11.0089 H   0  0  0  0  0  0  0  0  0  0  0  0
   -8.6784   24.8692   -4.3772 C   0  0  0  0  0  0  0  0  0  0  0  0
   -6.5277   22.0714   -5.4108 N   0  0  0  0  0  0  0  0  0  0  0  0
   -7.6187   22.6665   -4.9494 O   0  0  0  0  0  0  0  0  0  0  0  0
   -6.2455   24.3141   -5.3464 C   0  0  0  0  0  0  0  0  0  0  0  0
   -5.6568   23.0758   -5.6618 C   0  0  0  0  0  0  0  0  0  0  0  0
   -7.5310   24.0195   -4.8878 C   0  0  0  0  0  0  0  0  0  0  0  0
   -4.2860   22.8104   -6.1620 C   0  0  0  0  0  0  0  0  0  0  0  0
   -4.0947   21.8588   -7.1582 C   0  0  0  0  0  0  0  0  0  0  0  0
   -2.8029   21.5887   -7.6133 C   0  0  0  0  0  0  0  0  0  0  0  0
   -1.7273   22.2701   -7.0495 C   0  0  0  0  0  0  0  0  0  0  0  0
   -1.9333   23.1958   -6.0325 C   0  0  0  0  0  0  0  0  0  0  0  0
   -3.2128   23.4671   -5.5778 C   0  0  0  0  0  0  0  0  0  0  0  0
    3.2582   23.9753   -7.4818 Cl  0  0  0  0  0  0  0  0  0  0  0  0
    1.9748   22.7466   -7.7048 C   0  0  0  0  0  0  0  0  0  0  0  0
    0.6716   23.0154   -7.2802 C   0  0  0  0  0  0  0  0  0  0  0  0
    2.2925   21.5342   -8.3058 C   0  0  0  0  0  0  0  0  0  0  0  0
    1.3093   20.5728   -8.4890 C   0  0  0  0  0  0  0  0  0  0  0  0
    0.0133   20.8362   -8.0650 C   0  0  0  0  0  0  0  0  0  0  0  0
   -0.3055   22.0438   -7.4449 C   0  0  0  0  0  0  0  0  0  0  0  0
   -9.1708   26.0528   -2.2832 C   0  0  0  0  0  0  0  0  0  0  0  0
   -8.2131   26.0318   -0.7393 P   0  0  0  0  0  0  0  0  0  0  0  0
   -6.9728   26.8727   -0.9475 O   0  0  0  0  0  0  0  0  0  0  0  0
   -7.9874   24.6062   -0.3103 O   0  0  0  0  0  0  0  0  0  0  0  0
   -6.4113   26.4593   -1.6219 H   0  0  0  0  0  0  0  0  0  0  0  0
   -9.2085   26.7908    0.4754 C   0  0  0  0  0  0  0  0  0  0  0  0
   -8.7666   27.9700    1.0511 C   0  0  0  0  0  0  0  0  0  0  0  0
   -9.5357   28.5896    2.0307 C   0  0  0  0  0  0  0  0  0  0  0  0
  -10.7304   28.0140    2.4269 C   0  0  0  0  0  0  0  0  0  0  0  0
  -11.7351   28.9066    3.7731 Br  0  0  0  0  0  0  0  0  0  0  0  0
  -11.1680   26.8194    1.8584 C   0  0  0  0  0  0  0  0  0  0  0  0
  -10.4065   26.1987    0.8702 C   0  0  0  0  0  0  0  0  0  0  0  0
 13 12  1  0  0  0
 15 14  2  0  0  0
 12 14  1  0  0  0
 12 10  1  0  0  0
 14 16  1  0  0  0
 31 32  1  0  0  0
 32 34  2  0  0  0
 32 33  1  0  0  0
 34 35  1  0  0  0
 10  8  1  0  0  0
 33 37  2  0  0  0
 27 26  2  0  0  0
 27 28  1  0  0  0
 35 36  2  0  0  0
 37 36  1  0  0  0
 37 28  1  0  0  0
 26 25  1  0  0  0
 28 29  2  0  0  0
  9  8  2  0  0  0
  8  6  1  0  0  0
 25 23  1  0  0  0
 25 30  2  0  0  0
 20 23  2  0  0  0
 20 21  1  0  0  0
 29 30  1  0  0  0
 23 22  1  0  0  0
 21 24  1  0  0  0
  6  7  1  0  0  0
  6  4  1  0  0  0
  2  3  2  0  0  0
 22 24  2  0  0  0
 24 19  1  0  0  0
  4  3  1  0  0  0
  3  1  1  0  0  0
 19  1  1  0  0  0
  1 38  1  0  0  0
 38 39  1  0  0  0
 39 41  2  0  0  0
 39 40  1  0  0  0
 39 43  1  0  0  0
 49 43  2  0  0  0
 49 48  1  0  0  0
 43 44  1  0  0  0
 48 46  2  0  0  0
 44 45  2  0  0  0
 46 45  1  0  0  0
 46 47  1  0  0  0
 40 42  1  0  0  0
  4  5  1  0  0  0
 10 11  1  0  0  0
 16 17  1  0  0  0
 16 18  1  0  0  0
M  END
> <minimizedAffinity>
-10.96620

$$$$
4GR0_R4B_A_306


 49 52  0  0  0  0  0  0  0  0999 V2000
   -8.4052   25.3676   -2.1116 C   0  0  0  0  0  0  0  0  0  0  0  0
   -7.4541   27.4439   -1.4402 O   0  0  0  0  0  0  0  0  0  0  0  0
   -7.9829   26.7822   -2.3537 C   0  0  0  0  0  0  0  0  0  0  0  0
   -8.1919   27.2812   -3.5616 N   0  0  0  0  0  0  0  0  0  0  0  0
   -8.7097   26.7693   -4.2243 H   0  0  0  0  0  0  0  0  0  0  0  0
   -7.6526   28.5926   -3.9087 C   0  0  0  0  0  0  0  0  0  0  0  0
   -7.3103   28.6476   -5.3873 C   0  0  0  0  0  0  0  0  0  0  0  0
   -8.5845   29.7429   -3.5273 C   0  0  0  0  0  0  0  0  0  0  0  0
   -9.5084   30.0906   -4.2728 O   0  0  0  0  0  0  0  0  0  0  0  0
   -8.3515   30.3245   -2.3556 N   0  0  0  0  0  0  0  0  0  0  0  0
   -7.6913   29.9332   -1.7389 H   0  0  0  0  0  0  0  0  0  0  0  0
   -9.0635   31.5340   -1.9771 C   0  0  0  0  0  0  0  0  0  0  0  0
   -9.6247   31.4065   -0.5626 C   0  0  0  0  0  0  0  0  0  0  0  0
   -8.1006   32.7175   -2.0772 C   0  0  0  0  0  0  0  0  0  0  0  0
   -6.8929   32.5414   -2.2655 O   0  0  0  0  0  0  0  0  0  0  0  0
   -8.6411   33.9238   -1.9289 N   0  0  0  0  0  0  0  0  0  0  0  0
   -8.0744   34.7270   -1.9826 H   0  0  0  0  0  0  0  0  0  0  0  0
   -9.6078   34.0134   -1.7656 H   0  0  0  0  0  0  0  0  0  0  0  0
   -8.8875   24.8215   -3.4435 C   0  0  0  0  0  0  0  0  0  0  0  0
   -7.2221   22.6754   -5.9218 N   0  0  0  0  0  0  0  0  0  0  0  0
   -8.2313   23.1803   -5.2262 O   0  0  0  0  0  0  0  0  0  0  0  0
   -6.4831   24.2418   -4.4679 C   0  0  0  0  0  0  0  0  0  0  0  0
   -6.1223   23.3176   -5.4655 C   0  0  0  0  0  0  0  0  0  0  0  0
   -7.8691   24.1367   -4.3340 C   0  0  0  0  0  0  0  0  0  0  0  0
   -4.7670   22.9998   -5.9773 C   0  0  0  0  0  0  0  0  0  0  0  0
   -4.6187   22.0256   -6.9588 C   0  0  0  0  0  0  0  0  0  0  0  0
   -3.3419   21.7063   -7.4245 C   0  0  0  0  0  0  0  0  0  0  0  0
   -2.2381   22.3625   -6.8858 C   0  0  0  0  0  0  0  0  0  0  0  0
   -2.4017   23.3116   -5.8828 C   0  0  0  0  0  0  0  0  0  0  0  0
   -3.6662   23.6316   -5.4177 C   0  0  0  0  0  0  0  0  0  0  0  0
    2.8568   23.7581   -7.0925 Cl  0  0  0  0  0  0  0  0  0  0  0  0
    1.4967   22.6526   -7.4590 C   0  0  0  0  0  0  0  0  0  0  0  0
    0.2087   22.9620   -7.0161 C   0  0  0  0  0  0  0  0  0  0  0  0
    1.7404   21.4948   -8.1885 C   0  0  0  0  0  0  0  0  0  0  0  0
    0.6972   20.6293   -8.4839 C   0  0  0  0  0  0  0  0  0  0  0  0
   -0.5840   20.9329   -8.0421 C   0  0  0  0  0  0  0  0  0  0  0  0
   -0.8294   22.0839   -7.2941 C   0  0  0  0  0  0  0  0  0  0  0  0
   -9.6132   25.4262   -1.1773 C   0  0  0  0  0  0  0  0  0  0  0  0
   -9.2834   24.9173    0.5355 P   0  0  0  0  0  0  0  0  0  0  0  0
   -7.8641   25.3156    0.8761 O   0  0  0  0  0  0  0  0  0  0  0  0
   -9.6238   23.4596    0.6984 O   0  0  0  0  0  0  0  0  0  0  0  0
   -7.2459   24.8163    0.3198 H   0  0  0  0  0  0  0  0  0  0  0  0
  -10.3788   25.8248    1.5451 C   0  0  0  0  0  0  0  0  0  0  0  0
  -11.2206   26.7468    0.9464 C   0  0  0  0  0  0  0  0  0  0  0  0
  -12.0956   27.4921    1.7298 C   0  0  0  0  0  0  0  0  0  0  0  0
  -12.1072   27.3110    3.1020 C   0  0  0  0  0  0  0  0  0  0  0  0
  -13.3229   28.3623    4.1195 Br  0  0  0  0  0  0  0  0  0  0  0  0
  -11.2495   26.3941    3.7062 C   0  0  0  0  0  0  0  0  0  0  0  0
  -10.3772   25.6380    2.9259 C   0  0  0  0  0  0  0  0  0  0  0  0
 13 12  1  0  0  0
 15 14  2  0  0  0
 12 14  1  0  0  0
 12 10  1  0  0  0
 14 16  1  0  0  0
 31 32  1  0  0  0
 32 34  2  0  0  0
 32 33  1  0  0  0
 34 35  1  0  0  0
 10  8  1  0  0  0
 33 37  2  0  0  0
 27 26  2  0  0  0
 27 28  1  0  0  0
 35 36  2  0  0  0
 37 36  1  0  0  0
 37 28  1  0  0  0
 26 25  1  0  0  0
 28 29  2  0  0  0
  9  8  2  0  0  0
  8  6  1  0  0  0
 25 23  1  0  0  0
 25 30  2  0  0  0
 20 23  2  0  0  0
 20 21  1  0  0  0
 29 30  1  0  0  0
 23 22  1  0  0  0
 21 24  1  0  0  0
  6  7  1  0  0  0
  6  4  1  0  0  0
  2  3  2  0  0  0
 22 24  2  0  0  0
 24 19  1  0  0  0
  4  3  1  0  0  0
  3  1  1  0  0  0
 19  1  1  0  0  0
  1 38  1  0  0  0
 38 39  1  0  0  0
 39 41  2  0  0  0
 39 40  1  0  0  0
 39 43  1  0  0  0
 49 43  2  0  0  0
 49 48  1  0  0  0
 43 44  1  0  0  0
 48 46  2  0  0  0
 44 45  2  0  0  0
 46 45  1  0  0  0
 46 47  1  0  0  0
 40 42  1  0  0  0
  4  5  1  0  0  0
 10 11  1  0  0  0
 16 17  1  0  0  0
 16 18  1  0  0  0
M  END
> <minimizedAffinity>
-10.59690

$$$$
4GR0_R4B_A_306


 49 52  0  0  0  0  0  0  0  0999 V2000
   -8.4918   25.6803   -2.0623 C   0  0  0  0  0  0  0  0  0  0  0  0
   -8.5921   27.8520   -3.0320 O   0  0  0  0  0  0  0  0  0  0  0  0
   -8.4275   27.1737   -2.0001 C   0  0  0  0  0  0  0  0  0  0  0  0
   -8.1961   27.7239   -0.8188 N   0  0  0  0  0  0  0  0  0  0  0  0
   -7.9625   27.1579   -0.0479 H   0  0  0  0  0  0  0  0  0  0  0  0
   -8.2881   29.1724   -0.6621 C   0  0  0  0  0  0  0  0  0  0  0  0
   -9.1791   29.5196    0.5177 C   0  0  0  0  0  0  0  0  0  0  0  0
   -6.9232   29.8472   -0.5246 C   0  0  0  0  0  0  0  0  0  0  0  0
   -6.0935   29.8030   -1.4409 O   0  0  0  0  0  0  0  0  0  0  0  0
   -6.6962   30.4870    0.6177 N   0  0  0  0  0  0  0  0  0  0  0  0
   -7.4290   30.6071    1.2641 H   0  0  0  0  0  0  0  0  0  0  0  0
   -5.3744   31.0109    0.9204 C   0  0  0  0  0  0  0  0  0  0  0  0
   -5.4097   32.5346    1.0164 C   0  0  0  0  0  0  0  0  0  0  0  0
   -4.8946   30.3927    2.2339 C   0  0  0  0  0  0  0  0  0  0  0  0
   -3.7111   30.4691    2.5784 O   0  0  0  0  0  0  0  0  0  0  0  0
   -5.8181   29.7620    2.9539 N   0  0  0  0  0  0  0  0  0  0  0  0
   -5.5730   29.3424    3.8101 H   0  0  0  0  0  0  0  0  0  0  0  0
   -6.7468   29.7147    2.6306 H   0  0  0  0  0  0  0  0  0  0  0  0
   -8.8171   25.3165   -3.4999 C   0  0  0  0  0  0  0  0  0  0  0  0
   -7.1065   22.8569   -5.6320 N   0  0  0  0  0  0  0  0  0  0  0  0
   -8.1270   23.4431   -5.0219 O   0  0  0  0  0  0  0  0  0  0  0  0
   -6.3984   24.6284   -4.4181 C   0  0  0  0  0  0  0  0  0  0  0  0
   -6.0185   23.5743   -5.2689 C   0  0  0  0  0  0  0  0  0  0  0  0
   -7.7836   24.5241   -4.2766 C   0  0  0  0  0  0  0  0  0  0  0  0
   -4.6557   23.2049   -5.7229 C   0  0  0  0  0  0  0  0  0  0  0  0
   -3.5551   23.8676   -5.1900 C   0  0  0  0  0  0  0  0  0  0  0  0
   -2.2728   23.5397   -5.6337 C   0  0  0  0  0  0  0  0  0  0  0  0
   -2.1219   22.5618   -6.6136 C   0  0  0  0  0  0  0  0  0  0  0  0
   -3.2351   21.9310   -7.1581 C   0  0  0  0  0  0  0  0  0  0  0  0
   -4.5091   22.2529   -6.7212 C   0  0  0  0  0  0  0  0  0  0  0  0
    3.0259   23.4647   -7.4098 Cl  0  0  0  0  0  0  0  0  0  0  0  0
    1.5344   22.4936   -7.6076 C   0  0  0  0  0  0  0  0  0  0  0  0
    0.3400   22.9249   -7.0260 C   0  0  0  0  0  0  0  0  0  0  0  0
    1.5831   21.3172   -8.3462 C   0  0  0  0  0  0  0  0  0  0  0  0
    0.4359   20.5549   -8.5119 C   0  0  0  0  0  0  0  0  0  0  0  0
   -0.7524   20.9798   -7.9321 C   0  0  0  0  0  0  0  0  0  0  0  0
   -0.8013   22.1497   -7.1748 C   0  0  0  0  0  0  0  0  0  0  0  0
   -9.6833   25.2583   -1.2033 C   0  0  0  0  0  0  0  0  0  0  0  0
   -9.2744   24.8160    0.5110 P   0  0  0  0  0  0  0  0  0  0  0  0
   -7.8370   25.2133    0.7657 O   0  0  0  0  0  0  0  0  0  0  0  0
   -9.6182   23.3695    0.7498 O   0  0  0  0  0  0  0  0  0  0  0  0
   -7.2507   24.6856    0.2011 H   0  0  0  0  0  0  0  0  0  0  0  0
  -10.3117   25.7747    1.5344 C   0  0  0  0  0  0  0  0  0  0  0  0
   -9.9412   25.9710    2.8540 C   0  0  0  0  0  0  0  0  0  0  0  0
  -10.7564   26.7218    3.6946 C   0  0  0  0  0  0  0  0  0  0  0  0
  -11.9356   27.2556    3.2046 C   0  0  0  0  0  0  0  0  0  0  0  0
  -13.0095   28.2693    4.4038 Br  0  0  0  0  0  0  0  0  0  0  0  0
  -12.3162   27.0455    1.8807 C   0  0  0  0  0  0  0  0  0  0  0  0
  -11.4993   26.3021    1.0313 C   0  0  0  0  0  0  0  0  0  0  0  0
 13 12  1  0  0  0
 15 14  2  0  0  0
 12 14  1  0  0  0
 12 10  1  0  0  0
 14 16  1  0  0  0
 31 32  1  0  0  0
 32 34  2  0  0  0
 32 33  1  0  0  0
 34 35  1  0  0  0
 10  8  1  0  0  0
 33 37  2  0  0  0
 27 26  2  0  0  0
 27 28  1  0  0  0
 35 36  2  0  0  0
 37 36  1  0  0  0
 37 28  1  0  0  0
 26 25  1  0  0  0
 28 29  2  0  0  0
  9  8  2  0  0  0
  8  6  1  0  0  0
 25 23  1  0  0  0
 25 30  2  0  0  0
 20 23  2  0  0  0
 20 21  1  0  0  0
 29 30  1  0  0  0
 23 22  1  0  0  0
 21 24  1  0  0  0
  6  7  1  0  0  0
  6  4  1  0  0  0
  2  3  2  0  0  0
 22 24  2  0  0  0
 24 19  1  0  0  0
  4  3  1  0  0  0
  3  1  1  0  0  0
 19  1  1  0  0  0
  1 38  1  0  0  0
 38 39  1  0  0  0
 39 41  2  0  0  0
 39 40  1  0  0  0
 39 43  1  0  0  0
 49 43  2  0  0  0
 49 48  1  0  0  0
 43 44  1  0  0  0
 48 46  2  0  0  0
 44 45  2  0  0  0
 46 45  1  0  0  0
 46 47  1  0  0  0
 40 42  1  0  0  0
  4  5  1  0  0  0
 10 11  1  0  0  0
 16 17  1  0  0  0
 16 18  1  0  0  0
M  END
> <minimizedAffinity>
-10.42073

$$$$
4GR0_R4B_A_306


 49 52  0  0  0  0  0  0  0  0999 V2000
   -9.3785   26.5505   -0.3093 C   0  0  0  0  0  0  0  0  0  0  0  0
   -8.1522   24.8574    0.8292 O   0  0  0  0  0  0  0  0  0  0  0  0
   -9.0966   25.6691    0.8662 C   0  0  0  0  0  0  0  0  0  0  0  0
   -9.8818   25.7963    1.9241 N   0  0  0  0  0  0  0  0  0  0  0  0
  -10.6828   26.3669    1.8785 H   0  0  0  0  0  0  0  0  0  0  0  0
   -9.5569   25.0882    3.1587 C   0  0  0  0  0  0  0  0  0  0  0  0
   -9.5198   26.0567    4.3279 C   0  0  0  0  0  0  0  0  0  0  0  0
  -10.5071   23.9266    3.4500 C   0  0  0  0  0  0  0  0  0  0  0  0
  -10.3909   22.8437    2.8635 O   0  0  0  0  0  0  0  0  0  0  0  0
  -11.4401   24.1470    4.3700 N   0  0  0  0  0  0  0  0  0  0  0  0
  -11.4150   24.9747    4.9025 H   0  0  0  0  0  0  0  0  0  0  0  0
  -12.4977   23.1757    4.5965 C   0  0  0  0  0  0  0  0  0  0  0  0
  -12.5810   22.8076    6.0762 C   0  0  0  0  0  0  0  0  0  0  0  0
  -13.8184   23.7707    4.1074 C   0  0  0  0  0  0  0  0  0  0  0  0
  -14.8508   23.0934    4.0812 O   0  0  0  0  0  0  0  0  0  0  0  0
  -13.7734   25.0363    3.7008 N   0  0  0  0  0  0  0  0  0  0  0  0
  -14.5904   25.4778    3.3741 H   0  0  0  0  0  0  0  0  0  0  0  0
  -12.9229   25.5316    3.7265 H   0  0  0  0  0  0  0  0  0  0  0  0
  -10.0502   25.6806   -1.3566 C   0  0  0  0  0  0  0  0  0  0  0  0
   -8.8908   24.7528   -4.7206 N   0  0  0  0  0  0  0  0  0  0  0  0
   -9.7466   25.1596   -3.7935 O   0  0  0  0  0  0  0  0  0  0  0  0
   -7.8915   24.8326   -2.6937 C   0  0  0  0  0  0  0  0  0  0  0  0
   -7.7296   24.5393   -4.0601 C   0  0  0  0  0  0  0  0  0  0  0  0
   -9.2184   25.2417   -2.5461 C   0  0  0  0  0  0  0  0  0  0  0  0
   -6.5210   24.0327   -4.7547 C   0  0  0  0  0  0  0  0  0  0  0  0
   -6.6448   22.9931   -5.6703 C   0  0  0  0  0  0  0  0  0  0  0  0
   -5.5056   22.4971   -6.3069 C   0  0  0  0  0  0  0  0  0  0  0  0
   -4.2629   23.0461   -6.0015 C   0  0  0  0  0  0  0  0  0  0  0  0
   -4.1532   24.0639   -5.0604 C   0  0  0  0  0  0  0  0  0  0  0  0
   -5.2803   24.5592   -4.4263 C   0  0  0  0  0  0  0  0  0  0  0  0
    0.9195   23.6563   -6.8499 Cl  0  0  0  0  0  0  0  0  0  0  0  0
   -0.6344   22.7927   -7.0650 C   0  0  0  0  0  0  0  0  0  0  0  0
   -1.7893   23.2710   -6.4419 C   0  0  0  0  0  0  0  0  0  0  0  0
   -0.6731   21.6520   -7.8582 C   0  0  0  0  0  0  0  0  0  0  0  0
   -1.8694   20.9730   -8.0379 C   0  0  0  0  0  0  0  0  0  0  0  0
   -3.0188   21.4446   -7.4171 C   0  0  0  0  0  0  0  0  0  0  0  0
   -2.9805   22.5779   -6.6055 C   0  0  0  0  0  0  0  0  0  0  0  0
   -8.0225   26.9769   -0.8706 C   0  0  0  0  0  0  0  0  0  0  0  0
   -7.6414   28.7448   -0.6952 P   0  0  0  0  0  0  0  0  0  0  0  0
   -8.2773   29.4772   -1.8563 O   0  0  0  0  0  0  0  0  0  0  0  0
   -6.1553   28.9219   -0.5290 O   0  0  0  0  0  0  0  0  0  0  0  0
   -7.8632   29.1903   -2.6852 H   0  0  0  0  0  0  0  0  0  0  0  0
   -8.3985   29.2736    0.7846 C   0  0  0  0  0  0  0  0  0  0  0  0
   -7.7949   28.9521    1.9885 C   0  0  0  0  0  0  0  0  0  0  0  0
   -8.3840   29.3515    3.1836 C   0  0  0  0  0  0  0  0  0  0  0  0
   -9.5742   30.0575    3.1560 C   0  0  0  0  0  0  0  0  0  0  0  0
  -10.3325   30.5721    4.8229 Br  0  0  0  0  0  0  0  0  0  0  0  0
  -10.1897   30.3681    1.9451 C   0  0  0  0  0  0  0  0  0  0  0  0
   -9.5997   29.9787    0.7443 C   0  0  0  0  0  0  0  0  0  0  0  0
 13 12  1  0  0  0
 15 14  2  0  0  0
 12 14  1  0  0  0
 12 10  1  0  0  0
 14 16  1  0  0  0
 31 32  1  0  0  0
 32 34  2  0  0  0
 32 33  1  0  0  0
 34 35  1  0  0  0
 10  8  1  0  0  0
 33 37  2  0  0  0
 27 26  2  0  0  0
 27 28  1  0  0  0
 35 36  2  0  0  0
 37 36  1  0  0  0
 37 28  1  0  0  0
 26 25  1  0  0  0
 28 29  2  0  0  0
  9  8  2  0  0  0
  8  6  1  0  0  0
 25 23  1  0  0  0
 25 30  2  0  0  0
 20 23  2  0  0  0
 20 21  1  0  0  0
 29 30  1  0  0  0
 23 22  1  0  0  0
 21 24  1  0  0  0
  6  7  1  0  0  0
  6  4  1  0  0  0
  2  3  2  0  0  0
 22 24  2  0  0  0
 24 19  1  0  0  0
  4  3  1  0  0  0
  3  1  1  0  0  0
 19  1  1  0  0  0
  1 38  1  0  0  0
 38 39  1  0  0  0
 39 41  2  0  0  0
 39 40  1  0  0  0
 39 43  1  0  0  0
 49 43  2  0  0  0
 49 48  1  0  0  0
 43 44  1  0  0  0
 48 46  2  0  0  0
 44 45  2  0  0  0
 46 45  1  0  0  0
 46 47  1  0  0  0
 40 42  1  0  0  0
  4  5  1  0  0  0
 10 11  1  0  0  0
 16 17  1  0  0  0
 16 18  1  0  0  0
M  END
> <minimizedAffinity>
-9.80360

$$$$
