1C1R_BAI_A_246


 27 30  0  0  0  0  0  0  0  0999 V2000
   45.1524   19.3915   52.8016 C   0  0  0  0  0  0  0  0  0  0  0  0
   44.5617   19.0748   51.5218 C   0  0  0  0  0  0  0  0  0  0  0  0
   44.3066   20.0690   50.5559 C   0  0  0  0  0  0  0  0  0  0  0  0
   44.6653   21.3522   50.9123 C   0  0  0  0  0  0  0  0  0  0  0  0
   45.2148   21.6615   52.0946 C   0  0  0  0  0  0  0  0  0  0  0  0
   45.4762   20.7422   53.0601 C   0  0  0  0  0  0  0  0  0  0  0  0
   45.0164   23.4395   50.9861 C   0  0  0  0  0  0  0  0  0  0  0  0
   44.5522   22.4681   50.2445 N   0  0  0  0  0  0  0  0  0  0  0  0
   45.4249   22.9502   52.1161 N   0  0  0  0  0  0  0  0  0  0  0  0
   44.1809   22.5621   49.3376 H   0  0  0  0  0  0  0  0  0  0  0  0
   45.4021   18.4357   53.7897 C   0  0  0  0  0  0  0  0  0  0  0  0
   44.8776   17.2478   53.6933 N   0  0  0  0  0  0  0  0  0  0  0  0
   46.1505   18.7405   54.8091 N   0  0  0  0  0  0  0  0  0  0  0  0
   44.3117   17.0208   52.9203 H   0  0  0  0  0  0  0  0  0  0  0  0
   45.0469   16.5766   54.3933 H   0  0  0  0  0  0  0  0  0  0  0  0
   46.5453   19.6397   54.8785 H   0  0  0  0  0  0  0  0  0  0  0  0
   45.0356   24.9549   50.5726 C   0  0  0  0  0  0  0  0  0  0  0  0
   44.3020   25.3974   44.6491 C   0  0  0  0  0  0  0  0  0  0  0  0
   45.2973   26.4162   44.7548 C   0  0  0  0  0  0  0  0  0  0  0  0
   45.8692   26.7705   46.0083 C   0  0  0  0  0  0  0  0  0  0  0  0
   45.4026   26.0705   47.1069 C   0  0  0  0  0  0  0  0  0  0  0  0
   44.4515   25.1030   46.9868 C   0  0  0  0  0  0  0  0  0  0  0  0
   43.8576   24.7154   45.7942 C   0  0  0  0  0  0  0  0  0  0  0  0
   45.0172   25.2719   49.0259 C   0  0  0  0  0  0  0  0  0  0  0  0
   45.7358   26.1541   48.3808 N   0  0  0  0  0  0  0  0  0  0  0  0
   44.2473   24.6480   48.1780 N   0  0  0  0  0  0  0  0  0  0  0  0
   46.4005   26.7657   48.7723 H   0  0  0  0  0  0  0  0  0  0  0  0
  1  2  1  0  0  0
  1  6  2  0  0  0
  1 11  1  0  0  0
  2  3  2  0  0  0
  3  4  1  0  0  0
  4  5  2  0  0  0
  4  8  1  0  0  0
  5  6  1  0  0  0
  5  9  1  0  0  0
 11 12  1  0  0  0
 11 13  2  0  0  0
  7 17  1  0  0  0
  7  8  1  0  0  0
  7  9  2  0  0  0
 17 24  1  0  0  0
 18 19  1  0  0  0
 18 23  2  0  0  0
 19 20  2  0  0  0
 20 21  1  0  0  0
 21 22  2  0  0  0
 21 25  1  0  0  0
 22 23  1  0  0  0
 22 26  1  0  0  0
 24 25  1  0  0  0
 24 26  2  0  0  0
 12 14  1  0  0  0
 12 15  1  0  0  0
 13 16  1  0  0  0
  8 10  1  0  0  0
 25 27  1  0  0  0
M  END
> <minimizedAffinity>
-8.31366

$$$$
1C1R_BAI_A_246


 27 30  0  0  0  0  0  0  0  0999 V2000
   45.0446   19.6683   52.4905 C   0  0  0  0  0  0  0  0  0  0  0  0
   46.1050   20.4319   53.1065 C   0  0  0  0  0  0  0  0  0  0  0  0
   46.3087   21.7940   52.8075 C   0  0  0  0  0  0  0  0  0  0  0  0
   45.4271   22.3434   51.9002 C   0  0  0  0  0  0  0  0  0  0  0  0
   44.4383   21.6486   51.3213 C   0  0  0  0  0  0  0  0  0  0  0  0
   44.2032   20.3342   51.5716 C   0  0  0  0  0  0  0  0  0  0  0  0
   44.3675   23.6176   50.5814 C   0  0  0  0  0  0  0  0  0  0  0  0
   45.3632   23.5581   51.4265 N   0  0  0  0  0  0  0  0  0  0  0  0
   43.7981   22.4537   50.5166 N   0  0  0  0  0  0  0  0  0  0  0  0
   45.9623   24.3021   51.6648 H   0  0  0  0  0  0  0  0  0  0  0  0
   44.8247   18.3128   52.7484 C   0  0  0  0  0  0  0  0  0  0  0  0
   43.8055   17.7053   52.2120 N   0  0  0  0  0  0  0  0  0  0  0  0
   45.6349   17.6647   53.5331 N   0  0  0  0  0  0  0  0  0  0  0  0
   43.1945   18.1991   51.6187 H   0  0  0  0  0  0  0  0  0  0  0  0
   43.6459   16.7521   52.3999 H   0  0  0  0  0  0  0  0  0  0  0  0
   46.4044   18.1274   53.9368 H   0  0  0  0  0  0  0  0  0  0  0  0
   43.9626   24.8932   49.7588 C   0  0  0  0  0  0  0  0  0  0  0  0
   46.8578   25.0326   44.5223 C   0  0  0  0  0  0  0  0  0  0  0  0
   47.2130   26.3555   44.9268 C   0  0  0  0  0  0  0  0  0  0  0  0
   46.7691   26.8997   46.1640 C   0  0  0  0  0  0  0  0  0  0  0  0
   45.9788   26.0717   46.9416 C   0  0  0  0  0  0  0  0  0  0  0  0
   45.6491   24.8133   46.5384 C   0  0  0  0  0  0  0  0  0  0  0  0
   46.0503   24.2298   45.3452 C   0  0  0  0  0  0  0  0  0  0  0  0
   44.7840   25.1822   48.4416 C   0  0  0  0  0  0  0  0  0  0  0  0
   45.4302   26.2742   48.1243 N   0  0  0  0  0  0  0  0  0  0  0  0
   44.9206   24.3121   47.4797 N   0  0  0  0  0  0  0  0  0  0  0  0
   45.4951   27.0935   48.6663 H   0  0  0  0  0  0  0  0  0  0  0  0
  1  2  1  0  0  0
  1  6  2  0  0  0
  1 11  1  0  0  0
  2  3  2  0  0  0
  3  4  1  0  0  0
  4  5  2  0  0  0
  4  8  1  0  0  0
  5  6  1  0  0  0
  5  9  1  0  0  0
 11 12  1  0  0  0
 11 13  2  0  0  0
  7 17  1  0  0  0
  7  8  1  0  0  0
  7  9  2  0  0  0
 17 24  1  0  0  0
 18 19  1  0  0  0
 18 23  2  0  0  0
 19 20  2  0  0  0
 20 21  1  0  0  0
 21 22  2  0  0  0
 21 25  1  0  0  0
 22 23  1  0  0  0
 22 26  1  0  0  0
 24 25  1  0  0  0
 24 26  2  0  0  0
 12 14  1  0  0  0
 12 15  1  0  0  0
 13 16  1  0  0  0
  8 10  1  0  0  0
 25 27  1  0  0  0
M  END
> <minimizedAffinity>
-7.90367

$$$$
1C1R_BAI_A_246


 27 30  0  0  0  0  0  0  0  0999 V2000
   45.3617   25.6251   45.4609 C   0  0  0  0  0  0  0  0  0  0  0  0
   44.4390   26.7278   45.6009 C   0  0  0  0  0  0  0  0  0  0  0  0
   43.6868   26.9213   46.7769 C   0  0  0  0  0  0  0  0  0  0  0  0
   43.8985   25.9970   47.7786 C   0  0  0  0  0  0  0  0  0  0  0  0
   44.7514   24.9698   47.6642 C   0  0  0  0  0  0  0  0  0  0  0  0
   45.4950   24.7370   46.5514 C   0  0  0  0  0  0  0  0  0  0  0  0
   43.8556   24.8611   49.5655 C   0  0  0  0  0  0  0  0  0  0  0  0
   43.3564   25.9082   48.9627 N   0  0  0  0  0  0  0  0  0  0  0  0
   44.7104   24.2868   48.7765 N   0  0  0  0  0  0  0  0  0  0  0  0
   42.6863   26.5243   49.3377 H   0  0  0  0  0  0  0  0  0  0  0  0
   46.1093   25.3916   44.3038 C   0  0  0  0  0  0  0  0  0  0  0  0
   45.7833   25.9799   43.1887 N   0  0  0  0  0  0  0  0  0  0  0  0
   47.1234   24.5778   44.3430 N   0  0  0  0  0  0  0  0  0  0  0  0
   45.0152   26.5951   43.1630 H   0  0  0  0  0  0  0  0  0  0  0  0
   46.3051   25.8094   42.3714 H   0  0  0  0  0  0  0  0  0  0  0  0
   47.3667   24.1349   45.1878 H   0  0  0  0  0  0  0  0  0  0  0  0
   43.4474   24.3716   51.0013 C   0  0  0  0  0  0  0  0  0  0  0  0
   45.6425   19.2905   53.2786 C   0  0  0  0  0  0  0  0  0  0  0  0
   44.9515   18.6810   52.1873 C   0  0  0  0  0  0  0  0  0  0  0  0
   44.1998   19.4530   51.2584 C   0  0  0  0  0  0  0  0  0  0  0  0
   44.1824   20.8188   51.4793 C   0  0  0  0  0  0  0  0  0  0  0  0
   44.8464   21.3820   52.5267 C   0  0  0  0  0  0  0  0  0  0  0  0
   45.5933   20.6823   53.4636 C   0  0  0  0  0  0  0  0  0  0  0  0
   43.8881   22.9110   51.4085 C   0  0  0  0  0  0  0  0  0  0  0  0
   43.5978   21.7889   50.8025 N   0  0  0  0  0  0  0  0  0  0  0  0
   44.6370   22.6537   52.4448 N   0  0  0  0  0  0  0  0  0  0  0  0
   43.0465   21.6871   49.9932 H   0  0  0  0  0  0  0  0  0  0  0  0
  1  2  1  0  0  0
  1  6  2  0  0  0
  1 11  1  0  0  0
  2  3  2  0  0  0
  3  4  1  0  0  0
  4  5  2  0  0  0
  4  8  1  0  0  0
  5  6  1  0  0  0
  5  9  1  0  0  0
 11 12  1  0  0  0
 11 13  2  0  0  0
  7 17  1  0  0  0
  7  8  1  0  0  0
  7  9  2  0  0  0
 17 24  1  0  0  0
 18 19  1  0  0  0
 18 23  2  0  0  0
 19 20  2  0  0  0
 20 21  1  0  0  0
 21 22  2  0  0  0
 21 25  1  0  0  0
 22 23  1  0  0  0
 22 26  1  0  0  0
 24 25  1  0  0  0
 24 26  2  0  0  0
 12 14  1  0  0  0
 12 15  1  0  0  0
 13 16  1  0  0  0
  8 10  1  0  0  0
 25 27  1  0  0  0
M  END
> <minimizedAffinity>
-7.25207

$$$$
1C1R_BAI_A_246


 27 30  0  0  0  0  0  0  0  0999 V2000
   45.4216   20.4136   52.5911 C   0  0  0  0  0  0  0  0  0  0  0  0
   46.5009   21.3214   52.9045 C   0  0  0  0  0  0  0  0  0  0  0  0
   46.5098   22.6520   52.4401 C   0  0  0  0  0  0  0  0  0  0  0  0
   45.4212   23.0252   51.6798 C   0  0  0  0  0  0  0  0  0  0  0  0
   44.4122   22.1954   51.3816 C   0  0  0  0  0  0  0  0  0  0  0  0
   44.3588   20.9041   51.8002 C   0  0  0  0  0  0  0  0  0  0  0  0
   44.0094   24.0559   50.4841 C   0  0  0  0  0  0  0  0  0  0  0  0
   45.1496   24.1695   51.1133 N   0  0  0  0  0  0  0  0  0  0  0  0
   43.5543   22.8521   50.6480 N   0  0  0  0  0  0  0  0  0  0  0  0
   45.7079   24.9794   51.1532 H   0  0  0  0  0  0  0  0  0  0  0  0
   45.3884   19.0836   53.0180 C   0  0  0  0  0  0  0  0  0  0  0  0
   46.2101   18.6762   53.9424 N   0  0  0  0  0  0  0  0  0  0  0  0
   44.5423   18.2538   52.4817 N   0  0  0  0  0  0  0  0  0  0  0  0
   46.8491   19.3072   54.3460 H   0  0  0  0  0  0  0  0  0  0  0  0
   46.1923   17.7372   54.2379 H   0  0  0  0  0  0  0  0  0  0  0  0
   43.9227   18.5655   51.7830 H   0  0  0  0  0  0  0  0  0  0  0  0
   43.3318   25.1945   49.6402 C   0  0  0  0  0  0  0  0  0  0  0  0
   44.4294   26.3996   43.8812 C   0  0  0  0  0  0  0  0  0  0  0  0
   45.6579   25.7146   44.1293 C   0  0  0  0  0  0  0  0  0  0  0  0
   45.9669   25.1816   45.4116 C   0  0  0  0  0  0  0  0  0  0  0  0
   45.0089   25.3684   46.3924 C   0  0  0  0  0  0  0  0  0  0  0  0
   43.8436   26.0258   46.1375 C   0  0  0  0  0  0  0  0  0  0  0  0
   43.4879   26.5669   44.9104 C   0  0  0  0  0  0  0  0  0  0  0  0
   43.8579   25.3978   48.1653 C   0  0  0  0  0  0  0  0  0  0  0  0
   44.9914   24.9896   47.6561 N   0  0  0  0  0  0  0  0  0  0  0  0
   43.1775   26.0215   47.2439 N   0  0  0  0  0  0  0  0  0  0  0  0
   45.6988   24.4929   48.1274 H   0  0  0  0  0  0  0  0  0  0  0  0
  1  2  1  0  0  0
  1  6  2  0  0  0
  1 11  1  0  0  0
  2  3  2  0  0  0
  3  4  1  0  0  0
  4  5  2  0  0  0
  4  8  1  0  0  0
  5  6  1  0  0  0
  5  9  1  0  0  0
 11 12  1  0  0  0
 11 13  2  0  0  0
  7 17  1  0  0  0
  7  8  1  0  0  0
  7  9  2  0  0  0
 17 24  1  0  0  0
 18 19  1  0  0  0
 18 23  2  0  0  0
 19 20  2  0  0  0
 20 21  1  0  0  0
 21 22  2  0  0  0
 21 25  1  0  0  0
 22 23  1  0  0  0
 22 26  1  0  0  0
 24 25  1  0  0  0
 24 26  2  0  0  0
 12 14  1  0  0  0
 12 15  1  0  0  0
 13 16  1  0  0  0
  8 10  1  0  0  0
 25 27  1  0  0  0
M  END
> <minimizedAffinity>
-7.25087

$$$$
1C1R_BAI_A_246


 27 30  0  0  0  0  0  0  0  0999 V2000
   43.3135   25.9646   45.5512 C   0  0  0  0  0  0  0  0  0  0  0  0
   42.4776   26.9148   46.2479 C   0  0  0  0  0  0  0  0  0  0  0  0
   42.4907   27.0243   47.6529 C   0  0  0  0  0  0  0  0  0  0  0  0
   43.3562   26.1741   48.3089 C   0  0  0  0  0  0  0  0  0  0  0  0
   44.1384   25.2884   47.6769 C   0  0  0  0  0  0  0  0  0  0  0  0
   44.1593   25.1406   46.3266 C   0  0  0  0  0  0  0  0  0  0  0  0
   44.4824   25.0988   49.7445 C   0  0  0  0  0  0  0  0  0  0  0  0
   43.5865   26.0376   49.5866 N   0  0  0  0  0  0  0  0  0  0  0  0
   44.8242   24.6406   48.5799 N   0  0  0  0  0  0  0  0  0  0  0  0
   43.1586   26.5534   50.3078 H   0  0  0  0  0  0  0  0  0  0  0  0
   43.3130   25.8153   44.1619 C   0  0  0  0  0  0  0  0  0  0  0  0
   42.2196   26.0220   43.4856 N   0  0  0  0  0  0  0  0  0  0  0  0
   44.4044   25.4598   43.5499 N   0  0  0  0  0  0  0  0  0  0  0  0
   41.3955   26.2910   43.9524 H   0  0  0  0  0  0  0  0  0  0  0  0
   42.2170   25.9093   42.5076 H   0  0  0  0  0  0  0  0  0  0  0  0
   45.2291   25.3044   44.0646 H   0  0  0  0  0  0  0  0  0  0  0  0
   45.0205   24.5949   51.1317 C   0  0  0  0  0  0  0  0  0  0  0  0
   45.3868   18.8976   52.9287 C   0  0  0  0  0  0  0  0  0  0  0  0
   44.5986   18.6391   51.7661 C   0  0  0  0  0  0  0  0  0  0  0  0
   44.1775   19.6895   50.9040 C   0  0  0  0  0  0  0  0  0  0  0  0
   44.5776   20.9648   51.2622 C   0  0  0  0  0  0  0  0  0  0  0  0
   45.3280   21.1921   52.3759 C   0  0  0  0  0  0  0  0  0  0  0  0
   45.7668   20.2107   53.2531 C   0  0  0  0  0  0  0  0  0  0  0  0
   44.9585   23.0397   51.3979 C   0  0  0  0  0  0  0  0  0  0  0  0
   44.3636   22.1266   50.6747 N   0  0  0  0  0  0  0  0  0  0  0  0
   45.5326   22.4664   52.4191 N   0  0  0  0  0  0  0  0  0  0  0  0
   43.8521   22.2778   49.8472 H   0  0  0  0  0  0  0  0  0  0  0  0
  1  2  1  0  0  0
  1  6  2  0  0  0
  1 11  1  0  0  0
  2  3  2  0  0  0
  3  4  1  0  0  0
  4  5  2  0  0  0
  4  8  1  0  0  0
  5  6  1  0  0  0
  5  9  1  0  0  0
 11 12  1  0  0  0
 11 13  2  0  0  0
  7 17  1  0  0  0
  7  8  1  0  0  0
  7  9  2  0  0  0
 17 24  1  0  0  0
 18 19  1  0  0  0
 18 23  2  0  0  0
 19 20  2  0  0  0
 20 21  1  0  0  0
 21 22  2  0  0  0
 21 25  1  0  0  0
 22 23  1  0  0  0
 22 26  1  0  0  0
 24 25  1  0  0  0
 24 26  2  0  0  0
 12 14  1  0  0  0
 12 15  1  0  0  0
 13 16  1  0  0  0
  8 10  1  0  0  0
 25 27  1  0  0  0
M  END
> <minimizedAffinity>
-7.10210

$$$$
1C1R_BAI_A_246


 27 30  0  0  0  0  0  0  0  0999 V2000
   45.1027   19.8177   52.4430 C   0  0  0  0  0  0  0  0  0  0  0  0
   46.1188   20.5863   53.1242 C   0  0  0  0  0  0  0  0  0  0  0  0
   46.3343   21.9494   52.8383 C   0  0  0  0  0  0  0  0  0  0  0  0
   45.5086   22.4947   51.8774 C   0  0  0  0  0  0  0  0  0  0  0  0
   44.5614   21.7952   51.2378 C   0  0  0  0  0  0  0  0  0  0  0  0
   44.3174   20.4797   51.4731 C   0  0  0  0  0  0  0  0  0  0  0  0
   44.5277   23.7640   50.4946 C   0  0  0  0  0  0  0  0  0  0  0  0
   45.4687   23.7091   51.4004 N   0  0  0  0  0  0  0  0  0  0  0  0
   43.9691   22.5973   50.3944 N   0  0  0  0  0  0  0  0  0  0  0  0
   46.0482   24.4559   51.6757 H   0  0  0  0  0  0  0  0  0  0  0  0
   44.8737   18.4611   52.6869 C   0  0  0  0  0  0  0  0  0  0  0  0
   43.8674   17.8590   52.1207 N   0  0  0  0  0  0  0  0  0  0  0  0
   45.6621   17.8065   53.4882 N   0  0  0  0  0  0  0  0  0  0  0  0
   43.2728   18.3577   51.5149 H   0  0  0  0  0  0  0  0  0  0  0  0
   43.7011   16.9050   52.2985 H   0  0  0  0  0  0  0  0  0  0  0  0
   46.4218   18.2651   53.9144 H   0  0  0  0  0  0  0  0  0  0  0  0
   44.1690   25.0377   49.6480 C   0  0  0  0  0  0  0  0  0  0  0  0
   48.6830   27.7849   46.8374 C   0  0  0  0  0  0  0  0  0  0  0  0
   48.8001   28.5137   48.0601 C   0  0  0  0  0  0  0  0  0  0  0  0
   47.9255   28.2736   49.1562 C   0  0  0  0  0  0  0  0  0  0  0  0
   46.9639   27.2978   48.9618 C   0  0  0  0  0  0  0  0  0  0  0  0
   46.8665   26.6141   47.7879 C   0  0  0  0  0  0  0  0  0  0  0  0
   47.6881   26.8044   46.6862 C   0  0  0  0  0  0  0  0  0  0  0  0
   45.3772   25.9108   49.1273 C   0  0  0  0  0  0  0  0  0  0  0  0
   46.0296   26.8418   49.7742 N   0  0  0  0  0  0  0  0  0  0  0  0
   45.8875   25.7846   47.9337 N   0  0  0  0  0  0  0  0  0  0  0  0
   45.8561   27.1453   50.6945 H   0  0  0  0  0  0  0  0  0  0  0  0
  1  2  1  0  0  0
  1  6  2  0  0  0
  1 11  1  0  0  0
  2  3  2  0  0  0
  3  4  1  0  0  0
  4  5  2  0  0  0
  4  8  1  0  0  0
  5  6  1  0  0  0
  5  9  1  0  0  0
 11 12  1  0  0  0
 11 13  2  0  0  0
  7 17  1  0  0  0
  7  8  1  0  0  0
  7  9  2  0  0  0
 17 24  1  0  0  0
 18 19  1  0  0  0
 18 23  2  0  0  0
 19 20  2  0  0  0
 20 21  1  0  0  0
 21 22  2  0  0  0
 21 25  1  0  0  0
 22 23  1  0  0  0
 22 26  1  0  0  0
 24 25  1  0  0  0
 24 26  2  0  0  0
 12 14  1  0  0  0
 12 15  1  0  0  0
 13 16  1  0  0  0
  8 10  1  0  0  0
 25 27  1  0  0  0
M  END
> <minimizedAffinity>
-6.89346

$$$$
1C1R_BAI_A_246


 27 30  0  0  0  0  0  0  0  0999 V2000
   44.9556   19.4786   52.4853 C   0  0  0  0  0  0  0  0  0  0  0  0
   45.9171   20.2112   53.2765 C   0  0  0  0  0  0  0  0  0  0  0  0
   46.2072   21.5670   53.0236 C   0  0  0  0  0  0  0  0  0  0  0  0
   45.5085   22.1419   51.9826 C   0  0  0  0  0  0  0  0  0  0  0  0
   44.6132   21.4760   51.2405 C   0  0  0  0  0  0  0  0  0  0  0  0
   44.3018   20.1689   51.4403 C   0  0  0  0  0  0  0  0  0  0  0  0
   44.7249   23.4466   50.5098 C   0  0  0  0  0  0  0  0  0  0  0  0
   45.5604   23.3581   51.5113 N   0  0  0  0  0  0  0  0  0  0  0  0
   44.1421   22.2995   50.3430 N   0  0  0  0  0  0  0  0  0  0  0  0
   46.1311   24.0844   51.8519 H   0  0  0  0  0  0  0  0  0  0  0  0
   44.6569   18.1299   52.6950 C   0  0  0  0  0  0  0  0  0  0  0  0
   43.6331   17.5898   52.0985 N   0  0  0  0  0  0  0  0  0  0  0  0
   45.3981   17.4207   53.4949 N   0  0  0  0  0  0  0  0  0  0  0  0
   43.0744   18.1298   51.4938 H   0  0  0  0  0  0  0  0  0  0  0  0
   43.4177   16.6415   52.2522 H   0  0  0  0  0  0  0  0  0  0  0  0
   46.1713   17.8326   53.9441 H   0  0  0  0  0  0  0  0  0  0  0  0
   44.5020   24.7335   49.6370 C   0  0  0  0  0  0  0  0  0  0  0  0
   40.1563   27.9164   52.2461 C   0  0  0  0  0  0  0  0  0  0  0  0
   40.1852   28.6671   51.0314 C   0  0  0  0  0  0  0  0  0  0  0  0
   41.0888   28.3471   49.9802 C   0  0  0  0  0  0  0  0  0  0  0  0
   41.9291   27.2719   50.2096 C   0  0  0  0  0  0  0  0  0  0  0  0
   41.8881   26.5687   51.3753 C   0  0  0  0  0  0  0  0  0  0  0  0
   41.0316   26.8336   52.4342 C   0  0  0  0  0  0  0  0  0  0  0  0
   43.3663   25.7251   50.1065 C   0  0  0  0  0  0  0  0  0  0  0  0
   42.8533   26.7276   49.4412 N   0  0  0  0  0  0  0  0  0  0  0  0
   42.7801   25.6410   51.2685 N   0  0  0  0  0  0  0  0  0  0  0  0
   43.1087   27.0209   48.5369 H   0  0  0  0  0  0  0  0  0  0  0  0
  1  2  1  0  0  0
  1  6  2  0  0  0
  1 11  1  0  0  0
  2  3  2  0  0  0
  3  4  1  0  0  0
  4  5  2  0  0  0
  4  8  1  0  0  0
  5  6  1  0  0  0
  5  9  1  0  0  0
 11 12  1  0  0  0
 11 13  2  0  0  0
  7 17  1  0  0  0
  7  8  1  0  0  0
  7  9  2  0  0  0
 17 24  1  0  0  0
 18 19  1  0  0  0
 18 23  2  0  0  0
 19 20  2  0  0  0
 20 21  1  0  0  0
 21 22  2  0  0  0
 21 25  1  0  0  0
 22 23  1  0  0  0
 22 26  1  0  0  0
 24 25  1  0  0  0
 24 26  2  0  0  0
 12 14  1  0  0  0
 12 15  1  0  0  0
 13 16  1  0  0  0
  8 10  1  0  0  0
 25 27  1  0  0  0
M  END
> <minimizedAffinity>
-6.85292

$$$$
1C1R_BAI_A_246


 27 30  0  0  0  0  0  0  0  0999 V2000
   45.4118   20.4047   53.1099 C   0  0  0  0  0  0  0  0  0  0  0  0
   45.8138   21.5055   53.9548 C   0  0  0  0  0  0  0  0  0  0  0  0
   45.4322   22.8331   53.6753 C   0  0  0  0  0  0  0  0  0  0  0  0
   44.6481   23.0044   52.5536 C   0  0  0  0  0  0  0  0  0  0  0  0
   44.2664   21.9936   51.7609 C   0  0  0  0  0  0  0  0  0  0  0  0
   44.6111   20.6986   51.9837 C   0  0  0  0  0  0  0  0  0  0  0  0
   43.4783   23.7756   50.9655 C   0  0  0  0  0  0  0  0  0  0  0  0
   44.1489   24.0961   52.0409 N   0  0  0  0  0  0  0  0  0  0  0  0
   43.5453   22.4916   50.7927 N   0  0  0  0  0  0  0  0  0  0  0  0
   44.2586   25.0053   52.4023 H   0  0  0  0  0  0  0  0  0  0  0  0
   45.7867   19.0794   53.3453 C   0  0  0  0  0  0  0  0  0  0  0  0
   45.4121   18.1414   52.5234 N   0  0  0  0  0  0  0  0  0  0  0  0
   46.5009   18.7862   54.3922 N   0  0  0  0  0  0  0  0  0  0  0  0
   44.8715   18.3672   51.7322 H   0  0  0  0  0  0  0  0  0  0  0  0
   45.6694   17.2065   52.6933 H   0  0  0  0  0  0  0  0  0  0  0  0
   46.7823   19.4981   55.0113 H   0  0  0  0  0  0  0  0  0  0  0  0
   42.7452   24.7989   50.0258 C   0  0  0  0  0  0  0  0  0  0  0  0
   46.8483   27.2587   46.4290 C   0  0  0  0  0  0  0  0  0  0  0  0
   45.7179   27.6033   45.6269 C   0  0  0  0  0  0  0  0  0  0  0  0
   44.3961   27.2431   46.0101 C   0  0  0  0  0  0  0  0  0  0  0  0
   44.2787   26.5444   47.1986 C   0  0  0  0  0  0  0  0  0  0  0  0
   45.3687   26.2232   47.9496 C   0  0  0  0  0  0  0  0  0  0  0  0
   46.6792   26.5456   47.6277 C   0  0  0  0  0  0  0  0  0  0  0  0
   43.6217   25.5025   48.9167 C   0  0  0  0  0  0  0  0  0  0  0  0
   43.2095   26.0863   47.8212 N   0  0  0  0  0  0  0  0  0  0  0  0
   44.9214   25.5889   48.9817 N   0  0  0  0  0  0  0  0  0  0  0  0
   42.2764   26.1686   47.5182 H   0  0  0  0  0  0  0  0  0  0  0  0
  1  2  1  0  0  0
  1  6  2  0  0  0
  1 11  1  0  0  0
  2  3  2  0  0  0
  3  4  1  0  0  0
  4  5  2  0  0  0
  4  8  1  0  0  0
  5  6  1  0  0  0
  5  9  1  0  0  0
 11 12  1  0  0  0
 11 13  2  0  0  0
  7 17  1  0  0  0
  7  8  1  0  0  0
  7  9  2  0  0  0
 17 24  1  0  0  0
 18 19  1  0  0  0
 18 23  2  0  0  0
 19 20  2  0  0  0
 20 21  1  0  0  0
 21 22  2  0  0  0
 21 25  1  0  0  0
 22 23  1  0  0  0
 22 26  1  0  0  0
 24 25  1  0  0  0
 24 26  2  0  0  0
 12 14  1  0  0  0
 12 15  1  0  0  0
 13 16  1  0  0  0
  8 10  1  0  0  0
 25 27  1  0  0  0
M  END
> <minimizedAffinity>
-6.70178

$$$$
1C1R_BAI_A_246


 27 30  0  0  0  0  0  0  0  0999 V2000
   44.9494   20.4667   51.8677 C   0  0  0  0  0  0  0  0  0  0  0  0
   45.9593   20.9911   52.7578 C   0  0  0  0  0  0  0  0  0  0  0  0
   46.3372   22.3486   52.7336 C   0  0  0  0  0  0  0  0  0  0  0  0
   45.6748   23.1354   51.8147 C   0  0  0  0  0  0  0  0  0  0  0  0
   44.7354   22.6641   50.9833 C   0  0  0  0  0  0  0  0  0  0  0  0
   44.3394   21.3647   50.9637 C   0  0  0  0  0  0  0  0  0  0  0  0
   44.9745   24.7186   50.5947 C   0  0  0  0  0  0  0  0  0  0  0  0
   45.8053   24.4080   51.5550 N   0  0  0  0  0  0  0  0  0  0  0  0
   44.3170   23.6564   50.2446 N   0  0  0  0  0  0  0  0  0  0  0  0
   46.4235   25.0278   52.0054 H   0  0  0  0  0  0  0  0  0  0  0  0
   44.5631   19.1240   51.8506 C   0  0  0  0  0  0  0  0  0  0  0  0
   45.3264   18.2203   52.3950 N   0  0  0  0  0  0  0  0  0  0  0  0
   43.4454   18.7804   51.2808 N   0  0  0  0  0  0  0  0  0  0  0  0
   46.1717   18.4842   52.8254 H   0  0  0  0  0  0  0  0  0  0  0  0
   45.0583   17.2732   52.3763 H   0  0  0  0  0  0  0  0  0  0  0  0
   42.8709   19.4665   50.8703 H   0  0  0  0  0  0  0  0  0  0  0  0
   44.8342   26.1466   49.9552 C   0  0  0  0  0  0  0  0  0  0  0  0
   47.4924   27.2949   44.7171 C   0  0  0  0  0  0  0  0  0  0  0  0
   48.6874   27.3085   45.4994 C   0  0  0  0  0  0  0  0  0  0  0  0
   48.6593   27.0888   46.9047 C   0  0  0  0  0  0  0  0  0  0  0  0
   47.4112   26.8633   47.4580 C   0  0  0  0  0  0  0  0  0  0  0  0
   46.2823   26.8557   46.6961 C   0  0  0  0  0  0  0  0  0  0  0  0
   46.2469   27.0641   45.3248 C   0  0  0  0  0  0  0  0  0  0  0  0
   45.7596   26.4670   48.7166 C   0  0  0  0  0  0  0  0  0  0  0  0
   47.0586   26.6193   48.7058 N   0  0  0  0  0  0  0  0  0  0  0  0
   45.3038   26.6138   47.5035 N   0  0  0  0  0  0  0  0  0  0  0  0
   47.6604   26.5625   49.4829 H   0  0  0  0  0  0  0  0  0  0  0  0
  1  2  1  0  0  0
  1  6  2  0  0  0
  1 11  1  0  0  0
  2  3  2  0  0  0
  3  4  1  0  0  0
  4  5  2  0  0  0
  4  8  1  0  0  0
  5  6  1  0  0  0
  5  9  1  0  0  0
 11 12  1  0  0  0
 11 13  2  0  0  0
  7 17  1  0  0  0
  7  8  1  0  0  0
  7  9  2  0  0  0
 17 24  1  0  0  0
 18 19  1  0  0  0
 18 23  2  0  0  0
 19 20  2  0  0  0
 20 21  1  0  0  0
 21 22  2  0  0  0
 21 25  1  0  0  0
 22 23  1  0  0  0
 22 26  1  0  0  0
 24 25  1  0  0  0
 24 26  2  0  0  0
 12 14  1  0  0  0
 12 15  1  0  0  0
 13 16  1  0  0  0
  8 10  1  0  0  0
 25 27  1  0  0  0
M  END
> <minimizedAffinity>
-6.52430

$$$$
1C1R_BAI_A_246


 27 30  0  0  0  0  0  0  0  0999 V2000
   44.6458   21.9135   52.3304 C   0  0  0  0  0  0  0  0  0  0  0  0
   44.0027   22.8744   53.1965 C   0  0  0  0  0  0  0  0  0  0  0  0
   43.5888   24.1368   52.7262 C   0  0  0  0  0  0  0  0  0  0  0  0
   43.8310   24.3843   51.3912 C   0  0  0  0  0  0  0  0  0  0  0  0
   44.4254   23.5031   50.5752 C   0  0  0  0  0  0  0  0  0  0  0  0
   44.8467   22.2767   50.9800 C   0  0  0  0  0  0  0  0  0  0  0  0
   43.9898   25.2320   49.4568 C   0  0  0  0  0  0  0  0  0  0  0  0
   43.5715   25.4456   50.6768 N   0  0  0  0  0  0  0  0  0  0  0  0
   44.5095   24.0451   49.3900 N   0  0  0  0  0  0  0  0  0  0  0  0
   43.1355   26.2665   51.0013 H   0  0  0  0  0  0  0  0  0  0  0  0
   45.0860   20.6610   52.7660 C   0  0  0  0  0  0  0  0  0  0  0  0
   44.6701   19.5812   52.1688 N   0  0  0  0  0  0  0  0  0  0  0  0
   45.9030   20.5782   53.7748 N   0  0  0  0  0  0  0  0  0  0  0  0
   44.0518   19.6478   51.4056 H   0  0  0  0  0  0  0  0  0  0  0  0
   44.9739   18.6981   52.4805 H   0  0  0  0  0  0  0  0  0  0  0  0
   46.2153   21.3968   54.2238 H   0  0  0  0  0  0  0  0  0  0  0  0
   43.9012   26.2711   48.2820 C   0  0  0  0  0  0  0  0  0  0  0  0
   47.0584   26.1443   43.1989 C   0  0  0  0  0  0  0  0  0  0  0  0
   47.8102   25.1316   43.8692 C   0  0  0  0  0  0  0  0  0  0  0  0
   47.4958   24.7274   45.1965 C   0  0  0  0  0  0  0  0  0  0  0  0
   46.4251   25.3731   45.7891 C   0  0  0  0  0  0  0  0  0  0  0  0
   45.7208   26.3378   45.1346 C   0  0  0  0  0  0  0  0  0  0  0  0
   45.9803   26.7737   43.8432 C   0  0  0  0  0  0  0  0  0  0  0  0
   44.8862   26.0581   47.0664 C   0  0  0  0  0  0  0  0  0  0  0  0
   45.8864   25.2193   46.9837 N   0  0  0  0  0  0  0  0  0  0  0  0
   44.7980   26.7267   45.9500 N   0  0  0  0  0  0  0  0  0  0  0  0
   46.1818   24.5911   47.6818 H   0  0  0  0  0  0  0  0  0  0  0  0
  1  2  1  0  0  0
  1  6  2  0  0  0
  1 11  1  0  0  0
  2  3  2  0  0  0
  3  4  1  0  0  0
  4  5  2  0  0  0
  4  8  1  0  0  0
  5  6  1  0  0  0
  5  9  1  0  0  0
 11 12  1  0  0  0
 11 13  2  0  0  0
  7 17  1  0  0  0
  7  8  1  0  0  0
  7  9  2  0  0  0
 17 24  1  0  0  0
 18 19  1  0  0  0
 18 23  2  0  0  0
 19 20  2  0  0  0
 20 21  1  0  0  0
 21 22  2  0  0  0
 21 25  1  0  0  0
 22 23  1  0  0  0
 22 26  1  0  0  0
 24 25  1  0  0  0
 24 26  2  0  0  0
 12 14  1  0  0  0
 12 15  1  0  0  0
 13 16  1  0  0  0
  8 10  1  0  0  0
 25 27  1  0  0  0
M  END
> <minimizedAffinity>
-6.28972

$$$$
