1C1R_BAI_A_246
  RCSB PDB12061702083D
Coordinates from PDB:1C1R:A:246 Model:1 without hydrogens
 22 25  0  0  0  0            999 V2000
   45.3210   19.4680   52.8680   C 0  0  0  0  0  0  0  0  0  0  0  0
   44.6780   19.0610   51.6400   C 0  0  0  0  0  0  0  0  0  0  0  0
   44.2480   20.0000   50.6810   C 0  0  0  0  0  0  0  0  0  0  0  0
   44.4900   21.3220   50.9910   C 0  0  0  0  0  0  0  0  0  0  0  0
   45.0860   21.7150   52.1250   C 0  0  0  0  0  0  0  0  0  0  0  0
   45.5140   20.8510   53.0820   C 0  0  0  0  0  0  0  0  0  0  0  0
   45.7430   18.5670   53.8490   C 0  0  0  0  0  0  0  0  0  0  0  0
   44.6170   23.4360   51.0080   C 0  0  0  0  0  0  0  0  0  0  0  0
   44.4420   24.9350   50.5720   C 0  0  0  0  0  0  0  0  0  0  0  0
   46.5960   18.9460   54.7570   N 0  0  0  0  0  0  0  0  0  0  0  0
   45.2890   17.3480   53.8450   N 0  0  0  0  0  0  0  0  0  0  0  0
   44.2090   22.4040   50.3170   N 0  0  0  0  0  0  0  0  0  0  0  0
   45.1560   23.0190   52.1120   N 0  0  0  0  0  0  0  0  0  0  0  0
   45.0370   25.3510   44.6310   C 0  0  0  0  0  0  0  0  0  0  0  0
   45.7720   26.5360   44.9400   C 0  0  0  0  0  0  0  0  0  0  0  0
   45.9600   26.9660   46.2830   C 0  0  0  0  0  0  0  0  0  0  0  0
   45.3900   26.1690   47.2600   C 0  0  0  0  0  0  0  0  0  0  0  0
   44.6910   25.0430   46.9460   C 0  0  0  0  0  0  0  0  0  0  0  0
   44.4740   24.5750   45.6580   C 0  0  0  0  0  0  0  0  0  0  0  0
   44.7250   25.2740   49.0560   C 0  0  0  0  0  0  0  0  0  0  0  0
   45.3960   26.2880   48.5740   N 0  0  0  0  0  0  0  0  0  0  0  0
   44.3040   24.5340   48.0680   N 0  0  0  0  0  0  0  0  0  0  0  0
  1  2  1  0  0  0  0
  1  6  2  0  0  0  0
  1  7  1  0  0  0  0
  2  3  2  0  0  0  0
  3  4  1  0  0  0  0
  4  5  2  0  0  0  0
  4 12  1  0  0  0  0
  5  6  1  0  0  0  0
  5 13  1  0  0  0  0
  7 10  1  0  0  0  0
  7 11  2  0  0  0  0
  8  9  1  0  0  0  0
  8 12  1  0  0  0  0
  8 13  2  0  0  0  0
  9 20  1  0  0  0  0
 14 15  1  0  0  0  0
 14 19  2  0  0  0  0
 15 16  2  0  0  0  0
 16 17  1  0  0  0  0
 17 18  2  0  0  0  0
 17 21  1  0  0  0  0
 18 19  1  0  0  0  0
 18 22  1  0  0  0  0
 20 21  1  0  0  0  0
 20 22  2  0  0  0  0
A    1
C1
A    2
C2
A    3
C3
A    4
C4
A    5
C5
A    6
C6
A    7
C7
A    8
C8
A    9
C9
A   10
N1
A   11
N2
A   12
N3
A   13
N4
A   14
C1'
A   15
C2'
A   16
C3'
A   17
C4'
A   18
C5'
A   19
C6'
A   20
C8'
A   21
N3'
A   22
N4'
M  END
>  <InstanceId>
1C1R_BAI_A_246

>  <ChemCompId>
BAI

>  <PdbId>
1C1R

>  <ChainId>
A

>  <ResidueNumber>
246

>  <InsertionCode>


>  <Model>
1

>  <AltIds>


>  <MissingHeavyAtoms>
0

>  <ObservedFormula>
C16 N6

>  <Name>
(5-AMIDINO-2-BENZIMIDAZOLYL)(2-BENZIMIDAZOLYL)METHANE

>  <SystematicName>
2-(1H-benzimidazol-2-ylmethyl)-1H-benzimidazole-5-carboximidamide

>  <Synonyms>
HEMI-BABIM

>  <Type>
NON-POLYMER

>  <Formula>
C16 H14 N6

>  <MolecularWeight>
290.323

>  <ModifiedDate>
2011-06-04

>  <Parent>


>  <OneLetterCode>


>  <SubcomponentList>


>  <AmbiguousFlag>
N

>  <InChI>
InChI=1S/C16H14N6/c17-16(18)9-5-6-12-13(7-9)22-15(21-12)8-14-19-10-3-1-2-4-11(10)20-14/h1-7H,8H2,(H3,17,18)(H,19,20)(H,21,22)

>  <InChIKey>
KKJYVDXDZURHMA-UHFFFAOYSA-N

>  <SMILES>
c1ccc2c(c1)[nH]c(n2)Cc3[nH]c4ccc(cc4n3)C(=N)N

$$$$
