3GJW_GJW_A_351


 21 24  0  0  0  0  0  0  0  0999 V2000
   51.4650   55.8210    9.2557 C   0  0  0  0  0  0  0  0  0  0  0  0
   50.0028   56.0707   10.9441 C   0  0  0  0  0  0  0  0  0  0  0  0
   49.5767   54.2542    9.4420 C   0  0  0  0  0  0  0  0  0  0  0  0
   49.1202   52.4868    7.9498 C   0  0  0  0  0  0  0  0  0  0  0  0
   48.0015   52.1692    8.6896 C   0  0  0  0  0  0  0  0  0  0  0  0
   51.8871   56.8959   10.0066 C   0  0  0  0  0  0  0  0  0  0  0  0
   50.3367   55.3329    9.8509 N   0  0  0  0  0  0  0  0  0  0  0  0
   50.9630   57.0524   11.0704 C   0  0  0  0  0  0  0  0  0  0  0  0
   48.4762   53.9406   10.2000 C   0  0  0  0  0  0  0  0  0  0  0  0
   48.1432   54.6832   11.3392 N   0  0  0  0  0  0  0  0  0  0  0  0
   48.8580   55.7925   11.7459 C   0  0  0  0  0  0  0  0  0  0  0  0
   49.9235   53.5382    8.3219 C   0  0  0  0  0  0  0  0  0  0  0  0
   47.6764   52.8906    9.8159 C   0  0  0  0  0  0  0  0  0  0  0  0
   48.5473   56.4633   12.7176 O   0  0  0  0  0  0  0  0  0  0  0  0
   47.3656   54.4023   11.8736 H   0  0  0  0  0  0  0  0  0  0  0  0
   47.1246   51.0541    8.2500 C   0  0  0  0  0  0  0  0  0  0  0  0
   45.7102   51.4203    8.0767 N   0  0  0  0  0  0  0  0  0  0  0  0
   45.4414   51.8082    6.6765 C   0  0  0  0  0  0  0  0  0  0  0  0
   44.7788   50.3514    8.4979 C   0  0  0  0  0  0  0  0  0  0  0  0
   43.9877   51.4760    6.4694 C   0  0  0  0  0  0  0  0  0  0  0  0
   43.5879   50.5377    7.5864 C   0  0  0  0  0  0  0  0  0  0  0  0
  1  6  2  0  0  0
  1  7  1  0  0  0
  2  7  1  0  0  0
  2  8  2  0  0  0
  2 11  1  0  0  0
  3  7  1  0  0  0
  3  9  2  0  0  0
  3 12  1  0  0  0
  4  5  1  0  0  0
  4 12  2  0  0  0
  5 13  2  0  0  0
  5 16  1  0  0  0
 17 18  1  0  0  0
 17 19  1  0  0  0
 17 16  1  0  0  0
 18 20  1  0  0  0
 19 21  1  0  0  0
  6  8  1  0  0  0
  9 10  1  0  0  0
  9 13  1  0  0  0
 10 11  1  0  0  0
 11 14  2  0  0  0
 20 21  1  0  0  0
 10 15  1  0  0  0
M  END
> <minimizedAffinity>
-9.48577

$$$$
3GJW_GJW_A_351


 21 24  0  0  0  0  0  0  0  0999 V2000
   51.4453   55.6651    9.1961 C   0  0  0  0  0  0  0  0  0  0  0  0
   49.9909   55.9533   10.8850 C   0  0  0  0  0  0  0  0  0  0  0  0
   49.5014   54.1661    9.3671 C   0  0  0  0  0  0  0  0  0  0  0  0
   48.9832   52.4291    7.8595 C   0  0  0  0  0  0  0  0  0  0  0  0
   47.8528   52.1459    8.5954 C   0  0  0  0  0  0  0  0  0  0  0  0
   51.9051   56.7177    9.9564 C   0  0  0  0  0  0  0  0  0  0  0  0
   50.2993   55.2132    9.7859 N   0  0  0  0  0  0  0  0  0  0  0  0
   50.9858   56.8985   11.0206 C   0  0  0  0  0  0  0  0  0  0  0  0
   48.3893   53.8862   10.1213 C   0  0  0  0  0  0  0  0  0  0  0  0
   48.0819   54.6307   11.2664 N   0  0  0  0  0  0  0  0  0  0  0  0
   48.8358   55.7099   11.6833 C   0  0  0  0  0  0  0  0  0  0  0  0
   49.8235   53.4476    8.2413 C   0  0  0  0  0  0  0  0  0  0  0  0
   47.5525   52.8690    9.7274 C   0  0  0  0  0  0  0  0  0  0  0  0
   48.5482   56.3833   12.6604 O   0  0  0  0  0  0  0  0  0  0  0  0
   47.2938   54.3736   11.7976 H   0  0  0  0  0  0  0  0  0  0  0  0
   46.9367   51.0670    8.1455 C   0  0  0  0  0  0  0  0  0  0  0  0
   46.4717   50.1731    9.2175 N   0  0  0  0  0  0  0  0  0  0  0  0
   45.0121   49.9630    9.1226 C   0  0  0  0  0  0  0  0  0  0  0  0
   47.1746   48.8719    9.2330 C   0  0  0  0  0  0  0  0  0  0  0  0
   44.7902   48.6039    9.7310 C   0  0  0  0  0  0  0  0  0  0  0  0
   46.1349   47.9122    9.7639 C   0  0  0  0  0  0  0  0  0  0  0  0
  1  6  2  0  0  0
  1  7  1  0  0  0
  2  7  1  0  0  0
  2  8  2  0  0  0
  2 11  1  0  0  0
  3  7  1  0  0  0
  3  9  2  0  0  0
  3 12  1  0  0  0
  4  5  1  0  0  0
  4 12  2  0  0  0
  5 13  2  0  0  0
  5 16  1  0  0  0
 17 18  1  0  0  0
 17 19  1  0  0  0
 17 16  1  0  0  0
 18 20  1  0  0  0
 19 21  1  0  0  0
  6  8  1  0  0  0
  9 10  1  0  0  0
  9 13  1  0  0  0
 10 11  1  0  0  0
 11 14  2  0  0  0
 20 21  1  0  0  0
 10 15  1  0  0  0
M  END
> <minimizedAffinity>
-9.16270

$$$$
3GJW_GJW_A_351


 21 24  0  0  0  0  0  0  0  0999 V2000
   51.8547   56.1916    9.5305 C   0  0  0  0  0  0  0  0  0  0  0  0
   50.0043   55.8310   10.7540 C   0  0  0  0  0  0  0  0  0  0  0  0
   50.3268   54.3763    8.8784 C   0  0  0  0  0  0  0  0  0  0  0  0
   50.6083   52.9623    7.0130 C   0  0  0  0  0  0  0  0  0  0  0  0
   49.4283   52.3266    7.3338 C   0  0  0  0  0  0  0  0  0  0  0  0
   51.8590   57.1086   10.5584 C   0  0  0  0  0  0  0  0  0  0  0  0
   50.7347   55.4245    9.6805 N   0  0  0  0  0  0  0  0  0  0  0  0
   50.6906   56.8801   11.3283 C   0  0  0  0  0  0  0  0  0  0  0  0
   49.1588   53.7427    9.2224 C   0  0  0  0  0  0  0  0  0  0  0  0
   48.4171   54.1432   10.3402 N   0  0  0  0  0  0  0  0  0  0  0  0
   48.7766   55.2150   11.1333 C   0  0  0  0  0  0  0  0  0  0  0  0
   51.0718   53.9989    7.7875 C   0  0  0  0  0  0  0  0  0  0  0  0
   48.7013   52.7107    8.4377 C   0  0  0  0  0  0  0  0  0  0  0  0
   48.1112   55.5888   12.0863 O   0  0  0  0  0  0  0  0  0  0  0  0
   47.6037   53.6387   10.5709 H   0  0  0  0  0  0  0  0  0  0  0  0
   48.9241   51.2342    6.4631 C   0  0  0  0  0  0  0  0  0  0  0  0
   47.4979   51.3373    6.1167 N   0  0  0  0  0  0  0  0  0  0  0  0
   47.3308   51.9271    4.7722 C   0  0  0  0  0  0  0  0  0  0  0  0
   46.7865   50.0432    6.1982 C   0  0  0  0  0  0  0  0  0  0  0  0
   46.0292   51.3580    4.2739 C   0  0  0  0  0  0  0  0  0  0  0  0
   45.7119   50.1608    5.1422 C   0  0  0  0  0  0  0  0  0  0  0  0
  1  6  2  0  0  0
  1  7  1  0  0  0
  2  7  1  0  0  0
  2  8  2  0  0  0
  2 11  1  0  0  0
  3  7  1  0  0  0
  3  9  2  0  0  0
  3 12  1  0  0  0
  4  5  1  0  0  0
  4 12  2  0  0  0
  5 13  2  0  0  0
  5 16  1  0  0  0
 17 18  1  0  0  0
 17 19  1  0  0  0
 17 16  1  0  0  0
 18 20  1  0  0  0
 19 21  1  0  0  0
  6  8  1  0  0  0
  9 10  1  0  0  0
  9 13  1  0  0  0
 10 11  1  0  0  0
 11 14  2  0  0  0
 20 21  1  0  0  0
 10 15  1  0  0  0
M  END
> <minimizedAffinity>
-8.63446

$$$$
3GJW_GJW_A_351


 21 24  0  0  0  0  0  0  0  0999 V2000
   46.3181   50.5780    5.8013 C   0  0  0  0  0  0  0  0  0  0  0  0
   44.7876   50.9423    7.4062 C   0  0  0  0  0  0  0  0  0  0  0  0
   46.9708   51.8417    7.8094 C   0  0  0  0  0  0  0  0  0  0  0  0
   49.1246   52.6985    8.2400 C   0  0  0  0  0  0  0  0  0  0  0  0
   48.6750   53.1840    9.4490 C   0  0  0  0  0  0  0  0  0  0  0  0
   45.1392   50.0035    5.3800 C   0  0  0  0  0  0  0  0  0  0  0  0
   46.0748   51.1498    7.0176 N   0  0  0  0  0  0  0  0  0  0  0  0
   44.1754   50.2335    6.3941 C   0  0  0  0  0  0  0  0  0  0  0  0
   46.5019   52.3339    9.0018 C   0  0  0  0  0  0  0  0  0  0  0  0
   45.1716   52.1426    9.3940 N   0  0  0  0  0  0  0  0  0  0  0  0
   44.2664   51.4175    8.6445 C   0  0  0  0  0  0  0  0  0  0  0  0
   48.2712   52.0193    7.4035 C   0  0  0  0  0  0  0  0  0  0  0  0
   47.3653   53.0068    9.8336 C   0  0  0  0  0  0  0  0  0  0  0  0
   43.1163   51.2181    9.0027 O   0  0  0  0  0  0  0  0  0  0  0  0
   44.8683   52.5425   10.2409 H   0  0  0  0  0  0  0  0  0  0  0  0
   49.6215   53.8815   10.3563 C   0  0  0  0  0  0  0  0  0  0  0  0
   49.7736   55.3209   10.0921 N   0  0  0  0  0  0  0  0  0  0  0  0
   49.4398   56.1087   11.2969 C   0  0  0  0  0  0  0  0  0  0  0  0
   51.1224   55.6814    9.6040 C   0  0  0  0  0  0  0  0  0  0  0  0
   50.2563   57.3660   11.1588 C   0  0  0  0  0  0  0  0  0  0  0  0
   51.3278   57.0834   10.1292 C   0  0  0  0  0  0  0  0  0  0  0  0
  1  6  2  0  0  0
  1  7  1  0  0  0
  2  7  1  0  0  0
  2  8  2  0  0  0
  2 11  1  0  0  0
  3  7  1  0  0  0
  3  9  2  0  0  0
  3 12  1  0  0  0
  4  5  1  0  0  0
  4 12  2  0  0  0
  5 13  2  0  0  0
  5 16  1  0  0  0
 17 18  1  0  0  0
 17 19  1  0  0  0
 17 16  1  0  0  0
 18 20  1  0  0  0
 19 21  1  0  0  0
  6  8  1  0  0  0
  9 10  1  0  0  0
  9 13  1  0  0  0
 10 11  1  0  0  0
 11 14  2  0  0  0
 20 21  1  0  0  0
 10 15  1  0  0  0
M  END
> <minimizedAffinity>
-8.48882

$$$$
3GJW_GJW_A_351


 21 24  0  0  0  0  0  0  0  0999 V2000
   48.7111   54.7557   10.9415 C   0  0  0  0  0  0  0  0  0  0  0  0
   50.4133   56.2052   10.7129 C   0  0  0  0  0  0  0  0  0  0  0  0
   50.3044   54.4447    9.0922 C   0  0  0  0  0  0  0  0  0  0  0  0
   50.2350   52.6951    7.5134 C   0  0  0  0  0  0  0  0  0  0  0  0
   51.3723   53.2016    6.9223 C   0  0  0  0  0  0  0  0  0  0  0  0
   48.5908   55.6895   11.9470 C   0  0  0  0  0  0  0  0  0  0  0  0
   49.8082   55.0983   10.2035 N   0  0  0  0  0  0  0  0  0  0  0  0
   49.6659   56.6022   11.8016 C   0  0  0  0  0  0  0  0  0  0  0  0
   51.4272   54.9726    8.5051 C   0  0  0  0  0  0  0  0  0  0  0  0
   52.0387   56.1252    9.0126 N   0  0  0  0  0  0  0  0  0  0  0  0
   51.5916   56.7731   10.1471 C   0  0  0  0  0  0  0  0  0  0  0  0
   49.6866   53.3162    8.6101 C   0  0  0  0  0  0  0  0  0  0  0  0
   51.9707   54.3403    7.4121 C   0  0  0  0  0  0  0  0  0  0  0  0
   52.1457   57.7566   10.6123 O   0  0  0  0  0  0  0  0  0  0  0  0
   52.8217   56.4897    8.5400 H   0  0  0  0  0  0  0  0  0  0  0  0
   51.9720   52.4948    5.7619 C   0  0  0  0  0  0  0  0  0  0  0  0
   51.1035   51.4766    5.1505 N   0  0  0  0  0  0  0  0  0  0  0  0
   51.4609   51.2729    3.7313 C   0  0  0  0  0  0  0  0  0  0  0  0
   51.1257   50.1862    5.8728 C   0  0  0  0  0  0  0  0  0  0  0  0
   51.0612   49.8497    3.4463 C   0  0  0  0  0  0  0  0  0  0  0  0
   50.8893   49.1651    4.7841 C   0  0  0  0  0  0  0  0  0  0  0  0
  1  6  2  0  0  0
  1  7  1  0  0  0
  2  7  1  0  0  0
  2  8  2  0  0  0
  2 11  1  0  0  0
  3  7  1  0  0  0
  3  9  2  0  0  0
  3 12  1  0  0  0
  4  5  1  0  0  0
  4 12  2  0  0  0
  5 13  2  0  0  0
  5 16  1  0  0  0
 17 18  1  0  0  0
 17 19  1  0  0  0
 17 16  1  0  0  0
 18 20  1  0  0  0
 19 21  1  0  0  0
  6  8  1  0  0  0
  9 10  1  0  0  0
  9 13  1  0  0  0
 10 11  1  0  0  0
 11 14  2  0  0  0
 20 21  1  0  0  0
 10 15  1  0  0  0
M  END
> <minimizedAffinity>
-8.40388

$$$$
3GJW_GJW_A_351


 21 24  0  0  0  0  0  0  0  0999 V2000
   49.9650   55.8534   10.8057 C   0  0  0  0  0  0  0  0  0  0  0  0
   51.2179   55.2872    9.0280 C   0  0  0  0  0  0  0  0  0  0  0  0
   49.2472   53.9742    9.3886 C   0  0  0  0  0  0  0  0  0  0  0  0
   47.3332   52.6466    9.7524 C   0  0  0  0  0  0  0  0  0  0  0  0
   47.6578   51.8980    8.6416 C   0  0  0  0  0  0  0  0  0  0  0  0
   51.0305   56.7252   10.7621 C   0  0  0  0  0  0  0  0  0  0  0  0
   50.0938   55.0073    9.7413 N   0  0  0  0  0  0  0  0  0  0  0  0
   51.8201   56.3658    9.6407 C   0  0  0  0  0  0  0  0  0  0  0  0
   49.5756   53.2502    8.2696 C   0  0  0  0  0  0  0  0  0  0  0  0
   50.7190   53.5507    7.5197 N   0  0  0  0  0  0  0  0  0  0  0  0
   51.6065   54.5477    7.8734 C   0  0  0  0  0  0  0  0  0  0  0  0
   48.1293   53.6985   10.1381 C   0  0  0  0  0  0  0  0  0  0  0  0
   48.7756   52.1965    7.8959 C   0  0  0  0  0  0  0  0  0  0  0  0
   52.6235   54.7866    7.2415 O   0  0  0  0  0  0  0  0  0  0  0  0
   50.8981   53.0284    6.7046 H   0  0  0  0  0  0  0  0  0  0  0  0
   46.8066   50.7414    8.2629 C   0  0  0  0  0  0  0  0  0  0  0  0
   45.4034   51.0814    7.9801 N   0  0  0  0  0  0  0  0  0  0  0  0
   45.2831   51.7368    6.6612 C   0  0  0  0  0  0  0  0  0  0  0  0
   44.4977   49.9146    8.0548 C   0  0  0  0  0  0  0  0  0  0  0  0
   43.8896   51.3991    6.2022 C   0  0  0  0  0  0  0  0  0  0  0  0
   43.4173   50.2379    7.0488 C   0  0  0  0  0  0  0  0  0  0  0  0
  1  6  2  0  0  0
  1  7  1  0  0  0
  2  7  1  0  0  0
  2  8  2  0  0  0
  2 11  1  0  0  0
  3  7  1  0  0  0
  3  9  2  0  0  0
  3 12  1  0  0  0
  4  5  1  0  0  0
  4 12  2  0  0  0
  5 13  2  0  0  0
  5 16  1  0  0  0
 17 18  1  0  0  0
 17 19  1  0  0  0
 17 16  1  0  0  0
 18 20  1  0  0  0
 19 21  1  0  0  0
  6  8  1  0  0  0
  9 10  1  0  0  0
  9 13  1  0  0  0
 10 11  1  0  0  0
 11 14  2  0  0  0
 20 21  1  0  0  0
 10 15  1  0  0  0
M  END
> <minimizedAffinity>
-8.23161

$$$$
3GJW_GJW_A_351


 21 24  0  0  0  0  0  0  0  0999 V2000
   48.2200   47.7088   11.0014 C   0  0  0  0  0  0  0  0  0  0  0  0
   46.1350   48.3874   10.5083 C   0  0  0  0  0  0  0  0  0  0  0  0
   47.8563   50.0410   10.3060 C   0  0  0  0  0  0  0  0  0  0  0  0
   49.5322   51.6909   10.1409 C   0  0  0  0  0  0  0  0  0  0  0  0
   48.5751   52.6056    9.7576 C   0  0  0  0  0  0  0  0  0  0  0  0
   47.3879   46.6228   11.1615 C   0  0  0  0  0  0  0  0  0  0  0  0
   47.4423   48.7546   10.5928 N   0  0  0  0  0  0  0  0  0  0  0  0
   46.0732   47.0532   10.8510 C   0  0  0  0  0  0  0  0  0  0  0  0
   46.8930   50.9345    9.9086 C   0  0  0  0  0  0  0  0  0  0  0  0
   45.5504   50.5537    9.7977 N   0  0  0  0  0  0  0  0  0  0  0  0
   45.1012   49.2884   10.1204 C   0  0  0  0  0  0  0  0  0  0  0  0
   49.1797   50.3920   10.4197 C   0  0  0  0  0  0  0  0  0  0  0  0
   47.2556   52.2326    9.6377 C   0  0  0  0  0  0  0  0  0  0  0  0
   43.9253   48.9654   10.0599 O   0  0  0  0  0  0  0  0  0  0  0  0
   44.8980   51.2169    9.4756 H   0  0  0  0  0  0  0  0  0  0  0  0
   48.9694   54.0137    9.4981 C   0  0  0  0  0  0  0  0  0  0  0  0
   49.6516   54.6748   10.6216 N   0  0  0  0  0  0  0  0  0  0  0  0
   50.5626   55.7288   10.1291 C   0  0  0  0  0  0  0  0  0  0  0  0
   48.7150   55.2352   11.6197 C   0  0  0  0  0  0  0  0  0  0  0  0
   50.6286   56.7226   11.2579 C   0  0  0  0  0  0  0  0  0  0  0  0
   49.4534   56.4354   12.1657 C   0  0  0  0  0  0  0  0  0  0  0  0
  1  6  2  0  0  0
  1  7  1  0  0  0
  2  7  1  0  0  0
  2  8  2  0  0  0
  2 11  1  0  0  0
  3  7  1  0  0  0
  3  9  2  0  0  0
  3 12  1  0  0  0
  4  5  1  0  0  0
  4 12  2  0  0  0
  5 13  2  0  0  0
  5 16  1  0  0  0
 17 18  1  0  0  0
 17 19  1  0  0  0
 17 16  1  0  0  0
 18 20  1  0  0  0
 19 21  1  0  0  0
  6  8  1  0  0  0
  9 10  1  0  0  0
  9 13  1  0  0  0
 10 11  1  0  0  0
 11 14  2  0  0  0
 20 21  1  0  0  0
 10 15  1  0  0  0
M  END
> <minimizedAffinity>
-7.94370

$$$$
3GJW_GJW_A_351


 21 24  0  0  0  0  0  0  0  0999 V2000
   49.9897   55.7951   10.8466 C   0  0  0  0  0  0  0  0  0  0  0  0
   51.2363   55.2362    9.0621 C   0  0  0  0  0  0  0  0  0  0  0  0
   49.2090   53.9957    9.3607 C   0  0  0  0  0  0  0  0  0  0  0  0
   47.2377   52.7383    9.6626 C   0  0  0  0  0  0  0  0  0  0  0  0
   47.5424   52.0140    8.5303 C   0  0  0  0  0  0  0  0  0  0  0  0
   51.0910   56.6225   10.8419 C   0  0  0  0  0  0  0  0  0  0  0  0
   50.0941   54.9802    9.7556 N   0  0  0  0  0  0  0  0  0  0  0  0
   51.8765   56.2677    9.7162 C   0  0  0  0  0  0  0  0  0  0  0  0
   49.5186   53.2962    8.2211 C   0  0  0  0  0  0  0  0  0  0  0  0
   50.6812   53.5731    7.4920 N   0  0  0  0  0  0  0  0  0  0  0  0
   51.6058   54.5198    7.8869 C   0  0  0  0  0  0  0  0  0  0  0  0
   48.0729   53.7425   10.0905 C   0  0  0  0  0  0  0  0  0  0  0  0
   48.6793   52.2900    7.8050 C   0  0  0  0  0  0  0  0  0  0  0  0
   52.6383   54.7366    7.2725 O   0  0  0  0  0  0  0  0  0  0  0  0
   50.8469   53.0711    6.6615 H   0  0  0  0  0  0  0  0  0  0  0  0
   46.6478   50.9073    8.1053 C   0  0  0  0  0  0  0  0  0  0  0  0
   46.8143   49.6596    8.8670 N   0  0  0  0  0  0  0  0  0  0  0  0
   45.4991   49.0717    9.1956 C   0  0  0  0  0  0  0  0  0  0  0  0
   47.6589   48.6643    8.1717 C   0  0  0  0  0  0  0  0  0  0  0  0
   45.7670   47.5942    9.3035 C   0  0  0  0  0  0  0  0  0  0  0  0
   47.0975   47.3385    8.6310 C   0  0  0  0  0  0  0  0  0  0  0  0
  1  6  2  0  0  0
  1  7  1  0  0  0
  2  7  1  0  0  0
  2  8  2  0  0  0
  2 11  1  0  0  0
  3  7  1  0  0  0
  3  9  2  0  0  0
  3 12  1  0  0  0
  4  5  1  0  0  0
  4 12  2  0  0  0
  5 13  2  0  0  0
  5 16  1  0  0  0
 17 18  1  0  0  0
 17 19  1  0  0  0
 17 16  1  0  0  0
 18 20  1  0  0  0
 19 21  1  0  0  0
  6  8  1  0  0  0
  9 10  1  0  0  0
  9 13  1  0  0  0
 10 11  1  0  0  0
 11 14  2  0  0  0
 20 21  1  0  0  0
 10 15  1  0  0  0
M  END
> <minimizedAffinity>
-7.80306

$$$$
3GJW_GJW_A_351


 21 24  0  0  0  0  0  0  0  0999 V2000
   45.8623   49.4913   10.6870 C   0  0  0  0  0  0  0  0  0  0  0  0
   47.8967   48.6795   11.1900 C   0  0  0  0  0  0  0  0  0  0  0  0
   47.8440   50.8858   10.2588 C   0  0  0  0  0  0  0  0  0  0  0  0
   47.8129   53.0421    9.3059 C   0  0  0  0  0  0  0  0  0  0  0  0
   49.1880   53.0837    9.3885 C   0  0  0  0  0  0  0  0  0  0  0  0
   45.6807   48.2334   11.2182 C   0  0  0  0  0  0  0  0  0  0  0  0
   47.2050   49.7415   10.6954 N   0  0  0  0  0  0  0  0  0  0  0  0
   46.9651   47.7227   11.5339 C   0  0  0  0  0  0  0  0  0  0  0  0
   49.2122   50.9178   10.3647 C   0  0  0  0  0  0  0  0  0  0  0  0
   49.9252   49.8360   10.8951 N   0  0  0  0  0  0  0  0  0  0  0  0
   49.3177   48.6631   11.2975 C   0  0  0  0  0  0  0  0  0  0  0  0
   47.1238   51.9363    9.7437 C   0  0  0  0  0  0  0  0  0  0  0  0
   49.8920   52.0264    9.9186 C   0  0  0  0  0  0  0  0  0  0  0  0
   49.9415   47.7048   11.7256 O   0  0  0  0  0  0  0  0  0  0  0  0
   50.9024   49.9150   10.9851 H   0  0  0  0  0  0  0  0  0  0  0  0
   49.9174   54.2711    8.8749 C   0  0  0  0  0  0  0  0  0  0  0  0
   50.6283   55.0448    9.9048 N   0  0  0  0  0  0  0  0  0  0  0  0
   51.5584   56.0088    9.2812 C   0  0  0  0  0  0  0  0  0  0  0  0
   49.7171   55.7443   10.8365 C   0  0  0  0  0  0  0  0  0  0  0  0
   51.6614   57.1290   10.2818 C   0  0  0  0  0  0  0  0  0  0  0  0
   50.4903   56.9824   11.2278 C   0  0  0  0  0  0  0  0  0  0  0  0
  1  6  2  0  0  0
  1  7  1  0  0  0
  2  7  1  0  0  0
  2  8  2  0  0  0
  2 11  1  0  0  0
  3  7  1  0  0  0
  3  9  2  0  0  0
  3 12  1  0  0  0
  4  5  1  0  0  0
  4 12  2  0  0  0
  5 13  2  0  0  0
  5 16  1  0  0  0
 17 18  1  0  0  0
 17 19  1  0  0  0
 17 16  1  0  0  0
 18 20  1  0  0  0
 19 21  1  0  0  0
  6  8  1  0  0  0
  9 10  1  0  0  0
  9 13  1  0  0  0
 10 11  1  0  0  0
 11 14  2  0  0  0
 20 21  1  0  0  0
 10 15  1  0  0  0
M  END
> <minimizedAffinity>
-7.63445

$$$$
3GJW_GJW_A_351


 21 24  0  0  0  0  0  0  0  0999 V2000
   50.1468   53.0148    7.5249 C   0  0  0  0  0  0  0  0  0  0  0  0
   49.4105   54.0282    9.3909 C   0  0  0  0  0  0  0  0  0  0  0  0
   48.0479   52.2451    8.5532 C   0  0  0  0  0  0  0  0  0  0  0  0
   46.6747   50.5194    7.7196 C   0  0  0  0  0  0  0  0  0  0  0  0
   45.7976   50.7327    8.7611 C   0  0  0  0  0  0  0  0  0  0  0  0
   51.0649   53.9887    7.8507 C   0  0  0  0  0  0  0  0  0  0  0  0
   49.1683   53.0497    8.4772 N   0  0  0  0  0  0  0  0  0  0  0  0
   50.5981   54.6273    9.0273 C   0  0  0  0  0  0  0  0  0  0  0  0
   47.1942   52.4588    9.6065 C   0  0  0  0  0  0  0  0  0  0  0  0
   47.4527   53.4491   10.5618 N   0  0  0  0  0  0  0  0  0  0  0  0
   48.5400   54.2971   10.4866 C   0  0  0  0  0  0  0  0  0  0  0  0
   47.8154   51.2778    7.6057 C   0  0  0  0  0  0  0  0  0  0  0  0
   46.0533   51.6985    9.7079 C   0  0  0  0  0  0  0  0  0  0  0  0
   48.7468   55.1856   11.2982 O   0  0  0  0  0  0  0  0  0  0  0  0
   46.8323   53.5452   11.3201 H   0  0  0  0  0  0  0  0  0  0  0  0
   44.5512   49.9295    8.8457 C   0  0  0  0  0  0  0  0  0  0  0  0
   43.5982   50.1621    7.7492 N   0  0  0  0  0  0  0  0  0  0  0  0
   43.9256   51.4120    7.0323 C   0  0  0  0  0  0  0  0  0  0  0  0
   43.5227   49.0326    6.7974 C   0  0  0  0  0  0  0  0  0  0  0  0
   43.4101   51.1874    5.6358 C   0  0  0  0  0  0  0  0  0  0  0  0
   43.1953   49.6982    5.4807 C   0  0  0  0  0  0  0  0  0  0  0  0
  1  6  2  0  0  0
  1  7  1  0  0  0
  2  7  1  0  0  0
  2  8  2  0  0  0
  2 11  1  0  0  0
  3  7  1  0  0  0
  3  9  2  0  0  0
  3 12  1  0  0  0
  4  5  1  0  0  0
  4 12  2  0  0  0
  5 13  2  0  0  0
  5 16  1  0  0  0
 17 18  1  0  0  0
 17 19  1  0  0  0
 17 16  1  0  0  0
 18 20  1  0  0  0
 19 21  1  0  0  0
  6  8  1  0  0  0
  9 10  1  0  0  0
  9 13  1  0  0  0
 10 11  1  0  0  0
 11 14  2  0  0  0
 20 21  1  0  0  0
 10 15  1  0  0  0
M  END
> <minimizedAffinity>
-7.60682

$$$$
