4PHU_2YB_A_2401


 38 41  0  0  0  0  0  0  0  0999 V2000
  -51.1372   -1.7665   57.2076 C   0  0  0  0  0  0  0  0  0  0  0  0
  -48.9167   -2.5938   55.7517 C   0  0  0  0  0  0  0  0  0  0  0  0
  -48.7294   -1.9687   56.9775 C   0  0  0  0  0  0  0  0  0  0  0  0
  -51.3179   -2.3880   55.9656 C   0  0  0  0  0  0  0  0  0  0  0  0
  -50.2027   -2.7954   55.2540 C   0  0  0  0  0  0  0  0  0  0  0  0
  -49.8367   -1.5627   57.7179 C   0  0  0  0  0  0  0  0  0  0  0  0
  -54.4795   -0.4810   59.5287 C   0  0  0  0  0  0  0  0  0  0  0  0
  -53.8493    0.4088   58.6706 C   0  0  0  0  0  0  0  0  0  0  0  0
  -52.1316    1.0187   56.9906 C   0  0  0  0  0  0  0  0  0  0  0  0
  -52.4640   -3.6439   59.0779 C   0  0  0  0  0  0  0  0  0  0  0  0
  -52.9238   -2.2127   58.9064 C   0  0  0  0  0  0  0  0  0  0  0  0
  -54.0099   -1.7882   59.6414 C   0  0  0  0  0  0  0  0  0  0  0  0
  -52.7684    0.0032   57.9173 C   0  0  0  0  0  0  0  0  0  0  0  0
  -52.2937   -1.3138   58.0295 C   0  0  0  0  0  0  0  0  0  0  0  0
  -55.5476   -0.0516   60.2575 O   0  0  0  0  0  0  0  0  0  0  0  0
  -55.6101    1.3265   60.6633 C   0  0  0  0  0  0  0  0  0  0  0  0
  -56.5803    1.4485   61.8368 C   0  0  0  0  0  0  0  0  0  0  0  0
  -56.2310    2.7250   62.6018 C   0  0  0  0  0  0  0  0  0  0  0  0
  -57.8325    3.5960   64.7969 C   0  0  0  0  0  0  0  0  0  0  0  0
  -56.4197    2.5174   64.4010 S   0  0  0  0  0  0  0  0  0  0  0  0
  -56.7753    1.1674   64.6940 O   0  0  0  0  0  0  0  0  0  0  0  0
  -55.2406    3.0606   64.9937 O   0  0  0  0  0  0  0  0  0  0  0  0
  -47.3282   -1.7469   57.5066 C   0  0  0  0  0  0  0  0  0  0  0  0
  -47.2464   -2.2493   58.8513 O   0  0  0  0  0  0  0  0  0  0  0  0
  -46.0604   -2.5823   59.4315 C   0  0  0  0  0  0  0  0  0  0  0  0
  -44.0424   -1.9930   60.5857 C   0  0  0  0  0  0  0  0  0  0  0  0
  -42.4161   -3.9723   61.1282 C   0  0  0  0  0  0  0  0  0  0  0  0
  -45.2491   -1.6104   60.0138 C   0  0  0  0  0  0  0  0  0  0  0  0
  -43.6569   -3.3141   60.5865 C   0  0  0  0  0  0  0  0  0  0  0  0
  -42.6750   -5.4874   60.9054 C   0  0  0  0  0  0  0  0  0  0  0  0
  -43.8790   -5.5310   60.1043 O   0  0  0  0  0  0  0  0  0  0  0  0
  -44.4481   -4.2956   60.0084 C   0  0  0  0  0  0  0  0  0  0  0  0
  -45.6652   -3.9186   59.4354 C   0  0  0  0  0  0  0  0  0  0  0  0
  -41.2734   -3.4500   60.2630 C   0  0  0  0  0  0  0  0  0  0  0  0
  -40.2270   -2.6870   61.0247 C   0  0  0  0  0  0  0  0  0  0  0  0
  -40.4808   -1.6527   61.8671 O   0  0  0  0  0  0  0  0  0  0  0  0
  -39.0968   -3.0725   60.8311 O   0  0  0  0  0  0  0  0  0  0  0  0
  -41.3623   -1.3668   62.0057 H   0  0  0  0  0  0  0  0  0  0  0  0
  5  2  2  0  0  0
  5  4  1  0  0  0
  2  3  1  0  0  0
  4  1  2  0  0  0
  3 23  1  0  0  0
  3  6  2  0  0  0
  1  6  1  0  0  0
  1 14  1  0  0  0
 10 11  1  0  0  0
 23 24  1  0  0  0
 14 11  2  0  0  0
 14 13  1  0  0  0
 11 12  1  0  0  0
 24 25  1  0  0  0
  9 13  1  0  0  0
 13  8  2  0  0  0
 12  7  2  0  0  0
 25 28  2  0  0  0
 25 33  1  0  0  0
 28 26  1  0  0  0
 37 35  2  0  0  0
 33 32  2  0  0  0
  8  7  1  0  0  0
  7 15  1  0  0  0
 34 35  1  0  0  0
 34 27  1  0  0  0
 26 29  2  0  0  0
 32 29  1  0  0  0
 32 31  1  0  0  0
 35 36  1  0  0  0
 29 27  1  0  0  0
 15 16  1  0  0  0
 31 30  1  0  0  0
 16 17  1  0  0  0
 27 30  1  0  0  0
 17 18  1  0  0  0
 19 20  1  0  0  0
 18 20  1  0  0  0
 21 20  2  0  0  0
 20 22  2  0  0  0
 36 38  1  0  0  0
M  END
> <minimizedAffinity>
-10.28419

$$$$
4PHU_2YB_A_2401


 38 41  0  0  0  0  0  0  0  0999 V2000
  -51.0785   -1.7495   57.2153 C   0  0  0  0  0  0  0  0  0  0  0  0
  -48.8515   -2.5881   55.7758 C   0  0  0  0  0  0  0  0  0  0  0  0
  -48.6710   -1.9820   57.0122 C   0  0  0  0  0  0  0  0  0  0  0  0
  -51.2521   -2.3518   55.9629 C   0  0  0  0  0  0  0  0  0  0  0  0
  -50.1338   -2.7651   55.2596 C   0  0  0  0  0  0  0  0  0  0  0  0
  -49.7818   -1.5705   57.7442 C   0  0  0  0  0  0  0  0  0  0  0  0
  -54.4317   -0.4505   59.5129 C   0  0  0  0  0  0  0  0  0  0  0  0
  -53.8092    0.4288   58.6387 C   0  0  0  0  0  0  0  0  0  0  0  0
  -52.0966    1.0227   56.9476 C   0  0  0  0  0  0  0  0  0  0  0  0
  -52.3892   -3.6037   59.1197 C   0  0  0  0  0  0  0  0  0  0  0  0
  -52.8612   -2.1799   58.9221 C   0  0  0  0  0  0  0  0  0  0  0  0
  -53.9510   -1.7514   59.6494 C   0  0  0  0  0  0  0  0  0  0  0  0
  -52.7248    0.0188   57.8928 C   0  0  0  0  0  0  0  0  0  0  0  0
  -52.2388   -1.2918   58.0290 C   0  0  0  0  0  0  0  0  0  0  0  0
  -55.5036   -0.0171   60.2338 O   0  0  0  0  0  0  0  0  0  0  0  0
  -55.6439    1.3883   60.5039 C   0  0  0  0  0  0  0  0  0  0  0  0
  -55.9745    1.5726   61.9837 C   0  0  0  0  0  0  0  0  0  0  0  0
  -57.1821    2.5049   62.0806 C   0  0  0  0  0  0  0  0  0  0  0  0
  -56.1671    4.8889   60.8857 C   0  0  0  0  0  0  0  0  0  0  0  0
  -56.6972    4.2115   62.4907 S   0  0  0  0  0  0  0  0  0  0  0  0
  -57.8375    4.9393   62.9433 O   0  0  0  0  0  0  0  0  0  0  0  0
  -55.5620    4.1109   63.3498 O   0  0  0  0  0  0  0  0  0  0  0  0
  -47.2736   -1.7867   57.5614 C   0  0  0  0  0  0  0  0  0  0  0  0
  -47.2118   -2.3203   58.8952 O   0  0  0  0  0  0  0  0  0  0  0  0
  -46.0359   -2.6795   59.4802 C   0  0  0  0  0  0  0  0  0  0  0  0
  -44.0039   -2.1337   60.6313 C   0  0  0  0  0  0  0  0  0  0  0  0
  -42.4322   -4.1508   61.1950 C   0  0  0  0  0  0  0  0  0  0  0  0
  -45.1993   -1.7242   60.0541 C   0  0  0  0  0  0  0  0  0  0  0  0
  -43.6543   -3.4647   60.6454 C   0  0  0  0  0  0  0  0  0  0  0  0
  -42.7318   -5.6604   60.9865 C   0  0  0  0  0  0  0  0  0  0  0  0
  -43.9356   -5.6793   60.1843 O   0  0  0  0  0  0  0  0  0  0  0  0
  -44.4710   -4.4300   60.0757 C   0  0  0  0  0  0  0  0  0  0  0  0
  -45.6769   -4.0259   59.4975 C   0  0  0  0  0  0  0  0  0  0  0  0
  -41.2749   -3.6679   60.3264 C   0  0  0  0  0  0  0  0  0  0  0  0
  -40.3293   -2.7349   61.0282 C   0  0  0  0  0  0  0  0  0  0  0  0
  -40.7048   -1.7465   61.8803 O   0  0  0  0  0  0  0  0  0  0  0  0
  -39.1630   -2.9319   60.7746 O   0  0  0  0  0  0  0  0  0  0  0  0
  -41.6127   -1.6075   62.0657 H   0  0  0  0  0  0  0  0  0  0  0  0
  5  2  2  0  0  0
  5  4  1  0  0  0
  2  3  1  0  0  0
  4  1  2  0  0  0
  3 23  1  0  0  0
  3  6  2  0  0  0
  1  6  1  0  0  0
  1 14  1  0  0  0
 10 11  1  0  0  0
 23 24  1  0  0  0
 14 11  2  0  0  0
 14 13  1  0  0  0
 11 12  1  0  0  0
 24 25  1  0  0  0
  9 13  1  0  0  0
 13  8  2  0  0  0
 12  7  2  0  0  0
 25 28  2  0  0  0
 25 33  1  0  0  0
 28 26  1  0  0  0
 37 35  2  0  0  0
 33 32  2  0  0  0
  8  7  1  0  0  0
  7 15  1  0  0  0
 34 35  1  0  0  0
 34 27  1  0  0  0
 26 29  2  0  0  0
 32 29  1  0  0  0
 32 31  1  0  0  0
 35 36  1  0  0  0
 29 27  1  0  0  0
 15 16  1  0  0  0
 31 30  1  0  0  0
 16 17  1  0  0  0
 27 30  1  0  0  0
 17 18  1  0  0  0
 19 20  1  0  0  0
 18 20  1  0  0  0
 21 20  2  0  0  0
 20 22  2  0  0  0
 36 38  1  0  0  0
M  END
> <minimizedAffinity>
-10.24472

$$$$
4PHU_2YB_A_2401


 38 41  0  0  0  0  0  0  0  0999 V2000
  -51.0904   -1.6999   57.3280 C   0  0  0  0  0  0  0  0  0  0  0  0
  -48.7586   -2.4999   56.0404 C   0  0  0  0  0  0  0  0  0  0  0  0
  -48.6752   -1.9402   57.3086 C   0  0  0  0  0  0  0  0  0  0  0  0
  -51.1657   -2.2553   56.0445 C   0  0  0  0  0  0  0  0  0  0  0  0
  -49.9964   -2.6499   55.4177 C   0  0  0  0  0  0  0  0  0  0  0  0
  -49.8393   -1.5485   57.9646 C   0  0  0  0  0  0  0  0  0  0  0  0
  -54.5599   -0.4414   59.4703 C   0  0  0  0  0  0  0  0  0  0  0  0
  -54.1093   -1.7483   59.5889 C   0  0  0  0  0  0  0  0  0  0  0  0
  -52.5420   -3.6006   59.0812 C   0  0  0  0  0  0  0  0  0  0  0  0
  -52.0899    1.0760   57.0483 C   0  0  0  0  0  0  0  0  0  0  0  0
  -52.7720    0.0558   57.9332 C   0  0  0  0  0  0  0  0  0  0  0  0
  -53.8868    0.4529   58.6401 C   0  0  0  0  0  0  0  0  0  0  0  0
  -52.9900   -2.1645   58.9003 C   0  0  0  0  0  0  0  0  0  0  0  0
  -52.3103   -1.2647   58.0631 C   0  0  0  0  0  0  0  0  0  0  0  0
  -55.6669   -0.0587   60.1664 O   0  0  0  0  0  0  0  0  0  0  0  0
  -55.9450    1.3432   60.3242 C   0  0  0  0  0  0  0  0  0  0  0  0
  -55.9086    1.6858   61.8123 C   0  0  0  0  0  0  0  0  0  0  0  0
  -55.9365    3.2087   61.9425 C   0  0  0  0  0  0  0  0  0  0  0  0
  -55.3836    3.7676   64.6855 C   0  0  0  0  0  0  0  0  0  0  0  0
  -56.7487    3.7487   63.4803 S   0  0  0  0  0  0  0  0  0  0  0  0
  -57.2412    5.0780   63.3222 O   0  0  0  0  0  0  0  0  0  0  0  0
  -57.6662    2.7144   63.8343 O   0  0  0  0  0  0  0  0  0  0  0  0
  -47.3253   -1.7738   57.9740 C   0  0  0  0  0  0  0  0  0  0  0  0
  -47.1100   -2.8658   58.8843 O   0  0  0  0  0  0  0  0  0  0  0  0
  -45.9161   -3.0680   59.5068 C   0  0  0  0  0  0  0  0  0  0  0  0
  -43.9931   -2.2557   60.6876 C   0  0  0  0  0  0  0  0  0  0  0  0
  -42.2117   -4.0577   61.3480 C   0  0  0  0  0  0  0  0  0  0  0  0
  -45.2124   -2.0056   60.0708 C   0  0  0  0  0  0  0  0  0  0  0  0
  -43.4906   -3.5354   60.7499 C   0  0  0  0  0  0  0  0  0  0  0  0
  -42.3269   -5.5972   61.1784 C   0  0  0  0  0  0  0  0  0  0  0  0
  -43.4986   -5.7795   60.3495 O   0  0  0  0  0  0  0  0  0  0  0  0
  -44.1735   -4.6053   60.1910 C   0  0  0  0  0  0  0  0  0  0  0  0
  -45.4026   -4.3618   59.5731 C   0  0  0  0  0  0  0  0  0  0  0  0
  -41.0962   -3.4658   60.4921 C   0  0  0  0  0  0  0  0  0  0  0  0
  -40.0138   -2.7850   61.2809 C   0  0  0  0  0  0  0  0  0  0  0  0
  -40.2037   -2.1356   62.4583 O   0  0  0  0  0  0  0  0  0  0  0  0
  -38.9162   -2.8583   60.7776 O   0  0  0  0  0  0  0  0  0  0  0  0
  -41.0606   -2.0883   62.8343 H   0  0  0  0  0  0  0  0  0  0  0  0
  5  2  2  0  0  0
  5  4  1  0  0  0
  2  3  1  0  0  0
  4  1  2  0  0  0
  3 23  1  0  0  0
  3  6  2  0  0  0
  1  6  1  0  0  0
  1 14  1  0  0  0
 10 11  1  0  0  0
 23 24  1  0  0  0
 14 11  2  0  0  0
 14 13  1  0  0  0
 11 12  1  0  0  0
 24 25  1  0  0  0
  9 13  1  0  0  0
 13  8  2  0  0  0
 12  7  2  0  0  0
 25 28  2  0  0  0
 25 33  1  0  0  0
 28 26  1  0  0  0
 37 35  2  0  0  0
 33 32  2  0  0  0
  8  7  1  0  0  0
  7 15  1  0  0  0
 34 35  1  0  0  0
 34 27  1  0  0  0
 26 29  2  0  0  0
 32 29  1  0  0  0
 32 31  1  0  0  0
 35 36  1  0  0  0
 29 27  1  0  0  0
 15 16  1  0  0  0
 31 30  1  0  0  0
 16 17  1  0  0  0
 27 30  1  0  0  0
 17 18  1  0  0  0
 19 20  1  0  0  0
 18 20  1  0  0  0
 21 20  2  0  0  0
 20 22  2  0  0  0
 36 38  1  0  0  0
M  END
> <minimizedAffinity>
-10.23566

$$$$
4PHU_2YB_A_2401


 38 41  0  0  0  0  0  0  0  0999 V2000
  -51.0145   -1.7800   57.3353 C   0  0  0  0  0  0  0  0  0  0  0  0
  -48.6797   -2.5220   56.0188 C   0  0  0  0  0  0  0  0  0  0  0  0
  -48.5945   -1.9606   57.2861 C   0  0  0  0  0  0  0  0  0  0  0  0
  -51.0918   -2.3369   56.0525 C   0  0  0  0  0  0  0  0  0  0  0  0
  -49.9210   -2.7024   55.4113 C   0  0  0  0  0  0  0  0  0  0  0  0
  -49.7598   -1.5978   57.9565 C   0  0  0  0  0  0  0  0  0  0  0  0
  -54.4874   -0.6086   59.5210 C   0  0  0  0  0  0  0  0  0  0  0  0
  -54.0180   -1.9109   59.6133 C   0  0  0  0  0  0  0  0  0  0  0  0
  -52.4285   -3.7318   59.0628 C   0  0  0  0  0  0  0  0  0  0  0  0
  -52.0542    0.9863   57.1116 C   0  0  0  0  0  0  0  0  0  0  0  0
  -52.7164   -0.0590   57.9822 C   0  0  0  0  0  0  0  0  0  0  0  0
  -53.8321    0.3098   58.7029 C   0  0  0  0  0  0  0  0  0  0  0  0
  -52.8974   -2.2991   58.9104 C   0  0  0  0  0  0  0  0  0  0  0  0
  -52.2357   -1.3751   58.0854 C   0  0  0  0  0  0  0  0  0  0  0  0
  -55.5952   -0.2539   60.2305 O   0  0  0  0  0  0  0  0  0  0  0  0
  -56.7231   -1.1454   60.2600 C   0  0  0  0  0  0  0  0  0  0  0  0
  -57.1612   -1.3339   61.7112 C   0  0  0  0  0  0  0  0  0  0  0  0
  -57.5728   -2.7952   61.8895 C   0  0  0  0  0  0  0  0  0  0  0  0
  -58.0534   -4.8144   63.8474 C   0  0  0  0  0  0  0  0  0  0  0  0
  -56.8445   -3.5330   63.3865 S   0  0  0  0  0  0  0  0  0  0  0  0
  -55.6079   -4.1638   63.0584 O   0  0  0  0  0  0  0  0  0  0  0  0
  -56.8502   -2.5100   64.3817 O   0  0  0  0  0  0  0  0  0  0  0  0
  -47.2411   -1.7610   57.9349 C   0  0  0  0  0  0  0  0  0  0  0  0
  -47.1121   -2.6653   59.0454 O   0  0  0  0  0  0  0  0  0  0  0  0
  -45.9077   -2.9537   59.6113 C   0  0  0  0  0  0  0  0  0  0  0  0
  -43.8953   -2.2881   60.7334 C   0  0  0  0  0  0  0  0  0  0  0  0
  -42.1954   -4.2071   61.2665 C   0  0  0  0  0  0  0  0  0  0  0  0
  -45.1221   -1.9506   60.1757 C   0  0  0  0  0  0  0  0  0  0  0  0
  -43.4652   -3.5953   60.7377 C   0  0  0  0  0  0  0  0  0  0  0  0
  -42.4057   -5.7316   61.0574 C   0  0  0  0  0  0  0  0  0  0  0  0
  -43.6183   -5.8218   60.2734 O   0  0  0  0  0  0  0  0  0  0  0  0
  -44.2303   -4.6071   60.1772 C   0  0  0  0  0  0  0  0  0  0  0  0
  -45.4672   -4.2758   59.6186 C   0  0  0  0  0  0  0  0  0  0  0  0
  -41.0830   -3.6525   60.3820 C   0  0  0  0  0  0  0  0  0  0  0  0
  -40.1599   -2.6977   61.0844 C   0  0  0  0  0  0  0  0  0  0  0  0
  -40.5615   -1.6889   61.8999 O   0  0  0  0  0  0  0  0  0  0  0  0
  -38.9865   -2.8966   60.8676 O   0  0  0  0  0  0  0  0  0  0  0  0
  -41.4745   -1.5488   62.0570 H   0  0  0  0  0  0  0  0  0  0  0  0
  5  2  2  0  0  0
  5  4  1  0  0  0
  2  3  1  0  0  0
  4  1  2  0  0  0
  3 23  1  0  0  0
  3  6  2  0  0  0
  1  6  1  0  0  0
  1 14  1  0  0  0
 10 11  1  0  0  0
 23 24  1  0  0  0
 14 11  2  0  0  0
 14 13  1  0  0  0
 11 12  1  0  0  0
 24 25  1  0  0  0
  9 13  1  0  0  0
 13  8  2  0  0  0
 12  7  2  0  0  0
 25 28  2  0  0  0
 25 33  1  0  0  0
 28 26  1  0  0  0
 37 35  2  0  0  0
 33 32  2  0  0  0
  8  7  1  0  0  0
  7 15  1  0  0  0
 34 35  1  0  0  0
 34 27  1  0  0  0
 26 29  2  0  0  0
 32 29  1  0  0  0
 32 31  1  0  0  0
 35 36  1  0  0  0
 29 27  1  0  0  0
 15 16  1  0  0  0
 31 30  1  0  0  0
 16 17  1  0  0  0
 27 30  1  0  0  0
 17 18  1  0  0  0
 19 20  1  0  0  0
 18 20  1  0  0  0
 21 20  2  0  0  0
 20 22  2  0  0  0
 36 38  1  0  0  0
M  END
> <minimizedAffinity>
-10.18723

$$$$
4PHU_2YB_A_2401


 38 41  0  0  0  0  0  0  0  0999 V2000
  -51.6749   -2.4371   57.8920 C   0  0  0  0  0  0  0  0  0  0  0  0
  -49.5454   -0.7187   58.3896 C   0  0  0  0  0  0  0  0  0  0  0  0
  -49.2864   -2.0467   58.0770 C   0  0  0  0  0  0  0  0  0  0  0  0
  -51.9286   -1.0990   58.2184 C   0  0  0  0  0  0  0  0  0  0  0  0
  -50.8581   -0.2560   58.4616 C   0  0  0  0  0  0  0  0  0  0  0  0
  -50.3469   -2.9102   57.8146 C   0  0  0  0  0  0  0  0  0  0  0  0
  -54.8113   -5.2152   57.0826 C   0  0  0  0  0  0  0  0  0  0  0  0
  -54.0277   -4.7340   56.0438 C   0  0  0  0  0  0  0  0  0  0  0  0
  -52.1851   -3.3570   55.1196 C   0  0  0  0  0  0  0  0  0  0  0  0
  -53.3854   -3.4379   60.0955 C   0  0  0  0  0  0  0  0  0  0  0  0
  -53.5798   -3.8722   58.6593 C   0  0  0  0  0  0  0  0  0  0  0  0
  -54.5817   -4.7785   58.3860 C   0  0  0  0  0  0  0  0  0  0  0  0
  -53.0126   -3.8357   56.2951 C   0  0  0  0  0  0  0  0  0  0  0  0
  -52.7797   -3.3944   57.6078 C   0  0  0  0  0  0  0  0  0  0  0  0
  -55.8047   -6.1050   56.8033 O   0  0  0  0  0  0  0  0  0  0  0  0
  -57.1212   -5.8740   57.3335 C   0  0  0  0  0  0  0  0  0  0  0  0
  -57.5250   -7.0766   58.1844 C   0  0  0  0  0  0  0  0  0  0  0  0
  -57.8413   -6.5691   59.5912 C   0  0  0  0  0  0  0  0  0  0  0  0
  -57.4583   -8.1826   61.9132 C   0  0  0  0  0  0  0  0  0  0  0  0
  -56.5655   -7.0549   60.7963 S   0  0  0  0  0  0  0  0  0  0  0  0
  -55.5330   -7.7840   60.1353 O   0  0  0  0  0  0  0  0  0  0  0  0
  -56.2184   -5.8705   61.5129 O   0  0  0  0  0  0  0  0  0  0  0  0
  -47.8573   -2.5423   58.0088 C   0  0  0  0  0  0  0  0  0  0  0  0
  -47.0409   -1.7514   58.8893 O   0  0  0  0  0  0  0  0  0  0  0  0
  -45.9046   -2.2386   59.4598 C   0  0  0  0  0  0  0  0  0  0  0  0
  -43.8343   -1.9253   60.6292 C   0  0  0  0  0  0  0  0  0  0  0  0
  -42.4561   -4.0978   61.1161 C   0  0  0  0  0  0  0  0  0  0  0  0
  -44.9854   -1.3864   60.0685 C   0  0  0  0  0  0  0  0  0  0  0  0
  -43.6085   -3.2823   60.5933 C   0  0  0  0  0  0  0  0  0  0  0  0
  -42.8925   -5.5647   60.8515 C   0  0  0  0  0  0  0  0  0  0  0  0
  -44.0907   -5.4430   60.0499 O   0  0  0  0  0  0  0  0  0  0  0  0
  -44.5088   -4.1466   59.9885 C   0  0  0  0  0  0  0  0  0  0  0  0
  -45.6708   -3.6121   59.4265 C   0  0  0  0  0  0  0  0  0  0  0  0
  -41.2569   -3.6913   60.2654 C   0  0  0  0  0  0  0  0  0  0  0  0
  -40.2697   -2.8112   60.9782 C   0  0  0  0  0  0  0  0  0  0  0  0
  -40.5961   -1.8618   61.8926 O   0  0  0  0  0  0  0  0  0  0  0  0
  -39.1171   -3.0141   60.6721 O   0  0  0  0  0  0  0  0  0  0  0  0
  -41.4940   -1.7176   62.1182 H   0  0  0  0  0  0  0  0  0  0  0  0
  5  2  2  0  0  0
  5  4  1  0  0  0
  2  3  1  0  0  0
  4  1  2  0  0  0
  3 23  1  0  0  0
  3  6  2  0  0  0
  1  6  1  0  0  0
  1 14  1  0  0  0
 10 11  1  0  0  0
 23 24  1  0  0  0
 14 11  2  0  0  0
 14 13  1  0  0  0
 11 12  1  0  0  0
 24 25  1  0  0  0
  9 13  1  0  0  0
 13  8  2  0  0  0
 12  7  2  0  0  0
 25 28  2  0  0  0
 25 33  1  0  0  0
 28 26  1  0  0  0
 37 35  2  0  0  0
 33 32  2  0  0  0
  8  7  1  0  0  0
  7 15  1  0  0  0
 34 35  1  0  0  0
 34 27  1  0  0  0
 26 29  2  0  0  0
 32 29  1  0  0  0
 32 31  1  0  0  0
 35 36  1  0  0  0
 29 27  1  0  0  0
 15 16  1  0  0  0
 31 30  1  0  0  0
 16 17  1  0  0  0
 27 30  1  0  0  0
 17 18  1  0  0  0
 19 20  1  0  0  0
 18 20  1  0  0  0
 21 20  2  0  0  0
 20 22  2  0  0  0
 36 38  1  0  0  0
M  END
> <minimizedAffinity>
-9.84908

$$$$
4PHU_2YB_A_2401


 38 41  0  0  0  0  0  0  0  0999 V2000
  -51.4203   -2.1990   57.4468 C   0  0  0  0  0  0  0  0  0  0  0  0
  -49.3264   -0.7354   58.5460 C   0  0  0  0  0  0  0  0  0  0  0  0
  -49.0585   -1.9629   57.9545 C   0  0  0  0  0  0  0  0  0  0  0  0
  -51.6842   -0.9652   58.0546 C   0  0  0  0  0  0  0  0  0  0  0  0
  -50.6311   -0.2481   58.5955 C   0  0  0  0  0  0  0  0  0  0  0  0
  -50.0999   -2.6959   57.3912 C   0  0  0  0  0  0  0  0  0  0  0  0
  -54.5582   -4.5060   55.7025 C   0  0  0  0  0  0  0  0  0  0  0  0
  -54.3400   -4.5575   57.0717 C   0  0  0  0  0  0  0  0  0  0  0  0
  -53.1489   -3.9070   59.1462 C   0  0  0  0  0  0  0  0  0  0  0  0
  -51.8681   -2.1332   54.5180 C   0  0  0  0  0  0  0  0  0  0  0  0
  -52.7176   -2.9717   55.4476 C   0  0  0  0  0  0  0  0  0  0  0  0
  -53.7423   -3.7123   54.8984 C   0  0  0  0  0  0  0  0  0  0  0  0
  -53.3283   -3.8166   57.6444 C   0  0  0  0  0  0  0  0  0  0  0  0
  -52.5051   -3.0162   56.8357 C   0  0  0  0  0  0  0  0  0  0  0  0
  -55.5681   -5.2468   55.1663 O   0  0  0  0  0  0  0  0  0  0  0  0
  -55.3025   -6.5986   54.7541 C   0  0  0  0  0  0  0  0  0  0  0  0
  -56.1551   -7.5448   55.5974 C   0  0  0  0  0  0  0  0  0  0  0  0
  -55.3424   -7.9308   56.8332 C   0  0  0  0  0  0  0  0  0  0  0  0
  -55.7334   -7.1216   59.5414 C   0  0  0  0  0  0  0  0  0  0  0  0
  -56.4042   -8.2486   58.2780 S   0  0  0  0  0  0  0  0  0  0  0  0
  -57.7454   -7.8628   57.9828 O   0  0  0  0  0  0  0  0  0  0  0  0
  -56.1492   -9.5955   58.6752 O   0  0  0  0  0  0  0  0  0  0  0  0
  -47.6389   -2.4880   57.9124 C   0  0  0  0  0  0  0  0  0  0  0  0
  -46.8211   -1.7092   58.8024 O   0  0  0  0  0  0  0  0  0  0  0  0
  -45.7170   -2.2232   59.4112 C   0  0  0  0  0  0  0  0  0  0  0  0
  -43.6610   -1.9563   60.6169 C   0  0  0  0  0  0  0  0  0  0  0  0
  -42.3794   -4.1654   61.1947 C   0  0  0  0  0  0  0  0  0  0  0  0
  -44.7781   -1.3898   60.0160 C   0  0  0  0  0  0  0  0  0  0  0  0
  -43.4877   -3.3215   60.6239 C   0  0  0  0  0  0  0  0  0  0  0  0
  -42.8672   -5.6214   60.9616 C   0  0  0  0  0  0  0  0  0  0  0  0
  -44.0426   -5.4767   60.1306 O   0  0  0  0  0  0  0  0  0  0  0  0
  -44.4083   -4.1675   60.0238 C   0  0  0  0  0  0  0  0  0  0  0  0
  -45.5364   -3.6050   59.4215 C   0  0  0  0  0  0  0  0  0  0  0  0
  -41.1476   -3.8300   60.3597 C   0  0  0  0  0  0  0  0  0  0  0  0
  -40.1115   -3.0249   61.0915 C   0  0  0  0  0  0  0  0  0  0  0  0
  -40.3314   -2.3431   62.2451 O   0  0  0  0  0  0  0  0  0  0  0  0
  -39.0229   -3.0258   60.5639 O   0  0  0  0  0  0  0  0  0  0  0  0
  -41.1809   -2.3530   62.6404 H   0  0  0  0  0  0  0  0  0  0  0  0
  5  2  2  0  0  0
  5  4  1  0  0  0
  2  3  1  0  0  0
  4  1  2  0  0  0
  3 23  1  0  0  0
  3  6  2  0  0  0
  1  6  1  0  0  0
  1 14  1  0  0  0
 10 11  1  0  0  0
 23 24  1  0  0  0
 14 11  2  0  0  0
 14 13  1  0  0  0
 11 12  1  0  0  0
 24 25  1  0  0  0
  9 13  1  0  0  0
 13  8  2  0  0  0
 12  7  2  0  0  0
 25 28  2  0  0  0
 25 33  1  0  0  0
 28 26  1  0  0  0
 37 35  2  0  0  0
 33 32  2  0  0  0
  8  7  1  0  0  0
  7 15  1  0  0  0
 34 35  1  0  0  0
 34 27  1  0  0  0
 26 29  2  0  0  0
 32 29  1  0  0  0
 32 31  1  0  0  0
 35 36  1  0  0  0
 29 27  1  0  0  0
 15 16  1  0  0  0
 31 30  1  0  0  0
 16 17  1  0  0  0
 27 30  1  0  0  0
 17 18  1  0  0  0
 19 20  1  0  0  0
 18 20  1  0  0  0
 21 20  2  0  0  0
 20 22  2  0  0  0
 36 38  1  0  0  0
M  END
> <minimizedAffinity>
-9.60422

$$$$
4PHU_2YB_A_2401


 38 41  0  0  0  0  0  0  0  0999 V2000
  -51.4125   -1.8238   57.0847 C   0  0  0  0  0  0  0  0  0  0  0  0
  -49.2895   -2.7404   55.5394 C   0  0  0  0  0  0  0  0  0  0  0  0
  -49.0271   -2.1348   56.7612 C   0  0  0  0  0  0  0  0  0  0  0  0
  -51.6687   -2.4260   55.8465 C   0  0  0  0  0  0  0  0  0  0  0  0
  -50.6015   -2.8784   55.0900 C   0  0  0  0  0  0  0  0  0  0  0  0
  -50.0855   -1.6844   57.5461 C   0  0  0  0  0  0  0  0  0  0  0  0
  -54.5401   -0.3849   59.6063 C   0  0  0  0  0  0  0  0  0  0  0  0
  -54.1462   -1.7132   59.6813 C   0  0  0  0  0  0  0  0  0  0  0  0
  -52.7455   -3.6446   59.0085 C   0  0  0  0  0  0  0  0  0  0  0  0
  -52.2945    0.9996   56.9027 C   0  0  0  0  0  0  0  0  0  0  0  0
  -52.9202    0.0173   57.8683 C   0  0  0  0  0  0  0  0  0  0  0  0
  -53.9233    0.4724   58.6970 C   0  0  0  0  0  0  0  0  0  0  0  0
  -53.1374   -2.1876   58.8703 C   0  0  0  0  0  0  0  0  0  0  0  0
  -52.5147   -1.3252   57.9533 C   0  0  0  0  0  0  0  0  0  0  0  0
  -55.5375    0.0554   60.4233 O   0  0  0  0  0  0  0  0  0  0  0  0
  -56.0315    1.3966   60.2655 C   0  0  0  0  0  0  0  0  0  0  0  0
  -57.4586    1.3330   59.7245 C   0  0  0  0  0  0  0  0  0  0  0  0
  -57.3983    1.5748   58.2163 C   0  0  0  0  0  0  0  0  0  0  0  0
  -59.1471    0.2965   56.3590 C   0  0  0  0  0  0  0  0  0  0  0  0
  -57.5916    0.0321   57.2683 S   0  0  0  0  0  0  0  0  0  0  0  0
  -56.5251   -0.0916   56.3292 O   0  0  0  0  0  0  0  0  0  0  0  0
  -57.7855   -1.0069   58.2274 O   0  0  0  0  0  0  0  0  0  0  0  0
  -47.5980   -1.9822   57.2377 C   0  0  0  0  0  0  0  0  0  0  0  0
  -47.4514   -2.6392   58.5083 O   0  0  0  0  0  0  0  0  0  0  0  0
  -46.2711   -2.6532   59.1869 C   0  0  0  0  0  0  0  0  0  0  0  0
  -44.5081   -1.5357   60.3680 C   0  0  0  0  0  0  0  0  0  0  0  0
  -42.5634   -3.0622   61.2309 C   0  0  0  0  0  0  0  0  0  0  0  0
  -45.7194   -1.4768   59.6905 C   0  0  0  0  0  0  0  0  0  0  0  0
  -43.8658   -2.7394   60.5484 C   0  0  0  0  0  0  0  0  0  0  0  0
  -42.4941   -4.6129   61.1786 C   0  0  0  0  0  0  0  0  0  0  0  0
  -43.5992   -4.9923   60.3254 O   0  0  0  0  0  0  0  0  0  0  0  0
  -44.3962   -3.9204   60.0512 C   0  0  0  0  0  0  0  0  0  0  0  0
  -45.6164   -3.8693   59.3727 C   0  0  0  0  0  0  0  0  0  0  0  0
  -41.4860   -2.4082   60.3715 C   0  0  0  0  0  0  0  0  0  0  0  0
  -40.1354   -3.0569   60.4828 C   0  0  0  0  0  0  0  0  0  0  0  0
  -39.5584   -3.8176   59.5173 O   0  0  0  0  0  0  0  0  0  0  0  0
  -39.5721   -2.8463   61.5325 O   0  0  0  0  0  0  0  0  0  0  0  0
  -40.0087   -3.9707   58.7100 H   0  0  0  0  0  0  0  0  0  0  0  0
  5  2  2  0  0  0
  5  4  1  0  0  0
  2  3  1  0  0  0
  4  1  2  0  0  0
  3 23  1  0  0  0
  3  6  2  0  0  0
  1  6  1  0  0  0
  1 14  1  0  0  0
 10 11  1  0  0  0
 23 24  1  0  0  0
 14 11  2  0  0  0
 14 13  1  0  0  0
 11 12  1  0  0  0
 24 25  1  0  0  0
  9 13  1  0  0  0
 13  8  2  0  0  0
 12  7  2  0  0  0
 25 28  2  0  0  0
 25 33  1  0  0  0
 28 26  1  0  0  0
 37 35  2  0  0  0
 33 32  2  0  0  0
  8  7  1  0  0  0
  7 15  1  0  0  0
 34 35  1  0  0  0
 34 27  1  0  0  0
 26 29  2  0  0  0
 32 29  1  0  0  0
 32 31  1  0  0  0
 35 36  1  0  0  0
 29 27  1  0  0  0
 15 16  1  0  0  0
 31 30  1  0  0  0
 16 17  1  0  0  0
 27 30  1  0  0  0
 17 18  1  0  0  0
 19 20  1  0  0  0
 18 20  1  0  0  0
 21 20  2  0  0  0
 20 22  2  0  0  0
 36 38  1  0  0  0
M  END
> <minimizedAffinity>
-9.58163

$$$$
4PHU_2YB_A_2401


 38 41  0  0  0  0  0  0  0  0999 V2000
  -51.2648   -1.7686   57.0921 C   0  0  0  0  0  0  0  0  0  0  0  0
  -48.6235   -2.3697   56.4617 C   0  0  0  0  0  0  0  0  0  0  0  0
  -48.9070   -1.7428   57.6680 C   0  0  0  0  0  0  0  0  0  0  0  0
  -50.9700   -2.3910   55.8726 C   0  0  0  0  0  0  0  0  0  0  0  0
  -49.6508   -2.6850   55.5743 C   0  0  0  0  0  0  0  0  0  0  0  0
  -50.2281   -1.4498   57.9961 C   0  0  0  0  0  0  0  0  0  0  0  0
  -55.2563   -0.7915   58.2425 C   0  0  0  0  0  0  0  0  0  0  0  0
  -54.6889   -1.9872   58.6589 C   0  0  0  0  0  0  0  0  0  0  0  0
  -52.8341   -3.6267   58.7886 C   0  0  0  0  0  0  0  0  0  0  0  0
  -52.5046    0.7610   56.1720 C   0  0  0  0  0  0  0  0  0  0  0  0
  -53.2404   -0.2286   57.0485 C   0  0  0  0  0  0  0  0  0  0  0  0
  -54.5263    0.0806   57.4371 C   0  0  0  0  0  0  0  0  0  0  0  0
  -53.4005   -2.3121   58.2918 C   0  0  0  0  0  0  0  0  0  0  0  0
  -52.6632   -1.4346   57.4802 C   0  0  0  0  0  0  0  0  0  0  0  0
  -56.5304   -0.4966   58.6246 O   0  0  0  0  0  0  0  0  0  0  0  0
  -56.7854    0.7353   59.3212 C   0  0  0  0  0  0  0  0  0  0  0  0
  -55.9022    0.7862   60.5665 C   0  0  0  0  0  0  0  0  0  0  0  0
  -55.5938    2.2540   60.8615 C   0  0  0  0  0  0  0  0  0  0  0  0
  -58.0693    3.1866   61.9309 C   0  0  0  0  0  0  0  0  0  0  0  0
  -56.3549    2.8132   62.4183 S   0  0  0  0  0  0  0  0  0  0  0  0
  -56.3672    1.7412   63.3593 O   0  0  0  0  0  0  0  0  0  0  0  0
  -55.6976    4.0295   62.7724 O   0  0  0  0  0  0  0  0  0  0  0  0
  -47.7835   -1.3969   58.6224 C   0  0  0  0  0  0  0  0  0  0  0  0
  -46.5592   -1.9764   58.1401 O   0  0  0  0  0  0  0  0  0  0  0  0
  -45.4995   -2.2216   58.9591 C   0  0  0  0  0  0  0  0  0  0  0  0
  -44.5267   -2.4155   61.1427 C   0  0  0  0  0  0  0  0  0  0  0  0
  -41.9790   -3.0162   61.2100 C   0  0  0  0  0  0  0  0  0  0  0  0
  -45.6367   -2.1683   60.3448 C   0  0  0  0  0  0  0  0  0  0  0  0
  -43.3106   -2.7183   60.5742 C   0  0  0  0  0  0  0  0  0  0  0  0
  -41.0706   -3.3882   60.0064 C   0  0  0  0  0  0  0  0  0  0  0  0
  -41.8707   -3.0731   58.8430 O   0  0  0  0  0  0  0  0  0  0  0  0
  -43.1525   -2.7719   59.1974 C   0  0  0  0  0  0  0  0  0  0  0  0
  -44.2656   -2.5289   58.3889 C   0  0  0  0  0  0  0  0  0  0  0  0
  -41.5495   -1.7118   61.8743 C   0  0  0  0  0  0  0  0  0  0  0  0
  -41.0340   -1.8782   63.2757 C   0  0  0  0  0  0  0  0  0  0  0  0
  -40.3795   -0.9195   63.9802 O   0  0  0  0  0  0  0  0  0  0  0  0
  -41.2513   -2.9674   63.7551 O   0  0  0  0  0  0  0  0  0  0  0  0
  -40.2194   -0.0811   63.5936 H   0  0  0  0  0  0  0  0  0  0  0  0
  5  2  2  0  0  0
  5  4  1  0  0  0
  2  3  1  0  0  0
  4  1  2  0  0  0
  3 23  1  0  0  0
  3  6  2  0  0  0
  1  6  1  0  0  0
  1 14  1  0  0  0
 10 11  1  0  0  0
 23 24  1  0  0  0
 14 11  2  0  0  0
 14 13  1  0  0  0
 11 12  1  0  0  0
 24 25  1  0  0  0
  9 13  1  0  0  0
 13  8  2  0  0  0
 12  7  2  0  0  0
 25 28  2  0  0  0
 25 33  1  0  0  0
 28 26  1  0  0  0
 37 35  2  0  0  0
 33 32  2  0  0  0
  8  7  1  0  0  0
  7 15  1  0  0  0
 34 35  1  0  0  0
 34 27  1  0  0  0
 26 29  2  0  0  0
 32 29  1  0  0  0
 32 31  1  0  0  0
 35 36  1  0  0  0
 29 27  1  0  0  0
 15 16  1  0  0  0
 31 30  1  0  0  0
 16 17  1  0  0  0
 27 30  1  0  0  0
 17 18  1  0  0  0
 19 20  1  0  0  0
 18 20  1  0  0  0
 21 20  2  0  0  0
 20 22  2  0  0  0
 36 38  1  0  0  0
M  END
> <minimizedAffinity>
-9.30202

$$$$
4PHU_2YB_A_2401


 38 41  0  0  0  0  0  0  0  0999 V2000
  -51.4533   -1.8956   56.1034 C   0  0  0  0  0  0  0  0  0  0  0  0
  -53.9475   -2.1303   54.8954 C   0  0  0  0  0  0  0  0  0  0  0  0
  -53.5306   -3.1104   55.7865 C   0  0  0  0  0  0  0  0  0  0  0  0
  -51.8761   -0.9166   55.1955 C   0  0  0  0  0  0  0  0  0  0  0  0
  -53.1207   -1.0469   54.6040 C   0  0  0  0  0  0  0  0  0  0  0  0
  -52.2883   -2.9935   56.4046 C   0  0  0  0  0  0  0  0  0  0  0  0
  -47.6742   -1.6911   58.0749 C   0  0  0  0  0  0  0  0  0  0  0  0
  -48.7901   -1.1053   58.6550 C   0  0  0  0  0  0  0  0  0  0  0  0
  -51.1974   -0.5164   58.7160 C   0  0  0  0  0  0  0  0  0  0  0  0
  -49.0527   -3.1032   54.8539 C   0  0  0  0  0  0  0  0  0  0  0  0
  -48.9997   -2.3946   56.1896 C   0  0  0  0  0  0  0  0  0  0  0  0
  -47.7874   -2.3321   56.8426 C   0  0  0  0  0  0  0  0  0  0  0  0
  -50.0151   -1.1653   58.0254 C   0  0  0  0  0  0  0  0  0  0  0  0
  -50.1311   -1.8107   56.7835 C   0  0  0  0  0  0  0  0  0  0  0  0
  -46.4779   -1.6184   58.7231 O   0  0  0  0  0  0  0  0  0  0  0  0
  -45.8843   -2.8239   59.2350 C   0  0  0  0  0  0  0  0  0  0  0  0
  -44.8876   -2.4524   60.3313 C   0  0  0  0  0  0  0  0  0  0  0  0
  -43.4899   -2.4519   59.7122 C   0  0  0  0  0  0  0  0  0  0  0  0
  -40.9610   -3.7343   59.3936 C   0  0  0  0  0  0  0  0  0  0  0  0
  -42.3780   -3.6373   60.5333 S   0  0  0  0  0  0  0  0  0  0  0  0
  -41.9327   -3.0969   61.7760 O   0  0  0  0  0  0  0  0  0  0  0  0
  -43.0589   -4.8916   60.5350 O   0  0  0  0  0  0  0  0  0  0  0  0
  -54.4324   -4.2880   56.0910 C   0  0  0  0  0  0  0  0  0  0  0  0
  -54.0132   -4.8970   57.3243 O   0  0  0  0  0  0  0  0  0  0  0  0
  -54.5077   -4.5075   58.5316 C   0  0  0  0  0  0  0  0  0  0  0  0
  -54.2793   -3.3792   60.6356 C   0  0  0  0  0  0  0  0  0  0  0  0
  -56.3579   -3.4906   62.2241 C   0  0  0  0  0  0  0  0  0  0  0  0
  -53.7387   -3.7461   59.4096 C   0  0  0  0  0  0  0  0  0  0  0  0
  -55.5593   -3.7534   60.9753 C   0  0  0  0  0  0  0  0  0  0  0  0
  -57.7549   -4.0872   61.9008 C   0  0  0  0  0  0  0  0  0  0  0  0
  -57.5645   -4.7873   60.6491 O   0  0  0  0  0  0  0  0  0  0  0  0
  -56.3388   -4.5147   60.1174 C   0  0  0  0  0  0  0  0  0  0  0  0
  -55.8033   -4.8835   58.8809 C   0  0  0  0  0  0  0  0  0  0  0  0
  -55.6433   -4.2631   63.3286 C   0  0  0  0  0  0  0  0  0  0  0  0
  -56.5023   -4.5567   64.5258 C   0  0  0  0  0  0  0  0  0  0  0  0
  -56.7722   -3.6742   65.5218 O   0  0  0  0  0  0  0  0  0  0  0  0
  -56.9577   -5.6773   64.5431 O   0  0  0  0  0  0  0  0  0  0  0  0
  -56.4112   -2.8100   65.4927 H   0  0  0  0  0  0  0  0  0  0  0  0
  5  2  2  0  0  0
  5  4  1  0  0  0
  2  3  1  0  0  0
  4  1  2  0  0  0
  3 23  1  0  0  0
  3  6  2  0  0  0
  1  6  1  0  0  0
  1 14  1  0  0  0
 10 11  1  0  0  0
 23 24  1  0  0  0
 14 11  2  0  0  0
 14 13  1  0  0  0
 11 12  1  0  0  0
 24 25  1  0  0  0
  9 13  1  0  0  0
 13  8  2  0  0  0
 12  7  2  0  0  0
 25 28  2  0  0  0
 25 33  1  0  0  0
 28 26  1  0  0  0
 37 35  2  0  0  0
 33 32  2  0  0  0
  8  7  1  0  0  0
  7 15  1  0  0  0
 34 35  1  0  0  0
 34 27  1  0  0  0
 26 29  2  0  0  0
 32 29  1  0  0  0
 32 31  1  0  0  0
 35 36  1  0  0  0
 29 27  1  0  0  0
 15 16  1  0  0  0
 31 30  1  0  0  0
 16 17  1  0  0  0
 27 30  1  0  0  0
 17 18  1  0  0  0
 19 20  1  0  0  0
 18 20  1  0  0  0
 21 20  2  0  0  0
 20 22  2  0  0  0
 36 38  1  0  0  0
M  END
> <minimizedAffinity>
-9.20018

$$$$
4PHU_2YB_A_2401


 38 41  0  0  0  0  0  0  0  0999 V2000
  -51.3906   -1.9576   56.0813 C   0  0  0  0  0  0  0  0  0  0  0  0
  -53.9087   -2.2120   54.9284 C   0  0  0  0  0  0  0  0  0  0  0  0
  -53.4577   -3.1975   55.7966 C   0  0  0  0  0  0  0  0  0  0  0  0
  -51.8479   -0.9732   55.1963 C   0  0  0  0  0  0  0  0  0  0  0  0
  -53.1040   -1.1134   54.6321 C   0  0  0  0  0  0  0  0  0  0  0  0
  -52.2031   -3.0710   56.3873 C   0  0  0  0  0  0  0  0  0  0  0  0
  -47.5531   -1.6470   57.9220 C   0  0  0  0  0  0  0  0  0  0  0  0
  -47.6873   -2.3050   56.7079 C   0  0  0  0  0  0  0  0  0  0  0  0
  -49.0012   -3.1315   54.7751 C   0  0  0  0  0  0  0  0  0  0  0  0
  -51.0974   -0.5944   58.6964 C   0  0  0  0  0  0  0  0  0  0  0  0
  -49.9217   -1.2060   57.9665 C   0  0  0  0  0  0  0  0  0  0  0  0
  -48.6746   -1.1020   58.5445 C   0  0  0  0  0  0  0  0  0  0  0  0
  -48.9228   -2.4113   56.1058 C   0  0  0  0  0  0  0  0  0  0  0  0
  -50.0542   -1.8628   56.7317 C   0  0  0  0  0  0  0  0  0  0  0  0
  -46.3184   -1.5551   58.4906 O   0  0  0  0  0  0  0  0  0  0  0  0
  -45.9151   -2.5446   59.4529 C   0  0  0  0  0  0  0  0  0  0  0  0
  -44.5099   -2.2047   59.9461 C   0  0  0  0  0  0  0  0  0  0  0  0
  -43.7742   -3.5195   60.2046 C   0  0  0  0  0  0  0  0  0  0  0  0
  -41.7083   -4.8588   61.6469 C   0  0  0  0  0  0  0  0  0  0  0  0
  -42.1130   -3.2483   60.8996 S   0  0  0  0  0  0  0  0  0  0  0  0
  -41.1885   -2.9848   59.8457 O   0  0  0  0  0  0  0  0  0  0  0  0
  -42.2650   -2.2802   61.9371 O   0  0  0  0  0  0  0  0  0  0  0  0
  -54.3358   -4.3915   56.1065 C   0  0  0  0  0  0  0  0  0  0  0  0
  -53.9210   -4.9711   57.3553 O   0  0  0  0  0  0  0  0  0  0  0  0
  -54.4433   -4.5754   58.5488 C   0  0  0  0  0  0  0  0  0  0  0  0
  -54.2771   -3.4047   60.6354 C   0  0  0  0  0  0  0  0  0  0  0  0
  -56.3735   -3.5496   62.1977 C   0  0  0  0  0  0  0  0  0  0  0  0
  -53.7091   -3.7768   59.4234 C   0  0  0  0  0  0  0  0  0  0  0  0
  -55.5503   -3.8104   60.9645 C   0  0  0  0  0  0  0  0  0  0  0  0
  -57.7480   -4.1924   61.8662 C   0  0  0  0  0  0  0  0  0  0  0  0
  -57.5199   -4.9081   60.6298 O   0  0  0  0  0  0  0  0  0  0  0  0
  -56.2954   -4.6089   60.1098 C   0  0  0  0  0  0  0  0  0  0  0  0
  -55.7322   -4.9831   58.8873 C   0  0  0  0  0  0  0  0  0  0  0  0
  -55.6522   -4.2816   63.3251 C   0  0  0  0  0  0  0  0  0  0  0  0
  -56.5182   -4.5772   64.5167 C   0  0  0  0  0  0  0  0  0  0  0  0
  -56.7709   -3.7058   65.5270 O   0  0  0  0  0  0  0  0  0  0  0  0
  -56.9964   -5.6884   64.5154 O   0  0  0  0  0  0  0  0  0  0  0  0
  -56.3923   -2.8489   65.5123 H   0  0  0  0  0  0  0  0  0  0  0  0
  5  2  2  0  0  0
  5  4  1  0  0  0
  2  3  1  0  0  0
  4  1  2  0  0  0
  3 23  1  0  0  0
  3  6  2  0  0  0
  1  6  1  0  0  0
  1 14  1  0  0  0
 10 11  1  0  0  0
 23 24  1  0  0  0
 14 11  2  0  0  0
 14 13  1  0  0  0
 11 12  1  0  0  0
 24 25  1  0  0  0
  9 13  1  0  0  0
 13  8  2  0  0  0
 12  7  2  0  0  0
 25 28  2  0  0  0
 25 33  1  0  0  0
 28 26  1  0  0  0
 37 35  2  0  0  0
 33 32  2  0  0  0
  8  7  1  0  0  0
  7 15  1  0  0  0
 34 35  1  0  0  0
 34 27  1  0  0  0
 26 29  2  0  0  0
 32 29  1  0  0  0
 32 31  1  0  0  0
 35 36  1  0  0  0
 29 27  1  0  0  0
 15 16  1  0  0  0
 31 30  1  0  0  0
 16 17  1  0  0  0
 27 30  1  0  0  0
 17 18  1  0  0  0
 19 20  1  0  0  0
 18 20  1  0  0  0
 21 20  2  0  0  0
 20 22  2  0  0  0
 36 38  1  0  0  0
M  END
> <minimizedAffinity>
-9.01177

$$$$
