1G35_AHF_B_501
  RCSB PDB12061702333D
Coordinates from PDB:1G35:B:501 Model:1 without hydrogens
 47 51  0  0  0  0            999 V2000
   11.5940   23.9220    6.1630   N 0  0  0  0  0  0  0  0  0  0  0  0
   11.9410   22.2880    6.4770   S 0  0  0  0  0  0  0  0  0  0  0  0
   13.6100   22.4220    6.2590   N 0  0  0  0  0  0  0  0  0  0  0  0
   14.0230   22.3010    4.8410   C 0  0  0  0  0  0  0  0  0  0  0  0
   14.1580   23.7760    4.2980   C 0  0  0  0  0  0  0  0  0  0  0  0
   13.1870   24.8630    4.8690   C 0  0  0  0  0  0  0  0  0  0  0  0
   11.6810   24.6340    4.8560   C 0  0  0  0  0  0  0  0  0  0  0  0
   10.3120   24.2390    6.7270   C 0  0  0  0  0  0  0  0  0  0  0  0
    9.7360   25.4500    7.3510   C 0  0  0  0  0  0  0  0  0  0  0  0
    8.3410   25.7480    7.1780   C 0  0  0  0  0  0  0  0  0  0  0  0
    7.7670   26.9120    7.7710   C 0  0  0  0  0  0  0  0  0  0  0  0
    8.6140   27.8160    8.5670   C 0  0  0  0  0  0  0  0  0  0  0  0
   10.0490   27.5180    8.7510   C 0  0  0  0  0  0  0  0  0  0  0  0
   10.6010   26.3260    8.1350   C 0  0  0  0  0  0  0  0  0  0  0  0
   11.3080   21.4690    5.4610   O 0  0  0  0  0  0  0  0  0  0  0  0
   15.0160   20.4680    3.5760   O 0  0  0  0  0  0  0  0  0  0  0  0
   15.9550   19.4950    3.2610   C 0  0  0  0  0  0  0  0  0  0  0  0
   16.1570   19.1200    1.8770   C 0  0  0  0  0  0  0  0  0  0  0  0
   17.1490   18.0940    1.5230   C 0  0  0  0  0  0  0  0  0  0  0  0
   17.9430   17.4410    2.5640   C 0  0  0  0  0  0  0  0  0  0  0  0
   17.7530   17.8010    3.9510   C 0  0  0  0  0  0  0  0  0  0  0  0
   16.7620   18.8250    4.3050   C 0  0  0  0  0  0  0  0  0  0  0  0
   14.5080   22.8020    7.4110   C 0  0  0  0  0  0  0  0  0  0  0  0
   15.4130   21.9020    8.1780   C 0  0  0  0  0  0  0  0  0  0  0  0
   14.8810   20.9530    9.1430   C 0  0  0  0  0  0  0  0  0  0  0  0
   15.8050   20.0760    9.9020   C 0  0  0  0  0  0  0  0  0  0  0  0
   17.2700   20.1600    9.6870   C 0  0  0  0  0  0  0  0  0  0  0  0
   17.7940   21.1320    8.6980   C 0  0  0  0  0  0  0  0  0  0  0  0
   16.8630   21.9900    7.9570   C 0  0  0  0  0  0  0  0  0  0  0  0
   15.4240   24.3250    4.5120   O 0  0  0  0  0  0  0  0  0  0  0  0
   13.4210   26.0160    4.1760   O 0  0  0  0  0  0  0  0  0  0  0  0
   11.1270   23.8230    3.6070   C 0  0  0  0  0  0  0  0  0  0  0  0
    9.7070   23.7250    3.7470   O 0  0  0  0  0  0  0  0  0  0  0  0
    8.7690   24.4600    3.1760   C 0  0  0  0  0  0  0  0  0  0  0  0
    9.0910   25.5560    2.2410   C 0  0  0  0  0  0  0  0  0  0  0  0
    8.0400   26.3370    1.6340   C 0  0  0  0  0  0  0  0  0  0  0  0
    6.6590   26.0340    1.9530   C 0  0  0  0  0  0  0  0  0  0  0  0
    6.3380   24.9610    2.8700   C 0  0  0  0  0  0  0  0  0  0  0  0
    7.3950   24.1770    3.4790   C 0  0  0  0  0  0  0  0  0  0  0  0
   11.7370   22.0060    7.8330   O 0  0  0  0  0  0  0  0  0  0  0  0
   15.3360   21.4790    4.6100   C 0  0  0  0  0  0  0  0  0  0  0  0
   18.1060   19.3720   10.3740   C 0  0  0  0  0  0  0  0  0  0  0  0
   17.7020   18.8050   11.5520   O 0  0  0  0  0  0  0  0  0  0  0  0
   19.3410   19.1480    9.9160   O 0  0  0  0  0  0  0  0  0  0  0  0
   18.5400   18.0000   12.2860   C 0  0  0  0  0  0  0  0  0  0  0  0
    8.1470   28.8530    9.1110   C 0  0  0  0  0  0  0  0  0  0  0  0
    7.6480   29.6750    8.1760   O 0  0  0  0  0  0  0  0  0  0  0  0
  1  2  1  0  0  0  0
  1  7  1  0  0  0  0
  1  8  1  0  0  0  0
  2  3  1  0  0  0  0
  2 15  2  0  0  0  0
  2 40  2  0  0  0  0
  3  4  1  0  0  0  0
  3 23  1  0  0  0  0
  4  5  1  0  0  0  0
  4 41  1  0  0  0  0
  5  6  1  0  0  0  0
  5 30  1  0  0  0  0
  6  7  1  0  0  0  0
  6 31  1  0  0  0  0
  7 32  1  0  0  0  0
  8  9  1  0  0  0  0
  9 10  2  0  0  0  0
  9 14  1  0  0  0  0
 10 11  1  0  0  0  0
 11 12  2  0  0  0  0
 12 13  1  0  0  0  0
 12 46  1  0  0  0  0
 13 14  2  0  0  0  0
 16 17  1  0  0  0  0
 16 41  1  0  0  0  0
 17 18  2  0  0  0  0
 17 22  1  0  0  0  0
 18 19  1  0  0  0  0
 19 20  2  0  0  0  0
 20 21  1  0  0  0  0
 21 22  2  0  0  0  0
 23 24  1  0  0  0  0
 24 25  2  0  0  0  0
 24 29  1  0  0  0  0
 25 26  1  0  0  0  0
 26 27  2  0  0  0  0
 27 28  1  0  0  0  0
 27 42  1  0  0  0  0
 28 29  2  0  0  0  0
 32 33  1  0  0  0  0
 33 34  1  0  0  0  0
 34 35  2  0  0  0  0
 34 39  1  0  0  0  0
 35 36  1  0  0  0  0
 36 37  2  0  0  0  0
 37 38  1  0  0  0  0
 38 39  2  0  0  0  0
 42 43  1  0  0  0  0
 42 44  1  0  0  0  0
 43 45  1  0  0  0  0
 46 47  1  0  0  0  0
A    1
N01
A    2
S02
A    3
N03
A    4
C04
A    5
C05
A    6
C06
A    7
C07
A    8
C08
A    9
C09
A   10
C10
A   11
C11
A   12
C12
A   13
C13
A   14
C14
A   15
O15
A   16
O16
A   17
C17
A   18
C18
A   19
C19
A   20
C20
A   21
C21
A   22
C22
A   23
C23
A   24
C24
A   25
C25
A   26
C26
A   27
C27
A   28
C28
A   29
C29
A   30
O30
A   31
O31
A   32
C32
A   33
O33
A   34
C34
A   35
C35
A   36
C36
A   37
C37
A   38
C38
A   39
C39
A   40
O40
A   41
C41
A   42
C42
A   43
O43
A   44
O44
A   45
C45
A   46
C46
A   47
O47
M  END
>  <InstanceId>
1G35_AHF_B_501

>  <ChemCompId>
AHF

>  <PdbId>
1G35

>  <ChainId>
B

>  <ResidueNumber>
501

>  <InsertionCode>


>  <Model>
1

>  <AltIds>


>  <MissingHeavyAtoms>
0

>  <ObservedFormula>
C35 N2 O9 S

>  <Name>
2-[4-(HYDROXY-METHOXY-METHYL)-BENZYL]-7-(4-HYDROXYMETHYL-BENZYL)-1,1-DIOXO-3,6-BIS-PHENOXYMETHYL-1LAMBDA6-[1,2,7]THIADIAZEPANE-4,5-DIOL

>  <SystematicName>
(3R,4S,5S,6R,7R)-2-[[4-(hydroxy-methoxy-methyl)phenyl]methyl]-7-[[4-(hydroxymethyl)phenyl]methyl]-1,1-dioxo-3,6-bis(phenoxymethyl)-1,2,7-thiadiazepane-4,5-diol

>  <Synonyms>


>  <Type>
NON-POLYMER

>  <Formula>
C35 H40 N2 O9 S

>  <MolecularWeight>
664.765

>  <ModifiedDate>
2011-06-04

>  <Parent>


>  <OneLetterCode>


>  <SubcomponentList>


>  <AmbiguousFlag>
N

>  <InChI>
InChI=1S/C35H40N2O9S/c1-44-35(41)28-18-16-26(17-19-28)21-37-32(24-46-30-10-6-3-7-11-30)34(40)33(39)31(23-45-29-8-4-2-5-9-29)36(47(37,42)43)20-25-12-14-27(22-38)15-13-25/h2-19,31-35,38-41H,20-24H2,1H3/t31-,32-,33+,34+,35+/m1/s1

>  <InChIKey>
XLJNZONSWKENRP-VABIIVNOSA-N

>  <SMILES>
COC(c1ccc(cc1)CN2[C@@H]([C@@H]([C@H]([C@H]([N@](S2(=O)=O)Cc3ccc(cc3)CO)COc4ccccc4)O)O)COc5ccccc5)O

$$$$
