1G35_AHF_B_501


 51 55  0  0  0  0  0  0  0  0999 V2000
   11.7241   23.8228    6.3265 N   0  0  0  0  0  0  0  0  0  0  0  0
   12.1334   22.2238    6.7322 S   0  0  0  0  0  0  0  0  0  0  0  0
   13.7865   22.3879    6.4300 N   0  0  0  0  0  0  0  0  0  0  0  0
   14.1407   22.1824    5.0059 C   0  0  0  0  0  0  0  0  0  0  0  0
   14.2075   23.6203    4.3605 C   0  0  0  0  0  0  0  0  0  0  0  0
   13.2301   24.7168    4.9016 C   0  0  0  0  0  0  0  0  0  0  0  0
   11.7325   24.4468    4.9725 C   0  0  0  0  0  0  0  0  0  0  0  0
   11.4816   21.3211    5.8028 O   0  0  0  0  0  0  0  0  0  0  0  0
   15.4646   24.2167    4.4797 O   0  0  0  0  0  0  0  0  0  0  0  0
   13.3989   25.8262    4.1236 O   0  0  0  0  0  0  0  0  0  0  0  0
   11.9973   22.0289    8.1119 O   0  0  0  0  0  0  0  0  0  0  0  0
   15.6400   24.4177    5.4123 H   0  0  0  0  0  0  0  0  0  0  0  0
   13.1128   25.6320    3.2173 H   0  0  0  0  0  0  0  0  0  0  0  0
   10.4589   24.1425    6.9260 C   0  0  0  0  0  0  0  0  0  0  0  0
    9.9617   25.2807    7.7289 C   0  0  0  0  0  0  0  0  0  0  0  0
    8.5518   25.5518    7.7873 C   0  0  0  0  0  0  0  0  0  0  0  0
    8.0527   26.6459    8.5553 C   0  0  0  0  0  0  0  0  0  0  0  0
    8.9931   27.5050    9.2941 C   0  0  0  0  0  0  0  0  0  0  0  0
   10.4442   27.2342    9.2408 C   0  0  0  0  0  0  0  0  0  0  0  0
   10.9186   26.1135    8.4508 C   0  0  0  0  0  0  0  0  0  0  0  0
    8.5947   28.4797    9.9874 C   0  0  0  0  0  0  0  0  0  0  0  0
    9.6139   28.9804   10.7012 O   0  0  0  0  0  0  0  0  0  0  0  0
    9.9634   28.2941   11.2910 H   0  0  0  0  0  0  0  0  0  0  0  0
   14.7221   22.8692    7.5122 C   0  0  0  0  0  0  0  0  0  0  0  0
   15.6772   22.0459    8.3041 C   0  0  0  0  0  0  0  0  0  0  0  0
   17.1113   22.2689    8.2114 C   0  0  0  0  0  0  0  0  0  0  0  0
   18.0415   21.4273    9.0023 C   0  0  0  0  0  0  0  0  0  0  0  0
   17.5214   20.3565    9.8868 C   0  0  0  0  0  0  0  0  0  0  0  0
   16.0566   20.1449    9.9699 C   0  0  0  0  0  0  0  0  0  0  0  0
   15.1533   20.9888    9.1799 C   0  0  0  0  0  0  0  0  0  0  0  0
   18.3597   19.5931   10.5984 C   0  0  0  0  0  0  0  0  0  0  0  0
   19.2410   18.8069    9.9736 O   0  0  0  0  0  0  0  0  0  0  0  0
   20.0914   19.2679    9.9016 H   0  0  0  0  0  0  0  0  0  0  0  0
   18.3242   19.6259   11.9659 O   0  0  0  0  0  0  0  0  0  0  0  0
   18.6360   18.5193   12.7190 C   0  0  0  0  0  0  0  0  0  0  0  0
   11.1492   23.5383    3.8066 C   0  0  0  0  0  0  0  0  0  0  0  0
   10.5576   24.4047    2.8346 O   0  0  0  0  0  0  0  0  0  0  0  0
    9.2821   24.7052    2.6647 C   0  0  0  0  0  0  0  0  0  0  0  0
    8.2116   24.0553    3.4463 C   0  0  0  0  0  0  0  0  0  0  0  0
    6.8286   24.4101    3.2355 C   0  0  0  0  0  0  0  0  0  0  0  0
    6.4991   25.4148    2.2442 C   0  0  0  0  0  0  0  0  0  0  0  0
    7.5450   26.0543    1.4745 C   0  0  0  0  0  0  0  0  0  0  0  0
    8.9341   25.6969    1.6874 C   0  0  0  0  0  0  0  0  0  0  0  0
   15.4665   21.3825    4.7705 C   0  0  0  0  0  0  0  0  0  0  0  0
   15.1722   20.3957    3.7059 O   0  0  0  0  0  0  0  0  0  0  0  0
   16.0978   19.3994    3.4258 C   0  0  0  0  0  0  0  0  0  0  0  0
   17.2593   19.2450    4.2766 C   0  0  0  0  0  0  0  0  0  0  0  0
   18.2490   18.1938    3.9982 C   0  0  0  0  0  0  0  0  0  0  0  0
   18.0717   17.2923    2.8597 C   0  0  0  0  0  0  0  0  0  0  0  0
   16.9196   17.4334    1.9982 C   0  0  0  0  0  0  0  0  0  0  0  0
   15.9313   18.4834    2.2754 C   0  0  0  0  0  0  0  0  0  0  0  0
  1  2  1  0  0  0
  1  7  1  0  0  0
  1 14  1  0  0  0
  2  3  1  0  0  0
  2  8  2  0  0  0
  2 11  2  0  0  0
  3  4  1  0  0  0
  3 24  1  0  0  0
  4  5  1  0  0  0
  4 44  1  0  0  0
  5  6  1  0  0  0
  5  9  1  0  0  0
  6  7  1  0  0  0
  6 10  1  0  0  0
  7 36  1  0  0  0
 14 15  1  0  0  0
 15 16  2  0  0  0
 15 20  1  0  0  0
 16 17  1  0  0  0
 17 18  2  0  0  0
 18 19  1  0  0  0
 18 21  1  0  0  0
 19 20  2  0  0  0
 45 46  1  0  0  0
 45 44  1  0  0  0
 46 47  2  0  0  0
 46 51  1  0  0  0
 47 48  1  0  0  0
 48 49  2  0  0  0
 49 50  1  0  0  0
 50 51  2  0  0  0
 24 25  1  0  0  0
 25 26  2  0  0  0
 25 30  1  0  0  0
 26 27  1  0  0  0
 27 28  2  0  0  0
 28 29  1  0  0  0
 28 31  1  0  0  0
 29 30  2  0  0  0
 36 37  1  0  0  0
 37 38  1  0  0  0
 38 39  2  0  0  0
 38 43  1  0  0  0
 39 40  1  0  0  0
 40 41  2  0  0  0
 41 42  1  0  0  0
 42 43  2  0  0  0
 31 34  1  0  0  0
 31 32  1  0  0  0
 34 35  1  0  0  0
 21 22  1  0  0  0
  9 12  1  0  0  0
 10 13  1  0  0  0
 32 33  1  0  0  0
 22 23  1  0  0  0
M  END
> <minimizedAffinity>
-11.78223

$$$$
1G35_AHF_B_501


 51 55  0  0  0  0  0  0  0  0999 V2000
   12.1599   22.6018    4.7118 N   0  0  0  0  0  0  0  0  0  0  0  0
   11.6184   21.9870    6.2010 S   0  0  0  0  0  0  0  0  0  0  0  0
   12.7891   22.7589    7.1414 N   0  0  0  0  0  0  0  0  0  0  0  0
   14.0614   22.0034    7.2222 C   0  0  0  0  0  0  0  0  0  0  0  0
   15.0054   22.6182    6.1179 C   0  0  0  0  0  0  0  0  0  0  0  0
   14.3488   23.1483    4.7994 C   0  0  0  0  0  0  0  0  0  0  0  0
   13.4174   22.2554    3.9896 C   0  0  0  0  0  0  0  0  0  0  0  0
   11.7666   20.5442    6.1962 O   0  0  0  0  0  0  0  0  0  0  0  0
   15.7452   23.7105    6.5756 O   0  0  0  0  0  0  0  0  0  0  0  0
   15.3638   23.5245    3.9671 O   0  0  0  0  0  0  0  0  0  0  0  0
   10.3892   22.5648    6.5403 O   0  0  0  0  0  0  0  0  0  0  0  0
   15.1482   24.4544    6.7520 H   0  0  0  0  0  0  0  0  0  0  0  0
   15.8825   22.7442    3.7164 H   0  0  0  0  0  0  0  0  0  0  0  0
   11.0910   22.5098    3.7574 C   0  0  0  0  0  0  0  0  0  0  0  0
   10.0922   23.4696    3.2389 C   0  0  0  0  0  0  0  0  0  0  0  0
    8.7044   23.3072    3.5740 C   0  0  0  0  0  0  0  0  0  0  0  0
    7.7257   24.2219    3.0826 C   0  0  0  0  0  0  0  0  0  0  0  0
    8.1435   25.3421    2.2232 C   0  0  0  0  0  0  0  0  0  0  0  0
    9.5678   25.5178    1.8735 C   0  0  0  0  0  0  0  0  0  0  0  0
   10.5375   24.5703    2.3901 C   0  0  0  0  0  0  0  0  0  0  0  0
    7.3124   26.1750    1.7704 C   0  0  0  0  0  0  0  0  0  0  0  0
    6.6261   26.7313    2.7796 O   0  0  0  0  0  0  0  0  0  0  0  0
    6.1494   26.0406    3.2658 H   0  0  0  0  0  0  0  0  0  0  0  0
   12.5556   24.1541    7.6677 C   0  0  0  0  0  0  0  0  0  0  0  0
   11.4344   25.0693    7.3174 C   0  0  0  0  0  0  0  0  0  0  0  0
   11.3113   25.6217    5.9778 C   0  0  0  0  0  0  0  0  0  0  0  0
   10.1916   26.5399    5.6583 C   0  0  0  0  0  0  0  0  0  0  0  0
    9.1955   26.9024    6.6955 C   0  0  0  0  0  0  0  0  0  0  0  0
    9.3360   26.3282    8.0549 C   0  0  0  0  0  0  0  0  0  0  0  0
   10.4505   25.4213    8.3504 C   0  0  0  0  0  0  0  0  0  0  0  0
    8.1863   27.7342    6.4101 C   0  0  0  0  0  0  0  0  0  0  0  0
    7.2480   27.3695    5.5316 O   0  0  0  0  0  0  0  0  0  0  0  0
    6.4925   26.9877    6.0053 H   0  0  0  0  0  0  0  0  0  0  0  0
    8.1069   28.9533    7.0263 O   0  0  0  0  0  0  0  0  0  0  0  0
    7.0308   29.2924    7.8112 C   0  0  0  0  0  0  0  0  0  0  0  0
   13.7898   20.7107    3.9847 C   0  0  0  0  0  0  0  0  0  0  0  0
   14.9346   20.5419    3.1442 O   0  0  0  0  0  0  0  0  0  0  0  0
   15.9062   19.6517    3.2426 C   0  0  0  0  0  0  0  0  0  0  0  0
   16.7907   19.5820    4.4224 C   0  0  0  0  0  0  0  0  0  0  0  0
   17.8408   18.5947    4.4966 C   0  0  0  0  0  0  0  0  0  0  0  0
   18.0198   17.6681    3.3965 C   0  0  0  0  0  0  0  0  0  0  0  0
   17.1558   17.7329    2.2370 C   0  0  0  0  0  0  0  0  0  0  0  0
   16.1011   18.7254    2.1638 C   0  0  0  0  0  0  0  0  0  0  0  0
   14.7407   22.0153    8.6333 C   0  0  0  0  0  0  0  0  0  0  0  0
   16.1370   21.5673    8.4253 O   0  0  0  0  0  0  0  0  0  0  0  0
   16.5346   20.3288    8.9106 C   0  0  0  0  0  0  0  0  0  0  0  0
   15.7321   19.6660    9.9175 C   0  0  0  0  0  0  0  0  0  0  0  0
   16.1348   18.3525   10.4416 C   0  0  0  0  0  0  0  0  0  0  0  0
   17.3495   17.7004    9.9520 C   0  0  0  0  0  0  0  0  0  0  0  0
   18.1640   18.3483    8.9489 C   0  0  0  0  0  0  0  0  0  0  0  0
   17.7627   19.6603    8.4258 C   0  0  0  0  0  0  0  0  0  0  0  0
  1  2  1  0  0  0
  1  7  1  0  0  0
  1 14  1  0  0  0
  2  3  1  0  0  0
  2  8  2  0  0  0
  2 11  2  0  0  0
  3  4  1  0  0  0
  3 24  1  0  0  0
  4  5  1  0  0  0
  4 44  1  0  0  0
  5  6  1  0  0  0
  5  9  1  0  0  0
  6  7  1  0  0  0
  6 10  1  0  0  0
  7 36  1  0  0  0
 14 15  1  0  0  0
 15 16  2  0  0  0
 15 20  1  0  0  0
 16 17  1  0  0  0
 17 18  2  0  0  0
 18 19  1  0  0  0
 18 21  1  0  0  0
 19 20  2  0  0  0
 45 46  1  0  0  0
 45 44  1  0  0  0
 46 47  2  0  0  0
 46 51  1  0  0  0
 47 48  1  0  0  0
 48 49  2  0  0  0
 49 50  1  0  0  0
 50 51  2  0  0  0
 24 25  1  0  0  0
 25 26  2  0  0  0
 25 30  1  0  0  0
 26 27  1  0  0  0
 27 28  2  0  0  0
 28 29  1  0  0  0
 28 31  1  0  0  0
 29 30  2  0  0  0
 36 37  1  0  0  0
 37 38  1  0  0  0
 38 39  2  0  0  0
 38 43  1  0  0  0
 39 40  1  0  0  0
 40 41  2  0  0  0
 41 42  1  0  0  0
 42 43  2  0  0  0
 31 34  1  0  0  0
 31 32  1  0  0  0
 34 35  1  0  0  0
 21 22  1  0  0  0
  9 12  1  0  0  0
 10 13  1  0  0  0
 32 33  1  0  0  0
 22 23  1  0  0  0
M  END
> <minimizedAffinity>
-11.53942

$$$$
1G35_AHF_B_501


 51 55  0  0  0  0  0  0  0  0999 V2000
   13.0594   23.1222    6.9213 N   0  0  0  0  0  0  0  0  0  0  0  0
   12.5291   21.6859    6.1831 S   0  0  0  0  0  0  0  0  0  0  0  0
   12.5101   22.2985    4.6098 N   0  0  0  0  0  0  0  0  0  0  0  0
   11.2520   23.0069    4.2765 C   0  0  0  0  0  0  0  0  0  0  0  0
   11.5341   24.5389    4.5255 C   0  0  0  0  0  0  0  0  0  0  0  0
   12.5142   24.9290    5.6821 C   0  0  0  0  0  0  0  0  0  0  0  0
   12.2961   24.3917    7.0908 C   0  0  0  0  0  0  0  0  0  0  0  0
   11.2027   21.3661    6.6750 O   0  0  0  0  0  0  0  0  0  0  0  0
   12.0718   25.1854    3.4106 O   0  0  0  0  0  0  0  0  0  0  0  0
   12.5111   26.2916    5.7702 O   0  0  0  0  0  0  0  0  0  0  0  0
   13.5438   20.7223    6.2240 O   0  0  0  0  0  0  0  0  0  0  0  0
   12.9670   24.8511    3.2435 H   0  0  0  0  0  0  0  0  0  0  0  0
   11.6322   26.5958    6.0460 H   0  0  0  0  0  0  0  0  0  0  0  0
   13.6271   22.8020    8.2009 C   0  0  0  0  0  0  0  0  0  0  0  0
   14.8531   22.0960    8.6324 C   0  0  0  0  0  0  0  0  0  0  0  0
   14.7590   21.0050    9.5629 C   0  0  0  0  0  0  0  0  0  0  0  0
   15.9302   20.3122    9.9921 C   0  0  0  0  0  0  0  0  0  0  0  0
   17.2474   20.7211    9.4763 C   0  0  0  0  0  0  0  0  0  0  0  0
   17.3544   21.8411    8.5192 C   0  0  0  0  0  0  0  0  0  0  0  0
   16.1440   22.5240    8.1027 C   0  0  0  0  0  0  0  0  0  0  0  0
   18.3069   20.1343    9.8265 C   0  0  0  0  0  0  0  0  0  0  0  0
   18.6946   19.2795    8.8685 O   0  0  0  0  0  0  0  0  0  0  0  0
   17.9995   18.6186    8.7242 H   0  0  0  0  0  0  0  0  0  0  0  0
   13.7491   22.2469    3.7494 C   0  0  0  0  0  0  0  0  0  0  0  0
   14.7760   21.1690    3.7188 C   0  0  0  0  0  0  0  0  0  0  0  0
   15.8338   21.1162    4.7154 C   0  0  0  0  0  0  0  0  0  0  0  0
   16.8508   20.0386    4.6556 C   0  0  0  0  0  0  0  0  0  0  0  0
   16.8001   19.0137    3.5848 C   0  0  0  0  0  0  0  0  0  0  0  0
   15.7135   19.0824    2.5787 C   0  0  0  0  0  0  0  0  0  0  0  0
   14.7169   20.1560    2.6560 C   0  0  0  0  0  0  0  0  0  0  0  0
   17.7195   18.0425    3.5268 C   0  0  0  0  0  0  0  0  0  0  0  0
   18.7202   18.1217    2.6451 O   0  0  0  0  0  0  0  0  0  0  0  0
   19.4977   18.5134    3.0728 H   0  0  0  0  0  0  0  0  0  0  0  0
   17.6433   16.9740    4.3781 O   0  0  0  0  0  0  0  0  0  0  0  0
   18.5096   16.8357    5.4362 C   0  0  0  0  0  0  0  0  0  0  0  0
   10.7777   24.2140    7.5236 C   0  0  0  0  0  0  0  0  0  0  0  0
   10.5626   25.0094    8.6927 O   0  0  0  0  0  0  0  0  0  0  0  0
    9.7412   26.0316    8.8555 C   0  0  0  0  0  0  0  0  0  0  0  0
   10.1285   27.2368    9.6148 C   0  0  0  0  0  0  0  0  0  0  0  0
    9.2057   28.3356    9.7705 C   0  0  0  0  0  0  0  0  0  0  0  0
    7.8888   28.2438    9.1720 C   0  0  0  0  0  0  0  0  0  0  0  0
    7.5038   27.0637    8.4274 C   0  0  0  0  0  0  0  0  0  0  0  0
    8.4321   25.9606    8.2716 C   0  0  0  0  0  0  0  0  0  0  0  0
   10.7191   22.7468    2.8268 C   0  0  0  0  0  0  0  0  0  0  0  0
    9.2432   22.6834    2.9325 O   0  0  0  0  0  0  0  0  0  0  0  0
    8.4934   23.8276    2.6954 C   0  0  0  0  0  0  0  0  0  0  0  0
    8.9908   24.8283    1.7745 C   0  0  0  0  0  0  0  0  0  0  0  0
    8.2099   26.0454    1.5078 C   0  0  0  0  0  0  0  0  0  0  0  0
    6.9224   26.2590    2.1689 C   0  0  0  0  0  0  0  0  0  0  0  0
    6.4115   25.2719    3.0931 C   0  0  0  0  0  0  0  0  0  0  0  0
    7.1913   24.0568    3.3602 C   0  0  0  0  0  0  0  0  0  0  0  0
  1  2  1  0  0  0
  1  7  1  0  0  0
  1 14  1  0  0  0
  2  3  1  0  0  0
  2  8  2  0  0  0
  2 11  2  0  0  0
  3  4  1  0  0  0
  3 24  1  0  0  0
  4  5  1  0  0  0
  4 44  1  0  0  0
  5  6  1  0  0  0
  5  9  1  0  0  0
  6  7  1  0  0  0
  6 10  1  0  0  0
  7 36  1  0  0  0
 14 15  1  0  0  0
 15 16  2  0  0  0
 15 20  1  0  0  0
 16 17  1  0  0  0
 17 18  2  0  0  0
 18 19  1  0  0  0
 18 21  1  0  0  0
 19 20  2  0  0  0
 45 46  1  0  0  0
 45 44  1  0  0  0
 46 47  2  0  0  0
 46 51  1  0  0  0
 47 48  1  0  0  0
 48 49  2  0  0  0
 49 50  1  0  0  0
 50 51  2  0  0  0
 24 25  1  0  0  0
 25 26  2  0  0  0
 25 30  1  0  0  0
 26 27  1  0  0  0
 27 28  2  0  0  0
 28 29  1  0  0  0
 28 31  1  0  0  0
 29 30  2  0  0  0
 36 37  1  0  0  0
 37 38  1  0  0  0
 38 39  2  0  0  0
 38 43  1  0  0  0
 39 40  1  0  0  0
 40 41  2  0  0  0
 41 42  1  0  0  0
 42 43  2  0  0  0
 31 34  1  0  0  0
 31 32  1  0  0  0
 34 35  1  0  0  0
 21 22  1  0  0  0
  9 12  1  0  0  0
 10 13  1  0  0  0
 32 33  1  0  0  0
 22 23  1  0  0  0
M  END
> <minimizedAffinity>
-11.02494

$$$$
1G35_AHF_B_501


 51 55  0  0  0  0  0  0  0  0999 V2000
   13.8061   22.1000    5.1274 N   0  0  0  0  0  0  0  0  0  0  0  0
   14.4490   23.6709    5.2164 S   0  0  0  0  0  0  0  0  0  0  0  0
   13.7046   24.0785    6.6761 N   0  0  0  0  0  0  0  0  0  0  0  0
   12.3236   24.5872    6.5027 C   0  0  0  0  0  0  0  0  0  0  0  0
   11.3707   23.3511    6.7328 C   0  0  0  0  0  0  0  0  0  0  0  0
   11.8777   21.9377    6.2903 C   0  0  0  0  0  0  0  0  0  0  0  0
   12.3893   21.7115    4.8734 C   0  0  0  0  0  0  0  0  0  0  0  0
   13.9499   24.4475    4.0977 O   0  0  0  0  0  0  0  0  0  0  0  0
   11.0243   23.1683    8.0731 O   0  0  0  0  0  0  0  0  0  0  0  0
   10.8495   21.0612    6.4877 O   0  0  0  0  0  0  0  0  0  0  0  0
   15.8242   23.6129    5.4723 O   0  0  0  0  0  0  0  0  0  0  0  0
   11.8092   22.9006    8.5763 H   0  0  0  0  0  0  0  0  0  0  0  0
   10.1161   21.2839    5.8933 H   0  0  0  0  0  0  0  0  0  0  0  0
   14.6196   21.3172    4.2399 C   0  0  0  0  0  0  0  0  0  0  0  0
   15.5289   20.1659    4.4277 C   0  0  0  0  0  0  0  0  0  0  0  0
   16.7354   20.3258    5.1917 C   0  0  0  0  0  0  0  0  0  0  0  0
   17.6259   19.2275    5.3831 C   0  0  0  0  0  0  0  0  0  0  0  0
   17.3044   17.9184    4.7906 C   0  0  0  0  0  0  0  0  0  0  0  0
   16.0664   17.7438    4.0040 C   0  0  0  0  0  0  0  0  0  0  0  0
   15.1823   18.8808    3.8289 C   0  0  0  0  0  0  0  0  0  0  0  0
   18.0615   16.9211    4.9379 C   0  0  0  0  0  0  0  0  0  0  0  0
   17.8682   16.3746    6.1474 O   0  0  0  0  0  0  0  0  0  0  0  0
   18.0699   17.0294    6.8340 H   0  0  0  0  0  0  0  0  0  0  0  0
   14.3711   23.7645    7.9933 C   0  0  0  0  0  0  0  0  0  0  0  0
   15.2516   22.6032    8.2991 C   0  0  0  0  0  0  0  0  0  0  0  0
   14.6876   21.2996    8.6112 C   0  0  0  0  0  0  0  0  0  0  0  0
   15.5865   20.1623    8.9233 C   0  0  0  0  0  0  0  0  0  0  0  0
   17.0585   20.3434    8.9223 C   0  0  0  0  0  0  0  0  0  0  0  0
   17.6154   21.6789    8.6001 C   0  0  0  0  0  0  0  0  0  0  0  0
   16.7089   22.7908    8.2934 C   0  0  0  0  0  0  0  0  0  0  0  0
   17.8715   19.3190    9.2077 C   0  0  0  0  0  0  0  0  0  0  0  0
   17.6481   18.1180    8.6665 O   0  0  0  0  0  0  0  0  0  0  0  0
   18.1859   18.0193    7.8653 H   0  0  0  0  0  0  0  0  0  0  0  0
   18.9393   19.5028   10.0434 O   0  0  0  0  0  0  0  0  0  0  0  0
   18.8120   19.3872   11.4070 C   0  0  0  0  0  0  0  0  0  0  0  0
   11.6520   22.5489    3.7421 C   0  0  0  0  0  0  0  0  0  0  0  0
   10.2697   22.6386    4.0984 O   0  0  0  0  0  0  0  0  0  0  0  0
    9.3652   23.5075    3.6825 C   0  0  0  0  0  0  0  0  0  0  0  0
    8.7273   24.4751    4.5969 C   0  0  0  0  0  0  0  0  0  0  0  0
    7.7444   25.4115    4.1070 C   0  0  0  0  0  0  0  0  0  0  0  0
    7.3876   25.3926    2.7023 C   0  0  0  0  0  0  0  0  0  0  0  0
    8.0094   24.4452    1.8018 C   0  0  0  0  0  0  0  0  0  0  0  0
    8.9969   23.5050    2.2954 C   0  0  0  0  0  0  0  0  0  0  0  0
   11.9466   25.7875    7.4355 C   0  0  0  0  0  0  0  0  0  0  0  0
   10.5413   26.1327    7.1199 O   0  0  0  0  0  0  0  0  0  0  0  0
    9.8594   27.0252    7.9360 C   0  0  0  0  0  0  0  0  0  0  0  0
    8.7585   27.7921    7.3911 C   0  0  0  0  0  0  0  0  0  0  0  0
    8.0219   28.7399    8.2403 C   0  0  0  0  0  0  0  0  0  0  0  0
    8.3921   28.9188    9.6443 C   0  0  0  0  0  0  0  0  0  0  0  0
    9.4900   28.1636   10.2045 C   0  0  0  0  0  0  0  0  0  0  0  0
   10.2262   27.2175    9.3567 C   0  0  0  0  0  0  0  0  0  0  0  0
  1  2  1  0  0  0
  1  7  1  0  0  0
  1 14  1  0  0  0
  2  3  1  0  0  0
  2  8  2  0  0  0
  2 11  2  0  0  0
  3  4  1  0  0  0
  3 24  1  0  0  0
  4  5  1  0  0  0
  4 44  1  0  0  0
  5  6  1  0  0  0
  5  9  1  0  0  0
  6  7  1  0  0  0
  6 10  1  0  0  0
  7 36  1  0  0  0
 14 15  1  0  0  0
 15 16  2  0  0  0
 15 20  1  0  0  0
 16 17  1  0  0  0
 17 18  2  0  0  0
 18 19  1  0  0  0
 18 21  1  0  0  0
 19 20  2  0  0  0
 45 46  1  0  0  0
 45 44  1  0  0  0
 46 47  2  0  0  0
 46 51  1  0  0  0
 47 48  1  0  0  0
 48 49  2  0  0  0
 49 50  1  0  0  0
 50 51  2  0  0  0
 24 25  1  0  0  0
 25 26  2  0  0  0
 25 30  1  0  0  0
 26 27  1  0  0  0
 27 28  2  0  0  0
 28 29  1  0  0  0
 28 31  1  0  0  0
 29 30  2  0  0  0
 36 37  1  0  0  0
 37 38  1  0  0  0
 38 39  2  0  0  0
 38 43  1  0  0  0
 39 40  1  0  0  0
 40 41  2  0  0  0
 41 42  1  0  0  0
 42 43  2  0  0  0
 31 34  1  0  0  0
 31 32  1  0  0  0
 34 35  1  0  0  0
 21 22  1  0  0  0
  9 12  1  0  0  0
 10 13  1  0  0  0
 32 33  1  0  0  0
 22 23  1  0  0  0
M  END
> <minimizedAffinity>
-10.92207

$$$$
1G35_AHF_B_501


 51 55  0  0  0  0  0  0  0  0999 V2000
   13.0211   23.3835    6.3152 N   0  0  0  0  0  0  0  0  0  0  0  0
   12.6285   24.9126    5.6855 S   0  0  0  0  0  0  0  0  0  0  0  0
   11.1640   24.4408    4.9898 N   0  0  0  0  0  0  0  0  0  0  0  0
   11.3239   23.8567    3.6373 C   0  0  0  0  0  0  0  0  0  0  0  0
   11.3624   22.2926    3.8389 C   0  0  0  0  0  0  0  0  0  0  0  0
   12.0120   21.7344    5.1492 C   0  0  0  0  0  0  0  0  0  0  0  0
   13.4161   22.1627    5.5560 C   0  0  0  0  0  0  0  0  0  0  0  0
   13.6233   25.2840    4.6975 O   0  0  0  0  0  0  0  0  0  0  0  0
   10.0946   21.7074    3.8286 O   0  0  0  0  0  0  0  0  0  0  0  0
   12.0252   20.3731    5.0438 O   0  0  0  0  0  0  0  0  0  0  0  0
   12.3105   25.7931    6.7263 O   0  0  0  0  0  0  0  0  0  0  0  0
    9.6021   21.9891    4.6153 H   0  0  0  0  0  0  0  0  0  0  0  0
   12.6124   20.1107    4.3176 H   0  0  0  0  0  0  0  0  0  0  0  0
   13.9832   23.5503    7.3681 C   0  0  0  0  0  0  0  0  0  0  0  0
   14.9261   22.6382    8.0512 C   0  0  0  0  0  0  0  0  0  0  0  0
   16.3374   22.7565    7.8078 C   0  0  0  0  0  0  0  0  0  0  0  0
   17.2628   21.8852    8.4563 C   0  0  0  0  0  0  0  0  0  0  0  0
   16.7650   20.8548    9.3829 C   0  0  0  0  0  0  0  0  0  0  0  0
   15.3162   20.7255    9.6400 C   0  0  0  0  0  0  0  0  0  0  0  0
   14.4022   21.6277    8.9648 C   0  0  0  0  0  0  0  0  0  0  0  0
   17.5479   20.0668    9.9793 C   0  0  0  0  0  0  0  0  0  0  0  0
   18.7129   19.9925    9.3189 O   0  0  0  0  0  0  0  0  0  0  0  0
   18.5549   19.6623    8.4206 H   0  0  0  0  0  0  0  0  0  0  0  0
    9.8853   24.4766    5.7907 C   0  0  0  0  0  0  0  0  0  0  0  0
    9.0588   25.6738    6.1086 C   0  0  0  0  0  0  0  0  0  0  0  0
    8.9058   26.7532    5.1461 C   0  0  0  0  0  0  0  0  0  0  0  0
    8.0863   27.9397    5.4920 C   0  0  0  0  0  0  0  0  0  0  0  0
    7.4220   28.0366    6.8145 C   0  0  0  0  0  0  0  0  0  0  0  0
    7.5877   26.9259    7.7821 C   0  0  0  0  0  0  0  0  0  0  0  0
    8.4020   25.7606    7.4201 C   0  0  0  0  0  0  0  0  0  0  0  0
    6.6851   29.1086    7.1301 C   0  0  0  0  0  0  0  0  0  0  0  0
    7.0895   29.9357    8.0983 O   0  0  0  0  0  0  0  0  0  0  0  0
    7.5791   30.6763    7.7074 H   0  0  0  0  0  0  0  0  0  0  0  0
    5.5237   29.3660    6.4539 O   0  0  0  0  0  0  0  0  0  0  0  0
    4.5445   28.4110    6.3192 C   0  0  0  0  0  0  0  0  0  0  0  0
   14.4261   22.4118    4.3549 C   0  0  0  0  0  0  0  0  0  0  0  0
   14.6174   21.1646    3.6815 O   0  0  0  0  0  0  0  0  0  0  0  0
   15.5520   20.2526    3.8838 C   0  0  0  0  0  0  0  0  0  0  0  0
   15.7012   19.0738    3.0079 C   0  0  0  0  0  0  0  0  0  0  0  0
   16.7354   18.0986    3.2579 C   0  0  0  0  0  0  0  0  0  0  0  0
   17.6299   18.2882    4.3825 C   0  0  0  0  0  0  0  0  0  0  0  0
   17.4870   19.4419    5.2449 C   0  0  0  0  0  0  0  0  0  0  0  0
   16.4476   20.4210    4.9925 C   0  0  0  0  0  0  0  0  0  0  0  0
   10.2214   24.2786    2.6081 C   0  0  0  0  0  0  0  0  0  0  0  0
    8.9450   23.7268    3.1179 O   0  0  0  0  0  0  0  0  0  0  0  0
    7.7497   24.3416    2.7700 C   0  0  0  0  0  0  0  0  0  0  0  0
    7.6758   25.1189    1.5504 C   0  0  0  0  0  0  0  0  0  0  0  0
    6.4182   25.7749    1.1632 C   0  0  0  0  0  0  0  0  0  0  0  0
    5.2278   25.6498    2.0046 C   0  0  0  0  0  0  0  0  0  0  0  0
    5.2839   24.8799    3.2268 C   0  0  0  0  0  0  0  0  0  0  0  0
    6.5398   24.2252    3.6142 C   0  0  0  0  0  0  0  0  0  0  0  0
  1  2  1  0  0  0
  1  7  1  0  0  0
  1 14  1  0  0  0
  2  3  1  0  0  0
  2  8  2  0  0  0
  2 11  2  0  0  0
  3  4  1  0  0  0
  3 24  1  0  0  0
  4  5  1  0  0  0
  4 44  1  0  0  0
  5  6  1  0  0  0
  5  9  1  0  0  0
  6  7  1  0  0  0
  6 10  1  0  0  0
  7 36  1  0  0  0
 14 15  1  0  0  0
 15 16  2  0  0  0
 15 20  1  0  0  0
 16 17  1  0  0  0
 17 18  2  0  0  0
 18 19  1  0  0  0
 18 21  1  0  0  0
 19 20  2  0  0  0
 45 46  1  0  0  0
 45 44  1  0  0  0
 46 47  2  0  0  0
 46 51  1  0  0  0
 47 48  1  0  0  0
 48 49  2  0  0  0
 49 50  1  0  0  0
 50 51  2  0  0  0
 24 25  1  0  0  0
 25 26  2  0  0  0
 25 30  1  0  0  0
 26 27  1  0  0  0
 27 28  2  0  0  0
 28 29  1  0  0  0
 28 31  1  0  0  0
 29 30  2  0  0  0
 36 37  1  0  0  0
 37 38  1  0  0  0
 38 39  2  0  0  0
 38 43  1  0  0  0
 39 40  1  0  0  0
 40 41  2  0  0  0
 41 42  1  0  0  0
 42 43  2  0  0  0
 31 34  1  0  0  0
 31 32  1  0  0  0
 34 35  1  0  0  0
 21 22  1  0  0  0
  9 12  1  0  0  0
 10 13  1  0  0  0
 32 33  1  0  0  0
 22 23  1  0  0  0
M  END
> <minimizedAffinity>
-10.46657

$$$$
1G35_AHF_B_501


 51 55  0  0  0  0  0  0  0  0999 V2000
   11.0913   24.6834    5.6547 N   0  0  0  0  0  0  0  0  0  0  0  0
   12.5387   25.5403    5.8991 S   0  0  0  0  0  0  0  0  0  0  0  0
   13.5370   24.1796    5.9517 N   0  0  0  0  0  0  0  0  0  0  0  0
   13.6050   23.5596    7.2960 C   0  0  0  0  0  0  0  0  0  0  0  0
   12.5495   22.3872    7.2902 C   0  0  0  0  0  0  0  0  0  0  0  0
   11.2460   22.5736    6.4436 C   0  0  0  0  0  0  0  0  0  0  0  0
   10.3768   23.8108    6.6297 C   0  0  0  0  0  0  0  0  0  0  0  0
   12.4671   26.2313    7.1724 O   0  0  0  0  0  0  0  0  0  0  0  0
   13.0732   21.1807    6.8211 O   0  0  0  0  0  0  0  0  0  0  0  0
   10.4520   21.4888    6.6826 O   0  0  0  0  0  0  0  0  0  0  0  0
   12.8825   26.2429    4.7380 O   0  0  0  0  0  0  0  0  0  0  0  0
   13.2741   21.2613    5.8756 H   0  0  0  0  0  0  0  0  0  0  0  0
   10.1737   21.4903    7.6118 H   0  0  0  0  0  0  0  0  0  0  0  0
   10.1138   25.5763    5.0986 C   0  0  0  0  0  0  0  0  0  0  0  0
    9.0054   25.4125    4.1330 C   0  0  0  0  0  0  0  0  0  0  0  0
    7.6867   25.8695    4.4751 C   0  0  0  0  0  0  0  0  0  0  0  0
    6.6042   25.7193    3.5577 C   0  0  0  0  0  0  0  0  0  0  0  0
    6.8422   25.0890    2.2484 C   0  0  0  0  0  0  0  0  0  0  0  0
    8.1943   24.6165    1.8873 C   0  0  0  0  0  0  0  0  0  0  0  0
    9.2731   24.7848    2.8429 C   0  0  0  0  0  0  0  0  0  0  0  0
    5.9152   24.9398    1.4071 C   0  0  0  0  0  0  0  0  0  0  0  0
    5.3511   26.1254    1.1328 O   0  0  0  0  0  0  0  0  0  0  0  0
    4.9826   26.5040    1.9463 H   0  0  0  0  0  0  0  0  0  0  0  0
   14.1255   23.6080    4.6849 C   0  0  0  0  0  0  0  0  0  0  0  0
   14.6778   22.2390    4.4901 C   0  0  0  0  0  0  0  0  0  0  0  0
   15.8356   21.7859    5.2444 C   0  0  0  0  0  0  0  0  0  0  0  0
   16.3728   20.4215    5.0231 C   0  0  0  0  0  0  0  0  0  0  0  0
   15.7399   19.5140    4.0355 C   0  0  0  0  0  0  0  0  0  0  0  0
   14.5594   19.9924    3.2771 C   0  0  0  0  0  0  0  0  0  0  0  0
   14.0431   21.3454    3.5114 C   0  0  0  0  0  0  0  0  0  0  0  0
   16.2257   18.2835    3.8314 C   0  0  0  0  0  0  0  0  0  0  0  0
   16.7938   17.6140    4.8385 O   0  0  0  0  0  0  0  0  0  0  0  0
   16.1360   17.0339    5.2528 H   0  0  0  0  0  0  0  0  0  0  0  0
   16.1302   17.7045    2.5953 O   0  0  0  0  0  0  0  0  0  0  0  0
   17.2330   17.5425    1.7912 C   0  0  0  0  0  0  0  0  0  0  0  0
   10.3044   24.3743    8.1136 C   0  0  0  0  0  0  0  0  0  0  0  0
    9.0315   25.0054    8.2777 O   0  0  0  0  0  0  0  0  0  0  0  0
    8.7647   26.2232    8.7157 C   0  0  0  0  0  0  0  0  0  0  0  0
    7.5622   26.9653    8.2887 C   0  0  0  0  0  0  0  0  0  0  0  0
    7.3016   28.2935    8.7896 C   0  0  0  0  0  0  0  0  0  0  0  0
    8.2364   28.8949    9.7198 C   0  0  0  0  0  0  0  0  0  0  0  0
    9.4176   28.1719   10.1408 C   0  0  0  0  0  0  0  0  0  0  0  0
    9.6780   26.8373    9.6369 C   0  0  0  0  0  0  0  0  0  0  0  0
   15.0276   23.0528    7.7114 C   0  0  0  0  0  0  0  0  0  0  0  0
   14.8191   22.0970    8.8233 O   0  0  0  0  0  0  0  0  0  0  0  0
   15.8119   21.1740    9.1234 C   0  0  0  0  0  0  0  0  0  0  0  0
   17.1779   21.4402    8.7235 C   0  0  0  0  0  0  0  0  0  0  0  0
   18.2439   20.4765    9.0349 C   0  0  0  0  0  0  0  0  0  0  0  0
   17.9371   19.2387    9.7521 C   0  0  0  0  0  0  0  0  0  0  0  0
   16.5787   18.9553   10.1569 C   0  0  0  0  0  0  0  0  0  0  0  0
   15.5138   19.9171    9.8455 C   0  0  0  0  0  0  0  0  0  0  0  0
  1  2  1  0  0  0
  1  7  1  0  0  0
  1 14  1  0  0  0
  2  3  1  0  0  0
  2  8  2  0  0  0
  2 11  2  0  0  0
  3  4  1  0  0  0
  3 24  1  0  0  0
  4  5  1  0  0  0
  4 44  1  0  0  0
  5  6  1  0  0  0
  5  9  1  0  0  0
  6  7  1  0  0  0
  6 10  1  0  0  0
  7 36  1  0  0  0
 14 15  1  0  0  0
 15 16  2  0  0  0
 15 20  1  0  0  0
 16 17  1  0  0  0
 17 18  2  0  0  0
 18 19  1  0  0  0
 18 21  1  0  0  0
 19 20  2  0  0  0
 45 46  1  0  0  0
 45 44  1  0  0  0
 46 47  2  0  0  0
 46 51  1  0  0  0
 47 48  1  0  0  0
 48 49  2  0  0  0
 49 50  1  0  0  0
 50 51  2  0  0  0
 24 25  1  0  0  0
 25 26  2  0  0  0
 25 30  1  0  0  0
 26 27  1  0  0  0
 27 28  2  0  0  0
 28 29  1  0  0  0
 28 31  1  0  0  0
 29 30  2  0  0  0
 36 37  1  0  0  0
 37 38  1  0  0  0
 38 39  2  0  0  0
 38 43  1  0  0  0
 39 40  1  0  0  0
 40 41  2  0  0  0
 41 42  1  0  0  0
 42 43  2  0  0  0
 31 34  1  0  0  0
 31 32  1  0  0  0
 34 35  1  0  0  0
 21 22  1  0  0  0
  9 12  1  0  0  0
 10 13  1  0  0  0
 32 33  1  0  0  0
 22 23  1  0  0  0
M  END
> <minimizedAffinity>
-10.41746

$$$$
1G35_AHF_B_501


 51 55  0  0  0  0  0  0  0  0999 V2000
   10.7254   24.5629    6.2941 N   0  0  0  0  0  0  0  0  0  0  0  0
   11.7953   25.3339    5.2217 S   0  0  0  0  0  0  0  0  0  0  0  0
   12.0520   23.9864    4.2371 N   0  0  0  0  0  0  0  0  0  0  0  0
   13.1137   23.0872    4.7470 C   0  0  0  0  0  0  0  0  0  0  0  0
   12.3740   21.9530    5.5564 C   0  0  0  0  0  0  0  0  0  0  0  0
   11.0618   22.3305    6.3220 C   0  0  0  0  0  0  0  0  0  0  0  0
   11.0471   23.5040    7.2932 C   0  0  0  0  0  0  0  0  0  0  0  0
   12.9859   25.7304    5.9490 O   0  0  0  0  0  0  0  0  0  0  0  0
   11.9872   20.8739    4.7589 O   0  0  0  0  0  0  0  0  0  0  0  0
   10.6740   21.2261    7.0251 O   0  0  0  0  0  0  0  0  0  0  0  0
   11.1036   26.2703    4.4442 O   0  0  0  0  0  0  0  0  0  0  0  0
   11.2899   21.1576    4.1471 H   0  0  0  0  0  0  0  0  0  0  0  0
   11.3363   21.0267    7.7052 H   0  0  0  0  0  0  0  0  0  0  0  0
    9.9561   25.5636    6.9788 C   0  0  0  0  0  0  0  0  0  0  0  0
    8.6399   26.1925    6.7340 C   0  0  0  0  0  0  0  0  0  0  0  0
    7.5916   26.0570    7.7073 C   0  0  0  0  0  0  0  0  0  0  0  0
    6.3147   26.6553    7.4889 C   0  0  0  0  0  0  0  0  0  0  0  0
    6.0704   27.4178    6.2532 C   0  0  0  0  0  0  0  0  0  0  0  0
    7.1419   27.5631    5.2469 C   0  0  0  0  0  0  0  0  0  0  0  0
    8.4287   26.9428    5.5001 C   0  0  0  0  0  0  0  0  0  0  0  0
    4.9585   27.9652    6.0219 C   0  0  0  0  0  0  0  0  0  0  0  0
    4.8903   28.3367    4.7349 O   0  0  0  0  0  0  0  0  0  0  0  0
    5.6006   28.9688    4.5428 H   0  0  0  0  0  0  0  0  0  0  0  0
   11.1377   23.7008    3.0707 C   0  0  0  0  0  0  0  0  0  0  0  0
    9.7482   24.1998    2.8766 C   0  0  0  0  0  0  0  0  0  0  0  0
    8.6449   23.6602    3.6553 C   0  0  0  0  0  0  0  0  0  0  0  0
    7.2687   24.1666    3.4344 C   0  0  0  0  0  0  0  0  0  0  0  0
    7.0068   25.2188    2.4227 C   0  0  0  0  0  0  0  0  0  0  0  0
    8.1440   25.7583    1.6396 C   0  0  0  0  0  0  0  0  0  0  0  0
    9.4979   25.2443    1.8739 C   0  0  0  0  0  0  0  0  0  0  0  0
    5.7647   25.6744    2.2190 C   0  0  0  0  0  0  0  0  0  0  0  0
    5.4012   26.1047    1.0074 O   0  0  0  0  0  0  0  0  0  0  0  0
    4.9665   25.3839    0.5253 H   0  0  0  0  0  0  0  0  0  0  0  0
    4.8620   25.6886    3.2472 O   0  0  0  0  0  0  0  0  0  0  0  0
    3.5121   25.5665    3.0193 C   0  0  0  0  0  0  0  0  0  0  0  0
   12.3926   23.7302    8.1074 C   0  0  0  0  0  0  0  0  0  0  0  0
   12.9451   22.4440    8.4007 O   0  0  0  0  0  0  0  0  0  0  0  0
   14.2127   22.1080    8.5629 C   0  0  0  0  0  0  0  0  0  0  0  0
   14.6255   21.0106    9.4597 C   0  0  0  0  0  0  0  0  0  0  0  0
   16.0198   20.6697    9.6107 C   0  0  0  0  0  0  0  0  0  0  0  0
   17.0155   21.4189    8.8704 C   0  0  0  0  0  0  0  0  0  0  0  0
   16.6160   22.4966    7.9905 C   0  0  0  0  0  0  0  0  0  0  0  0
   15.2148   22.8379    7.8397 C   0  0  0  0  0  0  0  0  0  0  0  0
   14.0512   22.4903    3.6434 C   0  0  0  0  0  0  0  0  0  0  0  0
   15.2798   22.0438    4.3397 O   0  0  0  0  0  0  0  0  0  0  0  0
   15.7299   20.7427    4.1601 C   0  0  0  0  0  0  0  0  0  0  0  0
   16.7356   20.2061    5.0532 C   0  0  0  0  0  0  0  0  0  0  0  0
   17.2227   18.8294    4.8812 C   0  0  0  0  0  0  0  0  0  0  0  0
   16.6972   17.9865    3.8070 C   0  0  0  0  0  0  0  0  0  0  0  0
   15.6947   18.5064    2.9046 C   0  0  0  0  0  0  0  0  0  0  0  0
   15.2085   19.8813    3.0756 C   0  0  0  0  0  0  0  0  0  0  0  0
  1  2  1  0  0  0
  1  7  1  0  0  0
  1 14  1  0  0  0
  2  3  1  0  0  0
  2  8  2  0  0  0
  2 11  2  0  0  0
  3  4  1  0  0  0
  3 24  1  0  0  0
  4  5  1  0  0  0
  4 44  1  0  0  0
  5  6  1  0  0  0
  5  9  1  0  0  0
  6  7  1  0  0  0
  6 10  1  0  0  0
  7 36  1  0  0  0
 14 15  1  0  0  0
 15 16  2  0  0  0
 15 20  1  0  0  0
 16 17  1  0  0  0
 17 18  2  0  0  0
 18 19  1  0  0  0
 18 21  1  0  0  0
 19 20  2  0  0  0
 45 46  1  0  0  0
 45 44  1  0  0  0
 46 47  2  0  0  0
 46 51  1  0  0  0
 47 48  1  0  0  0
 48 49  2  0  0  0
 49 50  1  0  0  0
 50 51  2  0  0  0
 24 25  1  0  0  0
 25 26  2  0  0  0
 25 30  1  0  0  0
 26 27  1  0  0  0
 27 28  2  0  0  0
 28 29  1  0  0  0
 28 31  1  0  0  0
 29 30  2  0  0  0
 36 37  1  0  0  0
 37 38  1  0  0  0
 38 39  2  0  0  0
 38 43  1  0  0  0
 39 40  1  0  0  0
 40 41  2  0  0  0
 41 42  1  0  0  0
 42 43  2  0  0  0
 31 34  1  0  0  0
 31 32  1  0  0  0
 34 35  1  0  0  0
 21 22  1  0  0  0
  9 12  1  0  0  0
 10 13  1  0  0  0
 32 33  1  0  0  0
 22 23  1  0  0  0
M  END
> <minimizedAffinity>
-10.35754

$$$$
1G35_AHF_B_501


 51 55  0  0  0  0  0  0  0  0999 V2000
   14.7436   21.9667    6.6557 N   0  0  0  0  0  0  0  0  0  0  0  0
   14.6585   23.6635    6.6035 S   0  0  0  0  0  0  0  0  0  0  0  0
   12.9785   23.7466    6.4561 N   0  0  0  0  0  0  0  0  0  0  0  0
   12.5103   23.6186    5.0560 C   0  0  0  0  0  0  0  0  0  0  0  0
   12.1302   22.1001    4.8596 C   0  0  0  0  0  0  0  0  0  0  0  0
   12.9608   21.0261    5.6388 C   0  0  0  0  0  0  0  0  0  0  0  0
   14.4810   21.0096    5.5432 C   0  0  0  0  0  0  0  0  0  0  0  0
   15.3481   24.1328    5.4170 O   0  0  0  0  0  0  0  0  0  0  0  0
   10.8110   21.8148    5.2175 O   0  0  0  0  0  0  0  0  0  0  0  0
   12.5220   19.8006    5.2263 O   0  0  0  0  0  0  0  0  0  0  0  0
   14.9760   24.1988    7.8575 O   0  0  0  0  0  0  0  0  0  0  0  0
   10.7073   21.9150    6.1767 H   0  0  0  0  0  0  0  0  0  0  0  0
   12.7358   19.6797    4.2879 H   0  0  0  0  0  0  0  0  0  0  0  0
   15.9941   21.5846    7.2493 C   0  0  0  0  0  0  0  0  0  0  0  0
   16.3915   20.5527    8.2316 C   0  0  0  0  0  0  0  0  0  0  0  0
   17.6494   19.8739    8.0851 C   0  0  0  0  0  0  0  0  0  0  0  0
   18.0500   18.8746    9.0216 C   0  0  0  0  0  0  0  0  0  0  0  0
   17.1641   18.5365   10.1482 C   0  0  0  0  0  0  0  0  0  0  0  0
   15.8692   19.2291   10.3077 C   0  0  0  0  0  0  0  0  0  0  0  0
   15.4923   20.2404    9.3381 C   0  0  0  0  0  0  0  0  0  0  0  0
   17.4805   17.6627   11.0001 C   0  0  0  0  0  0  0  0  0  0  0  0
   18.5856   17.0149   10.6024 O   0  0  0  0  0  0  0  0  0  0  0  0
   18.4173   16.5811    9.7513 H   0  0  0  0  0  0  0  0  0  0  0  0
   12.0991   23.7711    7.6825 C   0  0  0  0  0  0  0  0  0  0  0  0
   11.2395   24.8944    8.1480 C   0  0  0  0  0  0  0  0  0  0  0  0
   11.8268   26.1260    8.6510 C   0  0  0  0  0  0  0  0  0  0  0  0
   10.9481   27.2251    9.1190 C   0  0  0  0  0  0  0  0  0  0  0  0
    9.4729   27.0781    9.0809 C   0  0  0  0  0  0  0  0  0  0  0  0
    8.8921   25.8162    8.5633 C   0  0  0  0  0  0  0  0  0  0  0  0
    9.7788   24.7414    8.1044 C   0  0  0  0  0  0  0  0  0  0  0  0
    8.6781   28.0675    9.5067 C   0  0  0  0  0  0  0  0  0  0  0  0
    9.1478   28.9812   10.3609 O   0  0  0  0  0  0  0  0  0  0  0  0
    9.4583   29.7561    9.8669 H   0  0  0  0  0  0  0  0  0  0  0  0
    7.3880   28.1522    9.0585 O   0  0  0  0  0  0  0  0  0  0  0  0
    6.7723   29.3661    8.8680 C   0  0  0  0  0  0  0  0  0  0  0  0
   15.0787   21.4327    4.1331 C   0  0  0  0  0  0  0  0  0  0  0  0
   15.1652   20.2550    3.3262 O   0  0  0  0  0  0  0  0  0  0  0  0
   16.1310   19.3542    3.2822 C   0  0  0  0  0  0  0  0  0  0  0  0
   16.2157   18.3459    2.2073 C   0  0  0  0  0  0  0  0  0  0  0  0
   17.2862   17.3781    2.1901 C   0  0  0  0  0  0  0  0  0  0  0  0
   18.2817   17.4053    3.2432 C   0  0  0  0  0  0  0  0  0  0  0  0
   18.2025   18.3913    4.3000 C   0  0  0  0  0  0  0  0  0  0  0  0
   17.1264   19.3632    4.3160 C   0  0  0  0  0  0  0  0  0  0  0  0
   11.3218   24.5646    4.6746 C   0  0  0  0  0  0  0  0  0  0  0  0
   10.7893   24.0631    3.3867 O   0  0  0  0  0  0  0  0  0  0  0  0
    9.5354   24.4793    2.9597 C   0  0  0  0  0  0  0  0  0  0  0  0
    8.3523   23.9864    3.6336 C   0  0  0  0  0  0  0  0  0  0  0  0
    7.0158   24.4180    3.1982 C   0  0  0  0  0  0  0  0  0  0  0  0
    6.8660   25.3499    2.0804 C   0  0  0  0  0  0  0  0  0  0  0  0
    8.0359   25.8503    1.3944 C   0  0  0  0  0  0  0  0  0  0  0  0
    9.3706   25.4190    1.8284 C   0  0  0  0  0  0  0  0  0  0  0  0
  1  2  1  0  0  0
  1  7  1  0  0  0
  1 14  1  0  0  0
  2  3  1  0  0  0
  2  8  2  0  0  0
  2 11  2  0  0  0
  3  4  1  0  0  0
  3 24  1  0  0  0
  4  5  1  0  0  0
  4 44  1  0  0  0
  5  6  1  0  0  0
  5  9  1  0  0  0
  6  7  1  0  0  0
  6 10  1  0  0  0
  7 36  1  0  0  0
 14 15  1  0  0  0
 15 16  2  0  0  0
 15 20  1  0  0  0
 16 17  1  0  0  0
 17 18  2  0  0  0
 18 19  1  0  0  0
 18 21  1  0  0  0
 19 20  2  0  0  0
 45 46  1  0  0  0
 45 44  1  0  0  0
 46 47  2  0  0  0
 46 51  1  0  0  0
 47 48  1  0  0  0
 48 49  2  0  0  0
 49 50  1  0  0  0
 50 51  2  0  0  0
 24 25  1  0  0  0
 25 26  2  0  0  0
 25 30  1  0  0  0
 26 27  1  0  0  0
 27 28  2  0  0  0
 28 29  1  0  0  0
 28 31  1  0  0  0
 29 30  2  0  0  0
 36 37  1  0  0  0
 37 38  1  0  0  0
 38 39  2  0  0  0
 38 43  1  0  0  0
 39 40  1  0  0  0
 40 41  2  0  0  0
 41 42  1  0  0  0
 42 43  2  0  0  0
 31 34  1  0  0  0
 31 32  1  0  0  0
 34 35  1  0  0  0
 21 22  1  0  0  0
  9 12  1  0  0  0
 10 13  1  0  0  0
 32 33  1  0  0  0
 22 23  1  0  0  0
M  END
> <minimizedAffinity>
-10.25904

$$$$
1G35_AHF_B_501


 51 55  0  0  0  0  0  0  0  0999 V2000
   10.5105   24.7446    4.7558 N   0  0  0  0  0  0  0  0  0  0  0  0
   12.0599   24.8655    4.0676 S   0  0  0  0  0  0  0  0  0  0  0  0
   12.6819   23.4771    4.8000 N   0  0  0  0  0  0  0  0  0  0  0  0
   13.2020   23.7232    6.1656 C   0  0  0  0  0  0  0  0  0  0  0  0
   12.0362   23.3324    7.1540 C   0  0  0  0  0  0  0  0  0  0  0  0
   10.5621   23.5782    6.6883 C   0  0  0  0  0  0  0  0  0  0  0  0
   10.1323   24.9497    6.1833 C   0  0  0  0  0  0  0  0  0  0  0  0
   12.6926   26.0807    4.5438 O   0  0  0  0  0  0  0  0  0  0  0  0
   12.0459   21.9810    7.5058 O   0  0  0  0  0  0  0  0  0  0  0  0
    9.7501   23.2687    7.7415 O   0  0  0  0  0  0  0  0  0  0  0  0
   11.9974   24.5987    2.6947 O   0  0  0  0  0  0  0  0  0  0  0  0
   11.8260   21.4432    6.7291 H   0  0  0  0  0  0  0  0  0  0  0  0
    9.9117   23.8907    8.4681 H   0  0  0  0  0  0  0  0  0  0  0  0
    9.5921   25.5152    3.9653 C   0  0  0  0  0  0  0  0  0  0  0  0
    8.1176   25.6221    3.9176 C   0  0  0  0  0  0  0  0  0  0  0  0
    7.4631   26.7486    4.5237 C   0  0  0  0  0  0  0  0  0  0  0  0
    6.0418   26.8690    4.4891 C   0  0  0  0  0  0  0  0  0  0  0  0
    5.2393   25.8275    3.8262 C   0  0  0  0  0  0  0  0  0  0  0  0
    5.9028   24.6659    3.1998 C   0  0  0  0  0  0  0  0  0  0  0  0
    7.3499   24.5741    3.2523 C   0  0  0  0  0  0  0  0  0  0  0  0
    3.9817   25.8963    3.7698 C   0  0  0  0  0  0  0  0  0  0  0  0
    3.6045   27.1517    3.4859 O   0  0  0  0  0  0  0  0  0  0  0  0
    3.9235   27.7499    4.1797 H   0  0  0  0  0  0  0  0  0  0  0  0
   12.5293   22.1269    4.1431 C   0  0  0  0  0  0  0  0  0  0  0  0
   13.6200   21.1967    3.7401 C   0  0  0  0  0  0  0  0  0  0  0  0
   14.1579   21.2164    2.3891 C   0  0  0  0  0  0  0  0  0  0  0  0
   15.2363   20.2716    2.0104 C   0  0  0  0  0  0  0  0  0  0  0  0
   15.7704   19.3031    2.9984 C   0  0  0  0  0  0  0  0  0  0  0  0
   15.2112   19.2988    4.3713 C   0  0  0  0  0  0  0  0  0  0  0  0
   14.1452   20.2421    4.7260 C   0  0  0  0  0  0  0  0  0  0  0  0
   16.7410   18.4467    2.6574 C   0  0  0  0  0  0  0  0  0  0  0  0
   17.5171   18.7029    1.6004 O   0  0  0  0  0  0  0  0  0  0  0  0
   18.3291   19.1443    1.8948 H   0  0  0  0  0  0  0  0  0  0  0  0
   16.9483   17.3145    3.3974 O   0  0  0  0  0  0  0  0  0  0  0  0
   18.1946   16.9875    3.8757 C   0  0  0  0  0  0  0  0  0  0  0  0
   10.8303   26.1865    6.8958 C   0  0  0  0  0  0  0  0  0  0  0  0
   10.2900   26.2897    8.2161 O   0  0  0  0  0  0  0  0  0  0  0  0
    9.3960   27.1468    8.6769 C   0  0  0  0  0  0  0  0  0  0  0  0
    8.0692   27.3099    8.0508 C   0  0  0  0  0  0  0  0  0  0  0  0
    7.1165   28.2546    8.5827 C   0  0  0  0  0  0  0  0  0  0  0  0
    7.4767   29.0458    9.7425 C   0  0  0  0  0  0  0  0  0  0  0  0
    8.7768   28.8903   10.3595 C   0  0  0  0  0  0  0  0  0  0  0  0
    9.7329   27.9406    9.8241 C   0  0  0  0  0  0  0  0  0  0  0  0
   14.5275   22.9621    6.5077 C   0  0  0  0  0  0  0  0  0  0  0  0
   14.5728   22.8509    7.9839 O   0  0  0  0  0  0  0  0  0  0  0  0
   15.4956   21.9982    8.5747 C   0  0  0  0  0  0  0  0  0  0  0  0
   15.0283   20.8817    9.3697 C   0  0  0  0  0  0  0  0  0  0  0  0
   15.9899   19.9657   10.0009 C   0  0  0  0  0  0  0  0  0  0  0  0
   17.4286   20.1712    9.8327 C   0  0  0  0  0  0  0  0  0  0  0  0
   17.9132   21.2819    9.0446 C   0  0  0  0  0  0  0  0  0  0  0  0
   16.9533   22.1973    8.4148 C   0  0  0  0  0  0  0  0  0  0  0  0
  1  2  1  0  0  0
  1  7  1  0  0  0
  1 14  1  0  0  0
  2  3  1  0  0  0
  2  8  2  0  0  0
  2 11  2  0  0  0
  3  4  1  0  0  0
  3 24  1  0  0  0
  4  5  1  0  0  0
  4 44  1  0  0  0
  5  6  1  0  0  0
  5  9  1  0  0  0
  6  7  1  0  0  0
  6 10  1  0  0  0
  7 36  1  0  0  0
 14 15  1  0  0  0
 15 16  2  0  0  0
 15 20  1  0  0  0
 16 17  1  0  0  0
 17 18  2  0  0  0
 18 19  1  0  0  0
 18 21  1  0  0  0
 19 20  2  0  0  0
 45 46  1  0  0  0
 45 44  1  0  0  0
 46 47  2  0  0  0
 46 51  1  0  0  0
 47 48  1  0  0  0
 48 49  2  0  0  0
 49 50  1  0  0  0
 50 51  2  0  0  0
 24 25  1  0  0  0
 25 26  2  0  0  0
 25 30  1  0  0  0
 26 27  1  0  0  0
 27 28  2  0  0  0
 28 29  1  0  0  0
 28 31  1  0  0  0
 29 30  2  0  0  0
 36 37  1  0  0  0
 37 38  1  0  0  0
 38 39  2  0  0  0
 38 43  1  0  0  0
 39 40  1  0  0  0
 40 41  2  0  0  0
 41 42  1  0  0  0
 42 43  2  0  0  0
 31 34  1  0  0  0
 31 32  1  0  0  0
 34 35  1  0  0  0
 21 22  1  0  0  0
  9 12  1  0  0  0
 10 13  1  0  0  0
 32 33  1  0  0  0
 22 23  1  0  0  0
M  END
> <minimizedAffinity>
-10.01610

$$$$
1G35_AHF_B_501


 51 55  0  0  0  0  0  0  0  0999 V2000
   12.2188   24.4727    5.9810 N   0  0  0  0  0  0  0  0  0  0  0  0
   13.0942   24.6166    4.5312 S   0  0  0  0  0  0  0  0  0  0  0  0
   12.6481   23.1108    3.9111 N   0  0  0  0  0  0  0  0  0  0  0  0
   13.5090   22.0050    4.3930 C   0  0  0  0  0  0  0  0  0  0  0  0
   12.7517   21.3647    5.6198 C   0  0  0  0  0  0  0  0  0  0  0  0
   11.8935   22.3067    6.5290 C   0  0  0  0  0  0  0  0  0  0  0  0
   12.5060   23.5658    7.1290 C   0  0  0  0  0  0  0  0  0  0  0  0
   14.5087   24.6971    4.8417 O   0  0  0  0  0  0  0  0  0  0  0  0
   11.8523   20.3637    5.2469 O   0  0  0  0  0  0  0  0  0  0  0  0
   11.4334   21.5521    7.5699 O   0  0  0  0  0  0  0  0  0  0  0  0
   12.5011   25.5796    3.7060 O   0  0  0  0  0  0  0  0  0  0  0  0
   11.1164   20.7578    4.7529 H   0  0  0  0  0  0  0  0  0  0  0  0
   12.1820   21.2600    8.1132 H   0  0  0  0  0  0  0  0  0  0  0  0
   12.0095   25.7843    6.5268 C   0  0  0  0  0  0  0  0  0  0  0  0
   10.8965   26.4255    7.2601 C   0  0  0  0  0  0  0  0  0  0  0  0
    9.7199   26.8439    6.5492 C   0  0  0  0  0  0  0  0  0  0  0  0
    8.6362   27.4653    7.2387 C   0  0  0  0  0  0  0  0  0  0  0  0
    8.7262   27.6798    8.6927 C   0  0  0  0  0  0  0  0  0  0  0  0
    9.9313   27.2527    9.4324 C   0  0  0  0  0  0  0  0  0  0  0  0
   11.0151   26.6234    8.7013 C   0  0  0  0  0  0  0  0  0  0  0  0
    7.7908   28.2217    9.3412 C   0  0  0  0  0  0  0  0  0  0  0  0
    8.2955   29.0637   10.2551 O   0  0  0  0  0  0  0  0  0  0  0  0
    8.8631   28.5721   10.8691 H   0  0  0  0  0  0  0  0  0  0  0  0
   11.3860   22.9572    3.0977 C   0  0  0  0  0  0  0  0  0  0  0  0
   10.1941   23.8496    3.1137 C   0  0  0  0  0  0  0  0  0  0  0  0
    9.3079   23.8923    4.2659 C   0  0  0  0  0  0  0  0  0  0  0  0
    8.1212   24.7815    4.2516 C   0  0  0  0  0  0  0  0  0  0  0  0
    7.8282   25.6275    3.0693 C   0  0  0  0  0  0  0  0  0  0  0  0
    8.7438   25.5722    1.9047 C   0  0  0  0  0  0  0  0  0  0  0  0
    9.9126   24.6865    1.9391 C   0  0  0  0  0  0  0  0  0  0  0  0
    6.7554   26.4278    3.0528 C   0  0  0  0  0  0  0  0  0  0  0  0
    5.8438   26.3034    2.0839 O   0  0  0  0  0  0  0  0  0  0  0  0
    5.1232   25.7306    2.3896 H   0  0  0  0  0  0  0  0  0  0  0  0
    6.5839   27.3656    4.0344 O   0  0  0  0  0  0  0  0  0  0  0  0
    5.4857   27.3477    4.8607 C   0  0  0  0  0  0  0  0  0  0  0  0
   14.0387   23.4512    7.5321 C   0  0  0  0  0  0  0  0  0  0  0  0
   14.1814   22.3079    8.3795 O   0  0  0  0  0  0  0  0  0  0  0  0
   15.2880   21.6859    8.7464 C   0  0  0  0  0  0  0  0  0  0  0  0
   15.2738   20.5463    9.6846 C   0  0  0  0  0  0  0  0  0  0  0  0
   16.5022   19.8892   10.0617 C   0  0  0  0  0  0  0  0  0  0  0  0
   17.7559   20.3613    9.5083 C   0  0  0  0  0  0  0  0  0  0  0  0
   17.7753   21.4791    8.5887 C   0  0  0  0  0  0  0  0  0  0  0  0
   16.5402   22.1382    8.2106 C   0  0  0  0  0  0  0  0  0  0  0  0
   13.8623   20.9312    3.3090 C   0  0  0  0  0  0  0  0  0  0  0  0
   15.3375   20.9442    3.1776 O   0  0  0  0  0  0  0  0  0  0  0  0
   16.0415   19.7522    3.2845 C   0  0  0  0  0  0  0  0  0  0  0  0
   16.0481   18.8253    2.1720 C   0  0  0  0  0  0  0  0  0  0  0  0
   16.7904   17.5594    2.2648 C   0  0  0  0  0  0  0  0  0  0  0  0
   17.5304   17.2222    3.4810 C   0  0  0  0  0  0  0  0  0  0  0  0
   17.5329   18.1343    4.6024 C   0  0  0  0  0  0  0  0  0  0  0  0
   16.7912   19.3983    4.5104 C   0  0  0  0  0  0  0  0  0  0  0  0
  1  2  1  0  0  0
  1  7  1  0  0  0
  1 14  1  0  0  0
  2  3  1  0  0  0
  2  8  2  0  0  0
  2 11  2  0  0  0
  3  4  1  0  0  0
  3 24  1  0  0  0
  4  5  1  0  0  0
  4 44  1  0  0  0
  5  6  1  0  0  0
  5  9  1  0  0  0
  6  7  1  0  0  0
  6 10  1  0  0  0
  7 36  1  0  0  0
 14 15  1  0  0  0
 15 16  2  0  0  0
 15 20  1  0  0  0
 16 17  1  0  0  0
 17 18  2  0  0  0
 18 19  1  0  0  0
 18 21  1  0  0  0
 19 20  2  0  0  0
 45 46  1  0  0  0
 45 44  1  0  0  0
 46 47  2  0  0  0
 46 51  1  0  0  0
 47 48  1  0  0  0
 48 49  2  0  0  0
 49 50  1  0  0  0
 50 51  2  0  0  0
 24 25  1  0  0  0
 25 26  2  0  0  0
 25 30  1  0  0  0
 26 27  1  0  0  0
 27 28  2  0  0  0
 28 29  1  0  0  0
 28 31  1  0  0  0
 29 30  2  0  0  0
 36 37  1  0  0  0
 37 38  1  0  0  0
 38 39  2  0  0  0
 38 43  1  0  0  0
 39 40  1  0  0  0
 40 41  2  0  0  0
 41 42  1  0  0  0
 42 43  2  0  0  0
 31 34  1  0  0  0
 31 32  1  0  0  0
 34 35  1  0  0  0
 21 22  1  0  0  0
  9 12  1  0  0  0
 10 13  1  0  0  0
 32 33  1  0  0  0
 22 23  1  0  0  0
M  END
> <minimizedAffinity>
-9.54211

$$$$
