3BUF_AEG_A_394


 14 14  0  0  0  0  0  0  0  0999 V2000
  -22.4117   39.6879   93.3519 C   0  0  0  0  0  0  0  0  0  0  0  0
  -21.4878   40.4816   95.4796 C   0  0  0  0  0  0  0  0  0  0  0  0
  -22.5339   40.3955   94.5512 C   0  0  0  0  0  0  0  0  0  0  0  0
  -23.7188   41.0195   94.8178 O   0  0  0  0  0  0  0  0  0  0  0  0
  -20.2868   39.8315   95.1854 C   0  0  0  0  0  0  0  0  0  0  0  0
  -21.2053   39.0464   93.0779 C   0  0  0  0  0  0  0  0  0  0  0  0
  -20.1435   39.1186   93.9857 C   0  0  0  0  0  0  0  0  0  0  0  0
  -24.4243   40.9678   94.2033 H   0  0  0  0  0  0  0  0  0  0  0  0
  -18.8456   38.4068   93.6878 C   0  0  0  0  0  0  0  0  0  0  0  0
  -17.6574   39.3390   93.4185 C   0  0  0  0  0  0  0  0  0  0  0  0
  -17.4599   39.5228   91.9280 N   0  0  0  0  0  0  0  0  0  0  0  0
  -16.3826   38.7844   94.0606 C   0  0  0  0  0  0  0  0  0  0  0  0
  -17.2572   38.6203   91.4980 H   0  0  0  0  0  0  0  0  0  0  0  0
  -16.6805   40.1601   91.7643 H   0  0  0  0  0  0  0  0  0  0  0  0
  9 10  1  0  0  0
  9  7  1  0  0  0
  1  3  2  0  0  0
  1  6  1  0  0  0
  2  3  1  0  0  0
  2  5  2  0  0  0
 10 11  1  0  0  0
 10 12  1  0  0  0
  3  4  1  0  0  0
  5  7  1  0  0  0
  6  7  2  0  0  0
  4  8  1  0  0  0
 11 13  1  0  0  0
 11 14  1  0  0  0
M  END
> <minimizedAffinity>
-4.93704

$$$$
3BUF_AEG_A_394


 14 14  0  0  0  0  0  0  0  0999 V2000
  -21.6935   41.0723   91.8799 C   0  0  0  0  0  0  0  0  0  0  0  0
  -21.6449   38.9024   93.0200 C   0  0  0  0  0  0  0  0  0  0  0  0
  -22.3117   40.0746   92.6391 C   0  0  0  0  0  0  0  0  0  0  0  0
  -23.6112   40.2584   93.0161 O   0  0  0  0  0  0  0  0  0  0  0  0
  -20.3172   38.7362   92.6188 C   0  0  0  0  0  0  0  0  0  0  0  0
  -20.3686   40.8866   91.4898 C   0  0  0  0  0  0  0  0  0  0  0  0
  -19.6782   39.7273   91.8588 C   0  0  0  0  0  0  0  0  0  0  0  0
  -24.0655   41.0388   92.7663 H   0  0  0  0  0  0  0  0  0  0  0  0
  -18.2480   39.5275   91.4178 C   0  0  0  0  0  0  0  0  0  0  0  0
  -17.2590   40.5532   91.9864 C   0  0  0  0  0  0  0  0  0  0  0  0
  -15.9838   40.5639   91.1691 N   0  0  0  0  0  0  0  0  0  0  0  0
  -16.9489   40.2447   93.4539 C   0  0  0  0  0  0  0  0  0  0  0  0
  -15.5447   39.6442   91.2120 H   0  0  0  0  0  0  0  0  0  0  0  0
  -15.3444   41.2637   91.5456 H   0  0  0  0  0  0  0  0  0  0  0  0
  9 10  1  0  0  0
  9  7  1  0  0  0
  1  3  2  0  0  0
  1  6  1  0  0  0
  2  3  1  0  0  0
  2  5  2  0  0  0
 10 11  1  0  0  0
 10 12  1  0  0  0
  3  4  1  0  0  0
  5  7  1  0  0  0
  6  7  2  0  0  0
  4  8  1  0  0  0
 11 13  1  0  0  0
 11 14  1  0  0  0
M  END
> <minimizedAffinity>
-4.83752

$$$$
3BUF_AEG_A_394


 14 14  0  0  0  0  0  0  0  0999 V2000
  -20.3624   39.5404   94.8444 C   0  0  0  0  0  0  0  0  0  0  0  0
  -20.2520   38.6838   92.5499 C   0  0  0  0  0  0  0  0  0  0  0  0
  -19.7238   38.8042   93.8422 C   0  0  0  0  0  0  0  0  0  0  0  0
  -18.5457   38.1837   94.1446 O   0  0  0  0  0  0  0  0  0  0  0  0
  -21.4604   39.3248   92.2664 C   0  0  0  0  0  0  0  0  0  0  0  0
  -21.5671   40.1719   94.5408 C   0  0  0  0  0  0  0  0  0  0  0  0
  -22.1152   40.0708   93.2578 C   0  0  0  0  0  0  0  0  0  0  0  0
  -18.1845   38.2583   95.0060 H   0  0  0  0  0  0  0  0  0  0  0  0
  -23.4291   40.7449   92.9427 C   0  0  0  0  0  0  0  0  0  0  0  0
  -23.7824   41.9131   93.8723 C   0  0  0  0  0  0  0  0  0  0  0  0
  -25.0317   41.5940   94.6671 N   0  0  0  0  0  0  0  0  0  0  0  0
  -23.9774   43.2009   93.0671 C   0  0  0  0  0  0  0  0  0  0  0  0
  -25.8138   41.4509   94.0282 H   0  0  0  0  0  0  0  0  0  0  0  0
  -25.2429   42.3699   95.2947 H   0  0  0  0  0  0  0  0  0  0  0  0
  9 10  1  0  0  0
  9  7  1  0  0  0
  1  3  2  0  0  0
  1  6  1  0  0  0
  2  3  1  0  0  0
  2  5  2  0  0  0
 10 11  1  0  0  0
 10 12  1  0  0  0
  3  4  1  0  0  0
  5  7  1  0  0  0
  6  7  2  0  0  0
  4  8  1  0  0  0
 11 13  1  0  0  0
 11 14  1  0  0  0
M  END
> <minimizedAffinity>
-4.82272

$$$$
3BUF_AEG_A_394


 14 14  0  0  0  0  0  0  0  0999 V2000
  -21.8195   38.9221   93.0451 C   0  0  0  0  0  0  0  0  0  0  0  0
  -21.7216   41.0742   91.8749 C   0  0  0  0  0  0  0  0  0  0  0  0
  -22.4180   40.1102   92.6161 C   0  0  0  0  0  0  0  0  0  0  0  0
  -23.7269   40.3295   92.9374 O   0  0  0  0  0  0  0  0  0  0  0  0
  -20.3825   40.8283   91.5620 C   0  0  0  0  0  0  0  0  0  0  0  0
  -20.4826   38.6964   92.7226 C   0  0  0  0  0  0  0  0  0  0  0  0
  -19.7646   39.6405   91.9810 C   0  0  0  0  0  0  0  0  0  0  0  0
  -24.2011   39.6909   93.4327 H   0  0  0  0  0  0  0  0  0  0  0  0
  -18.3120   39.3948   91.6503 C   0  0  0  0  0  0  0  0  0  0  0  0
  -17.3728   40.5510   92.0173 C   0  0  0  0  0  0  0  0  0  0  0  0
  -16.1939   40.5933   91.0672 N   0  0  0  0  0  0  0  0  0  0  0  0
  -16.8875   40.4112   93.4629 C   0  0  0  0  0  0  0  0  0  0  0  0
  -15.6670   39.7229   91.1402 H   0  0  0  0  0  0  0  0  0  0  0  0
  -15.5893   41.3780   91.3103 H   0  0  0  0  0  0  0  0  0  0  0  0
  9 10  1  0  0  0
  9  7  1  0  0  0
  1  3  2  0  0  0
  1  6  1  0  0  0
  2  3  1  0  0  0
  2  5  2  0  0  0
 10 11  1  0  0  0
 10 12  1  0  0  0
  3  4  1  0  0  0
  5  7  1  0  0  0
  6  7  2  0  0  0
  4  8  1  0  0  0
 11 13  1  0  0  0
 11 14  1  0  0  0
M  END
> <minimizedAffinity>
-4.78062

$$$$
3BUF_AEG_A_394


 14 14  0  0  0  0  0  0  0  0999 V2000
  -21.1433   39.4868   92.2160 C   0  0  0  0  0  0  0  0  0  0  0  0
  -22.9830   41.0739   92.5435 C   0  0  0  0  0  0  0  0  0  0  0  0
  -22.1168   40.3533   91.7105 C   0  0  0  0  0  0  0  0  0  0  0  0
  -22.2194   40.4935   90.3561 O   0  0  0  0  0  0  0  0  0  0  0  0
  -22.8606   40.9105   93.9255 C   0  0  0  0  0  0  0  0  0  0  0  0
  -21.0381   39.3379   93.5976 C   0  0  0  0  0  0  0  0  0  0  0  0
  -21.8879   40.0477   94.4525 C   0  0  0  0  0  0  0  0  0  0  0  0
  -21.6448   40.0159   89.7908 H   0  0  0  0  0  0  0  0  0  0  0  0
  -21.7773   39.8676   95.9476 C   0  0  0  0  0  0  0  0  0  0  0  0
  -21.0262   40.9940   96.6690 C   0  0  0  0  0  0  0  0  0  0  0  0
  -21.9678   42.1386   96.9815 N   0  0  0  0  0  0  0  0  0  0  0  0
  -19.8515   41.4870   95.8194 C   0  0  0  0  0  0  0  0  0  0  0  0
  -22.3443   42.5162   96.1120 H   0  0  0  0  0  0  0  0  0  0  0  0
  -21.4602   42.8705   97.4785 H   0  0  0  0  0  0  0  0  0  0  0  0
  9 10  1  0  0  0
  9  7  1  0  0  0
  1  3  2  0  0  0
  1  6  1  0  0  0
  2  3  1  0  0  0
  2  5  2  0  0  0
 10 11  1  0  0  0
 10 12  1  0  0  0
  3  4  1  0  0  0
  5  7  1  0  0  0
  6  7  2  0  0  0
  4  8  1  0  0  0
 11 13  1  0  0  0
 11 14  1  0  0  0
M  END
> <minimizedAffinity>
-4.65611

$$$$
3BUF_AEG_A_394


 14 14  0  0  0  0  0  0  0  0999 V2000
  -18.3054   40.0786   91.5524 C   0  0  0  0  0  0  0  0  0  0  0  0
  -17.7804   39.0139   93.6976 C   0  0  0  0  0  0  0  0  0  0  0  0
  -17.3838   39.6271   92.5016 C   0  0  0  0  0  0  0  0  0  0  0  0
  -16.0534   39.7961   92.2449 O   0  0  0  0  0  0  0  0  0  0  0  0
  -19.1473   38.8560   93.9387 C   0  0  0  0  0  0  0  0  0  0  0  0
  -19.6643   39.9116   91.8126 C   0  0  0  0  0  0  0  0  0  0  0  0
  -20.0879   39.2998   92.9971 C   0  0  0  0  0  0  0  0  0  0  0  0
  -15.7783   40.2050   91.4480 H   0  0  0  0  0  0  0  0  0  0  0  0
  -21.5627   39.1378   93.2778 C   0  0  0  0  0  0  0  0  0  0  0  0
  -22.3010   40.4502   93.5713 C   0  0  0  0  0  0  0  0  0  0  0  0
  -22.9418   40.3982   94.9428 N   0  0  0  0  0  0  0  0  0  0  0  0
  -23.3592   40.7231   92.4986 C   0  0  0  0  0  0  0  0  0  0  0  0
  -23.6227   39.6393   94.9714 H   0  0  0  0  0  0  0  0  0  0  0  0
  -23.4113   41.2836   95.1325 H   0  0  0  0  0  0  0  0  0  0  0  0
  9 10  1  0  0  0
  9  7  1  0  0  0
  1  3  2  0  0  0
  1  6  1  0  0  0
  2  3  1  0  0  0
  2  5  2  0  0  0
 10 11  1  0  0  0
 10 12  1  0  0  0
  3  4  1  0  0  0
  5  7  1  0  0  0
  6  7  2  0  0  0
  4  8  1  0  0  0
 11 13  1  0  0  0
 11 14  1  0  0  0
M  END
> <minimizedAffinity>
-4.61443

$$$$
3BUF_AEG_A_394


 14 14  0  0  0  0  0  0  0  0999 V2000
  -19.1599   38.7368   93.6357 C   0  0  0  0  0  0  0  0  0  0  0  0
  -17.9140   40.7893   94.1309 C   0  0  0  0  0  0  0  0  0  0  0  0
  -18.0389   39.5565   93.4765 C   0  0  0  0  0  0  0  0  0  0  0  0
  -17.0374   39.1321   92.6511 O   0  0  0  0  0  0  0  0  0  0  0  0
  -18.9537   41.2031   94.9671 C   0  0  0  0  0  0  0  0  0  0  0  0
  -20.1860   39.1683   94.4741 C   0  0  0  0  0  0  0  0  0  0  0  0
  -20.0859   40.3932   95.1422 C   0  0  0  0  0  0  0  0  0  0  0  0
  -17.1117   38.3092   92.2091 H   0  0  0  0  0  0  0  0  0  0  0  0
  -21.2098   40.8600   96.0359 C   0  0  0  0  0  0  0  0  0  0  0  0
  -21.9465   42.1073   95.5308 C   0  0  0  0  0  0  0  0  0  0  0  0
  -22.6015   42.8357   96.6862 N   0  0  0  0  0  0  0  0  0  0  0  0
  -22.9926   41.7251   94.4800 C   0  0  0  0  0  0  0  0  0  0  0  0
  -23.2854   42.2231   97.1304 H   0  0  0  0  0  0  0  0  0  0  0  0
  -23.0697   43.6726   96.3388 H   0  0  0  0  0  0  0  0  0  0  0  0
  9 10  1  0  0  0
  9  7  1  0  0  0
  1  3  2  0  0  0
  1  6  1  0  0  0
  2  3  1  0  0  0
  2  5  2  0  0  0
 10 11  1  0  0  0
 10 12  1  0  0  0
  3  4  1  0  0  0
  5  7  1  0  0  0
  6  7  2  0  0  0
  4  8  1  0  0  0
 11 13  1  0  0  0
 11 14  1  0  0  0
M  END
> <minimizedAffinity>
-4.58823

$$$$
3BUF_AEG_A_394


 14 14  0  0  0  0  0  0  0  0999 V2000
  -21.8298   41.3150   88.8208 C   0  0  0  0  0  0  0  0  0  0  0  0
  -22.4753   43.3935   89.9493 C   0  0  0  0  0  0  0  0  0  0  0  0
  -22.0368   42.6974   88.8150 C   0  0  0  0  0  0  0  0  0  0  0  0
  -21.8018   43.3832   87.6578 O   0  0  0  0  0  0  0  0  0  0  0  0
  -22.7122   42.6689   91.1199 C   0  0  0  0  0  0  0  0  0  0  0  0
  -22.0724   40.6109   89.9987 C   0  0  0  0  0  0  0  0  0  0  0  0
  -22.5076   41.2812   91.1468 C   0  0  0  0  0  0  0  0  0  0  0  0
  -21.5084   42.9267   86.8940 H   0  0  0  0  0  0  0  0  0  0  0  0
  -22.7835   40.5077   92.4139 C   0  0  0  0  0  0  0  0  0  0  0  0
  -21.8873   40.8899   93.5989 C   0  0  0  0  0  0  0  0  0  0  0  0
  -20.4281   40.7095   93.2349 N   0  0  0  0  0  0  0  0  0  0  0  0
  -22.2372   40.0498   94.8304 C   0  0  0  0  0  0  0  0  0  0  0  0
  -20.2526   39.7305   93.0090 H   0  0  0  0  0  0  0  0  0  0  0  0
  -19.8441   40.9863   94.0241 H   0  0  0  0  0  0  0  0  0  0  0  0
  9 10  1  0  0  0
  9  7  1  0  0  0
  1  3  2  0  0  0
  1  6  1  0  0  0
  2  3  1  0  0  0
  2  5  2  0  0  0
 10 11  1  0  0  0
 10 12  1  0  0  0
  3  4  1  0  0  0
  5  7  1  0  0  0
  6  7  2  0  0  0
  4  8  1  0  0  0
 11 13  1  0  0  0
 11 14  1  0  0  0
M  END
> <minimizedAffinity>
-4.48641

$$$$
3BUF_AEG_A_394


 14 14  0  0  0  0  0  0  0  0999 V2000
  -19.8266   40.5333   91.8050 C   0  0  0  0  0  0  0  0  0  0  0  0
  -19.8305   38.6863   93.4172 C   0  0  0  0  0  0  0  0  0  0  0  0
  -20.4938   39.5354   92.5212 C   0  0  0  0  0  0  0  0  0  0  0  0
  -21.8384   39.3909   92.3324 O   0  0  0  0  0  0  0  0  0  0  0  0
  -18.4543   38.8518   93.5901 C   0  0  0  0  0  0  0  0  0  0  0  0
  -18.4536   40.6814   91.9919 C   0  0  0  0  0  0  0  0  0  0  0  0
  -17.7670   39.8494   92.8826 C   0  0  0  0  0  0  0  0  0  0  0  0
  -22.2909   39.9538   91.7354 H   0  0  0  0  0  0  0  0  0  0  0  0
  -16.2766   40.0066   93.0665 C   0  0  0  0  0  0  0  0  0  0  0  0
  -15.6070   40.9433   92.0527 C   0  0  0  0  0  0  0  0  0  0  0  0
  -14.4311   40.2519   91.3942 N   0  0  0  0  0  0  0  0  0  0  0  0
  -15.1513   42.2363   92.7349 C   0  0  0  0  0  0  0  0  0  0  0  0
  -13.7397   40.0076   92.1032 H   0  0  0  0  0  0  0  0  0  0  0  0
  -14.0086   40.8783   90.7089 H   0  0  0  0  0  0  0  0  0  0  0  0
  9 10  1  0  0  0
  9  7  1  0  0  0
  1  3  2  0  0  0
  1  6  1  0  0  0
  2  3  1  0  0  0
  2  5  2  0  0  0
 10 11  1  0  0  0
 10 12  1  0  0  0
  3  4  1  0  0  0
  5  7  1  0  0  0
  6  7  2  0  0  0
  4  8  1  0  0  0
 11 13  1  0  0  0
 11 14  1  0  0  0
M  END
> <minimizedAffinity>
-4.23797

$$$$
3BUF_AEG_A_394


 14 14  0  0  0  0  0  0  0  0999 V2000
  -18.0023   42.4133   95.3278 C   0  0  0  0  0  0  0  0  0  0  0  0
  -17.4050   40.3987   94.0648 C   0  0  0  0  0  0  0  0  0  0  0  0
  -17.0881   41.6607   94.5849 C   0  0  0  0  0  0  0  0  0  0  0  0
  -15.8455   42.1825   94.3656 O   0  0  0  0  0  0  0  0  0  0  0  0
  -18.6815   39.8850   94.3059 C   0  0  0  0  0  0  0  0  0  0  0  0
  -19.2702   41.8824   95.5571 C   0  0  0  0  0  0  0  0  0  0  0  0
  -19.6142   40.6261   95.0469 C   0  0  0  0  0  0  0  0  0  0  0  0
  -15.6242   43.0257   94.7093 H   0  0  0  0  0  0  0  0  0  0  0  0
  -20.9849   40.0520   95.3142 C   0  0  0  0  0  0  0  0  0  0  0  0
  -22.0076   40.3042   94.1989 C   0  0  0  0  0  0  0  0  0  0  0  0
  -23.3354   40.7316   94.7892 N   0  0  0  0  0  0  0  0  0  0  0  0
  -22.1856   39.0496   93.3391 C   0  0  0  0  0  0  0  0  0  0  0  0
  -23.6968   39.9883   95.3870 H   0  0  0  0  0  0  0  0  0  0  0  0
  -23.9988   40.9152   94.0364 H   0  0  0  0  0  0  0  0  0  0  0  0
  9 10  1  0  0  0
  9  7  1  0  0  0
  1  3  2  0  0  0
  1  6  1  0  0  0
  2  3  1  0  0  0
  2  5  2  0  0  0
 10 11  1  0  0  0
 10 12  1  0  0  0
  3  4  1  0  0  0
  5  7  1  0  0  0
  6  7  2  0  0  0
  4  8  1  0  0  0
 11 13  1  0  0  0
 11 14  1  0  0  0
M  END
> <minimizedAffinity>
-4.18856

$$$$
