3GY4_PBZ_A_1
  RCSB PDB12061708483D
Coordinates from PDB:3GY4:A:1 Model:1 without hydrogens
 10 10  0  0  0  0            999 V2000
   -2.8520   13.9410   14.0880   N 0  0  0  0  0  0  0  0  0  0  0  0
   -1.7170   12.1590   14.9580   N 0  3  0  0  0  0  0  0  0  0  0  0
   -2.1180   13.4280   15.0660   C 0  0  0  0  0  0  0  0  0  0  0  0
   -1.7750   14.2680   16.2680   C 0  0  0  0  0  0  0  0  0  0  0  0
   -1.0460   14.4040   18.5710   C 0  0  0  0  0  0  0  0  0  0  0  0
   -1.3480   13.6480   17.4430   C 0  0  0  0  0  0  0  0  0  0  0  0
   -1.8870   15.6600   16.2240   C 0  0  0  0  0  0  0  0  0  0  0  0
   -1.5760   16.4150   17.3610   C 0  0  0  0  0  0  0  0  0  0  0  0
   -1.1650   15.7870   18.5320   C 0  0  0  0  0  0  0  0  0  0  0  0
   -0.8600   16.5180   19.6370   N 0  0  0  0  0  0  0  0  0  0  0  0
  1  3  1  0  0  0  0
  2  3  2  0  0  0  0
  3  4  1  0  0  0  0
  4  6  1  0  0  0  0
  4  7  2  0  0  0  0
  5  6  2  0  0  0  0
  5  9  1  0  0  0  0
  7  8  1  0  0  0  0
  8  9  2  0  0  0  0
  9 10  1  0  0  0  0
M  CHG  1   2   1
A    1
N2
A    2
N3
A    3
C7
A    4
C4
A    5
C2
A    6
C3
A    7
C5
A    8
C6
A    9
C1
A   10
N1
M  END
>  <InstanceId>
3GY4_PBZ_A_1

>  <ChemCompId>
PBZ

>  <PdbId>
3GY4

>  <ChainId>
A

>  <ResidueNumber>
1

>  <InsertionCode>


>  <Model>
1

>  <AltIds>


>  <MissingHeavyAtoms>
0

>  <ObservedFormula>
C7 N3

>  <Name>
P-AMINO BENZAMIDINE

>  <SystematicName>
[amino-(4-aminophenyl)methylidene]azanium

>  <Synonyms>


>  <Type>
NON-POLYMER

>  <Formula>
C7 H10 N3

>  <MolecularWeight>
136.174

>  <ModifiedDate>
2011-06-04

>  <Parent>


>  <OneLetterCode>


>  <SubcomponentList>


>  <AmbiguousFlag>
N

>  <InChI>
InChI=1S/C7H9N3/c8-6-3-1-5(2-4-6)7(9)10/h1-4H,8H2,(H3,9,10)/p+1

>  <InChIKey>
WPANETAWYGDRLL-UHFFFAOYSA-O

>  <SMILES>
c1cc(ccc1C(=[NH2+])N)N

$$$$
