3FJ7_PEQ_A_301
  RCSB PDB12061708363D
Coordinates from PDB:3FJ7:A:301 Model:1 without hydrogens
 10  9  0  0  0  0            999 V2000
  -31.8680    7.1470  -26.9730   C 0  0  0  0  0  0  0  0  0  0  0  0
  -32.7460    7.9040  -26.4990   O 0  0  0  0  0  0  0  0  0  0  0  0
  -32.1170    6.2950  -27.8520   O 0  0  0  0  0  0  0  0  0  0  0  0
  -30.4430    7.2450  -26.4940   C 0  0  0  0  0  0  0  0  0  0  0  0
  -30.2450    8.3320  -25.4450   C 0  0  0  0  0  0  0  0  0  0  0  0
  -30.0080    5.9960  -25.9610   O 0  0  0  0  0  0  0  0  0  0  0  0
  -28.4270    5.7000  -25.9010   P 0  0  0  0  0  0  0  0  0  0  0  0
  -27.9990    6.2120  -24.5470   O 0  0  0  0  0  0  0  0  0  0  0  0
  -27.8650    6.4850  -27.0640   O 0  0  0  0  0  0  0  0  0  0  0  0
  -28.3340    4.2030  -26.0710   O 0  0  0  0  0  0  0  0  0  0  0  0
  1  2  2  0  0  0  0
  1  3  1  0  0  0  0
  1  4  1  0  0  0  0
  4  5  1  0  0  0  0
  4  6  1  0  0  0  0
  6  7  1  0  0  0  0
  7  8  2  0  0  0  0
  7  9  1  0  0  0  0
  7 10  1  0  0  0  0
A    1
C1
A    2
O1
A    3
O2'
A    4
C2
A    5
C3
A    6
O2
A    7
P
A    8
O1P
A    9
O2P
A   10
O3P
M  END
>  <InstanceId>
3FJ7_PEQ_A_301

>  <ChemCompId>
PEQ

>  <PdbId>
3FJ7

>  <ChainId>
A

>  <ResidueNumber>
301

>  <InsertionCode>


>  <Model>
1

>  <AltIds>


>  <MissingHeavyAtoms>
0

>  <ObservedFormula>
C3 O6 P

>  <Name>
L-PHOSPHOLACTATE

>  <SystematicName>
(2S)-2-phosphonooxypropanoic acid

>  <Synonyms>


>  <Type>
NON-POLYMER

>  <Formula>
C3 H7 O6 P

>  <MolecularWeight>
170.058

>  <ModifiedDate>
2011-06-04

>  <Parent>


>  <OneLetterCode>


>  <SubcomponentList>


>  <AmbiguousFlag>
N

>  <InChI>
InChI=1S/C3H7O6P/c1-2(3(4)5)9-10(6,7)8/h2H,1H3,(H,4,5)(H2,6,7,8)/t2-/m0/s1

>  <InChIKey>
CSZRNWHGZPKNKY-REOHCLBHSA-N

>  <SMILES>
C[C@@H](C(=O)O)OP(=O)(O)O

$$$$
