5ER4_5RL_X_103


 22 25  0  0  0  0  0  0  0  0999 V2000
   38.5583   -5.2173   15.0638 C   0  0  0  0  0  0  0  0  0  0  0  0
   37.3470   -3.6369   13.7746 C   0  0  0  0  0  0  0  0  0  0  0  0
   38.3696   -3.8652   14.6499 C   0  0  0  0  0  0  0  0  0  0  0  0
   34.2277   -6.7242   13.0345 C   0  0  0  0  0  0  0  0  0  0  0  0
   38.9268   -7.9200   15.8774 C   0  0  0  0  0  0  0  0  0  0  0  0
   39.5848   -5.5415   15.9412 C   0  0  0  0  0  0  0  0  0  0  0  0
   37.0404   -2.3592   13.2762 C   0  0  0  0  0  0  0  0  0  0  0  0
   38.8217   -1.4613   14.5438 C   0  0  0  0  0  0  0  0  0  0  0  0
   37.7839   -1.2642   13.6674 C   0  0  0  0  0  0  0  0  0  0  0  0
   40.1966   -2.7042   15.9214 O   0  0  0  0  0  0  0  0  0  0  0  0
   39.5839   -0.3865   14.9742 O   0  0  0  0  0  0  0  0  0  0  0  0
   35.5245   -6.9464   13.6456 N   0  0  0  0  0  0  0  0  0  0  0  0
   36.6231   -6.0047   13.6911 C   0  0  0  0  0  0  0  0  0  0  0  0
   37.7380   -6.2801   14.6210 C   0  0  0  0  0  0  0  0  0  0  0  0
   36.4214   -4.6066   13.2170 C   0  0  0  0  0  0  0  0  0  0  0  0
   37.9122   -7.5460   15.0033 C   0  0  0  0  0  0  0  0  0  0  0  0
   35.6667   -8.2896   14.2478 C   0  0  0  0  0  0  0  0  0  0  0  0
   37.1070   -8.7471   14.6071 C   0  0  0  0  0  0  0  0  0  0  0  0
   39.1288   -2.7189   15.0436 C   0  0  0  0  0  0  0  0  0  0  0  0
   39.7665   -6.8805   16.3488 C   0  0  0  0  0  0  0  0  0  0  0  0
   40.4880   -3.5015   16.3180 H   0  0  0  0  0  0  0  0  0  0  0  0
   39.4011    0.4752   14.6549 H   0  0  0  0  0  0  0  0  0  0  0  0
  4 12  1  0  0  0
 15 13  1  0  0  0
 15  2  1  0  0  0
 12 13  1  0  0  0
 12 17  1  0  0  0
 13 14  1  0  0  0
 17 18  1  0  0  0
 18 16  1  0  0  0
  7  2  1  0  0  0
  7  9  2  0  0  0
  2  3  2  0  0  0
 14 16  2  0  0  0
 14  1  1  0  0  0
 16  5  1  0  0  0
  9  8  1  0  0  0
  3  1  1  0  0  0
  3 19  1  0  0  0
  1  6  2  0  0  0
  5 20  2  0  0  0
  8 19  2  0  0  0
  8 11  1  0  0  0
 19 10  1  0  0  0
  6 20  1  0  0  0
 10 21  1  0  0  0
 11 22  1  0  0  0
M  END
> <minimizedAffinity>
-6.64051

$$$$
5ER4_5RL_X_103


 22 25  0  0  0  0  0  0  0  0999 V2000
   38.0848   -3.6605   14.3015 C   0  0  0  0  0  0  0  0  0  0  0  0
   36.3630   -2.6982   12.9837 C   0  0  0  0  0  0  0  0  0  0  0  0
   37.4912   -2.4979   13.7260 C   0  0  0  0  0  0  0  0  0  0  0  0
   34.1548   -6.5585   13.1614 C   0  0  0  0  0  0  0  0  0  0  0  0
   39.2616   -5.9890   15.4395 C   0  0  0  0  0  0  0  0  0  0  0  0
   39.2433   -3.5499   15.0592 C   0  0  0  0  0  0  0  0  0  0  0  0
   35.6686   -1.6515   12.3535 C   0  0  0  0  0  0  0  0  0  0  0  0
   37.2520   -0.1175   13.2055 C   0  0  0  0  0  0  0  0  0  0  0  0
   36.1178   -0.3516   12.4689 C   0  0  0  0  0  0  0  0  0  0  0  0
   39.0464   -0.7016   14.5367 O   0  0  0  0  0  0  0  0  0  0  0  0
   37.7285    1.1750   13.3595 O   0  0  0  0  0  0  0  0  0  0  0  0
   35.5170   -6.3300   13.6046 N   0  0  0  0  0  0  0  0  0  0  0  0
   36.3133   -5.1474   13.3527 C   0  0  0  0  0  0  0  0  0  0  0  0
   37.5482   -4.9586   14.1420 C   0  0  0  0  0  0  0  0  0  0  0  0
   35.6886   -3.9553   12.7135 C   0  0  0  0  0  0  0  0  0  0  0  0
   38.1011   -6.0487   14.6760 C   0  0  0  0  0  0  0  0  0  0  0  0
   36.0826   -7.4622   14.3697 C   0  0  0  0  0  0  0  0  0  0  0  0
   37.6216   -7.4661   14.5801 C   0  0  0  0  0  0  0  0  0  0  0  0
   37.9414   -1.1447   13.8341 C   0  0  0  0  0  0  0  0  0  0  0  0
   39.8260   -4.7030   15.6276 C   0  0  0  0  0  0  0  0  0  0  0  0
   39.5839   -1.3139   14.9993 H   0  0  0  0  0  0  0  0  0  0  0  0
   37.2848    1.8901   12.9474 H   0  0  0  0  0  0  0  0  0  0  0  0
  4 12  1  0  0  0
 15 13  1  0  0  0
 15  2  1  0  0  0
 12 13  1  0  0  0
 12 17  1  0  0  0
 13 14  1  0  0  0
 17 18  1  0  0  0
 18 16  1  0  0  0
  7  2  1  0  0  0
  7  9  2  0  0  0
  2  3  2  0  0  0
 14 16  2  0  0  0
 14  1  1  0  0  0
 16  5  1  0  0  0
  9  8  1  0  0  0
  3  1  1  0  0  0
  3 19  1  0  0  0
  1  6  2  0  0  0
  5 20  2  0  0  0
  8 19  2  0  0  0
  8 11  1  0  0  0
 19 10  1  0  0  0
  6 20  1  0  0  0
 10 21  1  0  0  0
 11 22  1  0  0  0
M  END
> <minimizedAffinity>
-6.56987

$$$$
5ER4_5RL_X_103


 22 25  0  0  0  0  0  0  0  0999 V2000
   36.3744   -1.2496   13.7581 C   0  0  0  0  0  0  0  0  0  0  0  0
   36.6401   -3.2084   15.0695 C   0  0  0  0  0  0  0  0  0  0  0  0
   37.1983   -2.0542   14.6002 C   0  0  0  0  0  0  0  0  0  0  0  0
   32.8824   -4.8202   13.3115 C   0  0  0  0  0  0  0  0  0  0  0  0
   34.7180    0.3485   12.0835 C   0  0  0  0  0  0  0  0  0  0  0  0
   36.8574   -0.0514   13.2486 C   0  0  0  0  0  0  0  0  0  0  0  0
   37.3268   -4.1010   15.9100 C   0  0  0  0  0  0  0  0  0  0  0  0
   39.2119   -2.6768   15.8460 C   0  0  0  0  0  0  0  0  0  0  0  0
   38.6237   -3.8316   16.2979 C   0  0  0  0  0  0  0  0  0  0  0  0
   39.3107   -0.6989   14.6581 O   0  0  0  0  0  0  0  0  0  0  0  0
   40.5180   -2.3758   16.1991 O   0  0  0  0  0  0  0  0  0  0  0  0
   33.3862   -3.4680   13.1629 N   0  0  0  0  0  0  0  0  0  0  0  0
   34.4806   -2.8751   13.9021 C   0  0  0  0  0  0  0  0  0  0  0  0
   35.0552   -1.6096   13.3999 C   0  0  0  0  0  0  0  0  0  0  0  0
   35.3067   -3.7206   14.8092 C   0  0  0  0  0  0  0  0  0  0  0  0
   34.2804   -0.8594   12.6151 C   0  0  0  0  0  0  0  0  0  0  0  0
   32.6538   -2.6773   12.1502 C   0  0  0  0  0  0  0  0  0  0  0  0
   32.8778   -1.1402   12.1657 C   0  0  0  0  0  0  0  0  0  0  0  0
   38.5423   -1.7919   15.0128 C   0  0  0  0  0  0  0  0  0  0  0  0
   36.0388    0.7404   12.4149 C   0  0  0  0  0  0  0  0  0  0  0  0
   38.9548   -0.0383   14.0970 H   0  0  0  0  0  0  0  0  0  0  0  0
   40.9967   -2.9536   16.7604 H   0  0  0  0  0  0  0  0  0  0  0  0
  4 12  1  0  0  0
 15 13  1  0  0  0
 15  2  1  0  0  0
 12 13  1  0  0  0
 12 17  1  0  0  0
 13 14  1  0  0  0
 17 18  1  0  0  0
 18 16  1  0  0  0
  7  2  1  0  0  0
  7  9  2  0  0  0
  2  3  2  0  0  0
 14 16  2  0  0  0
 14  1  1  0  0  0
 16  5  1  0  0  0
  9  8  1  0  0  0
  3  1  1  0  0  0
  3 19  1  0  0  0
  1  6  2  0  0  0
  5 20  2  0  0  0
  8 19  2  0  0  0
  8 11  1  0  0  0
 19 10  1  0  0  0
  6 20  1  0  0  0
 10 21  1  0  0  0
 11 22  1  0  0  0
M  END
> <minimizedAffinity>
-6.50109

$$$$
5ER4_5RL_X_103


 22 25  0  0  0  0  0  0  0  0999 V2000
   38.1691   -3.2025   14.5818 C   0  0  0  0  0  0  0  0  0  0  0  0
   37.8957   -5.4690   15.2262 C   0  0  0  0  0  0  0  0  0  0  0  0
   38.7386   -4.4021   15.1031 C   0  0  0  0  0  0  0  0  0  0  0  0
   33.9155   -5.4904   13.2346 C   0  0  0  0  0  0  0  0  0  0  0  0
   37.0187   -0.8142   13.5452 C   0  0  0  0  0  0  0  0  0  0  0  0
   38.9515   -2.0643   14.4371 C   0  0  0  0  0  0  0  0  0  0  0  0
   38.3105   -6.7153   15.7257 C   0  0  0  0  0  0  0  0  0  0  0  0
   40.4917   -5.8506   16.0102 C   0  0  0  0  0  0  0  0  0  0  0  0
   39.6201   -6.9054   16.1179 C   0  0  0  0  0  0  0  0  0  0  0  0
   41.1187   -3.6940   15.4727 O   0  0  0  0  0  0  0  0  0  0  0  0
   41.8193   -6.0033   16.3785 O   0  0  0  0  0  0  0  0  0  0  0  0
   34.7444   -4.3253   13.4792 N   0  0  0  0  0  0  0  0  0  0  0  0
   35.9269   -4.2745   14.3129 C   0  0  0  0  0  0  0  0  0  0  0  0
   36.8144   -3.0993   14.1914 C   0  0  0  0  0  0  0  0  0  0  0  0
   36.4862   -5.5320   14.8836 C   0  0  0  0  0  0  0  0  0  0  0  0
   36.2770   -1.9792   13.7059 C   0  0  0  0  0  0  0  0  0  0  0  0
   34.2657   -3.1092   12.7871 C   0  0  0  0  0  0  0  0  0  0  0  0
   34.8643   -1.7548   13.2563 C   0  0  0  0  0  0  0  0  0  0  0  0
   40.0913   -4.6179   15.5146 C   0  0  0  0  0  0  0  0  0  0  0  0
   38.3837   -0.8803   13.9196 C   0  0  0  0  0  0  0  0  0  0  0  0
   40.9571   -2.8277   15.1542 H   0  0  0  0  0  0  0  0  0  0  0  0
   42.1203   -6.8237   16.7166 H   0  0  0  0  0  0  0  0  0  0  0  0
  4 12  1  0  0  0
 15 13  1  0  0  0
 15  2  1  0  0  0
 12 13  1  0  0  0
 12 17  1  0  0  0
 13 14  1  0  0  0
 17 18  1  0  0  0
 18 16  1  0  0  0
  7  2  1  0  0  0
  7  9  2  0  0  0
  2  3  2  0  0  0
 14 16  2  0  0  0
 14  1  1  0  0  0
 16  5  1  0  0  0
  9  8  1  0  0  0
  3  1  1  0  0  0
  3 19  1  0  0  0
  1  6  2  0  0  0
  5 20  2  0  0  0
  8 19  2  0  0  0
  8 11  1  0  0  0
 19 10  1  0  0  0
  6 20  1  0  0  0
 10 21  1  0  0  0
 11 22  1  0  0  0
M  END
> <minimizedAffinity>
-6.31468

$$$$
5ER4_5RL_X_103


 22 25  0  0  0  0  0  0  0  0999 V2000
   36.7977   -1.1265   13.3523 C   0  0  0  0  0  0  0  0  0  0  0  0
   34.6948   -0.4201   12.5123 C   0  0  0  0  0  0  0  0  0  0  0  0
   35.9281   -0.0606   12.9743 C   0  0  0  0  0  0  0  0  0  0  0  0
   33.1522   -4.5577   13.0691 C   0  0  0  0  0  0  0  0  0  0  0  0
   38.5242   -3.2631   14.0980 C   0  0  0  0  0  0  0  0  0  0  0  0
   38.0764   -0.8515   13.8191 C   0  0  0  0  0  0  0  0  0  0  0  0
   33.7314    0.5167   12.1008 C   0  0  0  0  0  0  0  0  0  0  0  0
   35.2428    2.2613   12.6092 C   0  0  0  0  0  0  0  0  0  0  0  0
   34.0096    1.8676   12.1529 C   0  0  0  0  0  0  0  0  0  0  0  0
   37.3660    1.9396   13.4585 O   0  0  0  0  0  0  0  0  0  0  0  0
   35.5575    3.6087   12.6920 O   0  0  0  0  0  0  0  0  0  0  0  0
   34.5353   -4.1364   13.1865 N   0  0  0  0  0  0  0  0  0  0  0  0
   35.0759   -2.8514   12.7959 C   0  0  0  0  0  0  0  0  0  0  0  0
   36.4247   -2.4880   13.2781 C   0  0  0  0  0  0  0  0  0  0  0  0
   34.1572   -1.7607   12.3645 C   0  0  0  0  0  0  0  0  0  0  0  0
   37.2351   -3.4880   13.6279 C   0  0  0  0  0  0  0  0  0  0  0  0
   35.4189   -5.1765   13.7563 C   0  0  0  0  0  0  0  0  0  0  0  0
   36.9488   -4.9595   13.5978 C   0  0  0  0  0  0  0  0  0  0  0  0
   36.1983    1.3431   13.0209 C   0  0  0  0  0  0  0  0  0  0  0  0
   38.9325   -1.9096   14.1930 C   0  0  0  0  0  0  0  0  0  0  0  0
   38.0782    1.4103   13.7595 H   0  0  0  0  0  0  0  0  0  0  0  0
   34.9333    4.2531   12.4216 H   0  0  0  0  0  0  0  0  0  0  0  0
  4 12  1  0  0  0
 15 13  1  0  0  0
 15  2  1  0  0  0
 12 13  1  0  0  0
 12 17  1  0  0  0
 13 14  1  0  0  0
 17 18  1  0  0  0
 18 16  1  0  0  0
  7  2  1  0  0  0
  7  9  2  0  0  0
  2  3  2  0  0  0
 14 16  2  0  0  0
 14  1  1  0  0  0
 16  5  1  0  0  0
  9  8  1  0  0  0
  3  1  1  0  0  0
  3 19  1  0  0  0
  1  6  2  0  0  0
  5 20  2  0  0  0
  8 19  2  0  0  0
  8 11  1  0  0  0
 19 10  1  0  0  0
  6 20  1  0  0  0
 10 21  1  0  0  0
 11 22  1  0  0  0
M  END
> <minimizedAffinity>
-6.25164

$$$$
5ER4_5RL_X_103


 22 25  0  0  0  0  0  0  0  0999 V2000
   37.1906   -3.2351   13.8303 C   0  0  0  0  0  0  0  0  0  0  0  0
   35.5643   -4.9620   13.8379 C   0  0  0  0  0  0  0  0  0  0  0  0
   36.8744   -4.6154   14.0036 C   0  0  0  0  0  0  0  0  0  0  0  0
   32.6724   -2.1620   11.9389 C   0  0  0  0  0  0  0  0  0  0  0  0
   37.8066   -0.4774   13.4868 C   0  0  0  0  0  0  0  0  0  0  0  0
   38.4966   -2.7926   13.9949 C   0  0  0  0  0  0  0  0  0  0  0  0
   35.1006   -6.2811   13.9784 C   0  0  0  0  0  0  0  0  0  0  0  0
   37.3036   -6.9795   14.4736 C   0  0  0  0  0  0  0  0  0  0  0  0
   35.9798   -7.2963   14.2966 C   0  0  0  0  0  0  0  0  0  0  0  0
   39.1333   -5.5721   14.5370 O   0  0  0  0  0  0  0  0  0  0  0  0
   38.2226   -7.9713   14.7788 O   0  0  0  0  0  0  0  0  0  0  0  0
   33.9700   -1.8125   12.4851 N   0  0  0  0  0  0  0  0  0  0  0  0
   34.8167   -2.6635   13.2943 C   0  0  0  0  0  0  0  0  0  0  0  0
   36.2247   -2.2604   13.4906 C   0  0  0  0  0  0  0  0  0  0  0  0
   34.4512   -4.0933   13.4995 C   0  0  0  0  0  0  0  0  0  0  0  0
   36.5152   -0.9685   13.3300 C   0  0  0  0  0  0  0  0  0  0  0  0
   34.3954   -0.4360   12.1514 C   0  0  0  0  0  0  0  0  0  0  0  0
   35.5820    0.1474   12.9666 C   0  0  0  0  0  0  0  0  0  0  0  0
   37.7704   -5.6803   14.3330 C   0  0  0  0  0  0  0  0  0  0  0  0
   38.8046   -1.4262   13.8211 C   0  0  0  0  0  0  0  0  0  0  0  0
   39.5528   -4.7372   14.4662 H   0  0  0  0  0  0  0  0  0  0  0  0
   37.9383   -8.8583   14.8801 H   0  0  0  0  0  0  0  0  0  0  0  0
  4 12  1  0  0  0
 15 13  1  0  0  0
 15  2  1  0  0  0
 12 13  1  0  0  0
 12 17  1  0  0  0
 13 14  1  0  0  0
 17 18  1  0  0  0
 18 16  1  0  0  0
  7  2  1  0  0  0
  7  9  2  0  0  0
  2  3  2  0  0  0
 14 16  2  0  0  0
 14  1  1  0  0  0
 16  5  1  0  0  0
  9  8  1  0  0  0
  3  1  1  0  0  0
  3 19  1  0  0  0
  1  6  2  0  0  0
  5 20  2  0  0  0
  8 19  2  0  0  0
  8 11  1  0  0  0
 19 10  1  0  0  0
  6 20  1  0  0  0
 10 21  1  0  0  0
 11 22  1  0  0  0
M  END
> <minimizedAffinity>
-6.21463

$$$$
5ER4_5RL_X_103


 22 25  0  0  0  0  0  0  0  0999 V2000
   37.3686   -4.7132   14.1633 C   0  0  0  0  0  0  0  0  0  0  0  0
   36.4556   -2.6665   13.3858 C   0  0  0  0  0  0  0  0  0  0  0  0
   37.4810   -3.2973   14.0297 C   0  0  0  0  0  0  0  0  0  0  0  0
   32.5944   -4.7475   12.6306 C   0  0  0  0  0  0  0  0  0  0  0  0
   37.1340   -7.5384   14.4184 C   0  0  0  0  0  0  0  0  0  0  0  0
   38.3738   -5.4366   14.7918 C   0  0  0  0  0  0  0  0  0  0  0  0
   36.4261   -1.2772   13.1763 C   0  0  0  0  0  0  0  0  0  0  0  0
   38.5098   -1.0893   14.2759 C   0  0  0  0  0  0  0  0  0  0  0  0
   37.4618   -0.4846   13.6279 C   0  0  0  0  0  0  0  0  0  0  0  0
   39.6754   -2.8702   15.1719 O   0  0  0  0  0  0  0  0  0  0  0  0
   39.5628   -0.3284   14.7591 O   0  0  0  0  0  0  0  0  0  0  0  0
   33.8545   -5.3787   12.9745 N   0  0  0  0  0  0  0  0  0  0  0  0
   35.1529   -4.7392   13.0060 C   0  0  0  0  0  0  0  0  0  0  0  0
   36.2614   -5.4471   13.6797 C   0  0  0  0  0  0  0  0  0  0  0  0
   35.2574   -3.2641   12.8241 C   0  0  0  0  0  0  0  0  0  0  0  0
   36.1532   -6.7710   13.8001 C   0  0  0  0  0  0  0  0  0  0  0  0
   33.7213   -6.8152   13.3000 C   0  0  0  0  0  0  0  0  0  0  0  0
   35.0309   -7.6497   13.3348 C   0  0  0  0  0  0  0  0  0  0  0  0
   38.5449   -2.4599   14.4903 C   0  0  0  0  0  0  0  0  0  0  0  0
   38.2573   -6.8371   14.9226 C   0  0  0  0  0  0  0  0  0  0  0  0
   39.7997   -3.7776   15.3696 H   0  0  0  0  0  0  0  0  0  0  0  0
   39.5679    0.5997   14.6302 H   0  0  0  0  0  0  0  0  0  0  0  0
  4 12  1  0  0  0
 15 13  1  0  0  0
 15  2  1  0  0  0
 12 13  1  0  0  0
 12 17  1  0  0  0
 13 14  1  0  0  0
 17 18  1  0  0  0
 18 16  1  0  0  0
  7  2  1  0  0  0
  7  9  2  0  0  0
  2  3  2  0  0  0
 14 16  2  0  0  0
 14  1  1  0  0  0
 16  5  1  0  0  0
  9  8  1  0  0  0
  3  1  1  0  0  0
  3 19  1  0  0  0
  1  6  2  0  0  0
  5 20  2  0  0  0
  8 19  2  0  0  0
  8 11  1  0  0  0
 19 10  1  0  0  0
  6 20  1  0  0  0
 10 21  1  0  0  0
 11 22  1  0  0  0
M  END
> <minimizedAffinity>
-6.16458

$$$$
5ER4_5RL_X_103


 22 25  0  0  0  0  0  0  0  0999 V2000
   37.9342   -5.0622   14.4417 C   0  0  0  0  0  0  0  0  0  0  0  0
   35.9053   -5.4681   13.2816 C   0  0  0  0  0  0  0  0  0  0  0  0
   36.9586   -5.9923   13.9742 C   0  0  0  0  0  0  0  0  0  0  0  0
   36.0148   -1.2891   11.7543 C   0  0  0  0  0  0  0  0  0  0  0  0
   39.8703   -3.1951   15.3730 C   0  0  0  0  0  0  0  0  0  0  0  0
   39.0308   -5.5076   15.1680 C   0  0  0  0  0  0  0  0  0  0  0  0
   34.8657   -6.2578   12.7613 C   0  0  0  0  0  0  0  0  0  0  0  0
   35.9214   -8.1838   13.6343 C   0  0  0  0  0  0  0  0  0  0  0  0
   34.8777   -7.6265   12.9387 C   0  0  0  0  0  0  0  0  0  0  0  0
   37.9139   -8.1615   14.8016 O   0  0  0  0  0  0  0  0  0  0  0  0
   35.9800   -9.5559   13.8218 O   0  0  0  0  0  0  0  0  0  0  0  0
   36.8789   -1.8506   12.7753 N   0  0  0  0  0  0  0  0  0  0  0  0
   36.7112   -3.1303   13.4311 C   0  0  0  0  0  0  0  0  0  0  0  0
   37.8493   -3.6715   14.2028 C   0  0  0  0  0  0  0  0  0  0  0  0
   35.6604   -4.0743   12.9570 C   0  0  0  0  0  0  0  0  0  0  0  0
   38.7575   -2.7980   14.6401 C   0  0  0  0  0  0  0  0  0  0  0  0
   38.0097   -0.9686   13.1366 C   0  0  0  0  0  0  0  0  0  0  0  0
   38.7754   -1.3117   14.4438 C   0  0  0  0  0  0  0  0  0  0  0  0
   36.9537   -7.4118   14.1481 C   0  0  0  0  0  0  0  0  0  0  0  0
   39.9939   -4.5836   15.6273 C   0  0  0  0  0  0  0  0  0  0  0  0
   38.6561   -7.7389   15.1868 H   0  0  0  0  0  0  0  0  0  0  0  0
   35.2980  -10.1042   13.4867 H   0  0  0  0  0  0  0  0  0  0  0  0
  4 12  1  0  0  0
 15 13  1  0  0  0
 15  2  1  0  0  0
 12 13  1  0  0  0
 12 17  1  0  0  0
 13 14  1  0  0  0
 17 18  1  0  0  0
 18 16  1  0  0  0
  7  2  1  0  0  0
  7  9  2  0  0  0
  2  3  2  0  0  0
 14 16  2  0  0  0
 14  1  1  0  0  0
 16  5  1  0  0  0
  9  8  1  0  0  0
  3  1  1  0  0  0
  3 19  1  0  0  0
  1  6  2  0  0  0
  5 20  2  0  0  0
  8 19  2  0  0  0
  8 11  1  0  0  0
 19 10  1  0  0  0
  6 20  1  0  0  0
 10 21  1  0  0  0
 11 22  1  0  0  0
M  END
> <minimizedAffinity>
-6.16207

$$$$
5ER4_5RL_X_103


 22 25  0  0  0  0  0  0  0  0999 V2000
   35.8648   -3.9052   12.9570 C   0  0  0  0  0  0  0  0  0  0  0  0
   36.9052   -5.8462   13.8387 C   0  0  0  0  0  0  0  0  0  0  0  0
   35.8103   -5.3047   13.2288 C   0  0  0  0  0  0  0  0  0  0  0  0
   39.9990   -3.2579   15.7197 C   0  0  0  0  0  0  0  0  0  0  0  0
   35.9890   -1.1135   12.4159 C   0  0  0  0  0  0  0  0  0  0  0  0
   34.8005   -3.2753   12.3254 C   0  0  0  0  0  0  0  0  0  0  0  0
   36.9991   -7.2093   14.1674 C   0  0  0  0  0  0  0  0  0  0  0  0
   34.8443   -7.5542   13.2595 C   0  0  0  0  0  0  0  0  0  0  0  0
   35.9580   -8.0673   13.8763 C   0  0  0  0  0  0  0  0  0  0  0  0
   33.5388   -5.8893   12.3338 O   0  0  0  0  0  0  0  0  0  0  0  0
   33.7698   -8.3782   12.9634 O   0  0  0  0  0  0  0  0  0  0  0  0
   38.9967   -2.8350   14.7600 N   0  0  0  0  0  0  0  0  0  0  0  0
   38.1355   -3.7007   13.9825 C   0  0  0  0  0  0  0  0  0  0  0  0
   36.9712   -3.0960   13.3025 C   0  0  0  0  0  0  0  0  0  0  0  0
   38.1200   -5.1662   14.2510 C   0  0  0  0  0  0  0  0  0  0  0  0
   37.0277   -1.7879   13.0481 C   0  0  0  0  0  0  0  0  0  0  0  0
   38.9141   -1.3663   14.6069 C   0  0  0  0  0  0  0  0  0  0  0  0
   38.1381   -0.8336   13.3713 C   0  0  0  0  0  0  0  0  0  0  0  0
   34.7419   -6.2089   12.9349 C   0  0  0  0  0  0  0  0  0  0  0  0
   34.8587   -1.8903   12.0598 C   0  0  0  0  0  0  0  0  0  0  0  0
   33.3652   -5.0061   12.0734 H   0  0  0  0  0  0  0  0  0  0  0  0
   33.8086   -9.2912   13.1704 H   0  0  0  0  0  0  0  0  0  0  0  0
  4 12  1  0  0  0
 15 13  1  0  0  0
 15  2  1  0  0  0
 12 13  1  0  0  0
 12 17  1  0  0  0
 13 14  1  0  0  0
 17 18  1  0  0  0
 18 16  1  0  0  0
  7  2  1  0  0  0
  7  9  2  0  0  0
  2  3  2  0  0  0
 14 16  2  0  0  0
 14  1  1  0  0  0
 16  5  1  0  0  0
  9  8  1  0  0  0
  3  1  1  0  0  0
  3 19  1  0  0  0
  1  6  2  0  0  0
  5 20  2  0  0  0
  8 19  2  0  0  0
  8 11  1  0  0  0
 19 10  1  0  0  0
  6 20  1  0  0  0
 10 21  1  0  0  0
 11 22  1  0  0  0
M  END
> <minimizedAffinity>
-6.00526

$$$$
5ER4_5RL_X_103


 22 25  0  0  0  0  0  0  0  0999 V2000
   36.2054   -4.2241   13.5507 C   0  0  0  0  0  0  0  0  0  0  0  0
   37.8513   -2.5302   13.7715 C   0  0  0  0  0  0  0  0  0  0  0  0
   36.6622   -2.9134   13.2210 C   0  0  0  0  0  0  0  0  0  0  0  0
   40.5709   -5.5053   15.6588 C   0  0  0  0  0  0  0  0  0  0  0  0
   35.3034   -6.8393   14.2208 C   0  0  0  0  0  0  0  0  0  0  0  0
   34.9981   -4.6895   13.0463 C   0  0  0  0  0  0  0  0  0  0  0  0
   38.4275   -1.2694   13.5410 C   0  0  0  0  0  0  0  0  0  0  0  0
   36.5922   -0.7070   12.1620 C   0  0  0  0  0  0  0  0  0  0  0  0
   37.7917   -0.3533   12.7276 C   0  0  0  0  0  0  0  0  0  0  0  0
   34.8199   -2.1177   11.7125 O   0  0  0  0  0  0  0  0  0  0  0  0
   35.9280    0.1773   11.3265 O   0  0  0  0  0  0  0  0  0  0  0  0
   39.1651   -5.6999   15.3583 N   0  0  0  0  0  0  0  0  0  0  0  0
   38.2259   -4.6759   14.9516 C   0  0  0  0  0  0  0  0  0  0  0  0
   36.9300   -5.1050   14.3857 C   0  0  0  0  0  0  0  0  0  0  0  0
   38.7132   -3.3006   14.6500 C   0  0  0  0  0  0  0  0  0  0  0  0
   36.5058   -6.3302   14.6987 C   0  0  0  0  0  0  0  0  0  0  0  0
   38.7199   -7.1012   15.5168 C   0  0  0  0  0  0  0  0  0  0  0  0
   37.1871   -7.3481   15.5634 C   0  0  0  0  0  0  0  0  0  0  0  0
   36.0182   -1.9512   12.3814 C   0  0  0  0  0  0  0  0  0  0  0  0
   34.5512   -5.9875   13.3743 C   0  0  0  0  0  0  0  0  0  0  0  0
   34.3473   -2.9229   11.7914 H   0  0  0  0  0  0  0  0  0  0  0  0
   36.2902    1.0251   11.1587 H   0  0  0  0  0  0  0  0  0  0  0  0
  4 12  1  0  0  0
 15 13  1  0  0  0
 15  2  1  0  0  0
 12 13  1  0  0  0
 12 17  1  0  0  0
 13 14  1  0  0  0
 17 18  1  0  0  0
 18 16  1  0  0  0
  7  2  1  0  0  0
  7  9  2  0  0  0
  2  3  2  0  0  0
 14 16  2  0  0  0
 14  1  1  0  0  0
 16  5  1  0  0  0
  9  8  1  0  0  0
  3  1  1  0  0  0
  3 19  1  0  0  0
  1  6  2  0  0  0
  5 20  2  0  0  0
  8 19  2  0  0  0
  8 11  1  0  0  0
 19 10  1  0  0  0
  6 20  1  0  0  0
 10 21  1  0  0  0
 11 22  1  0  0  0
M  END
> <minimizedAffinity>
-5.81777

$$$$
