5EFC_GTP_A_501


 41 43  0  0  0  0  0  0  0  0999 V2000
   32.7239   30.3190   26.7780 C   0  0  0  0  0  0  0  0  0  0  0  0
   33.5836   31.3481   26.3166 O   0  0  0  0  0  0  0  0  0  0  0  0
   31.3352   30.9302   26.8700 C   0  0  0  0  0  0  0  0  0  0  0  0
   31.0972   31.2732   28.2149 O   0  0  0  0  0  0  0  0  0  0  0  0
   31.4066   32.2192   26.0807 C   0  0  0  0  0  0  0  0  0  0  0  0
   30.6637   33.2286   26.7332 O   0  0  0  0  0  0  0  0  0  0  0  0
   32.8860   32.5625   26.0979 C   0  0  0  0  0  0  0  0  0  0  0  0
   31.7928   31.8750   28.5230 H   0  0  0  0  0  0  0  0  0  0  0  0
   30.9954   33.3405   27.6378 H   0  0  0  0  0  0  0  0  0  0  0  0
   33.3724   33.1594   24.8354 N   0  0  0  0  0  0  0  0  0  0  0  0
   32.9294   32.9267   23.5577 C   0  0  0  0  0  0  0  0  0  0  0  0
   33.6771   33.6590   22.6973 N   0  0  0  0  0  0  0  0  0  0  0  0
   34.5900   34.3608   23.4110 C   0  0  0  0  0  0  0  0  0  0  0  0
   35.5900   35.2483   23.0431 C   0  0  0  0  0  0  0  0  0  0  0  0
   35.7634   35.5410   21.8581 O   0  0  0  0  0  0  0  0  0  0  0  0
   36.3847   35.8000   24.0235 N   0  0  0  0  0  0  0  0  0  0  0  0
   36.1948   35.4688   25.3470 C   0  0  0  0  0  0  0  0  0  0  0  0
   36.9625   35.9957   26.2971 N   0  0  0  0  0  0  0  0  0  0  0  0
   35.1981   34.5889   25.7020 N   0  0  0  0  0  0  0  0  0  0  0  0
   34.4138   34.0399   24.7466 C   0  0  0  0  0  0  0  0  0  0  0  0
   37.0943   36.4362   23.7764 H   0  0  0  0  0  0  0  0  0  0  0  0
   37.6793   36.6266   26.0574 H   0  0  0  0  0  0  0  0  0  0  0  0
   36.8139   35.7547   27.2400 H   0  0  0  0  0  0  0  0  0  0  0  0
   32.8001   29.1464   25.7989 C   0  0  0  0  0  0  0  0  0  0  0  0
   32.7675   27.9370   26.5267 O   0  0  0  0  0  0  0  0  0  0  0  0
   34.0099   27.3652   27.3877 P   0  0  0  0  0  0  0  0  0  0  0  0
   34.5800   26.1701   26.6621 O   0  0  0  0  0  0  0  0  0  0  0  0
   35.0715   28.4285   27.5590 O   0  0  0  0  0  0  0  0  0  0  0  0
   35.8085   28.0690   28.0771 H   0  0  0  0  0  0  0  0  0  0  0  0
   33.4315   26.8671   28.8151 O   0  0  0  0  0  0  0  0  0  0  0  0
   31.9388   26.3119   29.1055 P   0  0  0  0  0  0  0  0  0  0  0  0
   31.7167   26.2094   30.5974 O   0  0  0  0  0  0  0  0  0  0  0  0
   30.9198   27.2445   28.4884 O   0  0  0  0  0  0  0  0  0  0  0  0
   30.0267   26.9093   28.6639 H   0  0  0  0  0  0  0  0  0  0  0  0
   31.8133   24.8477   28.4362 O   0  0  0  0  0  0  0  0  0  0  0  0
   32.8301   23.6452   28.7897 P   0  0  0  0  0  0  0  0  0  0  0  0
   32.0688   22.3910   29.1555 O   0  0  0  0  0  0  0  0  0  0  0  0
   33.7470   23.4109   27.6089 O   0  0  0  0  0  0  0  0  0  0  0  0
   33.6794   24.0693   29.9672 O   0  0  0  0  0  0  0  0  0  0  0  0
   34.3612   22.6888   27.8147 H   0  0  0  0  0  0  0  0  0  0  0  0
   34.2974   23.3567   30.1934 H   0  0  0  0  0  0  0  0  0  0  0  0
 36 37  2  0  0  0
 36 38  1  0  0  0
 36 39  1  0  0  0
 36 35  1  0  0  0
 35 31  1  0  0  0
 31 32  2  0  0  0
 31 33  1  0  0  0
 31 30  1  0  0  0
 30 26  1  0  0  0
 26 27  2  0  0  0
 26 28  1  0  0  0
 26 25  1  0  0  0
 25 24  1  0  0  0
 24  1  1  0  0  0
  1  2  1  0  0  0
  1  3  1  0  0  0
  2  7  1  0  0  0
  3  4  1  0  0  0
  3  5  1  0  0  0
  5  6  1  0  0  0
  5  7  1  0  0  0
  7 10  1  0  0  0
 10 11  1  0  0  0
 10 20  1  0  0  0
 11 12  2  0  0  0
 12 13  1  0  0  0
 13 14  1  0  0  0
 13 20  2  0  0  0
 14 15  2  0  0  0
 14 16  1  0  0  0
 16 17  1  0  0  0
 17 18  1  0  0  0
 17 19  2  0  0  0
 19 20  1  0  0  0
 38 40  1  0  0  0
 39 41  1  0  0  0
 33 34  1  0  0  0
 28 29  1  0  0  0
  4  8  1  0  0  0
  6  9  1  0  0  0
 16 21  1  0  0  0
 18 22  1  0  0  0
 18 23  1  0  0  0
M  END
> <minimizedAffinity>
-8.45408

$$$$
5EFC_GTP_A_501


 41 43  0  0  0  0  0  0  0  0999 V2000
   32.4734   30.3370   26.7092 C   0  0  0  0  0  0  0  0  0  0  0  0
   33.4183   31.2324   26.1468 O   0  0  0  0  0  0  0  0  0  0  0  0
   31.2164   31.1503   26.9722 C   0  0  0  0  0  0  0  0  0  0  0  0
   31.1989   31.4985   28.3365 O   0  0  0  0  0  0  0  0  0  0  0  0
   31.3883   32.4290   26.1816 C   0  0  0  0  0  0  0  0  0  0  0  0
   30.8939   33.5264   26.9217 O   0  0  0  0  0  0  0  0  0  0  0  0
   32.8940   32.5429   26.0171 C   0  0  0  0  0  0  0  0  0  0  0  0
   32.0107   31.9812   28.5575 H   0  0  0  0  0  0  0  0  0  0  0  0
   31.3461   33.5684   27.7788 H   0  0  0  0  0  0  0  0  0  0  0  0
   33.3093   33.0841   24.7051 N   0  0  0  0  0  0  0  0  0  0  0  0
   32.8043   32.7884   23.4639 C   0  0  0  0  0  0  0  0  0  0  0  0
   33.4997   33.4857   22.5333 N   0  0  0  0  0  0  0  0  0  0  0  0
   34.4402   34.2274   23.1661 C   0  0  0  0  0  0  0  0  0  0  0  0
   35.4109   35.1049   22.7068 C   0  0  0  0  0  0  0  0  0  0  0  0
   35.5208   35.3432   21.5021 O   0  0  0  0  0  0  0  0  0  0  0  0
   36.2486   35.7082   23.6186 N   0  0  0  0  0  0  0  0  0  0  0  0
   36.1297   35.4377   24.9639 C   0  0  0  0  0  0  0  0  0  0  0  0
   36.9391   36.0146   25.8481 N   0  0  0  0  0  0  0  0  0  0  0  0
   35.1616   34.5673   25.4099 N   0  0  0  0  0  0  0  0  0  0  0  0
   34.3356   33.9679   24.5224 C   0  0  0  0  0  0  0  0  0  0  0  0
   36.9380   36.3378   23.3063 H   0  0  0  0  0  0  0  0  0  0  0  0
   37.6361   36.6393   25.5430 H   0  0  0  0  0  0  0  0  0  0  0  0
   36.8411   35.8167   26.8075 H   0  0  0  0  0  0  0  0  0  0  0  0
   32.2494   29.1864   25.7268 C   0  0  0  0  0  0  0  0  0  0  0  0
   31.1519   28.4142   26.1657 O   0  0  0  0  0  0  0  0  0  0  0  0
   31.2878   27.0740   27.0587 P   0  0  0  0  0  0  0  0  0  0  0  0
   29.9540   26.8014   27.7116 O   0  0  0  0  0  0  0  0  0  0  0  0
   31.6978   25.9009   26.1969 O   0  0  0  0  0  0  0  0  0  0  0  0
   31.7746   25.1062   26.7478 H   0  0  0  0  0  0  0  0  0  0  0  0
   32.3750   27.3658   28.2219 O   0  0  0  0  0  0  0  0  0  0  0  0
   33.9298   26.9148   28.2180 P   0  0  0  0  0  0  0  0  0  0  0  0
   34.3906   26.6937   26.7951 O   0  0  0  0  0  0  0  0  0  0  0  0
   34.7716   27.9838   28.8797 O   0  0  0  0  0  0  0  0  0  0  0  0
   35.7024   27.7108   28.8758 H   0  0  0  0  0  0  0  0  0  0  0  0
   34.0500   25.5350   29.0481 O   0  0  0  0  0  0  0  0  0  0  0  0
   34.3405   24.1178   28.3326 P   0  0  0  0  0  0  0  0  0  0  0  0
   33.1391   23.6658   27.5333 O   0  0  0  0  0  0  0  0  0  0  0  0
   35.5687   24.2487   27.4584 O   0  0  0  0  0  0  0  0  0  0  0  0
   34.6345   23.0931   29.4056 O   0  0  0  0  0  0  0  0  0  0  0  0
   35.7491   23.3999   27.0250 H   0  0  0  0  0  0  0  0  0  0  0  0
   34.8118   22.2337   28.9921 H   0  0  0  0  0  0  0  0  0  0  0  0
 36 37  2  0  0  0
 36 38  1  0  0  0
 36 39  1  0  0  0
 36 35  1  0  0  0
 35 31  1  0  0  0
 31 32  2  0  0  0
 31 33  1  0  0  0
 31 30  1  0  0  0
 30 26  1  0  0  0
 26 27  2  0  0  0
 26 28  1  0  0  0
 26 25  1  0  0  0
 25 24  1  0  0  0
 24  1  1  0  0  0
  1  2  1  0  0  0
  1  3  1  0  0  0
  2  7  1  0  0  0
  3  4  1  0  0  0
  3  5  1  0  0  0
  5  6  1  0  0  0
  5  7  1  0  0  0
  7 10  1  0  0  0
 10 11  1  0  0  0
 10 20  1  0  0  0
 11 12  2  0  0  0
 12 13  1  0  0  0
 13 14  1  0  0  0
 13 20  2  0  0  0
 14 15  2  0  0  0
 14 16  1  0  0  0
 16 17  1  0  0  0
 17 18  1  0  0  0
 17 19  2  0  0  0
 19 20  1  0  0  0
 38 40  1  0  0  0
 39 41  1  0  0  0
 33 34  1  0  0  0
 28 29  1  0  0  0
  4  8  1  0  0  0
  6  9  1  0  0  0
 16 21  1  0  0  0
 18 22  1  0  0  0
 18 23  1  0  0  0
M  END
> <minimizedAffinity>
-8.42726

$$$$
5EFC_GTP_A_501


 41 43  0  0  0  0  0  0  0  0999 V2000
   32.7707   30.5064   26.9801 C   0  0  0  0  0  0  0  0  0  0  0  0
   33.6185   31.5248   26.4750 O   0  0  0  0  0  0  0  0  0  0  0  0
   31.3739   31.1028   27.0409 C   0  0  0  0  0  0  0  0  0  0  0  0
   31.1272   31.5029   28.3683 O   0  0  0  0  0  0  0  0  0  0  0  0
   31.4311   32.3558   26.1945 C   0  0  0  0  0  0  0  0  0  0  0  0
   30.6732   33.3838   26.7989 O   0  0  0  0  0  0  0  0  0  0  0  0
   32.9059   32.7189   26.2001 C   0  0  0  0  0  0  0  0  0  0  0  0
   31.8139   32.1271   28.6508 H   0  0  0  0  0  0  0  0  0  0  0  0
   31.0005   33.5406   27.6984 H   0  0  0  0  0  0  0  0  0  0  0  0
   33.3886   33.2646   24.9133 N   0  0  0  0  0  0  0  0  0  0  0  0
   32.9218   33.0041   23.6494 C   0  0  0  0  0  0  0  0  0  0  0  0
   33.6747   33.6910   22.7568 N   0  0  0  0  0  0  0  0  0  0  0  0
   34.6145   34.3914   23.4359 C   0  0  0  0  0  0  0  0  0  0  0  0
   35.6305   35.2422   23.0273 C   0  0  0  0  0  0  0  0  0  0  0  0
   35.7940   35.4941   21.8315 O   0  0  0  0  0  0  0  0  0  0  0  0
   36.4523   35.8038   23.9793 N   0  0  0  0  0  0  0  0  0  0  0  0
   36.2733   35.5181   25.3148 C   0  0  0  0  0  0  0  0  0  0  0  0
   37.0672   36.0546   26.2377 N   0  0  0  0  0  0  0  0  0  0  0  0
   35.2608   34.6744   25.7104 N   0  0  0  0  0  0  0  0  0  0  0  0
   34.4497   34.1160   24.7831 C   0  0  0  0  0  0  0  0  0  0  0  0
   37.1735   36.4144   23.7030 H   0  0  0  0  0  0  0  0  0  0  0  0
   37.7955   36.6599   25.9689 H   0  0  0  0  0  0  0  0  0  0  0  0
   36.9262   35.8463   27.1896 H   0  0  0  0  0  0  0  0  0  0  0  0
   32.8653   29.2920   26.0550 C   0  0  0  0  0  0  0  0  0  0  0  0
   34.0285   28.5591   26.3761 O   0  0  0  0  0  0  0  0  0  0  0  0
   34.1007   27.4403   27.5401 P   0  0  0  0  0  0  0  0  0  0  0  0
   34.8376   26.2389   26.9986 O   0  0  0  0  0  0  0  0  0  0  0  0
   34.8129   27.9857   28.7576 O   0  0  0  0  0  0  0  0  0  0  0  0
   34.8472   27.3024   29.4453 H   0  0  0  0  0  0  0  0  0  0  0  0
   32.5842   26.9942   27.8886 O   0  0  0  0  0  0  0  0  0  0  0  0
   32.1248   26.0091   29.0883 P   0  0  0  0  0  0  0  0  0  0  0  0
   33.3130   25.6915   29.9675 O   0  0  0  0  0  0  0  0  0  0  0  0
   31.0350   26.6718   29.9021 O   0  0  0  0  0  0  0  0  0  0  0  0
   30.7619   26.0793   30.6199 H   0  0  0  0  0  0  0  0  0  0  0  0
   31.5601   24.6486   28.4267 O   0  0  0  0  0  0  0  0  0  0  0  0
   30.7134   24.6418   27.0527 P   0  0  0  0  0  0  0  0  0  0  0  0
   29.5211   25.5663   27.1543 O   0  0  0  0  0  0  0  0  0  0  0  0
   31.6235   25.0369   25.9101 O   0  0  0  0  0  0  0  0  0  0  0  0
   30.2262   23.2325   26.7996 O   0  0  0  0  0  0  0  0  0  0  0  0
   31.1207   25.0348   25.0806 H   0  0  0  0  0  0  0  0  0  0  0  0
   29.7144   23.2103   25.9759 H   0  0  0  0  0  0  0  0  0  0  0  0
 36 37  2  0  0  0
 36 38  1  0  0  0
 36 39  1  0  0  0
 36 35  1  0  0  0
 35 31  1  0  0  0
 31 32  2  0  0  0
 31 33  1  0  0  0
 31 30  1  0  0  0
 30 26  1  0  0  0
 26 27  2  0  0  0
 26 28  1  0  0  0
 26 25  1  0  0  0
 25 24  1  0  0  0
 24  1  1  0  0  0
  1  2  1  0  0  0
  1  3  1  0  0  0
  2  7  1  0  0  0
  3  4  1  0  0  0
  3  5  1  0  0  0
  5  6  1  0  0  0
  5  7  1  0  0  0
  7 10  1  0  0  0
 10 11  1  0  0  0
 10 20  1  0  0  0
 11 12  2  0  0  0
 12 13  1  0  0  0
 13 14  1  0  0  0
 13 20  2  0  0  0
 14 15  2  0  0  0
 14 16  1  0  0  0
 16 17  1  0  0  0
 17 18  1  0  0  0
 17 19  2  0  0  0
 19 20  1  0  0  0
 38 40  1  0  0  0
 39 41  1  0  0  0
 33 34  1  0  0  0
 28 29  1  0  0  0
  4  8  1  0  0  0
  6  9  1  0  0  0
 16 21  1  0  0  0
 18 22  1  0  0  0
 18 23  1  0  0  0
M  END
> <minimizedAffinity>
-8.24332

$$$$
5EFC_GTP_A_501


 41 43  0  0  0  0  0  0  0  0999 V2000
   29.1323   28.4164   25.5947 C   0  0  0  0  0  0  0  0  0  0  0  0
   29.8218   29.5772   26.0286 O   0  0  0  0  0  0  0  0  0  0  0  0
   28.2680   28.8456   24.4203 C   0  0  0  0  0  0  0  0  0  0  0  0
   26.9558   29.0417   24.8924 O   0  0  0  0  0  0  0  0  0  0  0  0
   28.8022   30.1963   23.9961 C   0  0  0  0  0  0  0  0  0  0  0  0
   27.7339   31.0495   23.6393 O   0  0  0  0  0  0  0  0  0  0  0  0
   29.4906   30.7127   25.2476 C   0  0  0  0  0  0  0  0  0  0  0  0
   26.9645   29.6946   25.6098 H   0  0  0  0  0  0  0  0  0  0  0  0
   27.1165   31.1232   24.3838 H   0  0  0  0  0  0  0  0  0  0  0  0
   30.7315   31.4692   24.9742 N   0  0  0  0  0  0  0  0  0  0  0  0
   31.3303   31.7135   23.7640 C   0  0  0  0  0  0  0  0  0  0  0  0
   32.4683   32.4177   23.9753 N   0  0  0  0  0  0  0  0  0  0  0  0
   32.6012   32.6305   25.3066 C   0  0  0  0  0  0  0  0  0  0  0  0
   33.5657   33.2791   26.0630 C   0  0  0  0  0  0  0  0  0  0  0  0
   34.5315   33.8181   25.5184 O   0  0  0  0  0  0  0  0  0  0  0  0
   33.4255   33.3140   27.4328 N   0  0  0  0  0  0  0  0  0  0  0  0
   32.3495   32.7071   28.0419 C   0  0  0  0  0  0  0  0  0  0  0  0
   32.2120   32.7343   29.3648 N   0  0  0  0  0  0  0  0  0  0  0  0
   31.3966   32.0679   27.2823 N   0  0  0  0  0  0  0  0  0  0  0  0
   31.5262   32.0260   25.9366 C   0  0  0  0  0  0  0  0  0  0  0  0
   34.1000   33.7765   27.9810 H   0  0  0  0  0  0  0  0  0  0  0  0
   32.8862   33.1880   29.9206 H   0  0  0  0  0  0  0  0  0  0  0  0
   31.4360   32.3008   29.7881 H   0  0  0  0  0  0  0  0  0  0  0  0
   30.1631   27.3492   25.2231 C   0  0  0  0  0  0  0  0  0  0  0  0
   31.1307   27.2681   26.2481 O   0  0  0  0  0  0  0  0  0  0  0  0
   30.9895   26.3255   27.5533 P   0  0  0  0  0  0  0  0  0  0  0  0
   30.5385   27.1830   28.7113 O   0  0  0  0  0  0  0  0  0  0  0  0
   29.9911   25.2176   27.3029 O   0  0  0  0  0  0  0  0  0  0  0  0
   29.9188   24.6624   28.0950 H   0  0  0  0  0  0  0  0  0  0  0  0
   32.4577   25.7365   27.8961 O   0  0  0  0  0  0  0  0  0  0  0  0
   33.8692   26.2806   27.3196 P   0  0  0  0  0  0  0  0  0  0  0  0
   34.9284   25.2138   27.4808 O   0  0  0  0  0  0  0  0  0  0  0  0
   33.7154   26.6478   25.8600 O   0  0  0  0  0  0  0  0  0  0  0  0
   34.5625   26.9734   25.5176 H   0  0  0  0  0  0  0  0  0  0  0  0
   34.2831   27.5892   28.1702 O   0  0  0  0  0  0  0  0  0  0  0  0
   33.9469   29.0869   27.6714 P   0  0  0  0  0  0  0  0  0  0  0  0
   34.3470   29.2715   26.2249 O   0  0  0  0  0  0  0  0  0  0  0  0
   32.4718   29.3557   27.8757 O   0  0  0  0  0  0  0  0  0  0  0  0
   34.7250   30.0609   28.5278 O   0  0  0  0  0  0  0  0  0  0  0  0
   32.2627   30.2549   27.5777 H   0  0  0  0  0  0  0  0  0  0  0  0
   34.5342   30.9677   28.2409 H   0  0  0  0  0  0  0  0  0  0  0  0
 36 37  2  0  0  0
 36 38  1  0  0  0
 36 39  1  0  0  0
 36 35  1  0  0  0
 35 31  1  0  0  0
 31 32  2  0  0  0
 31 33  1  0  0  0
 31 30  1  0  0  0
 30 26  1  0  0  0
 26 27  2  0  0  0
 26 28  1  0  0  0
 26 25  1  0  0  0
 25 24  1  0  0  0
 24  1  1  0  0  0
  1  2  1  0  0  0
  1  3  1  0  0  0
  2  7  1  0  0  0
  3  4  1  0  0  0
  3  5  1  0  0  0
  5  6  1  0  0  0
  5  7  1  0  0  0
  7 10  1  0  0  0
 10 11  1  0  0  0
 10 20  1  0  0  0
 11 12  2  0  0  0
 12 13  1  0  0  0
 13 14  1  0  0  0
 13 20  2  0  0  0
 14 15  2  0  0  0
 14 16  1  0  0  0
 16 17  1  0  0  0
 17 18  1  0  0  0
 17 19  2  0  0  0
 19 20  1  0  0  0
 38 40  1  0  0  0
 39 41  1  0  0  0
 33 34  1  0  0  0
 28 29  1  0  0  0
  4  8  1  0  0  0
  6  9  1  0  0  0
 16 21  1  0  0  0
 18 22  1  0  0  0
 18 23  1  0  0  0
M  END
> <minimizedAffinity>
-7.82408

$$$$
5EFC_GTP_A_501


 41 43  0  0  0  0  0  0  0  0999 V2000
   31.8853   33.0852   25.1638 C   0  0  0  0  0  0  0  0  0  0  0  0
   31.5931   31.9263   24.4006 O   0  0  0  0  0  0  0  0  0  0  0  0
   30.6324   33.3970   25.9660 C   0  0  0  0  0  0  0  0  0  0  0  0
   29.9306   34.4201   25.2998 O   0  0  0  0  0  0  0  0  0  0  0  0
   29.7838   32.1463   25.8945 C   0  0  0  0  0  0  0  0  0  0  0  0
   28.4205   32.4928   25.7605 O   0  0  0  0  0  0  0  0  0  0  0  0
   30.2762   31.4569   24.6339 C   0  0  0  0  0  0  0  0  0  0  0  0
   29.7344   34.1396   24.3922 H   0  0  0  0  0  0  0  0  0  0  0  0
   28.3047   33.0527   24.9770 H   0  0  0  0  0  0  0  0  0  0  0  0
   30.3183   29.9826   24.7405 N   0  0  0  0  0  0  0  0  0  0  0  0
   31.4177   29.1616   24.7611 C   0  0  0  0  0  0  0  0  0  0  0  0
   30.9994   27.8751   24.8356 N   0  0  0  0  0  0  0  0  0  0  0  0
   29.6452   27.8646   24.8677 C   0  0  0  0  0  0  0  0  0  0  0  0
   28.7146   26.8387   24.9361 C   0  0  0  0  0  0  0  0  0  0  0  0
   29.0812   25.6632   24.9984 O   0  0  0  0  0  0  0  0  0  0  0  0
   27.3739   27.1544   24.9362 N   0  0  0  0  0  0  0  0  0  0  0  0
   26.9641   28.4673   24.8608 C   0  0  0  0  0  0  0  0  0  0  0  0
   25.6704   28.7770   24.8563 N   0  0  0  0  0  0  0  0  0  0  0  0
   27.8954   29.4783   24.7957 N   0  0  0  0  0  0  0  0  0  0  0  0
   29.2143   29.1786   24.7927 C   0  0  0  0  0  0  0  0  0  0  0  0
   26.7031   26.4359   24.9905 H   0  0  0  0  0  0  0  0  0  0  0  0
   24.9933   28.0638   24.9024 H   0  0  0  0  0  0  0  0  0  0  0  0
   25.3900   29.7195   24.8068 H   0  0  0  0  0  0  0  0  0  0  0  0
   33.1036   32.7947   26.0418 C   0  0  0  0  0  0  0  0  0  0  0  0
   33.0597   31.4460   26.4571 O   0  0  0  0  0  0  0  0  0  0  0  0
   33.0379   30.9754   28.0031 P   0  0  0  0  0  0  0  0  0  0  0  0
   34.4352   31.1086   28.5594 O   0  0  0  0  0  0  0  0  0  0  0  0
   32.0736   31.8226   28.8026 O   0  0  0  0  0  0  0  0  0  0  0  0
   32.0730   31.5271   29.7265 H   0  0  0  0  0  0  0  0  0  0  0  0
   32.6229   29.4111   28.0355 O   0  0  0  0  0  0  0  0  0  0  0  0
   33.6161   28.1497   27.8277 P   0  0  0  0  0  0  0  0  0  0  0  0
   34.2578   28.2287   26.4611 O   0  0  0  0  0  0  0  0  0  0  0  0
   34.6783   28.1552   28.9050 O   0  0  0  0  0  0  0  0  0  0  0  0
   35.2717   27.3985   28.7779 H   0  0  0  0  0  0  0  0  0  0  0  0
   32.7362   26.8001   27.9370 O   0  0  0  0  0  0  0  0  0  0  0  0
   31.2049   26.8050   28.4467 P   0  0  0  0  0  0  0  0  0  0  0  0
   31.1378   26.5858   29.9413 O   0  0  0  0  0  0  0  0  0  0  0  0
   30.5568   28.1137   28.0501 O   0  0  0  0  0  0  0  0  0  0  0  0
   30.4663   25.6845   27.7489 O   0  0  0  0  0  0  0  0  0  0  0  0
   29.6355   28.1233   28.3537 H   0  0  0  0  0  0  0  0  0  0  0  0
   29.5424   25.6730   28.0443 H   0  0  0  0  0  0  0  0  0  0  0  0
 36 37  2  0  0  0
 36 38  1  0  0  0
 36 39  1  0  0  0
 36 35  1  0  0  0
 35 31  1  0  0  0
 31 32  2  0  0  0
 31 33  1  0  0  0
 31 30  1  0  0  0
 30 26  1  0  0  0
 26 27  2  0  0  0
 26 28  1  0  0  0
 26 25  1  0  0  0
 25 24  1  0  0  0
 24  1  1  0  0  0
  1  2  1  0  0  0
  1  3  1  0  0  0
  2  7  1  0  0  0
  3  4  1  0  0  0
  3  5  1  0  0  0
  5  6  1  0  0  0
  5  7  1  0  0  0
  7 10  1  0  0  0
 10 11  1  0  0  0
 10 20  1  0  0  0
 11 12  2  0  0  0
 12 13  1  0  0  0
 13 14  1  0  0  0
 13 20  2  0  0  0
 14 15  2  0  0  0
 14 16  1  0  0  0
 16 17  1  0  0  0
 17 18  1  0  0  0
 17 19  2  0  0  0
 19 20  1  0  0  0
 38 40  1  0  0  0
 39 41  1  0  0  0
 33 34  1  0  0  0
 28 29  1  0  0  0
  4  8  1  0  0  0
  6  9  1  0  0  0
 16 21  1  0  0  0
 18 22  1  0  0  0
 18 23  1  0  0  0
M  END
> <minimizedAffinity>
-7.76505

$$$$
5EFC_GTP_A_501


 41 43  0  0  0  0  0  0  0  0999 V2000
   28.9819   32.0352   24.7029 C   0  0  0  0  0  0  0  0  0  0  0  0
   29.4274   32.2339   26.0345 O   0  0  0  0  0  0  0  0  0  0  0  0
   29.9433   32.8033   23.8106 C   0  0  0  0  0  0  0  0  0  0  0  0
   29.3409   34.0309   23.4743 O   0  0  0  0  0  0  0  0  0  0  0  0
   31.1435   33.1117   24.6788 C   0  0  0  0  0  0  0  0  0  0  0  0
   31.6228   34.4111   24.3990 O   0  0  0  0  0  0  0  0  0  0  0  0
   30.5839   33.0515   26.0895 C   0  0  0  0  0  0  0  0  0  0  0  0
   29.1154   34.5133   24.2851 H   0  0  0  0  0  0  0  0  0  0  0  0
   30.9085   35.0543   24.5291 H   0  0  0  0  0  0  0  0  0  0  0  0
   31.5198   32.4704   27.0760 N   0  0  0  0  0  0  0  0  0  0  0  0
   31.8015   32.9114   28.3445 C   0  0  0  0  0  0  0  0  0  0  0  0
   32.7432   32.1027   28.8877 N   0  0  0  0  0  0  0  0  0  0  0  0
   33.0630   31.1470   27.9825 C   0  0  0  0  0  0  0  0  0  0  0  0
   33.9553   30.0858   28.0118 C   0  0  0  0  0  0  0  0  0  0  0  0
   34.6347   29.8657   29.0168 O   0  0  0  0  0  0  0  0  0  0  0  0
   34.0681   29.2796   26.9007 N   0  0  0  0  0  0  0  0  0  0  0  0
   33.3133   29.5287   25.7758 C   0  0  0  0  0  0  0  0  0  0  0  0
   33.4218   28.7555   24.6987 N   0  0  0  0  0  0  0  0  0  0  0  0
   32.4290   30.5828   25.7575 N   0  0  0  0  0  0  0  0  0  0  0  0
   32.3124   31.3818   26.8426 C   0  0  0  0  0  0  0  0  0  0  0  0
   34.6934   28.5191   26.9107 H   0  0  0  0  0  0  0  0  0  0  0  0
   34.0505   27.9979   24.6978 H   0  0  0  0  0  0  0  0  0  0  0  0
   32.8735   28.9410   23.9023 H   0  0  0  0  0  0  0  0  0  0  0  0
   28.9654   30.5331   24.4149 C   0  0  0  0  0  0  0  0  0  0  0  0
   29.0891   29.8301   25.6331 O   0  0  0  0  0  0  0  0  0  0  0  0
   29.5969   28.3001   25.7473 P   0  0  0  0  0  0  0  0  0  0  0  0
   28.3958   27.3919   25.6361 O   0  0  0  0  0  0  0  0  0  0  0  0
   30.5921   27.9875   24.6525 O   0  0  0  0  0  0  0  0  0  0  0  0
   30.8860   27.0668   24.7358 H   0  0  0  0  0  0  0  0  0  0  0  0
   30.2487   28.1062   27.2163 O   0  0  0  0  0  0  0  0  0  0  0  0
   31.0068   26.7847   27.7637 P   0  0  0  0  0  0  0  0  0  0  0  0
   31.2369   26.9117   29.2525 O   0  0  0  0  0  0  0  0  0  0  0  0
   30.1715   25.5588   27.4666 O   0  0  0  0  0  0  0  0  0  0  0  0
   30.6282   24.7689   27.7957 H   0  0  0  0  0  0  0  0  0  0  0  0
   32.4266   26.6742   27.0025 O   0  0  0  0  0  0  0  0  0  0  0  0
   33.6764   25.8590   27.6175 P   0  0  0  0  0  0  0  0  0  0  0  0
   34.6311   25.4378   26.5232 O   0  0  0  0  0  0  0  0  0  0  0  0
   34.3669   26.7208   28.6522 O   0  0  0  0  0  0  0  0  0  0  0  0
   33.1455   24.6250   28.3125 O   0  0  0  0  0  0  0  0  0  0  0  0
   35.1196   26.2365   29.0261 H   0  0  0  0  0  0  0  0  0  0  0  0
   33.8849   24.1223   28.6887 H   0  0  0  0  0  0  0  0  0  0  0  0
 36 37  2  0  0  0
 36 38  1  0  0  0
 36 39  1  0  0  0
 36 35  1  0  0  0
 35 31  1  0  0  0
 31 32  2  0  0  0
 31 33  1  0  0  0
 31 30  1  0  0  0
 30 26  1  0  0  0
 26 27  2  0  0  0
 26 28  1  0  0  0
 26 25  1  0  0  0
 25 24  1  0  0  0
 24  1  1  0  0  0
  1  2  1  0  0  0
  1  3  1  0  0  0
  2  7  1  0  0  0
  3  4  1  0  0  0
  3  5  1  0  0  0
  5  6  1  0  0  0
  5  7  1  0  0  0
  7 10  1  0  0  0
 10 11  1  0  0  0
 10 20  1  0  0  0
 11 12  2  0  0  0
 12 13  1  0  0  0
 13 14  1  0  0  0
 13 20  2  0  0  0
 14 15  2  0  0  0
 14 16  1  0  0  0
 16 17  1  0  0  0
 17 18  1  0  0  0
 17 19  2  0  0  0
 19 20  1  0  0  0
 38 40  1  0  0  0
 39 41  1  0  0  0
 33 34  1  0  0  0
 28 29  1  0  0  0
  4  8  1  0  0  0
  6  9  1  0  0  0
 16 21  1  0  0  0
 18 22  1  0  0  0
 18 23  1  0  0  0
M  END
> <minimizedAffinity>
-7.69007

$$$$
5EFC_GTP_A_501


 41 43  0  0  0  0  0  0  0  0999 V2000
   34.1995   29.2790   27.2287 C   0  0  0  0  0  0  0  0  0  0  0  0
   33.8592   29.7787   25.9459 O   0  0  0  0  0  0  0  0  0  0  0  0
   33.4746   30.1564   28.2363 C   0  0  0  0  0  0  0  0  0  0  0  0
   34.3920   31.1039   28.7301 O   0  0  0  0  0  0  0  0  0  0  0  0
   32.4310   30.9098   27.4408 C   0  0  0  0  0  0  0  0  0  0  0  0
   32.3328   32.2398   27.9077 O   0  0  0  0  0  0  0  0  0  0  0  0
   32.9830   30.8900   26.0259 C   0  0  0  0  0  0  0  0  0  0  0  0
   34.7633   31.6102   27.9908 H   0  0  0  0  0  0  0  0  0  0  0  0
   33.2028   32.6657   27.8561 H   0  0  0  0  0  0  0  0  0  0  0  0
   31.9438   30.7408   24.9845 N   0  0  0  0  0  0  0  0  0  0  0  0
   31.6472   29.6334   24.2303 C   0  0  0  0  0  0  0  0  0  0  0  0
   30.6459   29.9459   23.3728 N   0  0  0  0  0  0  0  0  0  0  0  0
   30.2958   31.2390   23.5735 C   0  0  0  0  0  0  0  0  0  0  0  0
   29.3498   32.0599   22.9782 C   0  0  0  0  0  0  0  0  0  0  0  0
   28.6161   31.6268   22.0870 O   0  0  0  0  0  0  0  0  0  0  0  0
   29.2410   33.3663   23.4008 N   0  0  0  0  0  0  0  0  0  0  0  0
   30.0644   33.8519   24.3925 C   0  0  0  0  0  0  0  0  0  0  0  0
   29.9662   35.1141   24.8011 N   0  0  0  0  0  0  0  0  0  0  0  0
   30.9985   33.0287   24.9786 N   0  0  0  0  0  0  0  0  0  0  0  0
   31.1148   31.7448   24.5692 C   0  0  0  0  0  0  0  0  0  0  0  0
   28.5693   33.9578   22.9907 H   0  0  0  0  0  0  0  0  0  0  0  0
   29.3024   35.7141   24.3905 H   0  0  0  0  0  0  0  0  0  0  0  0
   30.5573   35.4481   25.5140 H   0  0  0  0  0  0  0  0  0  0  0  0
   33.7835   27.8090   27.3038 C   0  0  0  0  0  0  0  0  0  0  0  0
   33.4855   27.4836   28.6450 O   0  0  0  0  0  0  0  0  0  0  0  0
   33.3065   25.9732   29.1914 P   0  0  0  0  0  0  0  0  0  0  0  0
   33.4440   25.9930   30.6948 O   0  0  0  0  0  0  0  0  0  0  0  0
   31.9544   25.4224   28.7970 O   0  0  0  0  0  0  0  0  0  0  0  0
   31.8639   24.5167   29.1324 H   0  0  0  0  0  0  0  0  0  0  0  0
   34.5123   25.0827   28.5805 O   0  0  0  0  0  0  0  0  0  0  0  0
   34.6511   23.4717   28.6584 P   0  0  0  0  0  0  0  0  0  0  0  0
   36.0999   23.0969   28.8733 O   0  0  0  0  0  0  0  0  0  0  0  0
   33.8006   22.9417   29.7918 O   0  0  0  0  0  0  0  0  0  0  0  0
   33.8858   21.9764   29.8359 H   0  0  0  0  0  0  0  0  0  0  0  0
   34.1342   22.8592   27.2566 O   0  0  0  0  0  0  0  0  0  0  0  0
   34.5992   23.4527   25.8296 P   0  0  0  0  0  0  0  0  0  0  0  0
   34.8408   22.3363   24.8388 O   0  0  0  0  0  0  0  0  0  0  0  0
   33.5461   24.4175   25.3294 O   0  0  0  0  0  0  0  0  0  0  0  0
   35.8853   24.2233   26.0296 O   0  0  0  0  0  0  0  0  0  0  0  0
   33.8194   24.7782   24.4715 H   0  0  0  0  0  0  0  0  0  0  0  0
   36.1794   24.5876   25.1801 H   0  0  0  0  0  0  0  0  0  0  0  0
 36 37  2  0  0  0
 36 38  1  0  0  0
 36 39  1  0  0  0
 36 35  1  0  0  0
 35 31  1  0  0  0
 31 32  2  0  0  0
 31 33  1  0  0  0
 31 30  1  0  0  0
 30 26  1  0  0  0
 26 27  2  0  0  0
 26 28  1  0  0  0
 26 25  1  0  0  0
 25 24  1  0  0  0
 24  1  1  0  0  0
  1  2  1  0  0  0
  1  3  1  0  0  0
  2  7  1  0  0  0
  3  4  1  0  0  0
  3  5  1  0  0  0
  5  6  1  0  0  0
  5  7  1  0  0  0
  7 10  1  0  0  0
 10 11  1  0  0  0
 10 20  1  0  0  0
 11 12  2  0  0  0
 12 13  1  0  0  0
 13 14  1  0  0  0
 13 20  2  0  0  0
 14 15  2  0  0  0
 14 16  1  0  0  0
 16 17  1  0  0  0
 17 18  1  0  0  0
 17 19  2  0  0  0
 19 20  1  0  0  0
 38 40  1  0  0  0
 39 41  1  0  0  0
 33 34  1  0  0  0
 28 29  1  0  0  0
  4  8  1  0  0  0
  6  9  1  0  0  0
 16 21  1  0  0  0
 18 22  1  0  0  0
 18 23  1  0  0  0
M  END
> <minimizedAffinity>
-7.54178

$$$$
5EFC_GTP_A_501


 41 43  0  0  0  0  0  0  0  0999 V2000
   32.7931   29.8788   27.3645 C   0  0  0  0  0  0  0  0  0  0  0  0
   32.8545   30.3642   26.0334 O   0  0  0  0  0  0  0  0  0  0  0  0
   33.1288   31.0560   28.2656 C   0  0  0  0  0  0  0  0  0  0  0  0
   34.4811   30.9458   28.6425 O   0  0  0  0  0  0  0  0  0  0  0  0
   33.0020   32.2846   27.3914 C   0  0  0  0  0  0  0  0  0  0  0  0
   34.0267   33.2071   27.7006 O   0  0  0  0  0  0  0  0  0  0  0  0
   33.1930   31.7398   25.9866 C   0  0  0  0  0  0  0  0  0  0  0  0
   35.0365   30.9116   27.8479 H   0  0  0  0  0  0  0  0  0  0  0  0
   34.8903   32.7778   27.5968 H   0  0  0  0  0  0  0  0  0  0  0  0
   32.3392   32.3963   24.9733 N   0  0  0  0  0  0  0  0  0  0  0  0
   32.6291   33.4882   24.1942 C   0  0  0  0  0  0  0  0  0  0  0  0
   31.5498   33.7746   23.4269 N   0  0  0  0  0  0  0  0  0  0  0  0
   30.5751   32.8753   23.7031 C   0  0  0  0  0  0  0  0  0  0  0  0
   29.2861   32.7082   23.2198 C   0  0  0  0  0  0  0  0  0  0  0  0
   28.8389   33.4627   22.3533 O   0  0  0  0  0  0  0  0  0  0  0  0
   28.5142   31.6835   23.7213 N   0  0  0  0  0  0  0  0  0  0  0  0
   29.0116   30.8439   24.6934 C   0  0  0  0  0  0  0  0  0  0  0  0
   28.2686   29.8556   25.1840 N   0  0  0  0  0  0  0  0  0  0  0  0
   30.2929   31.0166   25.1648 N   0  0  0  0  0  0  0  0  0  0  0  0
   31.0581   32.0212   24.6804 C   0  0  0  0  0  0  0  0  0  0  0  0
   27.5996   31.5502   23.3823 H   0  0  0  0  0  0  0  0  0  0  0  0
   27.3503   29.7205   24.8559 H   0  0  0  0  0  0  0  0  0  0  0  0
   28.6371   29.2592   25.8753 H   0  0  0  0  0  0  0  0  0  0  0  0
   31.3935   29.3135   27.6117 C   0  0  0  0  0  0  0  0  0  0  0  0
   31.3379   27.9918   27.1183 O   0  0  0  0  0  0  0  0  0  0  0  0
   30.9079   26.7118   28.0063 P   0  0  0  0  0  0  0  0  0  0  0  0
   30.4073   27.2072   29.3418 O   0  0  0  0  0  0  0  0  0  0  0  0
   29.8289   25.9173   27.3053 O   0  0  0  0  0  0  0  0  0  0  0  0
   29.5831   25.1540   27.8511 H   0  0  0  0  0  0  0  0  0  0  0  0
   32.2347   25.8193   28.2580 O   0  0  0  0  0  0  0  0  0  0  0  0
   33.2838   25.9820   29.4801 P   0  0  0  0  0  0  0  0  0  0  0  0
   34.1691   27.1823   29.2326 O   0  0  0  0  0  0  0  0  0  0  0  0
   32.5288   26.1489   30.7804 O   0  0  0  0  0  0  0  0  0  0  0  0
   33.1599   26.2462   31.5106 H   0  0  0  0  0  0  0  0  0  0  0  0
   34.1871   24.6450   29.5421 O   0  0  0  0  0  0  0  0  0  0  0  0
   34.7561   23.9234   28.2154 P   0  0  0  0  0  0  0  0  0  0  0  0
   36.0359   23.1775   28.5191 O   0  0  0  0  0  0  0  0  0  0  0  0
   33.6943   22.9974   27.6631 O   0  0  0  0  0  0  0  0  0  0  0  0
   35.0380   24.9869   27.1775 O   0  0  0  0  0  0  0  0  0  0  0  0
   34.0299   22.5601   26.8650 H   0  0  0  0  0  0  0  0  0  0  0  0
   35.3814   24.5697   26.3720 H   0  0  0  0  0  0  0  0  0  0  0  0
 36 37  2  0  0  0
 36 38  1  0  0  0
 36 39  1  0  0  0
 36 35  1  0  0  0
 35 31  1  0  0  0
 31 32  2  0  0  0
 31 33  1  0  0  0
 31 30  1  0  0  0
 30 26  1  0  0  0
 26 27  2  0  0  0
 26 28  1  0  0  0
 26 25  1  0  0  0
 25 24  1  0  0  0
 24  1  1  0  0  0
  1  2  1  0  0  0
  1  3  1  0  0  0
  2  7  1  0  0  0
  3  4  1  0  0  0
  3  5  1  0  0  0
  5  6  1  0  0  0
  5  7  1  0  0  0
  7 10  1  0  0  0
 10 11  1  0  0  0
 10 20  1  0  0  0
 11 12  2  0  0  0
 12 13  1  0  0  0
 13 14  1  0  0  0
 13 20  2  0  0  0
 14 15  2  0  0  0
 14 16  1  0  0  0
 16 17  1  0  0  0
 17 18  1  0  0  0
 17 19  2  0  0  0
 19 20  1  0  0  0
 38 40  1  0  0  0
 39 41  1  0  0  0
 33 34  1  0  0  0
 28 29  1  0  0  0
  4  8  1  0  0  0
  6  9  1  0  0  0
 16 21  1  0  0  0
 18 22  1  0  0  0
 18 23  1  0  0  0
M  END
> <minimizedAffinity>
-7.50354

$$$$
5EFC_GTP_A_501


 41 43  0  0  0  0  0  0  0  0999 V2000
   32.7519   30.1660   27.2226 C   0  0  0  0  0  0  0  0  0  0  0  0
   31.8154   29.2528   27.7704 O   0  0  0  0  0  0  0  0  0  0  0  0
   34.1250   29.5488   27.4324 C   0  0  0  0  0  0  0  0  0  0  0  0
   34.7057   30.1501   28.5656 O   0  0  0  0  0  0  0  0  0  0  0  0
   33.8690   28.0968   27.7726 C   0  0  0  0  0  0  0  0  0  0  0  0
   34.7675   27.6684   28.7755 O   0  0  0  0  0  0  0  0  0  0  0  0
   32.4484   28.1050   28.3099 C   0  0  0  0  0  0  0  0  0  0  0  0
   34.1206   30.0315   29.3302 H   0  0  0  0  0  0  0  0  0  0  0  0
   34.6815   28.2419   29.5531 H   0  0  0  0  0  0  0  0  0  0  0  0
   31.6607   26.9139   27.9258 N   0  0  0  0  0  0  0  0  0  0  0  0
   30.4224   26.8659   27.3365 C   0  0  0  0  0  0  0  0  0  0  0  0
   30.0588   25.5688   27.1918 N   0  0  0  0  0  0  0  0  0  0  0  0
   31.0527   24.7870   27.6775 C   0  0  0  0  0  0  0  0  0  0  0  0
   31.2013   23.4122   27.7818 C   0  0  0  0  0  0  0  0  0  0  0  0
   30.3213   22.6536   27.3691 O   0  0  0  0  0  0  0  0  0  0  0  0
   32.3493   22.9075   28.3514 N   0  0  0  0  0  0  0  0  0  0  0  0
   33.3300   23.7549   28.8177 C   0  0  0  0  0  0  0  0  0  0  0  0
   34.4387   23.2725   29.3725 N   0  0  0  0  0  0  0  0  0  0  0  0
   33.1742   25.1177   28.7074 N   0  0  0  0  0  0  0  0  0  0  0  0
   32.0495   25.6233   28.1518 C   0  0  0  0  0  0  0  0  0  0  0  0
   32.4700   21.9333   28.4258 H   0  0  0  0  0  0  0  0  0  0  0  0
   34.5634   22.2997   29.4578 H   0  0  0  0  0  0  0  0  0  0  0  0
   35.1346   23.8883   29.6978 H   0  0  0  0  0  0  0  0  0  0  0  0
   32.4113   30.3854   25.7477 C   0  0  0  0  0  0  0  0  0  0  0  0
   33.2646   31.3799   25.2219 O   0  0  0  0  0  0  0  0  0  0  0  0
   33.1550   32.9508   25.5853 P   0  0  0  0  0  0  0  0  0  0  0  0
   33.8921   33.1908   26.8809 O   0  0  0  0  0  0  0  0  0  0  0  0
   33.7508   33.7944   24.4806 O   0  0  0  0  0  0  0  0  0  0  0  0
   33.6767   34.7328   24.7146 H   0  0  0  0  0  0  0  0  0  0  0  0
   31.5902   33.2942   25.8174 O   0  0  0  0  0  0  0  0  0  0  0  0
   30.5072   33.6602   24.6712 P   0  0  0  0  0  0  0  0  0  0  0  0
   29.5571   32.4995   24.4816 O   0  0  0  0  0  0  0  0  0  0  0  0
   29.7416   34.9020   25.0721 O   0  0  0  0  0  0  0  0  0  0  0  0
   29.0936   35.1187   24.3835 H   0  0  0  0  0  0  0  0  0  0  0  0
   31.3099   33.9346   23.2972 O   0  0  0  0  0  0  0  0  0  0  0  0
   31.2104   32.9461   22.0253 P   0  0  0  0  0  0  0  0  0  0  0  0
   32.0410   33.4691   20.8750 O   0  0  0  0  0  0  0  0  0  0  0  0
   31.6528   31.5601   22.4415 O   0  0  0  0  0  0  0  0  0  0  0  0
   29.7627   32.8676   21.5943 O   0  0  0  0  0  0  0  0  0  0  0  0
   31.5954   30.9605   21.6811 H   0  0  0  0  0  0  0  0  0  0  0  0
   29.6847   32.2764   20.8293 H   0  0  0  0  0  0  0  0  0  0  0  0
 36 37  2  0  0  0
 36 38  1  0  0  0
 36 39  1  0  0  0
 36 35  1  0  0  0
 35 31  1  0  0  0
 31 32  2  0  0  0
 31 33  1  0  0  0
 31 30  1  0  0  0
 30 26  1  0  0  0
 26 27  2  0  0  0
 26 28  1  0  0  0
 26 25  1  0  0  0
 25 24  1  0  0  0
 24  1  1  0  0  0
  1  2  1  0  0  0
  1  3  1  0  0  0
  2  7  1  0  0  0
  3  4  1  0  0  0
  3  5  1  0  0  0
  5  6  1  0  0  0
  5  7  1  0  0  0
  7 10  1  0  0  0
 10 11  1  0  0  0
 10 20  1  0  0  0
 11 12  2  0  0  0
 12 13  1  0  0  0
 13 14  1  0  0  0
 13 20  2  0  0  0
 14 15  2  0  0  0
 14 16  1  0  0  0
 16 17  1  0  0  0
 17 18  1  0  0  0
 17 19  2  0  0  0
 19 20  1  0  0  0
 38 40  1  0  0  0
 39 41  1  0  0  0
 33 34  1  0  0  0
 28 29  1  0  0  0
  4  8  1  0  0  0
  6  9  1  0  0  0
 16 21  1  0  0  0
 18 22  1  0  0  0
 18 23  1  0  0  0
M  END
> <minimizedAffinity>
-7.44116

$$$$
5EFC_GTP_A_501


 41 43  0  0  0  0  0  0  0  0999 V2000
   32.8314   30.9372   26.4938 C   0  0  0  0  0  0  0  0  0  0  0  0
   31.9882   30.3731   25.5029 O   0  0  0  0  0  0  0  0  0  0  0  0
   32.5831   32.4365   26.4645 C   0  0  0  0  0  0  0  0  0  0  0  0
   33.6171   33.0360   25.7198 O   0  0  0  0  0  0  0  0  0  0  0  0
   31.2996   32.6196   25.6843 C   0  0  0  0  0  0  0  0  0  0  0  0
   31.3957   33.7588   24.8539 O   0  0  0  0  0  0  0  0  0  0  0  0
   31.2172   31.3601   24.8393 C   0  0  0  0  0  0  0  0  0  0  0  0
   33.6465   32.6435   24.8333 H   0  0  0  0  0  0  0  0  0  0  0  0
   32.1640   33.6686   24.2688 H   0  0  0  0  0  0  0  0  0  0  0  0
   29.8412   30.8443   24.6740 N   0  0  0  0  0  0  0  0  0  0  0  0
   29.2322   29.8134   25.3446 C   0  0  0  0  0  0  0  0  0  0  0  0
   27.9789   29.6555   24.8549 N   0  0  0  0  0  0  0  0  0  0  0  0
   27.7781   30.5768   23.8823 C   0  0  0  0  0  0  0  0  0  0  0  0
   26.6963   30.8553   23.0604 C   0  0  0  0  0  0  0  0  0  0  0  0
   25.6522   30.2071   23.1576 O   0  0  0  0  0  0  0  0  0  0  0  0
   26.8064   31.8701   22.1356 N   0  0  0  0  0  0  0  0  0  0  0  0
   27.9748   32.5907   22.0230 C   0  0  0  0  0  0  0  0  0  0  0  0
   28.0875   33.5688   21.1284 N   0  0  0  0  0  0  0  0  0  0  0  0
   29.0418   32.3081   22.8448 N   0  0  0  0  0  0  0  0  0  0  0  0
   28.9447   31.3121   23.7547 C   0  0  0  0  0  0  0  0  0  0  0  0
   26.0437   32.0821   21.5503 H   0  0  0  0  0  0  0  0  0  0  0  0
   27.3321   33.7817   20.5341 H   0  0  0  0  0  0  0  0  0  0  0  0
   28.9263   34.0798   21.0608 H   0  0  0  0  0  0  0  0  0  0  0  0
   32.4922   30.2987   27.8416 C   0  0  0  0  0  0  0  0  0  0  0  0
   32.6486   28.8992   27.7396 O   0  0  0  0  0  0  0  0  0  0  0  0
   34.0795   28.1519   27.6611 P   0  0  0  0  0  0  0  0  0  0  0  0
   34.0950   27.2853   26.4247 O   0  0  0  0  0  0  0  0  0  0  0  0
   35.2038   29.1617   27.6062 O   0  0  0  0  0  0  0  0  0  0  0  0
   36.0539   28.6969   27.5595 H   0  0  0  0  0  0  0  0  0  0  0  0
   34.2052   27.1920   28.9584 O   0  0  0  0  0  0  0  0  0  0  0  0
   33.2690   25.9174   29.3042 P   0  0  0  0  0  0  0  0  0  0  0  0
   32.4873   26.1902   30.5692 O   0  0  0  0  0  0  0  0  0  0  0  0
   32.3240   25.6526   28.1529 O   0  0  0  0  0  0  0  0  0  0  0  0
   31.7645   24.8886   28.3629 H   0  0  0  0  0  0  0  0  0  0  0  0
   34.2304   24.6390   29.5253 O   0  0  0  0  0  0  0  0  0  0  0  0
   34.8321   23.7863   28.2942 P   0  0  0  0  0  0  0  0  0  0  0  0
   36.0869   23.0539   28.7133 O   0  0  0  0  0  0  0  0  0  0  0  0
   33.7735   22.8277   27.7936 O   0  0  0  0  0  0  0  0  0  0  0  0
   35.1691   24.7421   27.1715 O   0  0  0  0  0  0  0  0  0  0  0  0
   34.1288   22.3116   27.0531 H   0  0  0  0  0  0  0  0  0  0  0  0
   35.5327   24.2452   26.4219 H   0  0  0  0  0  0  0  0  0  0  0  0
 36 37  2  0  0  0
 36 38  1  0  0  0
 36 39  1  0  0  0
 36 35  1  0  0  0
 35 31  1  0  0  0
 31 32  2  0  0  0
 31 33  1  0  0  0
 31 30  1  0  0  0
 30 26  1  0  0  0
 26 27  2  0  0  0
 26 28  1  0  0  0
 26 25  1  0  0  0
 25 24  1  0  0  0
 24  1  1  0  0  0
  1  2  1  0  0  0
  1  3  1  0  0  0
  2  7  1  0  0  0
  3  4  1  0  0  0
  3  5  1  0  0  0
  5  6  1  0  0  0
  5  7  1  0  0  0
  7 10  1  0  0  0
 10 11  1  0  0  0
 10 20  1  0  0  0
 11 12  2  0  0  0
 12 13  1  0  0  0
 13 14  1  0  0  0
 13 20  2  0  0  0
 14 15  2  0  0  0
 14 16  1  0  0  0
 16 17  1  0  0  0
 17 18  1  0  0  0
 17 19  2  0  0  0
 19 20  1  0  0  0
 38 40  1  0  0  0
 39 41  1  0  0  0
 33 34  1  0  0  0
 28 29  1  0  0  0
  4  8  1  0  0  0
  6  9  1  0  0  0
 16 21  1  0  0  0
 18 22  1  0  0  0
 18 23  1  0  0  0
M  END
> <minimizedAffinity>
-7.38451

$$$$
