4RIV_LSA_A_302


 13 14  0  0  0  0  0  0  0  0999 V2000
   -2.4693    4.6238   86.3689 C   0  0  0  0  0  0  0  0  0  0  0  0
   -1.8545    4.5199   85.1203 C   0  0  0  0  0  0  0  0  0  0  0  0
   -1.3120    3.2951   84.7820 C   0  0  0  0  0  0  0  0  0  0  0  0
   -0.6781    0.9822   85.0488 C   0  0  0  0  0  0  0  0  0  0  0  0
   -2.5244    3.5378   87.2344 C   0  0  0  0  0  0  0  0  0  0  0  0
   -0.4811    2.7876   83.3480 S   0  0  0  0  0  0  0  0  0  0  0  0
   -0.1604    1.2777   83.7318 N   0  0  0  0  0  0  0  0  0  0  0  0
   -0.5616   -0.2123   85.7050 O   0  0  0  0  0  0  0  0  0  0  0  0
   -1.3692    2.2155   85.6528 C   0  0  0  0  0  0  0  0  0  0  0  0
   -1.9696    2.3101   86.8931 C   0  0  0  0  0  0  0  0  0  0  0  0
   -1.3479    2.7887   82.1562 O   0  0  0  0  0  0  0  0  0  0  0  0
    0.7353    3.5767   83.1688 O   0  0  0  0  0  0  0  0  0  0  0  0
    0.3199    0.6386   83.1572 H   0  0  0  0  0  0  0  0  0  0  0  0
  1  2  2  0  0  0
  1  5  1  0  0  0
  2  3  1  0  0  0
  3  6  1  0  0  0
  3  9  2  0  0  0
  4  7  1  0  0  0
  4  8  2  0  0  0
  4  9  1  0  0  0
  5 10  2  0  0  0
  6  7  1  0  0  0
  6 11  2  0  0  0
  6 12  2  0  0  0
  9 10  1  0  0  0
  7 13  1  0  0  0
M  END
> <minimizedAffinity>
-6.68002

$$$$
4RIV_LSA_A_302


 13 14  0  0  0  0  0  0  0  0999 V2000
   -1.6924    5.0122   85.2572 C   0  0  0  0  0  0  0  0  0  0  0  0
   -2.3663    4.2703   86.2283 C   0  0  0  0  0  0  0  0  0  0  0  0
   -1.9607    2.9637   86.4211 C   0  0  0  0  0  0  0  0  0  0  0  0
   -0.6897    0.9436   86.0655 C   0  0  0  0  0  0  0  0  0  0  0  0
   -0.6607    4.4517   84.5134 C   0  0  0  0  0  0  0  0  0  0  0  0
   -2.5458    1.7510   87.5127 S   0  0  0  0  0  0  0  0  0  0  0  0
   -1.5974    0.5376   87.1149 N   0  0  0  0  0  0  0  0  0  0  0  0
    0.2473    0.1478   85.4657 O   0  0  0  0  0  0  0  0  0  0  0  0
   -0.9307    2.4102   85.6727 C   0  0  0  0  0  0  0  0  0  0  0  0
   -0.2621    3.1342   84.7050 C   0  0  0  0  0  0  0  0  0  0  0  0
   -2.2983    2.0887   88.9257 O   0  0  0  0  0  0  0  0  0  0  0  0
   -3.9503    1.4621   87.2332 O   0  0  0  0  0  0  0  0  0  0  0  0
   -1.6246   -0.3578   87.5231 H   0  0  0  0  0  0  0  0  0  0  0  0
  1  2  2  0  0  0
  1  5  1  0  0  0
  2  3  1  0  0  0
  3  6  1  0  0  0
  3  9  2  0  0  0
  4  7  1  0  0  0
  4  8  2  0  0  0
  4  9  1  0  0  0
  5 10  2  0  0  0
  6  7  1  0  0  0
  6 11  2  0  0  0
  6 12  2  0  0  0
  9 10  1  0  0  0
  7 13  1  0  0  0
M  END
> <minimizedAffinity>
-6.39446

$$$$
4RIV_LSA_A_302


 13 14  0  0  0  0  0  0  0  0999 V2000
   -2.7466    3.4705   87.9595 C   0  0  0  0  0  0  0  0  0  0  0  0
   -2.2716    3.9403   86.7342 C   0  0  0  0  0  0  0  0  0  0  0  0
   -1.5798    3.0469   85.9391 C   0  0  0  0  0  0  0  0  0  0  0  0
   -0.5514    0.9610   85.2957 C   0  0  0  0  0  0  0  0  0  0  0  0
   -2.5238    2.1586   88.3604 C   0  0  0  0  0  0  0  0  0  0  0  0
   -0.8488    3.2559   84.3814 S   0  0  0  0  0  0  0  0  0  0  0  0
   -0.2444    1.8013   84.1602 N   0  0  0  0  0  0  0  0  0  0  0  0
   -0.1670   -0.3421   85.4541 O   0  0  0  0  0  0  0  0  0  0  0  0
   -1.3595    1.7385   86.3474 C   0  0  0  0  0  0  0  0  0  0  0  0
   -1.8198    1.2661   87.5608 C   0  0  0  0  0  0  0  0  0  0  0  0
   -1.8361    3.5142   83.3182 O   0  0  0  0  0  0  0  0  0  0  0  0
    0.1940    4.2768   84.4511 O   0  0  0  0  0  0  0  0  0  0  0  0
    0.2638    1.5155   83.3670 H   0  0  0  0  0  0  0  0  0  0  0  0
  1  2  2  0  0  0
  1  5  1  0  0  0
  2  3  1  0  0  0
  3  6  1  0  0  0
  3  9  2  0  0  0
  4  7  1  0  0  0
  4  8  2  0  0  0
  4  9  1  0  0  0
  5 10  2  0  0  0
  6  7  1  0  0  0
  6 11  2  0  0  0
  6 12  2  0  0  0
  9 10  1  0  0  0
  7 13  1  0  0  0
M  END
> <minimizedAffinity>
-6.32179

$$$$
4RIV_LSA_A_302


 13 14  0  0  0  0  0  0  0  0999 V2000
   -2.4603    2.5465   88.0618 C   0  0  0  0  0  0  0  0  0  0  0  0
   -2.3319    3.6524   87.2204 C   0  0  0  0  0  0  0  0  0  0  0  0
   -1.7521    3.4429   85.9839 C   0  0  0  0  0  0  0  0  0  0  0  0
   -0.6871    2.2253   84.1934 C   0  0  0  0  0  0  0  0  0  0  0  0
   -2.0154    1.2899   87.6687 C   0  0  0  0  0  0  0  0  0  0  0  0
   -1.4251    4.5490   84.6901 S   0  0  0  0  0  0  0  0  0  0  0  0
   -0.7392    3.5629   83.6475 N   0  0  0  0  0  0  0  0  0  0  0  0
   -0.1425    1.1311   83.5795 O   0  0  0  0  0  0  0  0  0  0  0  0
   -1.3082    2.1850   85.5991 C   0  0  0  0  0  0  0  0  0  0  0  0
   -1.4249    1.0858   86.4272 C   0  0  0  0  0  0  0  0  0  0  0  0
   -2.6521    5.0898   84.0785 O   0  0  0  0  0  0  0  0  0  0  0  0
   -0.5070    5.5913   85.1430 O   0  0  0  0  0  0  0  0  0  0  0  0
   -0.4002    3.8248   82.7611 H   0  0  0  0  0  0  0  0  0  0  0  0
  1  2  2  0  0  0
  1  5  1  0  0  0
  2  3  1  0  0  0
  3  6  1  0  0  0
  3  9  2  0  0  0
  4  7  1  0  0  0
  4  8  2  0  0  0
  4  9  1  0  0  0
  5 10  2  0  0  0
  6  7  1  0  0  0
  6 11  2  0  0  0
  6 12  2  0  0  0
  9 10  1  0  0  0
  7 13  1  0  0  0
M  END
> <minimizedAffinity>
-6.17748

$$$$
4RIV_LSA_A_302


 13 14  0  0  0  0  0  0  0  0999 V2000
   -2.0340    5.1924   85.8475 C   0  0  0  0  0  0  0  0  0  0  0  0
   -1.7332    3.9273   86.3541 C   0  0  0  0  0  0  0  0  0  0  0  0
   -1.2593    2.9847   85.4621 C   0  0  0  0  0  0  0  0  0  0  0  0
   -0.5786    2.0617   83.3391 C   0  0  0  0  0  0  0  0  0  0  0  0
   -1.8675    5.4837   84.4988 C   0  0  0  0  0  0  0  0  0  0  0  0
   -0.7883    1.3350   85.7095 S   0  0  0  0  0  0  0  0  0  0  0  0
   -0.3919    0.9327   84.2226 N   0  0  0  0  0  0  0  0  0  0  0  0
   -0.3583    2.0663   81.9891 O   0  0  0  0  0  0  0  0  0  0  0  0
   -1.0975    3.2826   84.1159 C   0  0  0  0  0  0  0  0  0  0  0  0
   -1.3985    4.5295   83.6038 C   0  0  0  0  0  0  0  0  0  0  0  0
    0.4085    1.2050   86.5595 O   0  0  0  0  0  0  0  0  0  0  0  0
   -1.9241    0.5590   86.2019 O   0  0  0  0  0  0  0  0  0  0  0  0
   -0.0672    0.0458   83.9449 H   0  0  0  0  0  0  0  0  0  0  0  0
  1  2  2  0  0  0
  1  5  1  0  0  0
  2  3  1  0  0  0
  3  6  1  0  0  0
  3  9  2  0  0  0
  4  7  1  0  0  0
  4  8  2  0  0  0
  4  9  1  0  0  0
  5 10  2  0  0  0
  6  7  1  0  0  0
  6 11  2  0  0  0
  6 12  2  0  0  0
  9 10  1  0  0  0
  7 13  1  0  0  0
M  END
> <minimizedAffinity>
-5.97922

$$$$
4RIV_LSA_A_302


 13 14  0  0  0  0  0  0  0  0999 V2000
   -1.6859    1.2218   86.9668 C   0  0  0  0  0  0  0  0  0  0  0  0
   -1.0990    1.4496   85.7214 C   0  0  0  0  0  0  0  0  0  0  0  0
   -1.1878    2.7276   85.2041 C   0  0  0  0  0  0  0  0  0  0  0  0
   -1.8168    5.0547   85.0949 C   0  0  0  0  0  0  0  0  0  0  0  0
   -2.3373    2.2415   87.6506 C   0  0  0  0  0  0  0  0  0  0  0  0
   -0.5959    3.3840   83.7130 S   0  0  0  0  0  0  0  0  0  0  0  0
   -1.1116    4.8829   83.8446 N   0  0  0  0  0  0  0  0  0  0  0  0
   -2.4136    6.2077   85.5251 O   0  0  0  0  0  0  0  0  0  0  0  0
   -1.8419    3.7405   85.8922 C   0  0  0  0  0  0  0  0  0  0  0  0
   -2.4315    3.5234   87.1222 C   0  0  0  0  0  0  0  0  0  0  0  0
    0.8761    3.4048   83.6437 O   0  0  0  0  0  0  0  0  0  0  0  0
   -1.2100    2.6914   82.5827 O   0  0  0  0  0  0  0  0  0  0  0  0
   -0.9712    5.5895   83.1736 H   0  0  0  0  0  0  0  0  0  0  0  0
  1  2  2  0  0  0
  1  5  1  0  0  0
  2  3  1  0  0  0
  3  6  1  0  0  0
  3  9  2  0  0  0
  4  7  1  0  0  0
  4  8  2  0  0  0
  4  9  1  0  0  0
  5 10  2  0  0  0
  6  7  1  0  0  0
  6 11  2  0  0  0
  6 12  2  0  0  0
  9 10  1  0  0  0
  7 13  1  0  0  0
M  END
> <minimizedAffinity>
-5.88895

$$$$
4RIV_LSA_A_302


 13 14  0  0  0  0  0  0  0  0999 V2000
   -1.4486    2.0427   87.1987 C   0  0  0  0  0  0  0  0  0  0  0  0
   -0.4723    2.2466   86.2225 C   0  0  0  0  0  0  0  0  0  0  0  0
   -0.5627    3.4008   85.4685 C   0  0  0  0  0  0  0  0  0  0  0  0
   -1.4728    5.4964   84.6920 C   0  0  0  0  0  0  0  0  0  0  0  0
   -2.4709    2.9636   87.3948 C   0  0  0  0  0  0  0  0  0  0  0  0
    0.4427    3.9911   84.1858 S   0  0  0  0  0  0  0  0  0  0  0  0
   -0.3218    5.3401   83.8313 N   0  0  0  0  0  0  0  0  0  0  0  0
   -2.3696    6.5283   84.6495 O   0  0  0  0  0  0  0  0  0  0  0  0
   -1.5880    4.3150   85.6690 C   0  0  0  0  0  0  0  0  0  0  0  0
   -2.5625    4.1190   86.6279 C   0  0  0  0  0  0  0  0  0  0  0  0
    1.8023    4.3343   84.6390 O   0  0  0  0  0  0  0  0  0  0  0  0
    0.4349    3.0483   83.0698 O   0  0  0  0  0  0  0  0  0  0  0  0
   -0.0512    5.9749   83.1292 H   0  0  0  0  0  0  0  0  0  0  0  0
  1  2  2  0  0  0
  1  5  1  0  0  0
  2  3  1  0  0  0
  3  6  1  0  0  0
  3  9  2  0  0  0
  4  7  1  0  0  0
  4  8  2  0  0  0
  4  9  1  0  0  0
  5 10  2  0  0  0
  6  7  1  0  0  0
  6 11  2  0  0  0
  6 12  2  0  0  0
  9 10  1  0  0  0
  7 13  1  0  0  0
M  END
> <minimizedAffinity>
-5.74437

$$$$
4RIV_LSA_A_302


 13 14  0  0  0  0  0  0  0  0999 V2000
   -2.8075    3.2010   88.7755 C   0  0  0  0  0  0  0  0  0  0  0  0
   -1.9656    2.2245   88.2415 C   0  0  0  0  0  0  0  0  0  0  0  0
   -1.5660    2.3826   86.9284 C   0  0  0  0  0  0  0  0  0  0  0  0
   -1.4246    3.3955   84.7429 C   0  0  0  0  0  0  0  0  0  0  0  0
   -3.2282    4.2824   88.0105 C   0  0  0  0  0  0  0  0  0  0  0  0
   -0.5446    1.3962   85.9343 S   0  0  0  0  0  0  0  0  0  0  0  0
   -0.5932    2.2245   84.5773 N   0  0  0  0  0  0  0  0  0  0  0  0
   -1.7082    4.3190   83.7746 O   0  0  0  0  0  0  0  0  0  0  0  0
   -1.9921    3.4644   86.1700 C   0  0  0  0  0  0  0  0  0  0  0  0
   -2.8304    4.4325   86.6873 C   0  0  0  0  0  0  0  0  0  0  0  0
    0.8509    1.3627   86.4071 O   0  0  0  0  0  0  0  0  0  0  0  0
   -1.1275    0.0650   85.7840 O   0  0  0  0  0  0  0  0  0  0  0  0
   -0.1260    1.9763   83.7470 H   0  0  0  0  0  0  0  0  0  0  0  0
  1  2  2  0  0  0
  1  5  1  0  0  0
  2  3  1  0  0  0
  3  6  1  0  0  0
  3  9  2  0  0  0
  4  7  1  0  0  0
  4  8  2  0  0  0
  4  9  1  0  0  0
  5 10  2  0  0  0
  6  7  1  0  0  0
  6 11  2  0  0  0
  6 12  2  0  0  0
  9 10  1  0  0  0
  7 13  1  0  0  0
M  END
> <minimizedAffinity>
-5.52471

$$$$
4RIV_LSA_A_302


 13 14  0  0  0  0  0  0  0  0999 V2000
   -2.0634    5.1117   85.4636 C   0  0  0  0  0  0  0  0  0  0  0  0
   -1.9840    3.9422   84.7062 C   0  0  0  0  0  0  0  0  0  0  0  0
   -0.8468    3.7583   83.9433 C   0  0  0  0  0  0  0  0  0  0  0  0
    1.3080    4.2707   82.9860 C   0  0  0  0  0  0  0  0  0  0  0  0
   -1.0400    6.0518   85.4418 C   0  0  0  0  0  0  0  0  0  0  0  0
   -0.3942    2.4584   82.8898 S   0  0  0  0  0  0  0  0  0  0  0  0
    1.0147    2.9918   82.3793 N   0  0  0  0  0  0  0  0  0  0  0  0
    2.4230    5.0288   82.7556 O   0  0  0  0  0  0  0  0  0  0  0  0
    0.1703    4.7029   83.9252 C   0  0  0  0  0  0  0  0  0  0  0  0
    0.0981    5.8663   84.6661 C   0  0  0  0  0  0  0  0  0  0  0  0
   -0.1768    1.1907   83.6092 O   0  0  0  0  0  0  0  0  0  0  0  0
   -1.3606    2.3374   81.8009 O   0  0  0  0  0  0  0  0  0  0  0  0
    1.6006    2.5204   81.7438 H   0  0  0  0  0  0  0  0  0  0  0  0
  1  2  2  0  0  0
  1  5  1  0  0  0
  2  3  1  0  0  0
  3  6  1  0  0  0
  3  9  2  0  0  0
  4  7  1  0  0  0
  4  8  2  0  0  0
  4  9  1  0  0  0
  5 10  2  0  0  0
  6  7  1  0  0  0
  6 11  2  0  0  0
  6 12  2  0  0  0
  9 10  1  0  0  0
  7 13  1  0  0  0
M  END
> <minimizedAffinity>
-5.51260

$$$$
4RIV_LSA_A_302


 13 14  0  0  0  0  0  0  0  0999 V2000
    0.5474    5.7362   84.3339 C   0  0  0  0  0  0  0  0  0  0  0  0
    0.6792    4.3633   84.5464 C   0  0  0  0  0  0  0  0  0  0  0  0
   -0.3165    3.7366   85.2708 C   0  0  0  0  0  0  0  0  0  0  0  0
   -2.3481    3.5243   86.5555 C   0  0  0  0  0  0  0  0  0  0  0  0
   -0.5399    6.4396   84.8384 C   0  0  0  0  0  0  0  0  0  0  0  0
   -0.4990    2.0762   85.7339 S   0  0  0  0  0  0  0  0  0  0  0  0
   -1.8610    2.1632   86.5508 N   0  0  0  0  0  0  0  0  0  0  0  0
   -3.4800    3.9670   87.1829 O   0  0  0  0  0  0  0  0  0  0  0  0
   -1.3986    4.4464   85.7733 C   0  0  0  0  0  0  0  0  0  0  0  0
   -1.5346    5.8063   85.5739 C   0  0  0  0  0  0  0  0  0  0  0  0
   -0.7064    1.1823   84.5808 O   0  0  0  0  0  0  0  0  0  0  0  0
    0.6204    1.6666   86.5786 O   0  0  0  0  0  0  0  0  0  0  0  0
   -2.3065    1.4023   86.9887 H   0  0  0  0  0  0  0  0  0  0  0  0
  1  2  2  0  0  0
  1  5  1  0  0  0
  2  3  1  0  0  0
  3  6  1  0  0  0
  3  9  2  0  0  0
  4  7  1  0  0  0
  4  8  2  0  0  0
  4  9  1  0  0  0
  5 10  2  0  0  0
  6  7  1  0  0  0
  6 11  2  0  0  0
  6 12  2  0  0  0
  9 10  1  0  0  0
  7 13  1  0  0  0
M  END
> <minimizedAffinity>
-5.39369

$$$$
