4IDO_GDP_A_501


 36 38  0  0  0  0  0  0  0  0999 V2000
  -22.8182    1.5703   41.5286 C   0  0  0  0  0  0  0  0  0  0  0  0
  -21.5263    1.0486   41.8191 O   0  0  0  0  0  0  0  0  0  0  0  0
  -22.7102    2.1536   40.1248 C   0  0  0  0  0  0  0  0  0  0  0  0
  -22.6751    3.5894   40.2156 O   0  0  0  0  0  0  0  0  0  0  0  0
  -21.3619    1.6895   39.5961 C   0  0  0  0  0  0  0  0  0  0  0  0
  -20.7481    2.6536   38.7502 O   0  0  0  0  0  0  0  0  0  0  0  0
  -20.5775    1.5987   40.8804 C   0  0  0  0  0  0  0  0  0  0  0  0
  -21.9326    3.8598   40.7782 H   0  0  0  0  0  0  0  0  0  0  0  0
  -20.6615    3.4938   39.2272 H   0  0  0  0  0  0  0  0  0  0  0  0
  -19.4987    0.6196   40.8415 N   0  0  0  0  0  0  0  0  0  0  0  0
  -19.1566   -0.2067   39.8298 C   0  0  0  0  0  0  0  0  0  0  0  0
  -18.1422   -1.0074   40.2402 N   0  0  0  0  0  0  0  0  0  0  0  0
  -17.8611   -0.6966   41.5303 C   0  0  0  0  0  0  0  0  0  0  0  0
  -16.9235   -1.1627   42.5659 C   0  0  0  0  0  0  0  0  0  0  0  0
  -16.1365   -2.0891   42.2863 O   0  0  0  0  0  0  0  0  0  0  0  0
  -16.9599   -0.5797   43.7885 N   0  0  0  0  0  0  0  0  0  0  0  0
  -17.8243    0.4110   44.0811 C   0  0  0  0  0  0  0  0  0  0  0  0
  -17.8147    0.9426   45.3181 N   0  0  0  0  0  0  0  0  0  0  0  0
  -18.7257    0.8827   43.1828 N   0  0  0  0  0  0  0  0  0  0  0  0
  -18.7759    0.3599   41.9268 C   0  0  0  0  0  0  0  0  0  0  0  0
  -16.3356   -0.8895   44.4839 H   0  0  0  0  0  0  0  0  0  0  0  0
  -17.1707    0.6180   45.9884 H   0  0  0  0  0  0  0  0  0  0  0  0
  -18.4517    1.6557   45.5524 H   0  0  0  0  0  0  0  0  0  0  0  0
  -23.8295    0.4409   41.6918 C   0  0  0  0  0  0  0  0  0  0  0  0
  -23.7884   -0.4268   40.5575 O   0  0  0  0  0  0  0  0  0  0  0  0
  -24.9259   -1.5438   40.3344 P   0  0  0  0  0  0  0  0  0  0  0  0
  -24.4082   -2.6138   39.4015 O   0  0  0  0  0  0  0  0  0  0  0  0
  -26.2269   -0.9703   39.8336 O   0  0  0  0  0  0  0  0  0  0  0  0
  -26.8721   -1.6853   39.7179 H   0  0  0  0  0  0  0  0  0  0  0  0
  -25.0361   -2.1498   41.8255 O   0  0  0  0  0  0  0  0  0  0  0  0
  -25.8356   -3.4928   42.2307 P   0  0  0  0  0  0  0  0  0  0  0  0
  -27.2672   -3.1846   42.6697 O   0  0  0  0  0  0  0  0  0  0  0  0
  -25.8042   -4.3677   41.0123 O   0  0  0  0  0  0  0  0  0  0  0  0
  -25.0532   -4.1088   43.3361 O   0  0  0  0  0  0  0  0  0  0  0  0
  -26.2732   -5.1964   41.1972 H   0  0  0  0  0  0  0  0  0  0  0  0
  -25.4886   -4.9264   43.6238 H   0  0  0  0  0  0  0  0  0  0  0  0
 31 32  2  0  0  0
 31 33  1  0  0  0
 31 34  1  0  0  0
 31 30  1  0  0  0
 30 26  1  0  0  0
 26 27  2  0  0  0
 26 28  1  0  0  0
 26 25  1  0  0  0
 25 24  1  0  0  0
 24  1  1  0  0  0
  1  2  1  0  0  0
  1  3  1  0  0  0
  2  7  1  0  0  0
  3  4  1  0  0  0
  3  5  1  0  0  0
  5  6  1  0  0  0
  5  7  1  0  0  0
  7 10  1  0  0  0
 10 11  1  0  0  0
 10 20  1  0  0  0
 11 12  2  0  0  0
 12 13  1  0  0  0
 13 14  1  0  0  0
 13 20  2  0  0  0
 14 15  2  0  0  0
 14 16  1  0  0  0
 16 17  1  0  0  0
 17 18  1  0  0  0
 17 19  2  0  0  0
 19 20  1  0  0  0
 33 35  1  0  0  0
 34 36  1  0  0  0
 28 29  1  0  0  0
  4  8  1  0  0  0
  6  9  1  0  0  0
 16 21  1  0  0  0
 18 22  1  0  0  0
 18 23  1  0  0  0
M  END
> <minimizedAffinity>
-13.20907

$$$$
4IDO_GDP_A_501


 36 38  0  0  0  0  0  0  0  0999 V2000
  -23.5390    0.2332   41.9352 C   0  0  0  0  0  0  0  0  0  0  0  0
  -22.2111   -0.2071   42.1964 O   0  0  0  0  0  0  0  0  0  0  0  0
  -23.3912    1.4180   40.9884 C   0  0  0  0  0  0  0  0  0  0  0  0
  -23.6415    2.6337   41.7167 O   0  0  0  0  0  0  0  0  0  0  0  0
  -21.9294    1.4215   40.5691 C   0  0  0  0  0  0  0  0  0  0  0  0
  -21.4223    2.7356   40.3747 O   0  0  0  0  0  0  0  0  0  0  0  0
  -21.2878    0.8287   41.7979 C   0  0  0  0  0  0  0  0  0  0  0  0
  -23.0306    2.6922   42.4679 H   0  0  0  0  0  0  0  0  0  0  0  0
  -21.5507    3.2547   41.1840 H   0  0  0  0  0  0  0  0  0  0  0  0
  -20.0440    0.1192   41.5265 N   0  0  0  0  0  0  0  0  0  0  0  0
  -19.5917   -0.3517   40.3446 C   0  0  0  0  0  0  0  0  0  0  0  0
  -18.4269   -1.0141   40.5522 N   0  0  0  0  0  0  0  0  0  0  0  0
  -18.1581   -0.9789   41.8813 C   0  0  0  0  0  0  0  0  0  0  0  0
  -17.1071   -1.4911   42.7768 C   0  0  0  0  0  0  0  0  0  0  0  0
  -16.1694   -2.1489   42.2830 O   0  0  0  0  0  0  0  0  0  0  0  0
  -17.2045   -1.2429   44.1053 N   0  0  0  0  0  0  0  0  0  0  0  0
  -18.2299   -0.5425   44.6271 C   0  0  0  0  0  0  0  0  0  0  0  0
  -18.2717   -0.3378   45.9572 N   0  0  0  0  0  0  0  0  0  0  0  0
  -19.2408   -0.0514   43.8663 N   0  0  0  0  0  0  0  0  0  0  0  0
  -19.2412   -0.2511   42.5195 C   0  0  0  0  0  0  0  0  0  0  0  0
  -16.5046   -1.5849   44.7074 H   0  0  0  0  0  0  0  0  0  0  0  0
  -17.5507   -0.6837   46.5314 H   0  0  0  0  0  0  0  0  0  0  0  0
  -19.0233    0.1578   46.3555 H   0  0  0  0  0  0  0  0  0  0  0  0
  -24.3274   -0.9501   41.3845 C   0  0  0  0  0  0  0  0  0  0  0  0
  -24.9926   -1.6375   42.4458 O   0  0  0  0  0  0  0  0  0  0  0  0
  -25.6808   -3.0707   42.1938 P   0  0  0  0  0  0  0  0  0  0  0  0
  -24.8350   -4.1551   42.8196 O   0  0  0  0  0  0  0  0  0  0  0  0
  -25.9362   -3.3552   40.7357 O   0  0  0  0  0  0  0  0  0  0  0  0
  -26.3499   -4.2277   40.6441 H   0  0  0  0  0  0  0  0  0  0  0  0
  -27.0374   -2.8974   43.0496 O   0  0  0  0  0  0  0  0  0  0  0  0
  -28.4145   -3.6990   42.7889 P   0  0  0  0  0  0  0  0  0  0  0  0
  -28.2240   -5.2084   42.9388 O   0  0  0  0  0  0  0  0  0  0  0  0
  -29.3940   -3.1604   43.7895 O   0  0  0  0  0  0  0  0  0  0  0  0
  -28.8318   -3.3428   41.4059 O   0  0  0  0  0  0  0  0  0  0  0  0
  -30.2474   -3.6084   43.6801 H   0  0  0  0  0  0  0  0  0  0  0  0
  -29.6606   -3.7985   41.1908 H   0  0  0  0  0  0  0  0  0  0  0  0
 31 32  2  0  0  0
 31 33  1  0  0  0
 31 34  1  0  0  0
 31 30  1  0  0  0
 30 26  1  0  0  0
 26 27  2  0  0  0
 26 28  1  0  0  0
 26 25  1  0  0  0
 25 24  1  0  0  0
 24  1  1  0  0  0
  1  2  1  0  0  0
  1  3  1  0  0  0
  2  7  1  0  0  0
  3  4  1  0  0  0
  3  5  1  0  0  0
  5  6  1  0  0  0
  5  7  1  0  0  0
  7 10  1  0  0  0
 10 11  1  0  0  0
 10 20  1  0  0  0
 11 12  2  0  0  0
 12 13  1  0  0  0
 13 14  1  0  0  0
 13 20  2  0  0  0
 14 15  2  0  0  0
 14 16  1  0  0  0
 16 17  1  0  0  0
 17 18  1  0  0  0
 17 19  2  0  0  0
 19 20  1  0  0  0
 33 35  1  0  0  0
 34 36  1  0  0  0
 28 29  1  0  0  0
  4  8  1  0  0  0
  6  9  1  0  0  0
 16 21  1  0  0  0
 18 22  1  0  0  0
 18 23  1  0  0  0
M  END
> <minimizedAffinity>
-12.93957

$$$$
4IDO_GDP_A_501


 36 38  0  0  0  0  0  0  0  0999 V2000
  -23.8390   -0.0030   41.0662 C   0  0  0  0  0  0  0  0  0  0  0  0
  -22.7704   -0.1058   42.0006 O   0  0  0  0  0  0  0  0  0  0  0  0
  -23.2206    0.6049   39.8131 C   0  0  0  0  0  0  0  0  0  0  0  0
  -23.6307    1.9804   39.7084 O   0  0  0  0  0  0  0  0  0  0  0  0
  -21.7189    0.5859   40.0524 C   0  0  0  0  0  0  0  0  0  0  0  0
  -21.0610    1.7040   39.4702 O   0  0  0  0  0  0  0  0  0  0  0  0
  -21.6762    0.7229   41.5532 C   0  0  0  0  0  0  0  0  0  0  0  0
  -23.3674    2.4583   40.5104 H   0  0  0  0  0  0  0  0  0  0  0  0
  -21.4544    2.5232   39.8092 H   0  0  0  0  0  0  0  0  0  0  0  0
  -20.4962    0.1240   42.1640 N   0  0  0  0  0  0  0  0  0  0  0  0
  -19.5775   -0.6829   41.5913 C   0  0  0  0  0  0  0  0  0  0  0  0
  -18.6868   -1.0745   42.5356 N   0  0  0  0  0  0  0  0  0  0  0  0
  -19.0643   -0.5267   43.7179 C   0  0  0  0  0  0  0  0  0  0  0  0
  -18.5841   -0.5444   45.1100 C   0  0  0  0  0  0  0  0  0  0  0  0
  -17.5679   -1.2142   45.3832 O   0  0  0  0  0  0  0  0  0  0  0  0
  -19.2713    0.1542   46.0457 N   0  0  0  0  0  0  0  0  0  0  0  0
  -20.3751    0.8626   45.7392 C   0  0  0  0  0  0  0  0  0  0  0  0
  -21.0169    1.5286   46.7178 N   0  0  0  0  0  0  0  0  0  0  0  0
  -20.8839    0.9146   44.4821 N   0  0  0  0  0  0  0  0  0  0  0  0
  -20.2715    0.2419   43.4691 C   0  0  0  0  0  0  0  0  0  0  0  0
  -18.9542    0.1437   46.9776 H   0  0  0  0  0  0  0  0  0  0  0  0
  -20.6684    1.5069   47.6383 H   0  0  0  0  0  0  0  0  0  0  0  0
  -21.8345    2.0372   46.5127 H   0  0  0  0  0  0  0  0  0  0  0  0
  -24.4448   -1.3910   40.8896 C   0  0  0  0  0  0  0  0  0  0  0  0
  -25.0546   -1.8226   42.1074 O   0  0  0  0  0  0  0  0  0  0  0  0
  -25.6936   -3.2949   42.2310 P   0  0  0  0  0  0  0  0  0  0  0  0
  -24.7858   -4.1724   43.0611 O   0  0  0  0  0  0  0  0  0  0  0  0
  -25.9847   -3.9266   40.8937 O   0  0  0  0  0  0  0  0  0  0  0  0
  -26.3665   -4.8080   41.0287 H   0  0  0  0  0  0  0  0  0  0  0  0
  -27.0274   -2.9640   43.0761 O   0  0  0  0  0  0  0  0  0  0  0  0
  -28.4338   -3.7461   42.9447 P   0  0  0  0  0  0  0  0  0  0  0  0
  -28.2346   -5.2617   42.9197 O   0  0  0  0  0  0  0  0  0  0  0  0
  -29.2519   -3.3126   44.1252 O   0  0  0  0  0  0  0  0  0  0  0  0
  -29.0468   -3.2619   41.6785 O   0  0  0  0  0  0  0  0  0  0  0  0
  -30.1154   -3.7537   44.0998 H   0  0  0  0  0  0  0  0  0  0  0  0
  -29.9016   -3.7004   41.5447 H   0  0  0  0  0  0  0  0  0  0  0  0
 31 32  2  0  0  0
 31 33  1  0  0  0
 31 34  1  0  0  0
 31 30  1  0  0  0
 30 26  1  0  0  0
 26 27  2  0  0  0
 26 28  1  0  0  0
 26 25  1  0  0  0
 25 24  1  0  0  0
 24  1  1  0  0  0
  1  2  1  0  0  0
  1  3  1  0  0  0
  2  7  1  0  0  0
  3  4  1  0  0  0
  3  5  1  0  0  0
  5  6  1  0  0  0
  5  7  1  0  0  0
  7 10  1  0  0  0
 10 11  1  0  0  0
 10 20  1  0  0  0
 11 12  2  0  0  0
 12 13  1  0  0  0
 13 14  1  0  0  0
 13 20  2  0  0  0
 14 15  2  0  0  0
 14 16  1  0  0  0
 16 17  1  0  0  0
 17 18  1  0  0  0
 17 19  2  0  0  0
 19 20  1  0  0  0
 33 35  1  0  0  0
 34 36  1  0  0  0
 28 29  1  0  0  0
  4  8  1  0  0  0
  6  9  1  0  0  0
 16 21  1  0  0  0
 18 22  1  0  0  0
 18 23  1  0  0  0
M  END
> <minimizedAffinity>
-12.63843

$$$$
4IDO_GDP_A_501


 36 38  0  0  0  0  0  0  0  0999 V2000
  -23.2836    1.7596   41.3790 C   0  0  0  0  0  0  0  0  0  0  0  0
  -22.2468    2.0470   42.3108 O   0  0  0  0  0  0  0  0  0  0  0  0
  -22.6323    1.8699   40.0057 C   0  0  0  0  0  0  0  0  0  0  0  0
  -23.0625    3.0925   39.3802 O   0  0  0  0  0  0  0  0  0  0  0  0
  -21.1398    1.9864   40.2735 C   0  0  0  0  0  0  0  0  0  0  0  0
  -20.4815    2.8225   39.3304 O   0  0  0  0  0  0  0  0  0  0  0  0
  -21.1523    2.6786   41.6128 C   0  0  0  0  0  0  0  0  0  0  0  0
  -22.8359    3.8442   39.9497 H   0  0  0  0  0  0  0  0  0  0  0  0
  -20.9009    3.6972   39.3256 H   0  0  0  0  0  0  0  0  0  0  0  0
  -19.9842    2.3881   42.4345 N   0  0  0  0  0  0  0  0  0  0  0  0
  -18.7895    1.8950   42.0437 C   0  0  0  0  0  0  0  0  0  0  0  0
  -18.0125    1.7061   43.1387 N   0  0  0  0  0  0  0  0  0  0  0  0
  -18.7356    2.0619   44.2299 C   0  0  0  0  0  0  0  0  0  0  0  0
  -18.5310    2.0951   45.6879 C   0  0  0  0  0  0  0  0  0  0  0  0
  -17.4364    1.7115   46.1467 O   0  0  0  0  0  0  0  0  0  0  0  0
  -19.5434    2.5260   46.4787 N   0  0  0  0  0  0  0  0  0  0  0  0
  -20.7254    2.9248   45.9708 C   0  0  0  0  0  0  0  0  0  0  0  0
  -21.6936    3.3342   46.8122 N   0  0  0  0  0  0  0  0  0  0  0  0
  -20.9910    2.9090   44.6400 N   0  0  0  0  0  0  0  0  0  0  0  0
  -20.0424    2.4872   43.7591 C   0  0  0  0  0  0  0  0  0  0  0  0
  -19.4110    2.5482   47.4540 H   0  0  0  0  0  0  0  0  0  0  0  0
  -21.5264    3.3549   47.7822 H   0  0  0  0  0  0  0  0  0  0  0  0
  -22.5687    3.6128   46.4574 H   0  0  0  0  0  0  0  0  0  0  0  0
  -23.8585    0.3897   41.7224 C   0  0  0  0  0  0  0  0  0  0  0  0
  -23.8463   -0.4542   40.5697 O   0  0  0  0  0  0  0  0  0  0  0  0
  -24.9702   -1.5890   40.3688 P   0  0  0  0  0  0  0  0  0  0  0  0
  -24.4365   -2.6753   39.4644 O   0  0  0  0  0  0  0  0  0  0  0  0
  -26.2753   -1.0424   39.8488 O   0  0  0  0  0  0  0  0  0  0  0  0
  -26.9120   -1.7671   39.7476 H   0  0  0  0  0  0  0  0  0  0  0  0
  -25.0805   -2.1600   41.8737 O   0  0  0  0  0  0  0  0  0  0  0  0
  -25.7188   -3.5843   42.2873 P   0  0  0  0  0  0  0  0  0  0  0  0
  -24.8232   -4.3379   43.2708 O   0  0  0  0  0  0  0  0  0  0  0  0
  -27.0591   -3.2710   42.8842 O   0  0  0  0  0  0  0  0  0  0  0  0
  -25.8774   -4.3389   41.0150 O   0  0  0  0  0  0  0  0  0  0  0  0
  -27.4936   -4.0953   43.1539 H   0  0  0  0  0  0  0  0  0  0  0  0
  -26.2600   -5.2106   41.2016 H   0  0  0  0  0  0  0  0  0  0  0  0
 31 32  2  0  0  0
 31 33  1  0  0  0
 31 34  1  0  0  0
 31 30  1  0  0  0
 30 26  1  0  0  0
 26 27  2  0  0  0
 26 28  1  0  0  0
 26 25  1  0  0  0
 25 24  1  0  0  0
 24  1  1  0  0  0
  1  2  1  0  0  0
  1  3  1  0  0  0
  2  7  1  0  0  0
  3  4  1  0  0  0
  3  5  1  0  0  0
  5  6  1  0  0  0
  5  7  1  0  0  0
  7 10  1  0  0  0
 10 11  1  0  0  0
 10 20  1  0  0  0
 11 12  2  0  0  0
 12 13  1  0  0  0
 13 14  1  0  0  0
 13 20  2  0  0  0
 14 15  2  0  0  0
 14 16  1  0  0  0
 16 17  1  0  0  0
 17 18  1  0  0  0
 17 19  2  0  0  0
 19 20  1  0  0  0
 33 35  1  0  0  0
 34 36  1  0  0  0
 28 29  1  0  0  0
  4  8  1  0  0  0
  6  9  1  0  0  0
 16 21  1  0  0  0
 18 22  1  0  0  0
 18 23  1  0  0  0
M  END
> <minimizedAffinity>
-12.08427

$$$$
4IDO_GDP_A_501


 36 38  0  0  0  0  0  0  0  0999 V2000
  -21.4515    0.6192   39.7241 C   0  0  0  0  0  0  0  0  0  0  0  0
  -21.7509    1.4727   40.8230 O   0  0  0  0  0  0  0  0  0  0  0  0
  -20.3430   -0.3014   40.2199 C   0  0  0  0  0  0  0  0  0  0  0  0
  -19.0962    0.1054   39.6273 O   0  0  0  0  0  0  0  0  0  0  0  0
  -20.2480   -0.0510   41.7170 C   0  0  0  0  0  0  0  0  0  0  0  0
  -18.9160   -0.1580   42.2031 O   0  0  0  0  0  0  0  0  0  0  0  0
  -20.6763    1.3930   41.7837 C   0  0  0  0  0  0  0  0  0  0  0  0
  -18.9213    1.0338   39.8472 H   0  0  0  0  0  0  0  0  0  0  0  0
  -18.3432    0.4530   41.7137 H   0  0  0  0  0  0  0  0  0  0  0  0
  -21.2955    1.7637   43.0499 N   0  0  0  0  0  0  0  0  0  0  0  0
  -22.6055    1.9563   43.3144 C   0  0  0  0  0  0  0  0  0  0  0  0
  -22.7387    2.3645   44.6006 N   0  0  0  0  0  0  0  0  0  0  0  0
  -21.4977    2.4518   45.1413 C   0  0  0  0  0  0  0  0  0  0  0  0
  -20.9183    2.8341   46.4401 C   0  0  0  0  0  0  0  0  0  0  0  0
  -21.6865    3.1928   47.3550 O   0  0  0  0  0  0  0  0  0  0  0  0
  -19.5721    2.7974   46.5897 N   0  0  0  0  0  0  0  0  0  0  0  0
  -18.7530    2.4208   45.5888 C   0  0  0  0  0  0  0  0  0  0  0  0
  -17.4233    2.4139   45.8001 N   0  0  0  0  0  0  0  0  0  0  0  0
  -19.2135    2.0683   44.3618 N   0  0  0  0  0  0  0  0  0  0  0  0
  -20.5505    2.0777   44.1054 C   0  0  0  0  0  0  0  0  0  0  0  0
  -19.1808    3.0536   47.4560 H   0  0  0  0  0  0  0  0  0  0  0  0
  -17.0636    2.6654   46.6814 H   0  0  0  0  0  0  0  0  0  0  0  0
  -16.8107    2.1572   45.0734 H   0  0  0  0  0  0  0  0  0  0  0  0
  -22.7413   -0.0771   39.3039 C   0  0  0  0  0  0  0  0  0  0  0  0
  -23.4843   -0.4782   40.4565 O   0  0  0  0  0  0  0  0  0  0  0  0
  -24.7677   -1.4394   40.3146 P   0  0  0  0  0  0  0  0  0  0  0  0
  -24.4744   -2.5303   39.3112 O   0  0  0  0  0  0  0  0  0  0  0  0
  -26.0270   -0.6938   39.9531 O   0  0  0  0  0  0  0  0  0  0  0  0
  -26.7643   -1.3201   39.8814 H   0  0  0  0  0  0  0  0  0  0  0  0
  -24.8171   -2.0805   41.7942 O   0  0  0  0  0  0  0  0  0  0  0  0
  -25.6570   -3.3936   42.2151 P   0  0  0  0  0  0  0  0  0  0  0  0
  -26.9918   -3.0242   42.8624 O   0  0  0  0  0  0  0  0  0  0  0  0
  -25.8507   -4.1753   40.9493 O   0  0  0  0  0  0  0  0  0  0  0  0
  -24.7868   -4.1413   43.1625 O   0  0  0  0  0  0  0  0  0  0  0  0
  -26.3534   -4.9823   41.1414 H   0  0  0  0  0  0  0  0  0  0  0  0
  -25.2422   -4.9473   43.4524 H   0  0  0  0  0  0  0  0  0  0  0  0
 31 32  2  0  0  0
 31 33  1  0  0  0
 31 34  1  0  0  0
 31 30  1  0  0  0
 30 26  1  0  0  0
 26 27  2  0  0  0
 26 28  1  0  0  0
 26 25  1  0  0  0
 25 24  1  0  0  0
 24  1  1  0  0  0
  1  2  1  0  0  0
  1  3  1  0  0  0
  2  7  1  0  0  0
  3  4  1  0  0  0
  3  5  1  0  0  0
  5  6  1  0  0  0
  5  7  1  0  0  0
  7 10  1  0  0  0
 10 11  1  0  0  0
 10 20  1  0  0  0
 11 12  2  0  0  0
 12 13  1  0  0  0
 13 14  1  0  0  0
 13 20  2  0  0  0
 14 15  2  0  0  0
 14 16  1  0  0  0
 16 17  1  0  0  0
 17 18  1  0  0  0
 17 19  2  0  0  0
 19 20  1  0  0  0
 33 35  1  0  0  0
 34 36  1  0  0  0
 28 29  1  0  0  0
  4  8  1  0  0  0
  6  9  1  0  0  0
 16 21  1  0  0  0
 18 22  1  0  0  0
 18 23  1  0  0  0
M  END
> <minimizedAffinity>
-11.90101

$$$$
4IDO_GDP_A_501


 36 38  0  0  0  0  0  0  0  0999 V2000
  -23.6790    0.4185   42.4522 C   0  0  0  0  0  0  0  0  0  0  0  0
  -22.3212    0.1867   42.8102 O   0  0  0  0  0  0  0  0  0  0  0  0
  -23.8199    1.9335   42.3678 C   0  0  0  0  0  0  0  0  0  0  0  0
  -24.5428    2.4018   43.5207 O   0  0  0  0  0  0  0  0  0  0  0  0
  -22.4025    2.4776   42.4570 C   0  0  0  0  0  0  0  0  0  0  0  0
  -22.3392    3.7205   43.1447 O   0  0  0  0  0  0  0  0  0  0  0  0
  -21.7519    1.4165   43.3078 C   0  0  0  0  0  0  0  0  0  0  0  0
  -24.0795    2.1256   44.3269 H   0  0  0  0  0  0  0  0  0  0  0  0
  -22.7274    3.6214   44.0281 H   0  0  0  0  0  0  0  0  0  0  0  0
  -20.3206    1.2726   43.0741 N   0  0  0  0  0  0  0  0  0  0  0  0
  -19.6998    0.6168   42.0703 C   0  0  0  0  0  0  0  0  0  0  0  0
  -18.3603    0.6676   42.2743 N   0  0  0  0  0  0  0  0  0  0  0  0
  -18.1396    1.3418   43.4306 C   0  0  0  0  0  0  0  0  0  0  0  0
  -16.9712    1.7388   44.2343 C   0  0  0  0  0  0  0  0  0  0  0  0
  -15.8342    1.4158   43.8359 O   0  0  0  0  0  0  0  0  0  0  0  0
  -17.1739    2.4264   45.3840 N   0  0  0  0  0  0  0  0  0  0  0  0
  -18.4084    2.7572   45.8094 C   0  0  0  0  0  0  0  0  0  0  0  0
  -18.5416    3.4343   46.9655 N   0  0  0  0  0  0  0  0  0  0  0  0
  -19.5315    2.4140   45.1292 N   0  0  0  0  0  0  0  0  0  0  0  0
  -19.4379    1.7159   43.9641 C   0  0  0  0  0  0  0  0  0  0  0  0
  -16.3954    2.6924   45.9248 H   0  0  0  0  0  0  0  0  0  0  0  0
  -17.7426    3.6951   47.4781 H   0  0  0  0  0  0  0  0  0  0  0  0
  -19.4381    3.6687   47.2982 H   0  0  0  0  0  0  0  0  0  0  0  0
  -23.9604   -0.3379   41.1586 C   0  0  0  0  0  0  0  0  0  0  0  0
  -24.7357   -1.5072   41.4286 O   0  0  0  0  0  0  0  0  0  0  0  0
  -25.3470   -2.3850   40.2256 P   0  0  0  0  0  0  0  0  0  0  0  0
  -24.3191   -2.5226   39.1267 O   0  0  0  0  0  0  0  0  0  0  0  0
  -26.6431   -1.8321   39.6903 O   0  0  0  0  0  0  0  0  0  0  0  0
  -26.9636   -2.3985   38.9709 H   0  0  0  0  0  0  0  0  0  0  0  0
  -25.5256   -3.8080   40.9644 O   0  0  0  0  0  0  0  0  0  0  0  0
  -26.0474   -4.0149   42.4783 P   0  0  0  0  0  0  0  0  0  0  0  0
  -24.8916   -4.2976   43.4382 O   0  0  0  0  0  0  0  0  0  0  0  0
  -26.7697   -2.7495   42.8358 O   0  0  0  0  0  0  0  0  0  0  0  0
  -26.9958   -5.1600   42.4241 O   0  0  0  0  0  0  0  0  0  0  0  0
  -27.1085   -2.8157   43.7423 H   0  0  0  0  0  0  0  0  0  0  0  0
  -27.3451   -5.3328   43.3124 H   0  0  0  0  0  0  0  0  0  0  0  0
 31 32  2  0  0  0
 31 33  1  0  0  0
 31 34  1  0  0  0
 31 30  1  0  0  0
 30 26  1  0  0  0
 26 27  2  0  0  0
 26 28  1  0  0  0
 26 25  1  0  0  0
 25 24  1  0  0  0
 24  1  1  0  0  0
  1  2  1  0  0  0
  1  3  1  0  0  0
  2  7  1  0  0  0
  3  4  1  0  0  0
  3  5  1  0  0  0
  5  6  1  0  0  0
  5  7  1  0  0  0
  7 10  1  0  0  0
 10 11  1  0  0  0
 10 20  1  0  0  0
 11 12  2  0  0  0
 12 13  1  0  0  0
 13 14  1  0  0  0
 13 20  2  0  0  0
 14 15  2  0  0  0
 14 16  1  0  0  0
 16 17  1  0  0  0
 17 18  1  0  0  0
 17 19  2  0  0  0
 19 20  1  0  0  0
 33 35  1  0  0  0
 34 36  1  0  0  0
 28 29  1  0  0  0
  4  8  1  0  0  0
  6  9  1  0  0  0
 16 21  1  0  0  0
 18 22  1  0  0  0
 18 23  1  0  0  0
M  END
> <minimizedAffinity>
-11.67150

$$$$
4IDO_GDP_A_501


 36 38  0  0  0  0  0  0  0  0999 V2000
  -23.5298    1.5573   41.7541 C   0  0  0  0  0  0  0  0  0  0  0  0
  -22.9010    2.1012   42.9092 O   0  0  0  0  0  0  0  0  0  0  0  0
  -22.4945    1.6701   40.6416 C   0  0  0  0  0  0  0  0  0  0  0  0
  -22.8724    2.7404   39.7568 O   0  0  0  0  0  0  0  0  0  0  0  0
  -21.2009    2.0741   41.3317 C   0  0  0  0  0  0  0  0  0  0  0  0
  -20.4023    2.9350   40.5298 O   0  0  0  0  0  0  0  0  0  0  0  0
  -21.7435    2.8599   42.4984 C   0  0  0  0  0  0  0  0  0  0  0  0
  -22.9522    3.5646   40.2620 H   0  0  0  0  0  0  0  0  0  0  0  0
  -20.9196    3.7168   40.2806 H   0  0  0  0  0  0  0  0  0  0  0  0
  -20.8730    2.8519   43.6672 N   0  0  0  0  0  0  0  0  0  0  0  0
  -20.9663    3.6057   44.7836 C   0  0  0  0  0  0  0  0  0  0  0  0
  -19.9090    3.3333   45.5876 N   0  0  0  0  0  0  0  0  0  0  0  0
  -19.1317    2.4167   44.9584 C   0  0  0  0  0  0  0  0  0  0  0  0
  -17.8689    1.7111   45.2344 C   0  0  0  0  0  0  0  0  0  0  0  0
  -17.2719    1.9500   46.3032 O   0  0  0  0  0  0  0  0  0  0  0  0
  -17.3935    0.8402   44.3116 N   0  0  0  0  0  0  0  0  0  0  0  0
  -18.0417    0.6016   43.1552 C   0  0  0  0  0  0  0  0  0  0  0  0
  -17.5112   -0.2698   42.2765 N   0  0  0  0  0  0  0  0  0  0  0  0
  -19.2020    1.2240   42.8266 N   0  0  0  0  0  0  0  0  0  0  0  0
  -19.7612    2.1229   43.6827 C   0  0  0  0  0  0  0  0  0  0  0  0
  -16.5489    0.3676   44.4918 H   0  0  0  0  0  0  0  0  0  0  0  0
  -16.6702   -0.7346   42.4908 H   0  0  0  0  0  0  0  0  0  0  0  0
  -17.9644   -0.4423   41.4197 H   0  0  0  0  0  0  0  0  0  0  0  0
  -23.9803    0.1392   42.0872 C   0  0  0  0  0  0  0  0  0  0  0  0
  -23.8331   -0.7070   40.9455 O   0  0  0  0  0  0  0  0  0  0  0  0
  -25.0090   -1.7178   40.5134 P   0  0  0  0  0  0  0  0  0  0  0  0
  -24.4555   -2.7679   39.5785 O   0  0  0  0  0  0  0  0  0  0  0  0
  -26.1951   -1.0172   39.9013 O   0  0  0  0  0  0  0  0  0  0  0  0
  -26.8692   -1.6721   39.6613 H   0  0  0  0  0  0  0  0  0  0  0  0
  -25.3448   -2.4000   41.9363 O   0  0  0  0  0  0  0  0  0  0  0  0
  -26.3568   -3.6376   42.1626 P   0  0  0  0  0  0  0  0  0  0  0  0
  -26.4491   -4.0264   43.6383 O   0  0  0  0  0  0  0  0  0  0  0  0
  -27.6812   -3.1835   41.6237 O   0  0  0  0  0  0  0  0  0  0  0  0
  -25.8153   -4.7553   41.3434 O   0  0  0  0  0  0  0  0  0  0  0  0
  -28.3349   -3.8917   41.7332 H   0  0  0  0  0  0  0  0  0  0  0  0
  -26.3865   -5.5333   41.4399 H   0  0  0  0  0  0  0  0  0  0  0  0
 31 32  2  0  0  0
 31 33  1  0  0  0
 31 34  1  0  0  0
 31 30  1  0  0  0
 30 26  1  0  0  0
 26 27  2  0  0  0
 26 28  1  0  0  0
 26 25  1  0  0  0
 25 24  1  0  0  0
 24  1  1  0  0  0
  1  2  1  0  0  0
  1  3  1  0  0  0
  2  7  1  0  0  0
  3  4  1  0  0  0
  3  5  1  0  0  0
  5  6  1  0  0  0
  5  7  1  0  0  0
  7 10  1  0  0  0
 10 11  1  0  0  0
 10 20  1  0  0  0
 11 12  2  0  0  0
 12 13  1  0  0  0
 13 14  1  0  0  0
 13 20  2  0  0  0
 14 15  2  0  0  0
 14 16  1  0  0  0
 16 17  1  0  0  0
 17 18  1  0  0  0
 17 19  2  0  0  0
 19 20  1  0  0  0
 33 35  1  0  0  0
 34 36  1  0  0  0
 28 29  1  0  0  0
  4  8  1  0  0  0
  6  9  1  0  0  0
 16 21  1  0  0  0
 18 22  1  0  0  0
 18 23  1  0  0  0
M  END
> <minimizedAffinity>
-11.41450

$$$$
4IDO_GDP_A_501


 36 38  0  0  0  0  0  0  0  0999 V2000
  -23.2875    0.7583   41.9592 C   0  0  0  0  0  0  0  0  0  0  0  0
  -22.4029    0.0220   42.7963 O   0  0  0  0  0  0  0  0  0  0  0  0
  -22.7174    2.1709   41.9151 C   0  0  0  0  0  0  0  0  0  0  0  0
  -23.5357    3.0318   42.7278 O   0  0  0  0  0  0  0  0  0  0  0  0
  -21.3492    2.0761   42.5723 C   0  0  0  0  0  0  0  0  0  0  0  0
  -21.0140    3.2492   43.3026 O   0  0  0  0  0  0  0  0  0  0  0  0
  -21.5868    0.9485   43.5445 C   0  0  0  0  0  0  0  0  0  0  0  0
  -23.5717    2.6840   43.6326 H   0  0  0  0  0  0  0  0  0  0  0  0
  -21.7025    3.4272   43.9623 H   0  0  0  0  0  0  0  0  0  0  0  0
  -20.3852    0.1906   43.8695 N   0  0  0  0  0  0  0  0  0  0  0  0
  -19.9258   -0.1648   45.0884 C   0  0  0  0  0  0  0  0  0  0  0  0
  -18.7352   -0.7968   44.9423 N   0  0  0  0  0  0  0  0  0  0  0  0
  -18.4330   -0.8170   43.6200 C   0  0  0  0  0  0  0  0  0  0  0  0
  -17.3279   -1.3086   42.7799 C   0  0  0  0  0  0  0  0  0  0  0  0
  -16.3603   -1.8688   43.3328 O   0  0  0  0  0  0  0  0  0  0  0  0
  -17.3947   -1.1213   41.4396 N   0  0  0  0  0  0  0  0  0  0  0  0
  -18.4396   -0.5026   40.8568 C   0  0  0  0  0  0  0  0  0  0  0  0
  -18.4407   -0.3410   39.5201 N   0  0  0  0  0  0  0  0  0  0  0  0
  -19.4865   -0.0118   41.5672 N   0  0  0  0  0  0  0  0  0  0  0  0
  -19.5138   -0.1426   42.9221 C   0  0  0  0  0  0  0  0  0  0  0  0
  -16.6572   -1.4473   40.8747 H   0  0  0  0  0  0  0  0  0  0  0  0
  -17.6931   -0.6878   38.9817 H   0  0  0  0  0  0  0  0  0  0  0  0
  -19.1893    0.1240   39.0811 H   0  0  0  0  0  0  0  0  0  0  0  0
  -23.3681    0.0431   40.6150 C   0  0  0  0  0  0  0  0  0  0  0  0
  -24.7279   -0.2573   40.2959 O   0  0  0  0  0  0  0  0  0  0  0  0
  -25.2259   -1.7829   40.1704 P   0  0  0  0  0  0  0  0  0  0  0  0
  -24.2670   -2.5579   39.2968 O   0  0  0  0  0  0  0  0  0  0  0  0
  -26.6403   -1.9028   39.6629 O   0  0  0  0  0  0  0  0  0  0  0  0
  -26.8857   -2.8396   39.6077 H   0  0  0  0  0  0  0  0  0  0  0  0
  -25.0609   -2.2704   41.6993 O   0  0  0  0  0  0  0  0  0  0  0  0
  -25.7267   -3.5979   42.3330 P   0  0  0  0  0  0  0  0  0  0  0  0
  -24.8413   -4.2074   43.4201 O   0  0  0  0  0  0  0  0  0  0  0  0
  -27.0565   -3.1659   42.8768 O   0  0  0  0  0  0  0  0  0  0  0  0
  -25.9087   -4.5391   41.1952 O   0  0  0  0  0  0  0  0  0  0  0  0
  -27.5067   -3.9280   43.2735 H   0  0  0  0  0  0  0  0  0  0  0  0
  -26.3085   -5.3622   41.5172 H   0  0  0  0  0  0  0  0  0  0  0  0
 31 32  2  0  0  0
 31 33  1  0  0  0
 31 34  1  0  0  0
 31 30  1  0  0  0
 30 26  1  0  0  0
 26 27  2  0  0  0
 26 28  1  0  0  0
 26 25  1  0  0  0
 25 24  1  0  0  0
 24  1  1  0  0  0
  1  2  1  0  0  0
  1  3  1  0  0  0
  2  7  1  0  0  0
  3  4  1  0  0  0
  3  5  1  0  0  0
  5  6  1  0  0  0
  5  7  1  0  0  0
  7 10  1  0  0  0
 10 11  1  0  0  0
 10 20  1  0  0  0
 11 12  2  0  0  0
 12 13  1  0  0  0
 13 14  1  0  0  0
 13 20  2  0  0  0
 14 15  2  0  0  0
 14 16  1  0  0  0
 16 17  1  0  0  0
 17 18  1  0  0  0
 17 19  2  0  0  0
 19 20  1  0  0  0
 33 35  1  0  0  0
 34 36  1  0  0  0
 28 29  1  0  0  0
  4  8  1  0  0  0
  6  9  1  0  0  0
 16 21  1  0  0  0
 18 22  1  0  0  0
 18 23  1  0  0  0
M  END
> <minimizedAffinity>
-11.37193

$$$$
4IDO_GDP_A_501


 36 38  0  0  0  0  0  0  0  0999 V2000
  -19.5221    0.6418   40.3029 C   0  0  0  0  0  0  0  0  0  0  0  0
  -18.8088    1.4199   41.2575 O   0  0  0  0  0  0  0  0  0  0  0  0
  -19.4486   -0.7912   40.8162 C   0  0  0  0  0  0  0  0  0  0  0  0
  -18.5132   -1.5301   40.0099 O   0  0  0  0  0  0  0  0  0  0  0  0
  -18.8717   -0.6896   42.2197 C   0  0  0  0  0  0  0  0  0  0  0  0
  -18.0421   -1.7966   42.5483 O   0  0  0  0  0  0  0  0  0  0  0  0
  -18.0099    0.5392   42.0762 C   0  0  0  0  0  0  0  0  0  0  0  0
  -17.6482   -1.0919   40.0346 H   0  0  0  0  0  0  0  0  0  0  0  0
  -17.3350   -1.8777   41.8892 H   0  0  0  0  0  0  0  0  0  0  0  0
  -17.8230    1.2737   43.3210 N   0  0  0  0  0  0  0  0  0  0  0  0
  -16.6677    1.5468   43.9644 C   0  0  0  0  0  0  0  0  0  0  0  0
  -16.9519    2.1872   45.1253 N   0  0  0  0  0  0  0  0  0  0  0  0
  -18.3006    2.2957   45.2226 C   0  0  0  0  0  0  0  0  0  0  0  0
  -19.2654    2.8424   46.1916 C   0  0  0  0  0  0  0  0  0  0  0  0
  -18.8310    3.3644   47.2379 O   0  0  0  0  0  0  0  0  0  0  0  0
  -20.5892    2.7452   45.9194 N   0  0  0  0  0  0  0  0  0  0  0  0
  -21.0451    2.1668   44.7916 C   0  0  0  0  0  0  0  0  0  0  0  0
  -22.3736    2.0949   44.5850 N   0  0  0  0  0  0  0  0  0  0  0  0
  -20.2170    1.6295   43.8602 N   0  0  0  0  0  0  0  0  0  0  0  0
  -18.8682    1.6695   44.0411 C   0  0  0  0  0  0  0  0  0  0  0  0
  -21.2373    3.1082   46.5654 H   0  0  0  0  0  0  0  0  0  0  0  0
  -22.9959    2.4770   45.2454 H   0  0  0  0  0  0  0  0  0  0  0  0
  -22.7228    1.6603   43.7736 H   0  0  0  0  0  0  0  0  0  0  0  0
  -20.9271    1.2211   40.1789 C   0  0  0  0  0  0  0  0  0  0  0  0
  -21.9032    0.1990   40.3881 O   0  0  0  0  0  0  0  0  0  0  0  0
  -23.2023    0.4756   41.2975 P   0  0  0  0  0  0  0  0  0  0  0  0
  -23.3635    1.9628   41.5105 O   0  0  0  0  0  0  0  0  0  0  0  0
  -23.1705   -0.2606   42.6126 O   0  0  0  0  0  0  0  0  0  0  0  0
  -23.9741   -0.0575   43.1164 H   0  0  0  0  0  0  0  0  0  0  0  0
  -24.3662   -0.0469   40.3101 O   0  0  0  0  0  0  0  0  0  0  0  0
  -25.0086   -1.5281   40.3258 P   0  0  0  0  0  0  0  0  0  0  0  0
  -24.2143   -2.4952   39.4478 O   0  0  0  0  0  0  0  0  0  0  0  0
  -25.0091   -1.9558   41.7639 O   0  0  0  0  0  0  0  0  0  0  0  0
  -26.4016   -1.3680   39.8283 O   0  0  0  0  0  0  0  0  0  0  0  0
  -25.3871   -2.8462   41.8363 H   0  0  0  0  0  0  0  0  0  0  0  0
  -26.8416   -2.2323   39.8153 H   0  0  0  0  0  0  0  0  0  0  0  0
 31 32  2  0  0  0
 31 33  1  0  0  0
 31 34  1  0  0  0
 31 30  1  0  0  0
 30 26  1  0  0  0
 26 27  2  0  0  0
 26 28  1  0  0  0
 26 25  1  0  0  0
 25 24  1  0  0  0
 24  1  1  0  0  0
  1  2  1  0  0  0
  1  3  1  0  0  0
  2  7  1  0  0  0
  3  4  1  0  0  0
  3  5  1  0  0  0
  5  6  1  0  0  0
  5  7  1  0  0  0
  7 10  1  0  0  0
 10 11  1  0  0  0
 10 20  1  0  0  0
 11 12  2  0  0  0
 12 13  1  0  0  0
 13 14  1  0  0  0
 13 20  2  0  0  0
 14 15  2  0  0  0
 14 16  1  0  0  0
 16 17  1  0  0  0
 17 18  1  0  0  0
 17 19  2  0  0  0
 19 20  1  0  0  0
 33 35  1  0  0  0
 34 36  1  0  0  0
 28 29  1  0  0  0
  4  8  1  0  0  0
  6  9  1  0  0  0
 16 21  1  0  0  0
 18 22  1  0  0  0
 18 23  1  0  0  0
M  END
> <minimizedAffinity>
-10.71452

$$$$
4IDO_GDP_A_501


 36 38  0  0  0  0  0  0  0  0999 V2000
  -21.9739    3.0567   43.1719 C   0  0  0  0  0  0  0  0  0  0  0  0
  -21.0425    2.6372   42.1809 O   0  0  0  0  0  0  0  0  0  0  0  0
  -22.8398    1.8346   43.4532 C   0  0  0  0  0  0  0  0  0  0  0  0
  -24.1298    2.0243   42.8441 O   0  0  0  0  0  0  0  0  0  0  0  0
  -22.1550    0.6799   42.7387 C   0  0  0  0  0  0  0  0  0  0  0  0
  -23.0818   -0.2679   42.2244 O   0  0  0  0  0  0  0  0  0  0  0  0
  -21.5139    1.4094   41.5855 C   0  0  0  0  0  0  0  0  0  0  0  0
  -24.0187    2.1780   41.8928 H   0  0  0  0  0  0  0  0  0  0  0  0
  -23.7088    0.1798   41.6351 H   0  0  0  0  0  0  0  0  0  0  0  0
  -20.3074    0.7657   41.0816 N   0  0  0  0  0  0  0  0  0  0  0  0
  -19.8635    0.7033   39.8079 C   0  0  0  0  0  0  0  0  0  0  0  0
  -18.7407   -0.0558   39.7704 N   0  0  0  0  0  0  0  0  0  0  0  0
  -18.4910   -0.4939   41.0298 C   0  0  0  0  0  0  0  0  0  0  0  0
  -17.4842   -1.3415   41.6905 C   0  0  0  0  0  0  0  0  0  0  0  0
  -16.5768   -1.8429   40.9968 O   0  0  0  0  0  0  0  0  0  0  0  0
  -17.5883   -1.5586   43.0239 N   0  0  0  0  0  0  0  0  0  0  0  0
  -18.5812   -1.0218   43.7588 C   0  0  0  0  0  0  0  0  0  0  0  0
  -18.6324   -1.2833   45.0786 N   0  0  0  0  0  0  0  0  0  0  0  0
  -19.5514   -0.2424   43.2172 N   0  0  0  0  0  0  0  0  0  0  0  0
  -19.5419    0.0320   41.8837 C   0  0  0  0  0  0  0  0  0  0  0  0
  -16.9180   -2.1259   43.4690 H   0  0  0  0  0  0  0  0  0  0  0  0
  -17.9407   -1.8460   45.4961 H   0  0  0  0  0  0  0  0  0  0  0  0
  -19.3614   -0.9120   45.6261 H   0  0  0  0  0  0  0  0  0  0  0  0
  -21.1855    3.5884   44.3638 C   0  0  0  0  0  0  0  0  0  0  0  0
  -20.0007    2.8139   44.5575 O   0  0  0  0  0  0  0  0  0  0  0  0
  -19.3435    2.6671   46.0197 P   0  0  0  0  0  0  0  0  0  0  0  0
  -18.7173    1.2990   46.1579 O   0  0  0  0  0  0  0  0  0  0  0  0
  -20.3213    2.9317   47.1360 O   0  0  0  0  0  0  0  0  0  0  0  0
  -19.8726    2.8295   47.9899 H   0  0  0  0  0  0  0  0  0  0  0  0
  -18.1761    3.7768   45.9275 O   0  0  0  0  0  0  0  0  0  0  0  0
  -17.0189    4.0081   47.0295 P   0  0  0  0  0  0  0  0  0  0  0  0
  -16.0919    5.1593   46.6388 O   0  0  0  0  0  0  0  0  0  0  0  0
  -17.7347    4.2841   48.3188 O   0  0  0  0  0  0  0  0  0  0  0  0
  -16.2765    2.7212   47.1097 O   0  0  0  0  0  0  0  0  0  0  0  0
  -17.0852    4.4324   49.0239 H   0  0  0  0  0  0  0  0  0  0  0  0
  -15.5625    2.7999   47.7616 H   0  0  0  0  0  0  0  0  0  0  0  0
 31 32  2  0  0  0
 31 33  1  0  0  0
 31 34  1  0  0  0
 31 30  1  0  0  0
 30 26  1  0  0  0
 26 27  2  0  0  0
 26 28  1  0  0  0
 26 25  1  0  0  0
 25 24  1  0  0  0
 24  1  1  0  0  0
  1  2  1  0  0  0
  1  3  1  0  0  0
  2  7  1  0  0  0
  3  4  1  0  0  0
  3  5  1  0  0  0
  5  6  1  0  0  0
  5  7  1  0  0  0
  7 10  1  0  0  0
 10 11  1  0  0  0
 10 20  1  0  0  0
 11 12  2  0  0  0
 12 13  1  0  0  0
 13 14  1  0  0  0
 13 20  2  0  0  0
 14 15  2  0  0  0
 14 16  1  0  0  0
 16 17  1  0  0  0
 17 18  1  0  0  0
 17 19  2  0  0  0
 19 20  1  0  0  0
 33 35  1  0  0  0
 34 36  1  0  0  0
 28 29  1  0  0  0
  4  8  1  0  0  0
  6  9  1  0  0  0
 16 21  1  0  0  0
 18 22  1  0  0  0
 18 23  1  0  0  0
M  END
> <minimizedAffinity>
-10.63635

$$$$
