4IDO_GDP_A_501
  RCSB PDB12061712593D
Coordinates from PDB:4IDO:A:501 Model:1 without hydrogens
 28 30  0  0  0  0            999 V2000
  -25.6840   -3.6380   42.1840   P 0  0  0  0  0  0  0  0  0  0  0  0
  -26.1410   -4.4380   40.9640   O 0  0  0  0  0  0  0  0  0  0  0  0
  -24.7740   -4.4410   43.0660   O 0  0  0  0  0  0  0  0  0  0  0  0
  -26.8460   -3.1270   42.9600   O 0  0  0  0  0  0  0  0  0  0  0  0
  -24.8370   -2.3320   41.7550   O 0  0  0  0  0  0  0  0  0  0  0  0
  -24.7340   -1.7370   40.2590   P 0  0  0  0  0  0  0  0  0  0  0  0
  -24.0710   -2.7580   39.3640   O 0  0  0  0  0  0  0  0  0  0  0  0
  -26.0680   -1.3110   39.7010   O 0  0  0  0  0  0  0  0  0  0  0  0
  -23.7300   -0.5030   40.5050   O 0  0  0  0  0  0  0  0  0  0  0  0
  -23.8490    0.3140   41.6710   C 0  0  0  0  0  0  0  0  0  0  0  0
  -22.8160    1.4350   41.6370   C 0  0  0  0  0  0  0  0  0  0  0  0
  -21.5410    0.8660   41.9130   O 0  0  0  0  0  0  0  0  0  0  0  0
  -22.6600    2.1400   40.2950   C 0  0  0  0  0  0  0  0  0  0  0  0
  -22.6050    3.5610   40.5160   O 0  0  0  0  0  0  0  0  0  0  0  0
  -21.3050    1.7010   39.7620   C 0  0  0  0  0  0  0  0  0  0  0  0
  -20.6530    2.7260   39.0230   O 0  0  0  0  0  0  0  0  0  0  0  0
  -20.5580    1.4810   41.0530   C 0  0  0  0  0  0  0  0  0  0  0  0
  -19.4940    0.4900   40.9540   N 0  0  0  0  0  0  0  0  0  0  0  0
  -19.3630   -0.5080   40.0540   C 0  0  0  0  0  0  0  0  0  0  0  0
  -18.2680   -1.2430   40.3690   N 0  0  0  0  0  0  0  0  0  0  0  0
  -17.7200   -0.7150   41.4920   C 0  0  0  0  0  0  0  0  0  0  0  0
  -16.5710   -1.0090   42.3650   C 0  0  0  0  0  0  0  0  0  0  0  0
  -15.8450   -1.9850   42.0890   O 0  0  0  0  0  0  0  0  0  0  0  0
  -16.3530   -0.2190   43.4440   N 0  0  0  0  0  0  0  0  0  0  0  0
  -17.1530    0.8240   43.7380   C 0  0  0  0  0  0  0  0  0  0  0  0
  -16.8860    1.5650   44.8300   N 0  0  0  0  0  0  0  0  0  0  0  0
  -18.2370    1.1470   42.9880   N 0  0  0  0  0  0  0  0  0  0  0  0
  -18.5480    0.4120   41.8850   C 0  0  0  0  0  0  0  0  0  0  0  0
  1  2  2  0  0  0  0
  1  3  1  0  0  0  0
  1  4  1  0  0  0  0
  1  5  1  0  0  0  0
  5  6  1  0  0  0  0
  6  7  2  0  0  0  0
  6  8  1  0  0  0  0
  6  9  1  0  0  0  0
  9 10  1  0  0  0  0
 10 11  1  0  0  0  0
 11 12  1  0  0  0  0
 11 13  1  0  0  0  0
 12 17  1  0  0  0  0
 13 14  1  0  0  0  0
 13 15  1  0  0  0  0
 15 16  1  0  0  0  0
 15 17  1  0  0  0  0
 17 18  1  0  0  0  0
 18 19  1  0  0  0  0
 18 28  1  0  0  0  0
 19 20  2  0  0  0  0
 20 21  1  0  0  0  0
 21 22  1  0  0  0  0
 21 28  2  0  0  0  0
 22 23  2  0  0  0  0
 22 24  1  0  0  0  0
 24 25  1  0  0  0  0
 25 26  1  0  0  0  0
 25 27  2  0  0  0  0
 27 28  1  0  0  0  0
A    1
PB
A    2
O1B
A    3
O2B
A    4
O3B
A    5
O3A
A    6
PA
A    7
O1A
A    8
O2A
A    9
O5'
A   10
C5'
A   11
C4'
A   12
O4'
A   13
C3'
A   14
O3'
A   15
C2'
A   16
O2'
A   17
C1'
A   18
N9
A   19
C8
A   20
N7
A   21
C5
A   22
C6
A   23
O6
A   24
N1
A   25
C2
A   26
N2
A   27
N3
A   28
C4
M  END
>  <InstanceId>
4IDO_GDP_A_501

>  <ChemCompId>
GDP

>  <PdbId>
4IDO

>  <ChainId>
A

>  <ResidueNumber>
501

>  <InsertionCode>


>  <Model>
1

>  <AltIds>


>  <MissingHeavyAtoms>
0

>  <ObservedFormula>
C10 N5 O11 P2

>  <Name>
GUANOSINE-5'-DIPHOSPHATE

>  <SystematicName>
[(2R,3S,4R,5R)-5-(2-azanyl-6-oxidanylidene-1H-purin-9-yl)-3,4-bis(oxidanyl)oxolan-2-yl]methyl phosphono hydrogen phosphate

>  <Synonyms>


>  <Type>
RNA LINKING

>  <Formula>
C10 H15 N5 O11 P2

>  <MolecularWeight>
443.201

>  <ModifiedDate>
2014-05-12

>  <Parent>
G

>  <OneLetterCode>
G

>  <SubcomponentList>


>  <AmbiguousFlag>
N

>  <InChI>
InChI=1S/C10H15N5O11P2/c11-10-13-7-4(8(18)14-10)12-2-15(7)9-6(17)5(16)3(25-9)1-24-28(22,23)26-27(19,20)21/h2-3,5-6,9,16-17H,1H2,(H,22,23)(H2,19,20,21)(H3,11,13,14,18)/t3-,5-,6-,9-/m1/s1

>  <InChIKey>
QGWNDRXFNXRZMB-UUOKFMHZSA-N

>  <SMILES>
c1nc2c(n1[C@H]3[C@@H]([C@@H]([C@H](O3)CO[P@](=O)(O)OP(=O)(O)O)O)O)N=C(NC2=O)N

$$$$
