5MKR_TI8_A_401


 39 42  0  0  0  0  0  0  0  0999 V2000
  -12.5990   34.9313  -12.7622 C   0  0  0  0  0  0  0  0  0  0  0  0
  -11.7826   33.7850  -12.8799 C   0  0  0  0  0  0  0  0  0  0  0  0
  -10.5233   33.9680  -13.4299 C   0  0  0  0  0  0  0  0  0  0  0  0
  -13.8301   34.9168  -12.2552 N   0  0  0  0  0  0  0  0  0  0  0  0
  -10.8622   36.1412  -13.7131 C   0  0  0  0  0  0  0  0  0  0  0  0
   -9.9292   32.7227  -13.4209 N   0  0  0  0  0  0  0  0  0  0  0  0
  -10.8699   31.8634  -12.8898 C   0  0  0  0  0  0  0  0  0  0  0  0
  -11.9919   32.4561  -12.5461 N   0  0  0  0  0  0  0  0  0  0  0  0
  -10.0020   35.1258  -13.8652 N   0  0  0  0  0  0  0  0  0  0  0  0
  -12.1010   36.1158  -13.2007 N   0  0  0  0  0  0  0  0  0  0  0  0
  -14.3497   35.7512  -12.2002 H   0  0  0  0  0  0  0  0  0  0  0  0
  -14.2209   34.0716  -11.9354 H   0  0  0  0  0  0  0  0  0  0  0  0
   -8.5532   32.4303  -13.7661 C   0  0  0  0  0  0  0  0  0  0  0  0
   -7.6264   32.1019  -12.6063 C   0  0  0  0  0  0  0  0  0  0  0  0
   -6.4863   31.4576  -13.3844 C   0  0  0  0  0  0  0  0  0  0  0  0
   -7.2458   30.6264  -14.4264 C   0  0  0  0  0  0  0  0  0  0  0  0
   -7.2279   33.2780  -11.9183 O   0  0  0  0  0  0  0  0  0  0  0  0
   -5.7029   32.4734  -13.9922 O   0  0  0  0  0  0  0  0  0  0  0  0
   -8.5196   31.2887  -14.6002 O   0  0  0  0  0  0  0  0  0  0  0  0
   -6.8356   33.9034  -12.5474 H   0  0  0  0  0  0  0  0  0  0  0  0
   -6.2724   33.0375  -14.5386 H   0  0  0  0  0  0  0  0  0  0  0  0
   -7.4107   29.1579  -14.0902 C   0  0  0  0  0  0  0  0  0  0  0  0
   -6.1956   28.3015  -14.4076 C   0  0  0  0  0  0  0  0  0  0  0  0
   -6.3881   27.4545  -15.6415 C   0  0  0  0  0  0  0  0  0  0  0  0
   -5.3486   26.4400  -15.6879 O   0  0  0  0  0  0  0  0  0  0  0  0
   -5.4959   25.4257  -16.5624 C   0  0  0  0  0  0  0  0  0  0  0  0
   -4.5633   24.8294  -17.0329 O   0  0  0  0  0  0  0  0  0  0  0  0
   -7.3051   24.0704  -17.4338 C   0  0  0  0  0  0  0  0  0  0  0  0
   -6.9124   25.1511  -16.8799 C   0  0  0  0  0  0  0  0  0  0  0  0
  -10.7056   30.5485  -12.7439 N   0  0  0  0  0  0  0  0  0  0  0  0
  -10.6830   29.9734  -13.5427 H   0  0  0  0  0  0  0  0  0  0  0  0
  -10.5588   29.9460  -11.4260 C   0  0  0  0  0  0  0  0  0  0  0  0
  -12.5713   28.4927  -10.9867 C   0  0  0  0  0  0  0  0  0  0  0  0
  -11.2315   28.5995  -11.3300 C   0  0  0  0  0  0  0  0  0  0  0  0
  -10.5248   27.4358  -11.5861 C   0  0  0  0  0  0  0  0  0  0  0  0
  -13.1895   27.2604  -10.8945 C   0  0  0  0  0  0  0  0  0  0  0  0
  -12.4586   26.1240  -11.1546 C   0  0  0  0  0  0  0  0  0  0  0  0
  -11.1305   26.1967  -11.5014 C   0  0  0  0  0  0  0  0  0  0  0  0
  -13.2324   24.5634  -11.0480 Cl  0  0  0  0  0  0  0  0  0  0  0  0
 23 24  1  0  0  0
 23 22  1  0  0  0
 19 16  1  0  0  0
 19 13  1  0  0  0
 16 22  1  0  0  0
 16 15  1  0  0  0
 24 25  1  0  0  0
  9  5  2  0  0  0
  9  3  1  0  0  0
 18 15  1  0  0  0
  5 10  1  0  0  0
 13  6  1  0  0  0
 13 14  1  0  0  0
  3  6  1  0  0  0
  3  2  2  0  0  0
  6  7  1  0  0  0
 10  1  2  0  0  0
 15 14  1  0  0  0
  2  1  1  0  0  0
  2  8  1  0  0  0
  1  4  1  0  0  0
 27 26  2  0  0  0
  7 30  1  0  0  0
  7  8  2  0  0  0
 25 26  1  0  0  0
 30 32  1  0  0  0
 14 17  1  0  0  0
 26 29  1  0  0  0
 32 34  1  0  0  0
 29 28  2  0  0  0
 34 35  2  0  0  0
 34 33  1  0  0  0
 35 38  1  0  0  0
 33 36  2  0  0  0
 38 37  2  0  0  0
 36 37  1  0  0  0
 37 39  1  0  0  0
  4 11  1  0  0  0
  4 12  1  0  0  0
 17 20  1  0  0  0
 30 31  1  0  0  0
 18 21  1  0  0  0
M  END
> <minimizedAffinity>
-9.07061

$$$$
5MKR_TI8_A_401


 39 42  0  0  0  0  0  0  0  0999 V2000
  -12.6082   35.0061  -12.7717 C   0  0  0  0  0  0  0  0  0  0  0  0
  -11.7637   33.8813  -12.8981 C   0  0  0  0  0  0  0  0  0  0  0  0
  -10.5097   34.0995  -13.4471 C   0  0  0  0  0  0  0  0  0  0  0  0
  -13.8384   34.9573  -12.2645 N   0  0  0  0  0  0  0  0  0  0  0  0
  -10.9025   36.2657  -13.7142 C   0  0  0  0  0  0  0  0  0  0  0  0
   -9.8848   32.8693  -13.4475 N   0  0  0  0  0  0  0  0  0  0  0  0
  -10.8037   31.9831  -12.9224 C   0  0  0  0  0  0  0  0  0  0  0  0
  -11.9399   32.5453  -12.5741 N   0  0  0  0  0  0  0  0  0  0  0  0
  -10.0174   35.2731  -13.8740 N   0  0  0  0  0  0  0  0  0  0  0  0
  -12.1401   36.2058  -13.2016 N   0  0  0  0  0  0  0  0  0  0  0  0
  -14.3785   35.7781  -12.2032 H   0  0  0  0  0  0  0  0  0  0  0  0
  -14.2079   34.1004  -11.9508 H   0  0  0  0  0  0  0  0  0  0  0  0
   -8.5021   32.6137  -13.7951 C   0  0  0  0  0  0  0  0  0  0  0  0
   -7.6004   32.1507  -12.6618 C   0  0  0  0  0  0  0  0  0  0  0  0
   -6.4449   31.5963  -13.4849 C   0  0  0  0  0  0  0  0  0  0  0  0
   -7.1830   30.8933  -14.6313 C   0  0  0  0  0  0  0  0  0  0  0  0
   -7.2153   33.2385  -11.8347 O   0  0  0  0  0  0  0  0  0  0  0  0
   -5.6476   32.6726  -13.9552 O   0  0  0  0  0  0  0  0  0  0  0  0
   -8.4521   31.5757  -14.7543 O   0  0  0  0  0  0  0  0  0  0  0  0
   -6.8091   33.9308  -12.3793 H   0  0  0  0  0  0  0  0  0  0  0  0
   -6.2047   33.2977  -14.4448 H   0  0  0  0  0  0  0  0  0  0  0  0
   -7.3566   29.3964  -14.4700 C   0  0  0  0  0  0  0  0  0  0  0  0
   -7.7935   28.6757  -15.7350 C   0  0  0  0  0  0  0  0  0  0  0  0
   -7.3099   27.2472  -15.7863 C   0  0  0  0  0  0  0  0  0  0  0  0
   -7.6971   26.5707  -14.5598 O   0  0  0  0  0  0  0  0  0  0  0  0
   -8.6140   25.5871  -14.6446 C   0  0  0  0  0  0  0  0  0  0  0  0
   -8.7889   24.9430  -15.6453 O   0  0  0  0  0  0  0  0  0  0  0  0
   -9.0797   26.0151  -12.3060 C   0  0  0  0  0  0  0  0  0  0  0  0
   -9.3744   25.4101  -13.3905 C   0  0  0  0  0  0  0  0  0  0  0  0
  -10.6067   30.6716  -12.7863 N   0  0  0  0  0  0  0  0  0  0  0  0
   -9.8732   30.2399  -13.2811 H   0  0  0  0  0  0  0  0  0  0  0  0
  -11.4553   29.8650  -11.9198 C   0  0  0  0  0  0  0  0  0  0  0  0
   -9.3332   29.4203  -10.6337 C   0  0  0  0  0  0  0  0  0  0  0  0
  -10.6663   29.1198  -10.8725 C   0  0  0  0  0  0  0  0  0  0  0  0
  -11.2578   28.1172  -10.1215 C   0  0  0  0  0  0  0  0  0  0  0  0
   -8.6068   28.7370   -9.6773 C   0  0  0  0  0  0  0  0  0  0  0  0
   -9.2244   27.7462   -8.9493 C   0  0  0  0  0  0  0  0  0  0  0  0
  -10.5450   27.4277   -9.1593 C   0  0  0  0  0  0  0  0  0  0  0  0
   -8.3172   26.8825   -7.7341 Cl  0  0  0  0  0  0  0  0  0  0  0  0
 23 24  1  0  0  0
 23 22  1  0  0  0
 19 16  1  0  0  0
 19 13  1  0  0  0
 16 22  1  0  0  0
 16 15  1  0  0  0
 24 25  1  0  0  0
  9  5  2  0  0  0
  9  3  1  0  0  0
 18 15  1  0  0  0
  5 10  1  0  0  0
 13  6  1  0  0  0
 13 14  1  0  0  0
  3  6  1  0  0  0
  3  2  2  0  0  0
  6  7  1  0  0  0
 10  1  2  0  0  0
 15 14  1  0  0  0
  2  1  1  0  0  0
  2  8  1  0  0  0
  1  4  1  0  0  0
 27 26  2  0  0  0
  7 30  1  0  0  0
  7  8  2  0  0  0
 25 26  1  0  0  0
 30 32  1  0  0  0
 14 17  1  0  0  0
 26 29  1  0  0  0
 32 34  1  0  0  0
 29 28  2  0  0  0
 34 35  2  0  0  0
 34 33  1  0  0  0
 35 38  1  0  0  0
 33 36  2  0  0  0
 38 37  2  0  0  0
 36 37  1  0  0  0
 37 39  1  0  0  0
  4 11  1  0  0  0
  4 12  1  0  0  0
 17 20  1  0  0  0
 30 31  1  0  0  0
 18 21  1  0  0  0
M  END
> <minimizedAffinity>
-8.76312

$$$$
5MKR_TI8_A_401


 39 42  0  0  0  0  0  0  0  0999 V2000
  -11.7660   35.0035  -13.3586 C   0  0  0  0  0  0  0  0  0  0  0  0
  -11.1387   33.7448  -13.2303 C   0  0  0  0  0  0  0  0  0  0  0  0
   -9.8259   33.6531  -13.6661 C   0  0  0  0  0  0  0  0  0  0  0  0
  -13.0204   35.2491  -12.9857 N   0  0  0  0  0  0  0  0  0  0  0  0
   -9.7851   35.7831  -14.2820 C   0  0  0  0  0  0  0  0  0  0  0  0
   -9.4435   32.3499  -13.4224 N   0  0  0  0  0  0  0  0  0  0  0  0
  -10.5507   31.7309  -12.8781 C   0  0  0  0  0  0  0  0  0  0  0  0
  -11.5864   32.5286  -12.7390 N   0  0  0  0  0  0  0  0  0  0  0  0
   -9.0907   34.6405  -14.2011 N   0  0  0  0  0  0  0  0  0  0  0  0
  -11.0492   36.0200  -13.9030 N   0  0  0  0  0  0  0  0  0  0  0  0
  -13.4010   36.1496  -13.1015 H   0  0  0  0  0  0  0  0  0  0  0  0
  -13.5673   34.5301  -12.5942 H   0  0  0  0  0  0  0  0  0  0  0  0
   -8.1093   31.8079  -13.5783 C   0  0  0  0  0  0  0  0  0  0  0  0
   -7.2889   31.6699  -12.3056 C   0  0  0  0  0  0  0  0  0  0  0  0
   -6.2195   30.7105  -12.8116 C   0  0  0  0  0  0  0  0  0  0  0  0
   -7.0438   29.7452  -13.6730 C   0  0  0  0  0  0  0  0  0  0  0  0
   -6.7575   32.9219  -11.8987 O   0  0  0  0  0  0  0  0  0  0  0  0
   -5.2747   31.4314  -13.5880 O   0  0  0  0  0  0  0  0  0  0  0  0
   -8.2022   30.4973  -14.1016 O   0  0  0  0  0  0  0  0  0  0  0  0
   -6.2540   33.3125  -12.6300 H   0  0  0  0  0  0  0  0  0  0  0  0
   -5.7345   31.9057  -14.2983 H   0  0  0  0  0  0  0  0  0  0  0  0
   -7.4295   28.4430  -13.0004 C   0  0  0  0  0  0  0  0  0  0  0  0
   -8.5830   27.7106  -13.6664 C   0  0  0  0  0  0  0  0  0  0  0  0
   -8.9737   26.4519  -12.9314 C   0  0  0  0  0  0  0  0  0  0  0  0
  -10.2825   26.6411  -12.3287 O   0  0  0  0  0  0  0  0  0  0  0  0
  -10.4858   26.1428  -11.0935 C   0  0  0  0  0  0  0  0  0  0  0  0
  -11.5051   25.5908  -10.7724 O   0  0  0  0  0  0  0  0  0  0  0  0
   -9.3938   26.1930   -8.9315 C   0  0  0  0  0  0  0  0  0  0  0  0
   -9.3349   26.3665  -10.1946 C   0  0  0  0  0  0  0  0  0  0  0  0
  -10.6134   30.4442  -12.5348 N   0  0  0  0  0  0  0  0  0  0  0  0
  -10.0355   29.7933  -12.9948 H   0  0  0  0  0  0  0  0  0  0  0  0
  -11.5202   29.9826  -11.4926 C   0  0  0  0  0  0  0  0  0  0  0  0
  -11.5882   29.6749   -8.9914 C   0  0  0  0  0  0  0  0  0  0  0  0
  -10.8484   29.8868  -10.1457 C   0  0  0  0  0  0  0  0  0  0  0  0
   -9.4730   30.0059  -10.0310 C   0  0  0  0  0  0  0  0  0  0  0  0
  -10.9760   29.5902   -7.7556 C   0  0  0  0  0  0  0  0  0  0  0  0
   -9.6080   29.7136   -7.6767 C   0  0  0  0  0  0  0  0  0  0  0  0
   -8.8465   29.9198   -8.8024 C   0  0  0  0  0  0  0  0  0  0  0  0
   -8.8249   29.6006   -6.1212 Cl  0  0  0  0  0  0  0  0  0  0  0  0
 23 24  1  0  0  0
 23 22  1  0  0  0
 19 16  1  0  0  0
 19 13  1  0  0  0
 16 22  1  0  0  0
 16 15  1  0  0  0
 24 25  1  0  0  0
  9  5  2  0  0  0
  9  3  1  0  0  0
 18 15  1  0  0  0
  5 10  1  0  0  0
 13  6  1  0  0  0
 13 14  1  0  0  0
  3  6  1  0  0  0
  3  2  2  0  0  0
  6  7  1  0  0  0
 10  1  2  0  0  0
 15 14  1  0  0  0
  2  1  1  0  0  0
  2  8  1  0  0  0
  1  4  1  0  0  0
 27 26  2  0  0  0
  7 30  1  0  0  0
  7  8  2  0  0  0
 25 26  1  0  0  0
 30 32  1  0  0  0
 14 17  1  0  0  0
 26 29  1  0  0  0
 32 34  1  0  0  0
 29 28  2  0  0  0
 34 35  2  0  0  0
 34 33  1  0  0  0
 35 38  1  0  0  0
 33 36  2  0  0  0
 38 37  2  0  0  0
 36 37  1  0  0  0
 37 39  1  0  0  0
  4 11  1  0  0  0
  4 12  1  0  0  0
 17 20  1  0  0  0
 30 31  1  0  0  0
 18 21  1  0  0  0
M  END
> <minimizedAffinity>
-8.67553

$$$$
5MKR_TI8_A_401


 39 42  0  0  0  0  0  0  0  0999 V2000
   -6.2782   24.5643  -17.5453 C   0  0  0  0  0  0  0  0  0  0  0  0
   -6.8839   25.3649  -16.5521 C   0  0  0  0  0  0  0  0  0  0  0  0
   -6.2986   26.5956  -16.2981 C   0  0  0  0  0  0  0  0  0  0  0  0
   -6.7226   23.3607  -17.9014 N   0  0  0  0  0  0  0  0  0  0  0  0
   -4.7164   26.2591  -17.8152 C   0  0  0  0  0  0  0  0  0  0  0  0
   -7.0727   27.1799  -15.3167 N   0  0  0  0  0  0  0  0  0  0  0  0
   -8.0601   26.2612  -15.0228 C   0  0  0  0  0  0  0  0  0  0  0  0
   -7.9901   25.1628  -15.7418 N   0  0  0  0  0  0  0  0  0  0  0  0
   -5.2111   27.1026  -16.8999 N   0  0  0  0  0  0  0  0  0  0  0  0
   -5.1722   25.0480  -18.1666 N   0  0  0  0  0  0  0  0  0  0  0  0
   -6.2554   22.8510  -18.6023 H   0  0  0  0  0  0  0  0  0  0  0  0
   -7.5184   22.9805  -17.4639 H   0  0  0  0  0  0  0  0  0  0  0  0
   -6.9426   28.5342  -14.8196 C   0  0  0  0  0  0  0  0  0  0  0  0
   -8.0284   29.5108  -15.2427 C   0  0  0  0  0  0  0  0  0  0  0  0
   -7.7837   30.6044  -14.2110 C   0  0  0  0  0  0  0  0  0  0  0  0
   -7.5038   29.7858  -12.9441 C   0  0  0  0  0  0  0  0  0  0  0  0
   -7.8276   29.9564  -16.5756 O   0  0  0  0  0  0  0  0  0  0  0  0
   -6.6545   31.3708  -14.6014 O   0  0  0  0  0  0  0  0  0  0  0  0
   -6.9946   28.5137  -13.4064 O   0  0  0  0  0  0  0  0  0  0  0  0
   -6.9350   30.3262  -16.6619 H   0  0  0  0  0  0  0  0  0  0  0  0
   -5.8932   30.7833  -14.7286 H   0  0  0  0  0  0  0  0  0  0  0  0
   -8.6823   29.6185  -12.0059 C   0  0  0  0  0  0  0  0  0  0  0  0
   -9.0839   30.8870  -11.2710 C   0  0  0  0  0  0  0  0  0  0  0  0
   -9.8908   31.8270  -12.1328 C   0  0  0  0  0  0  0  0  0  0  0  0
   -9.2134   33.1111  -12.1975 O   0  0  0  0  0  0  0  0  0  0  0  0
   -9.3322   33.8302  -13.3308 C   0  0  0  0  0  0  0  0  0  0  0  0
   -8.4722   33.8704  -14.1708 O   0  0  0  0  0  0  0  0  0  0  0  0
  -10.7191   35.7306  -13.9085 C   0  0  0  0  0  0  0  0  0  0  0  0
  -10.6135   34.5616  -13.4074 C   0  0  0  0  0  0  0  0  0  0  0  0
   -8.9991   26.4229  -14.0903 N   0  0  0  0  0  0  0  0  0  0  0  0
   -9.5324   27.2503  -14.0809 H   0  0  0  0  0  0  0  0  0  0  0  0
   -9.2513   25.3992  -13.0853 C   0  0  0  0  0  0  0  0  0  0  0  0
   -9.0985   26.3570  -10.7584 C   0  0  0  0  0  0  0  0  0  0  0  0
   -9.8793   25.9622  -11.8349 C   0  0  0  0  0  0  0  0  0  0  0  0
  -11.2540   26.1004  -11.7342 C   0  0  0  0  0  0  0  0  0  0  0  0
   -9.6710   26.8697   -9.6101 C   0  0  0  0  0  0  0  0  0  0  0  0
  -11.0397   26.9931   -9.5425 C   0  0  0  0  0  0  0  0  0  0  0  0
  -11.8405   26.6149  -10.5937 C   0  0  0  0  0  0  0  0  0  0  0  0
  -11.7717   27.6465   -8.0993 Cl  0  0  0  0  0  0  0  0  0  0  0  0
 23 24  1  0  0  0
 23 22  1  0  0  0
 19 16  1  0  0  0
 19 13  1  0  0  0
 16 22  1  0  0  0
 16 15  1  0  0  0
 24 25  1  0  0  0
  9  5  2  0  0  0
  9  3  1  0  0  0
 18 15  1  0  0  0
  5 10  1  0  0  0
 13  6  1  0  0  0
 13 14  1  0  0  0
  3  6  1  0  0  0
  3  2  2  0  0  0
  6  7  1  0  0  0
 10  1  2  0  0  0
 15 14  1  0  0  0
  2  1  1  0  0  0
  2  8  1  0  0  0
  1  4  1  0  0  0
 27 26  2  0  0  0
  7 30  1  0  0  0
  7  8  2  0  0  0
 25 26  1  0  0  0
 30 32  1  0  0  0
 14 17  1  0  0  0
 26 29  1  0  0  0
 32 34  1  0  0  0
 29 28  2  0  0  0
 34 35  2  0  0  0
 34 33  1  0  0  0
 35 38  1  0  0  0
 33 36  2  0  0  0
 38 37  2  0  0  0
 36 37  1  0  0  0
 37 39  1  0  0  0
  4 11  1  0  0  0
  4 12  1  0  0  0
 17 20  1  0  0  0
 30 31  1  0  0  0
 18 21  1  0  0  0
M  END
> <minimizedAffinity>
-8.63303

$$$$
5MKR_TI8_A_401


 39 42  0  0  0  0  0  0  0  0999 V2000
  -10.6545   32.8275  -12.8238 C   0  0  0  0  0  0  0  0  0  0  0  0
   -9.5472   31.9792  -12.6037 C   0  0  0  0  0  0  0  0  0  0  0  0
   -8.3342   32.3824  -13.1400 C   0  0  0  0  0  0  0  0  0  0  0  0
  -11.8822   32.5774  -12.3731 N   0  0  0  0  0  0  0  0  0  0  0  0
   -9.2232   34.2211  -14.0043 C   0  0  0  0  0  0  0  0  0  0  0  0
   -7.4259   31.4085  -12.7788 N   0  0  0  0  0  0  0  0  0  0  0  0
   -8.1470   30.4693  -12.0694 C   0  0  0  0  0  0  0  0  0  0  0  0
   -9.4192   30.7721  -11.9344 N   0  0  0  0  0  0  0  0  0  0  0  0
   -8.1061   33.4980  -13.8508 N   0  0  0  0  0  0  0  0  0  0  0  0
  -10.4558   33.9601  -13.5457 N   0  0  0  0  0  0  0  0  0  0  0  0
  -12.6136   33.2094  -12.5604 H   0  0  0  0  0  0  0  0  0  0  0  0
  -12.0587   31.7607  -11.8526 H   0  0  0  0  0  0  0  0  0  0  0  0
   -5.9932   31.4573  -12.9869 C   0  0  0  0  0  0  0  0  0  0  0  0
   -5.1802   32.1369  -11.8964 C   0  0  0  0  0  0  0  0  0  0  0  0
   -3.8003   31.6017  -12.2563 C   0  0  0  0  0  0  0  0  0  0  0  0
   -4.1121   30.1440  -12.6189 C   0  0  0  0  0  0  0  0  0  0  0  0
   -5.2661   33.5504  -11.9970 O   0  0  0  0  0  0  0  0  0  0  0  0
   -3.2950   32.3233  -13.3693 O   0  0  0  0  0  0  0  0  0  0  0  0
   -5.4916   30.1367  -13.0527 O   0  0  0  0  0  0  0  0  0  0  0  0
   -5.0043   33.8276  -12.8889 H   0  0  0  0  0  0  0  0  0  0  0  0
   -3.9300   32.2755  -14.1010 H   0  0  0  0  0  0  0  0  0  0  0  0
   -3.8575   29.1329  -11.5189 C   0  0  0  0  0  0  0  0  0  0  0  0
   -2.6595   29.4514  -10.6393 C   0  0  0  0  0  0  0  0  0  0  0  0
   -3.0575   30.0186   -9.2987 C   0  0  0  0  0  0  0  0  0  0  0  0
   -2.0553   30.9817   -8.8744 O   0  0  0  0  0  0  0  0  0  0  0  0
   -2.4683   32.2260   -8.5636 C   0  0  0  0  0  0  0  0  0  0  0  0
   -2.6400   33.0820   -9.3909 O   0  0  0  0  0  0  0  0  0  0  0  0
   -3.7881   32.2351   -6.5320 C   0  0  0  0  0  0  0  0  0  0  0  0
   -2.6648   32.4127   -7.1113 C   0  0  0  0  0  0  0  0  0  0  0  0
   -7.6452   29.3386  -11.5723 N   0  0  0  0  0  0  0  0  0  0  0  0
   -6.6843   29.2876  -11.3642 H   0  0  0  0  0  0  0  0  0  0  0  0
   -8.4907   28.1774  -11.3312 C   0  0  0  0  0  0  0  0  0  0  0  0
   -9.2449   26.0522  -12.4582 C   0  0  0  0  0  0  0  0  0  0  0  0
   -8.5504   27.2515  -12.5203 C   0  0  0  0  0  0  0  0  0  0  0  0
   -7.9132   27.5803  -13.7056 C   0  0  0  0  0  0  0  0  0  0  0  0
   -9.2984   25.2002  -13.5447 C   0  0  0  0  0  0  0  0  0  0  0  0
   -8.6539   25.5566  -14.7069 C   0  0  0  0  0  0  0  0  0  0  0  0
   -7.9610   26.7400  -14.8015 C   0  0  0  0  0  0  0  0  0  0  0  0
   -8.7219   24.4906  -16.0870 Cl  0  0  0  0  0  0  0  0  0  0  0  0
 23 24  1  0  0  0
 23 22  1  0  0  0
 19 16  1  0  0  0
 19 13  1  0  0  0
 16 22  1  0  0  0
 16 15  1  0  0  0
 24 25  1  0  0  0
  9  5  2  0  0  0
  9  3  1  0  0  0
 18 15  1  0  0  0
  5 10  1  0  0  0
 13  6  1  0  0  0
 13 14  1  0  0  0
  3  6  1  0  0  0
  3  2  2  0  0  0
  6  7  1  0  0  0
 10  1  2  0  0  0
 15 14  1  0  0  0
  2  1  1  0  0  0
  2  8  1  0  0  0
  1  4  1  0  0  0
 27 26  2  0  0  0
  7 30  1  0  0  0
  7  8  2  0  0  0
 25 26  1  0  0  0
 30 32  1  0  0  0
 14 17  1  0  0  0
 26 29  1  0  0  0
 32 34  1  0  0  0
 29 28  2  0  0  0
 34 35  2  0  0  0
 34 33  1  0  0  0
 35 38  1  0  0  0
 33 36  2  0  0  0
 38 37  2  0  0  0
 36 37  1  0  0  0
 37 39  1  0  0  0
  4 11  1  0  0  0
  4 12  1  0  0  0
 17 20  1  0  0  0
 30 31  1  0  0  0
 18 21  1  0  0  0
M  END
> <minimizedAffinity>
-8.59849

$$$$
5MKR_TI8_A_401


 39 42  0  0  0  0  0  0  0  0999 V2000
   -2.6589   29.4106  -12.6793 C   0  0  0  0  0  0  0  0  0  0  0  0
   -4.0588   29.4722  -12.8548 C   0  0  0  0  0  0  0  0  0  0  0  0
   -4.7234   30.5104  -12.2207 C   0  0  0  0  0  0  0  0  0  0  0  0
   -1.8831   28.4751  -13.2232 N   0  0  0  0  0  0  0  0  0  0  0  0
   -2.8444   31.3033  -11.3496 C   0  0  0  0  0  0  0  0  0  0  0  0
   -6.0535   30.3596  -12.5554 N   0  0  0  0  0  0  0  0  0  0  0  0
   -6.1140   29.2316  -13.3487 C   0  0  0  0  0  0  0  0  0  0  0  0
   -4.9436   28.6713  -13.5596 N   0  0  0  0  0  0  0  0  0  0  0  0
   -4.1703   31.4627  -11.4533 N   0  0  0  0  0  0  0  0  0  0  0  0
   -2.0720   30.3568  -11.9022 N   0  0  0  0  0  0  0  0  0  0  0  0
   -0.9118   28.4867  -13.0628 H   0  0  0  0  0  0  0  0  0  0  0  0
   -2.2807   27.7719  -13.7859 H   0  0  0  0  0  0  0  0  0  0  0  0
   -7.1223   31.2873  -12.2469 C   0  0  0  0  0  0  0  0  0  0  0  0
   -7.7983   31.9508  -13.4363 C   0  0  0  0  0  0  0  0  0  0  0  0
   -9.0621   32.4493  -12.7476 C   0  0  0  0  0  0  0  0  0  0  0  0
   -9.4084   31.2688  -11.8311 C   0  0  0  0  0  0  0  0  0  0  0  0
   -7.0026   33.0050  -13.9570 O   0  0  0  0  0  0  0  0  0  0  0  0
   -8.7585   33.6199  -12.0044 O   0  0  0  0  0  0  0  0  0  0  0  0
   -8.1554   30.5936  -11.5748 O   0  0  0  0  0  0  0  0  0  0  0  0
   -6.7912   33.6315  -13.2473 H   0  0  0  0  0  0  0  0  0  0  0  0
   -8.0322   33.4331  -11.3892 H   0  0  0  0  0  0  0  0  0  0  0  0
  -10.4649   30.3218  -12.3637 C   0  0  0  0  0  0  0  0  0  0  0  0
  -11.6621   30.1372  -11.4454 C   0  0  0  0  0  0  0  0  0  0  0  0
  -11.8742   28.6965  -11.0498 C   0  0  0  0  0  0  0  0  0  0  0  0
  -11.1428   27.8396  -11.9678 O   0  0  0  0  0  0  0  0  0  0  0  0
  -10.7591   26.6256  -11.5270 C   0  0  0  0  0  0  0  0  0  0  0  0
  -11.2796   25.6046  -11.8921 O   0  0  0  0  0  0  0  0  0  0  0  0
   -8.5424   27.2741  -10.7956 C   0  0  0  0  0  0  0  0  0  0  0  0
   -9.6550   26.6999  -10.5481 C   0  0  0  0  0  0  0  0  0  0  0  0
   -7.2338   28.7131  -13.8531 N   0  0  0  0  0  0  0  0  0  0  0  0
   -8.0174   28.5961  -13.2686 H   0  0  0  0  0  0  0  0  0  0  0  0
   -7.3207   28.3162  -15.2518 C   0  0  0  0  0  0  0  0  0  0  0  0
   -8.4797   26.2504  -14.3892 C   0  0  0  0  0  0  0  0  0  0  0  0
   -7.8180   26.9023  -15.4195 C   0  0  0  0  0  0  0  0  0  0  0  0
   -7.6267   26.2217  -16.6109 C   0  0  0  0  0  0  0  0  0  0  0  0
   -8.9333   24.9538  -14.5386 C   0  0  0  0  0  0  0  0  0  0  0  0
   -8.7264   24.3061  -15.7347 C   0  0  0  0  0  0  0  0  0  0  0  0
   -8.0779   24.9261  -16.7761 C   0  0  0  0  0  0  0  0  0  0  0  0
   -9.3021   22.6709  -15.9356 Cl  0  0  0  0  0  0  0  0  0  0  0  0
 23 24  1  0  0  0
 23 22  1  0  0  0
 19 16  1  0  0  0
 19 13  1  0  0  0
 16 22  1  0  0  0
 16 15  1  0  0  0
 24 25  1  0  0  0
  9  5  2  0  0  0
  9  3  1  0  0  0
 18 15  1  0  0  0
  5 10  1  0  0  0
 13  6  1  0  0  0
 13 14  1  0  0  0
  3  6  1  0  0  0
  3  2  2  0  0  0
  6  7  1  0  0  0
 10  1  2  0  0  0
 15 14  1  0  0  0
  2  1  1  0  0  0
  2  8  1  0  0  0
  1  4  1  0  0  0
 27 26  2  0  0  0
  7 30  1  0  0  0
  7  8  2  0  0  0
 25 26  1  0  0  0
 30 32  1  0  0  0
 14 17  1  0  0  0
 26 29  1  0  0  0
 32 34  1  0  0  0
 29 28  2  0  0  0
 34 35  2  0  0  0
 34 33  1  0  0  0
 35 38  1  0  0  0
 33 36  2  0  0  0
 38 37  2  0  0  0
 36 37  1  0  0  0
 37 39  1  0  0  0
  4 11  1  0  0  0
  4 12  1  0  0  0
 17 20  1  0  0  0
 30 31  1  0  0  0
 18 21  1  0  0  0
M  END
> <minimizedAffinity>
-8.54866

$$$$
5MKR_TI8_A_401


 39 42  0  0  0  0  0  0  0  0999 V2000
   -6.0258   25.0011  -17.2024 C   0  0  0  0  0  0  0  0  0  0  0  0
   -6.2804   25.9837  -16.2206 C   0  0  0  0  0  0  0  0  0  0  0  0
   -7.5657   26.0327  -15.7036 C   0  0  0  0  0  0  0  0  0  0  0  0
   -4.8442   24.8294  -17.7918 N   0  0  0  0  0  0  0  0  0  0  0  0
   -8.2438   24.3548  -16.9853 C   0  0  0  0  0  0  0  0  0  0  0  0
   -7.5521   27.0480  -14.7693 N   0  0  0  0  0  0  0  0  0  0  0  0
   -6.2717   27.5630  -14.7954 C   0  0  0  0  0  0  0  0  0  0  0  0
   -5.4746   26.9531  -15.6445 N   0  0  0  0  0  0  0  0  0  0  0  0
   -8.5949   25.2412  -16.0445 N   0  0  0  0  0  0  0  0  0  0  0  0
   -7.0498   24.1901  -17.5728 N   0  0  0  0  0  0  0  0  0  0  0  0
   -4.7302   24.1252  -18.4703 H   0  0  0  0  0  0  0  0  0  0  0  0
   -4.0846   25.4067  -17.5491 H   0  0  0  0  0  0  0  0  0  0  0  0
   -8.6277   27.3865  -13.8601 C   0  0  0  0  0  0  0  0  0  0  0  0
   -8.6283   26.6625  -12.5231 C   0  0  0  0  0  0  0  0  0  0  0  0
   -9.5751   27.5758  -11.7553 C   0  0  0  0  0  0  0  0  0  0  0  0
   -9.1273   28.9645  -12.2293 C   0  0  0  0  0  0  0  0  0  0  0  0
   -9.1260   25.3395  -12.6557 O   0  0  0  0  0  0  0  0  0  0  0  0
  -10.9116   27.2945  -12.1420 O   0  0  0  0  0  0  0  0  0  0  0  0
   -8.5421   28.7605  -13.5359 O   0  0  0  0  0  0  0  0  0  0  0  0
  -10.0026   25.3639  -13.0703 H   0  0  0  0  0  0  0  0  0  0  0  0
  -10.9936   27.3760  -13.1051 H   0  0  0  0  0  0  0  0  0  0  0  0
   -8.1864   29.6972  -11.2940 C   0  0  0  0  0  0  0  0  0  0  0  0
   -7.9608   31.1579  -11.6490 C   0  0  0  0  0  0  0  0  0  0  0  0
   -9.2155   31.8366  -12.1411 C   0  0  0  0  0  0  0  0  0  0  0  0
   -9.0163   32.2633  -13.5159 O   0  0  0  0  0  0  0  0  0  0  0  0
   -9.0175   33.5861  -13.7720 C   0  0  0  0  0  0  0  0  0  0  0  0
   -8.1242   34.1377  -14.3590 O   0  0  0  0  0  0  0  0  0  0  0  0
  -10.8211   35.2009  -13.8650 C   0  0  0  0  0  0  0  0  0  0  0  0
  -10.2167   34.2661  -13.2408 C   0  0  0  0  0  0  0  0  0  0  0  0
   -5.8493   28.5942  -14.0636 N   0  0  0  0  0  0  0  0  0  0  0  0
   -6.4911   29.2914  -13.7966 H   0  0  0  0  0  0  0  0  0  0  0  0
   -4.4571   28.7095  -13.6513 C   0  0  0  0  0  0  0  0  0  0  0  0
   -4.0002   30.8129  -12.3389 C   0  0  0  0  0  0  0  0  0  0  0  0
   -4.3015   29.4588  -12.3517 C   0  0  0  0  0  0  0  0  0  0  0  0
   -4.4590   28.8100  -11.1378 C   0  0  0  0  0  0  0  0  0  0  0  0
   -3.8535   31.5013  -11.1499 C   0  0  0  0  0  0  0  0  0  0  0  0
   -4.0159   30.8267   -9.9617 C   0  0  0  0  0  0  0  0  0  0  0  0
   -4.3189   29.4861   -9.9408 C   0  0  0  0  0  0  0  0  0  0  0  0
   -3.8398   31.6891   -8.4548 Cl  0  0  0  0  0  0  0  0  0  0  0  0
 23 24  1  0  0  0
 23 22  1  0  0  0
 19 16  1  0  0  0
 19 13  1  0  0  0
 16 22  1  0  0  0
 16 15  1  0  0  0
 24 25  1  0  0  0
  9  5  2  0  0  0
  9  3  1  0  0  0
 18 15  1  0  0  0
  5 10  1  0  0  0
 13  6  1  0  0  0
 13 14  1  0  0  0
  3  6  1  0  0  0
  3  2  2  0  0  0
  6  7  1  0  0  0
 10  1  2  0  0  0
 15 14  1  0  0  0
  2  1  1  0  0  0
  2  8  1  0  0  0
  1  4  1  0  0  0
 27 26  2  0  0  0
  7 30  1  0  0  0
  7  8  2  0  0  0
 25 26  1  0  0  0
 30 32  1  0  0  0
 14 17  1  0  0  0
 26 29  1  0  0  0
 32 34  1  0  0  0
 29 28  2  0  0  0
 34 35  2  0  0  0
 34 33  1  0  0  0
 35 38  1  0  0  0
 33 36  2  0  0  0
 38 37  2  0  0  0
 36 37  1  0  0  0
 37 39  1  0  0  0
  4 11  1  0  0  0
  4 12  1  0  0  0
 17 20  1  0  0  0
 30 31  1  0  0  0
 18 21  1  0  0  0
M  END
> <minimizedAffinity>
-8.49983

$$$$
5MKR_TI8_A_401


 39 42  0  0  0  0  0  0  0  0999 V2000
   -8.7156   24.0328  -17.0008 C   0  0  0  0  0  0  0  0  0  0  0  0
   -8.6463   24.8174  -15.8287 C   0  0  0  0  0  0  0  0  0  0  0  0
   -7.9055   25.9868  -15.9019 C   0  0  0  0  0  0  0  0  0  0  0  0
   -9.3867   22.8860  -17.0878 N   0  0  0  0  0  0  0  0  0  0  0  0
   -7.3717   25.6242  -18.0236 C   0  0  0  0  0  0  0  0  0  0  0  0
   -8.0053   26.5687  -14.6547 N   0  0  0  0  0  0  0  0  0  0  0  0
   -8.7774   25.7078  -13.9011 C   0  0  0  0  0  0  0  0  0  0  0  0
   -9.1883   24.6495  -14.5641 N   0  0  0  0  0  0  0  0  0  0  0  0
   -7.2442   26.4480  -16.9751 N   0  0  0  0  0  0  0  0  0  0  0  0
   -8.0507   24.4705  -18.1007 N   0  0  0  0  0  0  0  0  0  0  0  0
   -9.3967   22.3846  -17.9350 H   0  0  0  0  0  0  0  0  0  0  0  0
   -9.8728   22.5396  -16.3049 H   0  0  0  0  0  0  0  0  0  0  0  0
   -7.5155   27.8801  -14.2824 C   0  0  0  0  0  0  0  0  0  0  0  0
   -8.2894   29.0665  -14.8349 C   0  0  0  0  0  0  0  0  0  0  0  0
   -7.7658   30.1508  -13.9020 C   0  0  0  0  0  0  0  0  0  0  0  0
   -7.7323   29.4183  -12.5545 C   0  0  0  0  0  0  0  0  0  0  0  0
   -7.9615   29.3051  -16.1955 O   0  0  0  0  0  0  0  0  0  0  0  0
   -6.4665   30.5399  -14.3208 O   0  0  0  0  0  0  0  0  0  0  0  0
   -7.5850   28.0162  -12.8764 O   0  0  0  0  0  0  0  0  0  0  0  0
   -7.0011   29.4091  -16.2831 H   0  0  0  0  0  0  0  0  0  0  0  0
   -5.8932   29.7587  -14.3642 H   0  0  0  0  0  0  0  0  0  0  0  0
   -8.9209   29.6711  -11.6488 C   0  0  0  0  0  0  0  0  0  0  0  0
   -9.5578   31.0409  -11.8174 C   0  0  0  0  0  0  0  0  0  0  0  0
  -11.0340   30.9619  -12.1204 C   0  0  0  0  0  0  0  0  0  0  0  0
  -11.4511   29.5702  -12.0893 O   0  0  0  0  0  0  0  0  0  0  0  0
  -12.5287   29.2514  -11.3460 C   0  0  0  0  0  0  0  0  0  0  0  0
  -13.4261   28.5650  -11.7589 O   0  0  0  0  0  0  0  0  0  0  0  0
  -11.9355   29.2724   -8.9972 C   0  0  0  0  0  0  0  0  0  0  0  0
  -12.4837   29.8486   -9.9954 C   0  0  0  0  0  0  0  0  0  0  0  0
   -9.0811   25.8833  -12.6149 N   0  0  0  0  0  0  0  0  0  0  0  0
   -8.3803   25.7667  -11.9333 H   0  0  0  0  0  0  0  0  0  0  0  0
  -10.4294   26.2442  -12.1983 C   0  0  0  0  0  0  0  0  0  0  0  0
  -11.8715   25.6959  -10.2046 C   0  0  0  0  0  0  0  0  0  0  0  0
  -10.6383   26.0751  -10.7142 C   0  0  0  0  0  0  0  0  0  0  0  0
   -9.5992   26.2928   -9.8242 C   0  0  0  0  0  0  0  0  0  0  0  0
  -12.0669   25.5436   -8.8452 C   0  0  0  0  0  0  0  0  0  0  0  0
  -11.0140   25.7684   -7.9885 C   0  0  0  0  0  0  0  0  0  0  0  0
   -9.7787   26.1410   -8.4626 C   0  0  0  0  0  0  0  0  0  0  0  0
  -11.2490   25.5715   -6.2705 Cl  0  0  0  0  0  0  0  0  0  0  0  0
 23 24  1  0  0  0
 23 22  1  0  0  0
 19 16  1  0  0  0
 19 13  1  0  0  0
 16 22  1  0  0  0
 16 15  1  0  0  0
 24 25  1  0  0  0
  9  5  2  0  0  0
  9  3  1  0  0  0
 18 15  1  0  0  0
  5 10  1  0  0  0
 13  6  1  0  0  0
 13 14  1  0  0  0
  3  6  1  0  0  0
  3  2  2  0  0  0
  6  7  1  0  0  0
 10  1  2  0  0  0
 15 14  1  0  0  0
  2  1  1  0  0  0
  2  8  1  0  0  0
  1  4  1  0  0  0
 27 26  2  0  0  0
  7 30  1  0  0  0
  7  8  2  0  0  0
 25 26  1  0  0  0
 30 32  1  0  0  0
 14 17  1  0  0  0
 26 29  1  0  0  0
 32 34  1  0  0  0
 29 28  2  0  0  0
 34 35  2  0  0  0
 34 33  1  0  0  0
 35 38  1  0  0  0
 33 36  2  0  0  0
 38 37  2  0  0  0
 36 37  1  0  0  0
 37 39  1  0  0  0
  4 11  1  0  0  0
  4 12  1  0  0  0
 17 20  1  0  0  0
 30 31  1  0  0  0
 18 21  1  0  0  0
M  END
> <minimizedAffinity>
-8.39093

$$$$
5MKR_TI8_A_401


 39 42  0  0  0  0  0  0  0  0999 V2000
   -6.4830   24.8912  -17.2015 C   0  0  0  0  0  0  0  0  0  0  0  0
   -6.9989   25.7086  -16.1718 C   0  0  0  0  0  0  0  0  0  0  0  0
   -6.3259   26.8936  -15.9177 C   0  0  0  0  0  0  0  0  0  0  0  0
   -7.0175   23.7263  -17.5624 N   0  0  0  0  0  0  0  0  0  0  0  0
   -4.8250   26.4871  -17.4990 C   0  0  0  0  0  0  0  0  0  0  0  0
   -7.0242   27.5062  -14.8975 N   0  0  0  0  0  0  0  0  0  0  0  0
   -8.0580   26.6472  -14.5835 C   0  0  0  0  0  0  0  0  0  0  0  0
   -8.0858   25.5616  -15.3244 N   0  0  0  0  0  0  0  0  0  0  0  0
   -5.2302   27.3418  -16.5505 N   0  0  0  0  0  0  0  0  0  0  0  0
   -5.3711   25.3154  -17.8549 N   0  0  0  0  0  0  0  0  0  0  0  0
   -6.6102   23.2021  -18.2895 H   0  0  0  0  0  0  0  0  0  0  0  0
   -7.8199   23.3892  -17.1023 H   0  0  0  0  0  0  0  0  0  0  0  0
   -6.7882   28.8388  -14.3811 C   0  0  0  0  0  0  0  0  0  0  0  0
   -7.8887   29.8584  -14.6289 C   0  0  0  0  0  0  0  0  0  0  0  0
   -7.4779   30.9092  -13.6056 C   0  0  0  0  0  0  0  0  0  0  0  0
   -7.0617   30.0408  -12.4114 C   0  0  0  0  0  0  0  0  0  0  0  0
   -7.8487   30.3433  -15.9627 O   0  0  0  0  0  0  0  0  0  0  0  0
   -6.3854   31.6575  -14.1171 O   0  0  0  0  0  0  0  0  0  0  0  0
   -6.6570   28.7718  -12.9745 O   0  0  0  0  0  0  0  0  0  0  0  0
   -6.9637   30.6915  -16.1537 H   0  0  0  0  0  0  0  0  0  0  0  0
   -5.6659   31.0542  -14.3603 H   0  0  0  0  0  0  0  0  0  0  0  0
   -8.1131   29.8739  -11.3327 C   0  0  0  0  0  0  0  0  0  0  0  0
   -7.6570   29.0594  -10.1331 C   0  0  0  0  0  0  0  0  0  0  0  0
   -6.5494   29.7330   -9.3608 C   0  0  0  0  0  0  0  0  0  0  0  0
   -5.3840   28.8650   -9.3476 O   0  0  0  0  0  0  0  0  0  0  0  0
   -4.2168   29.3698   -9.7929 C   0  0  0  0  0  0  0  0  0  0  0  0
   -3.2499   28.6868  -10.0065 O   0  0  0  0  0  0  0  0  0  0  0  0
   -3.6216   31.4481  -10.8862 C   0  0  0  0  0  0  0  0  0  0  0  0
   -4.2621   30.8361   -9.9675 C   0  0  0  0  0  0  0  0  0  0  0  0
   -8.9500   26.8497  -13.6136 N   0  0  0  0  0  0  0  0  0  0  0  0
   -9.4011   27.7223  -13.5474 H   0  0  0  0  0  0  0  0  0  0  0  0
   -9.2704   25.8053  -12.6502 C   0  0  0  0  0  0  0  0  0  0  0  0
   -9.4231   25.9062  -10.1359 C   0  0  0  0  0  0  0  0  0  0  0  0
   -9.8546   26.3582  -11.3744 C   0  0  0  0  0  0  0  0  0  0  0  0
  -10.8364   27.3349  -11.4109 C   0  0  0  0  0  0  0  0  0  0  0  0
   -9.9589   26.4082   -8.9654 C   0  0  0  0  0  0  0  0  0  0  0  0
  -10.9332   27.3771   -9.0370 C   0  0  0  0  0  0  0  0  0  0  0  0
  -11.3790   27.8490  -10.2487 C   0  0  0  0  0  0  0  0  0  0  0  0
  -11.6108   28.0227   -7.5640 Cl  0  0  0  0  0  0  0  0  0  0  0  0
 23 24  1  0  0  0
 23 22  1  0  0  0
 19 16  1  0  0  0
 19 13  1  0  0  0
 16 22  1  0  0  0
 16 15  1  0  0  0
 24 25  1  0  0  0
  9  5  2  0  0  0
  9  3  1  0  0  0
 18 15  1  0  0  0
  5 10  1  0  0  0
 13  6  1  0  0  0
 13 14  1  0  0  0
  3  6  1  0  0  0
  3  2  2  0  0  0
  6  7  1  0  0  0
 10  1  2  0  0  0
 15 14  1  0  0  0
  2  1  1  0  0  0
  2  8  1  0  0  0
  1  4  1  0  0  0
 27 26  2  0  0  0
  7 30  1  0  0  0
  7  8  2  0  0  0
 25 26  1  0  0  0
 30 32  1  0  0  0
 14 17  1  0  0  0
 26 29  1  0  0  0
 32 34  1  0  0  0
 29 28  2  0  0  0
 34 35  2  0  0  0
 34 33  1  0  0  0
 35 38  1  0  0  0
 33 36  2  0  0  0
 38 37  2  0  0  0
 36 37  1  0  0  0
 37 39  1  0  0  0
  4 11  1  0  0  0
  4 12  1  0  0  0
 17 20  1  0  0  0
 30 31  1  0  0  0
 18 21  1  0  0  0
M  END
> <minimizedAffinity>
-8.21227

$$$$
5MKR_TI8_A_401


 39 42  0  0  0  0  0  0  0  0999 V2000
   -3.7517   31.8685  -10.5240 C   0  0  0  0  0  0  0  0  0  0  0  0
   -4.8713   31.0103  -10.5885 C   0  0  0  0  0  0  0  0  0  0  0  0
   -5.3083   30.4616   -9.3928 C   0  0  0  0  0  0  0  0  0  0  0  0
   -3.2159   32.4705  -11.5840 N   0  0  0  0  0  0  0  0  0  0  0  0
   -3.7155   31.4830   -8.2361 C   0  0  0  0  0  0  0  0  0  0  0  0
   -6.4035   29.6876   -9.7173 N   0  0  0  0  0  0  0  0  0  0  0  0
   -6.5465   29.7971  -11.0858 C   0  0  0  0  0  0  0  0  0  0  0  0
   -5.6556   30.5832  -11.6485 N   0  0  0  0  0  0  0  0  0  0  0  0
   -4.7722   30.6618   -8.1786 N   0  0  0  0  0  0  0  0  0  0  0  0
   -3.1836   32.0846   -9.3099 N   0  0  0  0  0  0  0  0  0  0  0  0
   -2.4340   33.0584  -11.4733 H   0  0  0  0  0  0  0  0  0  0  0  0
   -3.6017   32.3277  -12.4784 H   0  0  0  0  0  0  0  0  0  0  0  0
   -7.2891   29.0258   -8.7814 C   0  0  0  0  0  0  0  0  0  0  0  0
   -8.5914   29.7450   -8.4676 C   0  0  0  0  0  0  0  0  0  0  0  0
   -9.3662   28.5844   -7.8570 C   0  0  0  0  0  0  0  0  0  0  0  0
   -8.9708   27.4224   -8.7772 C   0  0  0  0  0  0  0  0  0  0  0  0
   -8.3825   30.8099   -7.5522 O   0  0  0  0  0  0  0  0  0  0  0  0
   -8.9212   28.3748   -6.5254 O   0  0  0  0  0  0  0  0  0  0  0  0
   -7.6774   27.7765   -9.3185 O   0  0  0  0  0  0  0  0  0  0  0  0
   -7.9393   30.4717   -6.7585 H   0  0  0  0  0  0  0  0  0  0  0  0
   -7.9604   28.2410   -6.5228 H   0  0  0  0  0  0  0  0  0  0  0  0
   -9.9701   27.0884   -9.8666 C   0  0  0  0  0  0  0  0  0  0  0  0
  -11.4203   27.3370   -9.4851 C   0  0  0  0  0  0  0  0  0  0  0  0
  -12.1264   26.0812   -9.0362 C   0  0  0  0  0  0  0  0  0  0  0  0
  -11.9958   25.0680  -10.0698 O   0  0  0  0  0  0  0  0  0  0  0  0
  -12.8660   24.0393  -10.0579 C   0  0  0  0  0  0  0  0  0  0  0  0
  -12.6549   23.0133   -9.4667 O   0  0  0  0  0  0  0  0  0  0  0  0
  -14.0490   24.5419  -12.1114 C   0  0  0  0  0  0  0  0  0  0  0  0
  -14.0787   24.3122  -10.8563 C   0  0  0  0  0  0  0  0  0  0  0  0
   -7.4708   29.1647  -11.8090 N   0  0  0  0  0  0  0  0  0  0  0  0
   -8.2345   28.7423  -11.3533 H   0  0  0  0  0  0  0  0  0  0  0  0
   -7.3730   29.0864  -13.2602 C   0  0  0  0  0  0  0  0  0  0  0  0
   -7.4925   27.3373  -15.0717 C   0  0  0  0  0  0  0  0  0  0  0  0
   -7.8468   27.7596  -13.7986 C   0  0  0  0  0  0  0  0  0  0  0  0
   -8.6465   26.9293  -13.0305 C   0  0  0  0  0  0  0  0  0  0  0  0
   -7.9279   26.1239  -15.5691 C   0  0  0  0  0  0  0  0  0  0  0  0
   -8.7217   25.3234  -14.7804 C   0  0  0  0  0  0  0  0  0  0  0  0
   -9.0865   25.7116  -13.5132 C   0  0  0  0  0  0  0  0  0  0  0  0
   -9.2705   23.7858  -15.3970 Cl  0  0  0  0  0  0  0  0  0  0  0  0
 23 24  1  0  0  0
 23 22  1  0  0  0
 19 16  1  0  0  0
 19 13  1  0  0  0
 16 22  1  0  0  0
 16 15  1  0  0  0
 24 25  1  0  0  0
  9  5  2  0  0  0
  9  3  1  0  0  0
 18 15  1  0  0  0
  5 10  1  0  0  0
 13  6  1  0  0  0
 13 14  1  0  0  0
  3  6  1  0  0  0
  3  2  2  0  0  0
  6  7  1  0  0  0
 10  1  2  0  0  0
 15 14  1  0  0  0
  2  1  1  0  0  0
  2  8  1  0  0  0
  1  4  1  0  0  0
 27 26  2  0  0  0
  7 30  1  0  0  0
  7  8  2  0  0  0
 25 26  1  0  0  0
 30 32  1  0  0  0
 14 17  1  0  0  0
 26 29  1  0  0  0
 32 34  1  0  0  0
 29 28  2  0  0  0
 34 35  2  0  0  0
 34 33  1  0  0  0
 35 38  1  0  0  0
 33 36  2  0  0  0
 38 37  2  0  0  0
 36 37  1  0  0  0
 37 39  1  0  0  0
  4 11  1  0  0  0
  4 12  1  0  0  0
 17 20  1  0  0  0
 30 31  1  0  0  0
 18 21  1  0  0  0
M  END
> <minimizedAffinity>
-8.13966

$$$$
