5VD2_34W_A_601


 37 41  0  0  0  0  0  0  0  0999 V2000
   -7.2868   11.9274    9.9200 C   0  0  0  0  0  0  0  0  0  0  0  0
   -7.5311   12.2868   11.1044 O   0  0  0  0  0  0  0  0  0  0  0  0
   -7.4518   10.6028    9.5778 N   0  0  0  0  0  0  0  0  0  0  0  0
   -8.3866    9.6602   10.1249 C   0  0  0  0  0  0  0  0  0  0  0  0
   -9.3707    9.4176    8.9291 C   0  0  0  0  0  0  0  0  0  0  0  0
   -8.4711    9.6975    7.6939 C   0  0  0  0  0  0  0  0  0  0  0  0
   -7.0816    9.9523    8.3614 C   0  0  0  0  0  0  0  0  0  0  0  0
   -6.5575    8.7733    9.0893 C   0  0  0  0  0  0  0  0  0  0  0  0
   -7.3820    8.5906   10.2015 C   0  0  0  0  0  0  0  0  0  0  0  0
   -7.1686    7.5516   11.1130 C   0  0  0  0  0  0  0  0  0  0  0  0
   -6.0791    6.6876   10.8672 C   0  0  0  0  0  0  0  0  0  0  0  0
   -5.2203    6.8544    9.7483 C   0  0  0  0  0  0  0  0  0  0  0  0
   -5.4744    7.9166    8.8440 C   0  0  0  0  0  0  0  0  0  0  0  0
   -4.1803    6.0002    9.5219 N   0  0  0  0  0  0  0  0  0  0  0  0
   -3.5350    6.3572    8.8696 H   0  0  0  0  0  0  0  0  0  0  0  0
   -3.8244    4.7666    9.9876 C   0  0  0  0  0  0  0  0  0  0  0  0
   -4.3550    4.2802   11.1328 N   0  0  0  0  0  0  0  0  0  0  0  0
   -4.0441    3.0688   11.6307 C   0  0  0  0  0  0  0  0  0  0  0  0
   -3.1216    2.2380   10.9760 C   0  0  0  0  0  0  0  0  0  0  0  0
   -2.5688    2.7533    9.7757 C   0  0  0  0  0  0  0  0  0  0  0  0
   -2.9365    3.9845    9.3383 N   0  0  0  0  0  0  0  0  0  0  0  0
   -2.8003    0.8978   11.5387 C   0  0  0  0  0  0  0  0  0  0  0  0
   -1.4780    0.7389   11.8968 F   0  0  0  0  0  0  0  0  0  0  0  0
   -3.0950   -0.0508   10.6113 F   0  0  0  0  0  0  0  0  0  0  0  0
   -3.5310    0.6197   12.6529 F   0  0  0  0  0  0  0  0  0  0  0  0
   -1.6662    2.0446    9.0491 N   0  0  0  0  0  0  0  0  0  0  0  0
   -1.9918    1.3582    8.4230 H   0  0  0  0  0  0  0  0  0  0  0  0
   -0.2585    2.2638    9.1648 C   0  0  0  0  0  0  0  0  0  0  0  0
    0.2803    3.2245    8.0873 C   0  0  0  0  0  0  0  0  0  0  0  0
    1.4812    2.2844    7.9353 C   0  0  0  0  0  0  0  0  0  0  0  0
    0.5800    1.1636    8.4799 C   0  0  0  0  0  0  0  0  0  0  0  0
   -6.8345   12.9510    8.9361 C   0  0  0  0  0  0  0  0  0  0  0  0
   -4.8950   15.7479   10.5864 C   0  0  0  0  0  0  0  0  0  0  0  0
   -5.9137   15.0816    9.7524 C   0  0  0  0  0  0  0  0  0  0  0  0
   -6.9207   15.7477    9.3827 O   0  0  0  0  0  0  0  0  0  0  0  0
   -5.7552   13.7722    9.3927 N   0  0  0  0  0  0  0  0  0  0  0  0
   -4.8560   13.3755    9.4506 H   0  0  0  0  0  0  0  0  0  0  0  0
  6  5  1  0  0  0
  6  7  1  0  0  0
  5  4  1  0  0  0
  7  3  1  0  0  0
  7  8  1  0  0  0
 35 34  2  0  0  0
  3  4  1  0  0  0
  3  1  1  0  0  0
  8 13  2  0  0  0
  8  9  1  0  0  0
 32  1  1  0  0  0
 32 36  1  0  0  0
 13 12  1  0  0  0
  4  9  1  0  0  0
 34 36  1  0  0  0
 34 33  1  0  0  0
  1  2  2  0  0  0
  9 10  2  0  0  0
 12 14  1  0  0  0
 12 11  2  0  0  0
 14 16  1  0  0  0
 10 11  1  0  0  0
 17 16  2  0  0  0
 17 18  1  0  0  0
 16 21  1  0  0  0
 18 19  2  0  0  0
 21 20  2  0  0  0
 19 20  1  0  0  0
 19 22  1  0  0  0
 20 26  1  0  0  0
 25 22  1  0  0  0
 31 28  1  0  0  0
 31 30  1  0  0  0
 22 23  1  0  0  0
 22 24  1  0  0  0
 26 28  1  0  0  0
 28 29  1  0  0  0
 30 29  1  0  0  0
 36 37  1  0  0  0
 14 15  1  0  0  0
 26 27  1  0  0  0
M  END
> <minimizedAffinity>
-10.12698

$$$$
5VD2_34W_A_601


 37 41  0  0  0  0  0  0  0  0999 V2000
   -9.1536   10.4903    7.6267 C   0  0  0  0  0  0  0  0  0  0  0  0
   -9.0895   10.1417    6.4159 O   0  0  0  0  0  0  0  0  0  0  0  0
   -8.0570   10.2906    8.4369 N   0  0  0  0  0  0  0  0  0  0  0  0
   -6.6707   10.3011    8.0634 C   0  0  0  0  0  0  0  0  0  0  0  0
   -6.1359   11.5989    8.7613 C   0  0  0  0  0  0  0  0  0  0  0  0
   -7.0943   11.7447    9.9752 C   0  0  0  0  0  0  0  0  0  0  0  0
   -7.9641   10.4526    9.8528 C   0  0  0  0  0  0  0  0  0  0  0  0
   -7.1802    9.2040    9.9976 C   0  0  0  0  0  0  0  0  0  0  0  0
   -6.3649    9.1100    8.8678 C   0  0  0  0  0  0  0  0  0  0  0  0
   -5.4845    8.0394    8.6826 C   0  0  0  0  0  0  0  0  0  0  0  0
   -5.4507    7.0472    9.6868 C   0  0  0  0  0  0  0  0  0  0  0  0
   -6.2738    7.1136   10.8423 C   0  0  0  0  0  0  0  0  0  0  0  0
   -7.1486    8.2190   10.9957 C   0  0  0  0  0  0  0  0  0  0  0  0
   -6.2164    6.1506   11.8076 N   0  0  0  0  0  0  0  0  0  0  0  0
   -6.9118    6.2645   12.4951 H   0  0  0  0  0  0  0  0  0  0  0  0
   -5.4208    5.0658   12.0438 C   0  0  0  0  0  0  0  0  0  0  0  0
   -5.2656    4.5818   13.2973 N   0  0  0  0  0  0  0  0  0  0  0  0
   -4.5000    3.5121   13.5828 C   0  0  0  0  0  0  0  0  0  0  0  0
   -3.7984    2.8397   12.5700 C   0  0  0  0  0  0  0  0  0  0  0  0
   -3.9651    3.3518   11.2578 C   0  0  0  0  0  0  0  0  0  0  0  0
   -4.7579    4.4341   11.0522 N   0  0  0  0  0  0  0  0  0  0  0  0
   -2.9657    1.6526   12.9067 C   0  0  0  0  0  0  0  0  0  0  0  0
   -1.6174    1.8253   12.6741 F   0  0  0  0  0  0  0  0  0  0  0  0
   -3.3828    0.5968   12.1597 F   0  0  0  0  0  0  0  0  0  0  0  0
   -3.0824    1.2976   14.2155 F   0  0  0  0  0  0  0  0  0  0  0  0
   -3.3402    2.7878   10.1918 N   0  0  0  0  0  0  0  0  0  0  0  0
   -3.7555    2.0110    9.7520 H   0  0  0  0  0  0  0  0  0  0  0  0
   -2.0989    3.2863    9.6884 C   0  0  0  0  0  0  0  0  0  0  0  0
   -2.1515    3.5861    8.1779 C   0  0  0  0  0  0  0  0  0  0  0  0
   -0.7611    2.9514    8.0645 C   0  0  0  0  0  0  0  0  0  0  0  0
   -1.0959    2.1649    9.3429 C   0  0  0  0  0  0  0  0  0  0  0  0
  -10.4115   11.1094    8.1317 C   0  0  0  0  0  0  0  0  0  0  0  0
  -13.0726    9.3938   10.2013 C   0  0  0  0  0  0  0  0  0  0  0  0
  -11.7980   10.0608    9.8729 C   0  0  0  0  0  0  0  0  0  0  0  0
  -11.0959   10.5190   10.8171 O   0  0  0  0  0  0  0  0  0  0  0  0
  -11.3973   10.1694    8.5704 N   0  0  0  0  0  0  0  0  0  0  0  0
  -11.8063    9.5727    7.9026 H   0  0  0  0  0  0  0  0  0  0  0  0
  6  5  1  0  0  0
  6  7  1  0  0  0
  5  4  1  0  0  0
  7  3  1  0  0  0
  7  8  1  0  0  0
 35 34  2  0  0  0
  3  4  1  0  0  0
  3  1  1  0  0  0
  8 13  2  0  0  0
  8  9  1  0  0  0
 32  1  1  0  0  0
 32 36  1  0  0  0
 13 12  1  0  0  0
  4  9  1  0  0  0
 34 36  1  0  0  0
 34 33  1  0  0  0
  1  2  2  0  0  0
  9 10  2  0  0  0
 12 14  1  0  0  0
 12 11  2  0  0  0
 14 16  1  0  0  0
 10 11  1  0  0  0
 17 16  2  0  0  0
 17 18  1  0  0  0
 16 21  1  0  0  0
 18 19  2  0  0  0
 21 20  2  0  0  0
 19 20  1  0  0  0
 19 22  1  0  0  0
 20 26  1  0  0  0
 25 22  1  0  0  0
 31 28  1  0  0  0
 31 30  1  0  0  0
 22 23  1  0  0  0
 22 24  1  0  0  0
 26 28  1  0  0  0
 28 29  1  0  0  0
 30 29  1  0  0  0
 36 37  1  0  0  0
 14 15  1  0  0  0
 26 27  1  0  0  0
M  END
> <minimizedAffinity>
-9.91862

$$$$
5VD2_34W_A_601


 37 41  0  0  0  0  0  0  0  0999 V2000
    0.0133    7.2411    3.7577 C   0  0  0  0  0  0  0  0  0  0  0  0
    1.0110    7.0898    3.0005 O   0  0  0  0  0  0  0  0  0  0  0  0
    0.1497    6.9715    5.1021 N   0  0  0  0  0  0  0  0  0  0  0  0
    1.3257    7.1087    5.9144 C   0  0  0  0  0  0  0  0  0  0  0  0
    0.9559    8.3061    6.8561 C   0  0  0  0  0  0  0  0  0  0  0  0
   -0.5933    8.2127    6.9228 C   0  0  0  0  0  0  0  0  0  0  0  0
   -0.8711    6.9143    6.0993 C   0  0  0  0  0  0  0  0  0  0  0  0
   -0.2826    5.6987    6.7079 C   0  0  0  0  0  0  0  0  0  0  0  0
    1.1033    5.8231    6.5902 C   0  0  0  0  0  0  0  0  0  0  0  0
    1.9739    4.8394    7.0702 C   0  0  0  0  0  0  0  0  0  0  0  0
    1.3960    3.7052    7.6814 C   0  0  0  0  0  0  0  0  0  0  0  0
   -0.0099    3.5493    7.8080 C   0  0  0  0  0  0  0  0  0  0  0  0
   -0.8583    4.5725    7.3141 C   0  0  0  0  0  0  0  0  0  0  0  0
   -0.5478    2.4511    8.4139 N   0  0  0  0  0  0  0  0  0  0  0  0
   -0.4595    1.6377    7.8664 H   0  0  0  0  0  0  0  0  0  0  0  0
   -1.1798    2.2154    9.6016 C   0  0  0  0  0  0  0  0  0  0  0  0
   -0.6186    1.4154   10.5368 N   0  0  0  0  0  0  0  0  0  0  0  0
   -1.1954    1.1570   11.7253 C   0  0  0  0  0  0  0  0  0  0  0  0
   -2.4438    1.7084   12.0531 C   0  0  0  0  0  0  0  0  0  0  0  0
   -3.0273    2.5465   11.0686 C   0  0  0  0  0  0  0  0  0  0  0  0
   -2.3795    2.7597    9.8950 N   0  0  0  0  0  0  0  0  0  0  0  0
   -3.0587    1.4178   13.3772 C   0  0  0  0  0  0  0  0  0  0  0  0
   -3.2464    2.5316   14.1685 F   0  0  0  0  0  0  0  0  0  0  0  0
   -2.2545    0.5583   14.0564 F   0  0  0  0  0  0  0  0  0  0  0  0
   -4.2791    0.8269   13.2586 F   0  0  0  0  0  0  0  0  0  0  0  0
   -4.2323    3.1408   11.2669 N   0  0  0  0  0  0  0  0  0  0  0  0
   -5.0525    2.6317   11.0737 H   0  0  0  0  0  0  0  0  0  0  0  0
   -4.3474    4.4821   11.7473 C   0  0  0  0  0  0  0  0  0  0  0  0
   -5.7461    4.7876   12.3171 C   0  0  0  0  0  0  0  0  0  0  0  0
   -5.6745    6.1426   11.6044 C   0  0  0  0  0  0  0  0  0  0  0  0
   -4.6762    5.4952   10.6301 C   0  0  0  0  0  0  0  0  0  0  0  0
   -1.2725    7.7106    3.1687 C   0  0  0  0  0  0  0  0  0  0  0  0
   -1.5458   11.4772    3.3837 C   0  0  0  0  0  0  0  0  0  0  0  0
   -1.9015   10.0564    3.5629 C   0  0  0  0  0  0  0  0  0  0  0  0
   -2.7811    9.7578    4.4183 O   0  0  0  0  0  0  0  0  0  0  0  0
   -1.2862    9.0958    2.8096 N   0  0  0  0  0  0  0  0  0  0  0  0
   -0.8311    9.3699    1.9808 H   0  0  0  0  0  0  0  0  0  0  0  0
  6  5  1  0  0  0
  6  7  1  0  0  0
  5  4  1  0  0  0
  7  3  1  0  0  0
  7  8  1  0  0  0
 35 34  2  0  0  0
  3  4  1  0  0  0
  3  1  1  0  0  0
  8 13  2  0  0  0
  8  9  1  0  0  0
 32  1  1  0  0  0
 32 36  1  0  0  0
 13 12  1  0  0  0
  4  9  1  0  0  0
 34 36  1  0  0  0
 34 33  1  0  0  0
  1  2  2  0  0  0
  9 10  2  0  0  0
 12 14  1  0  0  0
 12 11  2  0  0  0
 14 16  1  0  0  0
 10 11  1  0  0  0
 17 16  2  0  0  0
 17 18  1  0  0  0
 16 21  1  0  0  0
 18 19  2  0  0  0
 21 20  2  0  0  0
 19 20  1  0  0  0
 19 22  1  0  0  0
 20 26  1  0  0  0
 25 22  1  0  0  0
 31 28  1  0  0  0
 31 30  1  0  0  0
 22 23  1  0  0  0
 22 24  1  0  0  0
 26 28  1  0  0  0
 28 29  1  0  0  0
 30 29  1  0  0  0
 36 37  1  0  0  0
 14 15  1  0  0  0
 26 27  1  0  0  0
M  END
> <minimizedAffinity>
-9.74949

$$$$
5VD2_34W_A_601


 37 41  0  0  0  0  0  0  0  0999 V2000
   -7.3105   11.5750   10.2011 C   0  0  0  0  0  0  0  0  0  0  0  0
   -7.5427   11.8125   11.4183 O   0  0  0  0  0  0  0  0  0  0  0  0
   -7.3216   10.2686    9.7629 N   0  0  0  0  0  0  0  0  0  0  0  0
   -8.1023    9.1750   10.2690 C   0  0  0  0  0  0  0  0  0  0  0  0
   -9.1026    8.8938    9.0953 C   0  0  0  0  0  0  0  0  0  0  0  0
   -8.3048    9.3776    7.8531 C   0  0  0  0  0  0  0  0  0  0  0  0
   -6.9292    9.7621    8.4865 C   0  0  0  0  0  0  0  0  0  0  0  0
   -6.2259    8.6116    9.1000 C   0  0  0  0  0  0  0  0  0  0  0  0
   -6.9674    8.2427   10.2244 C   0  0  0  0  0  0  0  0  0  0  0  0
   -6.5812    7.1768   11.0433 C   0  0  0  0  0  0  0  0  0  0  0  0
   -5.4034    6.4825   10.6905 C   0  0  0  0  0  0  0  0  0  0  0  0
   -4.6262    6.8405    9.5569 C   0  0  0  0  0  0  0  0  0  0  0  0
   -5.0554    7.9235    8.7485 C   0  0  0  0  0  0  0  0  0  0  0  0
   -3.4978    6.1480    9.2259 N   0  0  0  0  0  0  0  0  0  0  0  0
   -2.8681    6.6861    8.6940 H   0  0  0  0  0  0  0  0  0  0  0  0
   -3.0370    4.8836    9.4594 C   0  0  0  0  0  0  0  0  0  0  0  0
   -1.8808    4.4552    8.9032 N   0  0  0  0  0  0  0  0  0  0  0  0
   -1.3793    3.2228    9.1071 C   0  0  0  0  0  0  0  0  0  0  0  0
   -2.0559    2.2964    9.9158 C   0  0  0  0  0  0  0  0  0  0  0  0
   -3.2675    2.7514   10.4963 C   0  0  0  0  0  0  0  0  0  0  0  0
   -3.7046    4.0113   10.2436 N   0  0  0  0  0  0  0  0  0  0  0  0
   -1.4778    0.9424   10.1361 C   0  0  0  0  0  0  0  0  0  0  0  0
   -0.9687    0.7459   11.4027 F   0  0  0  0  0  0  0  0  0  0  0  0
   -0.4675    0.7459    9.2488 F   0  0  0  0  0  0  0  0  0  0  0  0
   -2.3928   -0.0455    9.9378 F   0  0  0  0  0  0  0  0  0  0  0  0
   -4.0137    1.9498   11.2997 N   0  0  0  0  0  0  0  0  0  0  0  0
   -4.6118    1.2854   10.8872 H   0  0  0  0  0  0  0  0  0  0  0  0
   -3.9582    2.0403   12.7251 C   0  0  0  0  0  0  0  0  0  0  0  0
   -4.4736    3.3936   13.2517 C   0  0  0  0  0  0  0  0  0  0  0  0
   -3.2981    3.3905   14.2351 C   0  0  0  0  0  0  0  0  0  0  0  0
   -2.5689    2.4645   13.2473 C   0  0  0  0  0  0  0  0  0  0  0  0
   -7.0386   12.7176    9.2841 C   0  0  0  0  0  0  0  0  0  0  0  0
   -4.9643   15.7009   10.3352 C   0  0  0  0  0  0  0  0  0  0  0  0
   -5.9299   14.8964    9.5622 C   0  0  0  0  0  0  0  0  0  0  0  0
   -6.7444   15.4947    8.8051 O   0  0  0  0  0  0  0  0  0  0  0  0
   -5.9286   13.5337    9.6709 N   0  0  0  0  0  0  0  0  0  0  0  0
   -5.1259   13.0929   10.0324 H   0  0  0  0  0  0  0  0  0  0  0  0
  6  5  1  0  0  0
  6  7  1  0  0  0
  5  4  1  0  0  0
  7  3  1  0  0  0
  7  8  1  0  0  0
 35 34  2  0  0  0
  3  4  1  0  0  0
  3  1  1  0  0  0
  8 13  2  0  0  0
  8  9  1  0  0  0
 32  1  1  0  0  0
 32 36  1  0  0  0
 13 12  1  0  0  0
  4  9  1  0  0  0
 34 36  1  0  0  0
 34 33  1  0  0  0
  1  2  2  0  0  0
  9 10  2  0  0  0
 12 14  1  0  0  0
 12 11  2  0  0  0
 14 16  1  0  0  0
 10 11  1  0  0  0
 17 16  2  0  0  0
 17 18  1  0  0  0
 16 21  1  0  0  0
 18 19  2  0  0  0
 21 20  2  0  0  0
 19 20  1  0  0  0
 19 22  1  0  0  0
 20 26  1  0  0  0
 25 22  1  0  0  0
 31 28  1  0  0  0
 31 30  1  0  0  0
 22 23  1  0  0  0
 22 24  1  0  0  0
 26 28  1  0  0  0
 28 29  1  0  0  0
 30 29  1  0  0  0
 36 37  1  0  0  0
 14 15  1  0  0  0
 26 27  1  0  0  0
M  END
> <minimizedAffinity>
-9.59193

$$$$
5VD2_34W_A_601


 37 41  0  0  0  0  0  0  0  0999 V2000
   -7.1406   12.5249    7.5499 C   0  0  0  0  0  0  0  0  0  0  0  0
   -8.2385   13.1146    7.7466 O   0  0  0  0  0  0  0  0  0  0  0  0
   -7.1104   11.1474    7.5725 N   0  0  0  0  0  0  0  0  0  0  0  0
   -8.1559   10.2360    7.2017 C   0  0  0  0  0  0  0  0  0  0  0  0
   -7.5925    9.5788    5.8948 C   0  0  0  0  0  0  0  0  0  0  0  0
   -6.0566    9.6860    6.1022 C   0  0  0  0  0  0  0  0  0  0  0  0
   -5.9696   10.2887    7.5411 C   0  0  0  0  0  0  0  0  0  0  0  0
   -6.5417    9.4029    8.5817 C   0  0  0  0  0  0  0  0  0  0  0  0
   -7.9209    9.3710    8.3660 C   0  0  0  0  0  0  0  0  0  0  0  0
   -8.7755    8.6183    9.1778 C   0  0  0  0  0  0  0  0  0  0  0  0
   -8.1887    7.8871   10.2337 C   0  0  0  0  0  0  0  0  0  0  0  0
   -6.7902    7.9071   10.4805 C   0  0  0  0  0  0  0  0  0  0  0  0
   -5.9571    8.6779    9.6305 C   0  0  0  0  0  0  0  0  0  0  0  0
   -6.2415    7.1828   11.4987 N   0  0  0  0  0  0  0  0  0  0  0  0
   -6.3574    7.6168   12.3747 H   0  0  0  0  0  0  0  0  0  0  0  0
   -5.5693    5.9972   11.5878 C   0  0  0  0  0  0  0  0  0  0  0  0
   -5.5753    5.2834   12.7369 N   0  0  0  0  0  0  0  0  0  0  0  0
   -4.9361    4.1068   12.8748 C   0  0  0  0  0  0  0  0  0  0  0  0
   -4.2040    3.5577   11.8107 C   0  0  0  0  0  0  0  0  0  0  0  0
   -4.2015    4.3105   10.6085 C   0  0  0  0  0  0  0  0  0  0  0  0
   -4.8740    5.4880   10.5491 N   0  0  0  0  0  0  0  0  0  0  0  0
   -3.5134    2.2501   11.9819 C   0  0  0  0  0  0  0  0  0  0  0  0
   -3.6442    1.7041   13.2415 F   0  0  0  0  0  0  0  0  0  0  0  0
   -2.1869    2.4183   11.7393 F   0  0  0  0  0  0  0  0  0  0  0  0
   -3.9711    1.3093   11.1113 F   0  0  0  0  0  0  0  0  0  0  0  0
   -3.5310    3.8849    9.5066 N   0  0  0  0  0  0  0  0  0  0  0  0
   -3.6996    2.9761    9.1675 H   0  0  0  0  0  0  0  0  0  0  0  0
   -2.5884    4.7145    8.8239 C   0  0  0  0  0  0  0  0  0  0  0  0
   -2.6593    4.5532    7.2931 C   0  0  0  0  0  0  0  0  0  0  0  0
   -1.1268    4.5698    7.2806 C   0  0  0  0  0  0  0  0  0  0  0  0
   -1.1824    4.0833    8.7384 C   0  0  0  0  0  0  0  0  0  0  0  0
   -5.9205   13.3416    7.2957 C   0  0  0  0  0  0  0  0  0  0  0  0
   -5.0716   14.9766   10.5993 C   0  0  0  0  0  0  0  0  0  0  0  0
   -5.5367   14.8450    9.2052 C   0  0  0  0  0  0  0  0  0  0  0  0
   -6.2281   15.7780    8.7092 O   0  0  0  0  0  0  0  0  0  0  0  0
   -5.2153   13.7331    8.4777 N   0  0  0  0  0  0  0  0  0  0  0  0
   -4.4631   13.1753    8.7814 H   0  0  0  0  0  0  0  0  0  0  0  0
  6  5  1  0  0  0
  6  7  1  0  0  0
  5  4  1  0  0  0
  7  3  1  0  0  0
  7  8  1  0  0  0
 35 34  2  0  0  0
  3  4  1  0  0  0
  3  1  1  0  0  0
  8 13  2  0  0  0
  8  9  1  0  0  0
 32  1  1  0  0  0
 32 36  1  0  0  0
 13 12  1  0  0  0
  4  9  1  0  0  0
 34 36  1  0  0  0
 34 33  1  0  0  0
  1  2  2  0  0  0
  9 10  2  0  0  0
 12 14  1  0  0  0
 12 11  2  0  0  0
 14 16  1  0  0  0
 10 11  1  0  0  0
 17 16  2  0  0  0
 17 18  1  0  0  0
 16 21  1  0  0  0
 18 19  2  0  0  0
 21 20  2  0  0  0
 19 20  1  0  0  0
 19 22  1  0  0  0
 20 26  1  0  0  0
 25 22  1  0  0  0
 31 28  1  0  0  0
 31 30  1  0  0  0
 22 23  1  0  0  0
 22 24  1  0  0  0
 26 28  1  0  0  0
 28 29  1  0  0  0
 30 29  1  0  0  0
 36 37  1  0  0  0
 14 15  1  0  0  0
 26 27  1  0  0  0
M  END
> <minimizedAffinity>
-9.11419

$$$$
5VD2_34W_A_601


 37 41  0  0  0  0  0  0  0  0999 V2000
   -6.6364   12.1332    7.6069 C   0  0  0  0  0  0  0  0  0  0  0  0
   -7.1073   12.9910    8.4033 O   0  0  0  0  0  0  0  0  0  0  0  0
   -7.0328   10.8193    7.7317 N   0  0  0  0  0  0  0  0  0  0  0  0
   -8.2949   10.3193    8.1990 C   0  0  0  0  0  0  0  0  0  0  0  0
   -8.9245    9.7064    6.9009 C   0  0  0  0  0  0  0  0  0  0  0  0
   -7.6694    9.3224    6.0699 C   0  0  0  0  0  0  0  0  0  0  0  0
   -6.5117    9.6722    7.0591 C   0  0  0  0  0  0  0  0  0  0  0  0
   -6.5399    8.8654    8.3012 C   0  0  0  0  0  0  0  0  0  0  0  0
   -7.6655    9.2750    9.0191 C   0  0  0  0  0  0  0  0  0  0  0  0
   -7.9968    8.7088   10.2542 C   0  0  0  0  0  0  0  0  0  0  0  0
   -7.1438    7.7008   10.7545 C   0  0  0  0  0  0  0  0  0  0  0  0
   -5.9888    7.2700   10.0493 C   0  0  0  0  0  0  0  0  0  0  0  0
   -5.6912    7.8648    8.7970 C   0  0  0  0  0  0  0  0  0  0  0  0
   -5.1846    6.2849   10.5445 N   0  0  0  0  0  0  0  0  0  0  0  0
   -5.3861    6.0709   11.4841 H   0  0  0  0  0  0  0  0  0  0  0  0
   -4.1657    5.5262   10.0428 C   0  0  0  0  0  0  0  0  0  0  0  0
   -3.3241    6.0281    9.1103 N   0  0  0  0  0  0  0  0  0  0  0  0
   -2.3007    5.3257    8.5895 C   0  0  0  0  0  0  0  0  0  0  0  0
   -2.0605    4.0020    8.9894 C   0  0  0  0  0  0  0  0  0  0  0  0
   -2.9461    3.4813    9.9675 C   0  0  0  0  0  0  0  0  0  0  0  0
   -3.9532    4.2556   10.4454 N   0  0  0  0  0  0  0  0  0  0  0  0
   -0.9167    3.2472    8.4082 C   0  0  0  0  0  0  0  0  0  0  0  0
   -1.2424    1.9821    7.9659 F   0  0  0  0  0  0  0  0  0  0  0  0
    0.0513    3.1188    9.3533 F   0  0  0  0  0  0  0  0  0  0  0  0
   -0.3643    3.8906    7.3435 F   0  0  0  0  0  0  0  0  0  0  0  0
   -2.8175    2.2134   10.4374 N   0  0  0  0  0  0  0  0  0  0  0  0
   -3.2818    1.4822    9.9695 H   0  0  0  0  0  0  0  0  0  0  0  0
   -2.0292    1.9073   11.5898 C   0  0  0  0  0  0  0  0  0  0  0  0
   -1.4650    0.4739   11.5558 C   0  0  0  0  0  0  0  0  0  0  0  0
   -1.8206    0.3629   13.0424 C   0  0  0  0  0  0  0  0  0  0  0  0
   -2.8783    1.4517   12.7958 C   0  0  0  0  0  0  0  0  0  0  0  0
   -5.6740   12.5759    6.5590 C   0  0  0  0  0  0  0  0  0  0  0  0
   -3.6752   15.7687    6.2140 C   0  0  0  0  0  0  0  0  0  0  0  0
   -4.0564   14.3544    6.0356 C   0  0  0  0  0  0  0  0  0  0  0  0
   -3.5216   13.6990    5.0981 O   0  0  0  0  0  0  0  0  0  0  0  0
   -4.9673   13.7789    6.8770 N   0  0  0  0  0  0  0  0  0  0  0  0
   -5.1455   14.2127    7.7426 H   0  0  0  0  0  0  0  0  0  0  0  0
  6  5  1  0  0  0
  6  7  1  0  0  0
  5  4  1  0  0  0
  7  3  1  0  0  0
  7  8  1  0  0  0
 35 34  2  0  0  0
  3  4  1  0  0  0
  3  1  1  0  0  0
  8 13  2  0  0  0
  8  9  1  0  0  0
 32  1  1  0  0  0
 32 36  1  0  0  0
 13 12  1  0  0  0
  4  9  1  0  0  0
 34 36  1  0  0  0
 34 33  1  0  0  0
  1  2  2  0  0  0
  9 10  2  0  0  0
 12 14  1  0  0  0
 12 11  2  0  0  0
 14 16  1  0  0  0
 10 11  1  0  0  0
 17 16  2  0  0  0
 17 18  1  0  0  0
 16 21  1  0  0  0
 18 19  2  0  0  0
 21 20  2  0  0  0
 19 20  1  0  0  0
 19 22  1  0  0  0
 20 26  1  0  0  0
 25 22  1  0  0  0
 31 28  1  0  0  0
 31 30  1  0  0  0
 22 23  1  0  0  0
 22 24  1  0  0  0
 26 28  1  0  0  0
 28 29  1  0  0  0
 30 29  1  0  0  0
 36 37  1  0  0  0
 14 15  1  0  0  0
 26 27  1  0  0  0
M  END
> <minimizedAffinity>
-8.90918

$$$$
5VD2_34W_A_601


 37 41  0  0  0  0  0  0  0  0999 V2000
   -1.1846    7.4618    3.9077 C   0  0  0  0  0  0  0  0  0  0  0  0
   -0.5517    7.5992    2.8250 O   0  0  0  0  0  0  0  0  0  0  0  0
   -0.4764    7.2713    5.0743 N   0  0  0  0  0  0  0  0  0  0  0  0
    0.8298    7.7676    5.4044 C   0  0  0  0  0  0  0  0  0  0  0  0
    0.5253    8.8191    6.5264 C   0  0  0  0  0  0  0  0  0  0  0  0
   -0.7873    8.2708    7.1508 C   0  0  0  0  0  0  0  0  0  0  0  0
   -0.9795    6.9328    6.3674 C   0  0  0  0  0  0  0  0  0  0  0  0
    0.1133    5.9590    6.5960 C   0  0  0  0  0  0  0  0  0  0  0  0
    1.2538    6.4873    5.9878 C   0  0  0  0  0  0  0  0  0  0  0  0
    2.4806    5.8163    6.0158 C   0  0  0  0  0  0  0  0  0  0  0  0
    2.5242    4.5738    6.6852 C   0  0  0  0  0  0  0  0  0  0  0  0
    1.3783    4.0096    7.3061 C   0  0  0  0  0  0  0  0  0  0  0  0
    0.1547    4.7247    7.2608 C   0  0  0  0  0  0  0  0  0  0  0  0
    1.4450    2.8132    7.9593 N   0  0  0  0  0  0  0  0  0  0  0  0
    2.3535    2.4339    7.9587 H   0  0  0  0  0  0  0  0  0  0  0  0
    0.5474    2.0185    8.6136 C   0  0  0  0  0  0  0  0  0  0  0  0
    0.8039    0.7056    8.8144 N   0  0  0  0  0  0  0  0  0  0  0  0
   -0.0428   -0.1187    9.4591 C   0  0  0  0  0  0  0  0  0  0  0  0
   -1.2683    0.3538    9.9541 C   0  0  0  0  0  0  0  0  0  0  0  0
   -1.5315    1.7312    9.7406 C   0  0  0  0  0  0  0  0  0  0  0  0
   -0.6240    2.4969    9.0830 N   0  0  0  0  0  0  0  0  0  0  0  0
   -2.1848   -0.5728   10.6732 C   0  0  0  0  0  0  0  0  0  0  0  0
   -2.6465   -0.0867   11.8784 F   0  0  0  0  0  0  0  0  0  0  0  0
   -1.5284   -1.7368   10.9205 F   0  0  0  0  0  0  0  0  0  0  0  0
   -3.2897   -0.8759    9.9383 F   0  0  0  0  0  0  0  0  0  0  0  0
   -2.6822    2.3086   10.1735 N   0  0  0  0  0  0  0  0  0  0  0  0
   -3.3693    1.7440   10.5959 H   0  0  0  0  0  0  0  0  0  0  0  0
   -2.9271    3.7099   10.0351 C   0  0  0  0  0  0  0  0  0  0  0  0
   -4.1520    4.1783   10.8442 C   0  0  0  0  0  0  0  0  0  0  0  0
   -4.5456    5.0371    9.6373 C   0  0  0  0  0  0  0  0  0  0  0  0
   -3.7394    4.0566    8.7691 C   0  0  0  0  0  0  0  0  0  0  0  0
   -2.6735    7.5165    3.8828 C   0  0  0  0  0  0  0  0  0  0  0  0
   -3.7523   11.1172    4.3060 C   0  0  0  0  0  0  0  0  0  0  0  0
   -3.6009    9.6794    4.6009 C   0  0  0  0  0  0  0  0  0  0  0  0
   -3.8409    9.2752    5.7729 O   0  0  0  0  0  0  0  0  0  0  0  0
   -3.2121    8.8151    3.6157 N   0  0  0  0  0  0  0  0  0  0  0  0
   -3.3072    9.0995    2.6780 H   0  0  0  0  0  0  0  0  0  0  0  0
  6  5  1  0  0  0
  6  7  1  0  0  0
  5  4  1  0  0  0
  7  3  1  0  0  0
  7  8  1  0  0  0
 35 34  2  0  0  0
  3  4  1  0  0  0
  3  1  1  0  0  0
  8 13  2  0  0  0
  8  9  1  0  0  0
 32  1  1  0  0  0
 32 36  1  0  0  0
 13 12  1  0  0  0
  4  9  1  0  0  0
 34 36  1  0  0  0
 34 33  1  0  0  0
  1  2  2  0  0  0
  9 10  2  0  0  0
 12 14  1  0  0  0
 12 11  2  0  0  0
 14 16  1  0  0  0
 10 11  1  0  0  0
 17 16  2  0  0  0
 17 18  1  0  0  0
 16 21  1  0  0  0
 18 19  2  0  0  0
 21 20  2  0  0  0
 19 20  1  0  0  0
 19 22  1  0  0  0
 20 26  1  0  0  0
 25 22  1  0  0  0
 31 28  1  0  0  0
 31 30  1  0  0  0
 22 23  1  0  0  0
 22 24  1  0  0  0
 26 28  1  0  0  0
 28 29  1  0  0  0
 30 29  1  0  0  0
 36 37  1  0  0  0
 14 15  1  0  0  0
 26 27  1  0  0  0
M  END
> <minimizedAffinity>
-8.57793

$$$$
5VD2_34W_A_601


 37 41  0  0  0  0  0  0  0  0999 V2000
   -7.7069    9.5686    6.8055 C   0  0  0  0  0  0  0  0  0  0  0  0
   -8.6861    8.9733    6.2779 O   0  0  0  0  0  0  0  0  0  0  0  0
   -6.6591    9.9679    6.0046 N   0  0  0  0  0  0  0  0  0  0  0  0
   -6.7040   10.3620    4.6247 C   0  0  0  0  0  0  0  0  0  0  0  0
   -6.3832   11.8948    4.6937 C   0  0  0  0  0  0  0  0  0  0  0  0
   -5.5273   11.9992    5.9859 C   0  0  0  0  0  0  0  0  0  0  0  0
   -5.3952   10.4995    6.4040 C   0  0  0  0  0  0  0  0  0  0  0  0
   -4.6736    9.6757    5.4063 C   0  0  0  0  0  0  0  0  0  0  0  0
   -5.5009    9.5900    4.2846 C   0  0  0  0  0  0  0  0  0  0  0  0
   -5.1205    8.8782    3.1424 C   0  0  0  0  0  0  0  0  0  0  0  0
   -3.8599    8.2423    3.1652 C   0  0  0  0  0  0  0  0  0  0  0  0
   -3.0016    8.3069    4.2948 C   0  0  0  0  0  0  0  0  0  0  0  0
   -3.4215    9.0442    5.4310 C   0  0  0  0  0  0  0  0  0  0  0  0
   -1.7814    7.6958    4.2915 N   0  0  0  0  0  0  0  0  0  0  0  0
   -1.2590    7.9021    3.4829 H   0  0  0  0  0  0  0  0  0  0  0  0
   -1.1147    6.8652    5.1464 C   0  0  0  0  0  0  0  0  0  0  0  0
    0.2314    6.9292    5.2637 N   0  0  0  0  0  0  0  0  0  0  0  0
    0.9352    6.1394    6.0962 C   0  0  0  0  0  0  0  0  0  0  0  0
    0.2910    5.1792    6.8919 C   0  0  0  0  0  0  0  0  0  0  0  0
   -1.1204    5.1169    6.7646 C   0  0  0  0  0  0  0  0  0  0  0  0
   -1.7570    5.9511    5.9037 N   0  0  0  0  0  0  0  0  0  0  0  0
    1.0878    4.3236    7.8132 C   0  0  0  0  0  0  0  0  0  0  0  0
    0.7503    4.4606    9.1434 F   0  0  0  0  0  0  0  0  0  0  0  0
    2.4022    4.6438    7.6845 F   0  0  0  0  0  0  0  0  0  0  0  0
    0.9604    2.9996    7.5241 F   0  0  0  0  0  0  0  0  0  0  0  0
   -1.8586    4.2308    7.4820 N   0  0  0  0  0  0  0  0  0  0  0  0
   -1.9780    3.3177    7.1339 H   0  0  0  0  0  0  0  0  0  0  0  0
   -2.4678    4.5821    8.7264 C   0  0  0  0  0  0  0  0  0  0  0  0
   -2.8896    3.3481    9.5469 C   0  0  0  0  0  0  0  0  0  0  0  0
   -4.1894    4.0887    9.8803 C   0  0  0  0  0  0  0  0  0  0  0  0
   -3.9725    4.8991    8.5914 C   0  0  0  0  0  0  0  0  0  0  0  0
   -7.7246    9.8213    8.2740 C   0  0  0  0  0  0  0  0  0  0  0  0
   -6.4642    7.2169   10.7103 C   0  0  0  0  0  0  0  0  0  0  0  0
   -6.4576    8.1652    9.5799 C   0  0  0  0  0  0  0  0  0  0  0  0
   -5.3465    8.5177    9.0945 O   0  0  0  0  0  0  0  0  0  0  0  0
   -7.6368    8.6403    9.0773 N   0  0  0  0  0  0  0  0  0  0  0  0
   -8.4647    8.1467    9.2775 H   0  0  0  0  0  0  0  0  0  0  0  0
  6  5  1  0  0  0
  6  7  1  0  0  0
  5  4  1  0  0  0
  7  3  1  0  0  0
  7  8  1  0  0  0
 35 34  2  0  0  0
  3  4  1  0  0  0
  3  1  1  0  0  0
  8 13  2  0  0  0
  8  9  1  0  0  0
 32  1  1  0  0  0
 32 36  1  0  0  0
 13 12  1  0  0  0
  4  9  1  0  0  0
 34 36  1  0  0  0
 34 33  1  0  0  0
  1  2  2  0  0  0
  9 10  2  0  0  0
 12 14  1  0  0  0
 12 11  2  0  0  0
 14 16  1  0  0  0
 10 11  1  0  0  0
 17 16  2  0  0  0
 17 18  1  0  0  0
 16 21  1  0  0  0
 18 19  2  0  0  0
 21 20  2  0  0  0
 19 20  1  0  0  0
 19 22  1  0  0  0
 20 26  1  0  0  0
 25 22  1  0  0  0
 31 28  1  0  0  0
 31 30  1  0  0  0
 22 23  1  0  0  0
 22 24  1  0  0  0
 26 28  1  0  0  0
 28 29  1  0  0  0
 30 29  1  0  0  0
 36 37  1  0  0  0
 14 15  1  0  0  0
 26 27  1  0  0  0
M  END
> <minimizedAffinity>
-8.39379

$$$$
5VD2_34W_A_601


 37 41  0  0  0  0  0  0  0  0999 V2000
   -6.9047   12.3662    7.9353 C   0  0  0  0  0  0  0  0  0  0  0  0
   -7.8087   13.0030    8.5429 O   0  0  0  0  0  0  0  0  0  0  0  0
   -7.0190   10.9983    7.8147 N   0  0  0  0  0  0  0  0  0  0  0  0
   -8.2209   10.2176    7.7293 C   0  0  0  0  0  0  0  0  0  0  0  0
   -8.1860    9.6921    6.2528 C   0  0  0  0  0  0  0  0  0  0  0  0
   -6.6637    9.6628    5.9444 C   0  0  0  0  0  0  0  0  0  0  0  0
   -6.0505   10.0714    7.3221 C   0  0  0  0  0  0  0  0  0  0  0  0
   -6.3476    9.1043    8.4043 C   0  0  0  0  0  0  0  0  0  0  0  0
   -7.7172    9.1980    8.6599 C   0  0  0  0  0  0  0  0  0  0  0  0
   -8.3394    8.4116    9.6347 C   0  0  0  0  0  0  0  0  0  0  0  0
   -7.5256    7.5132   10.3588 C   0  0  0  0  0  0  0  0  0  0  0  0
   -6.1292    7.4023   10.1248 C   0  0  0  0  0  0  0  0  0  0  0  0
   -5.5376    8.2130    9.1231 C   0  0  0  0  0  0  0  0  0  0  0  0
   -5.3626    6.5181   10.8271 N   0  0  0  0  0  0  0  0  0  0  0  0
   -5.4504    6.6340   11.8008 H   0  0  0  0  0  0  0  0  0  0  0  0
   -4.5024    5.5103   10.4963 C   0  0  0  0  0  0  0  0  0  0  0  0
   -4.4957    4.3503   11.1921 N   0  0  0  0  0  0  0  0  0  0  0  0
   -3.6742    3.3240   10.9027 C   0  0  0  0  0  0  0  0  0  0  0  0
   -2.7535    3.4162    9.8473 C   0  0  0  0  0  0  0  0  0  0  0  0
   -2.7652    4.6347    9.1213 C   0  0  0  0  0  0  0  0  0  0  0  0
   -3.6274    5.6216    9.4747 N   0  0  0  0  0  0  0  0  0  0  0  0
   -1.8617    2.2651    9.5381 C   0  0  0  0  0  0  0  0  0  0  0  0
   -0.6373    2.3145   10.1708 F   0  0  0  0  0  0  0  0  0  0  0  0
   -1.6344    2.2323    8.1986 F   0  0  0  0  0  0  0  0  0  0  0  0
   -2.4206    1.0739    9.8862 F   0  0  0  0  0  0  0  0  0  0  0  0
   -1.9230    4.8459    8.0768 N   0  0  0  0  0  0  0  0  0  0  0  0
   -2.1471    4.4615    7.1985 H   0  0  0  0  0  0  0  0  0  0  0  0
   -0.7218    5.6085    8.2123 C   0  0  0  0  0  0  0  0  0  0  0  0
   -0.2241    6.1709    6.8669 C   0  0  0  0  0  0  0  0  0  0  0  0
    1.1946    5.7830    7.2980 C   0  0  0  0  0  0  0  0  0  0  0  0
    0.5494    4.7328    8.2177 C   0  0  0  0  0  0  0  0  0  0  0  0
   -5.7514   13.1196    7.3673 C   0  0  0  0  0  0  0  0  0  0  0  0
   -5.9657   13.3077    3.5955 C   0  0  0  0  0  0  0  0  0  0  0  0
   -5.4046   13.0358    4.9329 C   0  0  0  0  0  0  0  0  0  0  0  0
   -4.4050   12.2697    5.0235 O   0  0  0  0  0  0  0  0  0  0  0  0
   -5.9634   13.6109    6.0401 N   0  0  0  0  0  0  0  0  0  0  0  0
   -6.5388   14.4005    5.9186 H   0  0  0  0  0  0  0  0  0  0  0  0
  6  5  1  0  0  0
  6  7  1  0  0  0
  5  4  1  0  0  0
  7  3  1  0  0  0
  7  8  1  0  0  0
 35 34  2  0  0  0
  3  4  1  0  0  0
  3  1  1  0  0  0
  8 13  2  0  0  0
  8  9  1  0  0  0
 32  1  1  0  0  0
 32 36  1  0  0  0
 13 12  1  0  0  0
  4  9  1  0  0  0
 34 36  1  0  0  0
 34 33  1  0  0  0
  1  2  2  0  0  0
  9 10  2  0  0  0
 12 14  1  0  0  0
 12 11  2  0  0  0
 14 16  1  0  0  0
 10 11  1  0  0  0
 17 16  2  0  0  0
 17 18  1  0  0  0
 16 21  1  0  0  0
 18 19  2  0  0  0
 21 20  2  0  0  0
 19 20  1  0  0  0
 19 22  1  0  0  0
 20 26  1  0  0  0
 25 22  1  0  0  0
 31 28  1  0  0  0
 31 30  1  0  0  0
 22 23  1  0  0  0
 22 24  1  0  0  0
 26 28  1  0  0  0
 28 29  1  0  0  0
 30 29  1  0  0  0
 36 37  1  0  0  0
 14 15  1  0  0  0
 26 27  1  0  0  0
M  END
> <minimizedAffinity>
-8.26338

$$$$
5VD2_34W_A_601


 37 41  0  0  0  0  0  0  0  0999 V2000
   -0.8039    6.8257    5.2653 C   0  0  0  0  0  0  0  0  0  0  0  0
   -1.0540    6.0310    4.3179 O   0  0  0  0  0  0  0  0  0  0  0  0
   -0.9935    6.3984    6.5616 N   0  0  0  0  0  0  0  0  0  0  0  0
   -0.8647    5.0651    7.0786 C   0  0  0  0  0  0  0  0  0  0  0  0
    0.4079    5.1698    7.9880 C   0  0  0  0  0  0  0  0  0  0  0  0
    0.3981    6.6662    8.4054 C   0  0  0  0  0  0  0  0  0  0  0  0
   -0.9345    7.1687    7.7628 C   0  0  0  0  0  0  0  0  0  0  0  0
   -2.1372    6.5010    8.3128 C   0  0  0  0  0  0  0  0  0  0  0  0
   -2.0914    5.1742    7.8801 C   0  0  0  0  0  0  0  0  0  0  0  0
   -3.0855    4.2529    8.2250 C   0  0  0  0  0  0  0  0  0  0  0  0
   -4.1473    4.7172    9.0318 C   0  0  0  0  0  0  0  0  0  0  0  0
   -4.2228    6.0627    9.4801 C   0  0  0  0  0  0  0  0  0  0  0  0
   -3.1914    6.9641    9.1137 C   0  0  0  0  0  0  0  0  0  0  0  0
   -5.2511    6.4881   10.2701 N   0  0  0  0  0  0  0  0  0  0  0  0
   -5.2906    6.0072   11.1283 H   0  0  0  0  0  0  0  0  0  0  0  0
   -6.2383    7.4242   10.1499 C   0  0  0  0  0  0  0  0  0  0  0  0
   -6.9083    7.8666   11.2385 N   0  0  0  0  0  0  0  0  0  0  0  0
   -7.8833    8.7925   11.1758 C   0  0  0  0  0  0  0  0  0  0  0  0
   -8.2698    9.3468    9.9455 C   0  0  0  0  0  0  0  0  0  0  0  0
   -7.5638    8.8791    8.8077 C   0  0  0  0  0  0  0  0  0  0  0  0
   -6.5905    7.9447    8.9554 N   0  0  0  0  0  0  0  0  0  0  0  0
   -9.3434   10.3770    9.9005 C   0  0  0  0  0  0  0  0  0  0  0  0
   -8.9123   11.6232    9.4966 F   0  0  0  0  0  0  0  0  0  0  0  0
   -9.8805   10.5070   11.1420 F   0  0  0  0  0  0  0  0  0  0  0  0
  -10.3517   10.0318    9.0540 F   0  0  0  0  0  0  0  0  0  0  0  0
   -7.8435    9.3396    7.5609 N   0  0  0  0  0  0  0  0  0  0  0  0
   -8.7228    9.1405    7.1653 H   0  0  0  0  0  0  0  0  0  0  0  0
   -6.9017   10.1041    6.8049 C   0  0  0  0  0  0  0  0  0  0  0  0
   -6.1434   11.1295    7.6696 C   0  0  0  0  0  0  0  0  0  0  0  0
   -6.3197   12.1344    6.5259 C   0  0  0  0  0  0  0  0  0  0  0  0
   -7.5435   11.3119    6.0892 C   0  0  0  0  0  0  0  0  0  0  0  0
   -0.3080    8.1940    4.9451 C   0  0  0  0  0  0  0  0  0  0  0  0
   -3.4770   10.1572    4.3039 C   0  0  0  0  0  0  0  0  0  0  0  0
   -2.2461    9.3946    4.0199 C   0  0  0  0  0  0  0  0  0  0  0  0
   -2.0822    8.9236    2.8599 O   0  0  0  0  0  0  0  0  0  0  0  0
   -1.3109    9.2132    5.0004 N   0  0  0  0  0  0  0  0  0  0  0  0
   -1.3282    9.8122    5.7815 H   0  0  0  0  0  0  0  0  0  0  0  0
  6  5  1  0  0  0
  6  7  1  0  0  0
  5  4  1  0  0  0
  7  3  1  0  0  0
  7  8  1  0  0  0
 35 34  2  0  0  0
  3  4  1  0  0  0
  3  1  1  0  0  0
  8 13  2  0  0  0
  8  9  1  0  0  0
 32  1  1  0  0  0
 32 36  1  0  0  0
 13 12  1  0  0  0
  4  9  1  0  0  0
 34 36  1  0  0  0
 34 33  1  0  0  0
  1  2  2  0  0  0
  9 10  2  0  0  0
 12 14  1  0  0  0
 12 11  2  0  0  0
 14 16  1  0  0  0
 10 11  1  0  0  0
 17 16  2  0  0  0
 17 18  1  0  0  0
 16 21  1  0  0  0
 18 19  2  0  0  0
 21 20  2  0  0  0
 19 20  1  0  0  0
 19 22  1  0  0  0
 20 26  1  0  0  0
 25 22  1  0  0  0
 31 28  1  0  0  0
 31 30  1  0  0  0
 22 23  1  0  0  0
 22 24  1  0  0  0
 26 28  1  0  0  0
 28 29  1  0  0  0
 30 29  1  0  0  0
 36 37  1  0  0  0
 14 15  1  0  0  0
 26 27  1  0  0  0
M  END
> <minimizedAffinity>
-8.16198

$$$$
