1O3I_907_A_246


 26 28  0  0  0  0  0  0  0  0999 V2000
   44.2511   -3.0370   25.9755 C   0  0  0  0  0  0  0  0  0  0  0  0
   44.7199   -1.7208   26.1913 C   0  0  0  0  0  0  0  0  0  0  0  0
   44.6380   -1.1108   27.4385 C   0  0  0  0  0  0  0  0  0  0  0  0
   44.0923   -1.8100   28.4836 C   0  0  0  0  0  0  0  0  0  0  0  0
   43.6231   -3.0671   28.3194 C   0  0  0  0  0  0  0  0  0  0  0  0
   43.6774   -3.7317   27.0870 C   0  0  0  0  0  0  0  0  0  0  0  0
   43.9266   -1.4462   29.7281 N   0  0  0  0  0  0  0  0  0  0  0  0
   43.1539   -3.4715   29.5442 C   0  0  0  0  0  0  0  0  0  0  0  0
   43.3734   -2.4050   30.4157 C   0  0  0  0  0  0  0  0  0  0  0  0
   44.1841   -0.5697   30.0950 H   0  0  0  0  0  0  0  0  0  0  0  0
   43.1131   -2.3411   31.8063 C   0  0  0  0  0  0  0  0  0  0  0  0
   42.7614   -3.4971   32.5241 C   0  0  0  0  0  0  0  0  0  0  0  0
   42.5090   -3.4321   33.9170 C   0  0  0  0  0  0  0  0  0  0  0  0
   42.1393   -4.6471   34.7316 C   0  0  0  0  0  0  0  0  0  0  0  0
   42.6000   -2.2534   34.5929 C   0  0  0  0  0  0  0  0  0  0  0  0
   42.9407   -1.1438   33.8986 C   0  0  0  0  0  0  0  0  0  0  0  0
   43.2017   -1.1399   32.5143 C   0  0  0  0  0  0  0  0  0  0  0  0
   43.5316    0.0459   31.8764 O   0  0  0  0  0  0  0  0  0  0  0  0
   43.0715    0.4395   34.9619 Br  0  0  0  0  0  0  0  0  0  0  0  0
   44.3704   -3.6232   24.6679 C   0  0  0  0  0  0  0  0  0  0  0  0
   44.8231   -2.9261   23.6352 N   0  0  0  0  0  0  0  0  0  0  0  0
   44.0117   -4.8832   24.5255 N   0  0  0  0  0  0  0  0  0  0  0  0
   45.0880   -1.9854   23.7544 H   0  0  0  0  0  0  0  0  0  0  0  0
   44.8945   -3.3491   22.7491 H   0  0  0  0  0  0  0  0  0  0  0  0
   43.6770   -5.3903   25.3001 H   0  0  0  0  0  0  0  0  0  0  0  0
   44.0785   -5.3174   23.6444 H   0  0  0  0  0  0  0  0  0  0  0  0
  1  2  2  0  0  0
  1  6  1  0  0  0
  1 20  1  0  0  0
  2  3  1  0  0  0
  3  4  2  0  0  0
  4  5  1  0  0  0
  4  7  1  0  0  0
  5  6  2  0  0  0
  5  8  1  0  0  0
 20 21  1  0  0  0
 20 22  2  0  0  0
  7  9  1  0  0  0
  8  9  2  0  0  0
  9 11  1  0  0  0
 11 12  2  0  0  0
 11 17  1  0  0  0
 12 13  1  0  0  0
 13 14  1  0  0  0
 13 15  2  0  0  0
 15 16  1  0  0  0
 16 17  2  0  0  0
 16 19  1  0  0  0
 17 18  1  0  0  0
 21 23  1  0  0  0
 21 24  1  0  0  0
 22 25  1  0  0  0
 22 26  1  0  0  0
  7 10  1  0  0  0
M  CHG 1  18  -1
M  CHG 1  22   1
M  END
> <minimizedAffinity>
-9.10299

$$$$
1O3I_907_A_246


 26 28  0  0  0  0  0  0  0  0999 V2000
   44.2476   -2.9408   25.8905 C   0  0  0  0  0  0  0  0  0  0  0  0
   44.6855   -1.5984   25.9597 C   0  0  0  0  0  0  0  0  0  0  0  0
   44.4700   -0.8163   27.0894 C   0  0  0  0  0  0  0  0  0  0  0  0
   43.8200   -1.3677   28.1629 C   0  0  0  0  0  0  0  0  0  0  0  0
   43.3759   -2.6441   28.1359 C   0  0  0  0  0  0  0  0  0  0  0  0
   43.5626   -3.4787   27.0258 C   0  0  0  0  0  0  0  0  0  0  0  0
   43.5225   -0.8311   29.3171 N   0  0  0  0  0  0  0  0  0  0  0  0
   42.7818   -2.8763   29.3512 C   0  0  0  0  0  0  0  0  0  0  0  0
   42.9038   -1.6911   30.0759 C   0  0  0  0  0  0  0  0  0  0  0  0
   43.7362    0.0941   29.5771 H   0  0  0  0  0  0  0  0  0  0  0  0
   42.4980   -1.4319   31.4078 C   0  0  0  0  0  0  0  0  0  0  0  0
   41.2369   -1.8486   31.8673 C   0  0  0  0  0  0  0  0  0  0  0  0
   40.8360   -1.5951   33.2027 C   0  0  0  0  0  0  0  0  0  0  0  0
   39.4975   -2.0324   33.7444 C   0  0  0  0  0  0  0  0  0  0  0  0
   41.6584   -0.9440   34.0711 C   0  0  0  0  0  0  0  0  0  0  0  0
   42.8720   -0.5466   33.6252 C   0  0  0  0  0  0  0  0  0  0  0  0
   43.3295   -0.7650   32.3109 C   0  0  0  0  0  0  0  0  0  0  0  0
   44.5835   -0.3120   31.9313 O   0  0  0  0  0  0  0  0  0  0  0  0
   43.9482    0.3227   34.9446 Br  0  0  0  0  0  0  0  0  0  0  0  0
   44.5065   -3.7074   24.7018 C   0  0  0  0  0  0  0  0  0  0  0  0
   44.4420   -5.0314   24.7039 N   0  0  0  0  0  0  0  0  0  0  0  0
   44.8141   -3.0492   23.6024 N   0  0  0  0  0  0  0  0  0  0  0  0
   44.2112   -5.5117   25.5318 H   0  0  0  0  0  0  0  0  0  0  0  0
   44.6249   -5.5345   23.8777 H   0  0  0  0  0  0  0  0  0  0  0  0
   44.8588   -2.0658   23.6135 H   0  0  0  0  0  0  0  0  0  0  0  0
   44.9991   -3.5410   22.7698 H   0  0  0  0  0  0  0  0  0  0  0  0
  1  2  2  0  0  0
  1  6  1  0  0  0
  1 20  1  0  0  0
  2  3  1  0  0  0
  3  4  2  0  0  0
  4  5  1  0  0  0
  4  7  1  0  0  0
  5  6  2  0  0  0
  5  8  1  0  0  0
 20 21  1  0  0  0
 20 22  2  0  0  0
  7  9  1  0  0  0
  8  9  2  0  0  0
  9 11  1  0  0  0
 11 12  2  0  0  0
 11 17  1  0  0  0
 12 13  1  0  0  0
 13 14  1  0  0  0
 13 15  2  0  0  0
 15 16  1  0  0  0
 16 17  2  0  0  0
 16 19  1  0  0  0
 17 18  1  0  0  0
 21 23  1  0  0  0
 21 24  1  0  0  0
 22 25  1  0  0  0
 22 26  1  0  0  0
  7 10  1  0  0  0
M  CHG 1  18  -1
M  CHG 1  22   1
M  END
> <minimizedAffinity>
-9.04308

$$$$
1O3I_907_A_246


 26 28  0  0  0  0  0  0  0  0999 V2000
   44.2279   -2.9207   26.0813 C   0  0  0  0  0  0  0  0  0  0  0  0
   44.7485   -1.6198   26.2684 C   0  0  0  0  0  0  0  0  0  0  0  0
   44.4757   -0.8810   27.4147 C   0  0  0  0  0  0  0  0  0  0  0  0
   43.6849   -1.4351   28.3876 C   0  0  0  0  0  0  0  0  0  0  0  0
   43.1585   -2.6721   28.2456 C   0  0  0  0  0  0  0  0  0  0  0  0
   43.3972   -3.4619   27.1130 C   0  0  0  0  0  0  0  0  0  0  0  0
   43.3112   -0.9360   29.5365 N   0  0  0  0  0  0  0  0  0  0  0  0
   42.4311   -2.9195   29.3829 C   0  0  0  0  0  0  0  0  0  0  0  0
   42.5617   -1.7841   30.1822 C   0  0  0  0  0  0  0  0  0  0  0  0
   43.5613   -0.0433   29.8680 H   0  0  0  0  0  0  0  0  0  0  0  0
   42.0435   -1.5621   31.4814 C   0  0  0  0  0  0  0  0  0  0  0  0
   42.5797   -2.2356   32.5922 C   0  0  0  0  0  0  0  0  0  0  0  0
   42.0648   -2.0060   33.8924 C   0  0  0  0  0  0  0  0  0  0  0  0
   42.6146   -2.6967   35.1159 C   0  0  0  0  0  0  0  0  0  0  0  0
   41.0417   -1.1311   34.0980 C   0  0  0  0  0  0  0  0  0  0  0  0
   40.5301   -0.4836   33.0264 C   0  0  0  0  0  0  0  0  0  0  0  0
   40.9942   -0.6683   31.7092 C   0  0  0  0  0  0  0  0  0  0  0  0
   40.4038    0.0259   30.6646 O   0  0  0  0  0  0  0  0  0  0  0  0
   39.1254    0.7433   33.4463 Br  0  0  0  0  0  0  0  0  0  0  0  0
   44.5509   -3.6444   24.8815 C   0  0  0  0  0  0  0  0  0  0  0  0
   44.5486   -4.9697   24.8503 N   0  0  0  0  0  0  0  0  0  0  0  0
   44.8533   -2.9453   23.8061 N   0  0  0  0  0  0  0  0  0  0  0  0
   44.3209   -5.4807   25.6603 H   0  0  0  0  0  0  0  0  0  0  0  0
   44.7746   -5.4428   24.0170 H   0  0  0  0  0  0  0  0  0  0  0  0
   44.8515   -1.9615   23.8419 H   0  0  0  0  0  0  0  0  0  0  0  0
   45.0810   -3.4069   22.9669 H   0  0  0  0  0  0  0  0  0  0  0  0
  1  2  2  0  0  0
  1  6  1  0  0  0
  1 20  1  0  0  0
  2  3  1  0  0  0
  3  4  2  0  0  0
  4  5  1  0  0  0
  4  7  1  0  0  0
  5  6  2  0  0  0
  5  8  1  0  0  0
 20 21  1  0  0  0
 20 22  2  0  0  0
  7  9  1  0  0  0
  8  9  2  0  0  0
  9 11  1  0  0  0
 11 12  2  0  0  0
 11 17  1  0  0  0
 12 13  1  0  0  0
 13 14  1  0  0  0
 13 15  2  0  0  0
 15 16  1  0  0  0
 16 17  2  0  0  0
 16 19  1  0  0  0
 17 18  1  0  0  0
 21 23  1  0  0  0
 21 24  1  0  0  0
 22 25  1  0  0  0
 22 26  1  0  0  0
  7 10  1  0  0  0
M  CHG 1  18  -1
M  CHG 1  22   1
M  END
> <minimizedAffinity>
-8.92486

$$$$
1O3I_907_A_246


 26 28  0  0  0  0  0  0  0  0999 V2000
   44.3650   -2.9365   26.0250 C   0  0  0  0  0  0  0  0  0  0  0  0
   44.6535   -1.5578   26.1446 C   0  0  0  0  0  0  0  0  0  0  0  0
   44.5048   -0.8817   27.3509 C   0  0  0  0  0  0  0  0  0  0  0  0
   44.0718   -1.5759   28.4507 C   0  0  0  0  0  0  0  0  0  0  0  0
   43.7756   -2.8929   28.3787 C   0  0  0  0  0  0  0  0  0  0  0  0
   43.9045   -3.6257   27.1913 C   0  0  0  0  0  0  0  0  0  0  0  0
   43.8736   -1.1546   29.6721 N   0  0  0  0  0  0  0  0  0  0  0  0
   43.3806   -3.2732   29.6370 C   0  0  0  0  0  0  0  0  0  0  0  0
   43.4641   -2.1306   30.4322 C   0  0  0  0  0  0  0  0  0  0  0  0
   44.0141   -0.2287   29.9756 H   0  0  0  0  0  0  0  0  0  0  0  0
   43.2145   -2.0087   31.8210 C   0  0  0  0  0  0  0  0  0  0  0  0
   43.4151   -0.7842   32.4810 C   0  0  0  0  0  0  0  0  0  0  0  0
   43.1572   -0.6625   33.8692 C   0  0  0  0  0  0  0  0  0  0  0  0
   43.3471    0.6331   34.6186 C   0  0  0  0  0  0  0  0  0  0  0  0
   42.7108   -1.7240   34.5961 C   0  0  0  0  0  0  0  0  0  0  0  0
   42.5172   -2.8999   33.9565 C   0  0  0  0  0  0  0  0  0  0  0  0
   42.7567   -3.0878   32.5810 C   0  0  0  0  0  0  0  0  0  0  0  0
   42.5454   -4.3315   32.0063 O   0  0  0  0  0  0  0  0  0  0  0  0
   41.8553   -4.3028   35.0738 Br  0  0  0  0  0  0  0  0  0  0  0  0
   44.5468   -3.5882   24.7561 C   0  0  0  0  0  0  0  0  0  0  0  0
   44.7786   -2.8964   23.6493 N   0  0  0  0  0  0  0  0  0  0  0  0
   44.4737   -4.9036   24.7260 N   0  0  0  0  0  0  0  0  0  0  0  0
   44.8310   -1.9139   23.6848 H   0  0  0  0  0  0  0  0  0  0  0  0
   44.8983   -3.3651   22.7919 H   0  0  0  0  0  0  0  0  0  0  0  0
   44.3011   -5.4061   25.5548 H   0  0  0  0  0  0  0  0  0  0  0  0
   44.5917   -5.3838   23.8747 H   0  0  0  0  0  0  0  0  0  0  0  0
  1  2  2  0  0  0
  1  6  1  0  0  0
  1 20  1  0  0  0
  2  3  1  0  0  0
  3  4  2  0  0  0
  4  5  1  0  0  0
  4  7  1  0  0  0
  5  6  2  0  0  0
  5  8  1  0  0  0
 20 21  1  0  0  0
 20 22  2  0  0  0
  7  9  1  0  0  0
  8  9  2  0  0  0
  9 11  1  0  0  0
 11 12  2  0  0  0
 11 17  1  0  0  0
 12 13  1  0  0  0
 13 14  1  0  0  0
 13 15  2  0  0  0
 15 16  1  0  0  0
 16 17  2  0  0  0
 16 19  1  0  0  0
 17 18  1  0  0  0
 21 23  1  0  0  0
 21 24  1  0  0  0
 22 25  1  0  0  0
 22 26  1  0  0  0
  7 10  1  0  0  0
M  CHG 1  18  -1
M  CHG 1  22   1
M  END
> <minimizedAffinity>
-8.20420

$$$$
1O3I_907_A_246


 26 28  0  0  0  0  0  0  0  0999 V2000
   43.9765   -3.2781   26.5601 C   0  0  0  0  0  0  0  0  0  0  0  0
   43.2115   -4.2838   27.1940 C   0  0  0  0  0  0  0  0  0  0  0  0
   42.8178   -4.1740   28.5234 C   0  0  0  0  0  0  0  0  0  0  0  0
   43.1792   -3.0573   29.2315 C   0  0  0  0  0  0  0  0  0  0  0  0
   43.9183   -2.0761   28.6674 C   0  0  0  0  0  0  0  0  0  0  0  0
   44.3448   -2.1323   27.3338 C   0  0  0  0  0  0  0  0  0  0  0  0
   42.9143   -2.7400   30.4716 N   0  0  0  0  0  0  0  0  0  0  0  0
   44.0984   -1.1186   29.6342 C   0  0  0  0  0  0  0  0  0  0  0  0
   43.4347   -1.5831   30.7694 C   0  0  0  0  0  0  0  0  0  0  0  0
   42.3940   -3.2976   31.0941 H   0  0  0  0  0  0  0  0  0  0  0  0
   43.2783   -0.9366   32.0197 C   0  0  0  0  0  0  0  0  0  0  0  0
   44.3672   -0.2992   32.6388 C   0  0  0  0  0  0  0  0  0  0  0  0
   44.2065    0.3538   33.8862 C   0  0  0  0  0  0  0  0  0  0  0  0
   45.3425    1.0605   34.5837 C   0  0  0  0  0  0  0  0  0  0  0  0
   42.9986    0.3802   34.5145 C   0  0  0  0  0  0  0  0  0  0  0  0
   41.9530   -0.2327   33.9141 C   0  0  0  0  0  0  0  0  0  0  0  0
   42.0462   -0.9007   32.6774 C   0  0  0  0  0  0  0  0  0  0  0  0
   40.9271   -1.5157   32.1379 O   0  0  0  0  0  0  0  0  0  0  0  0
   40.3052   -0.0961   34.8737 Br  0  0  0  0  0  0  0  0  0  0  0  0
   44.3471   -3.4380   25.1799 C   0  0  0  0  0  0  0  0  0  0  0  0
   44.4498   -2.3971   24.3654 N   0  0  0  0  0  0  0  0  0  0  0  0
   44.5817   -4.6597   24.7453 N   0  0  0  0  0  0  0  0  0  0  0  0
   44.2719   -1.4892   24.7021 H   0  0  0  0  0  0  0  0  0  0  0  0
   44.7038   -2.5320   23.4239 H   0  0  0  0  0  0  0  0  0  0  0  0
   44.5022   -5.4246   25.3600 H   0  0  0  0  0  0  0  0  0  0  0  0
   44.8366   -4.8076   23.8059 H   0  0  0  0  0  0  0  0  0  0  0  0
  1  2  2  0  0  0
  1  6  1  0  0  0
  1 20  1  0  0  0
  2  3  1  0  0  0
  3  4  2  0  0  0
  4  5  1  0  0  0
  4  7  1  0  0  0
  5  6  2  0  0  0
  5  8  1  0  0  0
 20 21  1  0  0  0
 20 22  2  0  0  0
  7  9  1  0  0  0
  8  9  2  0  0  0
  9 11  1  0  0  0
 11 12  2  0  0  0
 11 17  1  0  0  0
 12 13  1  0  0  0
 13 14  1  0  0  0
 13 15  2  0  0  0
 15 16  1  0  0  0
 16 17  2  0  0  0
 16 19  1  0  0  0
 17 18  1  0  0  0
 21 23  1  0  0  0
 21 24  1  0  0  0
 22 25  1  0  0  0
 22 26  1  0  0  0
  7 10  1  0  0  0
M  CHG 1  18  -1
M  CHG 1  22   1
M  END
> <minimizedAffinity>
-7.68644

$$$$
1O3I_907_A_246


 26 28  0  0  0  0  0  0  0  0999 V2000
   44.0469   -3.1603   26.6879 C   0  0  0  0  0  0  0  0  0  0  0  0
   43.6769   -4.3219   27.4037 C   0  0  0  0  0  0  0  0  0  0  0  0
   43.3821   -4.2806   28.7623 C   0  0  0  0  0  0  0  0  0  0  0  0
   43.4485   -3.0791   29.4185 C   0  0  0  0  0  0  0  0  0  0  0  0
   43.8071   -1.9456   28.7751 C   0  0  0  0  0  0  0  0  0  0  0  0
   44.1166   -1.9262   27.4086 C   0  0  0  0  0  0  0  0  0  0  0  0
   43.2060   -2.8051   30.6735 N   0  0  0  0  0  0  0  0  0  0  0  0
   43.7712   -0.9394   29.7079 C   0  0  0  0  0  0  0  0  0  0  0  0
   43.3766   -1.5343   30.9059 C   0  0  0  0  0  0  0  0  0  0  0  0
   42.9324   -3.4669   31.3491 H   0  0  0  0  0  0  0  0  0  0  0  0
   43.1387   -0.9137   32.1565 C   0  0  0  0  0  0  0  0  0  0  0  0
   41.8910   -1.0354   32.7919 C   0  0  0  0  0  0  0  0  0  0  0  0
   41.6578   -0.4200   34.0469 C   0  0  0  0  0  0  0  0  0  0  0  0
   40.3395   -0.5317   34.7722 C   0  0  0  0  0  0  0  0  0  0  0  0
   42.6318    0.3022   34.6667 C   0  0  0  0  0  0  0  0  0  0  0  0
   43.8316    0.4151   34.0526 C   0  0  0  0  0  0  0  0  0  0  0  0
   44.1270   -0.1692   32.8052 C   0  0  0  0  0  0  0  0  0  0  0  0
   45.3797    0.0075   32.2386 O   0  0  0  0  0  0  0  0  0  0  0  0
   45.1265    1.4203   35.0361 Br  0  0  0  0  0  0  0  0  0  0  0  0
   44.3306   -3.2583   25.2816 C   0  0  0  0  0  0  0  0  0  0  0  0
   44.4200   -2.1795   24.5164 N   0  0  0  0  0  0  0  0  0  0  0  0
   44.4986   -4.4619   24.7721 N   0  0  0  0  0  0  0  0  0  0  0  0
   44.2924   -1.2856   24.9089 H   0  0  0  0  0  0  0  0  0  0  0  0
   44.6139   -2.2721   23.5557 H   0  0  0  0  0  0  0  0  0  0  0  0
   44.4298   -5.2554   25.3508 H   0  0  0  0  0  0  0  0  0  0  0  0
   44.6930   -4.5676   23.8128 H   0  0  0  0  0  0  0  0  0  0  0  0
  1  2  2  0  0  0
  1  6  1  0  0  0
  1 20  1  0  0  0
  2  3  1  0  0  0
  3  4  2  0  0  0
  4  5  1  0  0  0
  4  7  1  0  0  0
  5  6  2  0  0  0
  5  8  1  0  0  0
 20 21  1  0  0  0
 20 22  2  0  0  0
  7  9  1  0  0  0
  8  9  2  0  0  0
  9 11  1  0  0  0
 11 12  2  0  0  0
 11 17  1  0  0  0
 12 13  1  0  0  0
 13 14  1  0  0  0
 13 15  2  0  0  0
 15 16  1  0  0  0
 16 17  2  0  0  0
 16 19  1  0  0  0
 17 18  1  0  0  0
 21 23  1  0  0  0
 21 24  1  0  0  0
 22 25  1  0  0  0
 22 26  1  0  0  0
  7 10  1  0  0  0
M  CHG 1  18  -1
M  CHG 1  22   1
M  END
> <minimizedAffinity>
-7.48360

$$$$
1O3I_907_A_246


 26 28  0  0  0  0  0  0  0  0999 V2000
   44.2642   -2.4937   26.1861 C   0  0  0  0  0  0  0  0  0  0  0  0
   44.4932   -1.3743   27.0185 C   0  0  0  0  0  0  0  0  0  0  0  0
   44.3094   -1.4374   28.3957 C   0  0  0  0  0  0  0  0  0  0  0  0
   43.9002   -2.6195   28.9561 C   0  0  0  0  0  0  0  0  0  0  0  0
   43.6604   -3.7117   28.1964 C   0  0  0  0  0  0  0  0  0  0  0  0
   43.8268   -3.7073   26.8051 C   0  0  0  0  0  0  0  0  0  0  0  0
   43.6775   -2.9090   30.2112 N   0  0  0  0  0  0  0  0  0  0  0  0
   43.2750   -4.7087   29.0574 C   0  0  0  0  0  0  0  0  0  0  0  0
   43.3055   -4.1516   30.3355 C   0  0  0  0  0  0  0  0  0  0  0  0
   43.7771   -2.2761   30.9587 H   0  0  0  0  0  0  0  0  0  0  0  0
   43.0433   -4.7852   31.5747 C   0  0  0  0  0  0  0  0  0  0  0  0
   43.3796   -6.1349   31.7755 C   0  0  0  0  0  0  0  0  0  0  0  0
   43.1234   -6.7647   33.0189 C   0  0  0  0  0  0  0  0  0  0  0  0
   43.4764   -8.2072   33.2851 C   0  0  0  0  0  0  0  0  0  0  0  0
   42.5473   -6.0816   34.0464 C   0  0  0  0  0  0  0  0  0  0  0  0
   42.2272   -4.7823   33.8495 C   0  0  0  0  0  0  0  0  0  0  0  0
   42.4527   -4.0987   32.6385 C   0  0  0  0  0  0  0  0  0  0  0  0
   42.0812   -2.7688   32.5160 O   0  0  0  0  0  0  0  0  0  0  0  0
   41.4594   -3.9220   35.3743 Br  0  0  0  0  0  0  0  0  0  0  0  0
   44.4804   -2.3758   24.7694 C   0  0  0  0  0  0  0  0  0  0  0  0
   44.8455   -3.4177   24.0356 N   0  0  0  0  0  0  0  0  0  0  0  0
   44.3051   -1.1916   24.2186 N   0  0  0  0  0  0  0  0  0  0  0  0
   44.9733   -4.2973   24.4588 H   0  0  0  0  0  0  0  0  0  0  0  0
   44.9889   -3.3118   23.0674 H   0  0  0  0  0  0  0  0  0  0  0  0
   44.0338   -0.4255   24.7742 H   0  0  0  0  0  0  0  0  0  0  0  0
   44.4454   -1.0729   23.2514 H   0  0  0  0  0  0  0  0  0  0  0  0
  1  2  2  0  0  0
  1  6  1  0  0  0
  1 20  1  0  0  0
  2  3  1  0  0  0
  3  4  2  0  0  0
  4  5  1  0  0  0
  4  7  1  0  0  0
  5  6  2  0  0  0
  5  8  1  0  0  0
 20 21  1  0  0  0
 20 22  2  0  0  0
  7  9  1  0  0  0
  8  9  2  0  0  0
  9 11  1  0  0  0
 11 12  2  0  0  0
 11 17  1  0  0  0
 12 13  1  0  0  0
 13 14  1  0  0  0
 13 15  2  0  0  0
 15 16  1  0  0  0
 16 17  2  0  0  0
 16 19  1  0  0  0
 17 18  1  0  0  0
 21 23  1  0  0  0
 21 24  1  0  0  0
 22 25  1  0  0  0
 22 26  1  0  0  0
  7 10  1  0  0  0
M  CHG 1  18  -1
M  CHG 1  22   1
M  END
> <minimizedAffinity>
-7.47975

$$$$
1O3I_907_A_246


 26 28  0  0  0  0  0  0  0  0999 V2000
   44.2561   -2.5234   26.1716 C   0  0  0  0  0  0  0  0  0  0  0  0
   44.5041   -1.4728   27.0844 C   0  0  0  0  0  0  0  0  0  0  0  0
   44.3042   -1.6299   28.4518 C   0  0  0  0  0  0  0  0  0  0  0  0
   43.8598   -2.8383   28.9220 C   0  0  0  0  0  0  0  0  0  0  0  0
   43.6011   -3.8667   28.0837 C   0  0  0  0  0  0  0  0  0  0  0  0
   43.7822   -3.7668   26.6977 C   0  0  0  0  0  0  0  0  0  0  0  0
   43.6168   -3.2113   30.1511 N   0  0  0  0  0  0  0  0  0  0  0  0
   43.1819   -4.9127   28.8671 C   0  0  0  0  0  0  0  0  0  0  0  0
   43.2128   -4.4498   30.1823 C   0  0  0  0  0  0  0  0  0  0  0  0
   43.7241   -2.6364   30.9431 H   0  0  0  0  0  0  0  0  0  0  0  0
   42.9219   -5.1637   31.3703 C   0  0  0  0  0  0  0  0  0  0  0  0
   41.7997   -4.8333   32.1492 C   0  0  0  0  0  0  0  0  0  0  0  0
   41.5062   -5.5542   33.3334 C   0  0  0  0  0  0  0  0  0  0  0  0
   40.3077   -5.2436   34.1957 C   0  0  0  0  0  0  0  0  0  0  0  0
   42.3003   -6.5807   33.7456 C   0  0  0  0  0  0  0  0  0  0  0  0
   43.3781   -6.8966   32.9919 C   0  0  0  0  0  0  0  0  0  0  0  0
   43.7266   -6.2189   31.8071 C   0  0  0  0  0  0  0  0  0  0  0  0
   44.8575   -6.5983   31.1009 O   0  0  0  0  0  0  0  0  0  0  0  0
   44.3929   -8.3760   33.6525 Br  0  0  0  0  0  0  0  0  0  0  0  0
   44.4901   -2.3097   24.7690 C   0  0  0  0  0  0  0  0  0  0  0  0
   44.8541   -3.3018   23.9687 N   0  0  0  0  0  0  0  0  0  0  0  0
   44.3324   -1.0884   24.2999 N   0  0  0  0  0  0  0  0  0  0  0  0
   44.9687   -4.2100   24.3312 H   0  0  0  0  0  0  0  0  0  0  0  0
   45.0100   -3.1305   23.0118 H   0  0  0  0  0  0  0  0  0  0  0  0
   44.0618   -0.3600   24.9044 H   0  0  0  0  0  0  0  0  0  0  0  0
   44.4853   -0.9044   23.3449 H   0  0  0  0  0  0  0  0  0  0  0  0
  1  2  2  0  0  0
  1  6  1  0  0  0
  1 20  1  0  0  0
  2  3  1  0  0  0
  3  4  2  0  0  0
  4  5  1  0  0  0
  4  7  1  0  0  0
  5  6  2  0  0  0
  5  8  1  0  0  0
 20 21  1  0  0  0
 20 22  2  0  0  0
  7  9  1  0  0  0
  8  9  2  0  0  0
  9 11  1  0  0  0
 11 12  2  0  0  0
 11 17  1  0  0  0
 12 13  1  0  0  0
 13 14  1  0  0  0
 13 15  2  0  0  0
 15 16  1  0  0  0
 16 17  2  0  0  0
 16 19  1  0  0  0
 17 18  1  0  0  0
 21 23  1  0  0  0
 21 24  1  0  0  0
 22 25  1  0  0  0
 22 26  1  0  0  0
  7 10  1  0  0  0
M  CHG 1  18  -1
M  CHG 1  22   1
M  END
> <minimizedAffinity>
-7.09263

$$$$
1O3I_907_A_246


 26 28  0  0  0  0  0  0  0  0999 V2000
   43.3955    1.1390   35.0196 C   0  0  0  0  0  0  0  0  0  0  0  0
   44.6300    1.4990   34.4323 C   0  0  0  0  0  0  0  0  0  0  0  0
   45.0857    0.8994   33.2630 C   0  0  0  0  0  0  0  0  0  0  0  0
   44.3117   -0.0614   32.6658 C   0  0  0  0  0  0  0  0  0  0  0  0
   43.1292   -0.4427   33.1985 C   0  0  0  0  0  0  0  0  0  0  0  0
   42.6201    0.1243   34.3744 C   0  0  0  0  0  0  0  0  0  0  0  0
   44.5315   -0.7410   31.5710 N   0  0  0  0  0  0  0  0  0  0  0  0
   42.6180   -1.4054   32.3645 C   0  0  0  0  0  0  0  0  0  0  0  0
   43.5457   -1.5599   31.3347 C   0  0  0  0  0  0  0  0  0  0  0  0
   45.3307   -0.6473   31.0038 H   0  0  0  0  0  0  0  0  0  0  0  0
   43.4590   -2.3952   30.1943 C   0  0  0  0  0  0  0  0  0  0  0  0
   42.8288   -3.6491   30.2699 C   0  0  0  0  0  0  0  0  0  0  0  0
   42.7364   -4.4799   29.1256 C   0  0  0  0  0  0  0  0  0  0  0  0
   42.0601   -5.8283   29.1551 C   0  0  0  0  0  0  0  0  0  0  0  0
   43.2537   -4.0867   27.9288 C   0  0  0  0  0  0  0  0  0  0  0  0
   43.8575   -2.8784   27.8601 C   0  0  0  0  0  0  0  0  0  0  0  0
   43.9848   -2.0069   28.9596 C   0  0  0  0  0  0  0  0  0  0  0  0
   44.6317   -0.7904   28.8060 O   0  0  0  0  0  0  0  0  0  0  0  0
   44.5102   -2.4235   26.1218 Br  0  0  0  0  0  0  0  0  0  0  0  0
   42.9676    1.7990   36.2234 C   0  0  0  0  0  0  0  0  0  0  0  0
   42.4757    1.1182   37.2489 N   0  0  0  0  0  0  0  0  0  0  0  0
   43.0783    3.1111   36.2761 N   0  0  0  0  0  0  0  0  0  0  0  0
   42.3980    0.1381   37.1974 H   0  0  0  0  0  0  0  0  0  0  0  0
   42.1880    1.5927   38.0622 H   0  0  0  0  0  0  0  0  0  0  0  0
   43.4452    3.6054   35.5079 H   0  0  0  0  0  0  0  0  0  0  0  0
   42.7940    3.5970   37.0838 H   0  0  0  0  0  0  0  0  0  0  0  0
  1  2  2  0  0  0
  1  6  1  0  0  0
  1 20  1  0  0  0
  2  3  1  0  0  0
  3  4  2  0  0  0
  4  5  1  0  0  0
  4  7  1  0  0  0
  5  6  2  0  0  0
  5  8  1  0  0  0
 20 21  1  0  0  0
 20 22  2  0  0  0
  7  9  1  0  0  0
  8  9  2  0  0  0
  9 11  1  0  0  0
 11 12  2  0  0  0
 11 17  1  0  0  0
 12 13  1  0  0  0
 13 14  1  0  0  0
 13 15  2  0  0  0
 15 16  1  0  0  0
 16 17  2  0  0  0
 16 19  1  0  0  0
 17 18  1  0  0  0
 21 23  1  0  0  0
 21 24  1  0  0  0
 22 25  1  0  0  0
 22 26  1  0  0  0
  7 10  1  0  0  0
M  CHG 1  18  -1
M  CHG 1  22   1
M  END
> <minimizedAffinity>
-6.99752

$$$$
1O3I_907_A_246


 26 28  0  0  0  0  0  0  0  0999 V2000
   44.0513    1.5542   35.0165 C   0  0  0  0  0  0  0  0  0  0  0  0
   42.8004    0.9523   35.2840 C   0  0  0  0  0  0  0  0  0  0  0  0
   42.2559   -0.0087   34.4388 C   0  0  0  0  0  0  0  0  0  0  0  0
   42.9565   -0.3821   33.3214 C   0  0  0  0  0  0  0  0  0  0  0  0
   44.1515    0.1746   33.0224 C   0  0  0  0  0  0  0  0  0  0  0  0
   44.7485    1.1477   33.8350 C   0  0  0  0  0  0  0  0  0  0  0  0
   42.6484   -1.2617   32.4048 N   0  0  0  0  0  0  0  0  0  0  0  0
   44.5765   -0.4154   31.8583 C   0  0  0  0  0  0  0  0  0  0  0  0
   43.5863   -1.3309   31.5029 C   0  0  0  0  0  0  0  0  0  0  0  0
   41.8224   -1.7975   32.3971 H   0  0  0  0  0  0  0  0  0  0  0  0
   43.5752   -2.2298   30.4085 C   0  0  0  0  0  0  0  0  0  0  0  0
   43.9406   -1.7980   29.1220 C   0  0  0  0  0  0  0  0  0  0  0  0
   43.9363   -2.7011   28.0299 C   0  0  0  0  0  0  0  0  0  0  0  0
   44.3308   -2.2870   26.6337 C   0  0  0  0  0  0  0  0  0  0  0  0
   43.5794   -4.0045   28.1980 C   0  0  0  0  0  0  0  0  0  0  0  0
   43.2305   -4.4162   29.4382 C   0  0  0  0  0  0  0  0  0  0  0  0
   43.2114   -3.5696   30.5641 C   0  0  0  0  0  0  0  0  0  0  0  0
   42.8271   -4.0698   31.7985 O   0  0  0  0  0  0  0  0  0  0  0  0
   42.7858   -6.2718   29.5544 Br  0  0  0  0  0  0  0  0  0  0  0  0
   44.5725    2.5347   35.9301 C   0  0  0  0  0  0  0  0  0  0  0  0
   45.8293    2.4915   36.3493 N   0  0  0  0  0  0  0  0  0  0  0  0
   43.7565    3.4837   36.3426 N   0  0  0  0  0  0  0  0  0  0  0  0
   46.4292    1.7774   36.0339 H   0  0  0  0  0  0  0  0  0  0  0  0
   46.1629    3.1735   36.9762 H   0  0  0  0  0  0  0  0  0  0  0  0
   42.8253    3.5050   36.0239 H   0  0  0  0  0  0  0  0  0  0  0  0
   44.0782    4.1713   36.9694 H   0  0  0  0  0  0  0  0  0  0  0  0
  1  2  2  0  0  0
  1  6  1  0  0  0
  1 20  1  0  0  0
  2  3  1  0  0  0
  3  4  2  0  0  0
  4  5  1  0  0  0
  4  7  1  0  0  0
  5  6  2  0  0  0
  5  8  1  0  0  0
 20 21  1  0  0  0
 20 22  2  0  0  0
  7  9  1  0  0  0
  8  9  2  0  0  0
  9 11  1  0  0  0
 11 12  2  0  0  0
 11 17  1  0  0  0
 12 13  1  0  0  0
 13 14  1  0  0  0
 13 15  2  0  0  0
 15 16  1  0  0  0
 16 17  2  0  0  0
 16 19  1  0  0  0
 17 18  1  0  0  0
 21 23  1  0  0  0
 21 24  1  0  0  0
 22 25  1  0  0  0
 22 26  1  0  0  0
  7 10  1  0  0  0
M  CHG 1  18  -1
M  CHG 1  22   1
M  END
> <minimizedAffinity>
-6.50693

$$$$
