2QWB_SIA_A_800
  RCSB PDB12061706513D
Coordinates from PDB:2QWB:A:800 Model:1 without hydrogens
 21 21  0  0  0  0            999 V2000
   23.7280   19.8370   64.9840   C 0  0  0  0  0  0  0  0  0  0  0  0
   24.5860   18.6640   64.5290   C 0  0  0  0  0  0  0  0  0  0  0  0
   23.6070   17.6050   63.9200   C 0  0  0  0  0  0  0  0  0  0  0  0
   24.2190   16.8050   62.7910   C 0  0  0  0  0  0  0  0  0  0  0  0
   25.7570   16.8310   62.8300   C 0  0  0  0  0  0  0  0  0  0  0  0
   26.2740   18.2280   62.6740   C 0  0  0  0  0  0  0  0  0  0  0  0
   27.7770   18.3750   62.9660   C 0  0  0  0  0  0  0  0  0  0  0  0
   28.2180   19.8470   62.7670   C 0  0  0  0  0  0  0  0  0  0  0  0
   29.7330   19.9880   63.0740   C 0  0  0  0  0  0  0  0  0  0  0  0
   26.9900   15.0050   61.7830   C 0  0  0  0  0  0  0  0  0  0  0  0
   27.4530   14.2730   60.5880   C 0  0  0  0  0  0  0  0  0  0  0  0
   26.2350   16.0890   61.6450   N 0  0  0  0  0  0  0  0  0  0  0  0
   22.5170   19.7150   65.2880   O 0  0  0  0  0  0  0  0  0  0  0  0
   24.3390   20.9240   64.9930   O 0  0  0  0  0  0  0  0  0  0  0  0
   25.2890   18.1400   65.6500   O 0  0  0  0  0  0  0  0  0  0  0  0
   23.7990   15.4950   62.8360   O 0  0  0  0  0  0  0  0  0  0  0  0
   25.5780   19.1040   63.5680   O 0  0  0  0  0  0  0  0  0  0  0  0
   28.0060   17.9880   64.2750   O 0  0  0  0  0  0  0  0  0  0  0  0
   27.9290   20.0430   61.4080   O 0  0  0  0  0  0  0  0  0  0  0  0
   30.4070   19.4510   62.0060   O 0  0  0  0  0  0  0  0  0  0  0  0
   27.3030   14.5510   62.8850   O 0  0  0  0  0  0  0  0  0  0  0  0
  1  2  1  0  0  0  0
  1 13  2  0  0  0  0
  1 14  1  0  0  0  0
  2  3  1  0  0  0  0
  2 15  1  0  0  0  0
  2 17  1  0  0  0  0
  3  4  1  0  0  0  0
  4  5  1  0  0  0  0
  4 16  1  0  0  0  0
  5  6  1  0  0  0  0
  5 12  1  0  0  0  0
  6  7  1  0  0  0  0
  6 17  1  0  0  0  0
  7  8  1  0  0  0  0
  7 18  1  0  0  0  0
  8  9  1  0  0  0  0
  8 19  1  0  0  0  0
  9 20  1  0  0  0  0
 10 11  1  0  0  0  0
 10 12  1  0  0  0  0
 10 21  2  0  0  0  0
A    1
C1
A    2
C2
A    3
C3
A    4
C4
A    5
C5
A    6
C6
A    7
C7
A    8
C8
A    9
C9
A   10
C10
A   11
C11
A   12
N5
A   13
O1A
A   14
O1B
A   15
O2
A   16
O4
A   17
O6
A   18
O7
A   19
O8
A   20
O9
A   21
O10
M  END
>  <InstanceId>
2QWB_SIA_A_800

>  <ChemCompId>
SIA

>  <PdbId>
2QWB

>  <ChainId>
A

>  <ResidueNumber>
800

>  <InsertionCode>


>  <Model>
1

>  <AltIds>


>  <MissingHeavyAtoms>
0

>  <ObservedFormula>
C11 N O9

>  <Name>
O-SIALIC ACID

>  <SystematicName>
(2R,4S,5R,6R)-5-acetamido-2,4-dihydroxy-6-[(1R,2R)-1,2,3-trihydroxypropyl]oxane-2-carboxylic acid

>  <Synonyms>


>  <Type>
NON-POLYMER

>  <Formula>
C11 H19 N O9

>  <MolecularWeight>
309.27

>  <ModifiedDate>
2011-06-04

>  <Parent>


>  <OneLetterCode>


>  <SubcomponentList>


>  <AmbiguousFlag>
N

>  <InChI>
InChI=1S/C11H19NO9/c1-4(14)12-7-5(15)2-11(20,10(18)19)21-9(7)8(17)6(16)3-13/h5-9,13,15-17,20H,2-3H2,1H3,(H,12,14)(H,18,19)/t5-,6+,7+,8+,9+,11+/m0/s1

>  <InChIKey>
SQVRNKJHWKZAKO-YRMXFSIDSA-N

>  <SMILES>
CC(=O)N[C@@H]1[C@H](C[C@@](O[C@H]1[C@@H]([C@@H](CO)O)O)(C(=O)O)O)O

$$$$
