5EWY_5TQ_A_301
  RCSB PDB12061717333D
Coordinates from PDB:5EWY:A:301 Model:1 without hydrogens
 22 24  0  0  0  0            999 V2000
   21.8790   32.5160   22.2180   N 0  0  0  0  0  0  0  0  0  0  0  0
   22.3240   31.2600   22.2510   C 0  0  0  0  0  0  0  0  0  0  0  0
   20.4720   32.8260   22.6280   C 0  0  0  0  0  0  0  0  0  0  0  0
   18.8160   31.8560   20.9590   C 0  0  0  0  0  0  0  0  0  0  0  0
   27.2110   35.0550   20.5190   C 0  0  0  0  0  0  0  0  0  0  0  0
   26.8170   36.3860   20.5260   C 0  0  0  0  0  0  0  0  0  0  0  0
   25.5190   36.7460   20.8720   C 0  0  0  0  0  0  0  0  0  0  0  0
   24.5970   35.7590   21.1940   C 0  0  0  0  0  0  0  0  0  0  0  0
   24.9750   34.4020   21.2160   C 0  0  0  0  0  0  0  0  0  0  0  0
   26.2910   34.0620   20.8570   C 0  0  0  0  0  0  0  0  0  0  0  0
   26.7030   32.6640   20.8880   C 0  0  0  0  0  0  0  0  0  0  0  0
   24.0400   33.3550   21.5530   C 0  0  0  0  0  0  0  0  0  0  0  0
   24.5260   32.0170   21.5410   C 0  0  0  0  0  0  0  0  0  0  0  0
   25.8020   31.7130   21.1980   N 0  0  0  0  0  0  0  0  0  0  0  0
   22.7020   33.5490   21.9240   C 0  0  0  0  0  0  0  0  0  0  0  0
   23.5940   30.9570   21.8820   C 0  0  0  0  0  0  0  0  0  0  0  0
   19.4260   31.7570   22.3430   C 0  0  0  0  0  0  0  0  0  0  0  0
   19.6560   31.1230   19.9330   C 0  0  0  0  0  0  0  0  0  0  0  0
   27.8800   32.3360   20.5840   O 0  0  0  0  0  0  0  0  0  0  0  0
   27.7060   37.3290   20.2110   F 0  0  0  0  0  0  0  0  0  0  0  0
   19.0860   30.3760   19.0950   O 0  0  0  0  0  0  0  0  0  0  0  0
   20.8920   31.2650   19.9360   O 0  0  0  0  0  0  0  0  0  0  0  0
 21 18  2  0  0  0  0
 18 22  1  0  0  0  0
 18  4  1  0  0  0  0
 20  6  1  0  0  0  0
  5  6  2  0  0  0  0
  5 10  1  0  0  0  0
  6  7  1  0  0  0  0
 19 11  2  0  0  0  0
 10 11  1  0  0  0  0
 10  9  2  0  0  0  0
  7  8  2  0  0  0  0
 11 14  1  0  0  0  0
  4 17  1  0  0  0  0
  8  9  1  0  0  0  0
 14 13  1  0  0  0  0
  9 12  1  0  0  0  0
 13 12  2  0  0  0  0
 13 16  1  0  0  0  0
 12 15  1  0  0  0  0
 16  2  1  0  0  0  0
 15  1  1  0  0  0  0
  1  2  1  0  0  0  0
  1  3  1  0  0  0  0
 17  3  1  0  0  0  0
A    1
N12
A    2
C13
A    3
C15
A    4
C17
A    5
C01
A    6
C02
A    7
C03
A    8
C04
A    9
C05
A   10
C06
A   11
C07
A   12
C08
A   13
C09
A   14
N10
A   15
C11
A   16
C14
A   17
C16
A   18
C18
A   19
O19
A   20
F20
A   21
O21
A   22
O22
M  END
>  <InstanceId>
5EWY_5TQ_A_301

>  <ChemCompId>
5TQ

>  <PdbId>
5EWY

>  <ChainId>
A

>  <ResidueNumber>
301

>  <InsertionCode>


>  <Model>
1

>  <AltIds>


>  <MissingHeavyAtoms>
0

>  <ObservedFormula>
C16 N2 O3 F

>  <Name>
4-(8-fluoranyl-6-oxidanylidene-1,3,4,5-tetrahydrobenzo[c][1,6]naphthyridin-2-yl)butanoic acid

>  <SystematicName>
4-(8-fluoranyl-6-oxidanylidene-1,3,4,5-tetrahydrobenzo[c][1,6]naphthyridin-2-yl)butanoic acid

>  <Synonyms>


>  <Type>
NON-POLYMER

>  <Formula>
C16 H17 F N2 O3

>  <MolecularWeight>
304.316

>  <ModifiedDate>
2016-03-18

>  <Parent>


>  <OneLetterCode>


>  <SubcomponentList>


>  <AmbiguousFlag>
N

>  <InChI>
InChI=1S/C16H17FN2O3/c17-10-3-4-11-12(8-10)16(22)18-14-5-7-19(9-13(11)14)6-1-2-15(20)21/h3-4,8H,1-2,5-7,9H2,(H,18,22)(H,20,21)

>  <InChIKey>
HXURHTYUPWDBOT-UHFFFAOYSA-N

>  <SMILES>
c1cc2c(cc1F)C(=O)NC3=C2CN(CC3)CCCC(=O)O

$$$$
