5LSH_KTS_A_205


 61 64  0  0  0  0  0  0  0  0999 V2000
    2.8150   16.9373    3.5399 O   0  0  0  0  0  0  0  0  0  0  0  0
    3.9647   16.8976    2.6748 C   0  0  0  0  0  0  0  0  0  0  0  0
    5.0452   16.0584    3.3188 C   0  0  0  0  0  0  0  0  0  0  0  0
    3.6555   16.3525    1.2858 C   0  0  0  0  0  0  0  0  0  0  0  0
    4.9411   16.2895    0.4584 C   0  0  0  0  0  0  0  0  0  0  0  0
    5.4105   17.6206    0.1884 O   0  0  0  0  0  0  0  0  0  0  0  0
    6.0349   15.5644    1.2324 C   0  0  0  0  0  0  0  0  0  0  0  0
    6.2341   16.1634    2.5214 O   0  0  0  0  0  0  0  0  0  0  0  0
    2.1199   17.4750    3.1295 H   0  0  0  0  0  0  0  0  0  0  0  0
    5.5999   18.0727    1.0255 H   0  0  0  0  0  0  0  0  0  0  0  0
    7.3421   15.6274    0.4620 C   0  0  0  0  0  0  0  0  0  0  0  0
    7.0888   15.5423   -0.9467 O   0  0  0  0  0  0  0  0  0  0  0  0
    6.5270   16.2844   -1.2196 H   0  0  0  0  0  0  0  0  0  0  0  0
    4.5274   14.7217    3.4019 O   0  0  0  0  0  0  0  0  0  0  0  0
    4.5843   14.1900    4.7226 C   0  0  0  0  0  0  0  0  0  0  0  0
    3.2394   14.1326    5.4433 C   0  0  0  0  0  0  0  0  0  0  0  0
    2.5979   12.8750    5.2298 O   0  0  0  0  0  0  0  0  0  0  0  0
    3.5939   14.2694    6.9162 C   0  0  0  0  0  0  0  0  0  0  0  0
    4.9957   14.5874    6.9277 O   0  0  0  0  0  0  0  0  0  0  0  0
    5.4207   15.0686    5.6398 C   0  0  0  0  0  0  0  0  0  0  0  0
    3.1778   12.1602    5.5360 H   0  0  0  0  0  0  0  0  0  0  0  0
    6.9151   14.9382    5.3363 C   0  0  0  0  0  0  0  0  0  0  0  0
    7.4486   13.8115    6.0449 O   0  0  0  0  0  0  0  0  0  0  0  0
    7.3667   13.9617    6.9997 H   0  0  0  0  0  0  0  0  0  0  0  0
    7.7299   16.2017    5.5939 C   0  0  0  0  0  0  0  0  0  0  0  0
    6.9678   17.1471    6.3362 O   0  0  0  0  0  0  0  0  0  0  0  0
    6.1752   17.3903    5.8327 H   0  0  0  0  0  0  0  0  0  0  0  0
    2.6800   15.0973    7.5900 O   0  0  0  0  0  0  0  0  0  0  0  0
    1.3167   14.6761    7.7051 C   0  0  0  0  0  0  0  0  0  0  0  0
    1.1305   13.3636    8.4652 C   0  0  0  0  0  0  0  0  0  0  0  0
    0.1985   13.5699    9.6414 C   0  0  0  0  0  0  0  0  0  0  0  0
    2.7192   17.2473    0.7001 O   0  0  0  0  0  0  0  0  0  0  0  0
    1.5169   16.6043    0.3090 C   0  0  0  0  0  0  0  0  0  0  0  0
    1.7349   15.0976    0.1759 C   0  0  0  0  0  0  0  0  0  0  0  0
    2.1030   14.6853   -1.1514 O   0  0  0  0  0  0  0  0  0  0  0  0
    0.3364   14.6052    0.5143 C   0  0  0  0  0  0  0  0  0  0  0  0
    0.0217   15.4915    1.7152 C   0  0  0  0  0  0  0  0  0  0  0  0
    0.4913   16.7800    1.3004 O   0  0  0  0  0  0  0  0  0  0  0  0
    1.4277   14.9824   -1.7812 H   0  0  0  0  0  0  0  0  0  0  0  0
   -1.4585   15.5670    2.0863 C   0  0  0  0  0  0  0  0  0  0  0  0
   -1.9166   16.9373    1.9744 O   0  0  0  0  0  0  0  0  0  0  0  0
   -1.4081   17.4988    2.5803 H   0  0  0  0  0  0  0  0  0  0  0  0
   -1.6653   15.0757    3.5142 C   0  0  0  0  0  0  0  0  0  0  0  0
   -0.4259   15.0685    4.2170 O   0  0  0  0  0  0  0  0  0  0  0  0
   -0.0650   15.9684    4.2451 H   0  0  0  0  0  0  0  0  0  0  0  0
    0.3121   13.2400    0.8779 O   0  0  0  0  0  0  0  0  0  0  0  0
    1.2890   12.9923    1.9142 C   0  0  0  0  0  0  0  0  0  0  0  0
    2.1219   11.7884    1.5153 C   0  0  0  0  0  0  0  0  0  0  0  0
    2.6774   12.0477    0.2233 O   0  0  0  0  0  0  0  0  0  0  0  0
    1.2511   10.5405    1.4492 C   0  0  0  0  0  0  0  0  0  0  0  0
    2.0354    9.3732    1.1725 O   0  0  0  0  0  0  0  0  0  0  0  0
    0.6410   10.3807    2.8283 C   0  0  0  0  0  0  0  0  0  0  0  0
    1.6880   10.2116    3.8064 O   0  0  0  0  0  0  0  0  0  0  0  0
   -0.1943   11.6165    3.1557 C   0  0  0  0  0  0  0  0  0  0  0  0
    0.6477   12.7879    3.1895 O   0  0  0  0  0  0  0  0  0  0  0  0
    1.9604   12.1931   -0.4136 H   0  0  0  0  0  0  0  0  0  0  0  0
    2.7055    9.2623    1.8650 H   0  0  0  0  0  0  0  0  0  0  0  0
    2.2664   10.9902    3.7988 H   0  0  0  0  0  0  0  0  0  0  0  0
   -0.7970   11.4489    4.5479 C   0  0  0  0  0  0  0  0  0  0  0  0
   -0.0431   12.2158    5.4955 O   0  0  0  0  0  0  0  0  0  0  0  0
    0.8760   11.9056    5.5044 H   0  0  0  0  0  0  0  0  0  0  0  0
 44 43  1  0  0  0
 43 40  1  0  0  0
 12 11  1  0  0  0
 11  7  1  0  0  0
 40 41  1  0  0  0
 40 37  1  0  0  0
 30 31  1  0  0  0
 30 29  1  0  0  0
  6  5  1  0  0  0
 49 48  1  0  0  0
  7  5  1  0  0  0
  7  8  1  0  0  0
 37 38  1  0  0  0
 37 36  1  0  0  0
 29 28  1  0  0  0
  5  4  1  0  0  0
 38 33  1  0  0  0
  8  3  1  0  0  0
 48 47  1  0  0  0
 48 50  1  0  0  0
 46 36  1  0  0  0
 46 47  1  0  0  0
 28 18  1  0  0  0
 36 34  1  0  0  0
 47 55  1  0  0  0
  4 32  1  0  0  0
  4  2  1  0  0  0
 33 32  1  0  0  0
 33 34  1  0  0  0
 17 16  1  0  0  0
 51 50  1  0  0  0
 16 18  1  0  0  0
 16 15  1  0  0  0
 50 52  1  0  0  0
  3  2  1  0  0  0
  3 14  1  0  0  0
 34 35  1  0  0  0
  2  1  1  0  0  0
 18 19  1  0  0  0
 14 15  1  0  0  0
 55 54  1  0  0  0
 15 20  1  0  0  0
 52 53  1  0  0  0
 52 54  1  0  0  0
 19 20  1  0  0  0
 20 22  1  0  0  0
 54 59  1  0  0  0
 22 25  1  0  0  0
 22 23  1  0  0  0
 59 60  1  0  0  0
 25 26  1  0  0  0
  1  9  1  0  0  0
 17 21  1  0  0  0
 23 24  1  0  0  0
 26 27  1  0  0  0
  6 10  1  0  0  0
 12 13  1  0  0  0
 35 39  1  0  0  0
 44 45  1  0  0  0
 41 42  1  0  0  0
 49 56  1  0  0  0
 51 57  1  0  0  0
 53 58  1  0  0  0
 60 61  1  0  0  0
M  END
> <minimizedAffinity>
-8.09636

$$$$
5LSH_KTS_A_205


 61 64  0  0  0  0  0  0  0  0999 V2000
   -0.0541   16.9023    2.0830 O   0  0  0  0  0  0  0  0  0  0  0  0
    1.3220   17.0315    1.6811 C   0  0  0  0  0  0  0  0  0  0  0  0
    2.2147   16.8285    2.8846 C   0  0  0  0  0  0  0  0  0  0  0  0
    1.7223   16.0578    0.5793 C   0  0  0  0  0  0  0  0  0  0  0  0
    3.2094   16.2234    0.2597 C   0  0  0  0  0  0  0  0  0  0  0  0
    3.4363   17.5081   -0.3433 O   0  0  0  0  0  0  0  0  0  0  0  0
    4.0366   16.1628    1.5377 C   0  0  0  0  0  0  0  0  0  0  0  0
    3.5662   17.1195    2.4987 O   0  0  0  0  0  0  0  0  0  0  0  0
   -0.6294   17.0320    1.3129 H   0  0  0  0  0  0  0  0  0  0  0  0
    3.1702   18.2068    0.2747 H   0  0  0  0  0  0  0  0  0  0  0  0
    5.4920   16.4646    1.2265 C   0  0  0  0  0  0  0  0  0  0  0  0
    6.0785   17.2195    2.2952 O   0  0  0  0  0  0  0  0  0  0  0  0
    6.0327   16.7060    3.1168 H   0  0  0  0  0  0  0  0  0  0  0  0
    2.0204   15.4714    3.3115 O   0  0  0  0  0  0  0  0  0  0  0  0
    2.2765   15.2890    4.7012 C   0  0  0  0  0  0  0  0  0  0  0  0
    3.7541   15.1591    5.0637 C   0  0  0  0  0  0  0  0  0  0  0  0
    4.3173   16.4326    5.3791 O   0  0  0  0  0  0  0  0  0  0  0  0
    3.7620   14.2864    6.3096 C   0  0  0  0  0  0  0  0  0  0  0  0
    2.4057   13.8304    6.4464 O   0  0  0  0  0  0  0  0  0  0  0  0
    1.6891   13.9808    5.2075 C   0  0  0  0  0  0  0  0  0  0  0  0
    3.8223   16.8328    6.1110 H   0  0  0  0  0  0  0  0  0  0  0  0
    0.1646   14.0540    5.3207 C   0  0  0  0  0  0  0  0  0  0  0  0
   -0.3553   14.8476    4.2454 O   0  0  0  0  0  0  0  0  0  0  0  0
   -0.0227   15.7554    4.3234 H   0  0  0  0  0  0  0  0  0  0  0  0
   -0.3512   14.5333    6.6737 C   0  0  0  0  0  0  0  0  0  0  0  0
   -0.3953   13.4566    7.6035 O   0  0  0  0  0  0  0  0  0  0  0  0
   -0.9936   12.7683    7.2731 H   0  0  0  0  0  0  0  0  0  0  0  0
    4.8160   13.3575    6.2797 O   0  0  0  0  0  0  0  0  0  0  0  0
    5.6617   13.3049    5.1259 C   0  0  0  0  0  0  0  0  0  0  0  0
    7.1406   13.5484    5.4240 C   0  0  0  0  0  0  0  0  0  0  0  0
    7.5114   14.9785    5.0891 C   0  0  0  0  0  0  0  0  0  0  0  0
    0.9222   16.3766   -0.5514 O   0  0  0  0  0  0  0  0  0  0  0  0
    0.0472   15.3224   -0.9188 C   0  0  0  0  0  0  0  0  0  0  0  0
    0.7061   13.9672   -0.6648 C   0  0  0  0  0  0  0  0  0  0  0  0
    1.4158   13.4508   -1.8037 O   0  0  0  0  0  0  0  0  0  0  0  0
   -0.5317   13.1281   -0.3875 C   0  0  0  0  0  0  0  0  0  0  0  0
   -1.3027   14.0779    0.5236 C   0  0  0  0  0  0  0  0  0  0  0  0
   -1.1512   15.3461   -0.1258 O   0  0  0  0  0  0  0  0  0  0  0  0
    0.8128   13.3927   -2.5613 H   0  0  0  0  0  0  0  0  0  0  0  0
   -2.7851   13.7465    0.6883 C   0  0  0  0  0  0  0  0  0  0  0  0
   -3.5475   14.4065   -0.3526 O   0  0  0  0  0  0  0  0  0  0  0  0
   -3.4268   15.3664   -0.2825 H   0  0  0  0  0  0  0  0  0  0  0  0
   -3.2766   14.2131    2.0535 C   0  0  0  0  0  0  0  0  0  0  0  0
   -2.5166   15.3350    2.4936 O   0  0  0  0  0  0  0  0  0  0  0  0
   -2.6171   16.0623    1.8597 H   0  0  0  0  0  0  0  0  0  0  0  0
   -0.2329   11.9209    0.2834 O   0  0  0  0  0  0  0  0  0  0  0  0
    0.7509   12.1645    1.3140 C   0  0  0  0  0  0  0  0  0  0  0  0
    1.8199   11.0913    1.2250 C   0  0  0  0  0  0  0  0  0  0  0  0
    2.3392   11.0988   -0.1073 O   0  0  0  0  0  0  0  0  0  0  0  0
    1.2227    9.7230    1.5264 C   0  0  0  0  0  0  0  0  0  0  0  0
    2.2340    8.7075    1.5468 O   0  0  0  0  0  0  0  0  0  0  0  0
    0.6278    9.8218    2.9178 C   0  0  0  0  0  0  0  0  0  0  0  0
    1.6655   10.1377    3.8689 O   0  0  0  0  0  0  0  0  0  0  0  0
   -0.4485   10.9051    2.9295 C   0  0  0  0  0  0  0  0  0  0  0  0
    0.1366   12.1869    2.6185 O   0  0  0  0  0  0  0  0  0  0  0  0
    1.6219   10.9191   -0.7350 H   0  0  0  0  0  0  0  0  0  0  0  0
    2.8973    8.9252    2.2204 H   0  0  0  0  0  0  0  0  0  0  0  0
    2.0734   10.9854    3.6327 H   0  0  0  0  0  0  0  0  0  0  0  0
   -1.0349   11.0015    4.3353 C   0  0  0  0  0  0  0  0  0  0  0  0
   -0.7364    9.8048    5.0656 O   0  0  0  0  0  0  0  0  0  0  0  0
   -1.1235    9.0419    4.6084 H   0  0  0  0  0  0  0  0  0  0  0  0
 44 43  1  0  0  0
 43 40  1  0  0  0
 12 11  1  0  0  0
 11  7  1  0  0  0
 40 41  1  0  0  0
 40 37  1  0  0  0
 30 31  1  0  0  0
 30 29  1  0  0  0
  6  5  1  0  0  0
 49 48  1  0  0  0
  7  5  1  0  0  0
  7  8  1  0  0  0
 37 38  1  0  0  0
 37 36  1  0  0  0
 29 28  1  0  0  0
  5  4  1  0  0  0
 38 33  1  0  0  0
  8  3  1  0  0  0
 48 47  1  0  0  0
 48 50  1  0  0  0
 46 36  1  0  0  0
 46 47  1  0  0  0
 28 18  1  0  0  0
 36 34  1  0  0  0
 47 55  1  0  0  0
  4 32  1  0  0  0
  4  2  1  0  0  0
 33 32  1  0  0  0
 33 34  1  0  0  0
 17 16  1  0  0  0
 51 50  1  0  0  0
 16 18  1  0  0  0
 16 15  1  0  0  0
 50 52  1  0  0  0
  3  2  1  0  0  0
  3 14  1  0  0  0
 34 35  1  0  0  0
  2  1  1  0  0  0
 18 19  1  0  0  0
 14 15  1  0  0  0
 55 54  1  0  0  0
 15 20  1  0  0  0
 52 53  1  0  0  0
 52 54  1  0  0  0
 19 20  1  0  0  0
 20 22  1  0  0  0
 54 59  1  0  0  0
 22 25  1  0  0  0
 22 23  1  0  0  0
 59 60  1  0  0  0
 25 26  1  0  0  0
  1  9  1  0  0  0
 17 21  1  0  0  0
 23 24  1  0  0  0
 26 27  1  0  0  0
  6 10  1  0  0  0
 12 13  1  0  0  0
 35 39  1  0  0  0
 44 45  1  0  0  0
 41 42  1  0  0  0
 49 56  1  0  0  0
 51 57  1  0  0  0
 53 58  1  0  0  0
 60 61  1  0  0  0
M  END
> <minimizedAffinity>
-7.90339

$$$$
5LSH_KTS_A_205


 61 64  0  0  0  0  0  0  0  0999 V2000
    3.7520   13.4567    3.0040 O   0  0  0  0  0  0  0  0  0  0  0  0
    4.8512   14.0364    3.7303 C   0  0  0  0  0  0  0  0  0  0  0  0
    5.6638   14.9049    2.7965 C   0  0  0  0  0  0  0  0  0  0  0  0
    4.4110   14.8572    4.9364 C   0  0  0  0  0  0  0  0  0  0  0  0
    5.6347   15.4826    5.6092 C   0  0  0  0  0  0  0  0  0  0  0  0
    6.4461   14.4517    6.1959 O   0  0  0  0  0  0  0  0  0  0  0  0
    6.4904   16.2120    4.5810 C   0  0  0  0  0  0  0  0  0  0  0  0
    6.8395   15.3417    3.4945 O   0  0  0  0  0  0  0  0  0  0  0  0
    3.2287   12.8988    3.6004 H   0  0  0  0  0  0  0  0  0  0  0  0
    6.7476   13.8438    5.5027 H   0  0  0  0  0  0  0  0  0  0  0  0
    7.7686   16.7103    5.2322 C   0  0  0  0  0  0  0  0  0  0  0  0
    7.4605   17.4483    6.4223 O   0  0  0  0  0  0  0  0  0  0  0  0
    6.9928   16.8728    7.0476 H   0  0  0  0  0  0  0  0  0  0  0  0
    4.8049   15.9818    2.3912 O   0  0  0  0  0  0  0  0  0  0  0  0
    4.0079   15.6537    1.2566 C   0  0  0  0  0  0  0  0  0  0  0  0
    4.8007   15.2052    0.0311 C   0  0  0  0  0  0  0  0  0  0  0  0
    4.9635   13.7869    0.0181 O   0  0  0  0  0  0  0  0  0  0  0  0
    3.9369   15.6202   -1.1503 C   0  0  0  0  0  0  0  0  0  0  0  0
    2.8842   16.4117   -0.5744 O   0  0  0  0  0  0  0  0  0  0  0  0
    3.2488   16.8666    0.7413 C   0  0  0  0  0  0  0  0  0  0  0  0
    4.0920   13.3612    0.0330 H   0  0  0  0  0  0  0  0  0  0  0  0
    2.0878   17.2394    1.6662 C   0  0  0  0  0  0  0  0  0  0  0  0
    2.5643   17.3309    3.0156 O   0  0  0  0  0  0  0  0  0  0  0  0
    2.8873   16.4630    3.3041 H   0  0  0  0  0  0  0  0  0  0  0  0
    0.8708   16.3261    1.5604 C   0  0  0  0  0  0  0  0  0  0  0  0
    1.2302   14.9775    1.8389 O   0  0  0  0  0  0  0  0  0  0  0  0
    1.8936   14.6804    1.1966 H   0  0  0  0  0  0  0  0  0  0  0  0
    4.7150   16.1412   -2.1980 O   0  0  0  0  0  0  0  0  0  0  0  0
    5.7209   17.1143   -1.8974 C   0  0  0  0  0  0  0  0  0  0  0  0
    5.3004   18.5557   -2.1821 C   0  0  0  0  0  0  0  0  0  0  0  0
    6.3288   19.5185   -1.6252 C   0  0  0  0  0  0  0  0  0  0  0  0
    3.7521   13.9578    5.8180 O   0  0  0  0  0  0  0  0  0  0  0  0
    2.6353   14.5447    6.4662 C   0  0  0  0  0  0  0  0  0  0  0  0
    1.3706   14.3549    5.6297 C   0  0  0  0  0  0  0  0  0  0  0  0
    1.1112   15.4423    4.7255 O   0  0  0  0  0  0  0  0  0  0  0  0
    0.3306   14.3295    6.7391 C   0  0  0  0  0  0  0  0  0  0  0  0
    1.0348   13.4281    7.7482 C   0  0  0  0  0  0  0  0  0  0  0  0
    2.3829   13.9134    7.7325 O   0  0  0  0  0  0  0  0  0  0  0  0
    1.0606   16.2726    5.2244 H   0  0  0  0  0  0  0  0  0  0  0  0
    0.4712   13.4907    9.1669 C   0  0  0  0  0  0  0  0  0  0  0  0
   -0.8365   12.8667    9.1965 O   0  0  0  0  0  0  0  0  0  0  0  0
   -1.4340   13.3395    8.5962 H   0  0  0  0  0  0  0  0  0  0  0  0
    0.3539   14.9413    9.6194 C   0  0  0  0  0  0  0  0  0  0  0  0
    1.6480   15.5236    9.7470 O   0  0  0  0  0  0  0  0  0  0  0  0
    2.0996   15.4992    8.8889 H   0  0  0  0  0  0  0  0  0  0  0  0
   -0.8941   13.7589    6.3254 O   0  0  0  0  0  0  0  0  0  0  0  0
   -0.6498   12.4840    5.6895 C   0  0  0  0  0  0  0  0  0  0  0  0
   -1.3087   12.4915    4.3227 C   0  0  0  0  0  0  0  0  0  0  0  0
   -0.8106   13.6216    3.6016 O   0  0  0  0  0  0  0  0  0  0  0  0
   -2.8206   12.6097    4.4646 C   0  0  0  0  0  0  0  0  0  0  0  0
   -3.4711   12.5175    3.1906 O   0  0  0  0  0  0  0  0  0  0  0  0
   -3.2577   11.4235    5.3022 C   0  0  0  0  0  0  0  0  0  0  0  0
   -2.9107   10.1970    4.6266 O   0  0  0  0  0  0  0  0  0  0  0  0
   -2.5716   11.4894    6.6650 C   0  0  0  0  0  0  0  0  0  0  0  0
   -1.1405   11.3993    6.5031 O   0  0  0  0  0  0  0  0  0  0  0  0
   -1.0224   14.4340    4.0874 H   0  0  0  0  0  0  0  0  0  0  0  0
   -3.2516   11.6685    2.7762 H   0  0  0  0  0  0  0  0  0  0  0  0
   -1.9504   10.1611    4.4945 H   0  0  0  0  0  0  0  0  0  0  0  0
   -3.0121   10.2877    7.4966 C   0  0  0  0  0  0  0  0  0  0  0  0
   -4.3228    9.8740    7.0900 O   0  0  0  0  0  0  0  0  0  0  0  0
   -4.9482   10.6033    7.2241 H   0  0  0  0  0  0  0  0  0  0  0  0
 44 43  1  0  0  0
 43 40  1  0  0  0
 12 11  1  0  0  0
 11  7  1  0  0  0
 40 41  1  0  0  0
 40 37  1  0  0  0
 30 31  1  0  0  0
 30 29  1  0  0  0
  6  5  1  0  0  0
 49 48  1  0  0  0
  7  5  1  0  0  0
  7  8  1  0  0  0
 37 38  1  0  0  0
 37 36  1  0  0  0
 29 28  1  0  0  0
  5  4  1  0  0  0
 38 33  1  0  0  0
  8  3  1  0  0  0
 48 47  1  0  0  0
 48 50  1  0  0  0
 46 36  1  0  0  0
 46 47  1  0  0  0
 28 18  1  0  0  0
 36 34  1  0  0  0
 47 55  1  0  0  0
  4 32  1  0  0  0
  4  2  1  0  0  0
 33 32  1  0  0  0
 33 34  1  0  0  0
 17 16  1  0  0  0
 51 50  1  0  0  0
 16 18  1  0  0  0
 16 15  1  0  0  0
 50 52  1  0  0  0
  3  2  1  0  0  0
  3 14  1  0  0  0
 34 35  1  0  0  0
  2  1  1  0  0  0
 18 19  1  0  0  0
 14 15  1  0  0  0
 55 54  1  0  0  0
 15 20  1  0  0  0
 52 53  1  0  0  0
 52 54  1  0  0  0
 19 20  1  0  0  0
 20 22  1  0  0  0
 54 59  1  0  0  0
 22 25  1  0  0  0
 22 23  1  0  0  0
 59 60  1  0  0  0
 25 26  1  0  0  0
  1  9  1  0  0  0
 17 21  1  0  0  0
 23 24  1  0  0  0
 26 27  1  0  0  0
  6 10  1  0  0  0
 12 13  1  0  0  0
 35 39  1  0  0  0
 44 45  1  0  0  0
 41 42  1  0  0  0
 49 56  1  0  0  0
 51 57  1  0  0  0
 53 58  1  0  0  0
 60 61  1  0  0  0
M  END
> <minimizedAffinity>
-7.83733

$$$$
5LSH_KTS_A_205


 61 64  0  0  0  0  0  0  0  0999 V2000
    1.1697   16.0316    3.3953 O   0  0  0  0  0  0  0  0  0  0  0  0
    2.4208   16.2537    2.7193 C   0  0  0  0  0  0  0  0  0  0  0  0
    3.5509   15.7275    3.5752 C   0  0  0  0  0  0  0  0  0  0  0  0
    2.4835   15.6094    1.3397 C   0  0  0  0  0  0  0  0  0  0  0  0
    3.8641   15.8436    0.7232 C   0  0  0  0  0  0  0  0  0  0  0  0
    4.0376   17.2413    0.4376 O   0  0  0  0  0  0  0  0  0  0  0  0
    4.9582   15.4349    1.7016 C   0  0  0  0  0  0  0  0  0  0  0  0
    4.7937   16.1013    2.9621 O   0  0  0  0  0  0  0  0  0  0  0  0
    0.4426   16.3682    2.8485 H   0  0  0  0  0  0  0  0  0  0  0  0
    3.9731   17.7500    1.2610 H   0  0  0  0  0  0  0  0  0  0  0  0
    6.3199   15.7982    1.1359 C   0  0  0  0  0  0  0  0  0  0  0  0
    6.3639   15.5086   -0.2677 O   0  0  0  0  0  0  0  0  0  0  0  0
    5.6845   16.0271   -0.7263 H   0  0  0  0  0  0  0  0  0  0  0  0
    3.3630   14.3071    3.6696 O   0  0  0  0  0  0  0  0  0  0  0  0
    3.4091   13.8333    5.0125 C   0  0  0  0  0  0  0  0  0  0  0  0
    2.1677   14.1526    5.8423 C   0  0  0  0  0  0  0  0  0  0  0  0
    1.2128   13.0942    5.7624 O   0  0  0  0  0  0  0  0  0  0  0  0
    2.6833   14.2542    7.2698 C   0  0  0  0  0  0  0  0  0  0  0  0
    4.1145   14.2019    7.1470 O   0  0  0  0  0  0  0  0  0  0  0  0
    4.5230   14.5046    5.8008 C   0  0  0  0  0  0  0  0  0  0  0  0
    1.6201   12.2677    6.0654 H   0  0  0  0  0  0  0  0  0  0  0  0
    5.9005   13.9826    5.3858 C   0  0  0  0  0  0  0  0  0  0  0  0
    6.2701   12.8870    6.2339 O   0  0  0  0  0  0  0  0  0  0  0  0
    6.3505   13.1991    7.1488 H   0  0  0  0  0  0  0  0  0  0  0  0
    6.9939   15.0447    5.3307 C   0  0  0  0  0  0  0  0  0  0  0  0
    6.4322   16.3484    5.4338 O   0  0  0  0  0  0  0  0  0  0  0  0
    5.8222   16.4970    4.6944 H   0  0  0  0  0  0  0  0  0  0  0  0
    2.0757   15.3159    7.9614 O   0  0  0  0  0  0  0  0  0  0  0  0
    0.7016   15.1977    8.3450 C   0  0  0  0  0  0  0  0  0  0  0  0
    0.4260   14.0725    9.3417 C   0  0  0  0  0  0  0  0  0  0  0  0
   -0.0510   14.6483   10.6592 C   0  0  0  0  0  0  0  0  0  0  0  0
    1.4685   16.2268    0.5594 O   0  0  0  0  0  0  0  0  0  0  0  0
    0.5356   15.2950    0.0366 C   0  0  0  0  0  0  0  0  0  0  0  0
    0.7237   13.9262    0.6895 C   0  0  0  0  0  0  0  0  0  0  0  0
    1.6216   13.0645   -0.0308 O   0  0  0  0  0  0  0  0  0  0  0  0
   -0.7007   13.4008    0.5989 C   0  0  0  0  0  0  0  0  0  0  0  0
   -1.4741   14.6427    1.0304 C   0  0  0  0  0  0  0  0  0  0  0  0
   -0.8136   15.6993    0.3230 O   0  0  0  0  0  0  0  0  0  0  0  0
    1.3075   12.9598   -0.9425 H   0  0  0  0  0  0  0  0  0  0  0  0
   -2.9611   14.6261    0.6800 C   0  0  0  0  0  0  0  0  0  0  0  0
   -3.5577   13.3949    1.1579 O   0  0  0  0  0  0  0  0  0  0  0  0
   -3.1228   12.6388    0.7334 H   0  0  0  0  0  0  0  0  0  0  0  0
   -3.1437   14.7283   -0.8297 C   0  0  0  0  0  0  0  0  0  0  0  0
   -3.0019   16.0815   -1.2525 O   0  0  0  0  0  0  0  0  0  0  0  0
   -2.1154   16.4009   -1.0224 H   0  0  0  0  0  0  0  0  0  0  0  0
   -0.9427   12.3261    1.4838 O   0  0  0  0  0  0  0  0  0  0  0  0
   -0.1266   12.4738    2.6677 C   0  0  0  0  0  0  0  0  0  0  0  0
    0.4267   11.1126    3.0461 C   0  0  0  0  0  0  0  0  0  0  0  0
    1.1171   10.5880    1.9090 O   0  0  0  0  0  0  0  0  0  0  0  0
   -0.7056   10.1686    3.4291 C   0  0  0  0  0  0  0  0  0  0  0  0
   -0.1993    8.9082    3.8866 O   0  0  0  0  0  0  0  0  0  0  0  0
   -1.4316   10.8307    4.5841 C   0  0  0  0  0  0  0  0  0  0  0  0
   -0.5251   11.0038    5.6930 O   0  0  0  0  0  0  0  0  0  0  0  0
   -1.9749   12.1832    4.1285 C   0  0  0  0  0  0  0  0  0  0  0  0
   -0.8862   13.0511    3.7491 O   0  0  0  0  0  0  0  0  0  0  0  0
    0.5009   10.5110    1.1638 H   0  0  0  0  0  0  0  0  0  0  0  0
    0.3756    9.0503    4.6549 H   0  0  0  0  0  0  0  0  0  0  0  0
    0.2188   11.5624    5.4182 H   0  0  0  0  0  0  0  0  0  0  0  0
   -2.6965   12.8440    5.2999 C   0  0  0  0  0  0  0  0  0  0  0  0
   -1.7433   13.5001    6.1456 O   0  0  0  0  0  0  0  0  0  0  0  0
   -1.1102   12.8486    6.4855 H   0  0  0  0  0  0  0  0  0  0  0  0
 44 43  1  0  0  0
 43 40  1  0  0  0
 12 11  1  0  0  0
 11  7  1  0  0  0
 40 41  1  0  0  0
 40 37  1  0  0  0
 30 31  1  0  0  0
 30 29  1  0  0  0
  6  5  1  0  0  0
 49 48  1  0  0  0
  7  5  1  0  0  0
  7  8  1  0  0  0
 37 38  1  0  0  0
 37 36  1  0  0  0
 29 28  1  0  0  0
  5  4  1  0  0  0
 38 33  1  0  0  0
  8  3  1  0  0  0
 48 47  1  0  0  0
 48 50  1  0  0  0
 46 36  1  0  0  0
 46 47  1  0  0  0
 28 18  1  0  0  0
 36 34  1  0  0  0
 47 55  1  0  0  0
  4 32  1  0  0  0
  4  2  1  0  0  0
 33 32  1  0  0  0
 33 34  1  0  0  0
 17 16  1  0  0  0
 51 50  1  0  0  0
 16 18  1  0  0  0
 16 15  1  0  0  0
 50 52  1  0  0  0
  3  2  1  0  0  0
  3 14  1  0  0  0
 34 35  1  0  0  0
  2  1  1  0  0  0
 18 19  1  0  0  0
 14 15  1  0  0  0
 55 54  1  0  0  0
 15 20  1  0  0  0
 52 53  1  0  0  0
 52 54  1  0  0  0
 19 20  1  0  0  0
 20 22  1  0  0  0
 54 59  1  0  0  0
 22 25  1  0  0  0
 22 23  1  0  0  0
 59 60  1  0  0  0
 25 26  1  0  0  0
  1  9  1  0  0  0
 17 21  1  0  0  0
 23 24  1  0  0  0
 26 27  1  0  0  0
  6 10  1  0  0  0
 12 13  1  0  0  0
 35 39  1  0  0  0
 44 45  1  0  0  0
 41 42  1  0  0  0
 49 56  1  0  0  0
 51 57  1  0  0  0
 53 58  1  0  0  0
 60 61  1  0  0  0
M  END
> <minimizedAffinity>
-7.82457

$$$$
5LSH_KTS_A_205


 61 64  0  0  0  0  0  0  0  0999 V2000
   -1.8654   14.4697    2.8642 O   0  0  0  0  0  0  0  0  0  0  0  0
   -0.7211   15.3407    2.8034 C   0  0  0  0  0  0  0  0  0  0  0  0
    0.2069   15.0266    3.9552 C   0  0  0  0  0  0  0  0  0  0  0  0
    0.0444   15.2398    1.4897 C   0  0  0  0  0  0  0  0  0  0  0  0
    1.2732   16.1503    1.5373 C   0  0  0  0  0  0  0  0  0  0  0  0
    0.8575   17.5257    1.5668 O   0  0  0  0  0  0  0  0  0  0  0  0
    2.0800   15.8866    2.8026 C   0  0  0  0  0  0  0  0  0  0  0  0
    1.2552   16.0070    3.9710 O   0  0  0  0  0  0  0  0  0  0  0  0
   -2.4628   14.6688    2.1263 H   0  0  0  0  0  0  0  0  0  0  0  0
    0.3206   17.6843    2.3589 H   0  0  0  0  0  0  0  0  0  0  0  0
    3.2180   16.8867    2.9080 C   0  0  0  0  0  0  0  0  0  0  0  0
    3.9602   16.6636    4.1143 O   0  0  0  0  0  0  0  0  0  0  0  0
    4.3297   15.7667    4.1054 H   0  0  0  0  0  0  0  0  0  0  0  0
    0.6787   13.6869    3.7445 O   0  0  0  0  0  0  0  0  0  0  0  0
    0.5675   12.8740    4.9094 C   0  0  0  0  0  0  0  0  0  0  0  0
   -0.7965   12.2134    5.0958 C   0  0  0  0  0  0  0  0  0  0  0  0
   -0.8254   10.9203    4.4914 O   0  0  0  0  0  0  0  0  0  0  0  0
   -0.9411   12.0643    6.6027 C   0  0  0  0  0  0  0  0  0  0  0  0
    0.1722   12.7894    7.1513 O   0  0  0  0  0  0  0  0  0  0  0  0
    0.7190   13.6981    6.1786 C   0  0  0  0  0  0  0  0  0  0  0  0
   -0.1258   10.3684    4.8747 H   0  0  0  0  0  0  0  0  0  0  0  0
    2.1714   14.1248    6.4033 C   0  0  0  0  0  0  0  0  0  0  0  0
    2.9448   12.9873    6.8088 O   0  0  0  0  0  0  0  0  0  0  0  0
    2.6131   12.6571    7.6584 H   0  0  0  0  0  0  0  0  0  0  0  0
    2.3496   15.2969    7.3629 C   0  0  0  0  0  0  0  0  0  0  0  0
    2.8990   16.4211    6.6847 O   0  0  0  0  0  0  0  0  0  0  0  0
    3.7674   16.1870    6.3215 H   0  0  0  0  0  0  0  0  0  0  0  0
   -2.2486   12.3592    7.0252 O   0  0  0  0  0  0  0  0  0  0  0  0
   -3.2710   11.3714    6.8576 C   0  0  0  0  0  0  0  0  0  0  0  0
   -4.4116   11.8031    5.9367 C   0  0  0  0  0  0  0  0  0  0  0  0
   -5.7077   11.1500    6.3706 C   0  0  0  0  0  0  0  0  0  0  0  0
   -0.8526   15.6520    0.4671 O   0  0  0  0  0  0  0  0  0  0  0  0
   -1.1896   14.6007   -0.4234 C   0  0  0  0  0  0  0  0  0  0  0  0
   -0.2000   13.4444   -0.2848 C   0  0  0  0  0  0  0  0  0  0  0  0
    0.9135   13.5295   -1.1904 O   0  0  0  0  0  0  0  0  0  0  0  0
   -1.1059   12.2842   -0.6673 C   0  0  0  0  0  0  0  0  0  0  0  0
   -2.3627   12.6546    0.1136 C   0  0  0  0  0  0  0  0  0  0  0  0
   -2.4874   14.0628   -0.1196 O   0  0  0  0  0  0  0  0  0  0  0  0
    0.5858   13.5817   -2.1019 H   0  0  0  0  0  0  0  0  0  0  0  0
   -3.6328   11.9340   -0.3358 C   0  0  0  0  0  0  0  0  0  0  0  0
   -4.3551   12.7667   -1.2766 O   0  0  0  0  0  0  0  0  0  0  0  0
   -4.5986   13.6022   -0.8481 H   0  0  0  0  0  0  0  0  0  0  0  0
   -4.5196   11.6378    0.8678 C   0  0  0  0  0  0  0  0  0  0  0  0
   -3.8693   12.0406    2.0698 O   0  0  0  0  0  0  0  0  0  0  0  0
   -3.6930   12.9940    2.0383 H   0  0  0  0  0  0  0  0  0  0  0  0
   -0.6008   11.0349   -0.2423 O   0  0  0  0  0  0  0  0  0  0  0  0
   -0.3543   11.0658    1.1817 C   0  0  0  0  0  0  0  0  0  0  0  0
    0.9635   10.3668    1.4593 C   0  0  0  0  0  0  0  0  0  0  0  0
    1.9716   10.9999    0.6669 O   0  0  0  0  0  0  0  0  0  0  0  0
    0.8725    8.8948    1.0785 C   0  0  0  0  0  0  0  0  0  0  0  0
    2.0730    8.1929    1.4257 O   0  0  0  0  0  0  0  0  0  0  0  0
   -0.2637    8.3179    1.9006 C   0  0  0  0  0  0  0  0  0  0  0  0
    0.0338    8.4560    3.3054 O   0  0  0  0  0  0  0  0  0  0  0  0
   -1.5571    9.0545    1.5586 C   0  0  0  0  0  0  0  0  0  0  0  0
   -1.4383   10.4499    1.9063 O   0  0  0  0  0  0  0  0  0  0  0  0
    1.7378   10.9277   -0.2717 H   0  0  0  0  0  0  0  0  0  0  0  0
    2.2280    8.2699    2.3801 H   0  0  0  0  0  0  0  0  0  0  0  0
    0.1429    9.3952    3.5221 H   0  0  0  0  0  0  0  0  0  0  0  0
   -2.6919    8.4716    2.3966 C   0  0  0  0  0  0  0  0  0  0  0  0
   -3.0018    9.3629    3.4755 O   0  0  0  0  0  0  0  0  0  0  0  0
   -2.2176    9.4790    4.0344 H   0  0  0  0  0  0  0  0  0  0  0  0
 44 43  1  0  0  0
 43 40  1  0  0  0
 12 11  1  0  0  0
 11  7  1  0  0  0
 40 41  1  0  0  0
 40 37  1  0  0  0
 30 31  1  0  0  0
 30 29  1  0  0  0
  6  5  1  0  0  0
 49 48  1  0  0  0
  7  5  1  0  0  0
  7  8  1  0  0  0
 37 38  1  0  0  0
 37 36  1  0  0  0
 29 28  1  0  0  0
  5  4  1  0  0  0
 38 33  1  0  0  0
  8  3  1  0  0  0
 48 47  1  0  0  0
 48 50  1  0  0  0
 46 36  1  0  0  0
 46 47  1  0  0  0
 28 18  1  0  0  0
 36 34  1  0  0  0
 47 55  1  0  0  0
  4 32  1  0  0  0
  4  2  1  0  0  0
 33 32  1  0  0  0
 33 34  1  0  0  0
 17 16  1  0  0  0
 51 50  1  0  0  0
 16 18  1  0  0  0
 16 15  1  0  0  0
 50 52  1  0  0  0
  3  2  1  0  0  0
  3 14  1  0  0  0
 34 35  1  0  0  0
  2  1  1  0  0  0
 18 19  1  0  0  0
 14 15  1  0  0  0
 55 54  1  0  0  0
 15 20  1  0  0  0
 52 53  1  0  0  0
 52 54  1  0  0  0
 19 20  1  0  0  0
 20 22  1  0  0  0
 54 59  1  0  0  0
 22 25  1  0  0  0
 22 23  1  0  0  0
 59 60  1  0  0  0
 25 26  1  0  0  0
  1  9  1  0  0  0
 17 21  1  0  0  0
 23 24  1  0  0  0
 26 27  1  0  0  0
  6 10  1  0  0  0
 12 13  1  0  0  0
 35 39  1  0  0  0
 44 45  1  0  0  0
 41 42  1  0  0  0
 49 56  1  0  0  0
 51 57  1  0  0  0
 53 58  1  0  0  0
 60 61  1  0  0  0
M  END
> <minimizedAffinity>
-7.79804

$$$$
5LSH_KTS_A_205


 61 64  0  0  0  0  0  0  0  0999 V2000
    4.1066   13.6272    2.9195 O   0  0  0  0  0  0  0  0  0  0  0  0
    5.1911   14.2465    3.6351 C   0  0  0  0  0  0  0  0  0  0  0  0
    5.9409   15.1710    2.7026 C   0  0  0  0  0  0  0  0  0  0  0  0
    4.7365   15.0222    4.8655 C   0  0  0  0  0  0  0  0  0  0  0  0
    5.9420   15.6942    5.5261 C   0  0  0  0  0  0  0  0  0  0  0  0
    6.8146   14.6937    6.0764 O   0  0  0  0  0  0  0  0  0  0  0  0
    6.7397   16.4837    4.4957 C   0  0  0  0  0  0  0  0  0  0  0  0
    7.1082   15.6520    3.3856 O   0  0  0  0  0  0  0  0  0  0  0  0
    3.6235   13.0333    3.5152 H   0  0  0  0  0  0  0  0  0  0  0  0
    7.1310   14.1143    5.3656 H   0  0  0  0  0  0  0  0  0  0  0  0
    8.0054   17.0319    5.1311 C   0  0  0  0  0  0  0  0  0  0  0  0
    7.6986   17.6492    6.3883 O   0  0  0  0  0  0  0  0  0  0  0  0
    7.3070   16.9916    6.9843 H   0  0  0  0  0  0  0  0  0  0  0  0
    5.0224   16.2118    2.3356 O   0  0  0  0  0  0  0  0  0  0  0  0
    4.2477   15.8828    1.1859 C   0  0  0  0  0  0  0  0  0  0  0  0
    5.0666   15.4817   -0.0389 C   0  0  0  0  0  0  0  0  0  0  0  0
    5.2712   14.0692   -0.0772 O   0  0  0  0  0  0  0  0  0  0  0  0
    4.2037   15.8942   -1.2218 C   0  0  0  0  0  0  0  0  0  0  0  0
    3.1221   16.6432   -0.6429 O   0  0  0  0  0  0  0  0  0  0  0  0
    3.4588   17.0828    0.6854 C   0  0  0  0  0  0  0  0  0  0  0  0
    4.4125   13.6181   -0.0804 H   0  0  0  0  0  0  0  0  0  0  0  0
    2.2775   17.4034    1.6040 C   0  0  0  0  0  0  0  0  0  0  0  0
    2.6532   17.1588    2.9661 O   0  0  0  0  0  0  0  0  0  0  0  0
    2.8533   16.2168    3.0822 H   0  0  0  0  0  0  0  0  0  0  0  0
    0.9781   16.6911    1.2425 C   0  0  0  0  0  0  0  0  0  0  0  0
   -0.1159   17.2474    1.9632 O   0  0  0  0  0  0  0  0  0  0  0  0
    0.0372   17.1423    2.9153 H   0  0  0  0  0  0  0  0  0  0  0  0
    4.9775   16.4580   -2.2504 O   0  0  0  0  0  0  0  0  0  0  0  0
    6.2196   17.0875   -1.9187 C   0  0  0  0  0  0  0  0  0  0  0  0
    6.0870   18.5539   -1.5097 C   0  0  0  0  0  0  0  0  0  0  0  0
    5.3185   19.3222   -2.5652 C   0  0  0  0  0  0  0  0  0  0  0  0
    4.1406   14.0753    5.7423 O   0  0  0  0  0  0  0  0  0  0  0  0
    2.8220   14.4340    6.1225 C   0  0  0  0  0  0  0  0  0  0  0  0
    1.7973   13.6671    5.2876 C   0  0  0  0  0  0  0  0  0  0  0  0
    1.3855   14.3652    4.1000 O   0  0  0  0  0  0  0  0  0  0  0  0
    0.6518   13.5997    6.2859 C   0  0  0  0  0  0  0  0  0  0  0  0
    1.4192   13.2344    7.5525 C   0  0  0  0  0  0  0  0  0  0  0  0
    2.5683   14.0884    7.4943 O   0  0  0  0  0  0  0  0  0  0  0  0
    1.0347   15.2365    4.3423 H   0  0  0  0  0  0  0  0  0  0  0  0
    0.6561   13.4696    8.8550 C   0  0  0  0  0  0  0  0  0  0  0  0
   -0.6470   12.8407    8.7733 O   0  0  0  0  0  0  0  0  0  0  0  0
   -1.1472   13.2277    8.0378 H   0  0  0  0  0  0  0  0  0  0  0  0
    0.4861   14.9644    9.0988 C   0  0  0  0  0  0  0  0  0  0  0  0
    1.6927   15.5198    9.6143 O   0  0  0  0  0  0  0  0  0  0  0  0
    2.4092   15.3868    8.9741 H   0  0  0  0  0  0  0  0  0  0  0  0
   -0.2928   12.5990    5.9651 O   0  0  0  0  0  0  0  0  0  0  0  0
   -1.5288   13.2129    5.5349 C   0  0  0  0  0  0  0  0  0  0  0  0
   -2.6675   12.2470    5.8044 C   0  0  0  0  0  0  0  0  0  0  0  0
   -2.6275   11.8973    7.1905 O   0  0  0  0  0  0  0  0  0  0  0  0
   -2.5053   10.9889    4.9614 C   0  0  0  0  0  0  0  0  0  0  0  0
   -3.6226   10.1060    5.1249 O   0  0  0  0  0  0  0  0  0  0  0  0
   -2.4791   11.4515    3.5175 C   0  0  0  0  0  0  0  0  0  0  0  0
   -3.7196   12.1146    3.1969 O   0  0  0  0  0  0  0  0  0  0  0  0
   -1.3023   12.4035    3.3150 C   0  0  0  0  0  0  0  0  0  0  0  0
   -1.4667   13.5755    4.1405 O   0  0  0  0  0  0  0  0  0  0  0  0
   -1.7739   11.4846    7.3953 H   0  0  0  0  0  0  0  0  0  0  0  0
   -4.4374   10.5644    4.8663 H   0  0  0  0  0  0  0  0  0  0  0  0
   -3.8355   12.8822    3.7785 H   0  0  0  0  0  0  0  0  0  0  0  0
   -1.2899   12.8688    1.8614 C   0  0  0  0  0  0  0  0  0  0  0  0
   -0.4421   14.0169    1.7297 O   0  0  0  0  0  0  0  0  0  0  0  0
   -0.7770   14.7325    2.2924 H   0  0  0  0  0  0  0  0  0  0  0  0
 44 43  1  0  0  0
 43 40  1  0  0  0
 12 11  1  0  0  0
 11  7  1  0  0  0
 40 41  1  0  0  0
 40 37  1  0  0  0
 30 31  1  0  0  0
 30 29  1  0  0  0
  6  5  1  0  0  0
 49 48  1  0  0  0
  7  5  1  0  0  0
  7  8  1  0  0  0
 37 38  1  0  0  0
 37 36  1  0  0  0
 29 28  1  0  0  0
  5  4  1  0  0  0
 38 33  1  0  0  0
  8  3  1  0  0  0
 48 47  1  0  0  0
 48 50  1  0  0  0
 46 36  1  0  0  0
 46 47  1  0  0  0
 28 18  1  0  0  0
 36 34  1  0  0  0
 47 55  1  0  0  0
  4 32  1  0  0  0
  4  2  1  0  0  0
 33 32  1  0  0  0
 33 34  1  0  0  0
 17 16  1  0  0  0
 51 50  1  0  0  0
 16 18  1  0  0  0
 16 15  1  0  0  0
 50 52  1  0  0  0
  3  2  1  0  0  0
  3 14  1  0  0  0
 34 35  1  0  0  0
  2  1  1  0  0  0
 18 19  1  0  0  0
 14 15  1  0  0  0
 55 54  1  0  0  0
 15 20  1  0  0  0
 52 53  1  0  0  0
 52 54  1  0  0  0
 19 20  1  0  0  0
 20 22  1  0  0  0
 54 59  1  0  0  0
 22 25  1  0  0  0
 22 23  1  0  0  0
 59 60  1  0  0  0
 25 26  1  0  0  0
  1  9  1  0  0  0
 17 21  1  0  0  0
 23 24  1  0  0  0
 26 27  1  0  0  0
  6 10  1  0  0  0
 12 13  1  0  0  0
 35 39  1  0  0  0
 44 45  1  0  0  0
 41 42  1  0  0  0
 49 56  1  0  0  0
 51 57  1  0  0  0
 53 58  1  0  0  0
 60 61  1  0  0  0
M  END
> <minimizedAffinity>
-7.79014

$$$$
5LSH_KTS_A_205


 61 64  0  0  0  0  0  0  0  0999 V2000
    4.1793   12.5792    4.7020 O   0  0  0  0  0  0  0  0  0  0  0  0
    5.1805   13.6096    4.6137 C   0  0  0  0  0  0  0  0  0  0  0  0
    5.6071   13.7686    3.1717 C   0  0  0  0  0  0  0  0  0  0  0  0
    4.7122   14.9536    5.1581 C   0  0  0  0  0  0  0  0  0  0  0  0
    5.8134   15.9989    4.9686 C   0  0  0  0  0  0  0  0  0  0  0  0
    6.9349   15.6805    5.8090 O   0  0  0  0  0  0  0  0  0  0  0  0
    6.3042   15.9968    3.5263 C   0  0  0  0  0  0  0  0  0  0  0  0
    6.7144   14.6808    3.1263 O   0  0  0  0  0  0  0  0  0  0  0  0
    3.9035   12.4748    5.6261 H   0  0  0  0  0  0  0  0  0  0  0  0
    7.2855   14.8099    5.5640 H   0  0  0  0  0  0  0  0  0  0  0  0
    7.4875   16.9377    3.3814 C   0  0  0  0  0  0  0  0  0  0  0  0
    7.0285   18.2696    3.1147 O   0  0  0  0  0  0  0  0  0  0  0  0
    6.4733   18.5736    3.8498 H   0  0  0  0  0  0  0  0  0  0  0  0
    4.4530   14.2324    2.4543 O   0  0  0  0  0  0  0  0  0  0  0  0
    4.3976   13.7360    1.1198 C   0  0  0  0  0  0  0  0  0  0  0  0
    5.1139   14.6046    0.0883 C   0  0  0  0  0  0  0  0  0  0  0  0
    6.4702   14.1899   -0.0763 O   0  0  0  0  0  0  0  0  0  0  0  0
    4.3547   14.3569   -1.2064 C   0  0  0  0  0  0  0  0  0  0  0  0
    3.2065   13.5852   -0.8162 O   0  0  0  0  0  0  0  0  0  0  0  0
    2.9694   13.7023    0.5984 C   0  0  0  0  0  0  0  0  0  0  0  0
    6.4932   13.2576   -0.3430 H   0  0  0  0  0  0  0  0  0  0  0  0
    2.1628   12.5698    1.2379 C   0  0  0  0  0  0  0  0  0  0  0  0
    2.2537   12.6674    2.6656 O   0  0  0  0  0  0  0  0  0  0  0  0
    3.1762   12.5465    2.9399 H   0  0  0  0  0  0  0  0  0  0  0  0
    2.5259   11.1725    0.7456 C   0  0  0  0  0  0  0  0  0  0  0  0
    2.0246   10.9581   -0.5691 O   0  0  0  0  0  0  0  0  0  0  0  0
    1.0581   11.0403   -0.5640 H   0  0  0  0  0  0  0  0  0  0  0  0
    4.1874   15.5443   -1.9392 O   0  0  0  0  0  0  0  0  0  0  0  0
    4.3272   16.8001   -1.2665 C   0  0  0  0  0  0  0  0  0  0  0  0
    3.0483   17.6357   -1.2315 C   0  0  0  0  0  0  0  0  0  0  0  0
    2.1717   17.1992   -0.0757 C   0  0  0  0  0  0  0  0  0  0  0  0
    4.4334   14.7553    6.5377 O   0  0  0  0  0  0  0  0  0  0  0  0
    3.0911   15.0649    6.8759 C   0  0  0  0  0  0  0  0  0  0  0  0
    2.1570   14.7378    5.7115 C   0  0  0  0  0  0  0  0  0  0  0  0
    1.9346   15.8471    4.8242 O   0  0  0  0  0  0  0  0  0  0  0  0
    0.8873   14.4152    6.4841 C   0  0  0  0  0  0  0  0  0  0  0  0
    1.4645   13.5569    7.6052 C   0  0  0  0  0  0  0  0  0  0  0  0
    2.6438   14.2741    7.9896 O   0  0  0  0  0  0  0  0  0  0  0  0
    1.5893   16.6003    5.3284 H   0  0  0  0  0  0  0  0  0  0  0  0
    0.5449   13.3742    8.8115 C   0  0  0  0  0  0  0  0  0  0  0  0
   -0.6690   12.6995    8.3975 O   0  0  0  0  0  0  0  0  0  0  0  0
   -1.1245   13.2347    7.7289 H   0  0  0  0  0  0  0  0  0  0  0  0
    0.1944   14.7306    9.4119 C   0  0  0  0  0  0  0  0  0  0  0  0
    1.3209   15.2724   10.0957 O   0  0  0  0  0  0  0  0  0  0  0  0
    2.0540   15.3870    9.4710 H   0  0  0  0  0  0  0  0  0  0  0  0
   -0.0450   13.6799    5.7182 O   0  0  0  0  0  0  0  0  0  0  0  0
   -1.1924   14.5065    5.4188 C   0  0  0  0  0  0  0  0  0  0  0  0
   -2.3979   13.6065    5.2210 C   0  0  0  0  0  0  0  0  0  0  0  0
   -2.5372   12.7960    6.3909 O   0  0  0  0  0  0  0  0  0  0  0  0
   -2.1955   12.7096    4.0067 C   0  0  0  0  0  0  0  0  0  0  0  0
   -3.3634   11.9222    3.7415 O   0  0  0  0  0  0  0  0  0  0  0  0
   -1.9786   13.6400    2.8290 C   0  0  0  0  0  0  0  0  0  0  0  0
   -3.1411   14.4750    2.6486 O   0  0  0  0  0  0  0  0  0  0  0  0
   -0.7438   14.5006    3.0879 C   0  0  0  0  0  0  0  0  0  0  0  0
   -0.9503   15.3233    4.2553 O   0  0  0  0  0  0  0  0  0  0  0  0
   -1.7334   12.2677    6.5158 H   0  0  0  0  0  0  0  0  0  0  0  0
   -4.1203   12.5086    3.5864 H   0  0  0  0  0  0  0  0  0  0  0  0
   -3.2894   15.0004    3.4504 H   0  0  0  0  0  0  0  0  0  0  0  0
   -0.5393   15.4380    1.9009 C   0  0  0  0  0  0  0  0  0  0  0  0
   -1.3468   16.6104    2.0673 O   0  0  0  0  0  0  0  0  0  0  0  0
   -2.2813   16.3551    2.1169 H   0  0  0  0  0  0  0  0  0  0  0  0
 44 43  1  0  0  0
 43 40  1  0  0  0
 12 11  1  0  0  0
 11  7  1  0  0  0
 40 41  1  0  0  0
 40 37  1  0  0  0
 30 31  1  0  0  0
 30 29  1  0  0  0
  6  5  1  0  0  0
 49 48  1  0  0  0
  7  5  1  0  0  0
  7  8  1  0  0  0
 37 38  1  0  0  0
 37 36  1  0  0  0
 29 28  1  0  0  0
  5  4  1  0  0  0
 38 33  1  0  0  0
  8  3  1  0  0  0
 48 47  1  0  0  0
 48 50  1  0  0  0
 46 36  1  0  0  0
 46 47  1  0  0  0
 28 18  1  0  0  0
 36 34  1  0  0  0
 47 55  1  0  0  0
  4 32  1  0  0  0
  4  2  1  0  0  0
 33 32  1  0  0  0
 33 34  1  0  0  0
 17 16  1  0  0  0
 51 50  1  0  0  0
 16 18  1  0  0  0
 16 15  1  0  0  0
 50 52  1  0  0  0
  3  2  1  0  0  0
  3 14  1  0  0  0
 34 35  1  0  0  0
  2  1  1  0  0  0
 18 19  1  0  0  0
 14 15  1  0  0  0
 55 54  1  0  0  0
 15 20  1  0  0  0
 52 53  1  0  0  0
 52 54  1  0  0  0
 19 20  1  0  0  0
 20 22  1  0  0  0
 54 59  1  0  0  0
 22 25  1  0  0  0
 22 23  1  0  0  0
 59 60  1  0  0  0
 25 26  1  0  0  0
  1  9  1  0  0  0
 17 21  1  0  0  0
 23 24  1  0  0  0
 26 27  1  0  0  0
  6 10  1  0  0  0
 12 13  1  0  0  0
 35 39  1  0  0  0
 44 45  1  0  0  0
 41 42  1  0  0  0
 49 56  1  0  0  0
 51 57  1  0  0  0
 53 58  1  0  0  0
 60 61  1  0  0  0
M  END
> <minimizedAffinity>
-7.63185

$$$$
5LSH_KTS_A_205


 61 64  0  0  0  0  0  0  0  0999 V2000
    2.8572   13.1628    0.9551 O   0  0  0  0  0  0  0  0  0  0  0  0
    1.5734   13.5935    0.4674 C   0  0  0  0  0  0  0  0  0  0  0  0
    0.4829   12.9180    1.2682 C   0  0  0  0  0  0  0  0  0  0  0  0
    1.3838   15.1046    0.5211 C   0  0  0  0  0  0  0  0  0  0  0  0
   -0.0243   15.4652    0.0433 C   0  0  0  0  0  0  0  0  0  0  0  0
   -0.1520   15.1710   -1.3575 O   0  0  0  0  0  0  0  0  0  0  0  0
   -1.0647   14.6347    0.7843 C   0  0  0  0  0  0  0  0  0  0  0  0
   -0.7811   13.2328    0.6654 O   0  0  0  0  0  0  0  0  0  0  0  0
    3.5590   13.5945    0.4432 H   0  0  0  0  0  0  0  0  0  0  0  0
   -0.0061   14.2232   -1.5034 H   0  0  0  0  0  0  0  0  0  0  0  0
   -2.4444   14.9002    0.2079 C   0  0  0  0  0  0  0  0  0  0  0  0
   -2.7554   13.9247   -0.7959 O   0  0  0  0  0  0  0  0  0  0  0  0
   -2.7452   13.0391   -0.4002 H   0  0  0  0  0  0  0  0  0  0  0  0
    0.6104   13.3978    2.6155 O   0  0  0  0  0  0  0  0  0  0  0  0
   -0.5372   13.1160    3.4116 C   0  0  0  0  0  0  0  0  0  0  0  0
   -0.6876   14.0020    4.6461 C   0  0  0  0  0  0  0  0  0  0  0  0
   -1.4777   15.1550    4.3552 O   0  0  0  0  0  0  0  0  0  0  0  0
   -1.4267   13.1295    5.6493 C   0  0  0  0  0  0  0  0  0  0  0  0
   -1.4605   11.8253    5.0460 O   0  0  0  0  0  0  0  0  0  0  0  0
   -0.4713   11.7179    4.0063 C   0  0  0  0  0  0  0  0  0  0  0  0
   -2.3478   14.8768    4.0290 H   0  0  0  0  0  0  0  0  0  0  0  0
   -0.7270   10.6427    2.9476 C   0  0  0  0  0  0  0  0  0  0  0  0
   -2.0189   10.8495    2.3608 O   0  0  0  0  0  0  0  0  0  0  0  0
   -2.7032   10.7447    3.0403 H   0  0  0  0  0  0  0  0  0  0  0  0
   -0.5565    9.2096    3.4413 C   0  0  0  0  0  0  0  0  0  0  0  0
    0.0410    9.1920    4.7329 O   0  0  0  0  0  0  0  0  0  0  0  0
    0.9162    9.6081    4.6900 H   0  0  0  0  0  0  0  0  0  0  0  0
   -0.9124   13.2902    6.9472 O   0  0  0  0  0  0  0  0  0  0  0  0
    0.5061   13.3575    7.1279 C   0  0  0  0  0  0  0  0  0  0  0  0
    0.9740   12.9969    8.5372 C   0  0  0  0  0  0  0  0  0  0  0  0
    0.2349   13.8328    9.5619 C   0  0  0  0  0  0  0  0  0  0  0  0
    2.3692   15.6657   -0.3360 O   0  0  0  0  0  0  0  0  0  0  0  0
    3.1900   16.6175    0.3213 C   0  0  0  0  0  0  0  0  0  0  0  0
    2.8922   16.6364    1.8201 C   0  0  0  0  0  0  0  0  0  0  0  0
    1.8921   17.5990    2.1950 O   0  0  0  0  0  0  0  0  0  0  0  0
    4.2554   17.0568    2.3473 C   0  0  0  0  0  0  0  0  0  0  0  0
    5.1589   16.1716    1.4947 C   0  0  0  0  0  0  0  0  0  0  0  0
    4.5806   16.2795    0.1882 O   0  0  0  0  0  0  0  0  0  0  0  0
    2.1645   18.4810    1.8971 H   0  0  0  0  0  0  0  0  0  0  0  0
    6.6250   16.5996    1.4565 C   0  0  0  0  0  0  0  0  0  0  0  0
    6.8323   17.7007    2.3758 O   0  0  0  0  0  0  0  0  0  0  0  0
    6.2756   18.4503    2.1132 H   0  0  0  0  0  0  0  0  0  0  0  0
    7.0062   17.0346    0.0464 C   0  0  0  0  0  0  0  0  0  0  0  0
    6.5029   18.3408   -0.2191 O   0  0  0  0  0  0  0  0  0  0  0  0
    6.8827   18.9687    0.4153 H   0  0  0  0  0  0  0  0  0  0  0  0
    4.4215   16.7685    3.7206 O   0  0  0  0  0  0  0  0  0  0  0  0
    4.2469   15.3517    3.9476 C   0  0  0  0  0  0  0  0  0  0  0  0
    3.3567   15.1628    5.1618 C   0  0  0  0  0  0  0  0  0  0  0  0
    2.1427   15.8829    4.9320 O   0  0  0  0  0  0  0  0  0  0  0  0
    4.0394   15.7092    6.4089 C   0  0  0  0  0  0  0  0  0  0  0  0
    3.2598   15.4510    7.5837 O   0  0  0  0  0  0  0  0  0  0  0  0
    5.3474   14.9526    6.5371 C   0  0  0  0  0  0  0  0  0  0  0  0
    5.0807   13.5428    6.6871 O   0  0  0  0  0  0  0  0  0  0  0  0
    6.1969   15.2012    5.2927 C   0  0  0  0  0  0  0  0  0  0  0  0
    5.5196   14.6966    4.1227 O   0  0  0  0  0  0  0  0  0  0  0  0
    2.3442   16.8223    4.7990 H   0  0  0  0  0  0  0  0  0  0  0  0
    3.1285   14.4949    7.6809 H   0  0  0  0  0  0  0  0  0  0  0  0
    4.5977   13.2206    5.9101 H   0  0  0  0  0  0  0  0  0  0  0  0
    7.5067   14.4295    5.4286 C   0  0  0  0  0  0  0  0  0  0  0  0
    7.2980   13.0578    5.0691 O   0  0  0  0  0  0  0  0  0  0  0  0
    6.6332   12.6669    5.6575 H   0  0  0  0  0  0  0  0  0  0  0  0
 44 43  1  0  0  0
 43 40  1  0  0  0
 12 11  1  0  0  0
 11  7  1  0  0  0
 40 41  1  0  0  0
 40 37  1  0  0  0
 30 31  1  0  0  0
 30 29  1  0  0  0
  6  5  1  0  0  0
 49 48  1  0  0  0
  7  5  1  0  0  0
  7  8  1  0  0  0
 37 38  1  0  0  0
 37 36  1  0  0  0
 29 28  1  0  0  0
  5  4  1  0  0  0
 38 33  1  0  0  0
  8  3  1  0  0  0
 48 47  1  0  0  0
 48 50  1  0  0  0
 46 36  1  0  0  0
 46 47  1  0  0  0
 28 18  1  0  0  0
 36 34  1  0  0  0
 47 55  1  0  0  0
  4 32  1  0  0  0
  4  2  1  0  0  0
 33 32  1  0  0  0
 33 34  1  0  0  0
 17 16  1  0  0  0
 51 50  1  0  0  0
 16 18  1  0  0  0
 16 15  1  0  0  0
 50 52  1  0  0  0
  3  2  1  0  0  0
  3 14  1  0  0  0
 34 35  1  0  0  0
  2  1  1  0  0  0
 18 19  1  0  0  0
 14 15  1  0  0  0
 55 54  1  0  0  0
 15 20  1  0  0  0
 52 53  1  0  0  0
 52 54  1  0  0  0
 19 20  1  0  0  0
 20 22  1  0  0  0
 54 59  1  0  0  0
 22 25  1  0  0  0
 22 23  1  0  0  0
 59 60  1  0  0  0
 25 26  1  0  0  0
  1  9  1  0  0  0
 17 21  1  0  0  0
 23 24  1  0  0  0
 26 27  1  0  0  0
  6 10  1  0  0  0
 12 13  1  0  0  0
 35 39  1  0  0  0
 44 45  1  0  0  0
 41 42  1  0  0  0
 49 56  1  0  0  0
 51 57  1  0  0  0
 53 58  1  0  0  0
 60 61  1  0  0  0
M  END
> <minimizedAffinity>
-7.61968

$$$$
5LSH_KTS_A_205


 61 64  0  0  0  0  0  0  0  0999 V2000
    1.7112   16.8393    2.8166 O   0  0  0  0  0  0  0  0  0  0  0  0
    2.6950   16.2542    3.6893 C   0  0  0  0  0  0  0  0  0  0  0  0
    2.0509   15.1515    4.4992 C   0  0  0  0  0  0  0  0  0  0  0  0
    3.9061   15.7015    2.9478 C   0  0  0  0  0  0  0  0  0  0  0  0
    4.8663   15.0474    3.9436 C   0  0  0  0  0  0  0  0  0  0  0  0
    5.4382   16.0517    4.7978 O   0  0  0  0  0  0  0  0  0  0  0  0
    4.1186   14.0603    4.8312 C   0  0  0  0  0  0  0  0  0  0  0  0
    3.0008   14.6921    5.4723 O   0  0  0  0  0  0  0  0  0  0  0  0
    2.1214   17.5472    2.2956 H   0  0  0  0  0  0  0  0  0  0  0  0
    4.7318   16.4966    5.2917 H   0  0  0  0  0  0  0  0  0  0  0  0
    5.0497   13.5204    5.9026 C   0  0  0  0  0  0  0  0  0  0  0  0
    6.2463   13.0065    5.3027 O   0  0  0  0  0  0  0  0  0  0  0  0
    6.6985   13.7178    4.8226 H   0  0  0  0  0  0  0  0  0  0  0  0
    1.6537   14.1376    3.5633 O   0  0  0  0  0  0  0  0  0  0  0  0
    0.4016   13.5432    3.8934 C   0  0  0  0  0  0  0  0  0  0  0  0
   -0.4053   14.3026    4.9441 C   0  0  0  0  0  0  0  0  0  0  0  0
   -1.2914   15.2389    4.3303 O   0  0  0  0  0  0  0  0  0  0  0  0
   -1.2215   13.2265    5.6439 C   0  0  0  0  0  0  0  0  0  0  0  0
   -0.7085   11.9856    5.1309 O   0  0  0  0  0  0  0  0  0  0  0  0
    0.5870   12.1765    4.5341 C   0  0  0  0  0  0  0  0  0  0  0  0
   -1.8833   14.7718    3.7201 H   0  0  0  0  0  0  0  0  0  0  0  0
    1.0118   11.1253    3.5061 C   0  0  0  0  0  0  0  0  0  0  0  0
    1.1926   11.7531    2.2296 O   0  0  0  0  0  0  0  0  0  0  0  0
    0.3468   12.1185    1.9263 H   0  0  0  0  0  0  0  0  0  0  0  0
    0.0868    9.9161    3.4122 C   0  0  0  0  0  0  0  0  0  0  0  0
    0.1484    9.1438    4.6060 O   0  0  0  0  0  0  0  0  0  0  0  0
    1.0553    8.8268    4.7396 H   0  0  0  0  0  0  0  0  0  0  0  0
   -1.2767   13.4441    7.0311 O   0  0  0  0  0  0  0  0  0  0  0  0
   -0.5188   12.5932    7.8975 C   0  0  0  0  0  0  0  0  0  0  0  0
    0.6936   13.2712    8.5346 C   0  0  0  0  0  0  0  0  0  0  0  0
    0.2615   14.0965    9.7292 C   0  0  0  0  0  0  0  0  0  0  0  0
    4.5223   16.8069    2.3008 O   0  0  0  0  0  0  0  0  0  0  0  0
    4.5103   16.6912    0.8871 C   0  0  0  0  0  0  0  0  0  0  0  0
    4.6479   15.2278    0.4690 C   0  0  0  0  0  0  0  0  0  0  0  0
    6.0087   14.8186    0.2491 O   0  0  0  0  0  0  0  0  0  0  0  0
    3.8870   15.2645   -0.8474 C   0  0  0  0  0  0  0  0  0  0  0  0
    2.6801   16.1025   -0.4379 C   0  0  0  0  0  0  0  0  0  0  0  0
    3.2634   17.1536    0.3419 O   0  0  0  0  0  0  0  0  0  0  0  0
    6.4166   15.3959   -0.4151 H   0  0  0  0  0  0  0  0  0  0  0  0
    1.8842   16.6920   -1.6011 C   0  0  0  0  0  0  0  0  0  0  0  0
    1.3612   15.6192   -2.4232 O   0  0  0  0  0  0  0  0  0  0  0  0
    2.0966   15.0938   -2.7754 H   0  0  0  0  0  0  0  0  0  0  0  0
    2.7801   17.5906   -2.4455 C   0  0  0  0  0  0  0  0  0  0  0  0
    2.5753   18.9570   -2.0976 O   0  0  0  0  0  0  0  0  0  0  0  0
    2.7934   19.0886   -1.1617 H   0  0  0  0  0  0  0  0  0  0  0  0
    3.4836   13.9812   -1.2799 O   0  0  0  0  0  0  0  0  0  0  0  0
    3.0561   13.1945   -0.1451 C   0  0  0  0  0  0  0  0  0  0  0  0
    3.6926   11.8205   -0.2422 C   0  0  0  0  0  0  0  0  0  0  0  0
    5.1079   11.9988   -0.3437 O   0  0  0  0  0  0  0  0  0  0  0  0
    3.1861   11.0886   -1.4782 C   0  0  0  0  0  0  0  0  0  0  0  0
    3.6971    9.7507   -1.5359 O   0  0  0  0  0  0  0  0  0  0  0  0
    1.6788   11.0101   -1.3314 C   0  0  0  0  0  0  0  0  0  0  0  0
    1.3444   10.2718   -0.1379 O   0  0  0  0  0  0  0  0  0  0  0  0
    1.1058   12.4237   -1.2572 C   0  0  0  0  0  0  0  0  0  0  0  0
    1.6178   13.1043   -0.0923 O   0  0  0  0  0  0  0  0  0  0  0  0
    5.3117   12.5261   -1.1319 H   0  0  0  0  0  0  0  0  0  0  0  0
    3.4256    9.2663   -0.7406 H   0  0  0  0  0  0  0  0  0  0  0  0
    1.7200   10.7205    0.6357 H   0  0  0  0  0  0  0  0  0  0  0  0
   -0.4098   12.3331   -1.1018 C   0  0  0  0  0  0  0  0  0  0  0  0
   -0.7554   12.3715    0.2887 O   0  0  0  0  0  0  0  0  0  0  0  0
   -0.3410   11.6229    0.7456 H   0  0  0  0  0  0  0  0  0  0  0  0
 44 43  1  0  0  0
 43 40  1  0  0  0
 12 11  1  0  0  0
 11  7  1  0  0  0
 40 41  1  0  0  0
 40 37  1  0  0  0
 30 31  1  0  0  0
 30 29  1  0  0  0
  6  5  1  0  0  0
 49 48  1  0  0  0
  7  5  1  0  0  0
  7  8  1  0  0  0
 37 38  1  0  0  0
 37 36  1  0  0  0
 29 28  1  0  0  0
  5  4  1  0  0  0
 38 33  1  0  0  0
  8  3  1  0  0  0
 48 47  1  0  0  0
 48 50  1  0  0  0
 46 36  1  0  0  0
 46 47  1  0  0  0
 28 18  1  0  0  0
 36 34  1  0  0  0
 47 55  1  0  0  0
  4 32  1  0  0  0
  4  2  1  0  0  0
 33 32  1  0  0  0
 33 34  1  0  0  0
 17 16  1  0  0  0
 51 50  1  0  0  0
 16 18  1  0  0  0
 16 15  1  0  0  0
 50 52  1  0  0  0
  3  2  1  0  0  0
  3 14  1  0  0  0
 34 35  1  0  0  0
  2  1  1  0  0  0
 18 19  1  0  0  0
 14 15  1  0  0  0
 55 54  1  0  0  0
 15 20  1  0  0  0
 52 53  1  0  0  0
 52 54  1  0  0  0
 19 20  1  0  0  0
 20 22  1  0  0  0
 54 59  1  0  0  0
 22 25  1  0  0  0
 22 23  1  0  0  0
 59 60  1  0  0  0
 25 26  1  0  0  0
  1  9  1  0  0  0
 17 21  1  0  0  0
 23 24  1  0  0  0
 26 27  1  0  0  0
  6 10  1  0  0  0
 12 13  1  0  0  0
 35 39  1  0  0  0
 44 45  1  0  0  0
 41 42  1  0  0  0
 49 56  1  0  0  0
 51 57  1  0  0  0
 53 58  1  0  0  0
 60 61  1  0  0  0
M  END
> <minimizedAffinity>
-7.61494

$$$$
5LSH_KTS_A_205


 61 64  0  0  0  0  0  0  0  0999 V2000
    0.5298   15.0073    4.2179 O   0  0  0  0  0  0  0  0  0  0  0  0
    0.5920   14.9507    5.6548 C   0  0  0  0  0  0  0  0  0  0  0  0
   -0.5315   14.0790    6.1691 C   0  0  0  0  0  0  0  0  0  0  0  0
    1.9237   14.4292    6.1807 C   0  0  0  0  0  0  0  0  0  0  0  0
    1.8783   14.3456    7.7079 C   0  0  0  0  0  0  0  0  0  0  0  0
    1.8043   15.6685    8.2645 O   0  0  0  0  0  0  0  0  0  0  0  0
    0.6375   13.5862    8.1608 C   0  0  0  0  0  0  0  0  0  0  0  0
   -0.5507   14.1654    7.6017 O   0  0  0  0  0  0  0  0  0  0  0  0
    1.2495   15.5659    3.8849 H   0  0  0  0  0  0  0  0  0  0  0  0
    0.9972   16.1063    7.9517 H   0  0  0  0  0  0  0  0  0  0  0  0
    0.5301   13.6276    9.6751 C   0  0  0  0  0  0  0  0  0  0  0  0
   -0.1282   14.8319   10.0899 O   0  0  0  0  0  0  0  0  0  0  0  0
   -1.0205   14.8598    9.7106 H   0  0  0  0  0  0  0  0  0  0  0  0
   -0.2761   12.7539    5.6785 O   0  0  0  0  0  0  0  0  0  0  0  0
   -1.4373   12.1358    5.1311 C   0  0  0  0  0  0  0  0  0  0  0  0
   -2.5933   11.9708    6.1150 C   0  0  0  0  0  0  0  0  0  0  0  0
   -3.4710   13.0958    6.0664 O   0  0  0  0  0  0  0  0  0  0  0  0
   -3.3345   10.7368    5.6233 C   0  0  0  0  0  0  0  0  0  0  0  0
   -2.4943   10.1909    4.5927 O   0  0  0  0  0  0  0  0  0  0  0  0
   -1.1545   10.7049    4.7006 C   0  0  0  0  0  0  0  0  0  0  0  0
   -3.8071   13.2050    5.1631 H   0  0  0  0  0  0  0  0  0  0  0  0
   -0.3141   10.6567    3.4225 C   0  0  0  0  0  0  0  0  0  0  0  0
    1.0707   10.5165    3.7679 O   0  0  0  0  0  0  0  0  0  0  0  0
    1.3601   11.2965    4.2666 H   0  0  0  0  0  0  0  0  0  0  0  0
   -0.5399   11.8243    2.4674 C   0  0  0  0  0  0  0  0  0  0  0  0
    0.5130   12.7751    2.5800 O   0  0  0  0  0  0  0  0  0  0  0  0
    0.5411   13.1206    3.4860 H   0  0  0  0  0  0  0  0  0  0  0  0
   -3.7503    9.9265    6.6935 O   0  0  0  0  0  0  0  0  0  0  0  0
   -5.1516    9.7511    6.9272 C   0  0  0  0  0  0  0  0  0  0  0  0
   -6.0475   10.5360    5.9698 C   0  0  0  0  0  0  0  0  0  0  0  0
   -6.9247   11.4967    6.7459 C   0  0  0  0  0  0  0  0  0  0  0  0
    2.9161   15.3524    5.7529 O   0  0  0  0  0  0  0  0  0  0  0  0
    3.8369   14.7824    4.8368 C   0  0  0  0  0  0  0  0  0  0  0  0
    3.7298   15.4674    3.4749 C   0  0  0  0  0  0  0  0  0  0  0  0
    2.8094   14.8224    2.5781 O   0  0  0  0  0  0  0  0  0  0  0  0
    5.1586   15.2892    2.9851 C   0  0  0  0  0  0  0  0  0  0  0  0
    5.9253   15.6487    4.2538 C   0  0  0  0  0  0  0  0  0  0  0  0
    5.1908   14.9711    5.2807 O   0  0  0  0  0  0  0  0  0  0  0  0
    3.0646   13.8933    2.4660 H   0  0  0  0  0  0  0  0  0  0  0  0
    7.3855   15.1994    4.2698 C   0  0  0  0  0  0  0  0  0  0  0  0
    7.6713   14.4382    3.0701 O   0  0  0  0  0  0  0  0  0  0  0  0
    7.0985   13.6560    3.0394 H   0  0  0  0  0  0  0  0  0  0  0  0
    7.6535   14.3360    5.4969 C   0  0  0  0  0  0  0  0  0  0  0  0
    7.2090   13.0020    5.2671 O   0  0  0  0  0  0  0  0  0  0  0  0
    7.6872   12.6276    4.5108 H   0  0  0  0  0  0  0  0  0  0  0  0
    5.4882   16.1722    1.9323 O   0  0  0  0  0  0  0  0  0  0  0  0
    5.3254   15.5015    0.6623 C   0  0  0  0  0  0  0  0  0  0  0  0
    6.4363   15.9518   -0.2680 C   0  0  0  0  0  0  0  0  0  0  0  0
    7.6839   15.6982    0.3834 O   0  0  0  0  0  0  0  0  0  0  0  0
    6.3122   17.4418   -0.5585 C   0  0  0  0  0  0  0  0  0  0  0  0
    7.2913   17.8683   -1.5145 O   0  0  0  0  0  0  0  0  0  0  0  0
    4.9395   17.6368   -1.1727 C   0  0  0  0  0  0  0  0  0  0  0  0
    4.8413   16.8767   -2.3949 O   0  0  0  0  0  0  0  0  0  0  0  0
    3.8737   17.1807   -0.1787 C   0  0  0  0  0  0  0  0  0  0  0  0
    4.0261   15.7728    0.0984 O   0  0  0  0  0  0  0  0  0  0  0  0
    7.7180   16.1895    1.2191 H   0  0  0  0  0  0  0  0  0  0  0  0
    7.1780   17.3688   -2.3382 H   0  0  0  0  0  0  0  0  0  0  0  0
    4.9767   15.9358   -2.2023 H   0  0  0  0  0  0  0  0  0  0  0  0
    2.4973   17.3740   -0.8094 C   0  0  0  0  0  0  0  0  0  0  0  0
    1.5170   17.5602    0.2195 O   0  0  0  0  0  0  0  0  0  0  0  0
    1.4993   16.7792    0.7945 H   0  0  0  0  0  0  0  0  0  0  0  0
 44 43  1  0  0  0
 43 40  1  0  0  0
 12 11  1  0  0  0
 11  7  1  0  0  0
 40 41  1  0  0  0
 40 37  1  0  0  0
 30 31  1  0  0  0
 30 29  1  0  0  0
  6  5  1  0  0  0
 49 48  1  0  0  0
  7  5  1  0  0  0
  7  8  1  0  0  0
 37 38  1  0  0  0
 37 36  1  0  0  0
 29 28  1  0  0  0
  5  4  1  0  0  0
 38 33  1  0  0  0
  8  3  1  0  0  0
 48 47  1  0  0  0
 48 50  1  0  0  0
 46 36  1  0  0  0
 46 47  1  0  0  0
 28 18  1  0  0  0
 36 34  1  0  0  0
 47 55  1  0  0  0
  4 32  1  0  0  0
  4  2  1  0  0  0
 33 32  1  0  0  0
 33 34  1  0  0  0
 17 16  1  0  0  0
 51 50  1  0  0  0
 16 18  1  0  0  0
 16 15  1  0  0  0
 50 52  1  0  0  0
  3  2  1  0  0  0
  3 14  1  0  0  0
 34 35  1  0  0  0
  2  1  1  0  0  0
 18 19  1  0  0  0
 14 15  1  0  0  0
 55 54  1  0  0  0
 15 20  1  0  0  0
 52 53  1  0  0  0
 52 54  1  0  0  0
 19 20  1  0  0  0
 20 22  1  0  0  0
 54 59  1  0  0  0
 22 25  1  0  0  0
 22 23  1  0  0  0
 59 60  1  0  0  0
 25 26  1  0  0  0
  1  9  1  0  0  0
 17 21  1  0  0  0
 23 24  1  0  0  0
 26 27  1  0  0  0
  6 10  1  0  0  0
 12 13  1  0  0  0
 35 39  1  0  0  0
 44 45  1  0  0  0
 41 42  1  0  0  0
 49 56  1  0  0  0
 51 57  1  0  0  0
 53 58  1  0  0  0
 60 61  1  0  0  0
M  END
> <minimizedAffinity>
-7.61209

$$$$
