5LSH_KTS_A_205
  RCSB PDB12061718523D
Coordinates from PDB:5LSH:A:205 Model:1 without hydrogens
 48 51  0  0  0  0            999 V2000
   -5.8350    9.4560    7.5610   O 0  0  0  0  0  0  0  0  0  0  0  0
   -6.1100    9.3840    6.1500   C 0  0  0  0  0  0  0  0  0  0  0  0
   -7.6020    9.2590    5.9380   C 0  0  0  0  0  0  0  0  0  0  0  0
   -8.1860   10.4770    6.4250   O 0  0  0  0  0  0  0  0  0  0  0  0
   -9.5420   10.3140    6.8310   C 0  0  0  0  0  0  0  0  0  0  0  0
  -10.5110    9.9910    5.6960   C 0  0  0  0  0  0  0  0  0  0  0  0
  -10.6500    8.5800    5.5280   O 0  0  0  0  0  0  0  0  0  0  0  0
  -11.8390   10.5730    6.1560   C 0  0  0  0  0  0  0  0  0  0  0  0
  -12.5240   11.1910    5.0960   O 0  0  0  0  0  0  0  0  0  0  0  0
  -11.5200   11.3230    7.3400   O 0  0  0  0  0  0  0  0  0  0  0  0
  -10.1100   11.6040    7.4020   C 0  0  0  0  0  0  0  0  0  0  0  0
   -9.5470   11.9000    8.7940   C 0  0  0  0  0  0  0  0  0  0  0  0
   -9.9070   10.8390    9.6890   O 0  0  0  0  0  0  0  0  0  0  0  0
   -9.9280   13.2650    9.3580   C 0  0  0  0  0  0  0  0  0  0  0  0
  -11.3430   13.4080    9.4120   O 0  0  0  0  0  0  0  0  0  0  0  0
   -5.5830   10.5830    5.3710   C 0  0  0  0  0  0  0  0  0  0  0  0
   -5.9720   10.4520    3.8970   C 0  0  0  0  0  0  0  0  0  0  0  0
   -5.2700    9.3460    3.3060   O 0  0  0  0  0  0  0  0  0  0  0  0
   -7.4640   10.1730    3.7650   C 0  0  0  0  0  0  0  0  0  0  0  0
   -7.8140    9.9090    2.3110   C 0  0  0  0  0  0  0  0  0  0  0  0
   -7.5120   11.0620    1.5140   O 0  0  0  0  0  0  0  0  0  0  0  0
   -7.8420    9.0270    4.5420   O 0  0  0  0  0  0  0  0  0  0  0  0
   -4.1700   10.5750    5.5250   O 0  0  0  0  0  0  0  0  0  0  0  0
   -3.6040   11.8740    5.4610   C 0  0  0  0  0  0  0  0  0  0  0  0
   -2.1540   11.8500    5.9430   C 0  0  0  0  0  0  0  0  0  0  0  0
   -2.0110   12.1200    7.3480   O 0  0  0  0  0  0  0  0  0  0  0  0
   -1.5920   13.0010    5.1230   C 0  0  0  0  0  0  0  0  0  0  0  0
   -2.2250   12.7010    3.7680   C 0  0  0  0  0  0  0  0  0  0  0  0
   -2.2130   13.8680    2.7820   C 0  0  0  0  0  0  0  0  0  0  0  0
   -2.9690   13.4890    1.5140   C 0  0  0  0  0  0  0  0  0  0  0  0
   -2.2900   12.4390    0.8310   O 0  0  0  0  0  0  0  0  0  0  0  0
   -2.8390   15.0240    3.3920   O 0  0  0  0  0  0  0  0  0  0  0  0
   -3.5740   12.3580    4.1080   O 0  0  0  0  0  0  0  0  0  0  0  0
   -0.1820   12.9710    5.0360   O 0  0  0  0  0  0  0  0  0  0  0  0
    0.3530   14.2860    5.3080   C 0  0  0  0  0  0  0  0  0  0  0  0
    1.8270   14.2920    4.9480   C 0  0  0  0  0  0  0  0  0  0  0  0
    1.9480   13.8700    3.5870   O 0  0  0  0  0  0  0  0  0  0  0  0
    2.5950   13.3300    5.8450   C 0  0  0  0  0  0  0  0  0  0  0  0
    4.0040   13.3940    5.5900   O 0  0  0  0  0  0  0  0  0  0  0  0
    2.3530   13.7980    7.2670   C 0  0  0  0  0  0  0  0  0  0  0  0
    2.8520   15.1420    7.4280   O 0  0  0  0  0  0  0  0  0  0  0  0
    0.8560   13.7500    7.5650   C 0  0  0  0  0  0  0  0  0  0  0  0
    0.1480   14.6510    6.6880   O 0  0  0  0  0  0  0  0  0  0  0  0
    0.6230   14.2300    8.9950   C 0  0  0  0  0  0  0  0  0  0  0  0
    0.8830   15.6370    9.0800   O 0  0  0  0  0  0  0  0  0  0  0  0
  -12.7540   10.4500    3.8930   C 0  0  0  0  0  0  0  0  0  0  0  0
  -13.9100   10.9790    3.0450   C 0  0  0  0  0  0  0  0  0  0  0  0
  -13.9380   12.4930    3.0880   C 0  0  0  0  0  0  0  0  0  0  0  0
 31 30  1  0  0  0  0
 30 29  1  0  0  0  0
 21 20  1  0  0  0  0
 20 19  1  0  0  0  0
 29 32  1  0  0  0  0
 29 28  1  0  0  0  0
 47 48  1  0  0  0  0
 47 46  1  0  0  0  0
 18 17  1  0  0  0  0
 37 36  1  0  0  0  0
 19 17  1  0  0  0  0
 19 22  1  0  0  0  0
 28 33  1  0  0  0  0
 28 27  1  0  0  0  0
 46  9  1  0  0  0  0
 17 16  1  0  0  0  0
 33 24  1  0  0  0  0
 22  3  1  0  0  0  0
 36 35  1  0  0  0  0
 36 38  1  0  0  0  0
 34 27  1  0  0  0  0
 34 35  1  0  0  0  0
  9  8  1  0  0  0  0
 27 25  1  0  0  0  0
 35 43  1  0  0  0  0
 16 23  1  0  0  0  0
 16  2  1  0  0  0  0
 24 23  1  0  0  0  0
 24 25  1  0  0  0  0
  7  6  1  0  0  0  0
 39 38  1  0  0  0  0
  6  8  1  0  0  0  0
  6  5  1  0  0  0  0
 38 40  1  0  0  0  0
  3  2  1  0  0  0  0
  3  4  1  0  0  0  0
 25 26  1  0  0  0  0
  2  1  1  0  0  0  0
  8 10  1  0  0  0  0
  4  5  1  0  0  0  0
 43 42  1  0  0  0  0
  5 11  1  0  0  0  0
 40 41  1  0  0  0  0
 40 42  1  0  0  0  0
 10 11  1  0  0  0  0
 11 12  1  0  0  0  0
 42 44  1  0  0  0  0
 12 14  1  0  0  0  0
 12 13  1  0  0  0  0
 44 45  1  0  0  0  0
 14 15  1  0  0  0  0
A    1
O20
A    2
C23
A    3
C6
A    4
O5
A    5
C5
A    6
C4
A    7
O4
A    8
C3
A    9
O3
A   10
O2
A   11
C2
A   12
C1
A   13
O1
A   14
C
A   15
O
A   16
C10
A   17
C9
A   18
O8
A   19
C7
A   20
C8
A   21
O7
A   22
O6
A   23
O9
A   24
C11
A   25
C22
A   26
O19
A   27
C15
A   28
C12
A   29
C13
A   30
C14
A   31
O12
A   32
O11
A   33
O10
A   34
O13
A   35
C16
A   36
C21
A   37
O18
A   38
C20
A   39
O17
A   40
C19
A   41
O16
A   42
C17
A   43
O14
A   44
C18
A   45
O15
A   46
C29
A   47
C30
A   48
C31
M  END
>  <InstanceId>
5LSH_KTS_A_205

>  <ChemCompId>
KTS

>  <PdbId>
5LSH

>  <ChainId>
A

>  <ResidueNumber>
205

>  <InsertionCode>


>  <Model>
1

>  <AltIds>


>  <MissingHeavyAtoms>
0

>  <ObservedFormula>
C27 O21

>  <Name>
(2~{R},3~{R},4~{S},5~{R},6~{R})-2-[(2~{S},3~{R},4~{R},5~{R})-2-[(1~{R})-1,2-bis(oxidanyl)ethyl]-5-[(2~{R},3~{R},4~{S},5~{S},6~{R})-2-[(2~{S},3~{R},4~{R},5~{R})-2-[(1~{R})-1,2-bis(oxidanyl)ethyl]-4-oxidanyl-5-propoxy-oxolan-3-yl]oxy-6-(hydroxymethyl)-3,5-bis(oxidanyl)oxan-4-yl]oxy-4-oxidanyl-oxolan-3-yl]oxy-6-(hydroxymethyl)oxane-3,4,5-triol

>  <SystematicName>
(2~{R},3~{R},4~{S},5~{R},6~{R})-2-[(2~{S},3~{R},4~{R},5~{R})-2-[(1~{R})-1,2-bis(oxidanyl)ethyl]-5-[(2~{R},3~{R},4~{S},5~{S},6~{R})-2-[(2~{S},3~{R},4~{R},5~{R})-2-[(1~{R})-1,2-bis(oxidanyl)ethyl]-4-oxidanyl-5-propoxy-oxolan-3-yl]oxy-6-(hydroxymethyl)-3,5-bis(oxidanyl)oxan-4-yl]oxy-4-oxidanyl-oxolan-3-yl]oxy-6-(hydroxymethyl)oxane-3,4,5-triol

>  <Synonyms>


>  <Type>
NON-POLYMER

>  <Formula>
C27 H48 O21

>  <MolecularWeight>
708.657

>  <ModifiedDate>
2017-06-16

>  <Parent>


>  <OneLetterCode>


>  <SubcomponentList>


>  <AmbiguousFlag>
N

>  <InChI>
InChI=1S/C27H48O21/c1-2-3-41-24-17(39)22(19(44-24)8(32)4-28)48-26-16(38)21(13(35)11(7-31)43-26)46-27-18(40)23(20(45-27)9(33)5-29)47-25-15(37)14(36)12(34)10(6-30)42-25/h8-40H,2-7H2,1H3/t8-,9-,10-,11-,12+,13+,14+,15-,16-,17-,18-,19+,20+,21+,22-,23-,24-,25-,26-,27+/m1/s1

>  <InChIKey>
ZXIWHLDFCNGGIL-ZIXUGQMTSA-N

>  <SMILES>
CCCO[C@H]1[C@@H]([C@H]([C@@H](O1)[C@@H](CO)O)O[C@@H]2[C@@H]([C@H]([C@H]([C@H](O2)CO)O)O[C@H]3[C@@H]([C@H]([C@@H](O3)[C@@H](CO)O)O[C@@H]4[C@@H]([C@H]([C@H]([C@H](O4)CO)O)O)O)O)O)O

$$$$
