2YB0_DUR_A_1266
  RCSB PDB12061707353D
Coordinates from PDB:2YB0:A:1266 Model:1 without hydrogens
 16 17  0  0  0  0            999 V2000
  -17.1760   35.0590   -7.7030   N 0  0  0  0  0  0  0  0  0  0  0  0
  -17.8380   34.2480   -6.7500   C 0  0  0  0  0  0  0  0  0  0  0  0
  -17.3030   34.0450   -5.5520   N 0  0  0  0  0  0  0  0  0  0  0  0
  -16.1110   34.5640   -5.2500   C 0  0  0  0  0  0  0  0  0  0  0  0
  -15.4460   35.3580   -6.1610   C 0  0  0  0  0  0  0  0  0  0  0  0
  -16.0000   35.6010   -7.4020   C 0  0  0  0  0  0  0  0  0  0  0  0
  -18.9370   33.7270   -6.9920   O 0  0  0  0  0  0  0  0  0  0  0  0
  -15.5950   34.3580   -4.1340   O 0  0  0  0  0  0  0  0  0  0  0  0
  -17.8060   35.3360   -8.9850   C 0  0  0  0  0  0  0  0  0  0  0  0
  -18.9480   36.3090   -8.7590   C 0  0  0  0  0  0  0  0  0  0  0  0
  -19.1180   36.9830  -10.1040   C 0  0  0  0  0  0  0  0  0  0  0  0
  -17.8060   36.7540  -10.8220   C 0  0  0  0  0  0  0  0  0  0  0  0
  -20.1660   36.3940  -10.8810   O 0  0  0  0  0  0  0  0  0  0  0  0
  -16.9920   35.9750   -9.9570   O 0  0  0  0  0  0  0  0  0  0  0  0
  -17.1150   38.0630  -11.2070   C 0  0  0  0  0  0  0  0  0  0  0  0
  -18.0320   39.0050  -11.8060   O 0  0  0  0  0  0  0  0  0  0  0  0
  1  2  1  0  0  0  0
  1  6  1  0  0  0  0
  1  9  1  0  0  0  0
  2  3  1  0  0  0  0
  2  7  2  0  0  0  0
  3  4  1  0  0  0  0
  4  5  1  0  0  0  0
  4  8  2  0  0  0  0
  5  6  2  0  0  0  0
  9 10  1  0  0  0  0
  9 14  1  0  0  0  0
 10 11  1  0  0  0  0
 11 12  1  0  0  0  0
 11 13  1  0  0  0  0
 12 14  1  0  0  0  0
 12 15  1  0  0  0  0
 15 16  1  0  0  0  0
A    1
N1
A    2
C2
A    3
N3
A    4
C4
A    5
C5
A    6
C6
A    7
O2
A    8
O4
A    9
C1'
A   10
C2'
A   11
C3'
A   12
C4'
A   13
O3'
A   14
O4'
A   15
C5'
A   16
O5'
M  END
>  <InstanceId>
2YB0_DUR_A_1266

>  <ChemCompId>
DUR

>  <PdbId>
2YB0

>  <ChainId>
A

>  <ResidueNumber>
1266

>  <InsertionCode>


>  <Model>
1

>  <AltIds>


>  <MissingHeavyAtoms>
0

>  <ObservedFormula>
C9 N2 O5

>  <Name>
2'-DEOXYURIDINE

>  <SystematicName>
1-[(2R,4S,5R)-4-hydroxy-5-(hydroxymethyl)oxolan-2-yl]pyrimidine-2,4-dione

>  <Synonyms>


>  <Type>
NON-POLYMER

>  <Formula>
C9 H12 N2 O5

>  <MolecularWeight>
228.202

>  <ModifiedDate>
2011-06-04

>  <Parent>


>  <OneLetterCode>


>  <SubcomponentList>


>  <AmbiguousFlag>
N

>  <InChI>
InChI=1S/C9H12N2O5/c12-4-6-5(13)3-8(16-6)11-2-1-7(14)10-9(11)15/h1-2,5-6,8,12-13H,3-4H2,(H,10,14,15)/t5-,6+,8+/m0/s1

>  <InChIKey>
MXHRCPNRJAMMIM-SHYZEUOFSA-N

>  <SMILES>
C1[C@@H]([C@H](O[C@H]1N2C=CC(=O)NC2=O)CO)O

$$$$
