1QKT_EST_A_600
  RCSB PDB12061703473D
Coordinates from PDB:1QKT:A:600 Model:1 without hydrogens
 20 23  0  0  0  0            999 V2000
    0.8670   53.1380  165.0150   C 0  0  0  0  0  0  0  0  0  0  0  0
    2.2480   53.1920  164.7900   C 0  0  0  0  0  0  0  0  0  0  0  0
    3.0360   52.0260  164.9340   C 0  0  0  0  0  0  0  0  0  0  0  0
    4.3950   52.1060  164.7050   O 0  0  0  0  0  0  0  0  0  0  0  0
    2.4410   50.7930  165.3090   C 0  0  0  0  0  0  0  0  0  0  0  0
    1.0210   50.7210  165.5500   C 0  0  0  0  0  0  0  0  0  0  0  0
    0.3830   49.3850  165.9720   C 0  0  0  0  0  0  0  0  0  0  0  0
   -1.1480   49.4320  166.2430   C 0  0  0  0  0  0  0  0  0  0  0  0
   -1.8940   50.4480  165.3740   C 0  0  0  0  0  0  0  0  0  0  0  0
   -1.2990   51.8780  165.6350   C 0  0  0  0  0  0  0  0  0  0  0  0
    0.2190   51.9220  165.3920   C 0  0  0  0  0  0  0  0  0  0  0  0
   -2.0700   52.8890  164.7620   C 0  0  0  0  0  0  0  0  0  0  0  0
   -3.5920   52.8930  164.9630   C 0  0  0  0  0  0  0  0  0  0  0  0
   -4.2090   51.5020  164.7630   C 0  0  0  0  0  0  0  0  0  0  0  0
   -3.4470   50.4920  165.6850   C 0  0  0  0  0  0  0  0  0  0  0  0
   -4.3350   49.2580  165.5460   C 0  0  0  0  0  0  0  0  0  0  0  0
   -5.7850   49.8370  165.7130   C 0  0  0  0  0  0  0  0  0  0  0  0
   -5.6600   51.3340  165.3010   C 0  0  0  0  0  0  0  0  0  0  0  0
   -6.7310   51.6750  164.3560   O 0  0  0  0  0  0  0  0  0  0  0  0
   -4.1860   51.1040  163.2410   C 0  0  0  0  0  0  0  0  0  0  0  0
  1  2  2  0  0  0  0
  1 11  1  0  0  0  0
  2  3  1  0  0  0  0
  3  4  1  0  0  0  0
  3  5  2  0  0  0  0
  5  6  1  0  0  0  0
  6  7  1  0  0  0  0
  6 11  2  0  0  0  0
  7  8  1  0  0  0  0
  8  9  1  0  0  0  0
  9 10  1  0  0  0  0
  9 15  1  0  0  0  0
 10 11  1  0  0  0  0
 10 12  1  0  0  0  0
 12 13  1  0  0  0  0
 13 14  1  0  0  0  0
 14 15  1  0  0  0  0
 14 18  1  0  0  0  0
 14 20  1  0  0  0  0
 15 16  1  0  0  0  0
 16 17  1  0  0  0  0
 17 18  1  0  0  0  0
 18 19  1  0  0  0  0
A    1
C1
A    2
C2
A    3
C3
A    4
O3
A    5
C4
A    6
C5
A    7
C6
A    8
C7
A    9
C8
A   10
C9
A   11
C10
A   12
C11
A   13
C12
A   14
C13
A   15
C14
A   16
C15
A   17
C16
A   18
C17
A   19
O17
A   20
C18
M  END
>  <InstanceId>
1QKT_EST_A_600

>  <ChemCompId>
EST

>  <PdbId>
1QKT

>  <ChainId>
A

>  <ResidueNumber>
600

>  <InsertionCode>


>  <Model>
1

>  <AltIds>


>  <MissingHeavyAtoms>
0

>  <ObservedFormula>
C18 O2

>  <Name>
ESTRADIOL

>  <SystematicName>
(8R,9S,13S,14S,17S)-13-methyl-6,7,8,9,11,12,14,15,16,17-decahydrocyclopenta[a]phenanthrene-3,17-diol

>  <Synonyms>


>  <Type>
NON-POLYMER

>  <Formula>
C18 H24 O2

>  <MolecularWeight>
272.382

>  <ModifiedDate>
2011-06-04

>  <Parent>


>  <OneLetterCode>


>  <SubcomponentList>


>  <AmbiguousFlag>
N

>  <InChI>
InChI=1S/C18H24O2/c1-18-9-8-14-13-5-3-12(19)10-11(13)2-4-15(14)16(18)6-7-17(18)20/h3,5,10,14-17,19-20H,2,4,6-9H2,1H3/t14-,15-,16+,17+,18+/m1/s1

>  <InChIKey>
VOXZDWNPVJITMN-ZBRFXRBCSA-N

>  <SMILES>
C[C@]12CC[C@@H]3c4ccc(cc4CC[C@H]3[C@@H]1CC[C@@H]2O)O

$$$$
