1QKT_EST_A_600


 22 25  0  0  0  0  0  0  0  0999 V2000
    0.4426   52.4122  164.6356 C   0  0  0  0  0  0  0  0  0  0  0  0
    1.8270   52.4888  164.4405 C   0  0  0  0  0  0  0  0  0  0  0  0
    2.6623   51.4276  164.8618 C   0  0  0  0  0  0  0  0  0  0  0  0
    4.0237   51.5275  164.6565 O   0  0  0  0  0  0  0  0  0  0  0  0
    2.1114   50.2784  165.4869 C   0  0  0  0  0  0  0  0  0  0  0  0
    0.6882   50.1857  165.7006 C   0  0  0  0  0  0  0  0  0  0  0  0
    0.0975   48.9443  166.3933 C   0  0  0  0  0  0  0  0  0  0  0  0
   -1.4431   48.9682  166.6067 C   0  0  0  0  0  0  0  0  0  0  0  0
   -2.2023   49.7249  165.5136 C   0  0  0  0  0  0  0  0  0  0  0  0
   -1.6844   51.2069  165.4643 C   0  0  0  0  0  0  0  0  0  0  0  0
   -0.1621   51.2771  165.2575 C   0  0  0  0  0  0  0  0  0  0  0  0
   -2.4682   51.9565  164.3677 C   0  0  0  0  0  0  0  0  0  0  0  0
   -3.9952   51.9235  164.5227 C   0  0  0  0  0  0  0  0  0  0  0  0
   -4.5392   50.4918  164.6222 C   0  0  0  0  0  0  0  0  0  0  0  0
   -3.7663   49.7535  165.7661 C   0  0  0  0  0  0  0  0  0  0  0  0
   -4.5903   48.4737  165.8828 C   0  0  0  0  0  0  0  0  0  0  0  0
   -6.0708   48.9968  165.8783 C   0  0  0  0  0  0  0  0  0  0  0  0
   -6.0000   50.3698  165.1459 C   0  0  0  0  0  0  0  0  0  0  0  0
   -7.0494   50.4351  164.1209 O   0  0  0  0  0  0  0  0  0  0  0  0
   -4.4407   49.7682  163.2286 C   0  0  0  0  0  0  0  0  0  0  0  0
    4.3806   52.2890  164.2432 H   0  0  0  0  0  0  0  0  0  0  0  0
   -6.9429   49.6961  163.5016 H   0  0  0  0  0  0  0  0  0  0  0  0
  1  2  2  0  0  0
  1 11  1  0  0  0
  2  3  1  0  0  0
  3  4  1  0  0  0
  3  5  2  0  0  0
  5  6  1  0  0  0
  6  7  1  0  0  0
  6 11  2  0  0  0
  7  8  1  0  0  0
  8  9  1  0  0  0
  9 10  1  0  0  0
  9 15  1  0  0  0
 10 11  1  0  0  0
 10 12  1  0  0  0
 12 13  1  0  0  0
 13 14  1  0  0  0
 14 15  1  0  0  0
 14 18  1  0  0  0
 14 20  1  0  0  0
 15 16  1  0  0  0
 16 17  1  0  0  0
 17 18  1  0  0  0
 18 19  1  0  0  0
  4 21  1  0  0  0
 19 22  1  0  0  0
M  END
> <minimizedAffinity>
-11.26076

$$$$
1QKT_EST_A_600


 22 25  0  0  0  0  0  0  0  0999 V2000
    0.7777   52.8827  165.1928 C   0  0  0  0  0  0  0  0  0  0  0  0
    2.1758   52.8264  165.1404 C   0  0  0  0  0  0  0  0  0  0  0  0
    2.8379   51.5776  165.1983 C   0  0  0  0  0  0  0  0  0  0  0  0
    4.2170   51.5498  165.1433 O   0  0  0  0  0  0  0  0  0  0  0  0
    2.0980   50.3716  165.3121 C   0  0  0  0  0  0  0  0  0  0  0  0
    0.6577   50.4119  165.3730 C   0  0  0  0  0  0  0  0  0  0  0  0
   -0.1395   49.1022  165.5125 C   0  0  0  0  0  0  0  0  0  0  0  0
   -1.6833   49.2669  165.6078 C   0  0  0  0  0  0  0  0  0  0  0  0
   -2.2224   50.4642  164.8205 C   0  0  0  0  0  0  0  0  0  0  0  0
   -1.5484   51.7761  165.3606 C   0  0  0  0  0  0  0  0  0  0  0  0
   -0.0134   51.6985  165.3050 C   0  0  0  0  0  0  0  0  0  0  0  0
   -2.1121   52.9716  164.5658 C   0  0  0  0  0  0  0  0  0  0  0  0
   -3.6416   53.1026  164.5869 C   0  0  0  0  0  0  0  0  0  0  0  0
   -4.3419   51.8229  164.1099 C   0  0  0  0  0  0  0  0  0  0  0  0
   -3.7934   50.6226  164.9520 C   0  0  0  0  0  0  0  0  0  0  0  0
   -4.7562   49.5167  164.5271 C   0  0  0  0  0  0  0  0  0  0  0  0
   -6.1619   50.2115  164.6095 C   0  0  0  0  0  0  0  0  0  0  0  0
   -5.8594   51.7306  164.4443 C   0  0  0  0  0  0  0  0  0  0  0  0
   -6.7663   52.3066  163.4433 O   0  0  0  0  0  0  0  0  0  0  0  0
   -4.1551   51.6395  162.5585 C   0  0  0  0  0  0  0  0  0  0  0  0
    4.6991   52.3497  165.0682 H   0  0  0  0  0  0  0  0  0  0  0  0
   -6.6654   51.8310  162.6040 H   0  0  0  0  0  0  0  0  0  0  0  0
  1  2  2  0  0  0
  1 11  1  0  0  0
  2  3  1  0  0  0
  3  4  1  0  0  0
  3  5  2  0  0  0
  5  6  1  0  0  0
  6  7  1  0  0  0
  6 11  2  0  0  0
  7  8  1  0  0  0
  8  9  1  0  0  0
  9 10  1  0  0  0
  9 15  1  0  0  0
 10 11  1  0  0  0
 10 12  1  0  0  0
 12 13  1  0  0  0
 13 14  1  0  0  0
 14 15  1  0  0  0
 14 18  1  0  0  0
 14 20  1  0  0  0
 15 16  1  0  0  0
 16 17  1  0  0  0
 17 18  1  0  0  0
 18 19  1  0  0  0
  4 21  1  0  0  0
 19 22  1  0  0  0
M  END
> <minimizedAffinity>
-10.36226

$$$$
1QKT_EST_A_600


 22 25  0  0  0  0  0  0  0  0999 V2000
    0.6422   49.6222  164.8893 C   0  0  0  0  0  0  0  0  0  0  0  0
    1.9583   49.6981  165.3611 C   0  0  0  0  0  0  0  0  0  0  0  0
    2.5460   50.9580  165.6232 C   0  0  0  0  0  0  0  0  0  0  0  0
    3.8447   51.0051  166.0890 O   0  0  0  0  0  0  0  0  0  0  0  0
    1.8142   52.1555  165.4103 C   0  0  0  0  0  0  0  0  0  0  0  0
    0.4596   52.0955  164.9194 C   0  0  0  0  0  0  0  0  0  0  0  0
   -0.3243   53.3977  164.6749 C   0  0  0  0  0  0  0  0  0  0  0  0
   -1.7616   53.2159  164.1086 C   0  0  0  0  0  0  0  0  0  0  0  0
   -2.4493   51.9321  164.5808 C   0  0  0  0  0  0  0  0  0  0  0  0
   -1.5827   50.6975  164.1428 C   0  0  0  0  0  0  0  0  0  0  0  0
   -0.1379   50.7968  164.6605 C   0  0  0  0  0  0  0  0  0  0  0  0
   -2.2961   49.4143  164.6151 C   0  0  0  0  0  0  0  0  0  0  0  0
   -3.7432   49.2582  164.1267 C   0  0  0  0  0  0  0  0  0  0  0  0
   -4.6148   50.4670  164.4937 C   0  0  0  0  0  0  0  0  0  0  0  0
   -3.9021   51.7599  163.9726 C   0  0  0  0  0  0  0  0  0  0  0  0
   -5.0004   52.7966  164.1953 C   0  0  0  0  0  0  0  0  0  0  0  0
   -6.2836   52.0887  163.6314 C   0  0  0  0  0  0  0  0  0  0  0  0
   -5.9691   50.5665  163.7327 C   0  0  0  0  0  0  0  0  0  0  0  0
   -7.1012   49.8710  164.3579 O   0  0  0  0  0  0  0  0  0  0  0  0
   -4.9024   50.4881  166.0404 C   0  0  0  0  0  0  0  0  0  0  0  0
    4.3219   50.2106  166.2274 H   0  0  0  0  0  0  0  0  0  0  0  0
   -7.2755   50.2566  165.2308 H   0  0  0  0  0  0  0  0  0  0  0  0
  1  2  2  0  0  0
  1 11  1  0  0  0
  2  3  1  0  0  0
  3  4  1  0  0  0
  3  5  2  0  0  0
  5  6  1  0  0  0
  6  7  1  0  0  0
  6 11  2  0  0  0
  7  8  1  0  0  0
  8  9  1  0  0  0
  9 10  1  0  0  0
  9 15  1  0  0  0
 10 11  1  0  0  0
 10 12  1  0  0  0
 12 13  1  0  0  0
 13 14  1  0  0  0
 14 15  1  0  0  0
 14 18  1  0  0  0
 14 20  1  0  0  0
 15 16  1  0  0  0
 16 17  1  0  0  0
 17 18  1  0  0  0
 18 19  1  0  0  0
  4 21  1  0  0  0
 19 22  1  0  0  0
M  END
> <minimizedAffinity>
-9.29339

$$$$
1QKT_EST_A_600


 22 25  0  0  0  0  0  0  0  0999 V2000
    0.2180   52.2122  165.0414 C   0  0  0  0  0  0  0  0  0  0  0  0
    1.4900   51.6458  165.1888 C   0  0  0  0  0  0  0  0  0  0  0  0
    1.6252   50.2567  165.4198 C   0  0  0  0  0  0  0  0  0  0  0  0
    2.8906   49.7231  165.5601 O   0  0  0  0  0  0  0  0  0  0  0  0
    0.4793   49.4234  165.5074 C   0  0  0  0  0  0  0  0  0  0  0  0
   -0.8384   49.9914  165.3636 C   0  0  0  0  0  0  0  0  0  0  0  0
   -2.0785   49.0861  165.4754 C   0  0  0  0  0  0  0  0  0  0  0  0
   -3.4486   49.8107  165.3430 C   0  0  0  0  0  0  0  0  0  0  0  0
   -3.4128   51.0254  164.4118 C   0  0  0  0  0  0  0  0  0  0  0  0
   -2.3570   52.0540  164.9542 C   0  0  0  0  0  0  0  0  0  0  0  0
   -0.9666   51.4177  165.1188 C   0  0  0  0  0  0  0  0  0  0  0  0
   -2.3438   53.2751  164.0122 C   0  0  0  0  0  0  0  0  0  0  0  0
   -3.7054   53.9551  163.8107 C   0  0  0  0  0  0  0  0  0  0  0  0
   -4.7801   52.9729  163.3249 C   0  0  0  0  0  0  0  0  0  0  0  0
   -4.8141   51.7581  164.3118 C   0  0  0  0  0  0  0  0  0  0  0  0
   -6.0708   51.0379  163.8294 C   0  0  0  0  0  0  0  0  0  0  0  0
   -7.1134   52.2011  163.6691 C   0  0  0  0  0  0  0  0  0  0  0  0
   -6.2475   53.4771  163.4492 C   0  0  0  0  0  0  0  0  0  0  0  0
   -6.7610   54.2271  162.2959 O   0  0  0  0  0  0  0  0  0  0  0  0
   -4.5131   52.5609  161.8301 C   0  0  0  0  0  0  0  0  0  0  0  0
    3.6426   50.2789  165.5011 H   0  0  0  0  0  0  0  0  0  0  0  0
   -6.7579   53.6563  161.5116 H   0  0  0  0  0  0  0  0  0  0  0  0
  1  2  2  0  0  0
  1 11  1  0  0  0
  2  3  1  0  0  0
  3  4  1  0  0  0
  3  5  2  0  0  0
  5  6  1  0  0  0
  6  7  1  0  0  0
  6 11  2  0  0  0
  7  8  1  0  0  0
  8  9  1  0  0  0
  9 10  1  0  0  0
  9 15  1  0  0  0
 10 11  1  0  0  0
 10 12  1  0  0  0
 12 13  1  0  0  0
 13 14  1  0  0  0
 14 15  1  0  0  0
 14 18  1  0  0  0
 14 20  1  0  0  0
 15 16  1  0  0  0
 16 17  1  0  0  0
 17 18  1  0  0  0
 18 19  1  0  0  0
  4 21  1  0  0  0
 19 22  1  0  0  0
M  END
> <minimizedAffinity>
-9.07423

$$$$
1QKT_EST_A_600


 22 25  0  0  0  0  0  0  0  0999 V2000
   -4.4263   52.7585  162.3984 C   0  0  0  0  0  0  0  0  0  0  0  0
   -5.6599   53.4010  162.2369 C   0  0  0  0  0  0  0  0  0  0  0  0
   -6.7603   53.0376  163.0483 C   0  0  0  0  0  0  0  0  0  0  0  0
   -7.9650   53.6876  162.8698 O   0  0  0  0  0  0  0  0  0  0  0  0
   -6.6301   52.0205  164.0298 C   0  0  0  0  0  0  0  0  0  0  0  0
   -5.3683   51.3447  164.2055 C   0  0  0  0  0  0  0  0  0  0  0  0
   -5.2368   50.2312  165.2605 C   0  0  0  0  0  0  0  0  0  0  0  0
   -3.8430   49.5448  165.3369 C   0  0  0  0  0  0  0  0  0  0  0  0
   -2.6794   50.4790  164.9947 C   0  0  0  0  0  0  0  0  0  0  0  0
   -2.8808   51.0340  163.5392 C   0  0  0  0  0  0  0  0  0  0  0  0
   -4.2420   51.7302  163.3729 C   0  0  0  0  0  0  0  0  0  0  0  0
   -1.6944   51.9618  163.2072 C   0  0  0  0  0  0  0  0  0  0  0  0
   -0.3073   51.3202  163.3528 C   0  0  0  0  0  0  0  0  0  0  0  0
   -0.0863   50.7224  164.7490 C   0  0  0  0  0  0  0  0  0  0  0  0
   -1.2739   49.7503  165.0581 C   0  0  0  0  0  0  0  0  0  0  0  0
   -0.7663   49.0816  166.3333 C   0  0  0  0  0  0  0  0  0  0  0  0
    0.7243   48.7302  165.9869 C   0  0  0  0  0  0  0  0  0  0  0  0
    1.1175   49.7431  164.8707 C   0  0  0  0  0  0  0  0  0  0  0  0
    2.4081   50.3613  165.2000 O   0  0  0  0  0  0  0  0  0  0  0  0
    0.0837   51.8660  165.8161 C   0  0  0  0  0  0  0  0  0  0  0  0
   -8.0438   54.3581  162.2200 H   0  0  0  0  0  0  0  0  0  0  0  0
    2.3480   50.7931  166.0665 H   0  0  0  0  0  0  0  0  0  0  0  0
  1  2  2  0  0  0
  1 11  1  0  0  0
  2  3  1  0  0  0
  3  4  1  0  0  0
  3  5  2  0  0  0
  5  6  1  0  0  0
  6  7  1  0  0  0
  6 11  2  0  0  0
  7  8  1  0  0  0
  8  9  1  0  0  0
  9 10  1  0  0  0
  9 15  1  0  0  0
 10 11  1  0  0  0
 10 12  1  0  0  0
 12 13  1  0  0  0
 13 14  1  0  0  0
 14 15  1  0  0  0
 14 18  1  0  0  0
 14 20  1  0  0  0
 15 16  1  0  0  0
 16 17  1  0  0  0
 17 18  1  0  0  0
 18 19  1  0  0  0
  4 21  1  0  0  0
 19 22  1  0  0  0
M  END
> <minimizedAffinity>
-8.94969

$$$$
1QKT_EST_A_600


 22 25  0  0  0  0  0  0  0  0999 V2000
   -3.8887   49.3375  165.7419 C   0  0  0  0  0  0  0  0  0  0  0  0
   -5.2104   49.0707  165.3642 C   0  0  0  0  0  0  0  0  0  0  0  0
   -5.9566   50.0439  164.6591 C   0  0  0  0  0  0  0  0  0  0  0  0
   -7.2571   49.7552  164.2973 O   0  0  0  0  0  0  0  0  0  0  0  0
   -5.3795   51.2981  164.3291 C   0  0  0  0  0  0  0  0  0  0  0  0
   -4.0214   51.5914  164.7153 C   0  0  0  0  0  0  0  0  0  0  0  0
   -3.4055   52.9592  164.3689 C   0  0  0  0  0  0  0  0  0  0  0  0
   -1.9490   53.1814  164.8676 C   0  0  0  0  0  0  0  0  0  0  0  0
   -1.1109   51.9008  164.9042 C   0  0  0  0  0  0  0  0  0  0  0  0
   -1.8078   50.8610  165.8531 C   0  0  0  0  0  0  0  0  0  0  0  0
   -3.2606   50.5827  165.4323 C   0  0  0  0  0  0  0  0  0  0  0  0
   -0.9442   49.5837  165.8877 C   0  0  0  0  0  0  0  0  0  0  0  0
    0.5177   49.7989  166.3042 C   0  0  0  0  0  0  0  0  0  0  0  0
    1.2239   50.8444  165.4302 C   0  0  0  0  0  0  0  0  0  0  0  0
    0.3605   52.1504  165.4364 C   0  0  0  0  0  0  0  0  0  0  0  0
    1.3153   53.1229  164.7486 C   0  0  0  0  0  0  0  0  0  0  0  0
    2.6857   52.8495  165.4648 C   0  0  0  0  0  0  0  0  0  0  0  0
    2.5652   51.3916  165.9999 C   0  0  0  0  0  0  0  0  0  0  0  0
    3.7674   50.6324  165.6333 O   0  0  0  0  0  0  0  0  0  0  0  0
    1.4847   50.2704  163.9888 C   0  0  0  0  0  0  0  0  0  0  0  0
   -7.6317   48.9253  164.5184 H   0  0  0  0  0  0  0  0  0  0  0  0
    3.8792   50.6491  164.6699 H   0  0  0  0  0  0  0  0  0  0  0  0
  1  2  2  0  0  0
  1 11  1  0  0  0
  2  3  1  0  0  0
  3  4  1  0  0  0
  3  5  2  0  0  0
  5  6  1  0  0  0
  6  7  1  0  0  0
  6 11  2  0  0  0
  7  8  1  0  0  0
  8  9  1  0  0  0
  9 10  1  0  0  0
  9 15  1  0  0  0
 10 11  1  0  0  0
 10 12  1  0  0  0
 12 13  1  0  0  0
 13 14  1  0  0  0
 14 15  1  0  0  0
 14 18  1  0  0  0
 14 20  1  0  0  0
 15 16  1  0  0  0
 16 17  1  0  0  0
 17 18  1  0  0  0
 18 19  1  0  0  0
  4 21  1  0  0  0
 19 22  1  0  0  0
M  END
> <minimizedAffinity>
-8.82498

$$$$
1QKT_EST_A_600


 22 25  0  0  0  0  0  0  0  0999 V2000
   -3.3186   53.2313  160.5910 C   0  0  0  0  0  0  0  0  0  0  0  0
   -4.0538   54.1219  159.7992 C   0  0  0  0  0  0  0  0  0  0  0  0
   -5.3076   54.6000  160.2473 C   0  0  0  0  0  0  0  0  0  0  0  0
   -6.0116   55.4784  159.4482 O   0  0  0  0  0  0  0  0  0  0  0  0
   -5.8354   54.1836  161.4975 C   0  0  0  0  0  0  0  0  0  0  0  0
   -5.0938   53.2625  162.3229 C   0  0  0  0  0  0  0  0  0  0  0  0
   -5.6779   52.8016  163.6706 C   0  0  0  0  0  0  0  0  0  0  0  0
   -4.8115   51.7783  164.4592 C   0  0  0  0  0  0  0  0  0  0  0  0
   -3.3059   51.9567  164.2466 C   0  0  0  0  0  0  0  0  0  0  0  0
   -2.9844   51.8052  162.7166 C   0  0  0  0  0  0  0  0  0  0  0  0
   -3.8037   52.7831  161.8577 C   0  0  0  0  0  0  0  0  0  0  0  0
   -1.4638   51.9749  162.5231 C   0  0  0  0  0  0  0  0  0  0  0  0
   -0.5928   51.0223  163.3543 C   0  0  0  0  0  0  0  0  0  0  0  0
   -0.9083   51.1046  164.8540 C   0  0  0  0  0  0  0  0  0  0  0  0
   -2.4474   50.8889  165.0424 C   0  0  0  0  0  0  0  0  0  0  0  0
   -2.5295   50.7544  166.5609 C   0  0  0  0  0  0  0  0  0  0  0  0
   -1.3525   49.7718  166.8997 C   0  0  0  0  0  0  0  0  0  0  0  0
   -0.3528   49.9337  165.7162 C   0  0  0  0  0  0  0  0  0  0  0  0
    1.0054   50.1211  166.2420 O   0  0  0  0  0  0  0  0  0  0  0  0
   -0.3863   52.4631  165.4519 C   0  0  0  0  0  0  0  0  0  0  0  0
   -5.6572   55.7490  158.6241 H   0  0  0  0  0  0  0  0  0  0  0  0
    1.0213   50.8934  166.8286 H   0  0  0  0  0  0  0  0  0  0  0  0
  1  2  2  0  0  0
  1 11  1  0  0  0
  2  3  1  0  0  0
  3  4  1  0  0  0
  3  5  2  0  0  0
  5  6  1  0  0  0
  6  7  1  0  0  0
  6 11  2  0  0  0
  7  8  1  0  0  0
  8  9  1  0  0  0
  9 10  1  0  0  0
  9 15  1  0  0  0
 10 11  1  0  0  0
 10 12  1  0  0  0
 12 13  1  0  0  0
 13 14  1  0  0  0
 14 15  1  0  0  0
 14 18  1  0  0  0
 14 20  1  0  0  0
 15 16  1  0  0  0
 16 17  1  0  0  0
 17 18  1  0  0  0
 18 19  1  0  0  0
  4 21  1  0  0  0
 19 22  1  0  0  0
M  END
> <minimizedAffinity>
-8.34771

$$$$
