5OOT_4K4_A_301


 43 48  0  0  0  0  0  0  0  0999 V2000
   -1.6669   -5.2717   20.6816 C   0  0  0  0  0  0  0  0  0  0  0  0
   -1.2473   -4.5845   21.8076 C   0  0  0  0  0  0  0  0  0  0  0  0
   -0.0036   -3.9654   21.8055 C   0  0  0  0  0  0  0  0  0  0  0  0
   -0.8321   -5.3276   19.5650 C   0  0  0  0  0  0  0  0  0  0  0  0
    0.4253   -4.7075   19.5571 C   0  0  0  0  0  0  0  0  0  0  0  0
    0.8549   -4.0090   20.7006 C   0  0  0  0  0  0  0  0  0  0  0  0
   -3.4215   -9.9230   22.0162 C   0  0  0  0  0  0  0  0  0  0  0  0
   -4.6415   -8.9627   22.0764 C   0  0  0  0  0  0  0  0  0  0  0  0
   -4.4623   -7.7839   21.1591 C   0  0  0  0  0  0  0  0  0  0  0  0
   -2.2270   -9.1475   22.5278 C   0  0  0  0  0  0  0  0  0  0  0  0
   -1.9029   -7.9495   21.6568 C   0  0  0  0  0  0  0  0  0  0  0  0
   -3.0905   -7.1748   21.1694 N   0  0  0  0  0  0  0  0  0  0  0  0
   -2.9253   -5.8991   20.7330 C   0  0  0  0  0  0  0  0  0  0  0  0
   -3.9121   -5.2093   20.5327 O   0  0  0  0  0  0  0  0  0  0  0  0
   -2.7667  -12.4438   22.4036 C   0  0  0  0  0  0  0  0  0  0  0  0
   -3.4684  -13.7183   22.9504 C   0  0  0  0  0  0  0  0  0  0  0  0
   -3.7297  -13.6299   24.4112 N   0  0  0  0  0  0  0  0  0  0  0  0
   -4.5334  -14.7781   24.8852 C   0  0  0  0  0  0  0  0  0  0  0  0
   -4.3432  -12.3389   24.8373 C   0  0  0  0  0  0  0  0  0  0  0  0
   -3.6698  -11.0867   24.2171 C   0  0  0  0  0  0  0  0  0  0  0  0
   -3.5611  -11.2162   22.7571 N   0  0  0  0  0  0  0  0  0  0  0  0
    0.5352   -3.2644   22.8567 O   0  0  0  0  0  0  0  0  0  0  0  0
   -0.3350   -2.9699   23.9535 C   0  0  0  0  0  0  0  0  0  0  0  0
    2.0648   -3.3148   20.8242 N   0  0  0  0  0  0  0  0  0  0  0  0
    2.0658   -2.5475   21.4410 H   0  0  0  0  0  0  0  0  0  0  0  0
    4.6076   -4.8671   18.8415 C   0  0  0  0  0  0  0  0  0  0  0  0
    5.6428   -3.9038   18.9958 C   0  0  0  0  0  0  0  0  0  0  0  0
    5.4129   -2.7490   19.7651 C   0  0  0  0  0  0  0  0  0  0  0  0
    4.2183   -2.6326   20.3257 N   0  0  0  0  0  0  0  0  0  0  0  0
    3.4414   -4.6972   19.4398 N   0  0  0  0  0  0  0  0  0  0  0  0
    3.2722   -3.5866   20.1719 C   0  0  0  0  0  0  0  0  0  0  0  0
    4.7341   -5.9410   18.1038 N   0  0  0  0  0  0  0  0  0  0  0  0
    3.8193   -7.0469   18.3877 C   0  0  0  0  0  0  0  0  0  0  0  0
    5.0458   -5.7937   16.7274 C   0  0  0  0  0  0  0  0  0  0  0  0
    4.1426   -6.2309   15.7393 C   0  0  0  0  0  0  0  0  0  0  0  0
    4.4530   -6.1325   14.3907 C   0  0  0  0  0  0  0  0  0  0  0  0
    5.6528   -5.5563   13.9778 C   0  0  0  0  0  0  0  0  0  0  0  0
    6.5413   -5.0661   14.9233 C   0  0  0  0  0  0  0  0  0  0  0  0
    6.2426   -5.2110   16.2928 C   0  0  0  0  0  0  0  0  0  0  0  0
    7.2303   -4.7071   17.2643 C   0  0  0  0  0  0  0  0  0  0  0  0
    8.4137   -4.8791   16.9495 O   0  0  0  0  0  0  0  0  0  0  0  0
    6.9161   -4.0581   18.4236 N   0  0  0  0  0  0  0  0  0  0  0  0
    8.0421   -3.4806   19.1634 C   0  0  0  0  0  0  0  0  0  0  0  0
 10 11  1  0  0  0
 10  7  1  0  0  0
 11 12  1  0  0  0
 19 20  1  0  0  0
 19 17  1  0  0  0
 20 21  1  0  0  0
 14 13  2  0  0  0
 18 17  1  0  0  0
 17 16  1  0  0  0
 21  7  1  0  0  0
 21 15  1  0  0  0
  7  8  1  0  0  0
 12 13  1  0  0  0
 12  9  1  0  0  0
 13  1  1  0  0  0
  8  9  1  0  0  0
 16 15  1  0  0  0
  1  2  2  0  0  0
  1  4  1  0  0  0
  2  3  1  0  0  0
  4  5  2  0  0  0
 23 22  1  0  0  0
  3 22  1  0  0  0
  3  6  2  0  0  0
  5  6  1  0  0  0
  6 24  1  0  0  0
 24 31  1  0  0  0
 31 30  2  0  0  0
 31 29  1  0  0  0
 30 26  1  0  0  0
 35 36  2  0  0  0
 35 34  1  0  0  0
 29 28  2  0  0  0
 33 32  1  0  0  0
 36 37  1  0  0  0
 26 32  1  0  0  0
 26 27  2  0  0  0
 32 34  1  0  0  0
 34 39  2  0  0  0
 28 27  1  0  0  0
 37 38  2  0  0  0
 27 42  1  0  0  0
 39 38  1  0  0  0
 39 40  1  0  0  0
 42 40  1  0  0  0
 42 43  1  0  0  0
 40 41  2  0  0  0
 24 25  1  0  0  0
M  END
> <minimizedAffinity>
-9.53604

$$$$
5OOT_4K4_A_301


 43 48  0  0  0  0  0  0  0  0999 V2000
   -0.6492   -7.9424   15.9134 C   0  0  0  0  0  0  0  0  0  0  0  0
    0.0561   -9.0755   16.2806 C   0  0  0  0  0  0  0  0  0  0  0  0
    1.1520   -9.4724   15.5245 C   0  0  0  0  0  0  0  0  0  0  0  0
   -0.2441   -7.2196   14.7909 C   0  0  0  0  0  0  0  0  0  0  0  0
    0.8591   -7.6159   14.0218 C   0  0  0  0  0  0  0  0  0  0  0  0
    1.5775   -8.7678   14.3921 C   0  0  0  0  0  0  0  0  0  0  0  0
   -1.3877   -5.5633   20.4178 C   0  0  0  0  0  0  0  0  0  0  0  0
   -2.7383   -5.4806   19.6540 C   0  0  0  0  0  0  0  0  0  0  0  0
   -2.8835   -6.6050   18.6653 C   0  0  0  0  0  0  0  0  0  0  0  0
   -0.2910   -5.3872   19.3900 C   0  0  0  0  0  0  0  0  0  0  0  0
   -0.2922   -6.4927   18.3523 C   0  0  0  0  0  0  0  0  0  0  0  0
   -1.6480   -6.9152   17.8714 N   0  0  0  0  0  0  0  0  0  0  0  0
   -1.7631   -7.5867   16.6963 C   0  0  0  0  0  0  0  0  0  0  0  0
   -2.8718   -7.7468   16.2117 O   0  0  0  0  0  0  0  0  0  0  0  0
    0.0310   -3.7557   21.7033 C   0  0  0  0  0  0  0  0  0  0  0  0
    0.1748   -3.2742   23.1742 C   0  0  0  0  0  0  0  0  0  0  0  0
   -1.0410   -2.5648   23.6519 N   0  0  0  0  0  0  0  0  0  0  0  0
   -0.9496   -2.2510   25.0949 C   0  0  0  0  0  0  0  0  0  0  0  0
   -2.3153   -3.2751   23.3415 C   0  0  0  0  0  0  0  0  0  0  0  0
   -2.3999   -3.8102   21.8880 C   0  0  0  0  0  0  0  0  0  0  0  0
   -1.2062   -4.5968   21.5463 N   0  0  0  0  0  0  0  0  0  0  0  0
    1.9277  -10.5786   15.7720 O   0  0  0  0  0  0  0  0  0  0  0  0
    1.2561  -11.8402   15.8360 C   0  0  0  0  0  0  0  0  0  0  0  0
    2.7155   -9.2618   13.7426 N   0  0  0  0  0  0  0  0  0  0  0  0
    2.5586   -9.9265   13.0336 H   0  0  0  0  0  0  0  0  0  0  0  0
    5.7117   -7.4067   14.3659 C   0  0  0  0  0  0  0  0  0  0  0  0
    6.6355   -8.4839   14.4644 C   0  0  0  0  0  0  0  0  0  0  0  0
    6.1812   -9.8079   14.3282 C   0  0  0  0  0  0  0  0  0  0  0  0
    4.8876   -9.9749   14.0963 N   0  0  0  0  0  0  0  0  0  0  0  0
    4.4347   -7.6413   14.1189 N   0  0  0  0  0  0  0  0  0  0  0  0
    4.0500   -8.9190   13.9856 C   0  0  0  0  0  0  0  0  0  0  0  0
    6.0542   -6.1537   14.5277 N   0  0  0  0  0  0  0  0  0  0  0  0
    5.1578   -5.1470   13.9589 C   0  0  0  0  0  0  0  0  0  0  0  0
    6.6552   -5.7604   15.7514 C   0  0  0  0  0  0  0  0  0  0  0  0
    6.0175   -4.8297   16.5942 C   0  0  0  0  0  0  0  0  0  0  0  0
    6.6136   -4.4038   17.7723 C   0  0  0  0  0  0  0  0  0  0  0  0
    7.8435   -4.9214   18.1740 C   0  0  0  0  0  0  0  0  0  0  0  0
    8.4736   -5.8801   17.3944 C   0  0  0  0  0  0  0  0  0  0  0  0
    7.8867   -6.2745   16.1755 C   0  0  0  0  0  0  0  0  0  0  0  0
    8.6069   -7.2702   15.3614 C   0  0  0  0  0  0  0  0  0  0  0  0
    9.8380   -7.1536   15.3541 O   0  0  0  0  0  0  0  0  0  0  0  0
    8.0103   -8.2892   14.6760 N   0  0  0  0  0  0  0  0  0  0  0  0
    8.9127   -9.2749   14.0738 C   0  0  0  0  0  0  0  0  0  0  0  0
 10 11  1  0  0  0
 10  7  1  0  0  0
 11 12  1  0  0  0
 19 20  1  0  0  0
 19 17  1  0  0  0
 20 21  1  0  0  0
 14 13  2  0  0  0
 18 17  1  0  0  0
 17 16  1  0  0  0
 21  7  1  0  0  0
 21 15  1  0  0  0
  7  8  1  0  0  0
 12 13  1  0  0  0
 12  9  1  0  0  0
 13  1  1  0  0  0
  8  9  1  0  0  0
 16 15  1  0  0  0
  1  2  2  0  0  0
  1  4  1  0  0  0
  2  3  1  0  0  0
  4  5  2  0  0  0
 23 22  1  0  0  0
  3 22  1  0  0  0
  3  6  2  0  0  0
  5  6  1  0  0  0
  6 24  1  0  0  0
 24 31  1  0  0  0
 31 30  2  0  0  0
 31 29  1  0  0  0
 30 26  1  0  0  0
 35 36  2  0  0  0
 35 34  1  0  0  0
 29 28  2  0  0  0
 33 32  1  0  0  0
 36 37  1  0  0  0
 26 32  1  0  0  0
 26 27  2  0  0  0
 32 34  1  0  0  0
 34 39  2  0  0  0
 28 27  1  0  0  0
 37 38  2  0  0  0
 27 42  1  0  0  0
 39 38  1  0  0  0
 39 40  1  0  0  0
 42 40  1  0  0  0
 42 43  1  0  0  0
 40 41  2  0  0  0
 24 25  1  0  0  0
M  END
> <minimizedAffinity>
-9.48059

$$$$
5OOT_4K4_A_301


 43 48  0  0  0  0  0  0  0  0999 V2000
    0.4357   -5.0049   19.8309 C   0  0  0  0  0  0  0  0  0  0  0  0
   -0.4206   -4.9831   18.7435 C   0  0  0  0  0  0  0  0  0  0  0  0
    0.0145   -5.4813   17.5218 C   0  0  0  0  0  0  0  0  0  0  0  0
    1.7198   -5.5290   19.6787 C   0  0  0  0  0  0  0  0  0  0  0  0
    2.1663   -6.0309   18.4481 C   0  0  0  0  0  0  0  0  0  0  0  0
    1.2984   -6.0091   17.3407 C   0  0  0  0  0  0  0  0  0  0  0  0
   -2.9902   -6.4340   23.3968 C   0  0  0  0  0  0  0  0  0  0  0  0
   -2.0559   -5.3973   24.0800 C   0  0  0  0  0  0  0  0  0  0  0  0
   -1.4427   -4.4602   23.0757 C   0  0  0  0  0  0  0  0  0  0  0  0
   -2.1214   -7.2747   22.4868 C   0  0  0  0  0  0  0  0  0  0  0  0
   -1.4764   -6.4537   21.3873 C   0  0  0  0  0  0  0  0  0  0  0  0
   -0.9607   -5.1114   21.8121 N   0  0  0  0  0  0  0  0  0  0  0  0
   -0.0392   -4.4739   21.0444 C   0  0  0  0  0  0  0  0  0  0  0  0
    0.5246   -3.4882   21.4918 O   0  0  0  0  0  0  0  0  0  0  0  0
   -4.7653   -6.7579   25.3144 C   0  0  0  0  0  0  0  0  0  0  0  0
   -5.0309   -7.7970   26.4394 C   0  0  0  0  0  0  0  0  0  0  0  0
   -5.4748   -9.1078   25.8966 N   0  0  0  0  0  0  0  0  0  0  0  0
   -5.5732  -10.1275   26.9641 C   0  0  0  0  0  0  0  0  0  0  0  0
   -4.6436   -9.6038   24.7618 C   0  0  0  0  0  0  0  0  0  0  0  0
   -4.3315   -8.5254   23.6915 C   0  0  0  0  0  0  0  0  0  0  0  0
   -3.7879   -7.3091   24.3125 N   0  0  0  0  0  0  0  0  0  0  0  0
   -0.7277   -5.5080   16.3663 O   0  0  0  0  0  0  0  0  0  0  0  0
   -1.9440   -6.2607   16.3945 C   0  0  0  0  0  0  0  0  0  0  0  0
    1.5934   -6.5053   16.0648 N   0  0  0  0  0  0  0  0  0  0  0  0
    0.8872   -6.4086   15.3857 H   0  0  0  0  0  0  0  0  0  0  0  0
    4.8529   -7.0861   14.7064 C   0  0  0  0  0  0  0  0  0  0  0  0
    4.9547   -8.4860   14.9376 C   0  0  0  0  0  0  0  0  0  0  0  0
    3.8992   -9.1679   15.5691 C   0  0  0  0  0  0  0  0  0  0  0  0
    2.8397   -8.4478   15.9067 N   0  0  0  0  0  0  0  0  0  0  0  0
    3.7610   -6.4283   15.0556 N   0  0  0  0  0  0  0  0  0  0  0  0
    2.7764   -7.1226   15.6445 C   0  0  0  0  0  0  0  0  0  0  0  0
    5.8129   -6.3786   14.1668 N   0  0  0  0  0  0  0  0  0  0  0  0
    5.4319   -5.0989   13.5688 C   0  0  0  0  0  0  0  0  0  0  0  0
    7.0866   -6.3627   14.7920 C   0  0  0  0  0  0  0  0  0  0  0  0
    7.6176   -5.1622   15.3018 C   0  0  0  0  0  0  0  0  0  0  0  0
    8.8797   -5.1239   15.8767 C   0  0  0  0  0  0  0  0  0  0  0  0
    9.6383   -6.2860   16.0036 C   0  0  0  0  0  0  0  0  0  0  0  0
    9.1229   -7.4953   15.5611 C   0  0  0  0  0  0  0  0  0  0  0  0
    7.8605   -7.5209   14.9354 C   0  0  0  0  0  0  0  0  0  0  0  0
    7.3656   -8.8214   14.4489 C   0  0  0  0  0  0  0  0  0  0  0  0
    8.2257   -9.5621   13.9580 O   0  0  0  0  0  0  0  0  0  0  0  0
    6.0702   -9.2424   14.5425 N   0  0  0  0  0  0  0  0  0  0  0  0
    5.8170  -10.6352   14.1624 C   0  0  0  0  0  0  0  0  0  0  0  0
 10 11  1  0  0  0
 10  7  1  0  0  0
 11 12  1  0  0  0
 19 20  1  0  0  0
 19 17  1  0  0  0
 20 21  1  0  0  0
 14 13  2  0  0  0
 18 17  1  0  0  0
 17 16  1  0  0  0
 21  7  1  0  0  0
 21 15  1  0  0  0
  7  8  1  0  0  0
 12 13  1  0  0  0
 12  9  1  0  0  0
 13  1  1  0  0  0
  8  9  1  0  0  0
 16 15  1  0  0  0
  1  2  2  0  0  0
  1  4  1  0  0  0
  2  3  1  0  0  0
  4  5  2  0  0  0
 23 22  1  0  0  0
  3 22  1  0  0  0
  3  6  2  0  0  0
  5  6  1  0  0  0
  6 24  1  0  0  0
 24 31  1  0  0  0
 31 30  2  0  0  0
 31 29  1  0  0  0
 30 26  1  0  0  0
 35 36  2  0  0  0
 35 34  1  0  0  0
 29 28  2  0  0  0
 33 32  1  0  0  0
 36 37  1  0  0  0
 26 32  1  0  0  0
 26 27  2  0  0  0
 32 34  1  0  0  0
 34 39  2  0  0  0
 28 27  1  0  0  0
 37 38  2  0  0  0
 27 42  1  0  0  0
 39 38  1  0  0  0
 39 40  1  0  0  0
 42 40  1  0  0  0
 42 43  1  0  0  0
 40 41  2  0  0  0
 24 25  1  0  0  0
M  END
> <minimizedAffinity>
-9.28593

$$$$
5OOT_4K4_A_301


 43 48  0  0  0  0  0  0  0  0999 V2000
   -0.7210   -6.1386   19.8992 C   0  0  0  0  0  0  0  0  0  0  0  0
   -1.3340   -6.2041   18.6597 C   0  0  0  0  0  0  0  0  0  0  0  0
   -0.5679   -6.0544   17.5105 C   0  0  0  0  0  0  0  0  0  0  0  0
    0.6559   -5.9249   19.9697 C   0  0  0  0  0  0  0  0  0  0  0  0
    1.4346   -5.7702   18.8141 C   0  0  0  0  0  0  0  0  0  0  0  0
    0.8141   -5.8355   17.5528 C   0  0  0  0  0  0  0  0  0  0  0  0
   -1.1604   -3.7542   24.4397 C   0  0  0  0  0  0  0  0  0  0  0  0
   -2.5015   -4.5043   24.2092 C   0  0  0  0  0  0  0  0  0  0  0  0
   -2.3214   -5.6923   23.3041 C   0  0  0  0  0  0  0  0  0  0  0  0
   -0.7212   -3.2175   23.0947 C   0  0  0  0  0  0  0  0  0  0  0  0
   -0.4540   -4.3240   22.0931 C   0  0  0  0  0  0  0  0  0  0  0  0
   -1.4384   -5.4549   22.1138 N   0  0  0  0  0  0  0  0  0  0  0  0
   -1.5370   -6.2772   21.0372 C   0  0  0  0  0  0  0  0  0  0  0  0
   -2.4704   -7.0611   20.9742 O   0  0  0  0  0  0  0  0  0  0  0  0
    0.0693   -2.0912   26.0691 C   0  0  0  0  0  0  0  0  0  0  0  0
   -0.2564   -1.3868   27.4159 C   0  0  0  0  0  0  0  0  0  0  0  0
   -1.3144   -0.3535   27.2651 N   0  0  0  0  0  0  0  0  0  0  0  0
   -1.7212    0.1964   28.5770 C   0  0  0  0  0  0  0  0  0  0  0  0
   -2.5023   -0.8147   26.4899 C   0  0  0  0  0  0  0  0  0  0  0  0
   -2.1465   -1.5801   25.1885 C   0  0  0  0  0  0  0  0  0  0  0  0
   -1.1833   -2.6572   25.4579 N   0  0  0  0  0  0  0  0  0  0  0  0
   -1.0513   -6.0867   16.2252 O   0  0  0  0  0  0  0  0  0  0  0  0
   -1.6649   -7.3049   15.7938 C   0  0  0  0  0  0  0  0  0  0  0  0
    1.4667   -5.7343   16.3180 N   0  0  0  0  0  0  0  0  0  0  0  0
    1.1471   -5.0264   15.7130 H   0  0  0  0  0  0  0  0  0  0  0  0
    4.5263   -6.8027   14.7999 C   0  0  0  0  0  0  0  0  0  0  0  0
    4.4313   -8.2006   15.0450 C   0  0  0  0  0  0  0  0  0  0  0  0
    3.3216   -8.7138   15.7401 C   0  0  0  0  0  0  0  0  0  0  0  0
    2.4004   -7.8417   16.1223 N   0  0  0  0  0  0  0  0  0  0  0  0
    3.5645   -5.9874   15.1963 N   0  0  0  0  0  0  0  0  0  0  0  0
    2.5206   -6.5236   15.8453 C   0  0  0  0  0  0  0  0  0  0  0  0
    5.5505   -6.2494   14.2012 N   0  0  0  0  0  0  0  0  0  0  0  0
    5.3323   -4.9309   13.6060 C   0  0  0  0  0  0  0  0  0  0  0  0
    6.8440   -6.4198   14.7590 C   0  0  0  0  0  0  0  0  0  0  0  0
    7.5740   -5.3088   15.2236 C   0  0  0  0  0  0  0  0  0  0  0  0
    8.8567   -5.4556   15.7314 C   0  0  0  0  0  0  0  0  0  0  0  0
    9.4400   -6.7170   15.8349 C   0  0  0  0  0  0  0  0  0  0  0  0
    8.7277   -7.8386   15.4367 C   0  0  0  0  0  0  0  0  0  0  0  0
    7.4438   -7.6795   14.8780 C   0  0  0  0  0  0  0  0  0  0  0  0
    6.7359   -8.8947   14.4361 C   0  0  0  0  0  0  0  0  0  0  0  0
    7.4489   -9.7582   13.9115 O   0  0  0  0  0  0  0  0  0  0  0  0
    5.3993   -9.1173   14.6030 N   0  0  0  0  0  0  0  0  0  0  0  0
    4.9220  -10.4591   14.2561 C   0  0  0  0  0  0  0  0  0  0  0  0
 10 11  1  0  0  0
 10  7  1  0  0  0
 11 12  1  0  0  0
 19 20  1  0  0  0
 19 17  1  0  0  0
 20 21  1  0  0  0
 14 13  2  0  0  0
 18 17  1  0  0  0
 17 16  1  0  0  0
 21  7  1  0  0  0
 21 15  1  0  0  0
  7  8  1  0  0  0
 12 13  1  0  0  0
 12  9  1  0  0  0
 13  1  1  0  0  0
  8  9  1  0  0  0
 16 15  1  0  0  0
  1  2  2  0  0  0
  1  4  1  0  0  0
  2  3  1  0  0  0
  4  5  2  0  0  0
 23 22  1  0  0  0
  3 22  1  0  0  0
  3  6  2  0  0  0
  5  6  1  0  0  0
  6 24  1  0  0  0
 24 31  1  0  0  0
 31 30  2  0  0  0
 31 29  1  0  0  0
 30 26  1  0  0  0
 35 36  2  0  0  0
 35 34  1  0  0  0
 29 28  2  0  0  0
 33 32  1  0  0  0
 36 37  1  0  0  0
 26 32  1  0  0  0
 26 27  2  0  0  0
 32 34  1  0  0  0
 34 39  2  0  0  0
 28 27  1  0  0  0
 37 38  2  0  0  0
 27 42  1  0  0  0
 39 38  1  0  0  0
 39 40  1  0  0  0
 42 40  1  0  0  0
 42 43  1  0  0  0
 40 41  2  0  0  0
 24 25  1  0  0  0
M  END
> <minimizedAffinity>
-9.05055

$$$$
5OOT_4K4_A_301


 43 48  0  0  0  0  0  0  0  0999 V2000
    5.8550   -5.8707   16.1818 C   0  0  0  0  0  0  0  0  0  0  0  0
    6.7426   -6.9303   16.1061 C   0  0  0  0  0  0  0  0  0  0  0  0
    6.8217   -7.6720   14.9340 C   0  0  0  0  0  0  0  0  0  0  0  0
    5.0579   -5.5672   15.0777 C   0  0  0  0  0  0  0  0  0  0  0  0
    5.1307   -6.3132   13.8929 C   0  0  0  0  0  0  0  0  0  0  0  0
    6.0313   -7.3915   13.8133 C   0  0  0  0  0  0  0  0  0  0  0  0
    2.1876   -4.7087   19.6015 C   0  0  0  0  0  0  0  0  0  0  0  0
    3.5436   -4.5354   20.3401 C   0  0  0  0  0  0  0  0  0  0  0  0
    4.6602   -4.2282   19.3800 C   0  0  0  0  0  0  0  0  0  0  0  0
    2.3315   -5.9134   18.6971 C   0  0  0  0  0  0  0  0  0  0  0  0
    3.4000   -5.7149   17.6400 C   0  0  0  0  0  0  0  0  0  0  0  0
    4.6500   -5.0367   18.1154 N   0  0  0  0  0  0  0  0  0  0  0  0
    5.7941   -5.1577   17.3934 C   0  0  0  0  0  0  0  0  0  0  0  0
    6.8464   -4.7808   17.8837 O   0  0  0  0  0  0  0  0  0  0  0  0
    0.2930   -3.6685   21.1054 C   0  0  0  0  0  0  0  0  0  0  0  0
   -0.5586   -4.1277   22.3219 C   0  0  0  0  0  0  0  0  0  0  0  0
   -1.5257   -5.1957   21.9564 N   0  0  0  0  0  0  0  0  0  0  0  0
   -2.2168   -5.7285   23.1512 C   0  0  0  0  0  0  0  0  0  0  0  0
   -0.9294   -6.2997   21.1500 C   0  0  0  0  0  0  0  0  0  0  0  0
   -0.0240   -5.8129   19.9885 C   0  0  0  0  0  0  0  0  0  0  0  0
    0.9756   -4.8483   20.4689 N   0  0  0  0  0  0  0  0  0  0  0  0
    7.6482   -8.7504   14.7321 O   0  0  0  0  0  0  0  0  0  0  0  0
    8.4233   -9.1915   15.8508 C   0  0  0  0  0  0  0  0  0  0  0  0
    6.2368   -8.1996   12.6882 N   0  0  0  0  0  0  0  0  0  0  0  0
    6.8509   -7.8467   12.0045 H   0  0  0  0  0  0  0  0  0  0  0  0
    4.2001  -11.1372   12.8610 C   0  0  0  0  0  0  0  0  0  0  0  0
    4.7132  -11.8419   11.7370 C   0  0  0  0  0  0  0  0  0  0  0  0
    5.7302  -11.2646   10.9557 C   0  0  0  0  0  0  0  0  0  0  0  0
    6.1700  -10.0732   11.3330 N   0  0  0  0  0  0  0  0  0  0  0  0
    4.6932   -9.9564   13.1921 N   0  0  0  0  0  0  0  0  0  0  0  0
    5.6696   -9.4510   12.4243 C   0  0  0  0  0  0  0  0  0  0  0  0
    3.2235  -11.5912   13.6051 N   0  0  0  0  0  0  0  0  0  0  0  0
    3.1061  -11.0314   14.9516 C   0  0  0  0  0  0  0  0  0  0  0  0
    1.9764  -11.8834   12.9948 C   0  0  0  0  0  0  0  0  0  0  0  0
    0.8169  -11.1740   13.3630 C   0  0  0  0  0  0  0  0  0  0  0  0
   -0.4167  -11.4785   12.8059 C   0  0  0  0  0  0  0  0  0  0  0  0
   -0.5318  -12.4688   11.8322 C   0  0  0  0  0  0  0  0  0  0  0  0
    0.5993  -13.1499   11.4072 C   0  0  0  0  0  0  0  0  0  0  0  0
    1.8419  -12.8696   12.0098 C   0  0  0  0  0  0  0  0  0  0  0  0
    3.0121  -13.6408   11.5527 C   0  0  0  0  0  0  0  0  0  0  0  0
    2.7921  -14.8310   11.2991 O   0  0  0  0  0  0  0  0  0  0  0  0
    4.2607  -13.1198   11.3698 N   0  0  0  0  0  0  0  0  0  0  0  0
    5.2431  -14.0080   10.7416 C   0  0  0  0  0  0  0  0  0  0  0  0
 10 11  1  0  0  0
 10  7  1  0  0  0
 11 12  1  0  0  0
 19 20  1  0  0  0
 19 17  1  0  0  0
 20 21  1  0  0  0
 14 13  2  0  0  0
 18 17  1  0  0  0
 17 16  1  0  0  0
 21  7  1  0  0  0
 21 15  1  0  0  0
  7  8  1  0  0  0
 12 13  1  0  0  0
 12  9  1  0  0  0
 13  1  1  0  0  0
  8  9  1  0  0  0
 16 15  1  0  0  0
  1  2  2  0  0  0
  1  4  1  0  0  0
  2  3  1  0  0  0
  4  5  2  0  0  0
 23 22  1  0  0  0
  3 22  1  0  0  0
  3  6  2  0  0  0
  5  6  1  0  0  0
  6 24  1  0  0  0
 24 31  1  0  0  0
 31 30  2  0  0  0
 31 29  1  0  0  0
 30 26  1  0  0  0
 35 36  2  0  0  0
 35 34  1  0  0  0
 29 28  2  0  0  0
 33 32  1  0  0  0
 36 37  1  0  0  0
 26 32  1  0  0  0
 26 27  2  0  0  0
 32 34  1  0  0  0
 34 39  2  0  0  0
 28 27  1  0  0  0
 37 38  2  0  0  0
 27 42  1  0  0  0
 39 38  1  0  0  0
 39 40  1  0  0  0
 42 40  1  0  0  0
 42 43  1  0  0  0
 40 41  2  0  0  0
 24 25  1  0  0  0
M  END
> <minimizedAffinity>
-8.92031

$$$$
5OOT_4K4_A_301


 43 48  0  0  0  0  0  0  0  0999 V2000
   -0.6980   -5.1802   20.5409 C   0  0  0  0  0  0  0  0  0  0  0  0
   -1.2274   -5.2739   19.2652 C   0  0  0  0  0  0  0  0  0  0  0  0
   -0.3743   -5.2537   18.1689 C   0  0  0  0  0  0  0  0  0  0  0  0
    0.6836   -5.0690   20.7005 C   0  0  0  0  0  0  0  0  0  0  0  0
    1.5500   -5.0453   19.5985 C   0  0  0  0  0  0  0  0  0  0  0  0
    1.0147   -5.1394   18.3005 C   0  0  0  0  0  0  0  0  0  0  0  0
   -3.5312   -8.7280   22.9658 C   0  0  0  0  0  0  0  0  0  0  0  0
   -3.4043   -7.5276   23.9442 C   0  0  0  0  0  0  0  0  0  0  0  0
   -3.1733   -6.2366   23.2074 C   0  0  0  0  0  0  0  0  0  0  0  0
   -2.2002   -8.8597   22.2580 C   0  0  0  0  0  0  0  0  0  0  0  0
   -1.8654   -7.6347   21.4297 C   0  0  0  0  0  0  0  0  0  0  0  0
   -2.1957   -6.3205   22.0715 N   0  0  0  0  0  0  0  0  0  0  0  0
   -1.5989   -5.1863   21.6217 C   0  0  0  0  0  0  0  0  0  0  0  0
   -1.7120   -4.1597   22.2721 O   0  0  0  0  0  0  0  0  0  0  0  0
   -3.0040  -11.2186   23.6382 C   0  0  0  0  0  0  0  0  0  0  0  0
   -3.8144  -12.5331   23.8145 C   0  0  0  0  0  0  0  0  0  0  0  0
   -4.7225  -12.4770   24.9900 N   0  0  0  0  0  0  0  0  0  0  0  0
   -5.5961  -13.6694   25.0534 C   0  0  0  0  0  0  0  0  0  0  0  0
   -5.5265  -11.2234   25.0721 C   0  0  0  0  0  0  0  0  0  0  0  0
   -4.7063   -9.9316   24.8179 C   0  0  0  0  0  0  0  0  0  0  0  0
   -3.9317  -10.0362   23.5732 N   0  0  0  0  0  0  0  0  0  0  0  0
   -0.7690   -5.3270   16.8553 O   0  0  0  0  0  0  0  0  0  0  0  0
   -1.6334   -6.4094   16.4975 C   0  0  0  0  0  0  0  0  0  0  0  0
    1.7568   -5.1639   17.1132 N   0  0  0  0  0  0  0  0  0  0  0  0
    1.5531   -4.4585   16.4574 H   0  0  0  0  0  0  0  0  0  0  0  0
    4.6356   -6.6668   15.6096 C   0  0  0  0  0  0  0  0  0  0  0  0
    4.5696   -7.9521   16.2153 C   0  0  0  0  0  0  0  0  0  0  0  0
    3.5423   -8.2403   17.1316 C   0  0  0  0  0  0  0  0  0  0  0  0
    2.6668   -7.2752   17.3705 N   0  0  0  0  0  0  0  0  0  0  0  0
    3.7213   -5.7518   15.8810 N   0  0  0  0  0  0  0  0  0  0  0  0
    2.7545   -6.0758   16.7521 C   0  0  0  0  0  0  0  0  0  0  0  0
    5.5883   -6.3129   14.7845 N   0  0  0  0  0  0  0  0  0  0  0  0
    5.3052   -5.1857   13.8959 C   0  0  0  0  0  0  0  0  0  0  0  0
    6.9348   -6.3690   15.2285 C   0  0  0  0  0  0  0  0  0  0  0  0
    7.7093   -5.1958   15.3119 C   0  0  0  0  0  0  0  0  0  0  0  0
    9.0396   -5.2416   15.7029 C   0  0  0  0  0  0  0  0  0  0  0  0
    9.6323   -6.4494   16.0662 C   0  0  0  0  0  0  0  0  0  0  0  0
    8.8827   -7.6162   16.0475 C   0  0  0  0  0  0  0  0  0  0  0  0
    7.5457   -7.5716   15.6046 C   0  0  0  0  0  0  0  0  0  0  0  0
    6.7957   -8.8401   15.5676 C   0  0  0  0  0  0  0  0  0  0  0  0
    7.4490   -9.8279   15.2115 O   0  0  0  0  0  0  0  0  0  0  0  0
    5.4853   -8.9769   15.9254 N   0  0  0  0  0  0  0  0  0  0  0  0
    4.9751  -10.3496   15.9881 C   0  0  0  0  0  0  0  0  0  0  0  0
 10 11  1  0  0  0
 10  7  1  0  0  0
 11 12  1  0  0  0
 19 20  1  0  0  0
 19 17  1  0  0  0
 20 21  1  0  0  0
 14 13  2  0  0  0
 18 17  1  0  0  0
 17 16  1  0  0  0
 21  7  1  0  0  0
 21 15  1  0  0  0
  7  8  1  0  0  0
 12 13  1  0  0  0
 12  9  1  0  0  0
 13  1  1  0  0  0
  8  9  1  0  0  0
 16 15  1  0  0  0
  1  2  2  0  0  0
  1  4  1  0  0  0
  2  3  1  0  0  0
  4  5  2  0  0  0
 23 22  1  0  0  0
  3 22  1  0  0  0
  3  6  2  0  0  0
  5  6  1  0  0  0
  6 24  1  0  0  0
 24 31  1  0  0  0
 31 30  2  0  0  0
 31 29  1  0  0  0
 30 26  1  0  0  0
 35 36  2  0  0  0
 35 34  1  0  0  0
 29 28  2  0  0  0
 33 32  1  0  0  0
 36 37  1  0  0  0
 26 32  1  0  0  0
 26 27  2  0  0  0
 32 34  1  0  0  0
 34 39  2  0  0  0
 28 27  1  0  0  0
 37 38  2  0  0  0
 27 42  1  0  0  0
 39 38  1  0  0  0
 39 40  1  0  0  0
 42 40  1  0  0  0
 42 43  1  0  0  0
 40 41  2  0  0  0
 24 25  1  0  0  0
M  END
> <minimizedAffinity>
-8.80342

$$$$
5OOT_4K4_A_301


 43 48  0  0  0  0  0  0  0  0999 V2000
   -0.6664   -6.1860   20.1046 C   0  0  0  0  0  0  0  0  0  0  0  0
    0.5532   -5.5312   20.1035 C   0  0  0  0  0  0  0  0  0  0  0  0
    1.2606   -5.4078   18.9141 C   0  0  0  0  0  0  0  0  0  0  0  0
   -1.1625   -6.7081   18.9096 C   0  0  0  0  0  0  0  0  0  0  0  0
   -0.4527   -6.5895   17.7064 C   0  0  0  0  0  0  0  0  0  0  0  0
    0.7878   -5.9253   17.7023 C   0  0  0  0  0  0  0  0  0  0  0  0
   -3.8395   -3.2275   22.8747 C   0  0  0  0  0  0  0  0  0  0  0  0
   -4.0408   -4.6810   23.3857 C   0  0  0  0  0  0  0  0  0  0  0  0
   -2.8160   -5.5229   23.1532 C   0  0  0  0  0  0  0  0  0  0  0  0
   -3.6444   -3.3124   21.3765 C   0  0  0  0  0  0  0  0  0  0  0  0
   -2.4039   -4.0993   21.0015 C   0  0  0  0  0  0  0  0  0  0  0  0
   -2.1620   -5.3353   21.8152 N   0  0  0  0  0  0  0  0  0  0  0  0
   -1.3407   -6.3043   21.3340 C   0  0  0  0  0  0  0  0  0  0  0  0
   -1.3079   -7.3865   21.8975 O   0  0  0  0  0  0  0  0  0  0  0  0
   -5.7653   -1.5841   22.1512 C   0  0  0  0  0  0  0  0  0  0  0  0
   -6.4113   -0.2881   22.7159 C   0  0  0  0  0  0  0  0  0  0  0  0
   -7.1864   -0.5450   23.9582 N   0  0  0  0  0  0  0  0  0  0  0  0
   -7.6632    0.7168   24.5662 C   0  0  0  0  0  0  0  0  0  0  0  0
   -6.4611   -1.3779   24.9605 C   0  0  0  0  0  0  0  0  0  0  0  0
   -5.7632   -2.6246   24.3565 C   0  0  0  0  0  0  0  0  0  0  0  0
   -4.9274   -2.2540   23.2057 N   0  0  0  0  0  0  0  0  0  0  0  0
    2.4821   -4.7945   18.7778 O   0  0  0  0  0  0  0  0  0  0  0  0
    3.5078   -5.1812   19.6971 C   0  0  0  0  0  0  0  0  0  0  0  0
    1.5880   -5.7013   16.5751 N   0  0  0  0  0  0  0  0  0  0  0  0
    1.3800   -4.8976   16.0458 H   0  0  0  0  0  0  0  0  0  0  0  0
    4.6301   -6.7738   15.0252 C   0  0  0  0  0  0  0  0  0  0  0  0
    4.5812   -8.1576   15.3507 C   0  0  0  0  0  0  0  0  0  0  0  0
    3.5070   -8.6594   16.1073 C   0  0  0  0  0  0  0  0  0  0  0  0
    2.5737   -7.7914   16.4686 N   0  0  0  0  0  0  0  0  0  0  0  0
    3.6581   -5.9627   15.4050 N   0  0  0  0  0  0  0  0  0  0  0  0
    2.6491   -6.4883   16.1148 C   0  0  0  0  0  0  0  0  0  0  0  0
    5.6205   -6.2288   14.3652 N   0  0  0  0  0  0  0  0  0  0  0  0
    5.3484   -4.9522   13.7044 C   0  0  0  0  0  0  0  0  0  0  0  0
    6.9341   -6.3336   14.8913 C   0  0  0  0  0  0  0  0  0  0  0  0
    7.6463   -5.1795   15.2705 C   0  0  0  0  0  0  0  0  0  0  0  0
    8.9470   -5.2638   15.7457 C   0  0  0  0  0  0  0  0  0  0  0  0
    9.5678   -6.5017   15.9013 C   0  0  0  0  0  0  0  0  0  0  0  0
    8.8755   -7.6622   15.5885 C   0  0  0  0  0  0  0  0  0  0  0  0
    7.5719   -7.5685   15.0618 C   0  0  0  0  0  0  0  0  0  0  0  0
    6.8853   -8.8247   14.7105 C   0  0  0  0  0  0  0  0  0  0  0  0
    7.6062   -9.6977   14.2130 O   0  0  0  0  0  0  0  0  0  0  0  0
    5.5608   -9.0723   14.9307 N   0  0  0  0  0  0  0  0  0  0  0  0
    5.1109  -10.4435   14.6741 C   0  0  0  0  0  0  0  0  0  0  0  0
 10 11  1  0  0  0
 10  7  1  0  0  0
 11 12  1  0  0  0
 19 20  1  0  0  0
 19 17  1  0  0  0
 20 21  1  0  0  0
 14 13  2  0  0  0
 18 17  1  0  0  0
 17 16  1  0  0  0
 21  7  1  0  0  0
 21 15  1  0  0  0
  7  8  1  0  0  0
 12 13  1  0  0  0
 12  9  1  0  0  0
 13  1  1  0  0  0
  8  9  1  0  0  0
 16 15  1  0  0  0
  1  2  2  0  0  0
  1  4  1  0  0  0
  2  3  1  0  0  0
  4  5  2  0  0  0
 23 22  1  0  0  0
  3 22  1  0  0  0
  3  6  2  0  0  0
  5  6  1  0  0  0
  6 24  1  0  0  0
 24 31  1  0  0  0
 31 30  2  0  0  0
 31 29  1  0  0  0
 30 26  1  0  0  0
 35 36  2  0  0  0
 35 34  1  0  0  0
 29 28  2  0  0  0
 33 32  1  0  0  0
 36 37  1  0  0  0
 26 32  1  0  0  0
 26 27  2  0  0  0
 32 34  1  0  0  0
 34 39  2  0  0  0
 28 27  1  0  0  0
 37 38  2  0  0  0
 27 42  1  0  0  0
 39 38  1  0  0  0
 39 40  1  0  0  0
 42 40  1  0  0  0
 42 43  1  0  0  0
 40 41  2  0  0  0
 24 25  1  0  0  0
M  END
> <minimizedAffinity>
-8.74001

$$$$
5OOT_4K4_A_301


 43 48  0  0  0  0  0  0  0  0999 V2000
   -0.5910   -4.8768   20.5025 C   0  0  0  0  0  0  0  0  0  0  0  0
    0.7332   -4.6478   20.8346 C   0  0  0  0  0  0  0  0  0  0  0  0
    1.7112   -4.7540   19.8535 C   0  0  0  0  0  0  0  0  0  0  0  0
   -0.9178   -5.2084   19.1872 C   0  0  0  0  0  0  0  0  0  0  0  0
    0.0643   -5.3200   18.1930 C   0  0  0  0  0  0  0  0  0  0  0  0
    1.4113   -5.0887   18.5277 C   0  0  0  0  0  0  0  0  0  0  0  0
   -3.2950   -8.1908   23.3661 C   0  0  0  0  0  0  0  0  0  0  0  0
   -3.3063   -6.8402   24.1342 C   0  0  0  0  0  0  0  0  0  0  0  0
   -3.1271   -5.6731   23.2021 C   0  0  0  0  0  0  0  0  0  0  0  0
   -1.9215   -8.3318   22.7468 C   0  0  0  0  0  0  0  0  0  0  0  0
   -1.6293   -7.2365   21.7399 C   0  0  0  0  0  0  0  0  0  0  0  0
   -2.0858   -5.8650   22.1383 N   0  0  0  0  0  0  0  0  0  0  0  0
   -1.5467   -4.7764   21.5304 C   0  0  0  0  0  0  0  0  0  0  0  0
   -1.7670   -3.6692   21.9944 O   0  0  0  0  0  0  0  0  0  0  0  0
   -4.9744   -9.6010   24.8234 C   0  0  0  0  0  0  0  0  0  0  0  0
   -4.8687  -10.6398   25.9748 C   0  0  0  0  0  0  0  0  0  0  0  0
   -4.2888  -11.9286   25.5138 N   0  0  0  0  0  0  0  0  0  0  0  0
   -4.0516  -12.8488   26.6478 C   0  0  0  0  0  0  0  0  0  0  0  0
   -3.0572  -11.7746   24.6868 C   0  0  0  0  0  0  0  0  0  0  0  0
   -3.1653  -10.6790   23.5942 C   0  0  0  0  0  0  0  0  0  0  0  0
   -3.6348   -9.4092   24.1666 N   0  0  0  0  0  0  0  0  0  0  0  0
    3.0572   -4.5645   20.0516 O   0  0  0  0  0  0  0  0  0  0  0  0
    3.4647   -3.2904   20.5586 C   0  0  0  0  0  0  0  0  0  0  0  0
    2.4906   -5.1297   17.6364 N   0  0  0  0  0  0  0  0  0  0  0  0
    2.9926   -4.2907   17.5211 H   0  0  0  0  0  0  0  0  0  0  0  0
    4.2795   -7.1929   15.3234 C   0  0  0  0  0  0  0  0  0  0  0  0
    3.6557   -8.4419   15.5959 C   0  0  0  0  0  0  0  0  0  0  0  0
    2.6544   -8.5223   16.5803 C   0  0  0  0  0  0  0  0  0  0  0  0
    2.3348   -7.3963   17.2007 N   0  0  0  0  0  0  0  0  0  0  0  0
    3.9037   -6.1027   15.9693 N   0  0  0  0  0  0  0  0  0  0  0  0
    2.9375   -6.2260   16.8910 C   0  0  0  0  0  0  0  0  0  0  0  0
    5.2491   -7.0519   14.4554 N   0  0  0  0  0  0  0  0  0  0  0  0
    5.4776   -5.7033   13.9362 C   0  0  0  0  0  0  0  0  0  0  0  0
    6.4366   -7.8095   14.6259 C   0  0  0  0  0  0  0  0  0  0  0  0
    7.6678   -7.1662   14.8568 C   0  0  0  0  0  0  0  0  0  0  0  0
    8.8434   -7.8922   14.9823 C   0  0  0  0  0  0  0  0  0  0  0  0
    8.8281   -9.2845   14.9262 C   0  0  0  0  0  0  0  0  0  0  0  0
    7.6247   -9.9525   14.7541 C   0  0  0  0  0  0  0  0  0  0  0  0
    6.4404   -9.2090   14.5800 C   0  0  0  0  0  0  0  0  0  0  0  0
    5.1891   -9.9581   14.3656 C   0  0  0  0  0  0  0  0  0  0  0  0
    5.2959  -10.9732   13.6673 O   0  0  0  0  0  0  0  0  0  0  0  0
    3.9812   -9.6208   14.9052 N   0  0  0  0  0  0  0  0  0  0  0  0
    2.8988  -10.5912   14.7176 C   0  0  0  0  0  0  0  0  0  0  0  0
 10 11  1  0  0  0
 10  7  1  0  0  0
 11 12  1  0  0  0
 19 20  1  0  0  0
 19 17  1  0  0  0
 20 21  1  0  0  0
 14 13  2  0  0  0
 18 17  1  0  0  0
 17 16  1  0  0  0
 21  7  1  0  0  0
 21 15  1  0  0  0
  7  8  1  0  0  0
 12 13  1  0  0  0
 12  9  1  0  0  0
 13  1  1  0  0  0
  8  9  1  0  0  0
 16 15  1  0  0  0
  1  2  2  0  0  0
  1  4  1  0  0  0
  2  3  1  0  0  0
  4  5  2  0  0  0
 23 22  1  0  0  0
  3 22  1  0  0  0
  3  6  2  0  0  0
  5  6  1  0  0  0
  6 24  1  0  0  0
 24 31  1  0  0  0
 31 30  2  0  0  0
 31 29  1  0  0  0
 30 26  1  0  0  0
 35 36  2  0  0  0
 35 34  1  0  0  0
 29 28  2  0  0  0
 33 32  1  0  0  0
 36 37  1  0  0  0
 26 32  1  0  0  0
 26 27  2  0  0  0
 32 34  1  0  0  0
 34 39  2  0  0  0
 28 27  1  0  0  0
 37 38  2  0  0  0
 27 42  1  0  0  0
 39 38  1  0  0  0
 39 40  1  0  0  0
 42 40  1  0  0  0
 42 43  1  0  0  0
 40 41  2  0  0  0
 24 25  1  0  0  0
M  END
> <minimizedAffinity>
-8.63881

$$$$
5OOT_4K4_A_301


 43 48  0  0  0  0  0  0  0  0999 V2000
    1.5124   -4.6777   19.5039 C   0  0  0  0  0  0  0  0  0  0  0  0
    0.3858   -4.5688   18.7069 C   0  0  0  0  0  0  0  0  0  0  0  0
    0.3450   -5.2340   17.4879 C   0  0  0  0  0  0  0  0  0  0  0  0
    2.5851   -5.4558   19.0674 C   0  0  0  0  0  0  0  0  0  0  0  0
    2.5517   -6.1275   17.8372 C   0  0  0  0  0  0  0  0  0  0  0  0
    1.4082   -6.0179   17.0245 C   0  0  0  0  0  0  0  0  0  0  0  0
   -1.9278   -3.6472   23.1914 C   0  0  0  0  0  0  0  0  0  0  0  0
   -0.5271   -3.4357   23.8299 C   0  0  0  0  0  0  0  0  0  0  0  0
    0.5061   -3.0892   22.7929 C   0  0  0  0  0  0  0  0  0  0  0  0
   -1.8140   -4.8423   22.2701 C   0  0  0  0  0  0  0  0  0  0  0  0
   -0.8325   -4.6054   21.1390 C   0  0  0  0  0  0  0  0  0  0  0  0
    0.4277   -3.8913   21.5265 N   0  0  0  0  0  0  0  0  0  0  0  0
    1.5189   -3.9731   20.7218 C   0  0  0  0  0  0  0  0  0  0  0  0
    2.5923   -3.5662   21.1364 O   0  0  0  0  0  0  0  0  0  0  0  0
   -2.8790   -4.3310   25.5494 C   0  0  0  0  0  0  0  0  0  0  0  0
   -4.2126   -4.9076   26.1018 C   0  0  0  0  0  0  0  0  0  0  0  0
   -5.3264   -3.9275   26.0095 N   0  0  0  0  0  0  0  0  0  0  0  0
   -6.6170   -4.5410   26.3932 C   0  0  0  0  0  0  0  0  0  0  0  0
   -5.4305   -3.2555   24.6820 C   0  0  0  0  0  0  0  0  0  0  0  0
   -4.0733   -2.7567   24.1207 C   0  0  0  0  0  0  0  0  0  0  0  0
   -3.0679   -3.8286   24.1442 N   0  0  0  0  0  0  0  0  0  0  0  0
   -0.7030   -5.2003   16.6006 O   0  0  0  0  0  0  0  0  0  0  0  0
   -1.9668   -5.6776   17.0715 C   0  0  0  0  0  0  0  0  0  0  0  0
    1.2199   -6.6575   15.7931 N   0  0  0  0  0  0  0  0  0  0  0  0
    0.3139   -6.6089   15.4109 H   0  0  0  0  0  0  0  0  0  0  0  0
    4.2206   -7.5695   14.0694 C   0  0  0  0  0  0  0  0  0  0  0  0
    3.8444   -8.8649   13.6179 C   0  0  0  0  0  0  0  0  0  0  0  0
    2.5751   -9.3762   13.9427 C   0  0  0  0  0  0  0  0  0  0  0  0
    1.7804   -8.5932   14.6570 N   0  0  0  0  0  0  0  0  0  0  0  0
    3.3741   -6.8328   14.7677 N   0  0  0  0  0  0  0  0  0  0  0  0
    2.1713   -7.3576   15.0436 C   0  0  0  0  0  0  0  0  0  0  0  0
    5.4003   -7.0485   13.8451 N   0  0  0  0  0  0  0  0  0  0  0  0
    5.5060   -5.5923   13.9389 C   0  0  0  0  0  0  0  0  0  0  0  0
    6.5522   -7.7378   14.3047 C   0  0  0  0  0  0  0  0  0  0  0  0
    7.3969   -7.1545   15.2687 C   0  0  0  0  0  0  0  0  0  0  0  0
    8.5494   -7.7984   15.6952 C   0  0  0  0  0  0  0  0  0  0  0  0
    8.8780   -9.0628   15.2101 C   0  0  0  0  0  0  0  0  0  0  0  0
    8.0394   -9.6894   14.3001 C   0  0  0  0  0  0  0  0  0  0  0  0
    6.8950   -9.0115   13.8347 C   0  0  0  0  0  0  0  0  0  0  0  0
    6.0500   -9.6998   12.8421 C   0  0  0  0  0  0  0  0  0  0  0  0
    6.6634  -10.3643   11.9986 O   0  0  0  0  0  0  0  0  0  0  0  0
    4.6852   -9.6696   12.8316 N   0  0  0  0  0  0  0  0  0  0  0  0
    4.0290  -10.5617   11.8713 C   0  0  0  0  0  0  0  0  0  0  0  0
 10 11  1  0  0  0
 10  7  1  0  0  0
 11 12  1  0  0  0
 19 20  1  0  0  0
 19 17  1  0  0  0
 20 21  1  0  0  0
 14 13  2  0  0  0
 18 17  1  0  0  0
 17 16  1  0  0  0
 21  7  1  0  0  0
 21 15  1  0  0  0
  7  8  1  0  0  0
 12 13  1  0  0  0
 12  9  1  0  0  0
 13  1  1  0  0  0
  8  9  1  0  0  0
 16 15  1  0  0  0
  1  2  2  0  0  0
  1  4  1  0  0  0
  2  3  1  0  0  0
  4  5  2  0  0  0
 23 22  1  0  0  0
  3 22  1  0  0  0
  3  6  2  0  0  0
  5  6  1  0  0  0
  6 24  1  0  0  0
 24 31  1  0  0  0
 31 30  2  0  0  0
 31 29  1  0  0  0
 30 26  1  0  0  0
 35 36  2  0  0  0
 35 34  1  0  0  0
 29 28  2  0  0  0
 33 32  1  0  0  0
 36 37  1  0  0  0
 26 32  1  0  0  0
 26 27  2  0  0  0
 32 34  1  0  0  0
 34 39  2  0  0  0
 28 27  1  0  0  0
 37 38  2  0  0  0
 27 42  1  0  0  0
 39 38  1  0  0  0
 39 40  1  0  0  0
 42 40  1  0  0  0
 42 43  1  0  0  0
 40 41  2  0  0  0
 24 25  1  0  0  0
M  END
> <minimizedAffinity>
-8.62959

$$$$
5OOT_4K4_A_301


 43 48  0  0  0  0  0  0  0  0999 V2000
    4.3377   -5.1007   18.3183 C   0  0  0  0  0  0  0  0  0  0  0  0
    3.1500   -5.0013   17.6141 C   0  0  0  0  0  0  0  0  0  0  0  0
    2.0042   -4.5637   18.2666 C   0  0  0  0  0  0  0  0  0  0  0  0
    4.3608   -4.7575   19.6704 C   0  0  0  0  0  0  0  0  0  0  0  0
    3.2077   -4.3179   20.3357 C   0  0  0  0  0  0  0  0  0  0  0  0
    1.9988   -4.2167   19.6228 C   0  0  0  0  0  0  0  0  0  0  0  0
    5.4615   -9.1979   15.4122 C   0  0  0  0  0  0  0  0  0  0  0  0
    6.5218   -8.1153   15.0688 C   0  0  0  0  0  0  0  0  0  0  0  0
    6.7221   -7.1564   16.2105 C   0  0  0  0  0  0  0  0  0  0  0  0
    4.1469   -8.4760   15.6136 C   0  0  0  0  0  0  0  0  0  0  0  0
    4.1957   -7.5057   16.7776 C   0  0  0  0  0  0  0  0  0  0  0  0
    5.4617   -6.7105   16.8929 N   0  0  0  0  0  0  0  0  0  0  0  0
    5.4696   -5.5654   17.6234 C   0  0  0  0  0  0  0  0  0  0  0  0
    6.4341   -4.8212   17.5476 O   0  0  0  0  0  0  0  0  0  0  0  0
    4.1103  -10.4134   13.5071 C   0  0  0  0  0  0  0  0  0  0  0  0
    3.9515  -11.8719   12.9938 C   0  0  0  0  0  0  0  0  0  0  0  0
    5.1911  -12.3748   12.3454 N   0  0  0  0  0  0  0  0  0  0  0  0
    5.0759  -13.8096   12.0031 C   0  0  0  0  0  0  0  0  0  0  0  0
    6.4317  -12.1131   13.1308 C   0  0  0  0  0  0  0  0  0  0  0  0
    6.5279  -10.6710   13.6940 C   0  0  0  0  0  0  0  0  0  0  0  0
    5.3023  -10.3059   14.4184 N   0  0  0  0  0  0  0  0  0  0  0  0
    0.7645   -4.4316   17.6899 O   0  0  0  0  0  0  0  0  0  0  0  0
    0.3011   -5.5246   16.8916 C   0  0  0  0  0  0  0  0  0  0  0  0
    0.7814   -3.7617   20.1443 N   0  0  0  0  0  0  0  0  0  0  0  0
    0.4969   -2.8616   19.8648 H   0  0  0  0  0  0  0  0  0  0  0  0
   -1.3788   -4.5608   22.8833 C   0  0  0  0  0  0  0  0  0  0  0  0
   -1.7124   -5.8985   22.5332 C   0  0  0  0  0  0  0  0  0  0  0  0
   -1.1903   -6.4630   21.3556 C   0  0  0  0  0  0  0  0  0  0  0  0
   -0.3865   -5.6982   20.6318 N   0  0  0  0  0  0  0  0  0  0  0  0
   -0.5587   -3.8555   22.1237 N   0  0  0  0  0  0  0  0  0  0  0  0
   -0.0770   -4.4393   21.0168 C   0  0  0  0  0  0  0  0  0  0  0  0
   -1.8632   -3.9554   23.9379 N   0  0  0  0  0  0  0  0  0  0  0  0
   -1.1155   -2.8008   24.4363 C   0  0  0  0  0  0  0  0  0  0  0  0
   -3.2703   -3.8269   24.0680 C   0  0  0  0  0  0  0  0  0  0  0  0
   -3.8728   -2.5542   24.0886 C   0  0  0  0  0  0  0  0  0  0  0  0
   -5.2424   -2.4124   24.2585 C   0  0  0  0  0  0  0  0  0  0  0  0
   -6.0644   -3.5323   24.3697 C   0  0  0  0  0  0  0  0  0  0  0  0
   -5.5101   -4.8018   24.2991 C   0  0  0  0  0  0  0  0  0  0  0  0
   -4.1133   -4.9399   24.1738 C   0  0  0  0  0  0  0  0  0  0  0  0
   -3.5628   -6.3069   24.1373 C   0  0  0  0  0  0  0  0  0  0  0  0
   -4.1200   -7.1192   24.8849 O   0  0  0  0  0  0  0  0  0  0  0  0
   -2.5386   -6.7089   23.3291 N   0  0  0  0  0  0  0  0  0  0  0  0
   -2.2576   -8.1475   23.3135 C   0  0  0  0  0  0  0  0  0  0  0  0
 10 11  1  0  0  0
 10  7  1  0  0  0
 11 12  1  0  0  0
 19 20  1  0  0  0
 19 17  1  0  0  0
 20 21  1  0  0  0
 14 13  2  0  0  0
 18 17  1  0  0  0
 17 16  1  0  0  0
 21  7  1  0  0  0
 21 15  1  0  0  0
  7  8  1  0  0  0
 12 13  1  0  0  0
 12  9  1  0  0  0
 13  1  1  0  0  0
  8  9  1  0  0  0
 16 15  1  0  0  0
  1  2  2  0  0  0
  1  4  1  0  0  0
  2  3  1  0  0  0
  4  5  2  0  0  0
 23 22  1  0  0  0
  3 22  1  0  0  0
  3  6  2  0  0  0
  5  6  1  0  0  0
  6 24  1  0  0  0
 24 31  1  0  0  0
 31 30  2  0  0  0
 31 29  1  0  0  0
 30 26  1  0  0  0
 35 36  2  0  0  0
 35 34  1  0  0  0
 29 28  2  0  0  0
 33 32  1  0  0  0
 36 37  1  0  0  0
 26 32  1  0  0  0
 26 27  2  0  0  0
 32 34  1  0  0  0
 34 39  2  0  0  0
 28 27  1  0  0  0
 37 38  2  0  0  0
 27 42  1  0  0  0
 39 38  1  0  0  0
 39 40  1  0  0  0
 42 40  1  0  0  0
 42 43  1  0  0  0
 40 41  2  0  0  0
 24 25  1  0  0  0
M  END
> <minimizedAffinity>
-8.44907

$$$$
