4ZAE_4M1_A_301


 37 41  0  0  0  0  0  0  0  0999 V2000
  -14.5785  -35.8202  -13.4315 C   0  0  0  0  0  0  0  0  0  0  0  0
  -11.4079  -35.1036   -9.5642 C   0  0  0  0  0  0  0  0  0  0  0  0
  -13.8528  -34.0811   -8.7566 C   0  0  0  0  0  0  0  0  0  0  0  0
  -11.5281  -34.5490   -8.2935 C   0  0  0  0  0  0  0  0  0  0  0  0
  -12.7733  -34.0300   -7.8803 C   0  0  0  0  0  0  0  0  0  0  0  0
  -12.4775  -35.1637  -10.4450 C   0  0  0  0  0  0  0  0  0  0  0  0
  -13.6983  -34.6499  -10.0183 C   0  0  0  0  0  0  0  0  0  0  0  0
  -13.9768  -35.4363  -12.1020 C   0  0  0  0  0  0  0  0  0  0  0  0
  -10.3544  -34.5940   -7.3526 C   0  0  0  0  0  0  0  0  0  0  0  0
  -12.9865  -33.5608   -6.4626 C   0  0  0  0  0  0  0  0  0  0  0  0
  -12.6802  -35.6280  -11.7404 N   0  0  0  0  0  0  0  0  0  0  0  0
  -14.5886  -34.8400  -11.0561 N   0  0  0  0  0  0  0  0  0  0  0  0
  -11.9882  -36.0348  -12.3104 H   0  0  0  0  0  0  0  0  0  0  0  0
  -14.7305  -32.4735  -16.1551 C   0  0  0  0  0  0  0  0  0  0  0  0
  -14.5572  -33.7544  -16.6300 C   0  0  0  0  0  0  0  0  0  0  0  0
  -14.8565  -32.2614  -14.7978 C   0  0  0  0  0  0  0  0  0  0  0  0
  -14.5066  -34.8258  -15.7511 C   0  0  0  0  0  0  0  0  0  0  0  0
  -14.8301  -33.3330  -13.9167 C   0  0  0  0  0  0  0  0  0  0  0  0
  -14.6389  -34.6291  -14.3821 C   0  0  0  0  0  0  0  0  0  0  0  0
  -15.9941  -36.4330  -13.2298 C   0  0  0  0  0  0  0  0  0  0  0  0
  -15.5265  -38.8204  -12.9822 C   0  0  0  0  0  0  0  0  0  0  0  0
  -15.8719  -37.6492  -12.4434 N   0  0  0  0  0  0  0  0  0  0  0  0
  -15.2682  -38.9551  -14.1770 O   0  0  0  0  0  0  0  0  0  0  0  0
  -16.0509  -37.6075  -11.4762 H   0  0  0  0  0  0  0  0  0  0  0  0
  -14.3374  -41.3949  -10.4373 C   0  0  0  0  0  0  0  0  0  0  0  0
  -16.4579  -42.1128  -11.3235 C   0  0  0  0  0  0  0  0  0  0  0  0
  -15.5050  -40.0026  -12.0525 C   0  0  0  0  0  0  0  0  0  0  0  0
  -15.3589  -42.3415  -10.4975 C   0  0  0  0  0  0  0  0  0  0  0  0
  -14.4172  -40.2530  -11.2149 C   0  0  0  0  0  0  0  0  0  0  0  0
  -16.5273  -40.9476  -12.0635 C   0  0  0  0  0  0  0  0  0  0  0  0
  -13.0915  -39.1418  -11.1854 Cl  0  0  0  0  0  0  0  0  0  0  0  0
  -17.9670  -40.6355  -12.9779 Cl  0  0  0  0  0  0  0  0  0  0  0  0
  -15.4402  -44.8249  -10.1505 C   0  0  0  0  0  0  0  0  0  0  0  0
  -15.1000  -43.6623   -8.3784 C   0  0  0  0  0  0  0  0  0  0  0  0
  -15.3079  -45.6660   -9.1666 N   0  0  0  0  0  0  0  0  0  0  0  0
  -15.1026  -44.9121   -8.0175 N   0  0  0  0  0  0  0  0  0  0  0  0
  -15.3067  -43.5438   -9.7179 N   0  0  0  0  0  0  0  0  0  0  0  0
 15 14  2  0  0  0
 15 17  1  0  0  0
 14 16  1  0  0  0
 17 19  2  0  0  0
 16 18  2  0  0  0
 19 18  1  0  0  0
 19  1  1  0  0  0
 23 21  2  0  0  0
  1 20  1  0  0  0
  1  8  1  0  0  0
 20 22  1  0  0  0
 21 22  1  0  0  0
 21 27  1  0  0  0
 32 30  1  0  0  0
  8 11  1  0  0  0
  8 12  2  0  0  0
 27 30  2  0  0  0
 27 29  1  0  0  0
 30 26  1  0  0  0
 11  6  1  0  0  0
 31 29  1  0  0  0
 29 25  2  0  0  0
 26 28  2  0  0  0
 12  7  1  0  0  0
 25 28  1  0  0  0
 28 37  1  0  0  0
  6  7  2  0  0  0
  6  2  1  0  0  0
  7  3  1  0  0  0
 34 37  1  0  0  0
 34 36  2  0  0  0
 37 33  1  0  0  0
  2  4  2  0  0  0
 36 35  1  0  0  0
  3  5  2  0  0  0
 33 35  2  0  0  0
  4  5  1  0  0  0
  4  9  1  0  0  0
  5 10  1  0  0  0
 11 13  1  0  0  0
 22 24  1  0  0  0
M  END
> <minimizedAffinity>
-10.28746

$$$$
4ZAE_4M1_A_301


 37 41  0  0  0  0  0  0  0  0999 V2000
  -14.7950  -41.6215  -11.6265 C   0  0  0  0  0  0  0  0  0  0  0  0
  -19.6448  -40.4571  -12.4303 C   0  0  0  0  0  0  0  0  0  0  0  0
  -18.2587  -39.5677  -14.6580 C   0  0  0  0  0  0  0  0  0  0  0  0
  -20.3419  -39.8401  -13.4647 C   0  0  0  0  0  0  0  0  0  0  0  0
  -19.6373  -39.3887  -14.6007 C   0  0  0  0  0  0  0  0  0  0  0  0
  -18.2714  -40.6446  -12.4775 C   0  0  0  0  0  0  0  0  0  0  0  0
  -17.5945  -40.1959  -13.6075 C   0  0  0  0  0  0  0  0  0  0  0  0
  -16.0852  -41.1193  -12.2265 C   0  0  0  0  0  0  0  0  0  0  0  0
  -21.8422  -39.7463  -13.3930 C   0  0  0  0  0  0  0  0  0  0  0  0
  -20.3698  -38.8549  -15.8065 C   0  0  0  0  0  0  0  0  0  0  0  0
  -17.3088  -41.1963  -11.6387 N   0  0  0  0  0  0  0  0  0  0  0  0
  -16.2634  -40.5090  -13.4180 N   0  0  0  0  0  0  0  0  0  0  0  0
  -17.4868  -41.5846  -10.7517 H   0  0  0  0  0  0  0  0  0  0  0  0
  -15.4417  -45.0282   -9.0539 C   0  0  0  0  0  0  0  0  0  0  0  0
  -15.1905  -43.7847   -8.5180 C   0  0  0  0  0  0  0  0  0  0  0  0
  -15.4867  -45.1830  -10.4239 C   0  0  0  0  0  0  0  0  0  0  0  0
  -14.9811  -42.6941   -9.3483 C   0  0  0  0  0  0  0  0  0  0  0  0
  -15.3010  -44.0900  -11.2582 C   0  0  0  0  0  0  0  0  0  0  0  0
  -15.0301  -42.8327  -10.7299 C   0  0  0  0  0  0  0  0  0  0  0  0
  -14.0851  -40.4846  -10.8368 C   0  0  0  0  0  0  0  0  0  0  0  0
  -13.1438  -38.6914  -12.2073 C   0  0  0  0  0  0  0  0  0  0  0  0
  -14.1905  -39.2491  -11.5951 N   0  0  0  0  0  0  0  0  0  0  0  0
  -12.0191  -39.1885  -12.1920 O   0  0  0  0  0  0  0  0  0  0  0  0
  -15.0676  -38.8067  -11.6595 H   0  0  0  0  0  0  0  0  0  0  0  0
  -13.6003  -34.9583  -12.8185 C   0  0  0  0  0  0  0  0  0  0  0  0
  -14.2400  -36.1474  -14.8121 C   0  0  0  0  0  0  0  0  0  0  0  0
  -13.3959  -37.3795  -12.8985 C   0  0  0  0  0  0  0  0  0  0  0  0
  -14.1035  -34.9462  -14.1185 C   0  0  0  0  0  0  0  0  0  0  0  0
  -13.2652  -36.1634  -12.2266 C   0  0  0  0  0  0  0  0  0  0  0  0
  -13.8656  -37.3328  -14.2083 C   0  0  0  0  0  0  0  0  0  0  0  0
  -12.7289  -36.1525  -10.5818 Cl  0  0  0  0  0  0  0  0  0  0  0  0
  -13.9256  -38.7907  -15.1450 Cl  0  0  0  0  0  0  0  0  0  0  0  0
  -14.8769  -32.5603  -14.1782 C   0  0  0  0  0  0  0  0  0  0  0  0
  -14.4941  -33.4481  -16.0947 C   0  0  0  0  0  0  0  0  0  0  0  0
  -15.1061  -31.6429  -15.0720 N   0  0  0  0  0  0  0  0  0  0  0  0
  -14.8725  -32.2228  -16.3129 N   0  0  0  0  0  0  0  0  0  0  0  0
  -14.4752  -33.7198  -14.7616 N   0  0  0  0  0  0  0  0  0  0  0  0
 15 14  2  0  0  0
 15 17  1  0  0  0
 14 16  1  0  0  0
 17 19  2  0  0  0
 16 18  2  0  0  0
 19 18  1  0  0  0
 19  1  1  0  0  0
 23 21  2  0  0  0
  1 20  1  0  0  0
  1  8  1  0  0  0
 20 22  1  0  0  0
 21 22  1  0  0  0
 21 27  1  0  0  0
 32 30  1  0  0  0
  8 11  1  0  0  0
  8 12  2  0  0  0
 27 30  2  0  0  0
 27 29  1  0  0  0
 30 26  1  0  0  0
 11  6  1  0  0  0
 31 29  1  0  0  0
 29 25  2  0  0  0
 26 28  2  0  0  0
 12  7  1  0  0  0
 25 28  1  0  0  0
 28 37  1  0  0  0
  6  7  2  0  0  0
  6  2  1  0  0  0
  7  3  1  0  0  0
 34 37  1  0  0  0
 34 36  2  0  0  0
 37 33  1  0  0  0
  2  4  2  0  0  0
 36 35  1  0  0  0
  3  5  2  0  0  0
 33 35  2  0  0  0
  4  5  1  0  0  0
  4  9  1  0  0  0
  5 10  1  0  0  0
 11 13  1  0  0  0
 22 24  1  0  0  0
M  END
> <minimizedAffinity>
-9.69823

$$$$
4ZAE_4M1_A_301


 37 41  0  0  0  0  0  0  0  0999 V2000
  -17.5111  -39.7252  -12.6157 C   0  0  0  0  0  0  0  0  0  0  0  0
  -15.8443  -44.3547  -11.4708 C   0  0  0  0  0  0  0  0  0  0  0  0
  -15.7228  -42.8890   -9.1231 C   0  0  0  0  0  0  0  0  0  0  0  0
  -15.3882  -44.9680  -10.3078 C   0  0  0  0  0  0  0  0  0  0  0  0
  -15.3280  -44.2230   -9.1110 C   0  0  0  0  0  0  0  0  0  0  0  0
  -16.2441  -43.0269  -11.4945 C   0  0  0  0  0  0  0  0  0  0  0  0
  -16.1809  -42.3096  -10.3038 C   0  0  0  0  0  0  0  0  0  0  0  0
  -16.9734  -40.9343  -11.8906 C   0  0  0  0  0  0  0  0  0  0  0  0
  -15.0533  -46.4350  -10.3274 C   0  0  0  0  0  0  0  0  0  0  0  0
  -14.9867  -44.8869   -7.8002 C   0  0  0  0  0  0  0  0  0  0  0  0
  -16.7236  -42.1448  -12.4571 N   0  0  0  0  0  0  0  0  0  0  0  0
  -16.6395  -41.0385  -10.5863 N   0  0  0  0  0  0  0  0  0  0  0  0
  -16.8616  -42.3643  -13.4069 H   0  0  0  0  0  0  0  0  0  0  0  0
  -20.8889  -40.7110  -15.1179 C   0  0  0  0  0  0  0  0  0  0  0  0
  -19.8106  -40.0284  -15.6354 C   0  0  0  0  0  0  0  0  0  0  0  0
  -20.8865  -41.0815  -13.7891 C   0  0  0  0  0  0  0  0  0  0  0  0
  -18.7292  -39.7120  -14.8273 C   0  0  0  0  0  0  0  0  0  0  0  0
  -19.7963  -40.7876  -12.9826 C   0  0  0  0  0  0  0  0  0  0  0  0
  -18.7090  -40.0844  -13.4889 C   0  0  0  0  0  0  0  0  0  0  0  0
  -16.3916  -39.0608  -13.4674 C   0  0  0  0  0  0  0  0  0  0  0  0
  -14.5848  -37.4633  -13.0633 C   0  0  0  0  0  0  0  0  0  0  0  0
  -15.5606  -38.2456  -12.5971 N   0  0  0  0  0  0  0  0  0  0  0  0
  -14.3280  -37.3591  -14.2614 O   0  0  0  0  0  0  0  0  0  0  0  0
  -15.7236  -38.2715  -11.6266 H   0  0  0  0  0  0  0  0  0  0  0  0
  -12.0914  -36.7376  -10.2750 C   0  0  0  0  0  0  0  0  0  0  0  0
  -13.4033  -34.7571  -10.6677 C   0  0  0  0  0  0  0  0  0  0  0  0
  -13.7687  -36.7294  -12.0348 C   0  0  0  0  0  0  0  0  0  0  0  0
  -12.4143  -35.4222   -9.9452 C   0  0  0  0  0  0  0  0  0  0  0  0
  -12.7723  -37.3722  -11.2990 C   0  0  0  0  0  0  0  0  0  0  0  0
  -14.0435  -35.4043  -11.7075 C   0  0  0  0  0  0  0  0  0  0  0  0
  -12.4106  -39.0325  -11.6239 Cl  0  0  0  0  0  0  0  0  0  0  0  0
  -15.1737  -34.5058  -12.6674 Cl  0  0  0  0  0  0  0  0  0  0  0  0
  -12.2964  -34.0202   -7.8680 C   0  0  0  0  0  0  0  0  0  0  0  0
  -10.4028  -34.6594   -8.6512 C   0  0  0  0  0  0  0  0  0  0  0  0
  -11.3810  -33.5583   -7.0669 N   0  0  0  0  0  0  0  0  0  0  0  0
  -10.1549  -33.9599   -7.5829 N   0  0  0  0  0  0  0  0  0  0  0  0
  -11.7416  -34.7347   -8.8818 N   0  0  0  0  0  0  0  0  0  0  0  0
 15 14  2  0  0  0
 15 17  1  0  0  0
 14 16  1  0  0  0
 17 19  2  0  0  0
 16 18  2  0  0  0
 19 18  1  0  0  0
 19  1  1  0  0  0
 23 21  2  0  0  0
  1 20  1  0  0  0
  1  8  1  0  0  0
 20 22  1  0  0  0
 21 22  1  0  0  0
 21 27  1  0  0  0
 32 30  1  0  0  0
  8 11  1  0  0  0
  8 12  2  0  0  0
 27 30  2  0  0  0
 27 29  1  0  0  0
 30 26  1  0  0  0
 11  6  1  0  0  0
 31 29  1  0  0  0
 29 25  2  0  0  0
 26 28  2  0  0  0
 12  7  1  0  0  0
 25 28  1  0  0  0
 28 37  1  0  0  0
  6  7  2  0  0  0
  6  2  1  0  0  0
  7  3  1  0  0  0
 34 37  1  0  0  0
 34 36  2  0  0  0
 37 33  1  0  0  0
  2  4  2  0  0  0
 36 35  1  0  0  0
  3  5  2  0  0  0
 33 35  2  0  0  0
  4  5  1  0  0  0
  4  9  1  0  0  0
  5 10  1  0  0  0
 11 13  1  0  0  0
 22 24  1  0  0  0
M  END
> <minimizedAffinity>
-9.52675

$$$$
4ZAE_4M1_A_301


 37 41  0  0  0  0  0  0  0  0999 V2000
  -14.9628  -41.9644  -11.3406 C   0  0  0  0  0  0  0  0  0  0  0  0
  -18.8839  -41.6494  -14.5104 C   0  0  0  0  0  0  0  0  0  0  0  0
  -19.5108  -40.0380  -12.3458 C   0  0  0  0  0  0  0  0  0  0  0  0
  -20.0954  -40.9648  -14.4992 C   0  0  0  0  0  0  0  0  0  0  0  0
  -20.4147  -40.1421  -13.3983 C   0  0  0  0  0  0  0  0  0  0  0  0
  -17.9731  -41.5507  -13.4691 C   0  0  0  0  0  0  0  0  0  0  0  0
  -18.3042  -40.7318  -12.3938 C   0  0  0  0  0  0  0  0  0  0  0  0
  -16.2808  -41.6134  -11.9858 C   0  0  0  0  0  0  0  0  0  0  0  0
  -21.0008  -41.0435  -15.6987 C   0  0  0  0  0  0  0  0  0  0  0  0
  -21.6429  -39.2663  -13.4146 C   0  0  0  0  0  0  0  0  0  0  0  0
  -16.7246  -42.0909  -13.1790 N   0  0  0  0  0  0  0  0  0  0  0  0
  -17.2434  -40.7929  -11.5125 N   0  0  0  0  0  0  0  0  0  0  0  0
  -16.2353  -42.7245  -13.7521 H   0  0  0  0  0  0  0  0  0  0  0  0
  -15.3459  -45.4370   -8.8035 C   0  0  0  0  0  0  0  0  0  0  0  0
  -15.3444  -45.5690  -10.1743 C   0  0  0  0  0  0  0  0  0  0  0  0
  -15.2236  -44.1839   -8.2397 C   0  0  0  0  0  0  0  0  0  0  0  0
  -15.2235  -44.4505  -10.9849 C   0  0  0  0  0  0  0  0  0  0  0  0
  -15.0788  -43.0645   -9.0468 C   0  0  0  0  0  0  0  0  0  0  0  0
  -15.0925  -43.1826  -10.4320 C   0  0  0  0  0  0  0  0  0  0  0  0
  -14.4049  -40.7471  -10.5488 C   0  0  0  0  0  0  0  0  0  0  0  0
  -13.6340  -39.0586  -12.1408 C   0  0  0  0  0  0  0  0  0  0  0  0
  -14.5885  -39.5449  -11.3447 N   0  0  0  0  0  0  0  0  0  0  0  0
  -12.5375  -39.5991  -12.2750 O   0  0  0  0  0  0  0  0  0  0  0  0
  -15.4501  -39.0711  -11.2947 H   0  0  0  0  0  0  0  0  0  0  0  0
  -14.8632  -36.5897  -14.7699 C   0  0  0  0  0  0  0  0  0  0  0  0
  -13.6117  -35.3807  -13.1056 C   0  0  0  0  0  0  0  0  0  0  0  0
  -13.9493  -37.7711  -12.8516 C   0  0  0  0  0  0  0  0  0  0  0  0
  -14.3250  -35.3915  -14.3029 C   0  0  0  0  0  0  0  0  0  0  0  0
  -14.6626  -37.7550  -14.0509 C   0  0  0  0  0  0  0  0  0  0  0  0
  -13.4558  -36.5533  -12.3911 C   0  0  0  0  0  0  0  0  0  0  0  0
  -15.2659  -39.2395  -14.7030 Cl  0  0  0  0  0  0  0  0  0  0  0  0
  -12.6771  -36.4793  -10.8437 Cl  0  0  0  0  0  0  0  0  0  0  0  0
  -14.7318  -32.9256  -14.5214 C   0  0  0  0  0  0  0  0  0  0  0  0
  -14.4562  -33.9767  -16.3726 C   0  0  0  0  0  0  0  0  0  0  0  0
  -14.8072  -32.0411  -15.4728 N   0  0  0  0  0  0  0  0  0  0  0  0
  -14.6437  -32.7246  -16.6715 N   0  0  0  0  0  0  0  0  0  0  0  0
  -14.4990  -34.1655  -15.0258 N   0  0  0  0  0  0  0  0  0  0  0  0
 15 14  2  0  0  0
 15 17  1  0  0  0
 14 16  1  0  0  0
 17 19  2  0  0  0
 16 18  2  0  0  0
 19 18  1  0  0  0
 19  1  1  0  0  0
 23 21  2  0  0  0
  1 20  1  0  0  0
  1  8  1  0  0  0
 20 22  1  0  0  0
 21 22  1  0  0  0
 21 27  1  0  0  0
 32 30  1  0  0  0
  8 11  1  0  0  0
  8 12  2  0  0  0
 27 30  2  0  0  0
 27 29  1  0  0  0
 30 26  1  0  0  0
 11  6  1  0  0  0
 31 29  1  0  0  0
 29 25  2  0  0  0
 26 28  2  0  0  0
 12  7  1  0  0  0
 25 28  1  0  0  0
 28 37  1  0  0  0
  6  7  2  0  0  0
  6  2  1  0  0  0
  7  3  1  0  0  0
 34 37  1  0  0  0
 34 36  2  0  0  0
 37 33  1  0  0  0
  2  4  2  0  0  0
 36 35  1  0  0  0
  3  5  2  0  0  0
 33 35  2  0  0  0
  4  5  1  0  0  0
  4  9  1  0  0  0
  5 10  1  0  0  0
 11 13  1  0  0  0
 22 24  1  0  0  0
M  END
> <minimizedAffinity>
-9.42866

$$$$
4ZAE_4M1_A_301


 37 41  0  0  0  0  0  0  0  0999 V2000
  -17.0547  -39.6868  -12.5821 C   0  0  0  0  0  0  0  0  0  0  0  0
  -15.7389  -44.4286  -11.4391 C   0  0  0  0  0  0  0  0  0  0  0  0
  -15.6272  -43.0039   -9.0657 C   0  0  0  0  0  0  0  0  0  0  0  0
  -15.3745  -45.0848  -10.2673 C   0  0  0  0  0  0  0  0  0  0  0  0
  -15.3194  -44.3607   -9.0576 C   0  0  0  0  0  0  0  0  0  0  0  0
  -16.0516  -43.0775  -11.4592 C   0  0  0  0  0  0  0  0  0  0  0  0
  -15.9951  -42.3811  -10.2558 C   0  0  0  0  0  0  0  0  0  0  0  0
  -16.6277  -40.9373  -11.8536 C   0  0  0  0  0  0  0  0  0  0  0  0
  -15.1334  -46.5700  -10.2954 C   0  0  0  0  0  0  0  0  0  0  0  0
  -15.0790  -45.0620   -7.7438 C   0  0  0  0  0  0  0  0  0  0  0  0
  -16.4311  -42.1541  -12.4276 N   0  0  0  0  0  0  0  0  0  0  0  0
  -16.3587  -41.0796  -10.5378 N   0  0  0  0  0  0  0  0  0  0  0  0
  -16.5410  -42.3519  -13.3858 H   0  0  0  0  0  0  0  0  0  0  0  0
  -21.3482  -39.4147  -12.9483 C   0  0  0  0  0  0  0  0  0  0  0  0
  -20.5532  -38.3209  -13.2094 C   0  0  0  0  0  0  0  0  0  0  0  0
  -20.7649  -40.6053  -12.5672 C   0  0  0  0  0  0  0  0  0  0  0  0
  -19.1749  -38.4126  -13.0881 C   0  0  0  0  0  0  0  0  0  0  0  0
  -19.3848  -40.7080  -12.4674 C   0  0  0  0  0  0  0  0  0  0  0  0
  -18.5722  -39.6067  -12.7120 C   0  0  0  0  0  0  0  0  0  0  0  0
  -16.3803  -39.6174  -13.9823 C   0  0  0  0  0  0  0  0  0  0  0  0
  -13.9524  -39.8728  -13.8413 C   0  0  0  0  0  0  0  0  0  0  0  0
  -15.0341  -39.0910  -13.8297 N   0  0  0  0  0  0  0  0  0  0  0  0
  -14.0111  -41.0909  -13.9998 O   0  0  0  0  0  0  0  0  0  0  0  0
  -14.9156  -38.1206  -13.7135 H   0  0  0  0  0  0  0  0  0  0  0  0
  -11.0257  -38.1678  -12.0961 C   0  0  0  0  0  0  0  0  0  0  0  0
  -10.7133  -37.9852  -14.4765 C   0  0  0  0  0  0  0  0  0  0  0  0
  -12.6328  -39.1901  -13.6069 C   0  0  0  0  0  0  0  0  0  0  0  0
  -10.2872  -37.6980  -13.1810 C   0  0  0  0  0  0  0  0  0  0  0  0
  -12.1832  -38.8925  -12.3198 C   0  0  0  0  0  0  0  0  0  0  0  0
  -11.8547  -38.7400  -14.6702 C   0  0  0  0  0  0  0  0  0  0  0  0
  -13.1247  -39.3836  -10.9540 Cl  0  0  0  0  0  0  0  0  0  0  0  0
  -12.2825  -39.1883  -16.2894 Cl  0  0  0  0  0  0  0  0  0  0  0  0
   -7.9023  -37.0666  -13.6370 C   0  0  0  0  0  0  0  0  0  0  0  0
   -8.8885  -35.8967  -12.1315 C   0  0  0  0  0  0  0  0  0  0  0  0
   -7.0446  -36.1782  -13.2269 N   0  0  0  0  0  0  0  0  0  0  0  0
   -7.6789  -35.4310  -12.2419 N   0  0  0  0  0  0  0  0  0  0  0  0
   -9.0900  -36.9320  -12.9910 N   0  0  0  0  0  0  0  0  0  0  0  0
 15 14  2  0  0  0
 15 17  1  0  0  0
 14 16  1  0  0  0
 17 19  2  0  0  0
 16 18  2  0  0  0
 19 18  1  0  0  0
 19  1  1  0  0  0
 23 21  2  0  0  0
  1 20  1  0  0  0
  1  8  1  0  0  0
 20 22  1  0  0  0
 21 22  1  0  0  0
 21 27  1  0  0  0
 32 30  1  0  0  0
  8 11  1  0  0  0
  8 12  2  0  0  0
 27 30  2  0  0  0
 27 29  1  0  0  0
 30 26  1  0  0  0
 11  6  1  0  0  0
 31 29  1  0  0  0
 29 25  2  0  0  0
 26 28  2  0  0  0
 12  7  1  0  0  0
 25 28  1  0  0  0
 28 37  1  0  0  0
  6  7  2  0  0  0
  6  2  1  0  0  0
  7  3  1  0  0  0
 34 37  1  0  0  0
 34 36  2  0  0  0
 37 33  1  0  0  0
  2  4  2  0  0  0
 36 35  1  0  0  0
  3  5  2  0  0  0
 33 35  2  0  0  0
  4  5  1  0  0  0
  4  9  1  0  0  0
  5 10  1  0  0  0
 11 13  1  0  0  0
 22 24  1  0  0  0
M  END
> <minimizedAffinity>
-9.36063

$$$$
4ZAE_4M1_A_301


 37 41  0  0  0  0  0  0  0  0999 V2000
  -15.3767  -41.4564  -11.1553 C   0  0  0  0  0  0  0  0  0  0  0  0
  -15.4030  -46.3308   -9.8285 C   0  0  0  0  0  0  0  0  0  0  0  0
  -15.0884  -44.8943   -7.4807 C   0  0  0  0  0  0  0  0  0  0  0  0
  -15.2988  -47.0142   -8.6207 C   0  0  0  0  0  0  0  0  0  0  0  0
  -15.1408  -46.2835   -7.4241 C   0  0  0  0  0  0  0  0  0  0  0  0
  -15.3560  -44.9464   -9.8973 C   0  0  0  0  0  0  0  0  0  0  0  0
  -15.2033  -44.2431   -8.7063 C   0  0  0  0  0  0  0  0  0  0  0  0
  -15.3351  -42.7463  -10.3736 C   0  0  0  0  0  0  0  0  0  0  0  0
  -15.4461  -48.5118   -8.6028 C   0  0  0  0  0  0  0  0  0  0  0  0
  -15.1773  -46.9734   -6.0831 C   0  0  0  0  0  0  0  0  0  0  0  0
  -15.4197  -43.9935  -10.9085 N   0  0  0  0  0  0  0  0  0  0  0  0
  -15.2005  -42.9033   -9.0391 N   0  0  0  0  0  0  0  0  0  0  0  0
  -15.5122  -44.1924  -11.8682 H   0  0  0  0  0  0  0  0  0  0  0  0
  -15.5134  -42.1877  -15.4084 C   0  0  0  0  0  0  0  0  0  0  0  0
  -16.6243  -41.7188  -14.7432 C   0  0  0  0  0  0  0  0  0  0  0  0
  -14.3491  -42.4243  -14.7073 C   0  0  0  0  0  0  0  0  0  0  0  0
  -16.5763  -41.4878  -13.3768 C   0  0  0  0  0  0  0  0  0  0  0  0
  -14.2895  -42.1721  -13.3442 C   0  0  0  0  0  0  0  0  0  0  0  0
  -15.4090  -41.7146  -12.6581 C   0  0  0  0  0  0  0  0  0  0  0  0
  -14.1655  -40.5550  -10.7800 C   0  0  0  0  0  0  0  0  0  0  0  0
  -13.1881  -38.7398  -12.0951 C   0  0  0  0  0  0  0  0  0  0  0  0
  -14.2530  -39.3138  -11.5311 N   0  0  0  0  0  0  0  0  0  0  0  0
  -12.0598  -39.2254  -12.0380 O   0  0  0  0  0  0  0  0  0  0  0  0
  -15.1314  -38.8798  -11.6276 H   0  0  0  0  0  0  0  0  0  0  0  0
  -13.5318  -34.9964  -12.7170 C   0  0  0  0  0  0  0  0  0  0  0  0
  -14.3217  -36.1745  -14.6627 C   0  0  0  0  0  0  0  0  0  0  0  0
  -13.4256  -37.4243  -12.7845 C   0  0  0  0  0  0  0  0  0  0  0  0
  -14.1023  -34.9744  -13.9887 C   0  0  0  0  0  0  0  0  0  0  0  0
  -13.2125  -36.2092  -12.1321 C   0  0  0  0  0  0  0  0  0  0  0  0
  -13.9619  -37.3691  -14.0682 C   0  0  0  0  0  0  0  0  0  0  0  0
  -12.5899  -36.2069  -10.5180 Cl  0  0  0  0  0  0  0  0  0  0  0  0
  -14.1278  -38.8305  -14.9864 Cl  0  0  0  0  0  0  0  0  0  0  0  0
  -14.8212  -32.5712  -14.0305 C   0  0  0  0  0  0  0  0  0  0  0  0
  -14.5029  -33.4664  -15.9553 C   0  0  0  0  0  0  0  0  0  0  0  0
  -15.0493  -31.6481  -14.9187 N   0  0  0  0  0  0  0  0  0  0  0  0
  -14.8576  -32.2325  -16.1648 N   0  0  0  0  0  0  0  0  0  0  0  0
  -14.4599  -33.7393  -14.6231 N   0  0  0  0  0  0  0  0  0  0  0  0
 15 14  2  0  0  0
 15 17  1  0  0  0
 14 16  1  0  0  0
 17 19  2  0  0  0
 16 18  2  0  0  0
 19 18  1  0  0  0
 19  1  1  0  0  0
 23 21  2  0  0  0
  1 20  1  0  0  0
  1  8  1  0  0  0
 20 22  1  0  0  0
 21 22  1  0  0  0
 21 27  1  0  0  0
 32 30  1  0  0  0
  8 11  1  0  0  0
  8 12  2  0  0  0
 27 30  2  0  0  0
 27 29  1  0  0  0
 30 26  1  0  0  0
 11  6  1  0  0  0
 31 29  1  0  0  0
 29 25  2  0  0  0
 26 28  2  0  0  0
 12  7  1  0  0  0
 25 28  1  0  0  0
 28 37  1  0  0  0
  6  7  2  0  0  0
  6  2  1  0  0  0
  7  3  1  0  0  0
 34 37  1  0  0  0
 34 36  2  0  0  0
 37 33  1  0  0  0
  2  4  2  0  0  0
 36 35  1  0  0  0
  3  5  2  0  0  0
 33 35  2  0  0  0
  4  5  1  0  0  0
  4  9  1  0  0  0
  5 10  1  0  0  0
 11 13  1  0  0  0
 22 24  1  0  0  0
M  END
> <minimizedAffinity>
-9.25685

$$$$
4ZAE_4M1_A_301


 37 41  0  0  0  0  0  0  0  0999 V2000
  -15.5480  -41.6184  -11.2330 C   0  0  0  0  0  0  0  0  0  0  0  0
  -15.1592  -44.9167   -7.4262 C   0  0  0  0  0  0  0  0  0  0  0  0
  -15.2716  -46.4266   -9.7463 C   0  0  0  0  0  0  0  0  0  0  0  0
  -15.0973  -46.3042   -7.3395 C   0  0  0  0  0  0  0  0  0  0  0  0
  -15.1523  -47.0742   -8.5206 C   0  0  0  0  0  0  0  0  0  0  0  0
  -15.2743  -44.2597   -8.6422 C   0  0  0  0  0  0  0  0  0  0  0  0
  -15.3235  -45.0359   -9.7962 C   0  0  0  0  0  0  0  0  0  0  0  0
  -15.4451  -42.8815  -10.4140 C   0  0  0  0  0  0  0  0  0  0  0  0
  -14.8833  -46.9530   -5.9986 C   0  0  0  0  0  0  0  0  0  0  0  0
  -14.9356  -48.5665   -8.4847 C   0  0  0  0  0  0  0  0  0  0  0  0
  -15.3662  -42.9355   -9.0577 N   0  0  0  0  0  0  0  0  0  0  0  0
  -15.4224  -44.1572  -10.8564 N   0  0  0  0  0  0  0  0  0  0  0  0
  -15.3731  -42.1539   -8.4591 H   0  0  0  0  0  0  0  0  0  0  0  0
  -15.9566  -42.4991  -15.4401 C   0  0  0  0  0  0  0  0  0  0  0  0
  -17.0653  -42.2161  -14.6738 C   0  0  0  0  0  0  0  0  0  0  0  0
  -14.7069  -42.5000  -14.8558 C   0  0  0  0  0  0  0  0  0  0  0  0
  -16.9292  -41.9363  -13.3226 C   0  0  0  0  0  0  0  0  0  0  0  0
  -14.5638  -42.1975  -13.5093 C   0  0  0  0  0  0  0  0  0  0  0  0
  -15.6768  -41.9265  -12.7212 C   0  0  0  0  0  0  0  0  0  0  0  0
  -14.3220  -40.6983  -10.9679 C   0  0  0  0  0  0  0  0  0  0  0  0
  -13.5630  -38.7947  -12.3022 C   0  0  0  0  0  0  0  0  0  0  0  0
  -14.5342  -39.4274  -11.6404 N   0  0  0  0  0  0  0  0  0  0  0  0
  -12.4242  -39.2464  -12.4085 O   0  0  0  0  0  0  0  0  0  0  0  0
  -15.4287  -39.0175  -11.6065 H   0  0  0  0  0  0  0  0  0  0  0  0
  -14.8201  -36.1289  -14.7171 C   0  0  0  0  0  0  0  0  0  0  0  0
  -13.6971  -35.0399  -12.8866 C   0  0  0  0  0  0  0  0  0  0  0  0
  -13.9183  -37.4572  -12.8914 C   0  0  0  0  0  0  0  0  0  0  0  0
  -14.3633  -34.9610  -14.1083 C   0  0  0  0  0  0  0  0  0  0  0  0
  -14.5859  -37.3514  -14.1123 C   0  0  0  0  0  0  0  0  0  0  0  0
  -13.5069  -36.2713  -12.2889 C   0  0  0  0  0  0  0  0  0  0  0  0
  -15.0858  -38.7877  -14.9370 Cl  0  0  0  0  0  0  0  0  0  0  0  0
  -12.7919  -36.3206  -10.7102 Cl  0  0  0  0  0  0  0  0  0  0  0  0
  -14.5979  -33.3688  -16.0329 C   0  0  0  0  0  0  0  0  0  0  0  0
  -14.8073  -32.4903  -14.0856 C   0  0  0  0  0  0  0  0  0  0  0  0
  -14.8447  -32.1041  -16.2137 N   0  0  0  0  0  0  0  0  0  0  0  0
  -14.9653  -31.5334  -14.9526 N   0  0  0  0  0  0  0  0  0  0  0  0
  -14.5739  -33.6765  -14.7097 N   0  0  0  0  0  0  0  0  0  0  0  0
 15 14  2  0  0  0
 15 17  1  0  0  0
 14 16  1  0  0  0
 17 19  2  0  0  0
 16 18  2  0  0  0
 19 18  1  0  0  0
 19  1  1  0  0  0
 23 21  2  0  0  0
  1 20  1  0  0  0
  1  8  1  0  0  0
 20 22  1  0  0  0
 21 22  1  0  0  0
 21 27  1  0  0  0
 32 30  1  0  0  0
  8 11  1  0  0  0
  8 12  2  0  0  0
 27 30  2  0  0  0
 27 29  1  0  0  0
 30 26  1  0  0  0
 11  6  1  0  0  0
 31 29  1  0  0  0
 29 25  2  0  0  0
 26 28  2  0  0  0
 12  7  1  0  0  0
 25 28  1  0  0  0
 28 37  1  0  0  0
  6  7  2  0  0  0
  6  2  1  0  0  0
  7  3  1  0  0  0
 34 37  1  0  0  0
 34 36  2  0  0  0
 37 33  1  0  0  0
  2  4  2  0  0  0
 36 35  1  0  0  0
  3  5  2  0  0  0
 33 35  2  0  0  0
  4  5  1  0  0  0
  4  9  1  0  0  0
  5 10  1  0  0  0
 11 13  1  0  0  0
 22 24  1  0  0  0
M  END
> <minimizedAffinity>
-9.09721

$$$$
4ZAE_4M1_A_301


 37 41  0  0  0  0  0  0  0  0999 V2000
  -16.0019  -40.8518  -10.9990 C   0  0  0  0  0  0  0  0  0  0  0  0
  -11.7337  -38.1545  -11.1673 C   0  0  0  0  0  0  0  0  0  0  0  0
  -12.0243  -39.2952  -13.6751 C   0  0  0  0  0  0  0  0  0  0  0  0
  -10.7779  -37.9000  -12.1462 C   0  0  0  0  0  0  0  0  0  0  0  0
  -10.9261  -38.4786  -13.4245 C   0  0  0  0  0  0  0  0  0  0  0  0
  -12.8345  -38.9636  -11.4062 C   0  0  0  0  0  0  0  0  0  0  0  0
  -12.9653  -39.5224  -12.6739 C   0  0  0  0  0  0  0  0  0  0  0  0
  -14.7202  -40.1926  -11.4456 C   0  0  0  0  0  0  0  0  0  0  0  0
   -9.6544  -36.9428  -11.8522 C   0  0  0  0  0  0  0  0  0  0  0  0
   -9.9999  -38.1081  -14.5560 C   0  0  0  0  0  0  0  0  0  0  0  0
  -13.9263  -39.4087  -10.6684 N   0  0  0  0  0  0  0  0  0  0  0  0
  -14.1314  -40.2612  -12.6590 N   0  0  0  0  0  0  0  0  0  0  0  0
  -14.0986  -39.1890   -9.7243 H   0  0  0  0  0  0  0  0  0  0  0  0
  -15.4947  -45.1033  -10.4430 C   0  0  0  0  0  0  0  0  0  0  0  0
  -15.7769  -44.5896  -11.6892 C   0  0  0  0  0  0  0  0  0  0  0  0
  -15.3735  -44.2499   -9.3660 C   0  0  0  0  0  0  0  0  0  0  0  0
  -15.9413  -43.2237  -11.8623 C   0  0  0  0  0  0  0  0  0  0  0  0
  -15.5140  -42.8804   -9.5390 C   0  0  0  0  0  0  0  0  0  0  0  0
  -15.8154  -42.3508  -10.7887 C   0  0  0  0  0  0  0  0  0  0  0  0
  -17.1385  -40.5796  -12.0259 C   0  0  0  0  0  0  0  0  0  0  0  0
  -17.3370  -39.0366  -13.9125 C   0  0  0  0  0  0  0  0  0  0  0  0
  -16.8783  -39.3133  -12.6900 N   0  0  0  0  0  0  0  0  0  0  0  0
  -18.0276  -39.8218  -14.5596 O   0  0  0  0  0  0  0  0  0  0  0  0
  -16.3431  -38.6335  -12.2202 H   0  0  0  0  0  0  0  0  0  0  0  0
  -15.3525  -36.3510  -15.7476 C   0  0  0  0  0  0  0  0  0  0  0  0
  -17.1719  -35.2961  -14.5753 C   0  0  0  0  0  0  0  0  0  0  0  0
  -16.9307  -37.7101  -14.4936 C   0  0  0  0  0  0  0  0  0  0  0  0
  -16.0355  -35.1941  -15.3757 C   0  0  0  0  0  0  0  0  0  0  0  0
  -15.7981  -37.5818  -15.2987 C   0  0  0  0  0  0  0  0  0  0  0  0
  -17.6138  -36.5410  -14.1693 C   0  0  0  0  0  0  0  0  0  0  0  0
  -14.8770  -38.9892  -15.7033 Cl  0  0  0  0  0  0  0  0  0  0  0  0
  -19.1020  -36.6404  -13.2854 Cl  0  0  0  0  0  0  0  0  0  0  0  0
  -15.4547  -32.7738  -15.0611 C   0  0  0  0  0  0  0  0  0  0  0  0
  -15.2188  -33.5208  -17.0596 C   0  0  0  0  0  0  0  0  0  0  0  0
  -15.0070  -31.7878  -15.7825 N   0  0  0  0  0  0  0  0  0  0  0  0
  -14.8687  -32.2681  -17.0790 N   0  0  0  0  0  0  0  0  0  0  0  0
  -15.5976  -33.8992  -15.8088 N   0  0  0  0  0  0  0  0  0  0  0  0
 15 14  2  0  0  0
 15 17  1  0  0  0
 14 16  1  0  0  0
 17 19  2  0  0  0
 16 18  2  0  0  0
 19 18  1  0  0  0
 19  1  1  0  0  0
 23 21  2  0  0  0
  1 20  1  0  0  0
  1  8  1  0  0  0
 20 22  1  0  0  0
 21 22  1  0  0  0
 21 27  1  0  0  0
 32 30  1  0  0  0
  8 11  1  0  0  0
  8 12  2  0  0  0
 27 30  2  0  0  0
 27 29  1  0  0  0
 30 26  1  0  0  0
 11  6  1  0  0  0
 31 29  1  0  0  0
 29 25  2  0  0  0
 26 28  2  0  0  0
 12  7  1  0  0  0
 25 28  1  0  0  0
 28 37  1  0  0  0
  6  7  2  0  0  0
  6  2  1  0  0  0
  7  3  1  0  0  0
 34 37  1  0  0  0
 34 36  2  0  0  0
 37 33  1  0  0  0
  2  4  2  0  0  0
 36 35  1  0  0  0
  3  5  2  0  0  0
 33 35  2  0  0  0
  4  5  1  0  0  0
  4  9  1  0  0  0
  5 10  1  0  0  0
 11 13  1  0  0  0
 22 24  1  0  0  0
M  END
> <minimizedAffinity>
-9.03364

$$$$
4ZAE_4M1_A_301


 37 41  0  0  0  0  0  0  0  0999 V2000
  -15.1722  -40.2786  -14.4372 C   0  0  0  0  0  0  0  0  0  0  0  0
  -15.3295  -42.4765   -9.8912 C   0  0  0  0  0  0  0  0  0  0  0  0
  -15.3135  -44.5365  -11.7435 C   0  0  0  0  0  0  0  0  0  0  0  0
  -15.3563  -43.7942   -9.4446 C   0  0  0  0  0  0  0  0  0  0  0  0
  -15.3460  -44.8442  -10.3871 C   0  0  0  0  0  0  0  0  0  0  0  0
  -15.2932  -42.1572  -11.2404 C   0  0  0  0  0  0  0  0  0  0  0  0
  -15.2800  -43.2063  -12.1545 C   0  0  0  0  0  0  0  0  0  0  0  0
  -15.2190  -41.2859  -13.3148 C   0  0  0  0  0  0  0  0  0  0  0  0
  -15.3054  -44.0759   -7.9672 C   0  0  0  0  0  0  0  0  0  0  0  0
  -15.2202  -46.2813   -9.9462 C   0  0  0  0  0  0  0  0  0  0  0  0
  -15.2694  -40.9856  -11.9897 N   0  0  0  0  0  0  0  0  0  0  0  0
  -15.2291  -42.6331  -13.4094 N   0  0  0  0  0  0  0  0  0  0  0  0
  -15.2865  -40.0749  -11.6163 H   0  0  0  0  0  0  0  0  0  0  0  0
  -16.1215  -42.0759  -18.2465 C   0  0  0  0  0  0  0  0  0  0  0  0
  -14.8212  -41.7492  -17.9319 C   0  0  0  0  0  0  0  0  0  0  0  0
  -17.1262  -41.8259  -17.3350 C   0  0  0  0  0  0  0  0  0  0  0  0
  -14.5216  -41.1699  -16.7082 C   0  0  0  0  0  0  0  0  0  0  0  0
  -16.8279  -41.2681  -16.1000 C   0  0  0  0  0  0  0  0  0  0  0  0
  -15.5216  -40.9184  -15.7770 C   0  0  0  0  0  0  0  0  0  0  0  0
  -13.7729  -39.6019  -14.5013 C   0  0  0  0  0  0  0  0  0  0  0  0
  -12.9170  -37.6066  -13.3762 C   0  0  0  0  0  0  0  0  0  0  0  0
  -13.6113  -38.7459  -13.3379 N   0  0  0  0  0  0  0  0  0  0  0  0
  -12.3792  -37.1870  -14.3993 O   0  0  0  0  0  0  0  0  0  0  0  0
  -14.0300  -39.0167  -12.4890 H   0  0  0  0  0  0  0  0  0  0  0  0
  -13.4022  -35.0012  -10.6385 C   0  0  0  0  0  0  0  0  0  0  0  0
  -11.5552  -36.4209  -10.0299 C   0  0  0  0  0  0  0  0  0  0  0  0
  -12.7842  -36.8618  -12.0762 C   0  0  0  0  0  0  0  0  0  0  0  0
  -12.3703  -35.3234   -9.7585 C   0  0  0  0  0  0  0  0  0  0  0  0
  -13.5888  -35.7606  -11.7802 C   0  0  0  0  0  0  0  0  0  0  0  0
  -11.7857  -37.1819  -11.1602 C   0  0  0  0  0  0  0  0  0  0  0  0
  -14.8201  -35.2808  -12.8967 Cl  0  0  0  0  0  0  0  0  0  0  0  0
  -10.8380  -38.6141  -11.3980 Cl  0  0  0  0  0  0  0  0  0  0  0  0
  -13.0527  -33.9254   -7.7902 C   0  0  0  0  0  0  0  0  0  0  0  0
  -10.9454  -34.2942   -7.9660 C   0  0  0  0  0  0  0  0  0  0  0  0
  -12.4816  -33.3441   -6.7758 N   0  0  0  0  0  0  0  0  0  0  0  0
  -11.1162  -33.5707   -6.8985 N   0  0  0  0  0  0  0  0  0  0  0  0
  -12.1357  -34.5530   -8.5721 N   0  0  0  0  0  0  0  0  0  0  0  0
 15 14  2  0  0  0
 15 17  1  0  0  0
 14 16  1  0  0  0
 17 19  2  0  0  0
 16 18  2  0  0  0
 19 18  1  0  0  0
 19  1  1  0  0  0
 23 21  2  0  0  0
  1 20  1  0  0  0
  1  8  1  0  0  0
 20 22  1  0  0  0
 21 22  1  0  0  0
 21 27  1  0  0  0
 32 30  1  0  0  0
  8 11  1  0  0  0
  8 12  2  0  0  0
 27 30  2  0  0  0
 27 29  1  0  0  0
 30 26  1  0  0  0
 11  6  1  0  0  0
 31 29  1  0  0  0
 29 25  2  0  0  0
 26 28  2  0  0  0
 12  7  1  0  0  0
 25 28  1  0  0  0
 28 37  1  0  0  0
  6  7  2  0  0  0
  6  2  1  0  0  0
  7  3  1  0  0  0
 34 37  1  0  0  0
 34 36  2  0  0  0
 37 33  1  0  0  0
  2  4  2  0  0  0
 36 35  1  0  0  0
  3  5  2  0  0  0
 33 35  2  0  0  0
  4  5  1  0  0  0
  4  9  1  0  0  0
  5 10  1  0  0  0
 11 13  1  0  0  0
 22 24  1  0  0  0
M  END
> <minimizedAffinity>
-8.85042

$$$$
4ZAE_4M1_A_301


 37 41  0  0  0  0  0  0  0  0999 V2000
  -14.7210  -39.6443  -14.5463 C   0  0  0  0  0  0  0  0  0  0  0  0
  -15.2837  -44.0463  -12.1322 C   0  0  0  0  0  0  0  0  0  0  0  0
  -14.9118  -42.1305  -10.1659 C   0  0  0  0  0  0  0  0  0  0  0  0
  -15.2923  -44.4320  -10.7951 C   0  0  0  0  0  0  0  0  0  0  0  0
  -15.1052  -43.4568   -9.7928 C   0  0  0  0  0  0  0  0  0  0  0  0
  -15.0958  -42.7270  -12.5164 C   0  0  0  0  0  0  0  0  0  0  0  0
  -14.9165  -41.7791  -11.5134 C   0  0  0  0  0  0  0  0  0  0  0  0
  -14.8372  -40.7120  -13.4865 C   0  0  0  0  0  0  0  0  0  0  0  0
  -15.5895  -45.8639  -10.4401 C   0  0  0  0  0  0  0  0  0  0  0  0
  -15.2591  -43.8050   -8.3331 C   0  0  0  0  0  0  0  0  0  0  0  0
  -15.0271  -42.0376  -13.7225 N   0  0  0  0  0  0  0  0  0  0  0  0
  -14.7674  -40.5613  -12.1463 N   0  0  0  0  0  0  0  0  0  0  0  0
  -15.1043  -42.4481  -14.6139 H   0  0  0  0  0  0  0  0  0  0  0  0
  -15.6628  -41.2018  -18.4616 C   0  0  0  0  0  0  0  0  0  0  0  0
  -16.6019  -40.4924  -17.7466 C   0  0  0  0  0  0  0  0  0  0  0  0
  -14.4121  -41.4145  -17.9198 C   0  0  0  0  0  0  0  0  0  0  0  0
  -16.2955  -39.9962  -16.4885 C   0  0  0  0  0  0  0  0  0  0  0  0
  -14.0935  -40.8997  -16.6713 C   0  0  0  0  0  0  0  0  0  0  0  0
  -15.0381  -40.1962  -15.9324 C   0  0  0  0  0  0  0  0  0  0  0  0
  -13.3021  -39.0071  -14.5215 C   0  0  0  0  0  0  0  0  0  0  0  0
  -12.2872  -37.1607  -13.2804 C   0  0  0  0  0  0  0  0  0  0  0  0
  -13.2015  -38.1291  -13.3676 N   0  0  0  0  0  0  0  0  0  0  0  0
  -11.4758  -36.9265  -14.1743 O   0  0  0  0  0  0  0  0  0  0  0  0
  -13.8319  -38.2536  -12.6217 H   0  0  0  0  0  0  0  0  0  0  0  0
  -11.3307  -35.9681   -9.7902 C   0  0  0  0  0  0  0  0  0  0  0  0
  -13.3490  -34.8398  -10.4617 C   0  0  0  0  0  0  0  0  0  0  0  0
  -12.2656  -36.3766  -11.9970 C   0  0  0  0  0  0  0  0  0  0  0  0
  -12.3707  -35.0863   -9.5002 C   0  0  0  0  0  0  0  0  0  0  0  0
  -11.2963  -36.6036  -11.0190 C   0  0  0  0  0  0  0  0  0  0  0  0
  -13.2711  -35.4628  -11.6929 C   0  0  0  0  0  0  0  0  0  0  0  0
  -10.0433  -37.7595  -11.3139 Cl  0  0  0  0  0  0  0  0  0  0  0  0
  -14.4295  -35.0338  -12.9095 Cl  0  0  0  0  0  0  0  0  0  0  0  0
  -13.5314  -33.8172   -7.6736 C   0  0  0  0  0  0  0  0  0  0  0  0
  -11.4608  -34.2540   -7.3135 C   0  0  0  0  0  0  0  0  0  0  0  0
  -13.2431  -33.3381   -6.4987 N   0  0  0  0  0  0  0  0  0  0  0  0
  -11.8989  -33.6082   -6.2727 N   0  0  0  0  0  0  0  0  0  0  0  0
  -12.4494  -34.4187   -8.2336 N   0  0  0  0  0  0  0  0  0  0  0  0
 15 14  2  0  0  0
 15 17  1  0  0  0
 14 16  1  0  0  0
 17 19  2  0  0  0
 16 18  2  0  0  0
 19 18  1  0  0  0
 19  1  1  0  0  0
 23 21  2  0  0  0
  1 20  1  0  0  0
  1  8  1  0  0  0
 20 22  1  0  0  0
 21 22  1  0  0  0
 21 27  1  0  0  0
 32 30  1  0  0  0
  8 11  1  0  0  0
  8 12  2  0  0  0
 27 30  2  0  0  0
 27 29  1  0  0  0
 30 26  1  0  0  0
 11  6  1  0  0  0
 31 29  1  0  0  0
 29 25  2  0  0  0
 26 28  2  0  0  0
 12  7  1  0  0  0
 25 28  1  0  0  0
 28 37  1  0  0  0
  6  7  2  0  0  0
  6  2  1  0  0  0
  7  3  1  0  0  0
 34 37  1  0  0  0
 34 36  2  0  0  0
 37 33  1  0  0  0
  2  4  2  0  0  0
 36 35  1  0  0  0
  3  5  2  0  0  0
 33 35  2  0  0  0
  4  5  1  0  0  0
  4  9  1  0  0  0
  5 10  1  0  0  0
 11 13  1  0  0  0
 22 24  1  0  0  0
M  END
> <minimizedAffinity>
-8.80324

$$$$
