5YFT_RI2_A_401
  RCSB PDB02171804413D
Coordinates from PDB:5YFT:A:401 Model:1 without hydrogens
 18 18  0  0  0  0            999 V2000
   69.2130   68.5080  280.5660   P 0  0  0  0  0  0  0  0  0  0  0  0
   65.6450   71.1040  277.5840   C 0  0  0  0  0  0  0  0  0  0  0  0
   65.3760   72.1060  276.5990   O 0  0  0  0  0  0  0  0  0  0  0  0
   64.4900   71.0340  278.5970   C 0  0  0  0  0  0  0  0  0  0  0  0
   63.9660   72.3470  278.9320   O 0  0  0  0  0  0  0  0  0  0  0  0
   65.2390   70.4720  279.7950   C 0  0  0  0  0  0  0  0  0  0  0  0
   64.5460   70.6530  281.0310   O 0  0  0  0  0  0  0  0  0  0  0  0
   66.5530   71.2470  279.7690   C 0  0  0  0  0  0  0  0  0  0  0  0
   66.8400   71.4580  278.3550   O 0  0  0  0  0  0  0  0  0  0  0  0
   67.7050   70.6470  280.5560   C 0  0  0  0  0  0  0  0  0  0  0  0
   67.9320   69.3600  280.1070   O 0  0  0  0  0  0  0  0  0  0  0  0
   65.1970   71.7380  275.0330   P 0  0  0  0  0  0  0  0  0  0  0  0
   64.5380   72.9310  274.4730   O 0  0  0  0  0  0  0  0  0  0  0  0
   69.2380   67.2190  279.8410   O 0  0  0  0  0  0  0  0  0  0  0  0
   66.6470   71.6460  274.4470   O 0  0  0  0  0  0  0  0  0  0  0  0
   70.3690   69.3950  280.2460   O 0  0  0  0  0  0  0  0  0  0  0  0
   64.5160   70.3890  274.8850   O 0  0  0  0  0  0  0  0  0  0  0  0
   69.0160   68.2780  282.0800   O 0  0  0  0  0  0  0  0  0  0  0  0
 14  1  2  0  0  0  0
 11  1  1  0  0  0  0
  1 18  1  0  0  0  0
  1 16  1  0  0  0  0
  4  2  1  0  0  0  0
  3  2  1  0  0  0  0
  2  9  1  0  0  0  0
  3 12  1  0  0  0  0
  5  4  1  0  0  0  0
  4  6  1  0  0  0  0
  7  6  1  0  0  0  0
  6  8  1  0  0  0  0
  8  9  1  0  0  0  0
  8 10  1  0  0  0  0
 10 11  1  0  0  0  0
 15 12  2  0  0  0  0
 12 13  1  0  0  0  0
 12 17  1  0  0  0  0
A    1
P
A    2
C1
A    3
O1
A    4
C2
A    5
O2
A    6
C3
A    7
O3
A    8
C4
A    9
O4
A   10
C5
A   11
O5
A   12
PA
A   13
O1A
A   14
O1P
A   15
O2A
A   16
O2P
A   17
O3A
A   18
O3P
M  END
>  <InstanceId>
5YFT_RI2_A_401

>  <ChemCompId>
RI2

>  <PdbId>
5YFT

>  <ChainId>
A

>  <ResidueNumber>
401

>  <InsertionCode>


>  <Model>
1

>  <AltIds>


>  <MissingHeavyAtoms>
0

>  <ObservedFormula>
C5 O11 P2

>  <Name>
1,5-di-O-phosphono-alpha-D-ribofuranose

>  <SystematicName>
[(2R,3R,4S,5R)-3,4-dihydroxy-5-(phosphonooxymethyl)oxolan-2-yl] dihydrogen phosphate

>  <Synonyms>


>  <Type>
NON-POLYMER

>  <Formula>
C5 H12 O11 P2

>  <MolecularWeight>
310.09

>  <ModifiedDate>
2011-06-04

>  <Parent>


>  <OneLetterCode>


>  <SubcomponentList>


>  <AmbiguousFlag>
N

>  <InChI>
InChI=1S/C5H12O11P2/c6-3-2(1-14-17(8,9)10)15-5(4(3)7)16-18(11,12)13/h2-7H,1H2,(H2,8,9,10)(H2,11,12,13)/t2-,3-,4-,5-/m1/s1

>  <InChIKey>
AAAFZMYJJHWUPN-TXICZTDVSA-N

>  <SMILES>
C([C@@H]1[C@H]([C@H]([C@H](O1)OP(=O)(O)O)O)O)OP(=O)(O)O

$$$$
