5YFT_RI2_A_401


 24 24  0  0  0  0  0  0  0  0999 V2000
   65.6062   71.1199  277.8068 C   0  0  0  0  0  0  0  0  0  0  0  0
   64.4250   71.0294  278.7875 C   0  0  0  0  0  0  0  0  0  0  0  0
   63.9312   72.3373  279.1829 O   0  0  0  0  0  0  0  0  0  0  0  0
   65.1275   70.3800  279.9693 C   0  0  0  0  0  0  0  0  0  0  0  0
   64.4098   70.5137  281.1972 O   0  0  0  0  0  0  0  0  0  0  0  0
   66.4638   71.1149  280.0168 C   0  0  0  0  0  0  0  0  0  0  0  0
   66.7916   71.3945  278.6237 O   0  0  0  0  0  0  0  0  0  0  0  0
   64.6598   72.8595  279.5536 H   0  0  0  0  0  0  0  0  0  0  0  0
   64.2750   71.4544  281.3921 H   0  0  0  0  0  0  0  0  0  0  0  0
   65.3908   72.1822  276.8732 O   0  0  0  0  0  0  0  0  0  0  0  0
   65.8237   72.0541  275.3188 P   0  0  0  0  0  0  0  0  0  0  0  0
   65.6321   70.6228  275.0258 O   0  0  0  0  0  0  0  0  0  0  0  0
   64.7632   72.8765  274.5105 O   0  0  0  0  0  0  0  0  0  0  0  0
   67.1958   72.6675  275.1035 O   0  0  0  0  0  0  0  0  0  0  0  0
   64.7123   70.3754  275.2095 H   0  0  0  0  0  0  0  0  0  0  0  0
   67.1694   73.6087  275.3365 H   0  0  0  0  0  0  0  0  0  0  0  0
   67.5781   70.4379  280.7955 C   0  0  0  0  0  0  0  0  0  0  0  0
   67.8508   69.2140  280.2148 O   0  0  0  0  0  0  0  0  0  0  0  0
   69.2728   68.4874  280.3800 P   0  0  0  0  0  0  0  0  0  0  0  0
   69.3677   67.3592  279.4281 O   0  0  0  0  0  0  0  0  0  0  0  0
   70.2637   69.5719  280.1205 O   0  0  0  0  0  0  0  0  0  0  0  0
   69.2907   67.9746  281.8362 O   0  0  0  0  0  0  0  0  0  0  0  0
   70.2036   69.8497  279.1931 H   0  0  0  0  0  0  0  0  0  0  0  0
   68.6278   67.2743  281.9406 H   0  0  0  0  0  0  0  0  0  0  0  0
 20 19  2  0  0  0
 18 19  1  0  0  0
 19 22  1  0  0  0
 19 21  1  0  0  0
  2  1  1  0  0  0
 10  1  1  0  0  0
  1  7  1  0  0  0
 10 11  1  0  0  0
  3  2  1  0  0  0
  2  4  1  0  0  0
  5  4  1  0  0  0
  4  6  1  0  0  0
  6  7  1  0  0  0
  6 17  1  0  0  0
 17 18  1  0  0  0
 13 11  2  0  0  0
 11 12  1  0  0  0
 11 14  1  0  0  0
  3  8  1  0  0  0
  5  9  1  0  0  0
 12 15  1  0  0  0
 21 23  1  0  0  0
 14 16  1  0  0  0
 22 24  1  0  0  0
M  END
> <minimizedAffinity>
-10.87843

$$$$
5YFT_RI2_A_401


 24 24  0  0  0  0  0  0  0  0999 V2000
   67.4256   70.5922  279.9454 C   0  0  0  0  0  0  0  0  0  0  0  0
   66.2374   71.3500  280.5612 C   0  0  0  0  0  0  0  0  0  0  0  0
   65.4515   70.5166  281.4548 O   0  0  0  0  0  0  0  0  0  0  0  0
   65.4353   71.6290  279.3000 C   0  0  0  0  0  0  0  0  0  0  0  0
   64.0739   71.9746  279.5605 O   0  0  0  0  0  0  0  0  0  0  0  0
   65.5441   70.3163  278.5300 C   0  0  0  0  0  0  0  0  0  0  0  0
   66.8753   69.8066  278.8372 O   0  0  0  0  0  0  0  0  0  0  0  0
   65.1578   69.7225  280.9815 H   0  0  0  0  0  0  0  0  0  0  0  0
   63.6457   71.2552  280.0504 H   0  0  0  0  0  0  0  0  0  0  0  0
   68.0168   69.7277  280.9200 O   0  0  0  0  0  0  0  0  0  0  0  0
   69.1601   68.6520  280.5260 P   0  0  0  0  0  0  0  0  0  0  0  0
   70.3269   69.4928  280.2053 O   0  0  0  0  0  0  0  0  0  0  0  0
   69.4652   67.8524  281.8382 O   0  0  0  0  0  0  0  0  0  0  0  0
   68.6378   67.6928  279.4712 O   0  0  0  0  0  0  0  0  0  0  0  0
   70.5439   70.0497  280.9693 H   0  0  0  0  0  0  0  0  0  0  0  0
   67.8731   67.2106  279.8229 H   0  0  0  0  0  0  0  0  0  0  0  0
   65.2273   70.3772  277.0460 C   0  0  0  0  0  0  0  0  0  0  0  0
   65.3484   71.6846  276.6153 O   0  0  0  0  0  0  0  0  0  0  0  0
   65.7411   72.0535  275.1029 P   0  0  0  0  0  0  0  0  0  0  0  0
   64.7375   72.9840  274.5420 O   0  0  0  0  0  0  0  0  0  0  0  0
   67.1051   72.6464  275.2194 O   0  0  0  0  0  0  0  0  0  0  0  0
   65.7191   70.7075  274.3467 O   0  0  0  0  0  0  0  0  0  0  0  0
   67.0524   73.4862  275.7019 H   0  0  0  0  0  0  0  0  0  0  0  0
   64.8088   70.3751  274.3047 H   0  0  0  0  0  0  0  0  0  0  0  0
 20 19  2  0  0  0
 18 19  1  0  0  0
 19 22  1  0  0  0
 19 21  1  0  0  0
  2  1  1  0  0  0
 10  1  1  0  0  0
  1  7  1  0  0  0
 10 11  1  0  0  0
  3  2  1  0  0  0
  2  4  1  0  0  0
  5  4  1  0  0  0
  4  6  1  0  0  0
  6  7  1  0  0  0
  6 17  1  0  0  0
 17 18  1  0  0  0
 13 11  2  0  0  0
 11 12  1  0  0  0
 11 14  1  0  0  0
  3  8  1  0  0  0
  5  9  1  0  0  0
 12 15  1  0  0  0
 21 23  1  0  0  0
 14 16  1  0  0  0
 22 24  1  0  0  0
M  END
> <minimizedAffinity>
-9.01548

$$$$
5YFT_RI2_A_401


 24 24  0  0  0  0  0  0  0  0999 V2000
   64.8696   70.8382  277.3312 C   0  0  0  0  0  0  0  0  0  0  0  0
   64.1537   71.0756  278.6715 C   0  0  0  0  0  0  0  0  0  0  0  0
   64.3503   72.4247  279.1737 O   0  0  0  0  0  0  0  0  0  0  0  0
   64.9235   70.0978  279.5452 C   0  0  0  0  0  0  0  0  0  0  0  0
   64.7755   70.3512  280.9433 O   0  0  0  0  0  0  0  0  0  0  0  0
   66.3656   70.2953  279.0881 C   0  0  0  0  0  0  0  0  0  0  0  0
   66.2744   70.5825  277.6613 O   0  0  0  0  0  0  0  0  0  0  0  0
   65.3001   72.6090  279.2423 H   0  0  0  0  0  0  0  0  0  0  0  0
   65.0762   71.2517  281.1423 H   0  0  0  0  0  0  0  0  0  0  0  0
   64.7589   71.9983  276.5015 O   0  0  0  0  0  0  0  0  0  0  0  0
   65.4549   72.0744  275.0422 P   0  0  0  0  0  0  0  0  0  0  0  0
   64.5270   72.9122  274.2623 O   0  0  0  0  0  0  0  0  0  0  0  0
   66.7916   72.8654  275.2468 O   0  0  0  0  0  0  0  0  0  0  0  0
   65.7770   70.6779  274.5406 O   0  0  0  0  0  0  0  0  0  0  0  0
   64.4185   73.7700  274.7021 H   0  0  0  0  0  0  0  0  0  0  0  0
   66.3962   70.2495  275.1521 H   0  0  0  0  0  0  0  0  0  0  0  0
   67.3419   69.1863  279.4394 C   0  0  0  0  0  0  0  0  0  0  0  0
   67.5633   69.1999  280.8033 O   0  0  0  0  0  0  0  0  0  0  0  0
   69.0413   69.1747  281.4297 P   0  0  0  0  0  0  0  0  0  0  0  0
   69.0427   69.8836  282.7280 O   0  0  0  0  0  0  0  0  0  0  0  0
   69.3598   67.7217  281.5430 O   0  0  0  0  0  0  0  0  0  0  0  0
   69.9215   69.9182  280.4019 O   0  0  0  0  0  0  0  0  0  0  0  0
   68.7759   67.3130  282.2010 H   0  0  0  0  0  0  0  0  0  0  0  0
   69.6670   70.8538  280.3750 H   0  0  0  0  0  0  0  0  0  0  0  0
 20 19  2  0  0  0
 18 19  1  0  0  0
 19 22  1  0  0  0
 19 21  1  0  0  0
  2  1  1  0  0  0
 10  1  1  0  0  0
  1  7  1  0  0  0
 10 11  1  0  0  0
  3  2  1  0  0  0
  2  4  1  0  0  0
  5  4  1  0  0  0
  4  6  1  0  0  0
  6  7  1  0  0  0
  6 17  1  0  0  0
 17 18  1  0  0  0
 13 11  2  0  0  0
 11 12  1  0  0  0
 11 14  1  0  0  0
  3  8  1  0  0  0
  5  9  1  0  0  0
 12 15  1  0  0  0
 21 23  1  0  0  0
 14 16  1  0  0  0
 22 24  1  0  0  0
M  END
> <minimizedAffinity>
-8.36908

$$$$
5YFT_RI2_A_401


 24 24  0  0  0  0  0  0  0  0999 V2000
   68.6978   69.2110  279.9111 C   0  0  0  0  0  0  0  0  0  0  0  0
   68.4873   70.4715  280.7666 C   0  0  0  0  0  0  0  0  0  0  0  0
   68.0776   70.1578  282.1247 O   0  0  0  0  0  0  0  0  0  0  0  0
   67.3166   71.0907  280.0196 C   0  0  0  0  0  0  0  0  0  0  0  0
   66.6155   72.0742  280.7825 O   0  0  0  0  0  0  0  0  0  0  0  0
   66.4340   69.8851  279.7107 C   0  0  0  0  0  0  0  0  0  0  0  0
   67.3630   68.7848  279.4814 O   0  0  0  0  0  0  0  0  0  0  0  0
   67.2789   69.6077  282.1026 H   0  0  0  0  0  0  0  0  0  0  0  0
   66.2864   71.6734  281.6022 H   0  0  0  0  0  0  0  0  0  0  0  0
   69.3184   68.1846  280.6909 O   0  0  0  0  0  0  0  0  0  0  0  0
   70.8914   67.8329  280.5430 P   0  0  0  0  0  0  0  0  0  0  0  0
   71.5628   69.0597  281.0068 O   0  0  0  0  0  0  0  0  0  0  0  0
   71.1723   66.6881  281.5749 O   0  0  0  0  0  0  0  0  0  0  0  0
   71.1860   67.3222  279.1437 O   0  0  0  0  0  0  0  0  0  0  0  0
   71.2786   69.2613  281.9121 H   0  0  0  0  0  0  0  0  0  0  0  0
   70.6757   66.5137  278.9804 H   0  0  0  0  0  0  0  0  0  0  0  0
   65.4024   70.0691  278.6115 C   0  0  0  0  0  0  0  0  0  0  0  0
   66.0567   70.3175  277.4200 O   0  0  0  0  0  0  0  0  0  0  0  0
   65.5586   71.4435  276.3898 P   0  0  0  0  0  0  0  0  0  0  0  0
   64.6939   70.8272  275.3601 O   0  0  0  0  0  0  0  0  0  0  0  0
   64.8477   72.4317  277.2523 O   0  0  0  0  0  0  0  0  0  0  0  0
   66.8507   72.0006  275.7541 O   0  0  0  0  0  0  0  0  0  0  0  0
   64.0484   72.0235  277.6203 H   0  0  0  0  0  0  0  0  0  0  0  0
   67.2644   71.3140  275.2080 H   0  0  0  0  0  0  0  0  0  0  0  0
 20 19  2  0  0  0
 18 19  1  0  0  0
 19 22  1  0  0  0
 19 21  1  0  0  0
  2  1  1  0  0  0
 10  1  1  0  0  0
  1  7  1  0  0  0
 10 11  1  0  0  0
  3  2  1  0  0  0
  2  4  1  0  0  0
  5  4  1  0  0  0
  4  6  1  0  0  0
  6  7  1  0  0  0
  6 17  1  0  0  0
 17 18  1  0  0  0
 13 11  2  0  0  0
 11 12  1  0  0  0
 11 14  1  0  0  0
  3  8  1  0  0  0
  5  9  1  0  0  0
 12 15  1  0  0  0
 21 23  1  0  0  0
 14 16  1  0  0  0
 22 24  1  0  0  0
M  END
> <minimizedAffinity>
-8.26299

$$$$
5YFT_RI2_A_401


 24 24  0  0  0  0  0  0  0  0999 V2000
   65.3880   70.3396  279.1592 C   0  0  0  0  0  0  0  0  0  0  0  0
   66.0578   70.9937  280.3793 C   0  0  0  0  0  0  0  0  0  0  0  0
   66.7934   72.1966  280.0295 O   0  0  0  0  0  0  0  0  0  0  0  0
   67.0408   69.8935  280.7473 C   0  0  0  0  0  0  0  0  0  0  0  0
   68.0959   70.3400  281.6005 O   0  0  0  0  0  0  0  0  0  0  0  0
   67.5696   69.4415  279.3894 C   0  0  0  0  0  0  0  0  0  0  0  0
   66.4395   69.5791  278.4783 O   0  0  0  0  0  0  0  0  0  0  0  0
   67.4419   71.9896  279.3384 H   0  0  0  0  0  0  0  0  0  0  0  0
   68.5803   71.0595  281.1663 H   0  0  0  0  0  0  0  0  0  0  0  0
   64.8610   71.3452  278.2888 O   0  0  0  0  0  0  0  0  0  0  0  0
   65.4683   71.5986  276.8100 P   0  0  0  0  0  0  0  0  0  0  0  0
   64.9272   70.4786  276.0200 O   0  0  0  0  0  0  0  0  0  0  0  0
   64.8164   72.9297  276.3024 O   0  0  0  0  0  0  0  0  0  0  0  0
   66.9738   71.7809  276.8846 O   0  0  0  0  0  0  0  0  0  0  0  0
   63.9583   70.4897  276.0649 H   0  0  0  0  0  0  0  0  0  0  0  0
   67.1792   72.5525  277.4353 H   0  0  0  0  0  0  0  0  0  0  0  0
   68.2421   68.0804  279.3471 C   0  0  0  0  0  0  0  0  0  0  0  0
   68.9650   67.9016  280.5112 O   0  0  0  0  0  0  0  0  0  0  0  0
   70.5662   68.0125  280.5486 P   0  0  0  0  0  0  0  0  0  0  0  0
   71.1384   67.3425  279.3606 O   0  0  0  0  0  0  0  0  0  0  0  0
   70.8246   69.4813  280.5875 O   0  0  0  0  0  0  0  0  0  0  0  0
   70.9854   67.2807  281.8418 O   0  0  0  0  0  0  0  0  0  0  0  0
   70.5413   69.8817  279.7507 H   0  0  0  0  0  0  0  0  0  0  0  0
   70.7929   66.3340  281.7546 H   0  0  0  0  0  0  0  0  0  0  0  0
 20 19  2  0  0  0
 18 19  1  0  0  0
 19 22  1  0  0  0
 19 21  1  0  0  0
  2  1  1  0  0  0
 10  1  1  0  0  0
  1  7  1  0  0  0
 10 11  1  0  0  0
  3  2  1  0  0  0
  2  4  1  0  0  0
  5  4  1  0  0  0
  4  6  1  0  0  0
  6  7  1  0  0  0
  6 17  1  0  0  0
 17 18  1  0  0  0
 13 11  2  0  0  0
 11 12  1  0  0  0
 11 14  1  0  0  0
  3  8  1  0  0  0
  5  9  1  0  0  0
 12 15  1  0  0  0
 21 23  1  0  0  0
 14 16  1  0  0  0
 22 24  1  0  0  0
M  END
> <minimizedAffinity>
-8.12963

$$$$
