1G52_F2B_A_555


 25 26  0  0  0  0  0  0  0  0999 V2000
   -4.4422    5.6823   13.4588 C   0  0  0  0  0  0  0  0  0  0  0  0
   -3.2612    5.9521   13.4253 O   0  0  0  0  0  0  0  0  0  0  0  0
   -5.3648    6.3582   12.6564 N   0  0  0  0  0  0  0  0  0  0  0  0
   -6.3032    6.0771   12.7549 H   0  0  0  0  0  0  0  0  0  0  0  0
   -6.1775    4.6242   14.9517 C   0  0  0  0  0  0  0  0  0  0  0  0
   -6.6535    3.6268   15.8329 C   0  0  0  0  0  0  0  0  0  0  0  0
   -5.7954    2.5445   16.1554 C   0  0  0  0  0  0  0  0  0  0  0  0
   -4.5106    2.5282   15.5774 C   0  0  0  0  0  0  0  0  0  0  0  0
   -4.0697    3.5416   14.7077 C   0  0  0  0  0  0  0  0  0  0  0  0
   -4.8970    4.5864   14.3918 C   0  0  0  0  0  0  0  0  0  0  0  0
   -6.4594    1.2829   17.2982 S   0  0  0  0  0  0  0  0  0  0  0  0
   -5.6661   -0.0389   17.2260 N   0  0  0  0  0  0  0  0  0  0  0  0
   -7.9131    1.3115   16.8071 O   0  0  0  0  0  0  0  0  0  0  0  0
   -6.4395    1.9937   18.6017 O   0  0  0  0  0  0  0  0  0  0  0  0
   -5.7508   -0.4356   16.2901 H   0  0  0  0  0  0  0  0  0  0  0  0
   -6.0398   -0.6975   17.9095 H   0  0  0  0  0  0  0  0  0  0  0  0
   -5.1193    7.4365   11.6817 C   0  0  0  0  0  0  0  0  0  0  0  0
   -5.8585    7.4282   10.4589 C   0  0  0  0  0  0  0  0  0  0  0  0
   -5.1692    7.1194    9.2577 C   0  0  0  0  0  0  0  0  0  0  0  0
   -5.8193    7.0914    7.9910 C   0  0  0  0  0  0  0  0  0  0  0  0
   -7.2003    7.3842    7.9521 C   0  0  0  0  0  0  0  0  0  0  0  0
   -7.9379    7.7035    9.1410 C   0  0  0  0  0  0  0  0  0  0  0  0
   -7.2553    7.7247   10.4141 C   0  0  0  0  0  0  0  0  0  0  0  0
   -9.2476    7.9755    9.0592 F   0  0  0  0  0  0  0  0  0  0  0  0
   -7.9358    8.0211   11.5296 F   0  0  0  0  0  0  0  0  0  0  0  0
  5  6  2  0  0  0
  5 10  1  0  0  0
  6  7  1  0  0  0
  7  8  2  0  0  0
  7 11  1  0  0  0
  8  9  1  0  0  0
  9 10  2  0  0  0
 10  1  1  0  0  0
  1  2  2  0  0  0
  1  3  1  0  0  0
  3 17  1  0  0  0
 17 18  1  0  0  0
 11 12  1  0  0  0
 11 13  2  0  0  0
 11 14  2  0  0  0
 18 19  2  0  0  0
 18 23  1  0  0  0
 19 20  1  0  0  0
 20 21  2  0  0  0
 21 22  1  0  0  0
 22 23  2  0  0  0
 22 24  1  0  0  0
 23 25  1  0  0  0
  3  4  1  0  0  0
 12 15  1  0  0  0
 12 16  1  0  0  0
M  END
> <minimizedAffinity>
-8.08626

$$$$
1G52_F2B_A_555


 25 26  0  0  0  0  0  0  0  0999 V2000
   -4.5545    5.5846   13.2550 C   0  0  0  0  0  0  0  0  0  0  0  0
   -3.3781    5.7028   12.9892 O   0  0  0  0  0  0  0  0  0  0  0  0
   -5.5176    6.4131   12.6736 N   0  0  0  0  0  0  0  0  0  0  0  0
   -6.4471    6.2493   12.9536 H   0  0  0  0  0  0  0  0  0  0  0  0
   -6.2638    4.4688   14.7359 C   0  0  0  0  0  0  0  0  0  0  0  0
   -6.6960    3.4864   15.6558 C   0  0  0  0  0  0  0  0  0  0  0  0
   -5.7669    2.5020   16.0793 C   0  0  0  0  0  0  0  0  0  0  0  0
   -4.4595    2.5628   15.5576 C   0  0  0  0  0  0  0  0  0  0  0  0
   -4.0642    3.5588   14.6467 C   0  0  0  0  0  0  0  0  0  0  0  0
   -4.9598    4.5090   14.2334 C   0  0  0  0  0  0  0  0  0  0  0  0
   -6.3764    1.2557   17.2683 S   0  0  0  0  0  0  0  0  0  0  0  0
   -5.5865   -0.0670   17.1770 N   0  0  0  0  0  0  0  0  0  0  0  0
   -7.8513    1.2777   16.8447 O   0  0  0  0  0  0  0  0  0  0  0  0
   -6.2966    1.9837   18.5599 O   0  0  0  0  0  0  0  0  0  0  0  0
   -5.7141   -0.4761   16.2514 H   0  0  0  0  0  0  0  0  0  0  0  0
   -5.9276   -0.7164   17.8857 H   0  0  0  0  0  0  0  0  0  0  0  0
   -5.3261    7.5001   11.6964 C   0  0  0  0  0  0  0  0  0  0  0  0
   -6.0669    7.4542   10.4755 C   0  0  0  0  0  0  0  0  0  0  0  0
   -7.3214    8.1152   10.4240 C   0  0  0  0  0  0  0  0  0  0  0  0
   -8.1333    8.1205    9.2541 C   0  0  0  0  0  0  0  0  0  0  0  0
   -7.6529    7.4374    8.1153 C   0  0  0  0  0  0  0  0  0  0  0  0
   -6.3911    6.7537    8.1216 C   0  0  0  0  0  0  0  0  0  0  0  0
   -5.5859    6.7637    9.3210 C   0  0  0  0  0  0  0  0  0  0  0  0
   -5.9730    6.1173    7.0188 F   0  0  0  0  0  0  0  0  0  0  0  0
   -4.4062    6.1286    9.3362 F   0  0  0  0  0  0  0  0  0  0  0  0
  5  6  2  0  0  0
  5 10  1  0  0  0
  6  7  1  0  0  0
  7  8  2  0  0  0
  7 11  1  0  0  0
  8  9  1  0  0  0
  9 10  2  0  0  0
 10  1  1  0  0  0
  1  2  2  0  0  0
  1  3  1  0  0  0
  3 17  1  0  0  0
 17 18  1  0  0  0
 11 12  1  0  0  0
 11 13  2  0  0  0
 11 14  2  0  0  0
 18 19  2  0  0  0
 18 23  1  0  0  0
 19 20  1  0  0  0
 20 21  2  0  0  0
 21 22  1  0  0  0
 22 23  2  0  0  0
 22 24  1  0  0  0
 23 25  1  0  0  0
  3  4  1  0  0  0
 12 15  1  0  0  0
 12 16  1  0  0  0
M  END
> <minimizedAffinity>
-7.87663

$$$$
1G52_F2B_A_555


 25 26  0  0  0  0  0  0  0  0999 V2000
   -4.6874    5.7484   13.4879 C   0  0  0  0  0  0  0  0  0  0  0  0
   -5.5477    6.2333   12.7854 O   0  0  0  0  0  0  0  0  0  0  0  0
   -3.3711    6.2153   13.4516 N   0  0  0  0  0  0  0  0  0  0  0  0
   -2.7389    5.7575   14.0515 H   0  0  0  0  0  0  0  0  0  0  0  0
   -6.3271    4.6204   15.0366 C   0  0  0  0  0  0  0  0  0  0  0  0
   -6.7403    3.5931   15.9153 C   0  0  0  0  0  0  0  0  0  0  0  0
   -5.8468    2.5213   16.1693 C   0  0  0  0  0  0  0  0  0  0  0  0
   -4.5916    2.5447   15.5297 C   0  0  0  0  0  0  0  0  0  0  0  0
   -4.2133    3.5870   14.6647 C   0  0  0  0  0  0  0  0  0  0  0  0
   -5.0750    4.6219   14.4148 C   0  0  0  0  0  0  0  0  0  0  0  0
   -6.4298    1.2200   17.3118 S   0  0  0  0  0  0  0  0  0  0  0  0
   -5.6115   -0.0812   17.1737 N   0  0  0  0  0  0  0  0  0  0  0  0
   -7.9047    1.2255   16.8876 O   0  0  0  0  0  0  0  0  0  0  0  0
   -6.3662    1.9023   18.6290 O   0  0  0  0  0  0  0  0  0  0  0  0
   -5.7300   -0.4592   16.2337 H   0  0  0  0  0  0  0  0  0  0  0  0
   -5.9389   -0.7630   17.8580 H   0  0  0  0  0  0  0  0  0  0  0  0
   -2.8037    7.3027   12.6339 C   0  0  0  0  0  0  0  0  0  0  0  0
   -2.3149    8.4689   13.2993 C   0  0  0  0  0  0  0  0  0  0  0  0
   -2.0185    8.3794   14.6840 C   0  0  0  0  0  0  0  0  0  0  0  0
   -1.5320    9.4884   15.4331 C   0  0  0  0  0  0  0  0  0  0  0  0
   -1.3445   10.7119   14.7532 C   0  0  0  0  0  0  0  0  0  0  0  0
   -1.6324   10.8496   13.3540 C   0  0  0  0  0  0  0  0  0  0  0  0
   -2.1245    9.7092   12.6162 C   0  0  0  0  0  0  0  0  0  0  0  0
   -1.4406   12.0292   12.7476 F   0  0  0  0  0  0  0  0  0  0  0  0
   -2.3955    9.8280   11.3094 F   0  0  0  0  0  0  0  0  0  0  0  0
  5  6  2  0  0  0
  5 10  1  0  0  0
  6  7  1  0  0  0
  7  8  2  0  0  0
  7 11  1  0  0  0
  8  9  1  0  0  0
  9 10  2  0  0  0
 10  1  1  0  0  0
  1  2  2  0  0  0
  1  3  1  0  0  0
  3 17  1  0  0  0
 17 18  1  0  0  0
 11 12  1  0  0  0
 11 13  2  0  0  0
 11 14  2  0  0  0
 18 19  2  0  0  0
 18 23  1  0  0  0
 19 20  1  0  0  0
 20 21  2  0  0  0
 21 22  1  0  0  0
 22 23  2  0  0  0
 22 24  1  0  0  0
 23 25  1  0  0  0
  3  4  1  0  0  0
 12 15  1  0  0  0
 12 16  1  0  0  0
M  END
> <minimizedAffinity>
-7.57099

$$$$
1G52_F2B_A_555


 25 26  0  0  0  0  0  0  0  0999 V2000
   -4.1537    5.8946   13.8689 C   0  0  0  0  0  0  0  0  0  0  0  0
   -3.7149    6.8354   14.4941 O   0  0  0  0  0  0  0  0  0  0  0  0
   -4.1383    5.8799   12.4719 N   0  0  0  0  0  0  0  0  0  0  0  0
   -4.5217    5.0779   12.0490 H   0  0  0  0  0  0  0  0  0  0  0  0
   -3.9189    3.6128   14.9167 C   0  0  0  0  0  0  0  0  0  0  0  0
   -4.3963    2.4912   15.6323 C   0  0  0  0  0  0  0  0  0  0  0  0
   -5.7387    2.5030   16.0901 C   0  0  0  0  0  0  0  0  0  0  0  0
   -6.5230    3.6371   15.8008 C   0  0  0  0  0  0  0  0  0  0  0  0
   -6.0145    4.7334   15.0815 C   0  0  0  0  0  0  0  0  0  0  0  0
   -4.7177    4.7265   14.6407 C   0  0  0  0  0  0  0  0  0  0  0  0
   -6.3053    1.0293   17.0097 S   0  0  0  0  0  0  0  0  0  0  0  0
   -7.8400    0.8735   16.9653 N   0  0  0  0  0  0  0  0  0  0  0  0
   -5.6238    1.3518   18.3465 O   0  0  0  0  0  0  0  0  0  0  0  0
   -5.5134   -0.0594   16.3834 O   0  0  0  0  0  0  0  0  0  0  0  0
   -8.2765    1.6743   17.4220 H   0  0  0  0  0  0  0  0  0  0  0  0
   -8.1090    0.0173   17.4502 H   0  0  0  0  0  0  0  0  0  0  0  0
   -3.6238    6.9064   11.5475 C   0  0  0  0  0  0  0  0  0  0  0  0
   -4.4641    8.0178   11.2306 C   0  0  0  0  0  0  0  0  0  0  0  0
   -5.8697    7.8237   11.2421 C   0  0  0  0  0  0  0  0  0  0  0  0
   -6.7865    8.8692   10.9353 C   0  0  0  0  0  0  0  0  0  0  0  0
   -6.2559   10.1372   10.6110 C   0  0  0  0  0  0  0  0  0  0  0  0
   -4.8416   10.3794   10.5850 C   0  0  0  0  0  0  0  0  0  0  0  0
   -3.9323    9.3021   10.9009 C   0  0  0  0  0  0  0  0  0  0  0  0
   -4.3803   11.5980   10.2716 F   0  0  0  0  0  0  0  0  0  0  0  0
   -2.6102    9.5188   10.8798 F   0  0  0  0  0  0  0  0  0  0  0  0
  5  6  2  0  0  0
  5 10  1  0  0  0
  6  7  1  0  0  0
  7  8  2  0  0  0
  7 11  1  0  0  0
  8  9  1  0  0  0
  9 10  2  0  0  0
 10  1  1  0  0  0
  1  2  2  0  0  0
  1  3  1  0  0  0
  3 17  1  0  0  0
 17 18  1  0  0  0
 11 12  1  0  0  0
 11 13  2  0  0  0
 11 14  2  0  0  0
 18 19  2  0  0  0
 18 23  1  0  0  0
 19 20  1  0  0  0
 20 21  2  0  0  0
 21 22  1  0  0  0
 22 23  2  0  0  0
 22 24  1  0  0  0
 23 25  1  0  0  0
  3  4  1  0  0  0
 12 15  1  0  0  0
 12 16  1  0  0  0
M  END
> <minimizedAffinity>
-7.32121

$$$$
1G52_F2B_A_555


 25 26  0  0  0  0  0  0  0  0999 V2000
   -4.1760    4.3103   10.2241 C   0  0  0  0  0  0  0  0  0  0  0  0
   -3.3209    3.9852    9.4293 O   0  0  0  0  0  0  0  0  0  0  0  0
   -5.0435    5.3740    9.9634 N   0  0  0  0  0  0  0  0  0  0  0  0
   -5.7017    5.5709   10.6686 H   0  0  0  0  0  0  0  0  0  0  0  0
   -4.1541    4.1786   12.7423 C   0  0  0  0  0  0  0  0  0  0  0  0
   -4.2460    3.4965   13.9770 C   0  0  0  0  0  0  0  0  0  0  0  0
   -4.4868    2.0989   13.9606 C   0  0  0  0  0  0  0  0  0  0  0  0
   -4.6183    1.4681   12.7077 C   0  0  0  0  0  0  0  0  0  0  0  0
   -4.5162    2.1794   11.4988 C   0  0  0  0  0  0  0  0  0  0  0  0
   -4.2868    3.5296   11.5112 C   0  0  0  0  0  0  0  0  0  0  0  0
   -4.5970    1.2659   15.5831 S   0  0  0  0  0  0  0  0  0  0  0  0
   -4.7429   -0.2638   15.4402 N   0  0  0  0  0  0  0  0  0  0  0  0
   -5.7685    2.0802   16.1484 O   0  0  0  0  0  0  0  0  0  0  0  0
   -3.3741    1.7502   16.2721 O   0  0  0  0  0  0  0  0  0  0  0  0
   -5.6140   -0.4784   14.9548 H   0  0  0  0  0  0  0  0  0  0  0  0
   -4.7551   -0.6922   16.3658 H   0  0  0  0  0  0  0  0  0  0  0  0
   -5.1037    6.2406    8.7724 C   0  0  0  0  0  0  0  0  0  0  0  0
   -6.0610    7.3011    8.7517 C   0  0  0  0  0  0  0  0  0  0  0  0
   -5.5950    8.6319    8.9104 C   0  0  0  0  0  0  0  0  0  0  0  0
   -6.4732    9.7528    8.9084 C   0  0  0  0  0  0  0  0  0  0  0  0
   -7.8539    9.5083    8.7403 C   0  0  0  0  0  0  0  0  0  0  0  0
   -8.3708    8.1794    8.5779 C   0  0  0  0  0  0  0  0  0  0  0  0
   -7.4589    7.0589    8.5830 C   0  0  0  0  0  0  0  0  0  0  0  0
   -9.6885    7.9919    8.4217 F   0  0  0  0  0  0  0  0  0  0  0  0
   -7.9321    5.8145    8.4316 F   0  0  0  0  0  0  0  0  0  0  0  0
  5  6  2  0  0  0
  5 10  1  0  0  0
  6  7  1  0  0  0
  7  8  2  0  0  0
  7 11  1  0  0  0
  8  9  1  0  0  0
  9 10  2  0  0  0
 10  1  1  0  0  0
  1  2  2  0  0  0
  1  3  1  0  0  0
  3 17  1  0  0  0
 17 18  1  0  0  0
 11 12  1  0  0  0
 11 13  2  0  0  0
 11 14  2  0  0  0
 18 19  2  0  0  0
 18 23  1  0  0  0
 19 20  1  0  0  0
 20 21  2  0  0  0
 21 22  1  0  0  0
 22 23  2  0  0  0
 22 24  1  0  0  0
 23 25  1  0  0  0
  3  4  1  0  0  0
 12 15  1  0  0  0
 12 16  1  0  0  0
M  END
> <minimizedAffinity>
-7.31666

$$$$
1G52_F2B_A_555


 25 26  0  0  0  0  0  0  0  0999 V2000
   -4.1315    5.7811   13.6221 C   0  0  0  0  0  0  0  0  0  0  0  0
   -4.8905    6.4337   12.9390 O   0  0  0  0  0  0  0  0  0  0  0  0
   -2.7610    6.0512   13.6461 N   0  0  0  0  0  0  0  0  0  0  0  0
   -2.2204    5.4658   14.2243 H   0  0  0  0  0  0  0  0  0  0  0  0
   -3.8951    3.6007   14.8669 C   0  0  0  0  0  0  0  0  0  0  0  0
   -4.3817    2.5272   15.6472 C   0  0  0  0  0  0  0  0  0  0  0  0
   -5.7470    2.5354   16.0314 C   0  0  0  0  0  0  0  0  0  0  0  0
   -6.5436    3.6177   15.6081 C   0  0  0  0  0  0  0  0  0  0  0  0
   -6.0251    4.6666   14.8278 C   0  0  0  0  0  0  0  0  0  0  0  0
   -4.7064    4.6633   14.4577 C   0  0  0  0  0  0  0  0  0  0  0  0
   -6.3245    1.1252   17.0394 S   0  0  0  0  0  0  0  0  0  0  0  0
   -7.8613    0.9854   17.0134 N   0  0  0  0  0  0  0  0  0  0  0  0
   -5.6304    1.5173   18.3508 O   0  0  0  0  0  0  0  0  0  0  0  0
   -5.5496   -0.0079   16.4733 O   0  0  0  0  0  0  0  0  0  0  0  0
   -8.2853    1.8169   17.4249 H   0  0  0  0  0  0  0  0  0  0  0  0
   -8.1370    0.1625   17.5493 H   0  0  0  0  0  0  0  0  0  0  0  0
   -2.0171    7.0966   12.9203 C   0  0  0  0  0  0  0  0  0  0  0  0
   -1.3495    8.1065   13.6793 C   0  0  0  0  0  0  0  0  0  0  0  0
   -2.0195    8.6582   14.8018 C   0  0  0  0  0  0  0  0  0  0  0  0
   -1.4373    9.6717   15.6152 C   0  0  0  0  0  0  0  0  0  0  0  0
   -0.1454   10.1293   15.2745 C   0  0  0  0  0  0  0  0  0  0  0  0
    0.5693    9.6018   14.1473 C   0  0  0  0  0  0  0  0  0  0  0  0
   -0.0431    8.5735   13.3381 C   0  0  0  0  0  0  0  0  0  0  0  0
    1.7934   10.0647   13.8590 F   0  0  0  0  0  0  0  0  0  0  0  0
    0.6166    8.0745   12.2841 F   0  0  0  0  0  0  0  0  0  0  0  0
  5  6  2  0  0  0
  5 10  1  0  0  0
  6  7  1  0  0  0
  7  8  2  0  0  0
  7 11  1  0  0  0
  8  9  1  0  0  0
  9 10  2  0  0  0
 10  1  1  0  0  0
  1  2  2  0  0  0
  1  3  1  0  0  0
  3 17  1  0  0  0
 17 18  1  0  0  0
 11 12  1  0  0  0
 11 13  2  0  0  0
 11 14  2  0  0  0
 18 19  2  0  0  0
 18 23  1  0  0  0
 19 20  1  0  0  0
 20 21  2  0  0  0
 21 22  1  0  0  0
 22 23  2  0  0  0
 22 24  1  0  0  0
 23 25  1  0  0  0
  3  4  1  0  0  0
 12 15  1  0  0  0
 12 16  1  0  0  0
M  END
> <minimizedAffinity>
-7.30403

$$$$
1G52_F2B_A_555


 25 26  0  0  0  0  0  0  0  0999 V2000
   -3.9973    1.0318   12.4221 C   0  0  0  0  0  0  0  0  0  0  0  0
   -4.6095    0.0995   11.9480 O   0  0  0  0  0  0  0  0  0  0  0  0
   -4.0125    1.2878   13.7955 N   0  0  0  0  0  0  0  0  0  0  0  0
   -3.4923    2.0700   14.0899 H   0  0  0  0  0  0  0  0  0  0  0  0
   -1.9711    1.4888   10.9919 C   0  0  0  0  0  0  0  0  0  0  0  0
   -1.1886    2.2760   10.1167 C   0  0  0  0  0  0  0  0  0  0  0  0
   -1.6836    3.5461    9.7251 C   0  0  0  0  0  0  0  0  0  0  0  0
   -2.9321    3.9524   10.2364 C   0  0  0  0  0  0  0  0  0  0  0  0
   -3.6808    3.1433   11.1096 C   0  0  0  0  0  0  0  0  0  0  0  0
   -3.2071    1.9150   11.4873 C   0  0  0  0  0  0  0  0  0  0  0  0
   -0.6336    4.5228    8.5928 S   0  0  0  0  0  0  0  0  0  0  0  0
   -0.1810    3.7001    7.3681 N   0  0  0  0  0  0  0  0  0  0  0  0
    0.4127    4.9691    9.6231 O   0  0  0  0  0  0  0  0  0  0  0  0
   -1.4842    5.7074    8.3138 O   0  0  0  0  0  0  0  0  0  0  0  0
    0.3938    2.9166    7.6783 H   0  0  0  0  0  0  0  0  0  0  0  0
    0.3629    4.2938    6.7418 H   0  0  0  0  0  0  0  0  0  0  0  0
   -4.7044    0.5416   14.8621 C   0  0  0  0  0  0  0  0  0  0  0  0
   -5.4030    1.2814   15.8653 C   0  0  0  0  0  0  0  0  0  0  0  0
   -5.5555    0.6967   17.1490 C   0  0  0  0  0  0  0  0  0  0  0  0
   -6.2400    1.3546   18.2104 C   0  0  0  0  0  0  0  0  0  0  0  0
   -6.7782    2.6349   17.9541 C   0  0  0  0  0  0  0  0  0  0  0  0
   -6.6498    3.2646   16.6709 C   0  0  0  0  0  0  0  0  0  0  0  0
   -5.9502    2.5764   15.6107 C   0  0  0  0  0  0  0  0  0  0  0  0
   -7.1760    4.4806   16.4702 F   0  0  0  0  0  0  0  0  0  0  0  0
   -5.8247    3.1565   14.4095 F   0  0  0  0  0  0  0  0  0  0  0  0
  5  6  2  0  0  0
  5 10  1  0  0  0
  6  7  1  0  0  0
  7  8  2  0  0  0
  7 11  1  0  0  0
  8  9  1  0  0  0
  9 10  2  0  0  0
 10  1  1  0  0  0
  1  2  2  0  0  0
  1  3  1  0  0  0
  3 17  1  0  0  0
 17 18  1  0  0  0
 11 12  1  0  0  0
 11 13  2  0  0  0
 11 14  2  0  0  0
 18 19  2  0  0  0
 18 23  1  0  0  0
 19 20  1  0  0  0
 20 21  2  0  0  0
 21 22  1  0  0  0
 22 23  2  0  0  0
 22 24  1  0  0  0
 23 25  1  0  0  0
  3  4  1  0  0  0
 12 15  1  0  0  0
 12 16  1  0  0  0
M  END
> <minimizedAffinity>
-7.09655

$$$$
1G52_F2B_A_555


 25 26  0  0  0  0  0  0  0  0999 V2000
   -4.4496    5.3793   13.0112 C   0  0  0  0  0  0  0  0  0  0  0  0
   -3.6515    6.2200   13.3644 O   0  0  0  0  0  0  0  0  0  0  0  0
   -4.9149    5.3268   11.6949 N   0  0  0  0  0  0  0  0  0  0  0  0
   -5.5665    4.6148   11.5003 H   0  0  0  0  0  0  0  0  0  0  0  0
   -4.2981    3.1370   14.1552 C   0  0  0  0  0  0  0  0  0  0  0  0
   -4.7081    2.1618   15.0928 C   0  0  0  0  0  0  0  0  0  0  0  0
   -5.8019    2.4612   15.9446 C   0  0  0  0  0  0  0  0  0  0  0  0
   -6.4210    3.7190   15.8039 C   0  0  0  0  0  0  0  0  0  0  0  0
   -5.9878    4.6629   14.8556 C   0  0  0  0  0  0  0  0  0  0  0  0
   -4.9300    4.3781   14.0336 C   0  0  0  0  0  0  0  0  0  0  0  0
   -6.2911    1.1670   17.1380 S   0  0  0  0  0  0  0  0  0  0  0  0
   -5.9131    1.5420   18.5866 N   0  0  0  0  0  0  0  0  0  0  0  0
   -5.5796   -0.0116   16.4598 O   0  0  0  0  0  0  0  0  0  0  0  0
   -7.7397    1.0057   16.8551 O   0  0  0  0  0  0  0  0  0  0  0  0
   -4.8994    1.6254   18.6627 H   0  0  0  0  0  0  0  0  0  0  0  0
   -6.2433    0.8164   19.2228 H   0  0  0  0  0  0  0  0  0  0  0  0
   -4.5595    6.1963   10.5588 C   0  0  0  0  0  0  0  0  0  0  0  0
   -5.3215    7.3869   10.3503 C   0  0  0  0  0  0  0  0  0  0  0  0
   -4.8065    8.6117   10.8482 C   0  0  0  0  0  0  0  0  0  0  0  0
   -5.4957    9.8481   10.6934 C   0  0  0  0  0  0  0  0  0  0  0  0
   -6.7349    9.8317   10.0162 C   0  0  0  0  0  0  0  0  0  0  0  0
   -7.2955    8.6168    9.4972 C   0  0  0  0  0  0  0  0  0  0  0  0
   -6.5761    7.3754    9.6668 C   0  0  0  0  0  0  0  0  0  0  0  0
   -8.4747    8.6459    8.8612 F   0  0  0  0  0  0  0  0  0  0  0  0
   -7.0912    6.2362    9.1852 F   0  0  0  0  0  0  0  0  0  0  0  0
  5  6  2  0  0  0
  5 10  1  0  0  0
  6  7  1  0  0  0
  7  8  2  0  0  0
  7 11  1  0  0  0
  8  9  1  0  0  0
  9 10  2  0  0  0
 10  1  1  0  0  0
  1  2  2  0  0  0
  1  3  1  0  0  0
  3 17  1  0  0  0
 17 18  1  0  0  0
 11 12  1  0  0  0
 11 13  2  0  0  0
 11 14  2  0  0  0
 18 19  2  0  0  0
 18 23  1  0  0  0
 19 20  1  0  0  0
 20 21  2  0  0  0
 21 22  1  0  0  0
 22 23  2  0  0  0
 22 24  1  0  0  0
 23 25  1  0  0  0
  3  4  1  0  0  0
 12 15  1  0  0  0
 12 16  1  0  0  0
M  END
> <minimizedAffinity>
-7.09074

$$$$
1G52_F2B_A_555


 25 26  0  0  0  0  0  0  0  0999 V2000
   -4.8356    6.0066   13.5227 C   0  0  0  0  0  0  0  0  0  0  0  0
   -5.3292    5.7848   12.4384 O   0  0  0  0  0  0  0  0  0  0  0  0
   -5.3102    5.3814   14.6786 N   0  0  0  0  0  0  0  0  0  0  0  0
   -4.8534    5.6272   15.5153 H   0  0  0  0  0  0  0  0  0  0  0  0
   -3.1721    7.3729   14.8362 C   0  0  0  0  0  0  0  0  0  0  0  0
   -2.0968    8.2817   14.9631 C   0  0  0  0  0  0  0  0  0  0  0  0
   -1.5140    8.8080   13.7820 C   0  0  0  0  0  0  0  0  0  0  0  0
   -2.0456    8.3942   12.5445 C   0  0  0  0  0  0  0  0  0  0  0  0
   -3.1201    7.4910   12.4576 C   0  0  0  0  0  0  0  0  0  0  0  0
   -3.6831    6.9785   13.5961 C   0  0  0  0  0  0  0  0  0  0  0  0
   -0.1277    9.9778   14.0017 S   0  0  0  0  0  0  0  0  0  0  0  0
    1.2169    9.3754   13.5426 N   0  0  0  0  0  0  0  0  0  0  0  0
   -0.3465   10.2717   15.4921 O   0  0  0  0  0  0  0  0  0  0  0  0
   -0.6016   11.1742   13.2610 O   0  0  0  0  0  0  0  0  0  0  0  0
    1.4404    8.5639   14.1188 H   0  0  0  0  0  0  0  0  0  0  0  0
    1.9534   10.0744   13.6396 H   0  0  0  0  0  0  0  0  0  0  0  0
   -6.4043    4.4025   14.8111 C   0  0  0  0  0  0  0  0  0  0  0  0
   -6.1552    3.2000   15.5417 C   0  0  0  0  0  0  0  0  0  0  0  0
   -6.9139    2.9562   16.7157 C   0  0  0  0  0  0  0  0  0  0  0  0
   -6.7336    1.7894   17.5117 C   0  0  0  0  0  0  0  0  0  0  0  0
   -5.7593    0.8540   17.0991 C   0  0  0  0  0  0  0  0  0  0  0  0
   -4.9674    1.0593   15.9199 C   0  0  0  0  0  0  0  0  0  0  0  0
   -5.1701    2.2512   15.1290 C   0  0  0  0  0  0  0  0  0  0  0  0
   -4.0532    0.1462   15.5644 F   0  0  0  0  0  0  0  0  0  0  0  0
   -4.4359    2.4513   14.0262 F   0  0  0  0  0  0  0  0  0  0  0  0
  5  6  2  0  0  0
  5 10  1  0  0  0
  6  7  1  0  0  0
  7  8  2  0  0  0
  7 11  1  0  0  0
  8  9  1  0  0  0
  9 10  2  0  0  0
 10  1  1  0  0  0
  1  2  2  0  0  0
  1  3  1  0  0  0
  3 17  1  0  0  0
 17 18  1  0  0  0
 11 12  1  0  0  0
 11 13  2  0  0  0
 11 14  2  0  0  0
 18 19  2  0  0  0
 18 23  1  0  0  0
 19 20  1  0  0  0
 20 21  2  0  0  0
 21 22  1  0  0  0
 22 23  2  0  0  0
 22 24  1  0  0  0
 23 25  1  0  0  0
  3  4  1  0  0  0
 12 15  1  0  0  0
 12 16  1  0  0  0
M  END
> <minimizedAffinity>
-7.07026

$$$$
1G52_F2B_A_555


 25 26  0  0  0  0  0  0  0  0999 V2000
   -4.0888    4.8180   13.0378 C   0  0  0  0  0  0  0  0  0  0  0  0
   -4.8615    5.2396   12.2050 O   0  0  0  0  0  0  0  0  0  0  0  0
   -2.7291    5.1364   12.9946 N   0  0  0  0  0  0  0  0  0  0  0  0
   -2.1756    4.7438   13.7079 H   0  0  0  0  0  0  0  0  0  0  0  0
   -5.9390    4.1212   14.6033 C   0  0  0  0  0  0  0  0  0  0  0  0
   -6.4992    3.3277   15.6302 C   0  0  0  0  0  0  0  0  0  0  0  0
   -5.7033    2.3027   16.2025 C   0  0  0  0  0  0  0  0  0  0  0  0
   -4.3926    2.1362   15.7132 C   0  0  0  0  0  0  0  0  0  0  0  0
   -3.8674    2.9487   14.6925 C   0  0  0  0  0  0  0  0  0  0  0  0
   -4.6344    3.9373   14.1356 C   0  0  0  0  0  0  0  0  0  0  0  0
   -6.4750    1.3063   17.5255 S   0  0  0  0  0  0  0  0  0  0  0  0
   -6.4099    2.0132   18.8959 N   0  0  0  0  0  0  0  0  0  0  0  0
   -5.6661    0.0205   17.3072 O   0  0  0  0  0  0  0  0  0  0  0  0
   -7.8317    1.0501   16.9794 O   0  0  0  0  0  0  0  0  0  0  0  0
   -5.4349    2.1358   19.1692 H   0  0  0  0  0  0  0  0  0  0  0  0
   -6.8900    1.4457   19.5943 H   0  0  0  0  0  0  0  0  0  0  0  0
   -2.0135    5.9823   12.0223 C   0  0  0  0  0  0  0  0  0  0  0  0
   -1.0868    5.3583   11.1315 C   0  0  0  0  0  0  0  0  0  0  0  0
    0.3000    5.4944   11.3991 C   0  0  0  0  0  0  0  0  0  0  0  0
    1.2981    4.9130   10.5663 C   0  0  0  0  0  0  0  0  0  0  0  0
    0.8698    4.1782    9.4388 C   0  0  0  0  0  0  0  0  0  0  0  0
   -0.5217    4.0156    9.1279 C   0  0  0  0  0  0  0  0  0  0  0  0
   -1.5149    4.6149    9.9891 C   0  0  0  0  0  0  0  0  0  0  0  0
   -0.8847    3.3106    8.0476 F   0  0  0  0  0  0  0  0  0  0  0  0
   -2.8165    4.4680    9.7072 F   0  0  0  0  0  0  0  0  0  0  0  0
  5  6  2  0  0  0
  5 10  1  0  0  0
  6  7  1  0  0  0
  7  8  2  0  0  0
  7 11  1  0  0  0
  8  9  1  0  0  0
  9 10  2  0  0  0
 10  1  1  0  0  0
  1  2  2  0  0  0
  1  3  1  0  0  0
  3 17  1  0  0  0
 17 18  1  0  0  0
 11 12  1  0  0  0
 11 13  2  0  0  0
 11 14  2  0  0  0
 18 19  2  0  0  0
 18 23  1  0  0  0
 19 20  1  0  0  0
 20 21  2  0  0  0
 21 22  1  0  0  0
 22 23  2  0  0  0
 22 24  1  0  0  0
 23 25  1  0  0  0
  3  4  1  0  0  0
 12 15  1  0  0  0
 12 16  1  0  0  0
M  END
> <minimizedAffinity>
-7.02499

$$$$
