1G52_F2B_A_555
  RCSB PDB12061702343D
Coordinates from PDB:1G52:A:555 Model:1 without hydrogens
 22 23  0  0  0  0            999 V2000
   -3.8210    3.4480   14.5380   C 0  0  0  0  0  0  0  0  0  0  0  0
   -4.2180    2.3090   15.2750   C 0  0  0  0  0  0  0  0  0  0  0  0
   -5.5380    2.2650   15.7920   C 0  0  0  0  0  0  0  0  0  0  0  0
   -6.3820    3.3640   15.5370   C 0  0  0  0  0  0  0  0  0  0  0  0
   -5.9530    4.4790   14.7950   C 0  0  0  0  0  0  0  0  0  0  0  0
   -4.6780    4.5260   14.2970   C 0  0  0  0  0  0  0  0  0  0  0  0
   -4.1990    5.7150   13.5000   C 0  0  0  0  0  0  0  0  0  0  0  0
   -4.9770    6.6230   13.3030   O 0  0  0  0  0  0  0  0  0  0  0  0
   -2.8910    5.7600   13.0110   N 0  0  0  0  0  0  0  0  0  0  0  0
   -2.2370    6.8270   12.2320   C 0  0  0  0  0  0  0  0  0  0  0  0
   -6.0000    0.7710   16.7370   S 0  0  0  0  0  0  0  0  0  0  0  0
   -5.5220   -0.5230   16.0450   N 0  0  0  0  0  0  0  0  0  0  0  0
   -7.5050    1.0540   16.8380   O 0  0  0  0  0  0  0  0  0  0  0  0
   -5.4260    1.0530   18.0770   O 0  0  0  0  0  0  0  0  0  0  0  0
   -1.8690    8.0320   12.9060   C 0  0  0  0  0  0  0  0  0  0  0  0
   -1.5470    7.9600   14.2860   C 0  0  0  0  0  0  0  0  0  0  0  0
   -1.1740    9.1070   15.0430   C 0  0  0  0  0  0  0  0  0  0  0  0
   -1.1290   10.3510   14.3760   C 0  0  0  0  0  0  0  0  0  0  0  0
   -1.4480   10.4720   12.9820   C 0  0  0  0  0  0  0  0  0  0  0  0
   -1.8230    9.2930   12.2360   C 0  0  0  0  0  0  0  0  0  0  0  0
   -1.3930   11.6720   12.3880   F 0  0  0  0  0  0  0  0  0  0  0  0
   -2.1220    9.3960   10.9340   F 0  0  0  0  0  0  0  0  0  0  0  0
  1  2  2  0  0  0  0
  1  6  1  0  0  0  0
  2  3  1  0  0  0  0
  3  4  2  0  0  0  0
  3 11  1  0  0  0  0
  4  5  1  0  0  0  0
  5  6  2  0  0  0  0
  6  7  1  0  0  0  0
  7  8  2  0  0  0  0
  7  9  1  0  0  0  0
  9 10  1  0  0  0  0
 10 15  1  0  0  0  0
 11 12  1  0  0  0  0
 11 13  2  0  0  0  0
 11 14  2  0  0  0  0
 15 16  2  0  0  0  0
 15 20  1  0  0  0  0
 16 17  1  0  0  0  0
 17 18  2  0  0  0  0
 18 19  1  0  0  0  0
 19 20  2  0  0  0  0
 19 21  1  0  0  0  0
 20 22  1  0  0  0  0
A    1
C01
A    2
C02
A    3
C03
A    4
C04
A    5
C05
A    6
C06
A    7
C07
A    8
O08
A    9
N09
A   10
C10
A   11
S11
A   12
NP2
A   13
O13
A   14
O14
A   15
C15
A   16
C16
A   17
C17
A   18
C18
A   19
C19
A   20
C20
A   21
F21
A   22
F22
M  END
>  <InstanceId>
1G52_F2B_A_555

>  <ChemCompId>
F2B

>  <PdbId>
1G52

>  <ChainId>
A

>  <ResidueNumber>
555

>  <InsertionCode>


>  <Model>
1

>  <AltIds>


>  <MissingHeavyAtoms>
0

>  <ObservedFormula>
C14 N2 O3 S F2

>  <Name>
N-(2,3-DIFLUORO-BENZYL)-4-SULFAMOYL-BENZAMIDE

>  <SystematicName>
N-[(2,3-difluorophenyl)methyl]-4-sulfamoyl-benzamide

>  <Synonyms>


>  <Type>
NON-POLYMER

>  <Formula>
C14 H12 F2 N2 O3 S

>  <MolecularWeight>
326.318

>  <ModifiedDate>
2011-06-04

>  <Parent>


>  <OneLetterCode>


>  <SubcomponentList>


>  <AmbiguousFlag>
N

>  <InChI>
InChI=1S/C14H12F2N2O3S/c15-12-3-1-2-10(13(12)16)8-18-14(19)9-4-6-11(7-5-9)22(17,20)21/h1-7H,8H2,(H,18,19)(H2,17,20,21)

>  <InChIKey>
QASSMVGOSBNFQY-UHFFFAOYSA-N

>  <SMILES>
c1cc(c(c(c1)F)F)CNC(=O)c2ccc(cc2)S(=O)(=O)N

$$$$
