2UY0_HV1_B_1200


 53 56  0  0  0  0  0  0  0  0999 V2000
   13.3360   24.3522    4.9253 C   0  0  0  0  0  0  0  0  0  0  0  0
   10.9027   23.8139    4.5420 N   0  0  0  0  0  0  0  0  0  0  0  0
   12.6965   22.7887    3.3940 O   0  0  0  0  0  0  0  0  0  0  0  0
   12.2457   23.6071    4.2303 C   0  0  0  0  0  0  0  0  0  0  0  0
   10.4076   24.9208    5.0590 N   0  0  0  0  0  0  0  0  0  0  0  0
    9.8939   24.8194    6.2962 C   0  0  0  0  0  0  0  0  0  0  0  0
    9.8839   23.7338    6.9114 O   0  0  0  0  0  0  0  0  0  0  0  0
   10.4139   25.7733    4.5665 H   0  0  0  0  0  0  0  0  0  0  0  0
    9.3691   26.1085    6.7998 C   0  0  0  0  0  0  0  0  0  0  0  0
    7.9634   26.2416    6.3621 N   0  0  0  0  0  0  0  0  0  0  0  0
    7.6031   26.8736    5.2471 C   0  0  0  0  0  0  0  0  0  0  0  0
    8.3436   27.4285    4.4355 O   0  0  0  0  0  0  0  0  0  0  0  0
    7.2589   25.8433    6.9227 H   0  0  0  0  0  0  0  0  0  0  0  0
    5.3960   26.9830    6.3101 C   0  0  0  0  0  0  0  0  0  0  0  0
    6.1971   26.8122    5.1256 O   0  0  0  0  0  0  0  0  0  0  0  0
    9.3124   26.3267    8.3810 C   0  0  0  0  0  0  0  0  0  0  0  0
   10.6601   26.1660    9.1353 C   0  0  0  0  0  0  0  0  0  0  0  0
    8.7860   27.7286    8.6409 C   0  0  0  0  0  0  0  0  0  0  0  0
    8.3441   25.3179    9.0679 C   0  0  0  0  0  0  0  0  0  0  0  0
   10.2394   23.2865    3.3113 C   0  0  0  0  0  0  0  0  0  0  0  0
    9.0256   23.9646    2.8022 C   0  0  0  0  0  0  0  0  0  0  0  0
    9.0936   25.0084    1.8556 C   0  0  0  0  0  0  0  0  0  0  0  0
    7.9074   25.6138    1.4232 C   0  0  0  0  0  0  0  0  0  0  0  0
    6.6845   25.1615    1.9507 C   0  0  0  0  0  0  0  0  0  0  0  0
    4.9958   25.8566    1.5096 Br  0  0  0  0  0  0  0  0  0  0  0  0
    6.6717   24.1068    2.8983 C   0  0  0  0  0  0  0  0  0  0  0  0
    7.8470   23.5112    3.3207 C   0  0  0  0  0  0  0  0  0  0  0  0
   13.5091   23.8372    6.3648 C   0  0  0  0  0  0  0  0  0  0  0  0
   14.7051   22.8513    6.5192 C   0  0  0  0  0  0  0  0  0  0  0  0
   15.8340   23.5832    5.9571 O   0  0  0  0  0  0  0  0  0  0  0  0
   15.8629   24.4750    6.3376 H   0  0  0  0  0  0  0  0  0  0  0  0
   14.5625   21.3731    5.9633 C   0  0  0  0  0  0  0  0  0  0  0  0
   13.6069   20.5947    6.0954 O   0  0  0  0  0  0  0  0  0  0  0  0
   15.7800   20.9872    5.4620 N   0  0  0  0  0  0  0  0  0  0  0  0
   16.4996   21.6503    5.3540 H   0  0  0  0  0  0  0  0  0  0  0  0
   16.0189   19.5416    5.0741 C   0  0  0  0  0  0  0  0  0  0  0  0
   15.7875   19.1854    3.6614 C   0  0  0  0  0  0  0  0  0  0  0  0
   14.7825   19.6558    2.6974 C   0  0  0  0  0  0  0  0  0  0  0  0
   14.8223   19.0935    1.3390 C   0  0  0  0  0  0  0  0  0  0  0  0
   15.8450   18.0950    0.9821 C   0  0  0  0  0  0  0  0  0  0  0  0
   16.8406   17.6388    1.9699 C   0  0  0  0  0  0  0  0  0  0  0  0
   16.7866   18.2063    3.3152 C   0  0  0  0  0  0  0  0  0  0  0  0
   17.6890   17.9088    4.5200 C   0  0  0  0  0  0  0  0  0  0  0  0
   17.4679   19.1372    5.4447 C   0  0  0  0  0  0  0  0  0  0  0  0
   18.4626   20.1045    5.0544 O   0  0  0  0  0  0  0  0  0  0  0  0
   18.4076   20.2570    4.0980 H   0  0  0  0  0  0  0  0  0  0  0  0
   14.8863   22.7204    8.0454 C   0  0  0  0  0  0  0  0  0  0  0  0
   15.9719   21.7677    8.5050 C   0  0  0  0  0  0  0  0  0  0  0  0
   15.5637   20.5352    9.0894 C   0  0  0  0  0  0  0  0  0  0  0  0
   16.5545   19.6417    9.5108 C   0  0  0  0  0  0  0  0  0  0  0  0
   17.9013   19.9790    9.3487 C   0  0  0  0  0  0  0  0  0  0  0  0
   18.3233   21.1979    8.7738 C   0  0  0  0  0  0  0  0  0  0  0  0
   17.3415   22.1069    8.3449 C   0  0  0  0  0  0  0  0  0  0  0  0
  1 28  1  0  0  0
  2  5  1  0  0  0
  1  4  1  0  0  0
  2  4  1  0  0  0
  3  4  2  0  0  0
  5  6  1  0  0  0
 14 15  1  0  0  0
 10 11  1  0  0  0
 15 11  1  0  0  0
 11 12  2  0  0  0
 10  9  1  0  0  0
  6  9  1  0  0  0
  9 16  1  0  0  0
 16 17  1  0  0  0
 16 18  1  0  0  0
 16 19  1  0  0  0
  6  7  2  0  0  0
  2 20  1  0  0  0
 20 21  1  0  0  0
 21 22  1  0  0  0
 22 23  2  0  0  0
 23 24  1  0  0  0
 24 25  1  0  0  0
 24 26  2  0  0  0
 21 27  2  0  0  0
 26 27  1  0  0  0
 28 29  1  0  0  0
 29 30  1  0  0  0
 29 47  1  0  0  0
 47 48  1  0  0  0
 48 49  1  0  0  0
 49 50  2  0  0  0
 50 51  1  0  0  0
 51 52  2  0  0  0
 48 53  2  0  0  0
 52 53  1  0  0  0
 29 32  1  0  0  0
 32 33  2  0  0  0
 32 34  1  0  0  0
 34 36  1  0  0  0
 36 37  1  0  0  0
 37 38  1  0  0  0
 38 39  2  0  0  0
 39 40  1  0  0  0
 40 41  2  0  0  0
 37 42  2  0  0  0
 41 42  1  0  0  0
 42 43  1  0  0  0
 36 44  1  0  0  0
 43 44  1  0  0  0
 44 45  1  0  0  0
  5  8  1  0  0  0
 10 13  1  0  0  0
 30 31  1  0  0  0
 34 35  1  0  0  0
 45 46  1  0  0  0
M  END
> <minimizedAffinity>
-12.42346

$$$$
2UY0_HV1_B_1200


 53 56  0  0  0  0  0  0  0  0999 V2000
   14.1927   23.2505    4.2842 C   0  0  0  0  0  0  0  0  0  0  0  0
   15.2435   21.9199    6.1505 N   0  0  0  0  0  0  0  0  0  0  0  0
   14.0749   23.9525    6.4502 O   0  0  0  0  0  0  0  0  0  0  0  0
   14.5312   23.0392    5.7221 C   0  0  0  0  0  0  0  0  0  0  0  0
   16.0752   21.2209    5.4040 N   0  0  0  0  0  0  0  0  0  0  0  0
   15.6574   19.9980    5.0367 C   0  0  0  0  0  0  0  0  0  0  0  0
   14.5467   19.5540    5.3918 O   0  0  0  0  0  0  0  0  0  0  0  0
   16.9524   21.5747    5.1312 H   0  0  0  0  0  0  0  0  0  0  0  0
   16.6482   19.2891    4.1960 C   0  0  0  0  0  0  0  0  0  0  0  0
   17.2927   18.2431    5.0182 N   0  0  0  0  0  0  0  0  0  0  0  0
   18.2521   18.4999    5.9047 C   0  0  0  0  0  0  0  0  0  0  0  0
   18.7415   19.5970    6.1727 O   0  0  0  0  0  0  0  0  0  0  0  0
   16.9978   17.3107    4.9046 H   0  0  0  0  0  0  0  0  0  0  0  0
   18.5145   16.0659    5.7632 C   0  0  0  0  0  0  0  0  0  0  0  0
   18.6407   17.2872    6.5160 O   0  0  0  0  0  0  0  0  0  0  0  0
   16.1148   18.5070    2.9096 C   0  0  0  0  0  0  0  0  0  0  0  0
   14.8959   19.1430    2.1878 C   0  0  0  0  0  0  0  0  0  0  0  0
   17.2592   18.4089    1.9142 C   0  0  0  0  0  0  0  0  0  0  0  0
   15.6627   17.0583    3.2620 C   0  0  0  0  0  0  0  0  0  0  0  0
   15.7564   22.3959    7.4707 C   0  0  0  0  0  0  0  0  0  0  0  0
   16.4706   21.4428    8.3504 C   0  0  0  0  0  0  0  0  0  0  0  0
   17.8369   21.5967    8.6666 C   0  0  0  0  0  0  0  0  0  0  0  0
   18.4540   20.6532    9.4971 C   0  0  0  0  0  0  0  0  0  0  0  0
   17.6896   19.5791    9.9873 C   0  0  0  0  0  0  0  0  0  0  0  0
   18.3400   18.2085   11.0954 Br  0  0  0  0  0  0  0  0  0  0  0  0
   16.3187   19.4725    9.6408 C   0  0  0  0  0  0  0  0  0  0  0  0
   15.7139   20.4087    8.8211 C   0  0  0  0  0  0  0  0  0  0  0  0
   12.8854   22.5230    3.9249 C   0  0  0  0  0  0  0  0  0  0  0  0
   11.6475   23.4682    3.9071 C   0  0  0  0  0  0  0  0  0  0  0  0
   12.1679   24.7124    3.3527 O   0  0  0  0  0  0  0  0  0  0  0  0
   12.6687   24.5216    2.5442 H   0  0  0  0  0  0  0  0  0  0  0  0
   10.8081   23.6645    5.2379 C   0  0  0  0  0  0  0  0  0  0  0  0
   10.5121   22.8128    6.0887 O   0  0  0  0  0  0  0  0  0  0  0  0
   10.2621   24.9231    5.2156 N   0  0  0  0  0  0  0  0  0  0  0  0
   10.5494   25.5714    4.5326 H   0  0  0  0  0  0  0  0  0  0  0  0
    9.2173   25.3169    6.2404 C   0  0  0  0  0  0  0  0  0  0  0  0
    9.7099   25.9121    7.4971 C   0  0  0  0  0  0  0  0  0  0  0  0
   10.9099   25.6277    8.2968 C   0  0  0  0  0  0  0  0  0  0  0  0
   11.1171   26.4140    9.5223 C   0  0  0  0  0  0  0  0  0  0  0  0
   10.1407   27.4460    9.9122 C   0  0  0  0  0  0  0  0  0  0  0  0
    8.9436   27.7096    9.0922 C   0  0  0  0  0  0  0  0  0  0  0  0
    8.7520   26.9190    7.8785 C   0  0  0  0  0  0  0  0  0  0  0  0
    7.6069   26.9860    6.8594 C   0  0  0  0  0  0  0  0  0  0  0  0
    8.2078   26.3028    5.6004 C   0  0  0  0  0  0  0  0  0  0  0  0
    8.8254   27.3594    4.8391 O   0  0  0  0  0  0  0  0  0  0  0  0
    9.4375   27.8523    5.4077 H   0  0  0  0  0  0  0  0  0  0  0  0
   10.6917   22.8124    2.8894 C   0  0  0  0  0  0  0  0  0  0  0  0
    9.4327   23.5915    2.5648 C   0  0  0  0  0  0  0  0  0  0  0  0
    9.5587   24.7212    1.7074 C   0  0  0  0  0  0  0  0  0  0  0  0
    8.4039   25.4453    1.3920 C   0  0  0  0  0  0  0  0  0  0  0  0
    7.1732   25.0452    1.9203 C   0  0  0  0  0  0  0  0  0  0  0  0
    7.0309   23.9292    2.7740 C   0  0  0  0  0  0  0  0  0  0  0  0
    8.1804   23.1904    3.1011 C   0  0  0  0  0  0  0  0  0  0  0  0
  1 28  1  0  0  0
  2  5  1  0  0  0
  1  4  1  0  0  0
  2  4  1  0  0  0
  3  4  2  0  0  0
  5  6  1  0  0  0
 14 15  1  0  0  0
 10 11  1  0  0  0
 15 11  1  0  0  0
 11 12  2  0  0  0
 10  9  1  0  0  0
  6  9  1  0  0  0
  9 16  1  0  0  0
 16 17  1  0  0  0
 16 18  1  0  0  0
 16 19  1  0  0  0
  6  7  2  0  0  0
  2 20  1  0  0  0
 20 21  1  0  0  0
 21 22  1  0  0  0
 22 23  2  0  0  0
 23 24  1  0  0  0
 24 25  1  0  0  0
 24 26  2  0  0  0
 21 27  2  0  0  0
 26 27  1  0  0  0
 28 29  1  0  0  0
 29 30  1  0  0  0
 29 47  1  0  0  0
 47 48  1  0  0  0
 48 49  1  0  0  0
 49 50  2  0  0  0
 50 51  1  0  0  0
 51 52  2  0  0  0
 48 53  2  0  0  0
 52 53  1  0  0  0
 29 32  1  0  0  0
 32 33  2  0  0  0
 32 34  1  0  0  0
 34 36  1  0  0  0
 36 37  1  0  0  0
 37 38  1  0  0  0
 38 39  2  0  0  0
 39 40  1  0  0  0
 40 41  2  0  0  0
 37 42  2  0  0  0
 41 42  1  0  0  0
 42 43  1  0  0  0
 36 44  1  0  0  0
 43 44  1  0  0  0
 44 45  1  0  0  0
  5  8  1  0  0  0
 10 13  1  0  0  0
 30 31  1  0  0  0
 34 35  1  0  0  0
 45 46  1  0  0  0
M  END
> <minimizedAffinity>
-11.25741

$$$$
2UY0_HV1_B_1200


 53 56  0  0  0  0  0  0  0  0999 V2000
   11.0581   23.6609    4.8877 C   0  0  0  0  0  0  0  0  0  0  0  0
    8.7771   24.5971    4.3602 N   0  0  0  0  0  0  0  0  0  0  0  0
   10.4809   24.2444    2.7605 O   0  0  0  0  0  0  0  0  0  0  0  0
   10.0485   24.2123    3.9371 C   0  0  0  0  0  0  0  0  0  0  0  0
    8.4696   24.9765    5.5846 N   0  0  0  0  0  0  0  0  0  0  0  0
    8.6267   26.2825    5.8577 C   0  0  0  0  0  0  0  0  0  0  0  0
    9.0469   27.0829    4.9976 O   0  0  0  0  0  0  0  0  0  0  0  0
    8.1433   24.3392    6.2604 H   0  0  0  0  0  0  0  0  0  0  0  0
    8.2514   26.6200    7.2492 C   0  0  0  0  0  0  0  0  0  0  0  0
    6.8446   26.2188    7.4621 N   0  0  0  0  0  0  0  0  0  0  0  0
    5.8307   27.0816    7.4546 C   0  0  0  0  0  0  0  0  0  0  0  0
    5.8923   28.2985    7.2808 O   0  0  0  0  0  0  0  0  0  0  0  0
    6.6477   25.2667    7.6171 H   0  0  0  0  0  0  0  0  0  0  0  0
    3.3930   27.1081    7.7194 C   0  0  0  0  0  0  0  0  0  0  0  0
    4.6305   26.3724    7.6823 O   0  0  0  0  0  0  0  0  0  0  0  0
    9.0493   25.9048    8.4337 C   0  0  0  0  0  0  0  0  0  0  0  0
   10.4742   25.3984    8.0810 C   0  0  0  0  0  0  0  0  0  0  0  0
    9.1665   26.8935    9.5821 C   0  0  0  0  0  0  0  0  0  0  0  0
    8.2945   24.6480    8.9607 C   0  0  0  0  0  0  0  0  0  0  0  0
    8.3690   25.5071    3.2475 C   0  0  0  0  0  0  0  0  0  0  0  0
    7.0661   25.2864    2.5797 C   0  0  0  0  0  0  0  0  0  0  0  0
    6.1346   24.3382    3.0525 C   0  0  0  0  0  0  0  0  0  0  0  0
    4.9244   24.1725    2.3678 C   0  0  0  0  0  0  0  0  0  0  0  0
    4.6786   24.9573    1.2268 C   0  0  0  0  0  0  0  0  0  0  0  0
    3.1286   24.8680    0.1689 Br  0  0  0  0  0  0  0  0  0  0  0  0
    5.6477   25.8981    0.7951 C   0  0  0  0  0  0  0  0  0  0  0  0
    6.8411   26.0585    1.4767 C   0  0  0  0  0  0  0  0  0  0  0  0
   12.4612   24.1985    4.5565 C   0  0  0  0  0  0  0  0  0  0  0  0
   13.6047   23.3153    5.1382 C   0  0  0  0  0  0  0  0  0  0  0  0
   14.8173   23.9088    4.5872 O   0  0  0  0  0  0  0  0  0  0  0  0
   14.8000   24.8684    4.7273 H   0  0  0  0  0  0  0  0  0  0  0  0
   13.5282   21.7412    4.9629 C   0  0  0  0  0  0  0  0  0  0  0  0
   12.6324   20.9718    5.3400 O   0  0  0  0  0  0  0  0  0  0  0  0
   14.7402   21.3058    4.4896 N   0  0  0  0  0  0  0  0  0  0  0  0
   15.4095   21.9576    4.1790 H   0  0  0  0  0  0  0  0  0  0  0  0
   15.0506   19.8229    4.4442 C   0  0  0  0  0  0  0  0  0  0  0  0
   15.2547   19.2270    3.1103 C   0  0  0  0  0  0  0  0  0  0  0  0
   14.6058   19.4990    1.8197 C   0  0  0  0  0  0  0  0  0  0  0  0
   15.0462   18.7170    0.6547 C   0  0  0  0  0  0  0  0  0  0  0  0
   16.1040   17.7023    0.8027 C   0  0  0  0  0  0  0  0  0  0  0  0
   16.7370   17.4479    2.1102 C   0  0  0  0  0  0  0  0  0  0  0  0
   16.2872   18.2325    3.2578 C   0  0  0  0  0  0  0  0  0  0  0  0
   16.7689   18.1685    4.7132 C   0  0  0  0  0  0  0  0  0  0  0  0
   16.3056   19.5285    5.3037 C   0  0  0  0  0  0  0  0  0  0  0  0
   17.3957   20.4442    5.0790 O   0  0  0  0  0  0  0  0  0  0  0  0
   17.6405   20.4315    4.1405 H   0  0  0  0  0  0  0  0  0  0  0  0
   13.5465   23.5815    6.6564 C   0  0  0  0  0  0  0  0  0  0  0  0
   14.5160   22.7852    7.5069 C   0  0  0  0  0  0  0  0  0  0  0  0
   13.9681   21.8728    8.4527 C   0  0  0  0  0  0  0  0  0  0  0  0
   14.8507   21.1245    9.2392 C   0  0  0  0  0  0  0  0  0  0  0  0
   16.2291   21.2907    9.0772 C   0  0  0  0  0  0  0  0  0  0  0  0
   16.7891   22.1929    8.1461 C   0  0  0  0  0  0  0  0  0  0  0  0
   15.9172   22.9524    7.3479 C   0  0  0  0  0  0  0  0  0  0  0  0
  1 28  1  0  0  0
  2  5  1  0  0  0
  1  4  1  0  0  0
  2  4  1  0  0  0
  3  4  2  0  0  0
  5  6  1  0  0  0
 14 15  1  0  0  0
 10 11  1  0  0  0
 15 11  1  0  0  0
 11 12  2  0  0  0
 10  9  1  0  0  0
  6  9  1  0  0  0
  9 16  1  0  0  0
 16 17  1  0  0  0
 16 18  1  0  0  0
 16 19  1  0  0  0
  6  7  2  0  0  0
  2 20  1  0  0  0
 20 21  1  0  0  0
 21 22  1  0  0  0
 22 23  2  0  0  0
 23 24  1  0  0  0
 24 25  1  0  0  0
 24 26  2  0  0  0
 21 27  2  0  0  0
 26 27  1  0  0  0
 28 29  1  0  0  0
 29 30  1  0  0  0
 29 47  1  0  0  0
 47 48  1  0  0  0
 48 49  1  0  0  0
 49 50  2  0  0  0
 50 51  1  0  0  0
 51 52  2  0  0  0
 48 53  2  0  0  0
 52 53  1  0  0  0
 29 32  1  0  0  0
 32 33  2  0  0  0
 32 34  1  0  0  0
 34 36  1  0  0  0
 36 37  1  0  0  0
 37 38  1  0  0  0
 38 39  2  0  0  0
 39 40  1  0  0  0
 40 41  2  0  0  0
 37 42  2  0  0  0
 41 42  1  0  0  0
 42 43  1  0  0  0
 36 44  1  0  0  0
 43 44  1  0  0  0
 44 45  1  0  0  0
  5  8  1  0  0  0
 10 13  1  0  0  0
 30 31  1  0  0  0
 34 35  1  0  0  0
 45 46  1  0  0  0
M  END
> <minimizedAffinity>
-10.62135

$$$$
2UY0_HV1_B_1200


 53 56  0  0  0  0  0  0  0  0999 V2000
   12.5368   21.7069    3.2910 C   0  0  0  0  0  0  0  0  0  0  0  0
   14.6941   20.4041    3.3722 N   0  0  0  0  0  0  0  0  0  0  0  0
   13.3338   20.6210    1.4514 O   0  0  0  0  0  0  0  0  0  0  0  0
   13.5800   20.8462    2.6601 C   0  0  0  0  0  0  0  0  0  0  0  0
   14.7458   20.2560    4.6810 N   0  0  0  0  0  0  0  0  0  0  0  0
   15.2218   21.3014    5.3777 C   0  0  0  0  0  0  0  0  0  0  0  0
   15.5978   22.3470    4.8099 O   0  0  0  0  0  0  0  0  0  0  0  0
   14.4523   19.4266    5.1228 H   0  0  0  0  0  0  0  0  0  0  0  0
   15.2368   21.0511    6.8365 C   0  0  0  0  0  0  0  0  0  0  0  0
   16.6193   21.2361    7.3263 N   0  0  0  0  0  0  0  0  0  0  0  0
   17.6031   20.3746    7.0768 C   0  0  0  0  0  0  0  0  0  0  0  0
   17.5292   19.3294    6.4310 O   0  0  0  0  0  0  0  0  0  0  0  0
   16.8225   22.0358    7.8634 H   0  0  0  0  0  0  0  0  0  0  0  0
   18.6894   21.5166    8.9553 C   0  0  0  0  0  0  0  0  0  0  0  0
   18.7872   20.8514    7.6818 O   0  0  0  0  0  0  0  0  0  0  0  0
   14.3572   22.0047    7.7682 C   0  0  0  0  0  0  0  0  0  0  0  0
   14.8476   23.4730    7.8890 C   0  0  0  0  0  0  0  0  0  0  0  0
   12.9409   22.0200    7.2169 C   0  0  0  0  0  0  0  0  0  0  0  0
   14.2936   21.4799    9.2337 C   0  0  0  0  0  0  0  0  0  0  0  0
   15.1186   19.2365    2.5420 C   0  0  0  0  0  0  0  0  0  0  0  0
   16.1815   18.3407    3.0519 C   0  0  0  0  0  0  0  0  0  0  0  0
   17.5219   18.4526    2.6261 C   0  0  0  0  0  0  0  0  0  0  0  0
   18.4761   17.5666    3.1409 C   0  0  0  0  0  0  0  0  0  0  0  0
   18.0647   16.5901    4.0658 C   0  0  0  0  0  0  0  0  0  0  0  0
   19.1887   15.3062    4.8517 Br  0  0  0  0  0  0  0  0  0  0  0  0
   16.7050   16.5223    4.4625 C   0  0  0  0  0  0  0  0  0  0  0  0
   15.7668   17.4016    3.9517 C   0  0  0  0  0  0  0  0  0  0  0  0
   11.5027   22.1565    2.2441 C   0  0  0  0  0  0  0  0  0  0  0  0
   10.6417   23.3647    2.7185 C   0  0  0  0  0  0  0  0  0  0  0  0
   11.4264   24.5280    2.3221 O   0  0  0  0  0  0  0  0  0  0  0  0
   11.6976   24.4346    1.3955 H   0  0  0  0  0  0  0  0  0  0  0  0
   10.1441   23.4133    4.2232 C   0  0  0  0  0  0  0  0  0  0  0  0
    9.7886   22.4684    4.9427 O   0  0  0  0  0  0  0  0  0  0  0  0
    9.9651   24.7286    4.5706 N   0  0  0  0  0  0  0  0  0  0  0  0
   10.2879   25.4425    3.9746 H   0  0  0  0  0  0  0  0  0  0  0  0
    9.2712   25.0841    5.8703 C   0  0  0  0  0  0  0  0  0  0  0  0
   10.1369   25.4404    7.0103 C   0  0  0  0  0  0  0  0  0  0  0  0
   11.4454   24.9194    7.4312 C   0  0  0  0  0  0  0  0  0  0  0  0
   12.0563   25.4987    8.6369 C   0  0  0  0  0  0  0  0  0  0  0  0
   11.3604   26.5644    9.3790 C   0  0  0  0  0  0  0  0  0  0  0  0
   10.0468   27.0674    8.9357 C   0  0  0  0  0  0  0  0  0  0  0  0
    9.4531   26.4804    7.7367 C   0  0  0  0  0  0  0  0  0  0  0  0
    8.1128   26.8124    7.0675 C   0  0  0  0  0  0  0  0  0  0  0  0
    8.2829   26.2526    5.6285 C   0  0  0  0  0  0  0  0  0  0  0  0
    8.8348   27.3334    4.8510 O   0  0  0  0  0  0  0  0  0  0  0  0
    9.6309   27.6730    5.2888 H   0  0  0  0  0  0  0  0  0  0  0  0
    9.3707   23.2817    1.8484 C   0  0  0  0  0  0  0  0  0  0  0  0
    8.3976   24.4359    1.9842 C   0  0  0  0  0  0  0  0  0  0  0  0
    7.1622   24.1828    2.6452 C   0  0  0  0  0  0  0  0  0  0  0  0
    6.2573   25.2407    2.7856 C   0  0  0  0  0  0  0  0  0  0  0  0
    6.5864   26.5014    2.2796 C   0  0  0  0  0  0  0  0  0  0  0  0
    7.8058   26.7689    1.6193 C   0  0  0  0  0  0  0  0  0  0  0  0
    8.7263   25.7180    1.4696 C   0  0  0  0  0  0  0  0  0  0  0  0
  1 28  1  0  0  0
  2  5  1  0  0  0
  1  4  1  0  0  0
  2  4  1  0  0  0
  3  4  2  0  0  0
  5  6  1  0  0  0
 14 15  1  0  0  0
 10 11  1  0  0  0
 15 11  1  0  0  0
 11 12  2  0  0  0
 10  9  1  0  0  0
  6  9  1  0  0  0
  9 16  1  0  0  0
 16 17  1  0  0  0
 16 18  1  0  0  0
 16 19  1  0  0  0
  6  7  2  0  0  0
  2 20  1  0  0  0
 20 21  1  0  0  0
 21 22  1  0  0  0
 22 23  2  0  0  0
 23 24  1  0  0  0
 24 25  1  0  0  0
 24 26  2  0  0  0
 21 27  2  0  0  0
 26 27  1  0  0  0
 28 29  1  0  0  0
 29 30  1  0  0  0
 29 47  1  0  0  0
 47 48  1  0  0  0
 48 49  1  0  0  0
 49 50  2  0  0  0
 50 51  1  0  0  0
 51 52  2  0  0  0
 48 53  2  0  0  0
 52 53  1  0  0  0
 29 32  1  0  0  0
 32 33  2  0  0  0
 32 34  1  0  0  0
 34 36  1  0  0  0
 36 37  1  0  0  0
 37 38  1  0  0  0
 38 39  2  0  0  0
 39 40  1  0  0  0
 40 41  2  0  0  0
 37 42  2  0  0  0
 41 42  1  0  0  0
 42 43  1  0  0  0
 36 44  1  0  0  0
 43 44  1  0  0  0
 44 45  1  0  0  0
  5  8  1  0  0  0
 10 13  1  0  0  0
 30 31  1  0  0  0
 34 35  1  0  0  0
 45 46  1  0  0  0
M  END
> <minimizedAffinity>
-10.53492

$$$$
2UY0_HV1_B_1200


 53 56  0  0  0  0  0  0  0  0999 V2000
   13.1045   23.4444    4.8447 C   0  0  0  0  0  0  0  0  0  0  0  0
   14.9193   22.1025    5.9687 N   0  0  0  0  0  0  0  0  0  0  0  0
   13.7771   23.9121    6.9724 O   0  0  0  0  0  0  0  0  0  0  0  0
   13.9956   23.1461    6.0040 C   0  0  0  0  0  0  0  0  0  0  0  0
   15.4545   21.6022    4.8729 N   0  0  0  0  0  0  0  0  0  0  0  0
   15.2296   20.2974    4.6454 C   0  0  0  0  0  0  0  0  0  0  0  0
   14.5568   19.6040    5.4350 O   0  0  0  0  0  0  0  0  0  0  0  0
   15.9887   22.1534    4.2563 H   0  0  0  0  0  0  0  0  0  0  0  0
   15.8592   19.8235    3.3925 C   0  0  0  0  0  0  0  0  0  0  0  0
   16.6635   18.6221    3.7013 N   0  0  0  0  0  0  0  0  0  0  0  0
   17.7615   18.6528    4.4536 C   0  0  0  0  0  0  0  0  0  0  0  0
   18.2677   19.6386    4.9891 O   0  0  0  0  0  0  0  0  0  0  0  0
   16.3729   17.7568    3.3324 H   0  0  0  0  0  0  0  0  0  0  0  0
   18.3743   16.7366    5.8557 C   0  0  0  0  0  0  0  0  0  0  0  0
   18.2796   17.3424    4.5526 O   0  0  0  0  0  0  0  0  0  0  0  0
   14.9004   19.3610    2.2017 C   0  0  0  0  0  0  0  0  0  0  0  0
   14.3303   17.9209    2.3120 C   0  0  0  0  0  0  0  0  0  0  0  0
   13.7324   20.3315    2.1383 C   0  0  0  0  0  0  0  0  0  0  0  0
   15.6297   19.4008    0.8257 C   0  0  0  0  0  0  0  0  0  0  0  0
   15.8604   22.5174    7.0527 C   0  0  0  0  0  0  0  0  0  0  0  0
   16.3576   21.4962    8.0026 C   0  0  0  0  0  0  0  0  0  0  0  0
   15.4939   20.5706    8.6252 C   0  0  0  0  0  0  0  0  0  0  0  0
   16.0284   19.6369    9.5214 C   0  0  0  0  0  0  0  0  0  0  0  0
   17.4120   19.6550    9.7738 C   0  0  0  0  0  0  0  0  0  0  0  0
   18.3095   18.4993   10.9521 Br  0  0  0  0  0  0  0  0  0  0  0  0
   18.2363   20.6052    9.1193 C   0  0  0  0  0  0  0  0  0  0  0  0
   17.7027   21.5244    8.2335 C   0  0  0  0  0  0  0  0  0  0  0  0
   12.2364   24.6810    5.1354 C   0  0  0  0  0  0  0  0  0  0  0  0
   10.7202   24.3458    5.2569 C   0  0  0  0  0  0  0  0  0  0  0  0
   10.6772   23.2861    6.2576 O   0  0  0  0  0  0  0  0  0  0  0  0
   11.1990   23.5508    7.0314 H   0  0  0  0  0  0  0  0  0  0  0  0
    9.8956   24.0164    3.9431 C   0  0  0  0  0  0  0  0  0  0  0  0
    9.9827   23.0166    3.2155 O   0  0  0  0  0  0  0  0  0  0  0  0
    9.1796   25.1348    3.5979 N   0  0  0  0  0  0  0  0  0  0  0  0
    9.1215   25.8934    4.2227 H   0  0  0  0  0  0  0  0  0  0  0  0
    8.4777   25.2042    2.2564 C   0  0  0  0  0  0  0  0  0  0  0  0
    7.0270   24.9370    2.2504 C   0  0  0  0  0  0  0  0  0  0  0  0
    6.2133   23.9970    3.0345 C   0  0  0  0  0  0  0  0  0  0  0  0
    4.7640   23.9750    2.7859 C   0  0  0  0  0  0  0  0  0  0  0  0
    4.1728   24.8750    1.7804 C   0  0  0  0  0  0  0  0  0  0  0  0
    5.0130   25.8073    1.0059 C   0  0  0  0  0  0  0  0  0  0  0  0
    6.4511   25.8159    1.2641 C   0  0  0  0  0  0  0  0  0  0  0  0
    7.5400   26.6735    0.6059 C   0  0  0  0  0  0  0  0  0  0  0  0
    8.7170   26.5948    1.6165 C   0  0  0  0  0  0  0  0  0  0  0  0
    8.5265   27.6970    2.5255 O   0  0  0  0  0  0  0  0  0  0  0  0
    7.6287   27.6631    2.8910 H   0  0  0  0  0  0  0  0  0  0  0  0
   10.0995   25.6308    5.8425 C   0  0  0  0  0  0  0  0  0  0  0  0
   10.0028   25.6914    7.3539 C   0  0  0  0  0  0  0  0  0  0  0  0
    8.7353   25.4247    7.9450 C   0  0  0  0  0  0  0  0  0  0  0  0
    8.6324   25.4687    9.3396 C   0  0  0  0  0  0  0  0  0  0  0  0
    9.7625   25.7694   10.1053 C   0  0  0  0  0  0  0  0  0  0  0  0
   11.0262   26.0390    9.5352 C   0  0  0  0  0  0  0  0  0  0  0  0
   11.1475   25.9990    8.1360 C   0  0  0  0  0  0  0  0  0  0  0  0
  1 28  1  0  0  0
  2  5  1  0  0  0
  1  4  1  0  0  0
  2  4  1  0  0  0
  3  4  2  0  0  0
  5  6  1  0  0  0
 14 15  1  0  0  0
 10 11  1  0  0  0
 15 11  1  0  0  0
 11 12  2  0  0  0
 10  9  1  0  0  0
  6  9  1  0  0  0
  9 16  1  0  0  0
 16 17  1  0  0  0
 16 18  1  0  0  0
 16 19  1  0  0  0
  6  7  2  0  0  0
  2 20  1  0  0  0
 20 21  1  0  0  0
 21 22  1  0  0  0
 22 23  2  0  0  0
 23 24  1  0  0  0
 24 25  1  0  0  0
 24 26  2  0  0  0
 21 27  2  0  0  0
 26 27  1  0  0  0
 28 29  1  0  0  0
 29 30  1  0  0  0
 29 47  1  0  0  0
 47 48  1  0  0  0
 48 49  1  0  0  0
 49 50  2  0  0  0
 50 51  1  0  0  0
 51 52  2  0  0  0
 48 53  2  0  0  0
 52 53  1  0  0  0
 29 32  1  0  0  0
 32 33  2  0  0  0
 32 34  1  0  0  0
 34 36  1  0  0  0
 36 37  1  0  0  0
 37 38  1  0  0  0
 38 39  2  0  0  0
 39 40  1  0  0  0
 40 41  2  0  0  0
 37 42  2  0  0  0
 41 42  1  0  0  0
 42 43  1  0  0  0
 36 44  1  0  0  0
 43 44  1  0  0  0
 44 45  1  0  0  0
  5  8  1  0  0  0
 10 13  1  0  0  0
 30 31  1  0  0  0
 34 35  1  0  0  0
 45 46  1  0  0  0
M  END
> <minimizedAffinity>
-10.32048

$$$$
2UY0_HV1_B_1200


 53 56  0  0  0  0  0  0  0  0999 V2000
   12.7247   23.5239    5.0830 C   0  0  0  0  0  0  0  0  0  0  0  0
   10.4227   23.9991    4.1704 N   0  0  0  0  0  0  0  0  0  0  0  0
   12.0185   22.6093    3.1175 O   0  0  0  0  0  0  0  0  0  0  0  0
   11.6614   23.3714    4.0471 C   0  0  0  0  0  0  0  0  0  0  0  0
   10.1969   25.0981    4.8623 N   0  0  0  0  0  0  0  0  0  0  0  0
    9.6813   24.9296    6.0914 C   0  0  0  0  0  0  0  0  0  0  0  0
    9.4273   23.7941    6.5423 O   0  0  0  0  0  0  0  0  0  0  0  0
   10.3947   25.9915    4.4991 H   0  0  0  0  0  0  0  0  0  0  0  0
    9.4681   26.2127    6.7978 C   0  0  0  0  0  0  0  0  0  0  0  0
    8.0475   26.5945    6.6507 N   0  0  0  0  0  0  0  0  0  0  0  0
    7.5584   27.1793    5.5593 C   0  0  0  0  0  0  0  0  0  0  0  0
    8.1774   27.4877    4.5412 O   0  0  0  0  0  0  0  0  0  0  0  0
    7.4329   26.4071    7.3966 H   0  0  0  0  0  0  0  0  0  0  0  0
    5.6132   27.1804    7.0524 C   0  0  0  0  0  0  0  0  0  0  0  0
    6.1759   27.4018    5.7454 O   0  0  0  0  0  0  0  0  0  0  0  0
    9.7259   26.2511    8.3736 C   0  0  0  0  0  0  0  0  0  0  0  0
   11.1306   25.7828    8.8414 C   0  0  0  0  0  0  0  0  0  0  0  0
    9.5191   27.6806    8.8465 C   0  0  0  0  0  0  0  0  0  0  0  0
    8.7217   25.3430    9.1444 C   0  0  0  0  0  0  0  0  0  0  0  0
    9.9525   23.9840    2.7522 C   0  0  0  0  0  0  0  0  0  0  0  0
    8.5917   24.4777    2.4409 C   0  0  0  0  0  0  0  0  0  0  0  0
    8.3688   25.5313    1.5296 C   0  0  0  0  0  0  0  0  0  0  0  0
    7.0567   25.9564    1.2879 C   0  0  0  0  0  0  0  0  0  0  0  0
    6.0021   25.3186    1.9658 C   0  0  0  0  0  0  0  0  0  0  0  0
    4.1838   25.7567    1.7888 Br  0  0  0  0  0  0  0  0  0  0  0  0
    6.2809   24.2625    2.8700 C   0  0  0  0  0  0  0  0  0  0  0  0
    7.5793   23.8457    3.1036 C   0  0  0  0  0  0  0  0  0  0  0  0
   14.0376   22.8773    4.6080 C   0  0  0  0  0  0  0  0  0  0  0  0
   14.4934   21.6916    5.5094 C   0  0  0  0  0  0  0  0  0  0  0  0
   13.3573   20.7780    5.4833 O   0  0  0  0  0  0  0  0  0  0  0  0
   13.0779   20.6356    4.5654 H   0  0  0  0  0  0  0  0  0  0  0  0
   15.0342   21.9959    6.9686 C   0  0  0  0  0  0  0  0  0  0  0  0
   15.0010   23.0688    7.5888 O   0  0  0  0  0  0  0  0  0  0  0  0
   15.7546   20.9075    7.3917 N   0  0  0  0  0  0  0  0  0  0  0  0
   15.7280   20.0697    6.8753 H   0  0  0  0  0  0  0  0  0  0  0  0
   16.5911   20.9928    8.6526 C   0  0  0  0  0  0  0  0  0  0  0  0
   16.7827   19.7410    9.4093 C   0  0  0  0  0  0  0  0  0  0  0  0
   15.8760   18.6104    9.6542 C   0  0  0  0  0  0  0  0  0  0  0  0
   16.3811   17.4920   10.4647 C   0  0  0  0  0  0  0  0  0  0  0  0
   17.7531   17.5279   11.0004 C   0  0  0  0  0  0  0  0  0  0  0  0
   18.6415   18.6762   10.7410 C   0  0  0  0  0  0  0  0  0  0  0  0
   18.1239   19.7796    9.9351 C   0  0  0  0  0  0  0  0  0  0  0  0
   18.8269   21.0795    9.5222 C   0  0  0  0  0  0  0  0  0  0  0  0
   17.9873   21.5713    8.3113 C   0  0  0  0  0  0  0  0  0  0  0  0
   18.5964   20.9794    7.1468 O   0  0  0  0  0  0  0  0  0  0  0  0
   18.6694   20.0203    7.2723 H   0  0  0  0  0  0  0  0  0  0  0  0
   15.6729   21.0668    4.7361 C   0  0  0  0  0  0  0  0  0  0  0  0
   15.3018   20.1144    3.6169 C   0  0  0  0  0  0  0  0  0  0  0  0
   16.0176   18.8866    3.5312 C   0  0  0  0  0  0  0  0  0  0  0  0
   15.6806   17.9935    2.5083 C   0  0  0  0  0  0  0  0  0  0  0  0
   14.6630   18.3265    1.6096 C   0  0  0  0  0  0  0  0  0  0  0  0
   13.9452   19.5407    1.6787 C   0  0  0  0  0  0  0  0  0  0  0  0
   14.2706   20.4493    2.6998 C   0  0  0  0  0  0  0  0  0  0  0  0
  1 28  1  0  0  0
  2  5  1  0  0  0
  1  4  1  0  0  0
  2  4  1  0  0  0
  3  4  2  0  0  0
  5  6  1  0  0  0
 14 15  1  0  0  0
 10 11  1  0  0  0
 15 11  1  0  0  0
 11 12  2  0  0  0
 10  9  1  0  0  0
  6  9  1  0  0  0
  9 16  1  0  0  0
 16 17  1  0  0  0
 16 18  1  0  0  0
 16 19  1  0  0  0
  6  7  2  0  0  0
  2 20  1  0  0  0
 20 21  1  0  0  0
 21 22  1  0  0  0
 22 23  2  0  0  0
 23 24  1  0  0  0
 24 25  1  0  0  0
 24 26  2  0  0  0
 21 27  2  0  0  0
 26 27  1  0  0  0
 28 29  1  0  0  0
 29 30  1  0  0  0
 29 47  1  0  0  0
 47 48  1  0  0  0
 48 49  1  0  0  0
 49 50  2  0  0  0
 50 51  1  0  0  0
 51 52  2  0  0  0
 48 53  2  0  0  0
 52 53  1  0  0  0
 29 32  1  0  0  0
 32 33  2  0  0  0
 32 34  1  0  0  0
 34 36  1  0  0  0
 36 37  1  0  0  0
 37 38  1  0  0  0
 38 39  2  0  0  0
 39 40  1  0  0  0
 40 41  2  0  0  0
 37 42  2  0  0  0
 41 42  1  0  0  0
 42 43  1  0  0  0
 36 44  1  0  0  0
 43 44  1  0  0  0
 44 45  1  0  0  0
  5  8  1  0  0  0
 10 13  1  0  0  0
 30 31  1  0  0  0
 34 35  1  0  0  0
 45 46  1  0  0  0
M  END
> <minimizedAffinity>
-10.26798

$$$$
2UY0_HV1_B_1200


 53 56  0  0  0  0  0  0  0  0999 V2000
   12.0956   24.7052    5.2816 C   0  0  0  0  0  0  0  0  0  0  0  0
   13.2325   22.6655    4.3304 N   0  0  0  0  0  0  0  0  0  0  0  0
   11.7493   24.0551    3.1238 O   0  0  0  0  0  0  0  0  0  0  0  0
   12.3636   23.7441    4.1718 C   0  0  0  0  0  0  0  0  0  0  0  0
   13.5209   22.0887    5.4801 N   0  0  0  0  0  0  0  0  0  0  0  0
   14.6395   22.5122    6.0918 C   0  0  0  0  0  0  0  0  0  0  0  0
   15.3625   23.3968    5.5901 O   0  0  0  0  0  0  0  0  0  0  0  0
   12.9491   21.3876    5.8684 H   0  0  0  0  0  0  0  0  0  0  0  0
   14.8808   21.8178    7.3765 C   0  0  0  0  0  0  0  0  0  0  0  0
   16.2243   21.2028    7.3281 N   0  0  0  0  0  0  0  0  0  0  0  0
   16.5444   20.0958    7.9948 C   0  0  0  0  0  0  0  0  0  0  0  0
   15.8123   19.4335    8.7297 O   0  0  0  0  0  0  0  0  0  0  0  0
   16.9163   21.6330    6.7755 H   0  0  0  0  0  0  0  0  0  0  0  0
   18.1916   18.9254    6.6055 C   0  0  0  0  0  0  0  0  0  0  0  0
   17.8947   19.7797    7.7263 O   0  0  0  0  0  0  0  0  0  0  0  0
   14.8970   22.6965    8.7103 C   0  0  0  0  0  0  0  0  0  0  0  0
   14.5022   21.9535   10.0153 C   0  0  0  0  0  0  0  0  0  0  0  0
   16.3001   23.2538    8.8860 C   0  0  0  0  0  0  0  0  0  0  0  0
   13.9127   23.9007    8.6194 C   0  0  0  0  0  0  0  0  0  0  0  0
   12.7849   21.7725    3.2191 C   0  0  0  0  0  0  0  0  0  0  0  0
   13.6776   20.6793    2.7716 C   0  0  0  0  0  0  0  0  0  0  0  0
   14.7625   20.2319    3.5547 C   0  0  0  0  0  0  0  0  0  0  0  0
   15.5739   19.1999    3.0676 C   0  0  0  0  0  0  0  0  0  0  0  0
   15.2810   18.6442    1.8091 C   0  0  0  0  0  0  0  0  0  0  0  0
   16.2594   17.2704    0.9817 Br  0  0  0  0  0  0  0  0  0  0  0  0
   14.1767   19.1291    1.0633 C   0  0  0  0  0  0  0  0  0  0  0  0
   13.3775   20.1480    1.5505 C   0  0  0  0  0  0  0  0  0  0  0  0
   11.1274   24.0894    6.3068 C   0  0  0  0  0  0  0  0  0  0  0  0
    9.6425   24.4887    6.0582 C   0  0  0  0  0  0  0  0  0  0  0  0
    8.9349   23.9260    7.2022 O   0  0  0  0  0  0  0  0  0  0  0  0
    9.3938   24.1738    8.0201 H   0  0  0  0  0  0  0  0  0  0  0  0
    8.9747   24.1435    4.6621 C   0  0  0  0  0  0  0  0  0  0  0  0
    8.8896   23.0385    4.1068 O   0  0  0  0  0  0  0  0  0  0  0  0
    8.6652   25.3237    4.0344 N   0  0  0  0  0  0  0  0  0  0  0  0
    8.7260   26.1734    4.5279 H   0  0  0  0  0  0  0  0  0  0  0  0
    8.2300   25.3214    2.5826 C   0  0  0  0  0  0  0  0  0  0  0  0
    6.7986   25.0823    2.3181 C   0  0  0  0  0  0  0  0  0  0  0  0
    5.8237   24.2096    2.9878 C   0  0  0  0  0  0  0  0  0  0  0  0
    4.4468   24.1996    2.4713 C   0  0  0  0  0  0  0  0  0  0  0  0
    4.0827   25.0453    1.3212 C   0  0  0  0  0  0  0  0  0  0  0  0
    5.0815   25.9104    0.6663 C   0  0  0  0  0  0  0  0  0  0  0  0
    6.4452   25.9078    1.1909 C   0  0  0  0  0  0  0  0  0  0  0  0
    7.6641   26.7010    0.7015 C   0  0  0  0  0  0  0  0  0  0  0  0
    8.6277   26.6639    1.9192 C   0  0  0  0  0  0  0  0  0  0  0  0
    8.3041   27.8249    2.7096 O   0  0  0  0  0  0  0  0  0  0  0  0
    7.3530   27.8315    2.9001 H   0  0  0  0  0  0  0  0  0  0  0  0
    9.6472   26.0276    6.1632 C   0  0  0  0  0  0  0  0  0  0  0  0
    9.3891   26.5989    7.5432 C   0  0  0  0  0  0  0  0  0  0  0  0
   10.4489   26.5358    8.4919 C   0  0  0  0  0  0  0  0  0  0  0  0
   10.2284   27.0667    9.7675 C   0  0  0  0  0  0  0  0  0  0  0  0
    8.9894   27.6376   10.0721 C   0  0  0  0  0  0  0  0  0  0  0  0
    7.9270   27.7060    9.1441 C   0  0  0  0  0  0  0  0  0  0  0  0
    8.1312   27.1776    7.8583 C   0  0  0  0  0  0  0  0  0  0  0  0
  1 28  1  0  0  0
  2  5  1  0  0  0
  1  4  1  0  0  0
  2  4  1  0  0  0
  3  4  2  0  0  0
  5  6  1  0  0  0
 14 15  1  0  0  0
 10 11  1  0  0  0
 15 11  1  0  0  0
 11 12  2  0  0  0
 10  9  1  0  0  0
  6  9  1  0  0  0
  9 16  1  0  0  0
 16 17  1  0  0  0
 16 18  1  0  0  0
 16 19  1  0  0  0
  6  7  2  0  0  0
  2 20  1  0  0  0
 20 21  1  0  0  0
 21 22  1  0  0  0
 22 23  2  0  0  0
 23 24  1  0  0  0
 24 25  1  0  0  0
 24 26  2  0  0  0
 21 27  2  0  0  0
 26 27  1  0  0  0
 28 29  1  0  0  0
 29 30  1  0  0  0
 29 47  1  0  0  0
 47 48  1  0  0  0
 48 49  1  0  0  0
 49 50  2  0  0  0
 50 51  1  0  0  0
 51 52  2  0  0  0
 48 53  2  0  0  0
 52 53  1  0  0  0
 29 32  1  0  0  0
 32 33  2  0  0  0
 32 34  1  0  0  0
 34 36  1  0  0  0
 36 37  1  0  0  0
 37 38  1  0  0  0
 38 39  2  0  0  0
 39 40  1  0  0  0
 40 41  2  0  0  0
 37 42  2  0  0  0
 41 42  1  0  0  0
 42 43  1  0  0  0
 36 44  1  0  0  0
 43 44  1  0  0  0
 44 45  1  0  0  0
  5  8  1  0  0  0
 10 13  1  0  0  0
 30 31  1  0  0  0
 34 35  1  0  0  0
 45 46  1  0  0  0
M  END
> <minimizedAffinity>
-9.98939

$$$$
2UY0_HV1_B_1200


 53 56  0  0  0  0  0  0  0  0999 V2000
   11.6472   23.5723    4.6138 C   0  0  0  0  0  0  0  0  0  0  0  0
    9.7608   24.6755    5.8715 N   0  0  0  0  0  0  0  0  0  0  0  0
   11.5570   23.5268    6.8915 O   0  0  0  0  0  0  0  0  0  0  0  0
   10.9424   23.9358    5.8780 C   0  0  0  0  0  0  0  0  0  0  0  0
    8.9048   24.7257    4.8703 N   0  0  0  0  0  0  0  0  0  0  0  0
    8.4039   25.9377    4.5786 C   0  0  0  0  0  0  0  0  0  0  0  0
    8.7304   26.9521    5.2278 O   0  0  0  0  0  0  0  0  0  0  0  0
    8.6472   23.9209    4.3651 H   0  0  0  0  0  0  0  0  0  0  0  0
    7.4599   25.9019    3.4392 C   0  0  0  0  0  0  0  0  0  0  0  0
    6.4070   26.9124    3.6751 N   0  0  0  0  0  0  0  0  0  0  0  0
    5.2184   26.6192    4.1983 C   0  0  0  0  0  0  0  0  0  0  0  0
    4.8157   25.5115    4.5527 O   0  0  0  0  0  0  0  0  0  0  0  0
    6.5939   27.8483    3.4334 H   0  0  0  0  0  0  0  0  0  0  0  0
    3.2780   27.8051    5.1157 C   0  0  0  0  0  0  0  0  0  0  0  0
    4.4591   27.8067    4.2918 O   0  0  0  0  0  0  0  0  0  0  0  0
    8.0258   26.2532    1.9875 C   0  0  0  0  0  0  0  0  0  0  0  0
    8.6272   27.6750    1.8211 C   0  0  0  0  0  0  0  0  0  0  0  0
    9.1045   25.2377    1.6479 C   0  0  0  0  0  0  0  0  0  0  0  0
    6.9172   26.1551    0.8972 C   0  0  0  0  0  0  0  0  0  0  0  0
    9.2073   24.3412    7.2186 C   0  0  0  0  0  0  0  0  0  0  0  0
    9.2420   25.3679    8.2849 C   0  0  0  0  0  0  0  0  0  0  0  0
   10.4148   25.6444    9.0189 C   0  0  0  0  0  0  0  0  0  0  0  0
   10.3763   26.6215   10.0211 C   0  0  0  0  0  0  0  0  0  0  0  0
    9.1656   27.2946   10.2650 C   0  0  0  0  0  0  0  0  0  0  0  0
    8.9116   28.6188   11.5732 Br  0  0  0  0  0  0  0  0  0  0  0  0
    8.0162   26.9802    9.4966 C   0  0  0  0  0  0  0  0  0  0  0  0
    8.0606   26.0148    8.5064 C   0  0  0  0  0  0  0  0  0  0  0  0
   13.0475   24.2087    4.5743 C   0  0  0  0  0  0  0  0  0  0  0  0
   14.1587   23.2706    5.1323 C   0  0  0  0  0  0  0  0  0  0  0  0
   15.3919   23.8360    4.5980 O   0  0  0  0  0  0  0  0  0  0  0  0
   15.4080   24.7916    4.7640 H   0  0  0  0  0  0  0  0  0  0  0  0
   14.0275   21.7055    4.9146 C   0  0  0  0  0  0  0  0  0  0  0  0
   13.0561   20.9768    5.1640 O   0  0  0  0  0  0  0  0  0  0  0  0
   15.2653   21.2164    4.5812 N   0  0  0  0  0  0  0  0  0  0  0  0
   15.9982   21.8382    4.3678 H   0  0  0  0  0  0  0  0  0  0  0  0
   15.5063   19.7206    4.5409 C   0  0  0  0  0  0  0  0  0  0  0  0
   15.5634   19.0921    3.2075 C   0  0  0  0  0  0  0  0  0  0  0  0
   14.8131   19.3696    1.9744 C   0  0  0  0  0  0  0  0  0  0  0  0
   15.1125   18.5477    0.7922 C   0  0  0  0  0  0  0  0  0  0  0  0
   16.1348   17.4895    0.8674 C   0  0  0  0  0  0  0  0  0  0  0  0
   16.8717   17.2307    2.1184 C   0  0  0  0  0  0  0  0  0  0  0  0
   16.5614   18.0552    3.2840 C   0  0  0  0  0  0  0  0  0  0  0  0
   17.1693   17.9960    4.6916 C   0  0  0  0  0  0  0  0  0  0  0  0
   16.8200   19.3859    5.2911 C   0  0  0  0  0  0  0  0  0  0  0  0
   17.9237   20.2476    4.9498 O   0  0  0  0  0  0  0  0  0  0  0  0
   18.0820   20.2071    3.9936 H   0  0  0  0  0  0  0  0  0  0  0  0
   14.1078   23.4977    6.6572 C   0  0  0  0  0  0  0  0  0  0  0  0
   14.9743   22.5775    7.4939 C   0  0  0  0  0  0  0  0  0  0  0  0
   16.3780   22.8156    7.4968 C   0  0  0  0  0  0  0  0  0  0  0  0
   17.1900   21.9796    8.2711 C   0  0  0  0  0  0  0  0  0  0  0  0
   16.6084   20.9464    9.0115 C   0  0  0  0  0  0  0  0  0  0  0  0
   15.2188   20.6948    9.0177 C   0  0  0  0  0  0  0  0  0  0  0  0
   14.3885   21.5248    8.2457 C   0  0  0  0  0  0  0  0  0  0  0  0
  1 28  1  0  0  0
  2  5  1  0  0  0
  1  4  1  0  0  0
  2  4  1  0  0  0
  3  4  2  0  0  0
  5  6  1  0  0  0
 14 15  1  0  0  0
 10 11  1  0  0  0
 15 11  1  0  0  0
 11 12  2  0  0  0
 10  9  1  0  0  0
  6  9  1  0  0  0
  9 16  1  0  0  0
 16 17  1  0  0  0
 16 18  1  0  0  0
 16 19  1  0  0  0
  6  7  2  0  0  0
  2 20  1  0  0  0
 20 21  1  0  0  0
 21 22  1  0  0  0
 22 23  2  0  0  0
 23 24  1  0  0  0
 24 25  1  0  0  0
 24 26  2  0  0  0
 21 27  2  0  0  0
 26 27  1  0  0  0
 28 29  1  0  0  0
 29 30  1  0  0  0
 29 47  1  0  0  0
 47 48  1  0  0  0
 48 49  1  0  0  0
 49 50  2  0  0  0
 50 51  1  0  0  0
 51 52  2  0  0  0
 48 53  2  0  0  0
 52 53  1  0  0  0
 29 32  1  0  0  0
 32 33  2  0  0  0
 32 34  1  0  0  0
 34 36  1  0  0  0
 36 37  1  0  0  0
 37 38  1  0  0  0
 38 39  2  0  0  0
 39 40  1  0  0  0
 40 41  2  0  0  0
 37 42  2  0  0  0
 41 42  1  0  0  0
 42 43  1  0  0  0
 36 44  1  0  0  0
 43 44  1  0  0  0
 44 45  1  0  0  0
  5  8  1  0  0  0
 10 13  1  0  0  0
 30 31  1  0  0  0
 34 35  1  0  0  0
 45 46  1  0  0  0
M  END
> <minimizedAffinity>
-9.90342

$$$$
2UY0_HV1_B_1200


 53 56  0  0  0  0  0  0  0  0999 V2000
   11.2832   24.2501    5.0459 C   0  0  0  0  0  0  0  0  0  0  0  0
   12.9331   22.6279    4.0440 N   0  0  0  0  0  0  0  0  0  0  0  0
   11.1900   23.6772    2.8410 O   0  0  0  0  0  0  0  0  0  0  0  0
   11.8254   23.4621    3.9005 C   0  0  0  0  0  0  0  0  0  0  0  0
   13.3172   22.0676    5.1737 N   0  0  0  0  0  0  0  0  0  0  0  0
   14.4073   22.5943    5.7561 C   0  0  0  0  0  0  0  0  0  0  0  0
   15.0195   23.5548    5.2467 O   0  0  0  0  0  0  0  0  0  0  0  0
   12.8329   21.3066    5.5680 H   0  0  0  0  0  0  0  0  0  0  0  0
   14.7611   21.9104    7.0203 C   0  0  0  0  0  0  0  0  0  0  0  0
   16.1592   21.4406    6.9198 N   0  0  0  0  0  0  0  0  0  0  0  0
   16.6020   20.3354    7.5156 C   0  0  0  0  0  0  0  0  0  0  0  0
   15.9542   19.5596    8.2179 O   0  0  0  0  0  0  0  0  0  0  0  0
   16.7940   21.9710    6.3861 H   0  0  0  0  0  0  0  0  0  0  0  0
   18.3360   19.6573    5.9198 C   0  0  0  0  0  0  0  0  0  0  0  0
   17.9726   20.1758    7.2132 O   0  0  0  0  0  0  0  0  0  0  0  0
   14.7283   22.7663    8.3684 C   0  0  0  0  0  0  0  0  0  0  0  0
   13.7906   24.0039    8.3620 C   0  0  0  0  0  0  0  0  0  0  0  0
   14.2930   21.8453    9.4964 C   0  0  0  0  0  0  0  0  0  0  0  0
   16.1356   23.3297    8.7280 C   0  0  0  0  0  0  0  0  0  0  0  0
   12.7663   21.7262    2.8642 C   0  0  0  0  0  0  0  0  0  0  0  0
   13.7478   20.6393    2.6459 C   0  0  0  0  0  0  0  0  0  0  0  0
   14.7552   20.3411    3.5875 C   0  0  0  0  0  0  0  0  0  0  0  0
   15.6578   19.3061    3.3142 C   0  0  0  0  0  0  0  0  0  0  0  0
   15.5312   18.5982    2.1053 C   0  0  0  0  0  0  0  0  0  0  0  0
   16.6520   17.1949    1.5539 Br  0  0  0  0  0  0  0  0  0  0  0  0
   14.4989   18.9368    1.1941 C   0  0  0  0  0  0  0  0  0  0  0  0
   13.6089   19.9594    1.4703 C   0  0  0  0  0  0  0  0  0  0  0  0
    9.7637   24.0434    5.1720 C   0  0  0  0  0  0  0  0  0  0  0  0
    9.0465   25.2227    5.8938 C   0  0  0  0  0  0  0  0  0  0  0  0
    8.3238   24.5761    6.9827 O   0  0  0  0  0  0  0  0  0  0  0  0
    8.9232   23.9818    7.4606 H   0  0  0  0  0  0  0  0  0  0  0  0
    8.1570   26.2214    5.0420 C   0  0  0  0  0  0  0  0  0  0  0  0
    8.3834   27.4107    4.7752 O   0  0  0  0  0  0  0  0  0  0  0  0
    6.9511   25.6146    4.7966 N   0  0  0  0  0  0  0  0  0  0  0  0
    6.8301   24.6599    5.0044 H   0  0  0  0  0  0  0  0  0  0  0  0
    5.8051   26.4115    4.2061 C   0  0  0  0  0  0  0  0  0  0  0  0
    5.0598   25.7836    3.0987 C   0  0  0  0  0  0  0  0  0  0  0  0
    5.5106   24.9269    1.9925 C   0  0  0  0  0  0  0  0  0  0  0  0
    4.4975   24.4548    1.0367 C   0  0  0  0  0  0  0  0  0  0  0  0
    3.0858   24.8410    1.2050 C   0  0  0  0  0  0  0  0  0  0  0  0
    2.6609   25.7037    2.3232 C   0  0  0  0  0  0  0  0  0  0  0  0
    3.6799   26.1651    3.2632 C   0  0  0  0  0  0  0  0  0  0  0  0
    3.5129   27.0626    4.4965 C   0  0  0  0  0  0  0  0  0  0  0  0
    4.7960   26.7762    5.3238 C   0  0  0  0  0  0  0  0  0  0  0  0
    4.4635   25.6755    6.1929 O   0  0  0  0  0  0  0  0  0  0  0  0
    4.1064   24.9437    5.6657 H   0  0  0  0  0  0  0  0  0  0  0  0
   10.2023   26.0643    6.4727 C   0  0  0  0  0  0  0  0  0  0  0  0
   10.0263   26.5386    7.9015 C   0  0  0  0  0  0  0  0  0  0  0  0
    8.9809   27.4690    8.1635 C   0  0  0  0  0  0  0  0  0  0  0  0
    8.8007   27.9096    9.4792 C   0  0  0  0  0  0  0  0  0  0  0  0
    9.6412   27.4304   10.4881 C   0  0  0  0  0  0  0  0  0  0  0  0
   10.6842   26.5098   10.2451 C   0  0  0  0  0  0  0  0  0  0  0  0
   10.8793   26.0567    8.9295 C   0  0  0  0  0  0  0  0  0  0  0  0
  1 28  1  0  0  0
  2  5  1  0  0  0
  1  4  1  0  0  0
  2  4  1  0  0  0
  3  4  2  0  0  0
  5  6  1  0  0  0
 14 15  1  0  0  0
 10 11  1  0  0  0
 15 11  1  0  0  0
 11 12  2  0  0  0
 10  9  1  0  0  0
  6  9  1  0  0  0
  9 16  1  0  0  0
 16 17  1  0  0  0
 16 18  1  0  0  0
 16 19  1  0  0  0
  6  7  2  0  0  0
  2 20  1  0  0  0
 20 21  1  0  0  0
 21 22  1  0  0  0
 22 23  2  0  0  0
 23 24  1  0  0  0
 24 25  1  0  0  0
 24 26  2  0  0  0
 21 27  2  0  0  0
 26 27  1  0  0  0
 28 29  1  0  0  0
 29 30  1  0  0  0
 29 47  1  0  0  0
 47 48  1  0  0  0
 48 49  1  0  0  0
 49 50  2  0  0  0
 50 51  1  0  0  0
 51 52  2  0  0  0
 48 53  2  0  0  0
 52 53  1  0  0  0
 29 32  1  0  0  0
 32 33  2  0  0  0
 32 34  1  0  0  0
 34 36  1  0  0  0
 36 37  1  0  0  0
 37 38  1  0  0  0
 38 39  2  0  0  0
 39 40  1  0  0  0
 40 41  2  0  0  0
 37 42  2  0  0  0
 41 42  1  0  0  0
 42 43  1  0  0  0
 36 44  1  0  0  0
 43 44  1  0  0  0
 44 45  1  0  0  0
  5  8  1  0  0  0
 10 13  1  0  0  0
 30 31  1  0  0  0
 34 35  1  0  0  0
 45 46  1  0  0  0
M  END
> <minimizedAffinity>
-9.78982

$$$$
2UY0_HV1_B_1200


 53 56  0  0  0  0  0  0  0  0999 V2000
   10.1211   24.5744    2.3960 C   0  0  0  0  0  0  0  0  0  0  0  0
   11.9680   22.9205    2.8557 N   0  0  0  0  0  0  0  0  0  0  0  0
   10.0494   22.4561    1.5557 O   0  0  0  0  0  0  0  0  0  0  0  0
   10.7421   23.2237    2.2651 C   0  0  0  0  0  0  0  0  0  0  0  0
   12.4673   23.5243    3.9158 N   0  0  0  0  0  0  0  0  0  0  0  0
   11.9233   23.1922    5.0985 C   0  0  0  0  0  0  0  0  0  0  0  0
   10.9941   22.3634    5.1795 O   0  0  0  0  0  0  0  0  0  0  0  0
   13.1971   24.1812    3.8449 H   0  0  0  0  0  0  0  0  0  0  0  0
   12.5485   23.9103    6.2318 C   0  0  0  0  0  0  0  0  0  0  0  0
   11.5040   24.1864    7.2409 N   0  0  0  0  0  0  0  0  0  0  0  0
   10.5814   25.1352    7.0951 C   0  0  0  0  0  0  0  0  0  0  0  0
   10.4520   25.9055    6.1440 O   0  0  0  0  0  0  0  0  0  0  0  0
   11.4900   23.6420    8.0610 H   0  0  0  0  0  0  0  0  0  0  0  0
   10.1022   25.9499    9.3578 C   0  0  0  0  0  0  0  0  0  0  0  0
    9.7417   25.1288    8.2309 O   0  0  0  0  0  0  0  0  0  0  0  0
   13.6984   23.1613    7.0490 C   0  0  0  0  0  0  0  0  0  0  0  0
   15.0951   23.1227    6.3715 C   0  0  0  0  0  0  0  0  0  0  0  0
   13.8416   23.8528    8.3950 C   0  0  0  0  0  0  0  0  0  0  0  0
   13.3386   21.6690    7.3146 C   0  0  0  0  0  0  0  0  0  0  0  0
   11.9049   21.4281    2.8944 C   0  0  0  0  0  0  0  0  0  0  0  0
   13.1634   20.6530    2.8058 C   0  0  0  0  0  0  0  0  0  0  0  0
   14.0691   20.5717    3.8844 C   0  0  0  0  0  0  0  0  0  0  0  0
   15.2463   19.8294    3.7306 C   0  0  0  0  0  0  0  0  0  0  0  0
   15.4885   19.1901    2.5013 C   0  0  0  0  0  0  0  0  0  0  0  0
   17.0122   18.1678    2.0982 Br  0  0  0  0  0  0  0  0  0  0  0  0
   14.5438   19.3017    1.4498 C   0  0  0  0  0  0  0  0  0  0  0  0
   13.3815   20.0353    1.6081 C   0  0  0  0  0  0  0  0  0  0  0  0
    8.9126   24.5229    3.3469 C   0  0  0  0  0  0  0  0  0  0  0  0
    7.6327   25.1714    2.7408 C   0  0  0  0  0  0  0  0  0  0  0  0
    7.9771   25.3763    1.3388 O   0  0  0  0  0  0  0  0  0  0  0  0
    8.3491   24.5580    0.9743 H   0  0  0  0  0  0  0  0  0  0  0  0
    7.0127   26.4527    3.4394 C   0  0  0  0  0  0  0  0  0  0  0  0
    6.8566   27.5854    2.9605 O   0  0  0  0  0  0  0  0  0  0  0  0
    6.8477   26.1733    4.7726 N   0  0  0  0  0  0  0  0  0  0  0  0
    6.9595   25.2512    5.0989 H   0  0  0  0  0  0  0  0  0  0  0  0
    6.4936   27.2817    5.7437 C   0  0  0  0  0  0  0  0  0  0  0  0
    5.0579   27.5338    5.9700 C   0  0  0  0  0  0  0  0  0  0  0  0
    3.9096   27.4767    5.0542 C   0  0  0  0  0  0  0  0  0  0  0  0
    2.5813   27.7890    5.6027 C   0  0  0  0  0  0  0  0  0  0  0  0
    2.4336   28.1432    7.0251 C   0  0  0  0  0  0  0  0  0  0  0  0
    3.6034   28.1951    7.9218 C   0  0  0  0  0  0  0  0  0  0  0  0
    4.9160   27.8834    7.3609 C   0  0  0  0  0  0  0  0  0  0  0  0
    6.2806   27.8657    8.0623 C   0  0  0  0  0  0  0  0  0  0  0  0
    7.1587   27.0029    7.1149 C   0  0  0  0  0  0  0  0  0  0  0  0
    7.0085   25.6442    7.5718 O   0  0  0  0  0  0  0  0  0  0  0  0
    6.0656   25.4225    7.6225 H   0  0  0  0  0  0  0  0  0  0  0  0
    6.5650   24.0635    2.8508 C   0  0  0  0  0  0  0  0  0  0  0  0
    5.1441   24.4771    2.5234 C   0  0  0  0  0  0  0  0  0  0  0  0
    4.1268   24.1419    3.4615 C   0  0  0  0  0  0  0  0  0  0  0  0
    2.8114   24.5245    3.1770 C   0  0  0  0  0  0  0  0  0  0  0  0
    2.5350   25.2167    1.9945 C   0  0  0  0  0  0  0  0  0  0  0  0
    3.5313   25.5547    1.0523 C   0  0  0  0  0  0  0  0  0  0  0  0
    4.8578   25.1783    1.3221 C   0  0  0  0  0  0  0  0  0  0  0  0
  1 28  1  0  0  0
  2  5  1  0  0  0
  1  4  1  0  0  0
  2  4  1  0  0  0
  3  4  2  0  0  0
  5  6  1  0  0  0
 14 15  1  0  0  0
 10 11  1  0  0  0
 15 11  1  0  0  0
 11 12  2  0  0  0
 10  9  1  0  0  0
  6  9  1  0  0  0
  9 16  1  0  0  0
 16 17  1  0  0  0
 16 18  1  0  0  0
 16 19  1  0  0  0
  6  7  2  0  0  0
  2 20  1  0  0  0
 20 21  1  0  0  0
 21 22  1  0  0  0
 22 23  2  0  0  0
 23 24  1  0  0  0
 24 25  1  0  0  0
 24 26  2  0  0  0
 21 27  2  0  0  0
 26 27  1  0  0  0
 28 29  1  0  0  0
 29 30  1  0  0  0
 29 47  1  0  0  0
 47 48  1  0  0  0
 48 49  1  0  0  0
 49 50  2  0  0  0
 50 51  1  0  0  0
 51 52  2  0  0  0
 48 53  2  0  0  0
 52 53  1  0  0  0
 29 32  1  0  0  0
 32 33  2  0  0  0
 32 34  1  0  0  0
 34 36  1  0  0  0
 36 37  1  0  0  0
 37 38  1  0  0  0
 38 39  2  0  0  0
 39 40  1  0  0  0
 40 41  2  0  0  0
 37 42  2  0  0  0
 41 42  1  0  0  0
 42 43  1  0  0  0
 36 44  1  0  0  0
 43 44  1  0  0  0
 44 45  1  0  0  0
  5  8  1  0  0  0
 10 13  1  0  0  0
 30 31  1  0  0  0
 34 35  1  0  0  0
 45 46  1  0  0  0
M  END
> <minimizedAffinity>
-9.77986

$$$$
