2UY0_HV1_B_1200
  RCSB PDB12061707003D
Coordinates from PDB:2UY0:B:1200 Model:1 without hydrogens
 48 51  0  0  0  0            999 V2000
   13.6780   24.3350    4.9700   C 0  0  0  0  0  0  0  0  0  0  0  0
   13.7950   23.8280    6.4180   C 0  0  0  0  0  0  0  0  0  0  0  0
   11.2830   23.6870    4.5210   N 0  0  0  0  0  0  0  0  0  0  0  0
   10.7220   24.7460    5.0700   N 0  0  0  0  0  0  0  0  0  0  0  0
    8.0520   25.8580    6.3230   N 0  0  0  0  0  0  0  0  0  0  0  0
   13.1470   22.8010    3.3690   O 0  0  0  0  0  0  0  0  0  0  0  0
   12.6400   23.5620    4.2270   C 0  0  0  0  0  0  0  0  0  0  0  0
   10.0500   24.5350    6.2140   C 0  0  0  0  0  0  0  0  0  0  0  0
    5.2760   27.4690    5.9160   C 0  0  0  0  0  0  0  0  0  0  0  0
    6.2190   26.5850    5.2810   O 0  0  0  0  0  0  0  0  0  0  0  0
    7.5980   26.8000    5.4990   C 0  0  0  0  0  0  0  0  0  0  0  0
    8.2430   27.7180    4.9930   O 0  0  0  0  0  0  0  0  0  0  0  0
    9.4610   25.7770    6.7630   C 0  0  0  0  0  0  0  0  0  0  0  0
    9.3880   25.9320    8.3510   C 0  0  0  0  0  0  0  0  0  0  0  0
    8.5490   24.8600    9.0980   C 0  0  0  0  0  0  0  0  0  0  0  0
   10.8080   25.8860    8.8910   C 0  0  0  0  0  0  0  0  0  0  0  0
    8.7620   27.2960    8.7690   C 0  0  0  0  0  0  0  0  0  0  0  0
    9.9610   23.3970    6.7180   O 0  0  0  0  0  0  0  0  0  0  0  0
   10.6690   23.1740    3.2590   C 0  0  0  0  0  0  0  0  0  0  0  0
    9.4460   23.8260    2.7380   C 0  0  0  0  0  0  0  0  0  0  0  0
    8.1540   23.3900    3.1000   C 0  0  0  0  0  0  0  0  0  0  0  0
    7.0390   24.0450    2.5630   C 0  0  0  0  0  0  0  0  0  0  0  0
    7.2450   25.1170    1.6760   C 0  0  0  0  0  0  0  0  0  0  0  0
    5.8820   26.1050    0.8420  Br 0  0  0  0  0  0  0  0  0  0  0  0
    8.5650   25.5170    1.3470   C 0  0  0  0  0  0  0  0  0  0  0  0
    9.6630   24.8670    1.8820   C 0  0  0  0  0  0  0  0  0  0  0  0
   14.9370   22.7860    6.6080   C 0  0  0  0  0  0  0  0  0  0  0  0
   16.1120   23.4540    6.0610   O 0  0  0  0  0  0  0  0  0  0  0  0
   15.0810   22.6650    8.1390   C 0  0  0  0  0  0  0  0  0  0  0  0
   16.1600   21.7210    8.6310   C 0  0  0  0  0  0  0  0  0  0  0  0
   15.7500   20.5910    9.3940   C 0  0  0  0  0  0  0  0  0  0  0  0
   16.7340   19.7060    9.8480   C 0  0  0  0  0  0  0  0  0  0  0  0
   18.0760   19.9520    9.5440   C 0  0  0  0  0  0  0  0  0  0  0  0
   18.5000   21.0690    8.7910   C 0  0  0  0  0  0  0  0  0  0  0  0
   17.5250   21.9680    8.3270   C 0  0  0  0  0  0  0  0  0  0  0  0
   14.7320   21.3100    6.0660   C 0  0  0  0  0  0  0  0  0  0  0  0
   13.7970   20.5310    6.3020   O 0  0  0  0  0  0  0  0  0  0  0  0
   15.8850   20.9260    5.4290   N 0  0  0  0  0  0  0  0  0  0  0  0
   16.0780   19.4820    5.0110   C 0  0  0  0  0  0  0  0  0  0  0  0
   15.8420   19.1640    3.5900   C 0  0  0  0  0  0  0  0  0  0  0  0
   14.8580   19.6880    2.6320   C 0  0  0  0  0  0  0  0  0  0  0  0
   14.8860   19.1540    1.2620   C 0  0  0  0  0  0  0  0  0  0  0  0
   15.8770   18.1300    0.8880   C 0  0  0  0  0  0  0  0  0  0  0  0
   16.8520   17.6200    1.8700   C 0  0  0  0  0  0  0  0  0  0  0  0
   16.8100   18.1600    3.2270   C 0  0  0  0  0  0  0  0  0  0  0  0
   17.6960   17.8070    4.4290   C 0  0  0  0  0  0  0  0  0  0  0  0
   17.5110   19.0220    5.3790   C 0  0  0  0  0  0  0  0  0  0  0  0
   18.5390   19.9640    5.0140   O 0  0  0  0  0  0  0  0  0  0  0  0
  1  2  1  0  0  0  0
  3  4  1  0  0  0  0
  1  7  1  0  0  0  0
  3  7  1  0  0  0  0
  6  7  2  0  0  0  0
  4  8  1  0  0  0  0
  9 10  1  0  0  0  0
  5 11  1  0  0  0  0
 10 11  1  0  0  0  0
 11 12  2  0  0  0  0
  5 13  1  0  0  0  0
  8 13  1  0  0  0  0
 13 14  1  0  0  0  0
 14 15  1  0  0  0  0
 14 16  1  0  0  0  0
 14 17  1  0  0  0  0
  8 18  2  0  0  0  0
  3 19  1  0  0  0  0
 19 20  1  0  0  0  0
 20 21  1  0  0  0  0
 21 22  2  0  0  0  0
 22 23  1  0  0  0  0
 23 24  1  0  0  0  0
 23 25  2  0  0  0  0
 20 26  2  0  0  0  0
 25 26  1  0  0  0  0
  2 27  1  0  0  0  0
 27 28  1  0  0  0  0
 27 29  1  0  0  0  0
 29 30  1  0  0  0  0
 30 31  1  0  0  0  0
 31 32  2  0  0  0  0
 32 33  1  0  0  0  0
 33 34  2  0  0  0  0
 30 35  2  0  0  0  0
 34 35  1  0  0  0  0
 27 36  1  0  0  0  0
 36 37  2  0  0  0  0
 36 38  1  0  0  0  0
 38 39  1  0  0  0  0
 39 40  1  0  0  0  0
 40 41  1  0  0  0  0
 41 42  2  0  0  0  0
 42 43  1  0  0  0  0
 43 44  2  0  0  0  0
 40 45  2  0  0  0  0
 44 45  1  0  0  0  0
 45 46  1  0  0  0  0
 39 47  1  0  0  0  0
 46 47  1  0  0  0  0
 47 48  1  0  0  0  0
A    1
C4
A    2
C14
A    3
N1
A    4
N2
A    5
N3
A    6
O50
A    7
C25
A    8
C42
A    9
C36
A   10
O37
A   11
C38
A   12
O39
A   13
C41
A   14
C35
A   15
C47
A   16
C46
A   17
C45
A   18
O44
A   19
C27
A   20
C28
A   21
C29
A   22
C30
A   23
C31
A   24
BR
A   25
C32
A   26
C33
A   27
C1
A   28
O22
A   29
C15
A   30
C16
A   31
C17
A   32
C18
A   33
C19
A   34
C20
A   35
C21
A   36
C2
A   37
O3
A   38
N4
A   39
C5
A   40
C6
A   41
C7
A   42
C8
A   43
C9
A   44
C10
A   45
C11
A   46
C12
A   47
C13
A   48
O14
M  END
>  <InstanceId>
2UY0_HV1_B_1200

>  <ChemCompId>
HV1

>  <PdbId>
2UY0

>  <ChainId>
B

>  <ResidueNumber>
1200

>  <InsertionCode>


>  <Model>
1

>  <AltIds>


>  <MissingHeavyAtoms>
0

>  <ObservedFormula>
C36 N4 O7 Br

>  <Name>
METHYL [(1S)-1-({2-[(4R)-4-BENZYL-4-HYDROXY-5-{[(1S,2R)-2-HYDROXY-2,3-DIHYDRO-1H-INDEN-1-YL]AMINO}-5-OXOPENTANOYL]-2-(4-BROMOBENZYL)HYDRAZINO}CARBONYL)-2,2-DIMETHYLPROPYL]CARBAMATE

>  <SystematicName>
methyl N-[(2S)-1-[2-[(4-bromophenyl)methyl]-2-[(4R)-4-hydroxy-5-[[(1S,2R)-2-hydroxy-2,3-dihydro-1H-inden-1-yl]amino]-5-oxo-4-(phenylmethyl)pentanoyl]hydrazinyl]-3,3-dimethyl-1-oxo-butan-2-yl]carbamate

>  <Synonyms>


>  <Type>
NON-POLYMER

>  <Formula>
C36 H43 Br N4 O7

>  <MolecularWeight>
723.653

>  <ModifiedDate>
2011-06-04

>  <Parent>


>  <OneLetterCode>


>  <SubcomponentList>


>  <AmbiguousFlag>


>  <InChI>
InChI=1S/C36H43BrN4O7/c1-35(2,3)31(39-34(46)48-4)32(44)40-41(22-24-14-16-26(37)17-15-24)29(43)18-19-36(47,21-23-10-6-5-7-11-23)33(45)38-30-27-13-9-8-12-25(27)20-28(30)42/h5-17,28,30-31,42,47H,18-22H2,1-4H3,(H,38,45)(H,39,46)(H,40,44)/t28-,30+,31-,36-/m1/s1

>  <InChIKey>
FPXYCCHKLAQWFU-AYZRFRAKSA-N

>  <SMILES>
CC(C)(C)[C@@H](C(=O)NN(Cc1ccc(cc1)Br)C(=O)CC[C@@](Cc2ccccc2)(C(=O)N[C@H]3c4ccccc4C[C@H]3O)O)NC(=O)OC

$$$$
