3MHC_ARZ_A_263
  RCSB PDB12061709453D
Coordinates from PDB:3MHC:A:263 Model:1 without hydrogens
 22 25  0  0  0  0            999 V2000
   -5.3240   -0.3420   16.1320   N 0  0  0  0  0  0  0  0  0  0  0  0
   -6.4720    5.7780   13.4580   O 0  0  0  0  0  0  0  0  0  0  0  0
   -5.2590    1.1530   17.9920   O 0  0  0  0  0  0  0  0  0  0  0  0
   -7.1990    1.1260   16.5130   O 0  0  0  0  0  0  0  0  0  0  0  0
   -3.9290    8.1600    9.7660   C 0  0  0  0  0  0  0  0  0  0  0  0
   -6.2900    7.9740    9.2340   C 0  0  0  0  0  0  0  0  0  0  0  0
   -5.4640    9.3840   10.8290   C 0  0  0  0  0  0  0  0  0  0  0  0
   -4.8280    6.4280   10.5470   C 0  0  0  0  0  0  0  0  0  0  0  0
   -3.9970    7.6910   12.0380   C 0  0  0  0  0  0  0  0  0  0  0  0
   -6.5030    7.6170   11.7280   C 0  0  0  0  0  0  0  0  0  0  0  0
   -3.5310    3.5300   14.8100   N 0  0  0  0  0  0  0  0  0  0  0  0
   -3.7320    2.3670   15.6680   N 0  0  0  0  0  0  0  0  0  0  0  0
   -4.1090    5.2460   13.6150   N 0  0  0  0  0  0  0  0  0  0  0  0
   -5.8590    3.4430   14.9650   S 0  0  0  0  0  0  0  0  0  0  0  0
   -5.3300    5.9360   13.1980   C 0  0  0  0  0  0  0  0  0  0  0  0
   -4.6410    4.2220   14.3480   C 0  0  0  0  0  0  0  0  0  0  0  0
   -5.0800    2.2610   15.7990   C 0  0  0  0  0  0  0  0  0  0  0  0
   -4.9730    7.1910    9.3070   C 0  0  0  0  0  0  0  0  0  0  0  0
   -4.1640    8.8230   11.0960   C 0  0  0  0  0  0  0  0  0  0  0  0
   -6.6230    8.6120   10.6140   C 0  0  0  0  0  0  0  0  0  0  0  0
   -5.2200    6.8700   11.8520   C 0  0  0  0  0  0  0  0  0  0  0  0
   -5.8480    0.8850   16.6140   S 0  0  0  0  0  0  0  0  0  0  0  0
  1 22  1  0  0  0  0
 15  2  2  0  0  0  0
 22  3  2  0  0  0  0
  4 22  2  0  0  0  0
 18  5  1  0  0  0  0
  5 19  1  0  0  0  0
  6 18  1  0  0  0  0
  6 20  1  0  0  0  0
 20  7  1  0  0  0  0
  7 19  1  0  0  0  0
 18  8  1  0  0  0  0
  8 21  1  0  0  0  0
 19  9  1  0  0  0  0
 21  9  1  0  0  0  0
 20 10  1  0  0  0  0
 10 21  1  0  0  0  0
 16 11  2  0  0  0  0
 11 12  1  0  0  0  0
 12 17  2  0  0  0  0
 15 13  1  0  0  0  0
 13 16  1  0  0  0  0
 16 14  1  0  0  0  0
 14 17  1  0  0  0  0
 21 15  1  0  0  0  0
 17 22  1  0  0  0  0
A    1
NAA
A    2
OAB
A    3
OAC
A    4
OAD
A    5
CAE
A    6
CAF
A    7
CAG
A    8
CAH
A    9
CAI
A   10
CAJ
A   11
NAK
A   12
NAL
A   13
NAM
A   14
SAN
A   15
CAO
A   16
CAP
A   17
CAQ
A   18
CAR
A   19
CAS
A   20
CAT
A   21
CAU
A   22
SAV
M  END
>  <InstanceId>
3MHC_ARZ_A_263

>  <ChemCompId>
ARZ

>  <PdbId>
3MHC

>  <ChainId>
A

>  <ResidueNumber>
263

>  <InsertionCode>


>  <Model>
1

>  <AltIds>


>  <MissingHeavyAtoms>
0

>  <ObservedFormula>
C13 N4 O3 S2

>  <Name>
(3S,5S,7S)-N-(5-sulfamoyl-1,3,4-thiadiazol-2-yl)tricyclo[3.3.1.1~3,7~]decane-1-carboxamide

>  <SystematicName>
N-(5-sulfamoyl-1,3,4-thiadiazol-2-yl)adamantane-1-carboxamide

>  <Synonyms>
5-(1-adamantylcarboxamido)-1,3,4-thiadiazole-2-sulfonamide

>  <Type>
NON-POLYMER

>  <Formula>
C13 H18 N4 O3 S2

>  <MolecularWeight>
342.437

>  <ModifiedDate>
2011-06-04

>  <Parent>


>  <OneLetterCode>


>  <SubcomponentList>


>  <AmbiguousFlag>
N

>  <InChI>
InChI=1S/C13H18N4O3S2/c14-22(19,20)12-17-16-11(21-12)15-10(18)13-4-7-1-8(5-13)3-9(2-7)6-13/h7-9H,1-6H2,(H2,14,19,20)(H,15,16,18)/t7-,8+,9-,13-

>  <InChIKey>
NBKDQESIWDNDOT-LZFPZTGBSA-N

>  <SMILES>
C1C2CC3CC1CC(C2)(C3)C(=O)Nc4nnc(s4)S(=O)(=O)N

$$$$
