1BNU_AL3_A_555
  RCSB PDB12061702053D
Coordinates from PDB:1BNU:A:555 Model:1 without hydrogens
 22 24  0  0  0  0            999 V2000
   -5.3870    2.1330   15.8720   C 0  0  0  0  0  0  0  0  0  0  0  0
   -2.3100    3.0260   12.8700   O 0  0  0  0  0  0  0  0  0  0  0  0
   -3.3960    5.1670   12.7360   C 0  0  0  0  0  0  0  0  0  0  0  0
   -2.9520    4.0030   13.6750   C 0  0  0  0  0  0  0  0  0  0  0  0
   -3.0250    6.6200   14.5750   C 0  0  0  0  0  0  0  0  0  0  0  0
   -2.4260    7.8850   14.2360   C 0  0  0  0  0  0  0  0  0  0  0  0
   -2.4300    8.5120   13.0050   C 0  0  0  0  0  0  0  0  0  0  0  0
   -1.7940    9.7230   13.0680   C 0  0  0  0  0  0  0  0  0  0  0  0
   -1.2980   10.0360   14.3240   C 0  0  0  0  0  0  0  0  0  0  0  0
   -5.4610    0.9870   18.1890   O 0  0  0  0  0  0  0  0  0  0  0  0
   -7.3040    0.8500   16.8940   O 0  0  0  0  0  0  0  0  0  0  0  0
   -5.3540   -0.3940   16.2360   N 0  0  0  0  0  0  0  0  0  0  0  0
   -5.8810    0.8350   16.8560   S 0  0  0  0  0  0  0  0  0  0  0  0
   -4.2640    2.2050   15.1130   C 0  0  0  0  0  0  0  0  0  0  0  0
   -4.1360    3.3590   14.4010   C 0  0  0  0  0  0  0  0  0  0  0  0
   -5.2000    4.1940   14.6360   C 0  0  0  0  0  0  0  0  0  0  0  0
   -6.3430    3.5400   15.7230   S 0  0  0  0  0  0  0  0  0  0  0  0
   -5.3150    5.8180   14.0610   S 0  0  0  0  0  0  0  0  0  0  0  0
   -6.2970    5.8260   13.0500   O 0  0  0  0  0  0  0  0  0  0  0  0
   -5.8480    6.6350   15.1020   O 0  0  0  0  0  0  0  0  0  0  0  0
   -3.9840    6.2390   13.5360   N 0  0  0  0  0  0  0  0  0  0  0  0
   -1.6320    8.7810   15.4670   S 0  0  0  0  0  0  0  0  0  0  0  0
  1 13  1  0  0  0  0
  1 14  2  0  0  0  0
  1 17  1  0  0  0  0
  2  4  1  0  0  0  0
  3  4  1  0  0  0  0
  3 21  1  0  0  0  0
  4 15  1  0  0  0  0
  5  6  1  0  0  0  0
  5 21  1  0  0  0  0
  6  7  2  0  0  0  0
  6 22  1  0  0  0  0
  7  8  1  0  0  0  0
  8  9  2  0  0  0  0
  9 22  1  0  0  0  0
 10 13  2  0  0  0  0
 11 13  2  0  0  0  0
 12 13  1  0  0  0  0
 14 15  1  0  0  0  0
 15 16  2  0  0  0  0
 16 17  1  0  0  0  0
 16 18  1  0  0  0  0
 18 19  2  0  0  0  0
 18 20  2  0  0  0  0
 18 21  1  0  0  0  0
A    1
C3
A    2
O5
A    3
C9
A    4
C10
A    5
C11
A    6
C12
A    7
C13
A    8
C14
A    9
C15
A   10
O1A
A   11
O2A
A   12
N21
A   13
S1
A   14
C4
A   15
C5
A   16
C6
A   17
S2
A   18
S7
A   19
O3B
A   20
O4B
A   21
N8
A   22
S16
M  END
>  <InstanceId>
1BNU_AL3_A_555

>  <ChemCompId>
AL3

>  <PdbId>
1BNU

>  <ChainId>
A

>  <ResidueNumber>
555

>  <InsertionCode>


>  <Model>
1

>  <AltIds>


>  <MissingHeavyAtoms>
0

>  <ObservedFormula>
C11 N2 O5 S4

>  <Name>
3,4-DIHYDRO-4-HYDROXY-2-(2-THIENYMETHYL)-2H-THIENO[3,2-E]-1,2-THIAZINE-6-SULFONAMIDE-1,1-DIOXIDE

>  <SystematicName>
(2R,4R)-4-hydroxy-1,1-dioxo-2-(thiophen-2-ylmethyl)-3,4-dihydrothieno[4,5-e][1,2]thiazine-6-sulfonamide

>  <Synonyms>
AL5300

>  <Type>
NON-POLYMER

>  <Formula>
C11 H12 N2 O5 S4

>  <MolecularWeight>
380.483

>  <ModifiedDate>
2011-06-04

>  <Parent>


>  <OneLetterCode>


>  <SubcomponentList>


>  <AmbiguousFlag>
N

>  <InChI>
InChI=1S/C11H12N2O5S4/c12-21(15,16)10-4-8-9(14)6-13(5-7-2-1-3-19-7)22(17,18)11(8)20-10/h1-4,9,14H,5-6H2,(H2,12,15,16)/t9-/m0/s1

>  <InChIKey>
HHPUQNGRNUOYCD-VIFPVBQESA-N

>  <SMILES>
c1cc(sc1)C[N@]2C[C@@H](c3cc(sc3S2(=O)=O)S(=O)(=O)N)O

$$$$
