1BNU_AL3_A_555


 25 27  0  0  0  0  0  0  0  0999 V2000
   -5.7099    2.0483   16.2169 C   0  0  0  0  0  0  0  0  0  0  0  0
   -3.0191    2.3363   12.7594 O   0  0  0  0  0  0  0  0  0  0  0  0
   -3.7823    4.6139   12.6524 C   0  0  0  0  0  0  0  0  0  0  0  0
   -3.3808    3.4312   13.5871 C   0  0  0  0  0  0  0  0  0  0  0  0
   -4.7152    1.9155   15.3029 C   0  0  0  0  0  0  0  0  0  0  0  0
   -4.5251    3.0077   14.5117 C   0  0  0  0  0  0  0  0  0  0  0  0
   -5.4058    4.0067   14.8448 C   0  0  0  0  0  0  0  0  0  0  0  0
   -6.4574    3.5805   16.1208 S   0  0  0  0  0  0  0  0  0  0  0  0
   -5.3628    5.6058   14.1951 S   0  0  0  0  0  0  0  0  0  0  0  0
   -6.4729    5.7286   13.3355 O   0  0  0  0  0  0  0  0  0  0  0  0
   -5.6063    6.5347   15.2502 O   0  0  0  0  0  0  0  0  0  0  0  0
   -4.0778    5.7939   13.4617 N   0  0  0  0  0  0  0  0  0  0  0  0
   -2.2940    2.6008   12.1719 H   0  0  0  0  0  0  0  0  0  0  0  0
   -7.6345    0.7171   17.3175 O   0  0  0  0  0  0  0  0  0  0  0  0
   -5.6951   -0.3708   16.9333 O   0  0  0  0  0  0  0  0  0  0  0  0
   -5.7398    1.3034   18.6590 N   0  0  0  0  0  0  0  0  0  0  0  0
   -6.2384    0.8813   17.3376 S   0  0  0  0  0  0  0  0  0  0  0  0
   -6.1537    2.2020   18.9074 H   0  0  0  0  0  0  0  0  0  0  0  0
   -4.7244    1.3943   18.6261 H   0  0  0  0  0  0  0  0  0  0  0  0
   -2.9281    6.0597   14.3289 C   0  0  0  0  0  0  0  0  0  0  0  0
   -2.6226    7.4668   14.3046 C   0  0  0  0  0  0  0  0  0  0  0  0
   -2.3920    8.2940   15.3868 C   0  0  0  0  0  0  0  0  0  0  0  0
   -2.0927    9.5662   14.9783 C   0  0  0  0  0  0  0  0  0  0  0  0
   -2.0930    9.7324   13.6021 C   0  0  0  0  0  0  0  0  0  0  0  0
   -2.4804    8.2567   12.7865 S   0  0  0  0  0  0  0  0  0  0  0  0
  1 17  1  0  0  0
  1  5  2  0  0  0
  1  8  1  0  0  0
  2  4  1  0  0  0
  3  4  1  0  0  0
  3 12  1  0  0  0
  4  6  1  0  0  0
 20 21  1  0  0  0
 20 12  1  0  0  0
 21 22  2  0  0  0
 21 25  1  0  0  0
 22 23  1  0  0  0
 23 24  2  0  0  0
 24 25  1  0  0  0
 14 17  2  0  0  0
 15 17  2  0  0  0
 16 17  1  0  0  0
  5  6  1  0  0  0
  6  7  2  0  0  0
  7  8  1  0  0  0
  7  9  1  0  0  0
  9 10  2  0  0  0
  9 11  2  0  0  0
  9 12  1  0  0  0
  2 13  1  0  0  0
 16 18  1  0  0  0
 16 19  1  0  0  0
M  END
> <minimizedAffinity>
-7.62012

$$$$
1BNU_AL3_A_555


 25 27  0  0  0  0  0  0  0  0999 V2000
   -5.7721    2.1498   16.1328 C   0  0  0  0  0  0  0  0  0  0  0  0
   -3.1710    1.6022   12.6382 O   0  0  0  0  0  0  0  0  0  0  0  0
   -3.6273    3.9271   12.2283 C   0  0  0  0  0  0  0  0  0  0  0  0
   -3.3590    2.8373   13.3119 C   0  0  0  0  0  0  0  0  0  0  0  0
   -4.8315    1.7615   15.2345 C   0  0  0  0  0  0  0  0  0  0  0  0
   -4.5215    2.7013   14.2987 C   0  0  0  0  0  0  0  0  0  0  0  0
   -5.2511    3.8463   14.5016 C   0  0  0  0  0  0  0  0  0  0  0  0
   -6.3116    3.7424   15.8359 S   0  0  0  0  0  0  0  0  0  0  0  0
   -5.0151    5.3228   13.6382 S   0  0  0  0  0  0  0  0  0  0  0  0
   -6.1241    5.4787   12.7825 O   0  0  0  0  0  0  0  0  0  0  0  0
   -5.1014    6.4095   14.5585 O   0  0  0  0  0  0  0  0  0  0  0  0
   -3.7389    5.2343   12.8714 N   0  0  0  0  0  0  0  0  0  0  0  0
   -2.4350    1.6843   12.0118 H   0  0  0  0  0  0  0  0  0  0  0  0
   -6.3295    1.8913   18.6447 O   0  0  0  0  0  0  0  0  0  0  0  0
   -7.8087    1.0658   17.1538 O   0  0  0  0  0  0  0  0  0  0  0  0
   -5.6993   -0.0604   17.4092 N   0  0  0  0  0  0  0  0  0  0  0  0
   -6.4175    1.2268   17.4090 S   0  0  0  0  0  0  0  0  0  0  0  0
   -4.7098    0.1024   17.5954 H   0  0  0  0  0  0  0  0  0  0  0  0
   -5.8048   -0.5087   16.4991 H   0  0  0  0  0  0  0  0  0  0  0  0
   -2.5388    5.4556   13.6808 C   0  0  0  0  0  0  0  0  0  0  0  0
   -1.6920    6.4223   13.0309 C   0  0  0  0  0  0  0  0  0  0  0  0
   -0.5152    6.1822   12.3483 C   0  0  0  0  0  0  0  0  0  0  0  0
   -0.0033    7.3409   11.8283 C   0  0  0  0  0  0  0  0  0  0  0  0
   -0.7633    8.4673   12.1023 C   0  0  0  0  0  0  0  0  0  0  0  0
   -2.1626    8.0737   13.0405 S   0  0  0  0  0  0  0  0  0  0  0  0
  1 17  1  0  0  0
  1  5  2  0  0  0
  1  8  1  0  0  0
  2  4  1  0  0  0
  3  4  1  0  0  0
  3 12  1  0  0  0
  4  6  1  0  0  0
 20 21  1  0  0  0
 20 12  1  0  0  0
 21 22  2  0  0  0
 21 25  1  0  0  0
 22 23  1  0  0  0
 23 24  2  0  0  0
 24 25  1  0  0  0
 14 17  2  0  0  0
 15 17  2  0  0  0
 16 17  1  0  0  0
  5  6  1  0  0  0
  6  7  2  0  0  0
  7  8  1  0  0  0
  7  9  1  0  0  0
  9 10  2  0  0  0
  9 11  2  0  0  0
  9 12  1  0  0  0
  2 13  1  0  0  0
 16 18  1  0  0  0
 16 19  1  0  0  0
M  END
> <minimizedAffinity>
-7.26691

$$$$
1BNU_AL3_A_555


 25 27  0  0  0  0  0  0  0  0999 V2000
   -4.5358    2.5272   14.8511 C   0  0  0  0  0  0  0  0  0  0  0  0
   -4.0423    6.8423   15.4942 O   0  0  0  0  0  0  0  0  0  0  0  0
   -3.8910    6.9442   13.0967 C   0  0  0  0  0  0  0  0  0  0  0  0
   -4.5853    6.2642   14.3170 C   0  0  0  0  0  0  0  0  0  0  0  0
   -4.5597    3.8059   15.3059 C   0  0  0  0  0  0  0  0  0  0  0  0
   -4.3557    4.7509   14.3466 C   0  0  0  0  0  0  0  0  0  0  0  0
   -4.1773    4.1641   13.1184 C   0  0  0  0  0  0  0  0  0  0  0  0
   -4.2558    2.4591   13.1681 S   0  0  0  0  0  0  0  0  0  0  0  0
   -4.0705    5.0282   11.6274 S   0  0  0  0  0  0  0  0  0  0  0  0
   -2.7301    4.9434   11.1999 O   0  0  0  0  0  0  0  0  0  0  0  0
   -4.8205    4.3263   10.6374 O   0  0  0  0  0  0  0  0  0  0  0  0
   -4.4837    6.4424   11.8590 N   0  0  0  0  0  0  0  0  0  0  0  0
   -4.1858    7.8015   15.4792 H   0  0  0  0  0  0  0  0  0  0  0  0
   -4.7561   -0.0468   14.9657 O   0  0  0  0  0  0  0  0  0  0  0  0
   -3.5615    0.9747   16.5849 O   0  0  0  0  0  0  0  0  0  0  0  0
   -5.9477    1.2727   16.5694 N   0  0  0  0  0  0  0  0  0  0  0  0
   -4.7209    1.1061   15.7694 S   0  0  0  0  0  0  0  0  0  0  0  0
   -6.7503    1.3627   15.9463 H   0  0  0  0  0  0  0  0  0  0  0  0
   -5.8676    2.1117   17.1439 H   0  0  0  0  0  0  0  0  0  0  0  0
   -5.9334    6.6378   11.9281 C   0  0  0  0  0  0  0  0  0  0  0  0
   -6.3328    7.6224   10.9559 C   0  0  0  0  0  0  0  0  0  0  0  0
   -6.4256    8.9890   11.1355 C   0  0  0  0  0  0  0  0  0  0  0  0
   -6.8007    9.6129    9.9757 C   0  0  0  0  0  0  0  0  0  0  0  0
   -7.0016    8.7501    8.9095 C   0  0  0  0  0  0  0  0  0  0  0  0
   -6.7160    7.1054    9.3639 S   0  0  0  0  0  0  0  0  0  0  0  0
  1 17  1  0  0  0
  1  5  2  0  0  0
  1  8  1  0  0  0
  2  4  1  0  0  0
  3  4  1  0  0  0
  3 12  1  0  0  0
  4  6  1  0  0  0
 20 21  1  0  0  0
 20 12  1  0  0  0
 21 22  2  0  0  0
 21 25  1  0  0  0
 22 23  1  0  0  0
 23 24  2  0  0  0
 24 25  1  0  0  0
 14 17  2  0  0  0
 15 17  2  0  0  0
 16 17  1  0  0  0
  5  6  1  0  0  0
  6  7  2  0  0  0
  7  8  1  0  0  0
  7  9  1  0  0  0
  9 10  2  0  0  0
  9 11  2  0  0  0
  9 12  1  0  0  0
  2 13  1  0  0  0
 16 18  1  0  0  0
 16 19  1  0  0  0
M  END
> <minimizedAffinity>
-7.18565

$$$$
1BNU_AL3_A_555


 25 27  0  0  0  0  0  0  0  0999 V2000
   -5.5638    2.1932   16.2705 C   0  0  0  0  0  0  0  0  0  0  0  0
   -6.5769    6.2033   14.7972 O   0  0  0  0  0  0  0  0  0  0  0  0
   -4.4585    6.0674   13.6681 C   0  0  0  0  0  0  0  0  0  0  0  0
   -5.7339    5.2878   14.1147 C   0  0  0  0  0  0  0  0  0  0  0  0
   -6.1736    3.3282   15.8434 C   0  0  0  0  0  0  0  0  0  0  0  0
   -5.4030    4.1177   15.0447 C   0  0  0  0  0  0  0  0  0  0  0  0
   -4.1654    3.5544   14.8556 C   0  0  0  0  0  0  0  0  0  0  0  0
   -3.9699    2.0670   15.6711 S   0  0  0  0  0  0  0  0  0  0  0  0
   -2.9715    4.1592   13.7647 S   0  0  0  0  0  0  0  0  0  0  0  0
   -1.9414    4.7134   14.5510 O   0  0  0  0  0  0  0  0  0  0  0  0
   -2.3694    3.0565   13.0887 O   0  0  0  0  0  0  0  0  0  0  0  0
   -3.5998    5.1843   12.8822 N   0  0  0  0  0  0  0  0  0  0  0  0
   -6.7889    6.9464   14.2110 H   0  0  0  0  0  0  0  0  0  0  0  0
   -5.6994   -0.2771   17.0232 O   0  0  0  0  0  0  0  0  0  0  0  0
   -5.7925    1.3115   18.6233 O   0  0  0  0  0  0  0  0  0  0  0  0
   -7.6781    1.0649   17.1514 N   0  0  0  0  0  0  0  0  0  0  0  0
   -6.2129    1.0023   17.2988 S   0  0  0  0  0  0  0  0  0  0  0  0
   -7.9332    0.8372   16.1904 H   0  0  0  0  0  0  0  0  0  0  0  0
   -8.0025    2.0057   17.3754 H   0  0  0  0  0  0  0  0  0  0  0  0
   -4.3924    4.6241   11.7857 C   0  0  0  0  0  0  0  0  0  0  0  0
   -4.1378    5.3682   10.5793 C   0  0  0  0  0  0  0  0  0  0  0  0
   -5.0680    5.9584    9.7456 C   0  0  0  0  0  0  0  0  0  0  0  0
   -4.4551    6.6158    8.7126 C   0  0  0  0  0  0  0  0  0  0  0  0
   -3.0713    6.5382    8.7352 C   0  0  0  0  0  0  0  0  0  0  0  0
   -2.5114    5.6145   10.0866 S   0  0  0  0  0  0  0  0  0  0  0  0
  1 17  1  0  0  0
  1  5  2  0  0  0
  1  8  1  0  0  0
  2  4  1  0  0  0
  3  4  1  0  0  0
  3 12  1  0  0  0
  4  6  1  0  0  0
 20 21  1  0  0  0
 20 12  1  0  0  0
 21 22  2  0  0  0
 21 25  1  0  0  0
 22 23  1  0  0  0
 23 24  2  0  0  0
 24 25  1  0  0  0
 14 17  2  0  0  0
 15 17  2  0  0  0
 16 17  1  0  0  0
  5  6  1  0  0  0
  6  7  2  0  0  0
  7  8  1  0  0  0
  7  9  1  0  0  0
  9 10  2  0  0  0
  9 11  2  0  0  0
  9 12  1  0  0  0
  2 13  1  0  0  0
 16 18  1  0  0  0
 16 19  1  0  0  0
M  END
> <minimizedAffinity>
-7.15987

$$$$
1BNU_AL3_A_555


 25 27  0  0  0  0  0  0  0  0999 V2000
   -4.5413    2.2209   14.6437 C   0  0  0  0  0  0  0  0  0  0  0  0
   -4.9690    2.5031   10.2831 O   0  0  0  0  0  0  0  0  0  0  0  0
   -4.4609    4.8291   10.6194 C   0  0  0  0  0  0  0  0  0  0  0  0
   -4.1582    3.3654   11.0665 C   0  0  0  0  0  0  0  0  0  0  0  0
   -4.5759    2.0079   13.3036 C   0  0  0  0  0  0  0  0  0  0  0  0
   -4.4643    3.1361   12.5488 C   0  0  0  0  0  0  0  0  0  0  0  0
   -4.3338    4.2437   13.3493 C   0  0  0  0  0  0  0  0  0  0  0  0
   -4.3589    3.8771   15.0169 S   0  0  0  0  0  0  0  0  0  0  0  0
   -3.9891    5.8337   12.7711 S   0  0  0  0  0  0  0  0  0  0  0  0
   -5.1664    6.5919   12.9310 O   0  0  0  0  0  0  0  0  0  0  0  0
   -3.0362    6.4405   13.6424 O   0  0  0  0  0  0  0  0  0  0  0  0
   -3.5821    5.7483   11.3388 N   0  0  0  0  0  0  0  0  0  0  0  0
   -4.7778    2.6454    9.3428 H   0  0  0  0  0  0  0  0  0  0  0  0
   -4.7940   -0.2508   15.3607 O   0  0  0  0  0  0  0  0  0  0  0  0
   -3.4729    1.0750   16.6213 O   0  0  0  0  0  0  0  0  0  0  0  0
   -5.8493    1.4368   16.6915 N   0  0  0  0  0  0  0  0  0  0  0  0
   -4.6843    1.0534   15.8739 S   0  0  0  0  0  0  0  0  0  0  0  0
   -6.6919    1.4075   16.1176 H   0  0  0  0  0  0  0  0  0  0  0  0
   -5.7158    2.3818   17.0515 H   0  0  0  0  0  0  0  0  0  0  0  0
   -2.1971    5.3182   11.1357 C   0  0  0  0  0  0  0  0  0  0  0  0
   -1.4535    6.3754   10.5006 C   0  0  0  0  0  0  0  0  0  0  0  0
   -0.5922    7.2732   11.1013 C   0  0  0  0  0  0  0  0  0  0  0  0
   -0.0337    8.1133   10.1754 C   0  0  0  0  0  0  0  0  0  0  0  0
   -0.4532    7.8799    8.8750 C   0  0  0  0  0  0  0  0  0  0  0  0
   -1.5826    6.5717    8.7996 S   0  0  0  0  0  0  0  0  0  0  0  0
  1 17  1  0  0  0
  1  5  2  0  0  0
  1  8  1  0  0  0
  2  4  1  0  0  0
  3  4  1  0  0  0
  3 12  1  0  0  0
  4  6  1  0  0  0
 20 21  1  0  0  0
 20 12  1  0  0  0
 21 22  2  0  0  0
 21 25  1  0  0  0
 22 23  1  0  0  0
 23 24  2  0  0  0
 24 25  1  0  0  0
 14 17  2  0  0  0
 15 17  2  0  0  0
 16 17  1  0  0  0
  5  6  1  0  0  0
  6  7  2  0  0  0
  7  8  1  0  0  0
  7  9  1  0  0  0
  9 10  2  0  0  0
  9 11  2  0  0  0
  9 12  1  0  0  0
  2 13  1  0  0  0
 16 18  1  0  0  0
 16 19  1  0  0  0
M  END
> <minimizedAffinity>
-6.96460

$$$$
1BNU_AL3_A_555


 25 27  0  0  0  0  0  0  0  0999 V2000
   -4.0565    6.5470   10.7471 C   0  0  0  0  0  0  0  0  0  0  0  0
   -4.8811    2.2440   10.4614 O   0  0  0  0  0  0  0  0  0  0  0  0
   -4.0261    2.1698   12.7074 C   0  0  0  0  0  0  0  0  0  0  0  0
   -4.8707    2.9793   11.6754 C   0  0  0  0  0  0  0  0  0  0  0  0
   -4.5386    5.3109   10.4607 C   0  0  0  0  0  0  0  0  0  0  0  0
   -4.2909    4.3722   11.4160 C   0  0  0  0  0  0  0  0  0  0  0  0
   -3.6006    4.9216   12.4678 C   0  0  0  0  0  0  0  0  0  0  0  0
   -3.2618    6.5820   12.2581 S   0  0  0  0  0  0  0  0  0  0  0  0
   -3.2573    4.1016   13.9480 S   0  0  0  0  0  0  0  0  0  0  0  0
   -1.8741    3.8313   13.9552 O   0  0  0  0  0  0  0  0  0  0  0  0
   -3.4638    5.0071   15.0309 O   0  0  0  0  0  0  0  0  0  0  0  0
   -4.0616    2.8468   14.0018 N   0  0  0  0  0  0  0  0  0  0  0  0
   -5.2479    1.3604   10.6217 H   0  0  0  0  0  0  0  0  0  0  0  0
   -5.4224    8.0885    9.1834 O   0  0  0  0  0  0  0  0  0  0  0  0
   -3.9909    9.0663   10.6281 O   0  0  0  0  0  0  0  0  0  0  0  0
   -3.0768    7.8377    8.7739 N   0  0  0  0  0  0  0  0  0  0  0  0
   -4.1552    7.9396    9.7735 S   0  0  0  0  0  0  0  0  0  0  0  0
   -3.2346    7.0194    8.1857 H   0  0  0  0  0  0  0  0  0  0  0  0
   -2.1794    7.7462    9.2500 H   0  0  0  0  0  0  0  0  0  0  0  0
   -5.4619    3.0501   14.3790 C   0  0  0  0  0  0  0  0  0  0  0  0
   -5.7272    2.3765   15.6239 C   0  0  0  0  0  0  0  0  0  0  0  0
   -6.6695    2.7139   16.5761 C   0  0  0  0  0  0  0  0  0  0  0  0
   -6.6621    1.8202   17.6135 C   0  0  0  0  0  0  0  0  0  0  0  0
   -5.7285    0.8046   17.4776 C   0  0  0  0  0  0  0  0  0  0  0  0
   -4.8268    0.9662   16.0100 S   0  0  0  0  0  0  0  0  0  0  0  0
  1 17  1  0  0  0
  1  5  2  0  0  0
  1  8  1  0  0  0
  2  4  1  0  0  0
  3  4  1  0  0  0
  3 12  1  0  0  0
  4  6  1  0  0  0
 20 21  1  0  0  0
 20 12  1  0  0  0
 21 22  2  0  0  0
 21 25  1  0  0  0
 22 23  1  0  0  0
 23 24  2  0  0  0
 24 25  1  0  0  0
 14 17  2  0  0  0
 15 17  2  0  0  0
 16 17  1  0  0  0
  5  6  1  0  0  0
  6  7  2  0  0  0
  7  8  1  0  0  0
  7  9  1  0  0  0
  9 10  2  0  0  0
  9 11  2  0  0  0
  9 12  1  0  0  0
  2 13  1  0  0  0
 16 18  1  0  0  0
 16 19  1  0  0  0
M  END
> <minimizedAffinity>
-6.83908

$$$$
1BNU_AL3_A_555


 25 27  0  0  0  0  0  0  0  0999 V2000
   -0.5381    5.4285   12.4086 C   0  0  0  0  0  0  0  0  0  0  0  0
   -3.8207    7.1741   14.7440 O   0  0  0  0  0  0  0  0  0  0  0  0
   -4.9538    5.1109   14.2537 C   0  0  0  0  0  0  0  0  0  0  0  0
   -3.5891    5.7808   14.6040 C   0  0  0  0  0  0  0  0  0  0  0  0
   -1.3180    6.1167   13.2806 C   0  0  0  0  0  0  0  0  0  0  0  0
   -2.5344    5.5518   13.5183 C   0  0  0  0  0  0  0  0  0  0  0  0
   -2.6765    4.3885   12.8034 C   0  0  0  0  0  0  0  0  0  0  0  0
   -1.3134    4.0153   11.8451 S   0  0  0  0  0  0  0  0  0  0  0  0
   -3.9997    3.2921   12.9715 S   0  0  0  0  0  0  0  0  0  0  0  0
   -4.7775    3.4064   11.8017 O   0  0  0  0  0  0  0  0  0  0  0  0
   -3.4938    1.9584   12.9515 O   0  0  0  0  0  0  0  0  0  0  0  0
   -4.7805    3.6615   14.1874 N   0  0  0  0  0  0  0  0  0  0  0  0
   -4.4888    7.3234   15.4313 H   0  0  0  0  0  0  0  0  0  0  0  0
    1.0431    6.1104   10.4793 O   0  0  0  0  0  0  0  0  0  0  0  0
    1.3625    7.0859   12.4889 O   0  0  0  0  0  0  0  0  0  0  0  0
    1.9208    4.7591   12.2503 N   0  0  0  0  0  0  0  0  0  0  0  0
    1.0161    5.8559   11.8616 S   0  0  0  0  0  0  0  0  0  0  0  0
    1.6363    3.9004   11.7790 H   0  0  0  0  0  0  0  0  0  0  0  0
    1.8763    4.6234   13.2602 H   0  0  0  0  0  0  0  0  0  0  0  0
   -4.1793    3.2097   15.4438 C   0  0  0  0  0  0  0  0  0  0  0  0
   -5.0915    2.3263   16.1231 C   0  0  0  0  0  0  0  0  0  0  0  0
   -4.8420    1.0417   16.5659 C   0  0  0  0  0  0  0  0  0  0  0  0
   -5.9357    0.5206   17.2042 C   0  0  0  0  0  0  0  0  0  0  0  0
   -7.0221    1.3800   17.2563 C   0  0  0  0  0  0  0  0  0  0  0  0
   -6.6735    2.8882   16.4837 S   0  0  0  0  0  0  0  0  0  0  0  0
  1 17  1  0  0  0
  1  5  2  0  0  0
  1  8  1  0  0  0
  2  4  1  0  0  0
  3  4  1  0  0  0
  3 12  1  0  0  0
  4  6  1  0  0  0
 20 21  1  0  0  0
 20 12  1  0  0  0
 21 22  2  0  0  0
 21 25  1  0  0  0
 22 23  1  0  0  0
 23 24  2  0  0  0
 24 25  1  0  0  0
 14 17  2  0  0  0
 15 17  2  0  0  0
 16 17  1  0  0  0
  5  6  1  0  0  0
  6  7  2  0  0  0
  7  8  1  0  0  0
  7  9  1  0  0  0
  9 10  2  0  0  0
  9 11  2  0  0  0
  9 12  1  0  0  0
  2 13  1  0  0  0
 16 18  1  0  0  0
 16 19  1  0  0  0
M  END
> <minimizedAffinity>
-6.70603

$$$$
1BNU_AL3_A_555


 25 27  0  0  0  0  0  0  0  0999 V2000
   -2.9296    6.4232   11.7295 C   0  0  0  0  0  0  0  0  0  0  0  0
   -6.8421    6.4848   13.7208 O   0  0  0  0  0  0  0  0  0  0  0  0
   -6.6094    4.0917   13.7362 C   0  0  0  0  0  0  0  0  0  0  0  0
   -5.8745    5.4596   13.8863 C   0  0  0  0  0  0  0  0  0  0  0  0
   -4.0396    6.7226   12.4510 C   0  0  0  0  0  0  0  0  0  0  0  0
   -4.7659    5.6402   12.8461 C   0  0  0  0  0  0  0  0  0  0  0  0
   -4.1787    4.4778   12.4119 C   0  0  0  0  0  0  0  0  0  0  0  0
   -2.7473    4.7386   11.5182 S   0  0  0  0  0  0  0  0  0  0  0  0
   -4.6968    2.8930   12.8604 S   0  0  0  0  0  0  0  0  0  0  0  0
   -5.2919    2.3184   11.7193 O   0  0  0  0  0  0  0  0  0  0  0  0
   -3.5453    2.0921   13.1211 O   0  0  0  0  0  0  0  0  0  0  0  0
   -5.6669    3.0039   13.9878 N   0  0  0  0  0  0  0  0  0  0  0  0
   -7.5465    6.3737   14.3784 H   0  0  0  0  0  0  0  0  0  0  0  0
   -1.5871    8.6278   11.8865 O   0  0  0  0  0  0  0  0  0  0  0  0
   -0.5670    6.8453   10.9514 O   0  0  0  0  0  0  0  0  0  0  0  0
   -2.3488    7.9066    9.7342 N   0  0  0  0  0  0  0  0  0  0  0  0
   -1.8168    7.5192   11.0531 S   0  0  0  0  0  0  0  0  0  0  0  0
   -3.2418    8.3846    9.8548 H   0  0  0  0  0  0  0  0  0  0  0  0
   -2.4842    7.0720    9.1636 H   0  0  0  0  0  0  0  0  0  0  0  0
   -5.0427    3.2255   15.2938 C   0  0  0  0  0  0  0  0  0  0  0  0
   -5.6043    2.3133   16.2562 C   0  0  0  0  0  0  0  0  0  0  0  0
   -6.6693    2.5413   17.1061 C   0  0  0  0  0  0  0  0  0  0  0  0
   -6.9480    1.4291   17.8546 C   0  0  0  0  0  0  0  0  0  0  0  0
   -6.1140    0.3520   17.5980 C   0  0  0  0  0  0  0  0  0  0  0  0
   -4.9410    0.7347   16.3853 S   0  0  0  0  0  0  0  0  0  0  0  0
  1 17  1  0  0  0
  1  5  2  0  0  0
  1  8  1  0  0  0
  2  4  1  0  0  0
  3  4  1  0  0  0
  3 12  1  0  0  0
  4  6  1  0  0  0
 20 21  1  0  0  0
 20 12  1  0  0  0
 21 22  2  0  0  0
 21 25  1  0  0  0
 22 23  1  0  0  0
 23 24  2  0  0  0
 24 25  1  0  0  0
 14 17  2  0  0  0
 15 17  2  0  0  0
 16 17  1  0  0  0
  5  6  1  0  0  0
  6  7  2  0  0  0
  7  8  1  0  0  0
  7  9  1  0  0  0
  9 10  2  0  0  0
  9 11  2  0  0  0
  9 12  1  0  0  0
  2 13  1  0  0  0
 16 18  1  0  0  0
 16 19  1  0  0  0
M  END
> <minimizedAffinity>
-6.44712

$$$$
1BNU_AL3_A_555


 25 27  0  0  0  0  0  0  0  0999 V2000
   -2.4499    8.3738   13.1653 C   0  0  0  0  0  0  0  0  0  0  0  0
   -5.7184    5.9781   11.4755 O   0  0  0  0  0  0  0  0  0  0  0  0
   -4.5801    4.1275   12.5055 C   0  0  0  0  0  0  0  0  0  0  0  0
   -4.9868    5.6276   12.6403 C   0  0  0  0  0  0  0  0  0  0  0  0
   -3.6249    7.9005   12.6777 C   0  0  0  0  0  0  0  0  0  0  0  0
   -3.7712    6.5494   12.7684 C   0  0  0  0  0  0  0  0  0  0  0  0
   -2.6671    5.9805   13.3529 C   0  0  0  0  0  0  0  0  0  0  0  0
   -1.4651    7.1182   13.7730 S   0  0  0  0  0  0  0  0  0  0  0  0
   -2.5462    4.3185   13.8050 S   0  0  0  0  0  0  0  0  0  0  0  0
   -1.6446    3.7139   12.9060 O   0  0  0  0  0  0  0  0  0  0  0  0
   -1.9101    4.2364   15.0794 O   0  0  0  0  0  0  0  0  0  0  0  0
   -3.8998    3.6973   13.7250 N   0  0  0  0  0  0  0  0  0  0  0  0
   -6.4897    5.3961   11.3908 H   0  0  0  0  0  0  0  0  0  0  0  0
   -2.0706   10.5856   14.4504 O   0  0  0  0  0  0  0  0  0  0  0  0
   -0.5235    9.9846   12.9215 O   0  0  0  0  0  0  0  0  0  0  0  0
   -2.6817   10.6999   12.1381 N   0  0  0  0  0  0  0  0  0  0  0  0
   -1.9225    9.9920   13.1846 S   0  0  0  0  0  0  0  0  0  0  0  0
   -3.6755   10.6803   12.3670 H   0  0  0  0  0  0  0  0  0  0  0  0
   -2.5306   10.2414   11.2396 H   0  0  0  0  0  0  0  0  0  0  0  0
   -4.7643    3.9989   14.8678 C   0  0  0  0  0  0  0  0  0  0  0  0
   -5.1272    2.7741   15.5326 C   0  0  0  0  0  0  0  0  0  0  0  0
   -4.4402    1.5756   15.5168 C   0  0  0  0  0  0  0  0  0  0  0  0
   -5.0657    0.6401   16.2969 C   0  0  0  0  0  0  0  0  0  0  0  0
   -6.2228    1.0967   16.9086 C   0  0  0  0  0  0  0  0  0  0  0  0
   -6.5464    2.7461   16.4990 S   0  0  0  0  0  0  0  0  0  0  0  0
  1 17  1  0  0  0
  1  5  2  0  0  0
  1  8  1  0  0  0
  2  4  1  0  0  0
  3  4  1  0  0  0
  3 12  1  0  0  0
  4  6  1  0  0  0
 20 21  1  0  0  0
 20 12  1  0  0  0
 21 22  2  0  0  0
 21 25  1  0  0  0
 22 23  1  0  0  0
 23 24  2  0  0  0
 24 25  1  0  0  0
 14 17  2  0  0  0
 15 17  2  0  0  0
 16 17  1  0  0  0
  5  6  1  0  0  0
  6  7  2  0  0  0
  7  8  1  0  0  0
  7  9  1  0  0  0
  9 10  2  0  0  0
  9 11  2  0  0  0
  9 12  1  0  0  0
  2 13  1  0  0  0
 16 18  1  0  0  0
 16 19  1  0  0  0
M  END
> <minimizedAffinity>
-6.11234

$$$$
1BNU_AL3_A_555


 25 27  0  0  0  0  0  0  0  0999 V2000
   -4.3098    2.8212   14.7709 C   0  0  0  0  0  0  0  0  0  0  0  0
   -0.8096    4.5800   12.7878 O   0  0  0  0  0  0  0  0  0  0  0  0
   -2.4198    6.0387   11.7577 C   0  0  0  0  0  0  0  0  0  0  0  0
   -2.0135    5.2811   13.0596 C   0  0  0  0  0  0  0  0  0  0  0  0
   -3.0785    3.2720   14.4201 C   0  0  0  0  0  0  0  0  0  0  0  0
   -3.0856    4.2857   13.5106 C   0  0  0  0  0  0  0  0  0  0  0  0
   -4.3721    4.6182   13.1656 C   0  0  0  0  0  0  0  0  0  0  0  0
   -5.5495    3.6714   13.9610 S   0  0  0  0  0  0  0  0  0  0  0  0
   -4.8028    5.9689   12.1799 S   0  0  0  0  0  0  0  0  0  0  0  0
   -5.2376    5.4513   10.9432 O   0  0  0  0  0  0  0  0  0  0  0  0
   -5.9526    6.5979   12.7434 O   0  0  0  0  0  0  0  0  0  0  0  0
   -3.6086    6.8475   12.0174 N   0  0  0  0  0  0  0  0  0  0  0  0
   -0.1276    5.2076   12.5016 H   0  0  0  0  0  0  0  0  0  0  0  0
   -5.0023    0.3634   15.1794 O   0  0  0  0  0  0  0  0  0  0  0  0
   -3.4857    1.2707   16.5826 O   0  0  0  0  0  0  0  0  0  0  0  0
   -5.7623    2.0335   16.7175 N   0  0  0  0  0  0  0  0  0  0  0  0
   -4.6720    1.5547   15.8488 S   0  0  0  0  0  0  0  0  0  0  0  0
   -6.5893    2.2238   16.1516 H   0  0  0  0  0  0  0  0  0  0  0  0
   -5.4696    2.8887   17.1902 H   0  0  0  0  0  0  0  0  0  0  0  0
   -3.3391    7.7090   13.1704 C   0  0  0  0  0  0  0  0  0  0  0  0
   -2.9145    9.0066   12.7124 C   0  0  0  0  0  0  0  0  0  0  0  0
   -2.0178    9.8605   13.3250 C   0  0  0  0  0  0  0  0  0  0  0  0
   -1.8283   10.9926   12.5784 C   0  0  0  0  0  0  0  0  0  0  0  0
   -2.5660   11.0258   11.4054 C   0  0  0  0  0  0  0  0  0  0  0  0
   -3.5306    9.6012   11.2239 S   0  0  0  0  0  0  0  0  0  0  0  0
  1 17  1  0  0  0
  1  5  2  0  0  0
  1  8  1  0  0  0
  2  4  1  0  0  0
  3  4  1  0  0  0
  3 12  1  0  0  0
  4  6  1  0  0  0
 20 21  1  0  0  0
 20 12  1  0  0  0
 21 22  2  0  0  0
 21 25  1  0  0  0
 22 23  1  0  0  0
 23 24  2  0  0  0
 24 25  1  0  0  0
 14 17  2  0  0  0
 15 17  2  0  0  0
 16 17  1  0  0  0
  5  6  1  0  0  0
  6  7  2  0  0  0
  7  8  1  0  0  0
  7  9  1  0  0  0
  9 10  2  0  0  0
  9 11  2  0  0  0
  9 12  1  0  0  0
  2 13  1  0  0  0
 16 18  1  0  0  0
 16 19  1  0  0  0
M  END
> <minimizedAffinity>
-5.89747

$$$$
