3LDP_3P1_A_408


 37 41  0  0  0  0  0  0  0  0999 V2000
   12.4113   -9.5580    6.5074 N   0  0  0  0  0  0  0  0  0  0  0  0
   12.6200   -8.4385    7.2221 C   0  0  0  0  0  0  0  0  0  0  0  0
   13.7389   -7.7237    7.0539 N   0  0  0  0  0  0  0  0  0  0  0  0
   13.3209   -9.9768    5.6012 C   0  0  0  0  0  0  0  0  0  0  0  0
   15.8451   -7.6216    5.8087 N   0  0  0  0  0  0  0  0  0  0  0  0
   16.3821   -8.4027    4.8478 C   0  0  0  0  0  0  0  0  0  0  0  0
   15.5328   -9.4264    4.6141 N   0  0  0  0  0  0  0  0  0  0  0  0
   14.4725   -9.2635    5.4208 C   0  0  0  0  0  0  0  0  0  0  0  0
   14.6799   -8.1311    6.1651 C   0  0  0  0  0  0  0  0  0  0  0  0
   13.0978  -11.0745    4.8924 N   0  0  0  0  0  0  0  0  0  0  0  0
   12.2669  -11.5857    5.0252 H   0  0  0  0  0  0  0  0  0  0  0  0
   13.7628  -11.3786    4.2333 H   0  0  0  0  0  0  0  0  0  0  0  0
   16.4232   -6.4330    6.3331 C   0  0  0  0  0  0  0  0  0  0  0  0
   16.7949   -5.5758    5.2421 O   0  0  0  0  0  0  0  0  0  0  0  0
   17.8132   -4.6655    5.8186 C   0  0  0  0  0  0  0  0  0  0  0  0
   18.4382   -5.4454    6.9929 C   0  0  0  0  0  0  0  0  0  0  0  0
   17.7309   -6.7813    6.9636 C   0  0  0  0  0  0  0  0  0  0  0  0
   18.1427   -4.7798    8.2028 O   0  0  0  0  0  0  0  0  0  0  0  0
   17.5091   -7.2590    8.3212 O   0  0  0  0  0  0  0  0  0  0  0  0
   17.1816   -4.6846    8.2931 H   0  0  0  0  0  0  0  0  0  0  0  0
   17.0165   -6.5906    8.8227 H   0  0  0  0  0  0  0  0  0  0  0  0
   18.9069   -4.4069    4.7769 C   0  0  0  0  0  0  0  0  0  0  0  0
   18.8693   -5.4335    3.7609 O   0  0  0  0  0  0  0  0  0  0  0  0
   19.0189   -6.2998    4.1708 H   0  0  0  0  0  0  0  0  0  0  0  0
   17.5646   -8.1937    4.2455 N   0  0  0  0  0  0  0  0  0  0  0  0
   17.6113   -7.6094    3.4545 H   0  0  0  0  0  0  0  0  0  0  0  0
   18.7725   -8.8183    4.7467 C   0  0  0  0  0  0  0  0  0  0  0  0
   19.4349   -9.6129    3.6377 C   0  0  0  0  0  0  0  0  0  0  0  0
   20.7131  -10.0582    3.7993 N   0  0  0  0  0  0  0  0  0  0  0  0
   19.3577  -10.6305    1.4665 C   0  0  0  0  0  0  0  0  0  0  0  0
   18.7396   -9.8985    2.4797 C   0  0  0  0  0  0  0  0  0  0  0  0
   20.6671  -11.0679    1.6389 C   0  0  0  0  0  0  0  0  0  0  0  0
   21.3356  -10.7790    2.8172 C   0  0  0  0  0  0  0  0  0  0  0  0
   22.6609  -11.2258    3.0041 C   0  0  0  0  0  0  0  0  0  0  0  0
   23.2980  -11.9630    2.0019 C   0  0  0  0  0  0  0  0  0  0  0  0
   22.6216  -12.2577    0.8174 C   0  0  0  0  0  0  0  0  0  0  0  0
   21.3000  -11.8081    0.6363 C   0  0  0  0  0  0  0  0  0  0  0  0
  2  1  2  0  0  0
  4  1  1  0  0  0
  3  2  1  0  0  0
  9  3  2  0  0  0
  8  4  2  0  0  0
  4 10  1  0  0  0
 13  5  1  0  0  0
  5  6  1  0  0  0
  5  9  1  0  0  0
 25  6  1  0  0  0
  6  7  2  0  0  0
  7  8  1  0  0  0
  9  8  1  0  0  0
 17 13  1  0  0  0
 13 14  1  0  0  0
 15 14  1  0  0  0
 16 15  1  0  0  0
 22 15  1  0  0  0
 18 16  1  0  0  0
 16 17  1  0  0  0
 19 17  1  0  0  0
 25 27  1  0  0  0
 28 27  1  0  0  0
 31 28  2  0  0  0
 28 29  1  0  0  0
 33 29  2  0  0  0
 30 32  2  0  0  0
 30 31  1  0  0  0
 37 32  1  0  0  0
 32 33  1  0  0  0
 33 34  1  0  0  0
 35 34  2  0  0  0
 36 35  1  0  0  0
 37 36  2  0  0  0
 22 23  1  0  0  0
 10 11  1  0  0  0
 10 12  1  0  0  0
 25 26  1  0  0  0
 23 24  1  0  0  0
 18 20  1  0  0  0
 19 21  1  0  0  0
M  END
> <minimizedAffinity>
-9.79844

$$$$
3LDP_3P1_A_408


 37 41  0  0  0  0  0  0  0  0999 V2000
   13.0280   -9.0385    6.3687 N   0  0  0  0  0  0  0  0  0  0  0  0
   13.6807   -8.0609    7.0211 C   0  0  0  0  0  0  0  0  0  0  0  0
   14.9250   -7.7198    6.6653 N   0  0  0  0  0  0  0  0  0  0  0  0
   13.6110   -9.6875    5.3376 C   0  0  0  0  0  0  0  0  0  0  0  0
   16.7386   -8.2304    5.1012 N   0  0  0  0  0  0  0  0  0  0  0  0
   16.8517   -9.1076    4.0816 C   0  0  0  0  0  0  0  0  0  0  0  0
   15.7024   -9.8126    4.0035 N   0  0  0  0  0  0  0  0  0  0  0  0
   14.8835   -9.3575    4.9647 C   0  0  0  0  0  0  0  0  0  0  0  0
   15.5436   -8.3681    5.6464 C   0  0  0  0  0  0  0  0  0  0  0  0
   12.9524  -10.6402    4.6929 N   0  0  0  0  0  0  0  0  0  0  0  0
   12.0357  -10.8752    4.9646 H   0  0  0  0  0  0  0  0  0  0  0  0
   13.3798  -11.1128    3.9425 H   0  0  0  0  0  0  0  0  0  0  0  0
   17.7296   -7.2945    5.5061 C   0  0  0  0  0  0  0  0  0  0  0  0
   17.8655   -7.3495    6.9349 O   0  0  0  0  0  0  0  0  0  0  0  0
   18.4817   -6.0507    7.2972 C   0  0  0  0  0  0  0  0  0  0  0  0
   18.0743   -5.0788    6.1716 C   0  0  0  0  0  0  0  0  0  0  0  0
   17.2089   -5.9173    5.2585 C   0  0  0  0  0  0  0  0  0  0  0  0
   19.2305   -4.6616    5.4762 O   0  0  0  0  0  0  0  0  0  0  0  0
   17.4425   -5.5469    3.8697 O   0  0  0  0  0  0  0  0  0  0  0  0
   19.7033   -5.4387    5.1396 H   0  0  0  0  0  0  0  0  0  0  0  0
   18.3870   -5.6335    3.6665 H   0  0  0  0  0  0  0  0  0  0  0  0
   17.8697   -5.5499    8.6097 C   0  0  0  0  0  0  0  0  0  0  0  0
   18.3397   -6.3595    9.7104 O   0  0  0  0  0  0  0  0  0  0  0  0
   18.0767   -7.2823    9.5685 H   0  0  0  0  0  0  0  0  0  0  0  0
   17.9319   -9.2532    3.2962 N   0  0  0  0  0  0  0  0  0  0  0  0
   18.6112   -8.5412    3.2664 H   0  0  0  0  0  0  0  0  0  0  0  0
   18.1088  -10.4461    2.4925 C   0  0  0  0  0  0  0  0  0  0  0  0
   19.5867  -10.7619    2.3651 C   0  0  0  0  0  0  0  0  0  0  0  0
   20.4091  -10.5793    3.4368 N   0  0  0  0  0  0  0  0  0  0  0  0
   21.4514  -11.5368    1.0697 C   0  0  0  0  0  0  0  0  0  0  0  0
   20.0911  -11.2489    1.1759 C   0  0  0  0  0  0  0  0  0  0  0  0
   22.2819  -11.3336    2.1671 C   0  0  0  0  0  0  0  0  0  0  0  0
   21.7459  -10.8575    3.3523 C   0  0  0  0  0  0  0  0  0  0  0  0
   22.5794  -10.6563    4.4729 C   0  0  0  0  0  0  0  0  0  0  0  0
   23.9453  -10.9408    4.3883 C   0  0  0  0  0  0  0  0  0  0  0  0
   24.4831  -11.4252    3.1952 C   0  0  0  0  0  0  0  0  0  0  0  0
   23.6467  -11.6226    2.0803 C   0  0  0  0  0  0  0  0  0  0  0  0
  2  1  2  0  0  0
  4  1  1  0  0  0
  3  2  1  0  0  0
  9  3  2  0  0  0
  8  4  2  0  0  0
  4 10  1  0  0  0
 13  5  1  0  0  0
  5  6  1  0  0  0
  5  9  1  0  0  0
 25  6  1  0  0  0
  6  7  2  0  0  0
  7  8  1  0  0  0
  9  8  1  0  0  0
 17 13  1  0  0  0
 13 14  1  0  0  0
 15 14  1  0  0  0
 16 15  1  0  0  0
 22 15  1  0  0  0
 18 16  1  0  0  0
 16 17  1  0  0  0
 19 17  1  0  0  0
 25 27  1  0  0  0
 28 27  1  0  0  0
 31 28  2  0  0  0
 28 29  1  0  0  0
 33 29  2  0  0  0
 30 32  2  0  0  0
 30 31  1  0  0  0
 37 32  1  0  0  0
 32 33  1  0  0  0
 33 34  1  0  0  0
 35 34  2  0  0  0
 36 35  1  0  0  0
 37 36  2  0  0  0
 22 23  1  0  0  0
 10 11  1  0  0  0
 10 12  1  0  0  0
 25 26  1  0  0  0
 23 24  1  0  0  0
 18 20  1  0  0  0
 19 21  1  0  0  0
M  END
> <minimizedAffinity>
-9.36766

$$$$
3LDP_3P1_A_408


 37 41  0  0  0  0  0  0  0  0999 V2000
   21.8127  -12.6508    5.4480 N   0  0  0  0  0  0  0  0  0  0  0  0
   21.1228  -13.3090    4.5001 C   0  0  0  0  0  0  0  0  0  0  0  0
   20.2511  -12.6592    3.7197 N   0  0  0  0  0  0  0  0  0  0  0  0
   21.6464  -11.3221    5.6242 C   0  0  0  0  0  0  0  0  0  0  0  0
   19.2681  -10.4630    3.2647 N   0  0  0  0  0  0  0  0  0  0  0  0
   19.4682   -9.2394    3.7983 C   0  0  0  0  0  0  0  0  0  0  0  0
   20.3856   -9.3544    4.7827 N   0  0  0  0  0  0  0  0  0  0  0  0
   20.7556  -10.6433    4.8412 C   0  0  0  0  0  0  0  0  0  0  0  0
   20.0482  -11.3280    3.8872 C   0  0  0  0  0  0  0  0  0  0  0  0
   22.3424  -10.6815    6.5527 N   0  0  0  0  0  0  0  0  0  0  0  0
   22.9833  -11.1739    7.1148 H   0  0  0  0  0  0  0  0  0  0  0  0
   22.2186   -9.7131    6.6801 H   0  0  0  0  0  0  0  0  0  0  0  0
   18.3846  -10.7681    2.1931 C   0  0  0  0  0  0  0  0  0  0  0  0
   17.7279  -12.0146    2.4720 O   0  0  0  0  0  0  0  0  0  0  0  0
   17.2678  -12.4938    1.1466 C   0  0  0  0  0  0  0  0  0  0  0  0
   18.2274  -11.8502    0.1255 C   0  0  0  0  0  0  0  0  0  0  0  0
   19.1998  -11.0678    0.9788 C   0  0  0  0  0  0  0  0  0  0  0  0
   17.5018  -10.9632   -0.6996 O   0  0  0  0  0  0  0  0  0  0  0  0
   19.5616   -9.8249    0.3119 O   0  0  0  0  0  0  0  0  0  0  0  0
   17.0526  -10.3032   -0.1486 H   0  0  0  0  0  0  0  0  0  0  0  0
   18.7580   -9.3206    0.1097 H   0  0  0  0  0  0  0  0  0  0  0  0
   17.4370  -14.0150    1.0729 C   0  0  0  0  0  0  0  0  0  0  0  0
   18.2593  -14.4708    2.1700 O   0  0  0  0  0  0  0  0  0  0  0  0
   19.1320  -14.0507    2.1163 H   0  0  0  0  0  0  0  0  0  0  0  0
   18.8456   -8.1121    3.4156 N   0  0  0  0  0  0  0  0  0  0  0  0
   18.5768   -8.0000    2.4752 H   0  0  0  0  0  0  0  0  0  0  0  0
   18.5650   -7.0592    4.3711 C   0  0  0  0  0  0  0  0  0  0  0  0
   17.2605   -7.3530    5.0868 C   0  0  0  0  0  0  0  0  0  0  0  0
   16.4718   -8.3778    4.6555 N   0  0  0  0  0  0  0  0  0  0  0  0
   15.6836   -6.8770    6.8310 C   0  0  0  0  0  0  0  0  0  0  0  0
   16.8846   -6.5980    6.1797 C   0  0  0  0  0  0  0  0  0  0  0  0
   14.8818   -7.9174    6.3726 C   0  0  0  0  0  0  0  0  0  0  0  0
   15.2909   -8.6676    5.2824 C   0  0  0  0  0  0  0  0  0  0  0  0
   14.4880   -9.7300    4.8158 C   0  0  0  0  0  0  0  0  0  0  0  0
   13.2816  -10.0277    5.4559 C   0  0  0  0  0  0  0  0  0  0  0  0
   12.8730   -9.2744    6.5571 C   0  0  0  0  0  0  0  0  0  0  0  0
   13.6777   -8.2149    7.0171 C   0  0  0  0  0  0  0  0  0  0  0  0
  2  1  2  0  0  0
  4  1  1  0  0  0
  3  2  1  0  0  0
  9  3  2  0  0  0
  8  4  2  0  0  0
  4 10  1  0  0  0
 13  5  1  0  0  0
  5  6  1  0  0  0
  5  9  1  0  0  0
 25  6  1  0  0  0
  6  7  2  0  0  0
  7  8  1  0  0  0
  9  8  1  0  0  0
 17 13  1  0  0  0
 13 14  1  0  0  0
 15 14  1  0  0  0
 16 15  1  0  0  0
 22 15  1  0  0  0
 18 16  1  0  0  0
 16 17  1  0  0  0
 19 17  1  0  0  0
 25 27  1  0  0  0
 28 27  1  0  0  0
 31 28  2  0  0  0
 28 29  1  0  0  0
 33 29  2  0  0  0
 30 32  2  0  0  0
 30 31  1  0  0  0
 37 32  1  0  0  0
 32 33  1  0  0  0
 33 34  1  0  0  0
 35 34  2  0  0  0
 36 35  1  0  0  0
 37 36  2  0  0  0
 22 23  1  0  0  0
 10 11  1  0  0  0
 10 12  1  0  0  0
 25 26  1  0  0  0
 23 24  1  0  0  0
 18 20  1  0  0  0
 19 21  1  0  0  0
M  END
> <minimizedAffinity>
-9.30804

$$$$
3LDP_3P1_A_408


 37 41  0  0  0  0  0  0  0  0999 V2000
   12.9820  -10.2816    5.4348 N   0  0  0  0  0  0  0  0  0  0  0  0
   13.9184  -10.7039    4.5673 C   0  0  0  0  0  0  0  0  0  0  0  0
   15.0727  -10.0393    4.4369 N   0  0  0  0  0  0  0  0  0  0  0  0
   13.1918   -9.1862    6.1964 C   0  0  0  0  0  0  0  0  0  0  0  0
   16.3343   -8.1013    5.2427 N   0  0  0  0  0  0  0  0  0  0  0  0
   16.0720   -7.1564    6.1702 C   0  0  0  0  0  0  0  0  0  0  0  0
   14.8435   -7.3946    6.6780 N   0  0  0  0  0  0  0  0  0  0  0  0
   14.3617   -8.4910    6.0719 C   0  0  0  0  0  0  0  0  0  0  0  0
   15.3031   -8.9237    5.1742 C   0  0  0  0  0  0  0  0  0  0  0  0
   12.2670   -8.7875    7.0582 N   0  0  0  0  0  0  0  0  0  0  0  0
   11.4254   -9.2909    7.1451 H   0  0  0  0  0  0  0  0  0  0  0  0
   12.4216   -7.9879    7.6114 H   0  0  0  0  0  0  0  0  0  0  0  0
   17.5314   -8.2107    4.4832 C   0  0  0  0  0  0  0  0  0  0  0  0
   17.2480   -8.9216    3.2677 O   0  0  0  0  0  0  0  0  0  0  0  0
   18.5669   -9.4315    2.8224 C   0  0  0  0  0  0  0  0  0  0  0  0
   19.4127   -9.5486    4.1065 C   0  0  0  0  0  0  0  0  0  0  0  0
   18.4695   -9.1189    5.2072 C   0  0  0  0  0  0  0  0  0  0  0  0
   20.4967   -8.6465    4.0332 O   0  0  0  0  0  0  0  0  0  0  0  0
   19.1950   -8.3671    6.2216 O   0  0  0  0  0  0  0  0  0  0  0  0
   20.1604   -7.7474    3.8935 H   0  0  0  0  0  0  0  0  0  0  0  0
   19.6457   -7.6153    5.8062 H   0  0  0  0  0  0  0  0  0  0  0  0
   18.3927  -10.8348    2.2319 C   0  0  0  0  0  0  0  0  0  0  0  0
   17.1305  -11.3934    2.6590 O   0  0  0  0  0  0  0  0  0  0  0  0
   17.1136  -11.4514    3.6271 H   0  0  0  0  0  0  0  0  0  0  0  0
   16.8946   -6.1502    6.5104 N   0  0  0  0  0  0  0  0  0  0  0  0
   17.4412   -5.7134    5.8179 H   0  0  0  0  0  0  0  0  0  0  0  0
   16.9866   -5.7003    7.8850 C   0  0  0  0  0  0  0  0  0  0  0  0
   18.4433   -5.6166    8.2988 C   0  0  0  0  0  0  0  0  0  0  0  0
   18.8207   -6.0655    9.5293 N   0  0  0  0  0  0  0  0  0  0  0  0
   20.7200   -5.0341    7.8161 C   0  0  0  0  0  0  0  0  0  0  0  0
   19.3832   -5.1058    7.4260 C   0  0  0  0  0  0  0  0  0  0  0  0
   21.0896   -5.4836    9.0797 C   0  0  0  0  0  0  0  0  0  0  0  0
   20.1276   -6.0047    9.9292 C   0  0  0  0  0  0  0  0  0  0  0  0
   20.4947   -6.4707   11.2095 C   0  0  0  0  0  0  0  0  0  0  0  0
   21.8297   -6.4100   11.6191 C   0  0  0  0  0  0  0  0  0  0  0  0
   22.7988   -5.8895   10.7604 C   0  0  0  0  0  0  0  0  0  0  0  0
   22.4260   -5.4250    9.4849 C   0  0  0  0  0  0  0  0  0  0  0  0
  2  1  2  0  0  0
  4  1  1  0  0  0
  3  2  1  0  0  0
  9  3  2  0  0  0
  8  4  2  0  0  0
  4 10  1  0  0  0
 13  5  1  0  0  0
  5  6  1  0  0  0
  5  9  1  0  0  0
 25  6  1  0  0  0
  6  7  2  0  0  0
  7  8  1  0  0  0
  9  8  1  0  0  0
 17 13  1  0  0  0
 13 14  1  0  0  0
 15 14  1  0  0  0
 16 15  1  0  0  0
 22 15  1  0  0  0
 18 16  1  0  0  0
 16 17  1  0  0  0
 19 17  1  0  0  0
 25 27  1  0  0  0
 28 27  1  0  0  0
 31 28  2  0  0  0
 28 29  1  0  0  0
 33 29  2  0  0  0
 30 32  2  0  0  0
 30 31  1  0  0  0
 37 32  1  0  0  0
 32 33  1  0  0  0
 33 34  1  0  0  0
 35 34  2  0  0  0
 36 35  1  0  0  0
 37 36  2  0  0  0
 22 23  1  0  0  0
 10 11  1  0  0  0
 10 12  1  0  0  0
 25 26  1  0  0  0
 23 24  1  0  0  0
 18 20  1  0  0  0
 19 21  1  0  0  0
M  END
> <minimizedAffinity>
-8.98602

$$$$
3LDP_3P1_A_408


 37 41  0  0  0  0  0  0  0  0999 V2000
   22.9226  -12.3559    7.3209 N   0  0  0  0  0  0  0  0  0  0  0  0
   22.9284  -13.3465    6.4120 C   0  0  0  0  0  0  0  0  0  0  0  0
   22.2082  -13.2424    5.2888 N   0  0  0  0  0  0  0  0  0  0  0  0
   22.1985  -11.2347    7.1138 C   0  0  0  0  0  0  0  0  0  0  0  0
   20.6726  -11.7841    4.0591 N   0  0  0  0  0  0  0  0  0  0  0  0
   20.1751  -10.5548    4.3103 C   0  0  0  0  0  0  0  0  0  0  0  0
   20.6527  -10.1435    5.5047 N   0  0  0  0  0  0  0  0  0  0  0  0
   21.4515  -11.1137    5.9760 C   0  0  0  0  0  0  0  0  0  0  0  0
   21.4551  -12.1364    5.0630 C   0  0  0  0  0  0  0  0  0  0  0  0
   22.2115  -10.2587    8.0106 N   0  0  0  0  0  0  0  0  0  0  0  0
   22.7509  -10.3496    8.8292 H   0  0  0  0  0  0  0  0  0  0  0  0
   21.6819   -9.4430    7.8582 H   0  0  0  0  0  0  0  0  0  0  0  0
   20.4192  -12.5615    2.8957 C   0  0  0  0  0  0  0  0  0  0  0  0
   20.4966  -11.7103    1.7413 O   0  0  0  0  0  0  0  0  0  0  0  0
   19.7359  -12.4361    0.6961 C   0  0  0  0  0  0  0  0  0  0  0  0
   18.7337  -13.3221    1.4633 C   0  0  0  0  0  0  0  0  0  0  0  0
   18.9897  -12.9914    2.9163 C   0  0  0  0  0  0  0  0  0  0  0  0
   19.0378  -14.6806    1.2264 O   0  0  0  0  0  0  0  0  0  0  0  0
   18.8493  -14.1887    3.7333 O   0  0  0  0  0  0  0  0  0  0  0  0
   19.9567  -14.8558    1.4829 H   0  0  0  0  0  0  0  0  0  0  0  0
   19.4443  -14.8787    3.4006 H   0  0  0  0  0  0  0  0  0  0  0  0
   18.9427  -11.4285   -0.1427 C   0  0  0  0  0  0  0  0  0  0  0  0
   18.3987  -10.3988    0.7126 O   0  0  0  0  0  0  0  0  0  0  0  0
   17.8081  -10.8017    1.3682 H   0  0  0  0  0  0  0  0  0  0  0  0
   19.3392   -9.8746    3.5081 N   0  0  0  0  0  0  0  0  0  0  0  0
   18.9415  -10.3233    2.7272 H   0  0  0  0  0  0  0  0  0  0  0  0
   19.0160   -8.4881    3.7790 C   0  0  0  0  0  0  0  0  0  0  0  0
   17.7274   -8.4099    4.5751 C   0  0  0  0  0  0  0  0  0  0  0  0
   16.6679   -9.1905    4.2198 N   0  0  0  0  0  0  0  0  0  0  0  0
   16.4470   -7.5028    6.3898 C   0  0  0  0  0  0  0  0  0  0  0  0
   17.6361   -7.5664    5.6642 C   0  0  0  0  0  0  0  0  0  0  0  0
   15.3690   -8.2953    6.0086 C   0  0  0  0  0  0  0  0  0  0  0  0
   15.4938   -9.1431    4.9203 C   0  0  0  0  0  0  0  0  0  0  0  0
   14.4084   -9.9566    4.5316 C   0  0  0  0  0  0  0  0  0  0  0  0
   13.2084   -9.9097    5.2469 C   0  0  0  0  0  0  0  0  0  0  0  0
   13.0856   -9.0589    6.3461 C   0  0  0  0  0  0  0  0  0  0  0  0
   14.1716   -8.2488    6.7282 C   0  0  0  0  0  0  0  0  0  0  0  0
  2  1  2  0  0  0
  4  1  1  0  0  0
  3  2  1  0  0  0
  9  3  2  0  0  0
  8  4  2  0  0  0
  4 10  1  0  0  0
 13  5  1  0  0  0
  5  6  1  0  0  0
  5  9  1  0  0  0
 25  6  1  0  0  0
  6  7  2  0  0  0
  7  8  1  0  0  0
  9  8  1  0  0  0
 17 13  1  0  0  0
 13 14  1  0  0  0
 15 14  1  0  0  0
 16 15  1  0  0  0
 22 15  1  0  0  0
 18 16  1  0  0  0
 16 17  1  0  0  0
 19 17  1  0  0  0
 25 27  1  0  0  0
 28 27  1  0  0  0
 31 28  2  0  0  0
 28 29  1  0  0  0
 33 29  2  0  0  0
 30 32  2  0  0  0
 30 31  1  0  0  0
 37 32  1  0  0  0
 32 33  1  0  0  0
 33 34  1  0  0  0
 35 34  2  0  0  0
 36 35  1  0  0  0
 37 36  2  0  0  0
 22 23  1  0  0  0
 10 11  1  0  0  0
 10 12  1  0  0  0
 25 26  1  0  0  0
 23 24  1  0  0  0
 18 20  1  0  0  0
 19 21  1  0  0  0
M  END
> <minimizedAffinity>
-8.97407

$$$$
3LDP_3P1_A_408


 37 41  0  0  0  0  0  0  0  0999 V2000
   20.2305  -12.9374    0.1056 N   0  0  0  0  0  0  0  0  0  0  0  0
   21.3752  -13.1877    0.7648 C   0  0  0  0  0  0  0  0  0  0  0  0
   21.7139  -12.4628    1.8376 N   0  0  0  0  0  0  0  0  0  0  0  0
   19.3974  -11.9577    0.5184 C   0  0  0  0  0  0  0  0  0  0  0  0
   20.9985  -10.6122    3.2730 N   0  0  0  0  0  0  0  0  0  0  0  0
   19.9015   -9.8257    3.2782 C   0  0  0  0  0  0  0  0  0  0  0  0
   19.1191  -10.1878    2.2386 N   0  0  0  0  0  0  0  0  0  0  0  0
   19.7301  -11.2027    1.6077 C   0  0  0  0  0  0  0  0  0  0  0  0
   20.9065  -11.4587    2.2634 C   0  0  0  0  0  0  0  0  0  0  0  0
   18.2648  -11.7295   -0.1312 N   0  0  0  0  0  0  0  0  0  0  0  0
   18.0286  -12.2755   -0.9157 H   0  0  0  0  0  0  0  0  0  0  0  0
   17.6597  -11.0139    0.1707 H   0  0  0  0  0  0  0  0  0  0  0  0
   22.0644  -10.5581    4.2125 C   0  0  0  0  0  0  0  0  0  0  0  0
   23.2639  -11.0359    3.5834 O   0  0  0  0  0  0  0  0  0  0  0  0
   24.1401  -11.4315    4.7120 C   0  0  0  0  0  0  0  0  0  0  0  0
   23.1820  -11.7699    5.8718 C   0  0  0  0  0  0  0  0  0  0  0  0
   21.8051  -11.5683    5.2807 C   0  0  0  0  0  0  0  0  0  0  0  0
   23.3840  -10.8512    6.9251 O   0  0  0  0  0  0  0  0  0  0  0  0
   20.9094  -11.0053    6.2813 O   0  0  0  0  0  0  0  0  0  0  0  0
   23.2588   -9.9479    6.5947 H   0  0  0  0  0  0  0  0  0  0  0  0
   21.2877  -10.1817    6.6271 H   0  0  0  0  0  0  0  0  0  0  0  0
   24.9065  -12.7036    4.3347 C   0  0  0  0  0  0  0  0  0  0  0  0
   24.3273  -13.2916    3.1487 O   0  0  0  0  0  0  0  0  0  0  0  0
   23.3998  -13.5180    3.3201 H   0  0  0  0  0  0  0  0  0  0  0  0
   19.6502   -8.8463    4.1627 N   0  0  0  0  0  0  0  0  0  0  0  0
   20.0859   -8.8644    5.0454 H   0  0  0  0  0  0  0  0  0  0  0  0
   18.7453   -7.7634    3.8327 C   0  0  0  0  0  0  0  0  0  0  0  0
   17.4711   -7.8971    4.6443 C   0  0  0  0  0  0  0  0  0  0  0  0
   16.5346   -8.8184    4.2805 N   0  0  0  0  0  0  0  0  0  0  0  0
   16.0961   -7.2341    6.4951 C   0  0  0  0  0  0  0  0  0  0  0  0
   17.2709   -7.1026    5.7554 C   0  0  0  0  0  0  0  0  0  0  0  0
   15.1427   -8.1693    6.1053 C   0  0  0  0  0  0  0  0  0  0  0  0
   15.3766   -8.9630    4.9945 C   0  0  0  0  0  0  0  0  0  0  0  0
   14.4189   -9.9199    4.5968 C   0  0  0  0  0  0  0  0  0  0  0  0
   13.2357  -10.0694    5.3259 C   0  0  0  0  0  0  0  0  0  0  0  0
   13.0035   -9.2726    6.4477 C   0  0  0  0  0  0  0  0  0  0  0  0
   13.9622   -8.3189    6.8387 C   0  0  0  0  0  0  0  0  0  0  0  0
  2  1  2  0  0  0
  4  1  1  0  0  0
  3  2  1  0  0  0
  9  3  2  0  0  0
  8  4  2  0  0  0
  4 10  1  0  0  0
 13  5  1  0  0  0
  5  6  1  0  0  0
  5  9  1  0  0  0
 25  6  1  0  0  0
  6  7  2  0  0  0
  7  8  1  0  0  0
  9  8  1  0  0  0
 17 13  1  0  0  0
 13 14  1  0  0  0
 15 14  1  0  0  0
 16 15  1  0  0  0
 22 15  1  0  0  0
 18 16  1  0  0  0
 16 17  1  0  0  0
 19 17  1  0  0  0
 25 27  1  0  0  0
 28 27  1  0  0  0
 31 28  2  0  0  0
 28 29  1  0  0  0
 33 29  2  0  0  0
 30 32  2  0  0  0
 30 31  1  0  0  0
 37 32  1  0  0  0
 32 33  1  0  0  0
 33 34  1  0  0  0
 35 34  2  0  0  0
 36 35  1  0  0  0
 37 36  2  0  0  0
 22 23  1  0  0  0
 10 11  1  0  0  0
 10 12  1  0  0  0
 25 26  1  0  0  0
 23 24  1  0  0  0
 18 20  1  0  0  0
 19 21  1  0  0  0
M  END
> <minimizedAffinity>
-8.69025

$$$$
3LDP_3P1_A_408


 37 41  0  0  0  0  0  0  0  0999 V2000
   14.3163  -10.8713    4.3487 N   0  0  0  0  0  0  0  0  0  0  0  0
   15.1337  -11.6471    3.6155 C   0  0  0  0  0  0  0  0  0  0  0  0
   16.3348  -11.1976    3.2331 N   0  0  0  0  0  0  0  0  0  0  0  0
   14.6949   -9.6293    4.7205 C   0  0  0  0  0  0  0  0  0  0  0  0
   17.8445   -9.2723    3.3372 N   0  0  0  0  0  0  0  0  0  0  0  0
   17.7530   -8.0653    3.9345 C   0  0  0  0  0  0  0  0  0  0  0  0
   16.5510   -7.9881    4.5453 N   0  0  0  0  0  0  0  0  0  0  0  0
   15.9149   -9.1509    4.3335 C   0  0  0  0  0  0  0  0  0  0  0  0
   16.7339   -9.9464    3.5746 C   0  0  0  0  0  0  0  0  0  0  0  0
   13.8861   -8.8789    5.4552 N   0  0  0  0  0  0  0  0  0  0  0  0
   13.0078   -9.2271    5.7322 H   0  0  0  0  0  0  0  0  0  0  0  0
   14.1637   -7.9734    5.7240 H   0  0  0  0  0  0  0  0  0  0  0  0
   18.9604   -9.7509    2.5972 C   0  0  0  0  0  0  0  0  0  0  0  0
   18.4835  -10.4793    1.4549 O   0  0  0  0  0  0  0  0  0  0  0  0
   19.6231  -11.3446    1.0669 C   0  0  0  0  0  0  0  0  0  0  0  0
   20.4379  -11.5487    2.3600 C   0  0  0  0  0  0  0  0  0  0  0  0
   19.6549  -10.7932    3.4098 C   0  0  0  0  0  0  0  0  0  0  0  0
   21.7119  -10.9596    2.2048 O   0  0  0  0  0  0  0  0  0  0  0  0
   20.5659  -10.1557    4.3501 O   0  0  0  0  0  0  0  0  0  0  0  0
   21.6092  -10.0223    1.9774 H   0  0  0  0  0  0  0  0  0  0  0  0
   21.1825   -9.5844    3.8660 H   0  0  0  0  0  0  0  0  0  0  0  0
   19.0905  -12.7082    0.6140 C   0  0  0  0  0  0  0  0  0  0  0  0
   18.0176  -13.1297    1.4850 O   0  0  0  0  0  0  0  0  0  0  0  0
   18.3489  -13.2035    2.3937 H   0  0  0  0  0  0  0  0  0  0  0  0
   18.6968   -7.1097    3.9069 N   0  0  0  0  0  0  0  0  0  0  0  0
   19.5397   -7.2721    3.4248 H   0  0  0  0  0  0  0  0  0  0  0  0
   18.4886   -5.8424    4.5786 C   0  0  0  0  0  0  0  0  0  0  0  0
   19.0442   -4.7161    3.7284 C   0  0  0  0  0  0  0  0  0  0  0  0
   19.5783   -4.9958    2.5058 N   0  0  0  0  0  0  0  0  0  0  0  0
   19.5047   -2.3856    3.3935 C   0  0  0  0  0  0  0  0  0  0  0  0
   18.9917   -3.4138    4.1835 C   0  0  0  0  0  0  0  0  0  0  0  0
   20.0588   -2.6864    2.1533 C   0  0  0  0  0  0  0  0  0  0  0  0
   20.0851   -4.0004    1.7159 C   0  0  0  0  0  0  0  0  0  0  0  0
   20.6375   -4.3135    0.4558 C   0  0  0  0  0  0  0  0  0  0  0  0
   21.1549   -3.2974   -0.3526 C   0  0  0  0  0  0  0  0  0  0  0  0
   21.1233   -1.9734    0.0871 C   0  0  0  0  0  0  0  0  0  0  0  0
   20.5719   -1.6675    1.3456 C   0  0  0  0  0  0  0  0  0  0  0  0
  2  1  2  0  0  0
  4  1  1  0  0  0
  3  2  1  0  0  0
  9  3  2  0  0  0
  8  4  2  0  0  0
  4 10  1  0  0  0
 13  5  1  0  0  0
  5  6  1  0  0  0
  5  9  1  0  0  0
 25  6  1  0  0  0
  6  7  2  0  0  0
  7  8  1  0  0  0
  9  8  1  0  0  0
 17 13  1  0  0  0
 13 14  1  0  0  0
 15 14  1  0  0  0
 16 15  1  0  0  0
 22 15  1  0  0  0
 18 16  1  0  0  0
 16 17  1  0  0  0
 19 17  1  0  0  0
 25 27  1  0  0  0
 28 27  1  0  0  0
 31 28  2  0  0  0
 28 29  1  0  0  0
 33 29  2  0  0  0
 30 32  2  0  0  0
 30 31  1  0  0  0
 37 32  1  0  0  0
 32 33  1  0  0  0
 33 34  1  0  0  0
 35 34  2  0  0  0
 36 35  1  0  0  0
 37 36  2  0  0  0
 22 23  1  0  0  0
 10 11  1  0  0  0
 10 12  1  0  0  0
 25 26  1  0  0  0
 23 24  1  0  0  0
 18 20  1  0  0  0
 19 21  1  0  0  0
M  END
> <minimizedAffinity>
-8.13108

$$$$
3LDP_3P1_A_408


 37 41  0  0  0  0  0  0  0  0999 V2000
   16.2037   -5.5753    7.6093 N   0  0  0  0  0  0  0  0  0  0  0  0
   17.4692   -5.5195    7.1590 C   0  0  0  0  0  0  0  0  0  0  0  0
   17.9077   -6.4019    6.2534 N   0  0  0  0  0  0  0  0  0  0  0  0
   15.3495   -6.5154    7.1502 C   0  0  0  0  0  0  0  0  0  0  0  0
   17.2501   -8.3414    4.9107 N   0  0  0  0  0  0  0  0  0  0  0  0
   16.0877   -9.0146    4.7784 C   0  0  0  0  0  0  0  0  0  0  0  0
   15.1794   -8.4525    5.6047 N   0  0  0  0  0  0  0  0  0  0  0  0
   15.7816   -7.4291    6.2304 C   0  0  0  0  0  0  0  0  0  0  0  0
   17.0782   -7.3702    5.7891 C   0  0  0  0  0  0  0  0  0  0  0  0
   14.1000   -6.5519    7.5911 N   0  0  0  0  0  0  0  0  0  0  0  0
   13.7924   -5.8919    8.2538 H   0  0  0  0  0  0  0  0  0  0  0  0
   13.4796   -7.2389    7.2560 H   0  0  0  0  0  0  0  0  0  0  0  0
   18.4534   -8.6138    4.2038 C   0  0  0  0  0  0  0  0  0  0  0  0
   18.1258   -9.2200    2.9436 O   0  0  0  0  0  0  0  0  0  0  0  0
   19.3679   -9.9196    2.5367 C   0  0  0  0  0  0  0  0  0  0  0  0
   20.1133  -10.2238    3.8518 C   0  0  0  0  0  0  0  0  0  0  0  0
   19.1931   -9.6906    4.9265 C   0  0  0  0  0  0  0  0  0  0  0  0
   21.3304   -9.5079    3.8729 O   0  0  0  0  0  0  0  0  0  0  0  0
   19.9740   -9.1079    6.0088 O   0  0  0  0  0  0  0  0  0  0  0  0
   21.1507   -8.5613    3.7611 H   0  0  0  0  0  0  0  0  0  0  0  0
   20.5612   -8.4235    5.6516 H   0  0  0  0  0  0  0  0  0  0  0  0
   19.0030  -11.2511    1.8718 C   0  0  0  0  0  0  0  0  0  0  0  0
   17.6115  -11.2400    1.4827 O   0  0  0  0  0  0  0  0  0  0  0  0
   17.0570  -11.1143    2.2686 H   0  0  0  0  0  0  0  0  0  0  0  0
   15.8865  -10.0688    3.9703 N   0  0  0  0  0  0  0  0  0  0  0  0
   16.6143  -10.3783    3.3840 H   0  0  0  0  0  0  0  0  0  0  0  0
   14.6104  -10.7556    3.9515 C   0  0  0  0  0  0  0  0  0  0  0  0
   14.8315  -12.2382    3.7212 C   0  0  0  0  0  0  0  0  0  0  0  0
   16.0835  -12.6961    3.4366 N   0  0  0  0  0  0  0  0  0  0  0  0
   13.9878  -14.4810    3.6054 C   0  0  0  0  0  0  0  0  0  0  0  0
   13.7734  -13.1197    3.8182 C   0  0  0  0  0  0  0  0  0  0  0  0
   15.2681  -14.9335    3.3028 C   0  0  0  0  0  0  0  0  0  0  0  0
   16.3136  -14.0282    3.2262 C   0  0  0  0  0  0  0  0  0  0  0  0
   17.6170  -14.4792    2.9281 C   0  0  0  0  0  0  0  0  0  0  0  0
   17.8537  -15.8400    2.7136 C   0  0  0  0  0  0  0  0  0  0  0  0
   16.8004  -16.7516    2.7961 C   0  0  0  0  0  0  0  0  0  0  0  0
   15.5022  -16.2953    3.0926 C   0  0  0  0  0  0  0  0  0  0  0  0
  2  1  2  0  0  0
  4  1  1  0  0  0
  3  2  1  0  0  0
  9  3  2  0  0  0
  8  4  2  0  0  0
  4 10  1  0  0  0
 13  5  1  0  0  0
  5  6  1  0  0  0
  5  9  1  0  0  0
 25  6  1  0  0  0
  6  7  2  0  0  0
  7  8  1  0  0  0
  9  8  1  0  0  0
 17 13  1  0  0  0
 13 14  1  0  0  0
 15 14  1  0  0  0
 16 15  1  0  0  0
 22 15  1  0  0  0
 18 16  1  0  0  0
 16 17  1  0  0  0
 19 17  1  0  0  0
 25 27  1  0  0  0
 28 27  1  0  0  0
 31 28  2  0  0  0
 28 29  1  0  0  0
 33 29  2  0  0  0
 30 32  2  0  0  0
 30 31  1  0  0  0
 37 32  1  0  0  0
 32 33  1  0  0  0
 33 34  1  0  0  0
 35 34  2  0  0  0
 36 35  1  0  0  0
 37 36  2  0  0  0
 22 23  1  0  0  0
 10 11  1  0  0  0
 10 12  1  0  0  0
 25 26  1  0  0  0
 23 24  1  0  0  0
 18 20  1  0  0  0
 19 21  1  0  0  0
M  END
> <minimizedAffinity>
-7.92305

$$$$
3LDP_3P1_A_408


 37 41  0  0  0  0  0  0  0  0999 V2000
   19.9835   -2.1697    1.1292 N   0  0  0  0  0  0  0  0  0  0  0  0
   19.5612   -1.5440    2.2417 C   0  0  0  0  0  0  0  0  0  0  0  0
   19.2010   -2.2475    3.3217 N   0  0  0  0  0  0  0  0  0  0  0  0
   20.0608   -3.5173    1.0835 C   0  0  0  0  0  0  0  0  0  0  0  0
   18.9612   -4.5185    4.2060 N   0  0  0  0  0  0  0  0  0  0  0  0
   19.2163   -5.7377    3.6859 C   0  0  0  0  0  0  0  0  0  0  0  0
   19.6609   -5.5713    2.4216 N   0  0  0  0  0  0  0  0  0  0  0  0
   19.6907   -4.2524    2.1743 C   0  0  0  0  0  0  0  0  0  0  0  0
   19.2490   -3.6034    3.2982 C   0  0  0  0  0  0  0  0  0  0  0  0
   20.4919   -4.1224   -0.0142 N   0  0  0  0  0  0  0  0  0  0  0  0
   20.7577   -3.5894   -0.7981 H   0  0  0  0  0  0  0  0  0  0  0  0
   20.5463   -5.1049   -0.0457 H   0  0  0  0  0  0  0  0  0  0  0  0
   18.4868   -4.2585    5.5209 C   0  0  0  0  0  0  0  0  0  0  0  0
   19.2037   -5.0898    6.4472 O   0  0  0  0  0  0  0  0  0  0  0  0
   18.3304   -5.1474    7.6438 C   0  0  0  0  0  0  0  0  0  0  0  0
   16.9022   -4.8995    7.1176 C   0  0  0  0  0  0  0  0  0  0  0  0
   17.0821   -4.7538    5.6235 C   0  0  0  0  0  0  0  0  0  0  0  0
   16.4119   -3.6894    7.6556 O   0  0  0  0  0  0  0  0  0  0  0  0
   16.1675   -3.7456    5.1063 O   0  0  0  0  0  0  0  0  0  0  0  0
   17.0184   -2.9665    7.4311 H   0  0  0  0  0  0  0  0  0  0  0  0
   16.3066   -2.9100    5.5788 H   0  0  0  0  0  0  0  0  0  0  0  0
   18.3846   -6.5573    8.2414 C   0  0  0  0  0  0  0  0  0  0  0  0
   18.4600   -7.5366    7.1817 O   0  0  0  0  0  0  0  0  0  0  0  0
   17.6761   -7.4612    6.6154 H   0  0  0  0  0  0  0  0  0  0  0  0
   19.0410   -6.9076    4.3226 N   0  0  0  0  0  0  0  0  0  0  0  0
   19.1639   -6.9537    5.2983 H   0  0  0  0  0  0  0  0  0  0  0  0
   18.6730   -8.1026    3.5898 C   0  0  0  0  0  0  0  0  0  0  0  0
   17.3244   -8.6022    4.0713 C   0  0  0  0  0  0  0  0  0  0  0  0
   16.6749   -7.9343    5.0664 N   0  0  0  0  0  0  0  0  0  0  0  0
   15.5103  -10.1666    3.9410 C   0  0  0  0  0  0  0  0  0  0  0  0
   16.7509   -9.7161    3.4913 C   0  0  0  0  0  0  0  0  0  0  0  0
   14.8641   -9.4833    4.9662 C   0  0  0  0  0  0  0  0  0  0  0  0
   15.4565   -8.3603    5.5198 C   0  0  0  0  0  0  0  0  0  0  0  0
   14.8045   -7.6562    6.5543 C   0  0  0  0  0  0  0  0  0  0  0  0
   13.5593   -8.0898    7.0180 C   0  0  0  0  0  0  0  0  0  0  0  0
   12.9612   -9.2184    6.4560 C   0  0  0  0  0  0  0  0  0  0  0  0
   13.6172   -9.9173    5.4251 C   0  0  0  0  0  0  0  0  0  0  0  0
  2  1  2  0  0  0
  4  1  1  0  0  0
  3  2  1  0  0  0
  9  3  2  0  0  0
  8  4  2  0  0  0
  4 10  1  0  0  0
 13  5  1  0  0  0
  5  6  1  0  0  0
  5  9  1  0  0  0
 25  6  1  0  0  0
  6  7  2  0  0  0
  7  8  1  0  0  0
  9  8  1  0  0  0
 17 13  1  0  0  0
 13 14  1  0  0  0
 15 14  1  0  0  0
 16 15  1  0  0  0
 22 15  1  0  0  0
 18 16  1  0  0  0
 16 17  1  0  0  0
 19 17  1  0  0  0
 25 27  1  0  0  0
 28 27  1  0  0  0
 31 28  2  0  0  0
 28 29  1  0  0  0
 33 29  2  0  0  0
 30 32  2  0  0  0
 30 31  1  0  0  0
 37 32  1  0  0  0
 32 33  1  0  0  0
 33 34  1  0  0  0
 35 34  2  0  0  0
 36 35  1  0  0  0
 37 36  2  0  0  0
 22 23  1  0  0  0
 10 11  1  0  0  0
 10 12  1  0  0  0
 25 26  1  0  0  0
 23 24  1  0  0  0
 18 20  1  0  0  0
 19 21  1  0  0  0
M  END
> <minimizedAffinity>
-7.92041

$$$$
3LDP_3P1_A_408


 37 41  0  0  0  0  0  0  0  0999 V2000
   25.1850  -11.9928    5.3849 N   0  0  0  0  0  0  0  0  0  0  0  0
   25.2345  -12.7147    4.2518 C   0  0  0  0  0  0  0  0  0  0  0  0
   24.2388  -12.6485    3.3600 N   0  0  0  0  0  0  0  0  0  0  0  0
   24.1357  -11.1815    5.6400 C   0  0  0  0  0  0  0  0  0  0  0  0
   22.0691  -11.6103    2.9002 N   0  0  0  0  0  0  0  0  0  0  0  0
   21.3202  -10.7119    3.5740 C   0  0  0  0  0  0  0  0  0  0  0  0
   21.9615  -10.4065    4.7227 N   0  0  0  0  0  0  0  0  0  0  0  0
   23.1066  -11.1063    4.7442 C   0  0  0  0  0  0  0  0  0  0  0  0
   23.1624  -11.8576    3.5988 C   0  0  0  0  0  0  0  0  0  0  0  0
   24.1046  -10.4639    6.7541 N   0  0  0  0  0  0  0  0  0  0  0  0
   24.8479  -10.5207    7.3971 H   0  0  0  0  0  0  0  0  0  0  0  0
   23.3382   -9.8742    6.9386 H   0  0  0  0  0  0  0  0  0  0  0  0
   21.7493  -12.1776    1.6362 C   0  0  0  0  0  0  0  0  0  0  0  0
   21.2628  -11.1400    0.7702 O   0  0  0  0  0  0  0  0  0  0  0  0
   20.4939  -11.8604   -0.2728 C   0  0  0  0  0  0  0  0  0  0  0  0
   20.0371  -13.1742    0.3928 C   0  0  0  0  0  0  0  0  0  0  0  0
   20.5667  -13.0731    1.8052 C   0  0  0  0  0  0  0  0  0  0  0  0
   20.6470  -14.2651   -0.2645 O   0  0  0  0  0  0  0  0  0  0  0  0
   21.0051  -14.3820    2.2692 O   0  0  0  0  0  0  0  0  0  0  0  0
   21.6107  -14.1570   -0.2444 H   0  0  0  0  0  0  0  0  0  0  0  0
   21.6624  -14.7402    1.6524 H   0  0  0  0  0  0  0  0  0  0  0  0
   19.2474  -11.0458   -0.6344 C   0  0  0  0  0  0  0  0  0  0  0  0
   18.6559  -10.4963    0.5640 O   0  0  0  0  0  0  0  0  0  0  0  0
   18.4022  -11.2185    1.1598 H   0  0  0  0  0  0  0  0  0  0  0  0
   20.1365  -10.2240    3.1671 N   0  0  0  0  0  0  0  0  0  0  0  0
   20.0464   -9.8630    2.2556 H   0  0  0  0  0  0  0  0  0  0  0  0
   18.9905  -10.2230    4.0543 C   0  0  0  0  0  0  0  0  0  0  0  0
   18.6854   -8.8037    4.4931 C   0  0  0  0  0  0  0  0  0  0  0  0
   17.9677   -8.5907    5.6323 N   0  0  0  0  0  0  0  0  0  0  0  0
   18.8629   -6.4339    4.1651 C   0  0  0  0  0  0  0  0  0  0  0  0
   19.1484   -7.7348    3.7522 C   0  0  0  0  0  0  0  0  0  0  0  0
   18.1183   -6.2307    5.3226 C   0  0  0  0  0  0  0  0  0  0  0  0
   17.6789   -7.3218    6.0541 C   0  0  0  0  0  0  0  0  0  0  0  0
   16.9303   -7.1250    7.2338 C   0  0  0  0  0  0  0  0  0  0  0  0
   16.6352   -5.8290    7.6664 C   0  0  0  0  0  0  0  0  0  0  0  0
   17.0828   -4.7306    6.9313 C   0  0  0  0  0  0  0  0  0  0  0  0
   17.8281   -4.9334    5.7545 C   0  0  0  0  0  0  0  0  0  0  0  0
  2  1  2  0  0  0
  4  1  1  0  0  0
  3  2  1  0  0  0
  9  3  2  0  0  0
  8  4  2  0  0  0
  4 10  1  0  0  0
 13  5  1  0  0  0
  5  6  1  0  0  0
  5  9  1  0  0  0
 25  6  1  0  0  0
  6  7  2  0  0  0
  7  8  1  0  0  0
  9  8  1  0  0  0
 17 13  1  0  0  0
 13 14  1  0  0  0
 15 14  1  0  0  0
 16 15  1  0  0  0
 22 15  1  0  0  0
 18 16  1  0  0  0
 16 17  1  0  0  0
 19 17  1  0  0  0
 25 27  1  0  0  0
 28 27  1  0  0  0
 31 28  2  0  0  0
 28 29  1  0  0  0
 33 29  2  0  0  0
 30 32  2  0  0  0
 30 31  1  0  0  0
 37 32  1  0  0  0
 32 33  1  0  0  0
 33 34  1  0  0  0
 35 34  2  0  0  0
 36 35  1  0  0  0
 37 36  2  0  0  0
 22 23  1  0  0  0
 10 11  1  0  0  0
 10 12  1  0  0  0
 25 26  1  0  0  0
 23 24  1  0  0  0
 18 20  1  0  0  0
 19 21  1  0  0  0
M  END
> <minimizedAffinity>
-7.80886

$$$$
