5IA3_P17_A_1001


 30 33  0  0  0  0  0  0  0  0999 V2000
 -113.2905  -14.8983   82.9013 C   0  0  0  0  0  0  0  0  0  0  0  0
 -113.1831  -15.5005   84.1030 N   0  0  0  0  0  0  0  0  0  0  0  0
 -114.2403  -16.0514   84.7272 C   0  0  0  0  0  0  0  0  0  0  0  0
 -114.0805  -16.6479   85.9209 N   0  0  0  0  0  0  0  0  0  0  0  0
 -112.7266  -16.6848   86.5285 C   0  0  0  0  0  0  0  0  0  0  0  0
 -115.1148  -17.2085   86.5762 C   0  0  0  0  0  0  0  0  0  0  0  0
 -114.8987  -17.7373   87.6684 O   0  0  0  0  0  0  0  0  0  0  0  0
 -116.3991  -17.1968   86.0331 C   0  0  0  0  0  0  0  0  0  0  0  0
 -116.5892  -16.5824   84.7957 C   0  0  0  0  0  0  0  0  0  0  0  0
 -115.4958  -16.0080   84.1433 C   0  0  0  0  0  0  0  0  0  0  0  0
 -115.6318  -15.3868   82.9090 C   0  0  0  0  0  0  0  0  0  0  0  0
 -114.4953  -14.8388   82.3051 N   0  0  0  0  0  0  0  0  0  0  0  0
 -117.4670  -17.7894   86.7221 C   0  0  0  0  0  0  0  0  0  0  0  0
 -117.8128  -19.1231   86.4849 C   0  0  0  0  0  0  0  0  0  0  0  0
 -117.8133  -15.4360   87.9843 Cl  0  0  0  0  0  0  0  0  0  0  0  0
 -118.8652  -19.7241   87.1671 C   0  0  0  0  0  0  0  0  0  0  0  0
 -119.5930  -18.9998   88.1037 C   0  0  0  0  0  0  0  0  0  0  0  0
 -119.2565  -17.6733   88.3484 C   0  0  0  0  0  0  0  0  0  0  0  0
 -118.2029  -17.0714   87.6633 C   0  0  0  0  0  0  0  0  0  0  0  0
 -116.9472  -20.0584   85.3459 Cl  0  0  0  0  0  0  0  0  0  0  0  0
 -112.2658  -14.3345   82.2319 N   0  0  0  0  0  0  0  0  0  0  0  0
 -112.4860  -13.6568   81.5526 H   0  0  0  0  0  0  0  0  0  0  0  0
 -109.0968  -14.5866   83.9679 C   0  0  0  0  0  0  0  0  0  0  0  0
 -110.4253  -14.3176   83.6639 C   0  0  0  0  0  0  0  0  0  0  0  0
 -110.9573  -14.6266   82.4201 C   0  0  0  0  0  0  0  0  0  0  0  0
 -110.1175  -15.2404   81.4862 C   0  0  0  0  0  0  0  0  0  0  0  0
 -108.7882  -15.5159   81.7835 C   0  0  0  0  0  0  0  0  0  0  0  0
 -108.2686  -15.1893   83.0281 C   0  0  0  0  0  0  0  0  0  0  0  0
 -108.4898  -14.1653   85.5214 S   0  0  0  0  0  0  0  0  0  0  0  0
 -109.9937  -13.6985   86.3492 C   0  0  0  0  0  0  0  0  0  0  0  0
 29 23  1  0  0  0
 29 30  1  0  0  0
 23 24  2  0  0  0
 23 28  1  0  0  0
 24 25  1  0  0  0
 25 21  1  0  0  0
 25 26  2  0  0  0
 21  1  1  0  0  0
  1  2  2  0  0  0
  1 12  1  0  0  0
  2  3  1  0  0  0
  3  4  1  0  0  0
  3 10  2  0  0  0
  4  5  1  0  0  0
  4  6  1  0  0  0
  6  7  2  0  0  0
  6  8  1  0  0  0
  8 13  1  0  0  0
  8  9  2  0  0  0
 13 14  1  0  0  0
 13 19  2  0  0  0
 14 16  2  0  0  0
 14 20  1  0  0  0
 15 19  1  0  0  0
 16 17  1  0  0  0
 17 18  2  0  0  0
 18 19  1  0  0  0
  9 10  1  0  0  0
 10 11  1  0  0  0
 11 12  2  0  0  0
 26 27  1  0  0  0
 27 28  2  0  0  0
 21 22  1  0  0  0
M  END
> <minimizedAffinity>
-10.49043

$$$$
5IA3_P17_A_1001


 30 33  0  0  0  0  0  0  0  0999 V2000
 -113.3042  -14.8820   82.9088 C   0  0  0  0  0  0  0  0  0  0  0  0
 -113.1890  -15.4922   84.1057 N   0  0  0  0  0  0  0  0  0  0  0  0
 -114.2415  -16.0496   84.7319 C   0  0  0  0  0  0  0  0  0  0  0  0
 -114.0740  -16.6540   85.9205 N   0  0  0  0  0  0  0  0  0  0  0  0
 -112.7166  -16.6922   86.5204 C   0  0  0  0  0  0  0  0  0  0  0  0
 -115.1034  -17.2213   86.5776 C   0  0  0  0  0  0  0  0  0  0  0  0
 -114.8802  -17.7570   87.6649 O   0  0  0  0  0  0  0  0  0  0  0  0
 -116.3908  -17.2084   86.0418 C   0  0  0  0  0  0  0  0  0  0  0  0
 -116.5890  -16.5860   84.8096 C   0  0  0  0  0  0  0  0  0  0  0  0
 -115.5003  -16.0048   84.1552 C   0  0  0  0  0  0  0  0  0  0  0  0
 -115.6444  -15.3754   82.9260 C   0  0  0  0  0  0  0  0  0  0  0  0
 -114.5124  -14.8209   82.3197 N   0  0  0  0  0  0  0  0  0  0  0  0
 -117.4536  -17.8080   86.7325 C   0  0  0  0  0  0  0  0  0  0  0  0
 -118.1859  -17.0830   87.6774 C   0  0  0  0  0  0  0  0  0  0  0  0
 -116.9424  -20.0568   85.3421 Cl  0  0  0  0  0  0  0  0  0  0  0  0
 -119.2466  -17.6644   88.3636 C   0  0  0  0  0  0  0  0  0  0  0  0
 -119.5967  -18.9863   88.1155 C   0  0  0  0  0  0  0  0  0  0  0  0
 -118.8761  -19.7158   87.1768 C   0  0  0  0  0  0  0  0  0  0  0  0
 -117.8125  -19.1330   86.4907 C   0  0  0  0  0  0  0  0  0  0  0  0
 -117.7982  -15.4533   88.0168 Cl  0  0  0  0  0  0  0  0  0  0  0  0
 -112.2844  -14.3114   82.2377 N   0  0  0  0  0  0  0  0  0  0  0  0
 -112.5092  -13.6232   81.5706 H   0  0  0  0  0  0  0  0  0  0  0  0
 -109.0911  -14.5687   83.9276 C   0  0  0  0  0  0  0  0  0  0  0  0
 -110.4224  -14.2939   83.6414 C   0  0  0  0  0  0  0  0  0  0  0  0
 -110.9750  -14.6102   82.4086 C   0  0  0  0  0  0  0  0  0  0  0  0
 -110.1534  -15.2373   81.4675 C   0  0  0  0  0  0  0  0  0  0  0  0
 -108.8215  -15.5186   81.7471 C   0  0  0  0  0  0  0  0  0  0  0  0
 -108.2809  -15.1847   82.9807 C   0  0  0  0  0  0  0  0  0  0  0  0
 -108.4580  -14.1379   85.4681 S   0  0  0  0  0  0  0  0  0  0  0  0
 -109.9578  -13.7717   86.3520 C   0  0  0  0  0  0  0  0  0  0  0  0
 29 23  1  0  0  0
 29 30  1  0  0  0
 23 24  2  0  0  0
 23 28  1  0  0  0
 24 25  1  0  0  0
 25 21  1  0  0  0
 25 26  2  0  0  0
 21  1  1  0  0  0
  1  2  2  0  0  0
  1 12  1  0  0  0
  2  3  1  0  0  0
  3  4  1  0  0  0
  3 10  2  0  0  0
  4  5  1  0  0  0
  4  6  1  0  0  0
  6  7  2  0  0  0
  6  8  1  0  0  0
  8 13  1  0  0  0
  8  9  2  0  0  0
 13 14  1  0  0  0
 13 19  2  0  0  0
 14 16  2  0  0  0
 14 20  1  0  0  0
 15 19  1  0  0  0
 16 17  1  0  0  0
 17 18  2  0  0  0
 18 19  1  0  0  0
  9 10  1  0  0  0
 10 11  1  0  0  0
 11 12  2  0  0  0
 26 27  1  0  0  0
 27 28  2  0  0  0
 21 22  1  0  0  0
M  END
> <minimizedAffinity>
-10.47203

$$$$
5IA3_P17_A_1001


 30 33  0  0  0  0  0  0  0  0999 V2000
 -113.0653  -15.0321   82.8968 C   0  0  0  0  0  0  0  0  0  0  0  0
 -112.9914  -15.6178   84.1091 N   0  0  0  0  0  0  0  0  0  0  0  0
 -114.0735  -16.1206   84.7310 C   0  0  0  0  0  0  0  0  0  0  0  0
 -113.9469  -16.7026   85.9358 N   0  0  0  0  0  0  0  0  0  0  0  0
 -112.6012  -16.7772   86.5581 C   0  0  0  0  0  0  0  0  0  0  0  0
 -115.0068  -17.2154   86.5892 C   0  0  0  0  0  0  0  0  0  0  0  0
 -114.8204  -17.7333   87.6920 O   0  0  0  0  0  0  0  0  0  0  0  0
 -116.2845  -17.1673   86.0326 C   0  0  0  0  0  0  0  0  0  0  0  0
 -116.4404  -16.5672   84.7834 C   0  0  0  0  0  0  0  0  0  0  0  0
 -115.3208  -16.0426   84.1333 C   0  0  0  0  0  0  0  0  0  0  0  0
 -115.4225  -15.4374   82.8878 C   0  0  0  0  0  0  0  0  0  0  0  0
 -114.2613  -14.9400   82.2871 N   0  0  0  0  0  0  0  0  0  0  0  0
 -117.3795  -17.7104   86.7198 C   0  0  0  0  0  0  0  0  0  0  0  0
 -118.1088  -16.9314   87.6231 C   0  0  0  0  0  0  0  0  0  0  0  0
 -116.9086  -20.0205   85.4184 Cl  0  0  0  0  0  0  0  0  0  0  0  0
 -119.2010  -17.4564   88.3052 C   0  0  0  0  0  0  0  0  0  0  0  0
 -119.5863  -18.7751   88.0947 C   0  0  0  0  0  0  0  0  0  0  0  0
 -118.8690  -19.5581   87.1974 C   0  0  0  0  0  0  0  0  0  0  0  0
 -117.7738  -19.0316   86.5155 C   0  0  0  0  0  0  0  0  0  0  0  0
 -117.6783  -15.3032   87.9152 Cl  0  0  0  0  0  0  0  0  0  0  0  0
 -112.0147  -14.5160   82.2292 N   0  0  0  0  0  0  0  0  0  0  0  0
 -112.2083  -13.9193   81.4705 H   0  0  0  0  0  0  0  0  0  0  0  0
 -108.5299  -15.3037   81.6330 C   0  0  0  0  0  0  0  0  0  0  0  0
 -109.8843  -15.0552   81.4491 C   0  0  0  0  0  0  0  0  0  0  0  0
 -110.7139  -14.7534   82.5197 C   0  0  0  0  0  0  0  0  0  0  0  0
 -110.1378  -14.6844   83.7915 C   0  0  0  0  0  0  0  0  0  0  0  0
 -108.7833  -14.9284   83.9836 C   0  0  0  0  0  0  0  0  0  0  0  0
 -107.9697  -15.2409   82.9038 C   0  0  0  0  0  0  0  0  0  0  0  0
 -107.5550  -15.6892   80.2691 S   0  0  0  0  0  0  0  0  0  0  0  0
 -107.2995  -14.0706   79.5764 C   0  0  0  0  0  0  0  0  0  0  0  0
 29 23  1  0  0  0
 29 30  1  0  0  0
 23 24  2  0  0  0
 23 28  1  0  0  0
 24 25  1  0  0  0
 25 21  1  0  0  0
 25 26  2  0  0  0
 21  1  1  0  0  0
  1  2  2  0  0  0
  1 12  1  0  0  0
  2  3  1  0  0  0
  3  4  1  0  0  0
  3 10  2  0  0  0
  4  5  1  0  0  0
  4  6  1  0  0  0
  6  7  2  0  0  0
  6  8  1  0  0  0
  8 13  1  0  0  0
  8  9  2  0  0  0
 13 14  1  0  0  0
 13 19  2  0  0  0
 14 16  2  0  0  0
 14 20  1  0  0  0
 15 19  1  0  0  0
 16 17  1  0  0  0
 17 18  2  0  0  0
 18 19  1  0  0  0
  9 10  1  0  0  0
 10 11  1  0  0  0
 11 12  2  0  0  0
 26 27  1  0  0  0
 27 28  2  0  0  0
 21 22  1  0  0  0
M  END
> <minimizedAffinity>
-10.20557

$$$$
5IA3_P17_A_1001


 30 33  0  0  0  0  0  0  0  0999 V2000
 -111.4572  -15.6296   85.5945 C   0  0  0  0  0  0  0  0  0  0  0  0
 -112.6353  -15.6164   84.9387 N   0  0  0  0  0  0  0  0  0  0  0  0
 -113.7478  -16.1751   85.4494 C   0  0  0  0  0  0  0  0  0  0  0  0
 -114.9008  -16.1286   84.7604 N   0  0  0  0  0  0  0  0  0  0  0  0
 -114.9189  -15.4546   83.4378 C   0  0  0  0  0  0  0  0  0  0  0  0
 -116.0337  -16.6778   85.2382 C   0  0  0  0  0  0  0  0  0  0  0  0
 -117.0557  -16.6011   84.5536 O   0  0  0  0  0  0  0  0  0  0  0  0
 -116.0544  -17.3145   86.4787 C   0  0  0  0  0  0  0  0  0  0  0  0
 -114.8694  -17.3759   87.2113 C   0  0  0  0  0  0  0  0  0  0  0  0
 -113.7110  -16.7985   86.6860 C   0  0  0  0  0  0  0  0  0  0  0  0
 -112.5069  -16.8305   87.3767 C   0  0  0  0  0  0  0  0  0  0  0  0
 -111.3858  -16.2260   86.7986 N   0  0  0  0  0  0  0  0  0  0  0  0
 -117.2418  -17.8771   86.9685 C   0  0  0  0  0  0  0  0  0  0  0  0
 -117.6430  -19.1536   86.5635 C   0  0  0  0  0  0  0  0  0  0  0  0
 -117.5911  -15.6207   88.3963 Cl  0  0  0  0  0  0  0  0  0  0  0  0
 -118.8147  -19.7252   87.0477 C   0  0  0  0  0  0  0  0  0  0  0  0
 -119.6091  -19.0284   87.9505 C   0  0  0  0  0  0  0  0  0  0  0  0
 -119.2185  -17.7589   88.3611 C   0  0  0  0  0  0  0  0  0  0  0  0
 -118.0451  -17.1863   87.8742 C   0  0  0  0  0  0  0  0  0  0  0  0
 -116.7001  -20.0536   85.4578 Cl  0  0  0  0  0  0  0  0  0  0  0  0
 -110.3156  -15.0835   85.1314 N   0  0  0  0  0  0  0  0  0  0  0  0
 -109.7513  -14.5977   85.7755 H   0  0  0  0  0  0  0  0  0  0  0  0
 -107.9772  -15.4575   82.3907 C   0  0  0  0  0  0  0  0  0  0  0  0
 -108.5247  -15.3603   83.6637 C   0  0  0  0  0  0  0  0  0  0  0  0
 -109.8836  -15.1501   83.8501 C   0  0  0  0  0  0  0  0  0  0  0  0
 -110.6915  -15.0618   82.7127 C   0  0  0  0  0  0  0  0  0  0  0  0
 -110.1521  -15.1613   81.4358 C   0  0  0  0  0  0  0  0  0  0  0  0
 -108.7892  -15.3593   81.2667 C   0  0  0  0  0  0  0  0  0  0  0  0
 -106.2826  -15.7017   82.2228 S   0  0  0  0  0  0  0  0  0  0  0  0
 -105.9218  -16.5698   83.7331 C   0  0  0  0  0  0  0  0  0  0  0  0
 29 23  1  0  0  0
 29 30  1  0  0  0
 23 24  2  0  0  0
 23 28  1  0  0  0
 24 25  1  0  0  0
 25 21  1  0  0  0
 25 26  2  0  0  0
 21  1  1  0  0  0
  1  2  2  0  0  0
  1 12  1  0  0  0
  2  3  1  0  0  0
  3  4  1  0  0  0
  3 10  2  0  0  0
  4  5  1  0  0  0
  4  6  1  0  0  0
  6  7  2  0  0  0
  6  8  1  0  0  0
  8 13  1  0  0  0
  8  9  2  0  0  0
 13 14  1  0  0  0
 13 19  2  0  0  0
 14 16  2  0  0  0
 14 20  1  0  0  0
 15 19  1  0  0  0
 16 17  1  0  0  0
 17 18  2  0  0  0
 18 19  1  0  0  0
  9 10  1  0  0  0
 10 11  1  0  0  0
 11 12  2  0  0  0
 26 27  1  0  0  0
 27 28  2  0  0  0
 21 22  1  0  0  0
M  END
> <minimizedAffinity>
-9.71564

$$$$
5IA3_P17_A_1001


 30 33  0  0  0  0  0  0  0  0999 V2000
 -111.4156  -15.6920   85.6106 C   0  0  0  0  0  0  0  0  0  0  0  0
 -112.5943  -15.6724   84.9561 N   0  0  0  0  0  0  0  0  0  0  0  0
 -113.7084  -16.2282   85.4663 C   0  0  0  0  0  0  0  0  0  0  0  0
 -114.8619  -16.1753   84.7787 N   0  0  0  0  0  0  0  0  0  0  0  0
 -114.8789  -15.4975   83.4580 C   0  0  0  0  0  0  0  0  0  0  0  0
 -115.9964  -16.7214   85.2561 C   0  0  0  0  0  0  0  0  0  0  0  0
 -117.0189  -16.6388   84.5728 O   0  0  0  0  0  0  0  0  0  0  0  0
 -116.0184  -17.3615   86.4949 C   0  0  0  0  0  0  0  0  0  0  0  0
 -114.8328  -17.4295   87.2261 C   0  0  0  0  0  0  0  0  0  0  0  0
 -113.6727  -16.8551   86.7012 C   0  0  0  0  0  0  0  0  0  0  0  0
 -112.4681  -16.8938   87.3905 C   0  0  0  0  0  0  0  0  0  0  0  0
 -111.3453  -16.2920   86.8129 N   0  0  0  0  0  0  0  0  0  0  0  0
 -117.2074  -17.9208   86.9844 C   0  0  0  0  0  0  0  0  0  0  0  0
 -117.9985  -17.2197   87.8994 C   0  0  0  0  0  0  0  0  0  0  0  0
 -116.6966  -20.0729   85.4484 Cl  0  0  0  0  0  0  0  0  0  0  0  0
 -119.1833  -17.7608   88.3865 C   0  0  0  0  0  0  0  0  0  0  0  0
 -119.6012  -19.0174   87.9648 C   0  0  0  0  0  0  0  0  0  0  0  0
 -118.8229  -19.7225   87.0539 C   0  0  0  0  0  0  0  0  0  0  0  0
 -117.6350  -19.1803   86.5675 C   0  0  0  0  0  0  0  0  0  0  0  0
 -117.5311  -15.6694   88.4470 Cl  0  0  0  0  0  0  0  0  0  0  0  0
 -110.2724  -15.1490   85.1478 N   0  0  0  0  0  0  0  0  0  0  0  0
 -109.6879  -14.6985   85.7995 H   0  0  0  0  0  0  0  0  0  0  0  0
 -107.9949  -15.4858   82.3515 C   0  0  0  0  0  0  0  0  0  0  0  0
 -108.5175  -15.4255   83.6372 C   0  0  0  0  0  0  0  0  0  0  0  0
 -109.8643  -15.1741   83.8572 C   0  0  0  0  0  0  0  0  0  0  0  0
 -110.6869  -15.0055   82.7396 C   0  0  0  0  0  0  0  0  0  0  0  0
 -110.1727  -15.0675   81.4501 C   0  0  0  0  0  0  0  0  0  0  0  0
 -108.8210  -15.3076   81.2477 C   0  0  0  0  0  0  0  0  0  0  0  0
 -106.3137  -15.7842   82.1423 S   0  0  0  0  0  0  0  0  0  0  0  0
 -105.9153  -16.5419   83.7019 C   0  0  0  0  0  0  0  0  0  0  0  0
 29 23  1  0  0  0
 29 30  1  0  0  0
 23 24  2  0  0  0
 23 28  1  0  0  0
 24 25  1  0  0  0
 25 21  1  0  0  0
 25 26  2  0  0  0
 21  1  1  0  0  0
  1  2  2  0  0  0
  1 12  1  0  0  0
  2  3  1  0  0  0
  3  4  1  0  0  0
  3 10  2  0  0  0
  4  5  1  0  0  0
  4  6  1  0  0  0
  6  7  2  0  0  0
  6  8  1  0  0  0
  8 13  1  0  0  0
  8  9  2  0  0  0
 13 14  1  0  0  0
 13 19  2  0  0  0
 14 16  2  0  0  0
 14 20  1  0  0  0
 15 19  1  0  0  0
 16 17  1  0  0  0
 17 18  2  0  0  0
 18 19  1  0  0  0
  9 10  1  0  0  0
 10 11  1  0  0  0
 11 12  2  0  0  0
 26 27  1  0  0  0
 27 28  2  0  0  0
 21 22  1  0  0  0
M  END
> <minimizedAffinity>
-9.69017

$$$$
5IA3_P17_A_1001


 30 33  0  0  0  0  0  0  0  0999 V2000
 -112.4864  -15.1510   83.7803 C   0  0  0  0  0  0  0  0  0  0  0  0
 -112.5753  -15.7582   84.9810 N   0  0  0  0  0  0  0  0  0  0  0  0
 -113.7313  -16.2681   85.4441 C   0  0  0  0  0  0  0  0  0  0  0  0
 -113.7671  -16.8716   86.6444 N   0  0  0  0  0  0  0  0  0  0  0  0
 -112.5164  -16.9617   87.4390 C   0  0  0  0  0  0  0  0  0  0  0  0
 -114.9052  -17.3921   87.1414 C   0  0  0  0  0  0  0  0  0  0  0  0
 -114.8681  -17.9299   88.2497 O   0  0  0  0  0  0  0  0  0  0  0  0
 -116.0972  -17.3298   86.4204 C   0  0  0  0  0  0  0  0  0  0  0  0
 -116.0845  -16.7072   85.1725 C   0  0  0  0  0  0  0  0  0  0  0  0
 -114.8877  -16.1752   84.6869 C   0  0  0  0  0  0  0  0  0  0  0  0
 -114.8217  -15.5479   83.4500 C   0  0  0  0  0  0  0  0  0  0  0  0
 -113.5903  -15.0440   83.0184 N   0  0  0  0  0  0  0  0  0  0  0  0
 -117.2747  -17.8810   86.9457 C   0  0  0  0  0  0  0  0  0  0  0  0
 -118.0582  -17.1551   87.8478 C   0  0  0  0  0  0  0  0  0  0  0  0
 -116.7686  -20.0803   85.4764 Cl  0  0  0  0  0  0  0  0  0  0  0  0
 -119.2317  -17.6881   88.3701 C   0  0  0  0  0  0  0  0  0  0  0  0
 -119.6455  -18.9614   87.9973 C   0  0  0  0  0  0  0  0  0  0  0  0
 -118.8746  -19.6913   87.0997 C   0  0  0  0  0  0  0  0  0  0  0  0
 -117.6981  -19.1571   86.5780 C   0  0  0  0  0  0  0  0  0  0  0  0
 -117.5955  -15.5836   88.3356 Cl  0  0  0  0  0  0  0  0  0  0  0  0
 -111.3555  -14.6269   83.2680 N   0  0  0  0  0  0  0  0  0  0  0  0
 -111.3885  -14.2953   82.3416 H   0  0  0  0  0  0  0  0  0  0  0  0
 -107.8340  -15.1244   83.9540 C   0  0  0  0  0  0  0  0  0  0  0  0
 -109.0918  -15.1781   83.3669 C   0  0  0  0  0  0  0  0  0  0  0  0
 -110.1777  -14.5204   83.9270 C   0  0  0  0  0  0  0  0  0  0  0  0
 -109.9609  -13.7801   85.0929 C   0  0  0  0  0  0  0  0  0  0  0  0
 -108.7051  -13.7188   85.6847 C   0  0  0  0  0  0  0  0  0  0  0  0
 -107.6322  -14.3924   85.1184 C   0  0  0  0  0  0  0  0  0  0  0  0
 -106.5296  -15.9743   83.2222 S   0  0  0  0  0  0  0  0  0  0  0  0
 -105.9723  -14.7695   82.0378 C   0  0  0  0  0  0  0  0  0  0  0  0
 29 23  1  0  0  0
 29 30  1  0  0  0
 23 24  2  0  0  0
 23 28  1  0  0  0
 24 25  1  0  0  0
 25 21  1  0  0  0
 25 26  2  0  0  0
 21  1  1  0  0  0
  1  2  2  0  0  0
  1 12  1  0  0  0
  2  3  1  0  0  0
  3  4  1  0  0  0
  3 10  2  0  0  0
  4  5  1  0  0  0
  4  6  1  0  0  0
  6  7  2  0  0  0
  6  8  1  0  0  0
  8 13  1  0  0  0
  8  9  2  0  0  0
 13 14  1  0  0  0
 13 19  2  0  0  0
 14 16  2  0  0  0
 14 20  1  0  0  0
 15 19  1  0  0  0
 16 17  1  0  0  0
 17 18  2  0  0  0
 18 19  1  0  0  0
  9 10  1  0  0  0
 10 11  1  0  0  0
 11 12  2  0  0  0
 26 27  1  0  0  0
 27 28  2  0  0  0
 21 22  1  0  0  0
M  END
> <minimizedAffinity>
-9.40876

$$$$
5IA3_P17_A_1001


 30 33  0  0  0  0  0  0  0  0999 V2000
 -111.6832  -15.3172   84.0828 C   0  0  0  0  0  0  0  0  0  0  0  0
 -112.9778  -15.2966   83.7060 N   0  0  0  0  0  0  0  0  0  0  0  0
 -113.9505  -15.8582   84.4470 C   0  0  0  0  0  0  0  0  0  0  0  0
 -115.2278  -15.8041   84.0325 N   0  0  0  0  0  0  0  0  0  0  0  0
 -115.5378  -15.1185   82.7528 C   0  0  0  0  0  0  0  0  0  0  0  0
 -116.2276  -16.3558   84.7461 C   0  0  0  0  0  0  0  0  0  0  0  0
 -117.3762  -16.2717   84.3070 O   0  0  0  0  0  0  0  0  0  0  0  0
 -115.9737  -17.0032   85.9548 C   0  0  0  0  0  0  0  0  0  0  0  0
 -114.6554  -17.0727   86.4046 C   0  0  0  0  0  0  0  0  0  0  0  0
 -113.6412  -16.4923   85.6392 C   0  0  0  0  0  0  0  0  0  0  0  0
 -112.3137  -16.5321   86.0442 C   0  0  0  0  0  0  0  0  0  0  0  0
 -111.3475  -15.9242   85.2358 N   0  0  0  0  0  0  0  0  0  0  0  0
 -117.0240  -17.5684   86.6922 C   0  0  0  0  0  0  0  0  0  0  0  0
 -117.4262  -18.8870   86.4596 C   0  0  0  0  0  0  0  0  0  0  0  0
 -117.2254  -15.2200   87.9946 Cl  0  0  0  0  0  0  0  0  0  0  0  0
 -118.4617  -19.4610   87.1892 C   0  0  0  0  0  0  0  0  0  0  0  0
 -119.1156  -18.7243   88.1697 C   0  0  0  0  0  0  0  0  0  0  0  0
 -118.7225  -17.4126   88.4102 C   0  0  0  0  0  0  0  0  0  0  0  0
 -117.6859  -16.8378   87.6776 C   0  0  0  0  0  0  0  0  0  0  0  0
 -116.6524  -19.8368   85.2677 Cl  0  0  0  0  0  0  0  0  0  0  0  0
 -110.6717  -14.7686   83.3816 N   0  0  0  0  0  0  0  0  0  0  0  0
 -110.8977  -14.3204   82.5347 H   0  0  0  0  0  0  0  0  0  0  0  0
 -107.6866  -13.8395   85.2107 C   0  0  0  0  0  0  0  0  0  0  0  0
 -108.9953  -13.8969   84.7483 C   0  0  0  0  0  0  0  0  0  0  0  0
 -109.3690  -14.7853   83.7500 C   0  0  0  0  0  0  0  0  0  0  0  0
 -108.3888  -15.6403   83.2379 C   0  0  0  0  0  0  0  0  0  0  0  0
 -107.0782  -15.5914   83.6973 C   0  0  0  0  0  0  0  0  0  0  0  0
 -106.7182  -14.6886   84.6876 C   0  0  0  0  0  0  0  0  0  0  0  0
 -107.2797  -12.7054   86.4386 S   0  0  0  0  0  0  0  0  0  0  0  0
 -108.2229  -13.3442   87.8051 C   0  0  0  0  0  0  0  0  0  0  0  0
 29 23  1  0  0  0
 29 30  1  0  0  0
 23 24  2  0  0  0
 23 28  1  0  0  0
 24 25  1  0  0  0
 25 21  1  0  0  0
 25 26  2  0  0  0
 21  1  1  0  0  0
  1  2  2  0  0  0
  1 12  1  0  0  0
  2  3  1  0  0  0
  3  4  1  0  0  0
  3 10  2  0  0  0
  4  5  1  0  0  0
  4  6  1  0  0  0
  6  7  2  0  0  0
  6  8  1  0  0  0
  8 13  1  0  0  0
  8  9  2  0  0  0
 13 14  1  0  0  0
 13 19  2  0  0  0
 14 16  2  0  0  0
 14 20  1  0  0  0
 15 19  1  0  0  0
 16 17  1  0  0  0
 17 18  2  0  0  0
 18 19  1  0  0  0
  9 10  1  0  0  0
 10 11  1  0  0  0
 11 12  2  0  0  0
 26 27  1  0  0  0
 27 28  2  0  0  0
 21 22  1  0  0  0
M  END
> <minimizedAffinity>
-9.32163

$$$$
5IA3_P17_A_1001


 30 33  0  0  0  0  0  0  0  0999 V2000
 -111.7965  -15.2543   85.0605 C   0  0  0  0  0  0  0  0  0  0  0  0
 -112.1007  -15.9070   86.2005 N   0  0  0  0  0  0  0  0  0  0  0  0
 -113.3282  -16.4045   86.4376 C   0  0  0  0  0  0  0  0  0  0  0  0
 -113.5799  -17.0549   87.5864 N   0  0  0  0  0  0  0  0  0  0  0  0
 -112.4851  -17.2103   88.5769 C   0  0  0  0  0  0  0  0  0  0  0  0
 -114.7959  -17.5649   87.8595 C   0  0  0  0  0  0  0  0  0  0  0  0
 -114.9588  -18.1480   88.9331 O   0  0  0  0  0  0  0  0  0  0  0  0
 -115.8460  -17.4418   86.9502 C   0  0  0  0  0  0  0  0  0  0  0  0
 -115.6086  -16.7698   85.7515 C   0  0  0  0  0  0  0  0  0  0  0  0
 -114.3365  -16.2504   85.5001 C   0  0  0  0  0  0  0  0  0  0  0  0
 -114.0484  -15.5755   84.3214 C   0  0  0  0  0  0  0  0  0  0  0  0
 -112.7519  -15.0873   84.1278 N   0  0  0  0  0  0  0  0  0  0  0  0
 -117.1062  -17.9825   87.2432 C   0  0  0  0  0  0  0  0  0  0  0  0
 -117.5129  -19.1895   86.6667 C   0  0  0  0  0  0  0  0  0  0  0  0
 -117.5211  -15.8594   88.8469 Cl  0  0  0  0  0  0  0  0  0  0  0  0
 -118.7572  -19.7395   86.9549 C   0  0  0  0  0  0  0  0  0  0  0  0
 -119.6206  -19.0905   87.8296 C   0  0  0  0  0  0  0  0  0  0  0  0
 -119.2255  -17.8905   88.4097 C   0  0  0  0  0  0  0  0  0  0  0  0
 -117.9791  -17.3393   88.1191 C   0  0  0  0  0  0  0  0  0  0  0  0
 -116.4872  -20.0290   85.5874 Cl  0  0  0  0  0  0  0  0  0  0  0  0
 -110.5850  -14.7400   84.7712 N   0  0  0  0  0  0  0  0  0  0  0  0
 -110.1785  -14.1364   85.4343 H   0  0  0  0  0  0  0  0  0  0  0  0
 -107.7341  -15.5987   82.7085 C   0  0  0  0  0  0  0  0  0  0  0  0
 -108.5435  -15.3133   83.8009 C   0  0  0  0  0  0  0  0  0  0  0  0
 -109.8828  -14.9879   83.6406 C   0  0  0  0  0  0  0  0  0  0  0  0
 -110.4004  -14.9784   82.3421 C   0  0  0  0  0  0  0  0  0  0  0  0
 -109.5983  -15.2658   81.2442 C   0  0  0  0  0  0  0  0  0  0  0  0
 -108.2577  -15.5774   81.4209 C   0  0  0  0  0  0  0  0  0  0  0  0
 -106.0768  -15.9791   82.9690 S   0  0  0  0  0  0  0  0  0  0  0  0
 -105.3312  -14.3788   82.7500 C   0  0  0  0  0  0  0  0  0  0  0  0
 29 23  1  0  0  0
 29 30  1  0  0  0
 23 24  2  0  0  0
 23 28  1  0  0  0
 24 25  1  0  0  0
 25 21  1  0  0  0
 25 26  2  0  0  0
 21  1  1  0  0  0
  1  2  2  0  0  0
  1 12  1  0  0  0
  2  3  1  0  0  0
  3  4  1  0  0  0
  3 10  2  0  0  0
  4  5  1  0  0  0
  4  6  1  0  0  0
  6  7  2  0  0  0
  6  8  1  0  0  0
  8 13  1  0  0  0
  8  9  2  0  0  0
 13 14  1  0  0  0
 13 19  2  0  0  0
 14 16  2  0  0  0
 14 20  1  0  0  0
 15 19  1  0  0  0
 16 17  1  0  0  0
 17 18  2  0  0  0
 18 19  1  0  0  0
  9 10  1  0  0  0
 10 11  1  0  0  0
 11 12  2  0  0  0
 26 27  1  0  0  0
 27 28  2  0  0  0
 21 22  1  0  0  0
M  END
> <minimizedAffinity>
-8.95754

$$$$
5IA3_P17_A_1001


 30 33  0  0  0  0  0  0  0  0999 V2000
 -111.0131  -15.8377   84.9144 C   0  0  0  0  0  0  0  0  0  0  0  0
 -111.3805  -16.3811   86.0925 N   0  0  0  0  0  0  0  0  0  0  0  0
 -112.6668  -16.6314   86.3978 C   0  0  0  0  0  0  0  0  0  0  0  0
 -112.9819  -17.1821   87.5826 N   0  0  0  0  0  0  0  0  0  0  0  0
 -111.8908  -17.5042   88.5363 C   0  0  0  0  0  0  0  0  0  0  0  0
 -114.2576  -17.4455   87.9240 C   0  0  0  0  0  0  0  0  0  0  0  0
 -114.4764  -17.9493   89.0274 O   0  0  0  0  0  0  0  0  0  0  0  0
 -115.3071  -17.1606   87.0512 C   0  0  0  0  0  0  0  0  0  0  0  0
 -115.0044  -16.5878   85.8162 C   0  0  0  0  0  0  0  0  0  0  0  0
 -113.6709  -16.3249   85.4939 C   0  0  0  0  0  0  0  0  0  0  0  0
 -113.3169  -15.7581   84.2768 C   0  0  0  0  0  0  0  0  0  0  0  0
 -111.9626  -15.5283   84.0127 N   0  0  0  0  0  0  0  0  0  0  0  0
 -116.6310  -17.4453   87.4154 C   0  0  0  0  0  0  0  0  0  0  0  0
 -117.2448  -18.6288   86.9946 C   0  0  0  0  0  0  0  0  0  0  0  0
 -116.6507  -15.1045   88.7467 Cl  0  0  0  0  0  0  0  0  0  0  0  0
 -118.5546  -18.9257   87.3553 C   0  0  0  0  0  0  0  0  0  0  0  0
 -119.2771  -18.0415   88.1477 C   0  0  0  0  0  0  0  0  0  0  0  0
 -118.6758  -16.8624   88.5729 C   0  0  0  0  0  0  0  0  0  0  0  0
 -117.3638  -16.5650   88.2098 C   0  0  0  0  0  0  0  0  0  0  0  0
 -116.3987  -19.7511   86.0219 Cl  0  0  0  0  0  0  0  0  0  0  0  0
 -109.7417  -15.5697   84.5569 N   0  0  0  0  0  0  0  0  0  0  0  0
 -109.3323  -16.1458   83.8715 H   0  0  0  0  0  0  0  0  0  0  0  0
 -108.2723  -13.4154   87.0707 C   0  0  0  0  0  0  0  0  0  0  0  0
 -109.0218  -14.4022   86.4428 C   0  0  0  0  0  0  0  0  0  0  0  0
 -108.9831  -14.5706   85.0660 C   0  0  0  0  0  0  0  0  0  0  0  0
 -108.1456  -13.7278   84.3295 C   0  0  0  0  0  0  0  0  0  0  0  0
 -107.3902  -12.7403   84.9503 C   0  0  0  0  0  0  0  0  0  0  0  0
 -107.4497  -12.5772   86.3270 C   0  0  0  0  0  0  0  0  0  0  0  0
 -108.3745  -13.2441   88.7794 S   0  0  0  0  0  0  0  0  0  0  0  0
 -110.1161  -13.5027   89.0346 C   0  0  0  0  0  0  0  0  0  0  0  0
 29 23  1  0  0  0
 29 30  1  0  0  0
 23 24  2  0  0  0
 23 28  1  0  0  0
 24 25  1  0  0  0
 25 21  1  0  0  0
 25 26  2  0  0  0
 21  1  1  0  0  0
  1  2  2  0  0  0
  1 12  1  0  0  0
  2  3  1  0  0  0
  3  4  1  0  0  0
  3 10  2  0  0  0
  4  5  1  0  0  0
  4  6  1  0  0  0
  6  7  2  0  0  0
  6  8  1  0  0  0
  8 13  1  0  0  0
  8  9  2  0  0  0
 13 14  1  0  0  0
 13 19  2  0  0  0
 14 16  2  0  0  0
 14 20  1  0  0  0
 15 19  1  0  0  0
 16 17  1  0  0  0
 17 18  2  0  0  0
 18 19  1  0  0  0
  9 10  1  0  0  0
 10 11  1  0  0  0
 11 12  2  0  0  0
 26 27  1  0  0  0
 27 28  2  0  0  0
 21 22  1  0  0  0
M  END
> <minimizedAffinity>
-8.59385

$$$$
5IA3_P17_A_1001


 30 33  0  0  0  0  0  0  0  0999 V2000
 -111.3549  -15.0619   82.4696 C   0  0  0  0  0  0  0  0  0  0  0  0
 -112.7010  -15.1380   82.4527 N   0  0  0  0  0  0  0  0  0  0  0  0
 -113.4098  -15.5604   83.5156 C   0  0  0  0  0  0  0  0  0  0  0  0
 -114.7514  -15.6107   83.4523 N   0  0  0  0  0  0  0  0  0  0  0  0
 -115.4260  -15.1945   82.1972 C   0  0  0  0  0  0  0  0  0  0  0  0
 -115.4941  -16.0293   84.4947 C   0  0  0  0  0  0  0  0  0  0  0  0
 -116.7199  -16.0527   84.3684 O   0  0  0  0  0  0  0  0  0  0  0  0
 -114.8943  -16.4229   85.6905 C   0  0  0  0  0  0  0  0  0  0  0  0
 -113.5032  -16.3800   85.7792 C   0  0  0  0  0  0  0  0  0  0  0  0
 -112.7620  -15.9433   84.6787 C   0  0  0  0  0  0  0  0  0  0  0  0
 -111.3755  -15.8799   84.7170 C   0  0  0  0  0  0  0  0  0  0  0  0
 -110.6934  -15.4254   83.5835 N   0  0  0  0  0  0  0  0  0  0  0  0
 -115.6787  -16.8509   86.7712 C   0  0  0  0  0  0  0  0  0  0  0  0
 -116.2555  -18.1244   86.7701 C   0  0  0  0  0  0  0  0  0  0  0  0
 -115.2083  -14.4593   87.9160 Cl  0  0  0  0  0  0  0  0  0  0  0  0
 -117.0294  -18.5630   87.8391 C   0  0  0  0  0  0  0  0  0  0  0  0
 -117.2402  -17.7332   88.9339 C   0  0  0  0  0  0  0  0  0  0  0  0
 -116.6699  -16.4654   88.9460 C   0  0  0  0  0  0  0  0  0  0  0  0
 -115.8959  -16.0262   87.8737 C   0  0  0  0  0  0  0  0  0  0  0  0
 -116.0239  -19.1848   85.4496 Cl  0  0  0  0  0  0  0  0  0  0  0  0
 -110.5975  -14.6437   81.4363 N   0  0  0  0  0  0  0  0  0  0  0  0
 -111.0634  -14.2592   80.6590 H   0  0  0  0  0  0  0  0  0  0  0  0
 -107.1668  -13.5037   81.6612 C   0  0  0  0  0  0  0  0  0  0  0  0
 -108.5554  -13.5431   81.6741 C   0  0  0  0  0  0  0  0  0  0  0  0
 -109.2463  -14.7108   81.3832 C   0  0  0  0  0  0  0  0  0  0  0  0
 -108.4985  -15.8569   81.0979 C   0  0  0  0  0  0  0  0  0  0  0  0
 -107.1092  -15.8267   81.0861 C   0  0  0  0  0  0  0  0  0  0  0  0
 -106.4337  -14.6477   81.3673 C   0  0  0  0  0  0  0  0  0  0  0  0
 -106.3663  -12.0225   82.0139 S   0  0  0  0  0  0  0  0  0  0  0  0
 -106.7136  -11.8638   83.7514 C   0  0  0  0  0  0  0  0  0  0  0  0
 29 23  1  0  0  0
 29 30  1  0  0  0
 23 24  2  0  0  0
 23 28  1  0  0  0
 24 25  1  0  0  0
 25 21  1  0  0  0
 25 26  2  0  0  0
 21  1  1  0  0  0
  1  2  2  0  0  0
  1 12  1  0  0  0
  2  3  1  0  0  0
  3  4  1  0  0  0
  3 10  2  0  0  0
  4  5  1  0  0  0
  4  6  1  0  0  0
  6  7  2  0  0  0
  6  8  1  0  0  0
  8 13  1  0  0  0
  8  9  2  0  0  0
 13 14  1  0  0  0
 13 19  2  0  0  0
 14 16  2  0  0  0
 14 20  1  0  0  0
 15 19  1  0  0  0
 16 17  1  0  0  0
 17 18  2  0  0  0
 18 19  1  0  0  0
  9 10  1  0  0  0
 10 11  1  0  0  0
 11 12  2  0  0  0
 26 27  1  0  0  0
 27 28  2  0  0  0
 21 22  1  0  0  0
M  END
> <minimizedAffinity>
-8.15178

$$$$
