1J01_XIL_A_601


 23 24  0  0  0  0  0  0  0  0999 V2000
   17.0720   65.1818   38.4849 C   0  0  0  0  0  0  0  0  0  0  0  0
   16.9004   64.2381   39.6829 C   0  0  0  0  0  0  0  0  0  0  0  0
   17.8153   63.1589   39.5620 O   0  0  0  0  0  0  0  0  0  0  0  0
   15.4692   63.6891   39.7428 C   0  0  0  0  0  0  0  0  0  0  0  0
   15.2816   62.9642   40.9524 O   0  0  0  0  0  0  0  0  0  0  0  0
   14.4488   64.8207   39.6674 C   0  0  0  0  0  0  0  0  0  0  0  0
   13.1471   64.2696   39.5505 O   0  0  0  0  0  0  0  0  0  0  0  0
   14.7381   65.7198   38.4587 C   0  0  0  0  0  0  0  0  0  0  0  0
   16.0895   66.2284   38.5295 O   0  0  0  0  0  0  0  0  0  0  0  0
   17.6324   62.6700   38.7444 H   0  0  0  0  0  0  0  0  0  0  0  0
   15.4146   63.5570   41.7085 H   0  0  0  0  0  0  0  0  0  0  0  0
   13.0932   63.7360   38.7423 H   0  0  0  0  0  0  0  0  0  0  0  0
   18.3892   65.7798   38.5305 O   0  0  0  0  0  0  0  0  0  0  0  0
   20.1078   68.0990   35.5296 N   0  0  0  0  0  0  0  0  0  0  0  0
   20.2375   68.5276   36.8767 C   0  0  0  0  0  0  0  0  0  0  0  0
   19.6496   67.7566   37.9080 C   0  0  0  0  0  0  0  0  0  0  0  0
   21.0862   69.3640   37.1579 O   0  0  0  0  0  0  0  0  0  0  0  0
   19.2991   68.3940   39.1198 O   0  0  0  0  0  0  0  0  0  0  0  0
   18.5491   66.7287   37.4806 C   0  0  0  0  0  0  0  0  0  0  0  0
   18.9480   66.0669   36.1574 C   0  0  0  0  0  0  0  0  0  0  0  0
   19.0753   67.1654   35.1405 C   0  0  0  0  0  0  0  0  0  0  0  0
   20.7310   68.4431   34.8496 H   0  0  0  0  0  0  0  0  0  0  0  0
   18.4992   68.9261   38.9857 H   0  0  0  0  0  0  0  0  0  0  0  0
  1  2  1  0  0  0
  1  9  1  0  0  0
  1 13  1  0  0  0
  2  3  1  0  0  0
  2  4  1  0  0  0
  4  5  1  0  0  0
  4  6  1  0  0  0
  6  7  1  0  0  0
  6  8  1  0  0  0
  8  9  1  0  0  0
 14 15  1  0  0  0
 14 21  1  0  0  0
 15 16  1  0  0  0
 15 17  2  0  0  0
 16 18  1  0  0  0
 16 19  1  0  0  0
 19 13  1  0  0  0
 19 20  1  0  0  0
 20 21  1  0  0  0
  3 10  1  0  0  0
  5 11  1  0  0  0
  7 12  1  0  0  0
 14 22  1  0  0  0
 18 23  1  0  0  0
M  END
> <minimizedAffinity>
-8.93383

$$$$
1J01_XIL_A_601


 23 24  0  0  0  0  0  0  0  0999 V2000
   16.9650   66.2676   37.2730 C   0  0  0  0  0  0  0  0  0  0  0  0
   16.8530   67.2350   36.0869 C   0  0  0  0  0  0  0  0  0  0  0  0
   15.7678   66.8381   35.2616 O   0  0  0  0  0  0  0  0  0  0  0  0
   18.1465   67.2373   35.2622 C   0  0  0  0  0  0  0  0  0  0  0  0
   18.0897   68.2648   34.2800 O   0  0  0  0  0  0  0  0  0  0  0  0
   19.3619   67.4591   36.1572 C   0  0  0  0  0  0  0  0  0  0  0  0
   20.5438   67.2829   35.3931 O   0  0  0  0  0  0  0  0  0  0  0  0
   19.3514   66.4663   37.3264 C   0  0  0  0  0  0  0  0  0  0  0  0
   18.1171   66.5861   38.0694 O   0  0  0  0  0  0  0  0  0  0  0  0
   15.9275   65.9421   34.9262 H   0  0  0  0  0  0  0  0  0  0  0  0
   18.0035   69.1261   34.7178 H   0  0  0  0  0  0  0  0  0  0  0  0
   20.5681   66.3803   35.0387 H   0  0  0  0  0  0  0  0  0  0  0  0
   15.7829   66.3841   38.0999 O   0  0  0  0  0  0  0  0  0  0  0  0
   13.0267   63.4525   39.1708 N   0  0  0  0  0  0  0  0  0  0  0  0
   14.0079   63.8407   40.1204 C   0  0  0  0  0  0  0  0  0  0  0  0
   14.9593   64.8280   39.7685 C   0  0  0  0  0  0  0  0  0  0  0  0
   13.8440   63.5542   41.2994 O   0  0  0  0  0  0  0  0  0  0  0  0
   16.2063   64.8404   40.4339 O   0  0  0  0  0  0  0  0  0  0  0  0
   15.1398   65.1213   38.2415 C   0  0  0  0  0  0  0  0  0  0  0  0
   13.7755   65.0848   37.5449 C   0  0  0  0  0  0  0  0  0  0  0  0
   13.2116   63.7090   37.7605 C   0  0  0  0  0  0  0  0  0  0  0  0
   12.2073   63.0014   39.4778 H   0  0  0  0  0  0  0  0  0  0  0  0
   16.7564   64.1131   40.1033 H   0  0  0  0  0  0  0  0  0  0  0  0
  1  2  1  0  0  0
  1  9  1  0  0  0
  1 13  1  0  0  0
  2  3  1  0  0  0
  2  4  1  0  0  0
  4  5  1  0  0  0
  4  6  1  0  0  0
  6  7  1  0  0  0
  6  8  1  0  0  0
  8  9  1  0  0  0
 14 15  1  0  0  0
 14 21  1  0  0  0
 15 16  1  0  0  0
 15 17  2  0  0  0
 16 18  1  0  0  0
 16 19  1  0  0  0
 19 13  1  0  0  0
 19 20  1  0  0  0
 20 21  1  0  0  0
  3 10  1  0  0  0
  5 11  1  0  0  0
  7 12  1  0  0  0
 14 22  1  0  0  0
 18 23  1  0  0  0
M  END
> <minimizedAffinity>
-7.26569

$$$$
1J01_XIL_A_601


 23 24  0  0  0  0  0  0  0  0999 V2000
   16.7854   66.9682   37.5872 C   0  0  0  0  0  0  0  0  0  0  0  0
   17.9818   66.0194   37.7414 C   0  0  0  0  0  0  0  0  0  0  0  0
   18.4905   66.1204   39.0632 O   0  0  0  0  0  0  0  0  0  0  0  0
   19.0892   66.3728   36.7403 C   0  0  0  0  0  0  0  0  0  0  0  0
   20.1061   65.3786   36.7763 O   0  0  0  0  0  0  0  0  0  0  0  0
   18.5305   66.4744   35.3244 C   0  0  0  0  0  0  0  0  0  0  0  0
   19.5388   66.9691   34.4582 O   0  0  0  0  0  0  0  0  0  0  0  0
   17.3193   67.4151   35.2954 C   0  0  0  0  0  0  0  0  0  0  0  0
   16.3145   66.9610   36.2304 O   0  0  0  0  0  0  0  0  0  0  0  0
   18.7838   67.0302   39.2281 H   0  0  0  0  0  0  0  0  0  0  0  0
   19.7286   64.5208   36.5260 H   0  0  0  0  0  0  0  0  0  0  0  0
   19.8177   67.8492   34.7560 H   0  0  0  0  0  0  0  0  0  0  0  0
   15.7116   66.5302   38.4532 O   0  0  0  0  0  0  0  0  0  0  0  0
   14.0218   62.7408   38.8037 N   0  0  0  0  0  0  0  0  0  0  0  0
   14.8183   63.2301   39.8721 C   0  0  0  0  0  0  0  0  0  0  0  0
   15.4093   64.5118   39.7642 C   0  0  0  0  0  0  0  0  0  0  0  0
   14.7419   62.6915   40.9689 O   0  0  0  0  0  0  0  0  0  0  0  0
   16.5803   64.7868   40.5064 O   0  0  0  0  0  0  0  0  0  0  0  0
   15.5028   65.1270   38.3278 C   0  0  0  0  0  0  0  0  0  0  0  0
   14.2285   64.7989   37.5426 C   0  0  0  0  0  0  0  0  0  0  0  0
   14.1301   63.3012   37.4759 C   0  0  0  0  0  0  0  0  0  0  0  0
   13.3857   62.0081   38.9699 H   0  0  0  0  0  0  0  0  0  0  0  0
   17.3369   64.3422   40.0932 H   0  0  0  0  0  0  0  0  0  0  0  0
  1  2  1  0  0  0
  1  9  1  0  0  0
  1 13  1  0  0  0
  2  3  1  0  0  0
  2  4  1  0  0  0
  4  5  1  0  0  0
  4  6  1  0  0  0
  6  7  1  0  0  0
  6  8  1  0  0  0
  8  9  1  0  0  0
 14 15  1  0  0  0
 14 21  1  0  0  0
 15 16  1  0  0  0
 15 17  2  0  0  0
 16 18  1  0  0  0
 16 19  1  0  0  0
 19 13  1  0  0  0
 19 20  1  0  0  0
 20 21  1  0  0  0
  3 10  1  0  0  0
  5 11  1  0  0  0
  7 12  1  0  0  0
 14 22  1  0  0  0
 18 23  1  0  0  0
M  END
> <minimizedAffinity>
-7.17411

$$$$
1J01_XIL_A_601


 23 24  0  0  0  0  0  0  0  0999 V2000
   18.0326   67.2028   35.2415 C   0  0  0  0  0  0  0  0  0  0  0  0
   19.1596   67.7988   36.0959 C   0  0  0  0  0  0  0  0  0  0  0  0
   20.3547   67.8392   35.3301 O   0  0  0  0  0  0  0  0  0  0  0  0
   19.3903   66.9562   37.3570 C   0  0  0  0  0  0  0  0  0  0  0  0
   20.3083   67.6193   38.2180 O   0  0  0  0  0  0  0  0  0  0  0  0
   18.0794   66.7195   38.1005 C   0  0  0  0  0  0  0  0  0  0  0  0
   18.3004   65.7993   39.1569 O   0  0  0  0  0  0  0  0  0  0  0  0
   17.0176   66.1613   37.1446 C   0  0  0  0  0  0  0  0  0  0  0  0
   16.8372   67.0566   36.0241 O   0  0  0  0  0  0  0  0  0  0  0  0
   20.5996   66.9387   35.0653 H   0  0  0  0  0  0  0  0  0  0  0  0
   19.9401   68.4762   38.4847 H   0  0  0  0  0  0  0  0  0  0  0  0
   18.6176   64.9583   38.7921 H   0  0  0  0  0  0  0  0  0  0  0  0
   17.7544   68.0876   34.1304 O   0  0  0  0  0  0  0  0  0  0  0  0
   14.7755   67.8150   31.2339 N   0  0  0  0  0  0  0  0  0  0  0  0
   14.5411   68.6277   32.3740 C   0  0  0  0  0  0  0  0  0  0  0  0
   15.5390   68.7224   33.3735 C   0  0  0  0  0  0  0  0  0  0  0  0
   13.6386   69.4544   32.3425 O   0  0  0  0  0  0  0  0  0  0  0  0
   15.1525   69.0481   34.6935 O   0  0  0  0  0  0  0  0  0  0  0  0
   16.6443   67.6140   33.3741 C   0  0  0  0  0  0  0  0  0  0  0  0
   17.0305   67.2704   31.9317 C   0  0  0  0  0  0  0  0  0  0  0  0
   15.7843   66.7802   31.2508 C   0  0  0  0  0  0  0  0  0  0  0  0
   14.2424   67.9587   30.4188 H   0  0  0  0  0  0  0  0  0  0  0  0
   14.7330   68.2774   35.1070 H   0  0  0  0  0  0  0  0  0  0  0  0
  1  2  1  0  0  0
  1  9  1  0  0  0
  1 13  1  0  0  0
  2  3  1  0  0  0
  2  4  1  0  0  0
  4  5  1  0  0  0
  4  6  1  0  0  0
  6  7  1  0  0  0
  6  8  1  0  0  0
  8  9  1  0  0  0
 14 15  1  0  0  0
 14 21  1  0  0  0
 15 16  1  0  0  0
 15 17  2  0  0  0
 16 18  1  0  0  0
 16 19  1  0  0  0
 19 13  1  0  0  0
 19 20  1  0  0  0
 20 21  1  0  0  0
  3 10  1  0  0  0
  5 11  1  0  0  0
  7 12  1  0  0  0
 14 22  1  0  0  0
 18 23  1  0  0  0
M  END
> <minimizedAffinity>
-6.99868

$$$$
1J01_XIL_A_601


 23 24  0  0  0  0  0  0  0  0999 V2000
   16.8806   66.2664   36.8893 C   0  0  0  0  0  0  0  0  0  0  0  0
   17.6959   65.5195   37.9535 C   0  0  0  0  0  0  0  0  0  0  0  0
   18.8234   64.9142   37.3382 O   0  0  0  0  0  0  0  0  0  0  0  0
   16.8443   64.4392   38.6326 C   0  0  0  0  0  0  0  0  0  0  0  0
   17.5574   63.8837   39.7311 O   0  0  0  0  0  0  0  0  0  0  0  0
   15.5233   65.0195   39.1281 C   0  0  0  0  0  0  0  0  0  0  0  0
   14.6940   63.9660   39.5909 O   0  0  0  0  0  0  0  0  0  0  0  0
   14.8144   65.7739   37.9962 C   0  0  0  0  0  0  0  0  0  0  0  0
   15.6800   66.8034   37.4664 O   0  0  0  0  0  0  0  0  0  0  0  0
   18.5244   64.2819   36.6661 H   0  0  0  0  0  0  0  0  0  0  0  0
   17.7447   64.5797   40.3802 H   0  0  0  0  0  0  0  0  0  0  0  0
   14.5193   63.3486   38.8635 H   0  0  0  0  0  0  0  0  0  0  0  0
   17.6695   67.3583   36.3601 O   0  0  0  0  0  0  0  0  0  0  0  0
   18.6563   68.1681   32.3967 N   0  0  0  0  0  0  0  0  0  0  0  0
   17.3803   68.5676   32.8735 C   0  0  0  0  0  0  0  0  0  0  0  0
   17.0247   68.2900   34.2152 C   0  0  0  0  0  0  0  0  0  0  0  0
   16.7364   69.3918   32.2370 O   0  0  0  0  0  0  0  0  0  0  0  0
   15.6557   68.1766   34.5477 O   0  0  0  0  0  0  0  0  0  0  0  0
   17.8705   67.2027   34.9587 C   0  0  0  0  0  0  0  0  0  0  0  0
   19.3454   67.3396   34.5664 C   0  0  0  0  0  0  0  0  0  0  0  0
   19.4210   67.1484   33.0781 C   0  0  0  0  0  0  0  0  0  0  0  0
   19.0263   68.5924   31.5890 H   0  0  0  0  0  0  0  0  0  0  0  0
   15.3133   67.3290   34.2232 H   0  0  0  0  0  0  0  0  0  0  0  0
  1  2  1  0  0  0
  1  9  1  0  0  0
  1 13  1  0  0  0
  2  3  1  0  0  0
  2  4  1  0  0  0
  4  5  1  0  0  0
  4  6  1  0  0  0
  6  7  1  0  0  0
  6  8  1  0  0  0
  8  9  1  0  0  0
 14 15  1  0  0  0
 14 21  1  0  0  0
 15 16  1  0  0  0
 15 17  2  0  0  0
 16 18  1  0  0  0
 16 19  1  0  0  0
 19 13  1  0  0  0
 19 20  1  0  0  0
 20 21  1  0  0  0
  3 10  1  0  0  0
  5 11  1  0  0  0
  7 12  1  0  0  0
 14 22  1  0  0  0
 18 23  1  0  0  0
M  END
> <minimizedAffinity>
-6.74469

$$$$
1J01_XIL_A_601


 23 24  0  0  0  0  0  0  0  0999 V2000
   17.3673   65.7515   38.2553 C   0  0  0  0  0  0  0  0  0  0  0  0
   16.7139   64.6172   39.0564 C   0  0  0  0  0  0  0  0  0  0  0  0
   17.6281   63.5362   39.1658 O   0  0  0  0  0  0  0  0  0  0  0  0
   15.4316   64.1330   38.3676 C   0  0  0  0  0  0  0  0  0  0  0  0
   14.7500   63.2124   39.2112 O   0  0  0  0  0  0  0  0  0  0  0  0
   14.5093   65.3056   38.0485 C   0  0  0  0  0  0  0  0  0  0  0  0
   13.4220   64.8450   37.2628 O   0  0  0  0  0  0  0  0  0  0  0  0
   15.2743   66.3925   37.2829 C   0  0  0  0  0  0  0  0  0  0  0  0
   16.4284   66.8173   38.0429 O   0  0  0  0  0  0  0  0  0  0  0  0
   17.8516   63.2108   38.2798 H   0  0  0  0  0  0  0  0  0  0  0  0
   14.5054   63.6532   40.0399 H   0  0  0  0  0  0  0  0  0  0  0  0
   13.7583   64.4680   36.4348 H   0  0  0  0  0  0  0  0  0  0  0  0
   18.4986   66.2703   38.9941 O   0  0  0  0  0  0  0  0  0  0  0  0
   20.1922   68.2826   35.7661 N   0  0  0  0  0  0  0  0  0  0  0  0
   19.8178   66.9236   35.5979 C   0  0  0  0  0  0  0  0  0  0  0  0
   19.2510   66.2217   36.6886 C   0  0  0  0  0  0  0  0  0  0  0  0
   19.7063   66.4709   34.4658 O   0  0  0  0  0  0  0  0  0  0  0  0
   19.3728   64.8141   36.7303 O   0  0  0  0  0  0  0  0  0  0  0  0
   19.4590   66.8412   38.1110 C   0  0  0  0  0  0  0  0  0  0  0  0
   19.3380   68.3667   38.0315 C   0  0  0  0  0  0  0  0  0  0  0  0
   20.4023   68.8404   37.0828 C   0  0  0  0  0  0  0  0  0  0  0  0
   20.3105   68.8542   34.9733 H   0  0  0  0  0  0  0  0  0  0  0  0
   20.2802   64.5753   36.9763 H   0  0  0  0  0  0  0  0  0  0  0  0
  1  2  1  0  0  0
  1  9  1  0  0  0
  1 13  1  0  0  0
  2  3  1  0  0  0
  2  4  1  0  0  0
  4  5  1  0  0  0
  4  6  1  0  0  0
  6  7  1  0  0  0
  6  8  1  0  0  0
  8  9  1  0  0  0
 14 15  1  0  0  0
 14 21  1  0  0  0
 15 16  1  0  0  0
 15 17  2  0  0  0
 16 18  1  0  0  0
 16 19  1  0  0  0
 19 13  1  0  0  0
 19 20  1  0  0  0
 20 21  1  0  0  0
  3 10  1  0  0  0
  5 11  1  0  0  0
  7 12  1  0  0  0
 14 22  1  0  0  0
 18 23  1  0  0  0
M  END
> <minimizedAffinity>
-6.56950

$$$$
1J01_XIL_A_601


 23 24  0  0  0  0  0  0  0  0999 V2000
   16.7919   67.0585   35.1390 C   0  0  0  0  0  0  0  0  0  0  0  0
   18.0699   67.8712   34.8907 C   0  0  0  0  0  0  0  0  0  0  0  0
   18.2734   68.0057   33.4919 O   0  0  0  0  0  0  0  0  0  0  0  0
   19.2861   67.1783   35.5186 C   0  0  0  0  0  0  0  0  0  0  0  0
   20.4225   68.0299   35.4338 O   0  0  0  0  0  0  0  0  0  0  0  0
   19.0207   66.8325   36.9806 C   0  0  0  0  0  0  0  0  0  0  0  0
   20.0904   66.0442   37.4764 O   0  0  0  0  0  0  0  0  0  0  0  0
   17.7040   66.0571   37.1144 C   0  0  0  0  0  0  0  0  0  0  0  0
   16.6169   66.8209   36.5446 O   0  0  0  0  0  0  0  0  0  0  0  0
   18.3739   67.1269   33.0938 H   0  0  0  0  0  0  0  0  0  0  0  0
   20.2497   68.8493   35.9232 H   0  0  0  0  0  0  0  0  0  0  0  0
   20.1547   65.2252   36.9606 H   0  0  0  0  0  0  0  0  0  0  0  0
   15.6498   67.7995   34.6480 O   0  0  0  0  0  0  0  0  0  0  0  0
   11.6253   66.7312   34.6506 N   0  0  0  0  0  0  0  0  0  0  0  0
   12.0901   67.6273   35.6486 C   0  0  0  0  0  0  0  0  0  0  0  0
   13.4577   67.9920   35.6687 C   0  0  0  0  0  0  0  0  0  0  0  0
   11.2783   68.2959   36.2755 O   0  0  0  0  0  0  0  0  0  0  0  0
   14.0339   68.4085   36.8903 O   0  0  0  0  0  0  0  0  0  0  0  0
   14.4442   67.0747   34.8714 C   0  0  0  0  0  0  0  0  0  0  0  0
   13.7869   66.6262   33.5620 C   0  0  0  0  0  0  0  0  0  0  0  0
   12.5413   65.8730   33.9342 C   0  0  0  0  0  0  0  0  0  0  0  0
   10.6636   66.6936   34.4432 H   0  0  0  0  0  0  0  0  0  0  0  0
   14.1740   67.6369   37.4613 H   0  0  0  0  0  0  0  0  0  0  0  0
  1  2  1  0  0  0
  1  9  1  0  0  0
  1 13  1  0  0  0
  2  3  1  0  0  0
  2  4  1  0  0  0
  4  5  1  0  0  0
  4  6  1  0  0  0
  6  7  1  0  0  0
  6  8  1  0  0  0
  8  9  1  0  0  0
 14 15  1  0  0  0
 14 21  1  0  0  0
 15 16  1  0  0  0
 15 17  2  0  0  0
 16 18  1  0  0  0
 16 19  1  0  0  0
 19 13  1  0  0  0
 19 20  1  0  0  0
 20 21  1  0  0  0
  3 10  1  0  0  0
  5 11  1  0  0  0
  7 12  1  0  0  0
 14 22  1  0  0  0
 18 23  1  0  0  0
M  END
> <minimizedAffinity>
-6.44139

$$$$
1J01_XIL_A_601


 23 24  0  0  0  0  0  0  0  0999 V2000
   17.0917   67.4129   34.0407 C   0  0  0  0  0  0  0  0  0  0  0  0
   18.5916   67.7093   34.1744 C   0  0  0  0  0  0  0  0  0  0  0  0
   19.2358   67.4228   32.9418 O   0  0  0  0  0  0  0  0  0  0  0  0
   19.2176   66.8585   35.2869 C   0  0  0  0  0  0  0  0  0  0  0  0
   20.5588   67.2745   35.5144 O   0  0  0  0  0  0  0  0  0  0  0  0
   18.4216   66.9854   36.5821 C   0  0  0  0  0  0  0  0  0  0  0  0
   18.9224   66.0585   37.5316 O   0  0  0  0  0  0  0  0  0  0  0  0
   16.9355   66.7065   36.3241 C   0  0  0  0  0  0  0  0  0  0  0  0
   16.4322   67.5977   35.3031 O   0  0  0  0  0  0  0  0  0  0  0  0
   19.1159   66.4850   32.7247 H   0  0  0  0  0  0  0  0  0  0  0  0
   20.5660   68.2023   35.7970 H   0  0  0  0  0  0  0  0  0  0  0  0
   18.8278   65.1575   37.1850 H   0  0  0  0  0  0  0  0  0  0  0  0
   16.5081   68.3195   33.0753 O   0  0  0  0  0  0  0  0  0  0  0  0
   12.6018   69.7603   33.1315 N   0  0  0  0  0  0  0  0  0  0  0  0
   13.6580   70.6727   32.8723 C   0  0  0  0  0  0  0  0  0  0  0  0
   14.9927   70.2014   32.8607 C   0  0  0  0  0  0  0  0  0  0  0  0
   13.3982   71.7608   32.3748 O   0  0  0  0  0  0  0  0  0  0  0  0
   16.0384   71.1096   33.1423 O   0  0  0  0  0  0  0  0  0  0  0  0
   15.2581   68.8174   33.5422 C   0  0  0  0  0  0  0  0  0  0  0  0
   14.1017   67.8606   33.2336 C   0  0  0  0  0  0  0  0  0  0  0  0
   12.8535   68.4935   33.7801 C   0  0  0  0  0  0  0  0  0  0  0  0
   11.6833   69.9941   32.8652 H   0  0  0  0  0  0  0  0  0  0  0  0
   16.0549   71.2989   34.0935 H   0  0  0  0  0  0  0  0  0  0  0  0
  1  2  1  0  0  0
  1  9  1  0  0  0
  1 13  1  0  0  0
  2  3  1  0  0  0
  2  4  1  0  0  0
  4  5  1  0  0  0
  4  6  1  0  0  0
  6  7  1  0  0  0
  6  8  1  0  0  0
  8  9  1  0  0  0
 14 15  1  0  0  0
 14 21  1  0  0  0
 15 16  1  0  0  0
 15 17  2  0  0  0
 16 18  1  0  0  0
 16 19  1  0  0  0
 19 13  1  0  0  0
 19 20  1  0  0  0
 20 21  1  0  0  0
  3 10  1  0  0  0
  5 11  1  0  0  0
  7 12  1  0  0  0
 14 22  1  0  0  0
 18 23  1  0  0  0
M  END
> <minimizedAffinity>
-6.35339

$$$$
1J01_XIL_A_601


 23 24  0  0  0  0  0  0  0  0999 V2000
   16.8839   66.4259   37.5139 C   0  0  0  0  0  0  0  0  0  0  0  0
   16.7491   67.2052   36.1987 C   0  0  0  0  0  0  0  0  0  0  0  0
   15.5994   66.7490   35.5014 O   0  0  0  0  0  0  0  0  0  0  0  0
   17.9906   67.0078   35.3193 C   0  0  0  0  0  0  0  0  0  0  0  0
   17.9257   67.8745   34.1931 O   0  0  0  0  0  0  0  0  0  0  0  0
   19.2658   67.2946   36.1061 C   0  0  0  0  0  0  0  0  0  0  0  0
   20.3908   66.9367   35.3199 O   0  0  0  0  0  0  0  0  0  0  0  0
   19.2761   66.4945   37.4147 C   0  0  0  0  0  0  0  0  0  0  0  0
   18.0949   66.7964   38.1915 O   0  0  0  0  0  0  0  0  0  0  0  0
   15.6956   65.8046   35.3021 H   0  0  0  0  0  0  0  0  0  0  0  0
   17.9071   68.7961   34.4950 H   0  0  0  0  0  0  0  0  0  0  0  0
   20.3506   65.9906   35.1097 H   0  0  0  0  0  0  0  0  0  0  0  0
   15.7595   66.7344   38.3713 O   0  0  0  0  0  0  0  0  0  0  0  0
   13.9961   62.9640   38.4807 N   0  0  0  0  0  0  0  0  0  0  0  0
   13.1798   64.0866   38.1829 C   0  0  0  0  0  0  0  0  0  0  0  0
   13.7613   65.3768   38.1527 C   0  0  0  0  0  0  0  0  0  0  0  0
   12.0823   63.9075   37.6706 O   0  0  0  0  0  0  0  0  0  0  0  0
   12.9392   66.5005   38.3958 O   0  0  0  0  0  0  0  0  0  0  0  0
   15.1509   65.5409   38.8544 C   0  0  0  0  0  0  0  0  0  0  0  0
   16.0126   64.3023   38.5875 C   0  0  0  0  0  0  0  0  0  0  0  0
   15.2684   63.1234   39.1475 C   0  0  0  0  0  0  0  0  0  0  0  0
   13.6907   62.0626   38.2289 H   0  0  0  0  0  0  0  0  0  0  0  0
   12.7359   66.5536   39.3428 H   0  0  0  0  0  0  0  0  0  0  0  0
  1  2  1  0  0  0
  1  9  1  0  0  0
  1 13  1  0  0  0
  2  3  1  0  0  0
  2  4  1  0  0  0
  4  5  1  0  0  0
  4  6  1  0  0  0
  6  7  1  0  0  0
  6  8  1  0  0  0
  8  9  1  0  0  0
 14 15  1  0  0  0
 14 21  1  0  0  0
 15 16  1  0  0  0
 15 17  2  0  0  0
 16 18  1  0  0  0
 16 19  1  0  0  0
 19 13  1  0  0  0
 19 20  1  0  0  0
 20 21  1  0  0  0
  3 10  1  0  0  0
  5 11  1  0  0  0
  7 12  1  0  0  0
 14 22  1  0  0  0
 18 23  1  0  0  0
M  END
> <minimizedAffinity>
-6.28390

$$$$
1J01_XIL_A_601


 23 24  0  0  0  0  0  0  0  0999 V2000
   16.4403   66.8074   36.3684 C   0  0  0  0  0  0  0  0  0  0  0  0
   17.5620   66.0323   37.0730 C   0  0  0  0  0  0  0  0  0  0  0  0
   17.2368   65.8866   38.4475 O   0  0  0  0  0  0  0  0  0  0  0  0
   18.9000   66.7710   36.9411 C   0  0  0  0  0  0  0  0  0  0  0  0
   19.9522   65.9546   37.4414 O   0  0  0  0  0  0  0  0  0  0  0  0
   19.1839   67.1266   35.4849 C   0  0  0  0  0  0  0  0  0  0  0  0
   20.3338   67.9544   35.4213 O   0  0  0  0  0  0  0  0  0  0  0  0
   17.9852   67.8618   34.8722 C   0  0  0  0  0  0  0  0  0  0  0  0
   16.7909   67.0570   34.9982 O   0  0  0  0  0  0  0  0  0  0  0  0
   17.1527   66.7631   38.8545 H   0  0  0  0  0  0  0  0  0  0  0  0
   20.0011   65.1364   36.9227 H   0  0  0  0  0  0  0  0  0  0  0  0
   20.1745   68.7685   35.9241 H   0  0  0  0  0  0  0  0  0  0  0  0
   15.2233   66.0247   36.4007 O   0  0  0  0  0  0  0  0  0  0  0  0
   11.5172   67.3857   37.7234 N   0  0  0  0  0  0  0  0  0  0  0  0
   12.1700   68.0981   36.6835 C   0  0  0  0  0  0  0  0  0  0  0  0
   13.4356   67.6553   36.2298 C   0  0  0  0  0  0  0  0  0  0  0  0
   11.5234   68.8802   35.9984 O   0  0  0  0  0  0  0  0  0  0  0  0
   14.3099   68.5902   35.6304 O   0  0  0  0  0  0  0  0  0  0  0  0
   14.2212   66.6816   37.1706 C   0  0  0  0  0  0  0  0  0  0  0  0
   13.2467   65.6920   37.8179 C   0  0  0  0  0  0  0  0  0  0  0  0
   12.2545   66.5047   38.6004 C   0  0  0  0  0  0  0  0  0  0  0  0
   10.5467   67.4935   37.8493 H   0  0  0  0  0  0  0  0  0  0  0  0
   14.6931   69.1600   36.3156 H   0  0  0  0  0  0  0  0  0  0  0  0
  1  2  1  0  0  0
  1  9  1  0  0  0
  1 13  1  0  0  0
  2  3  1  0  0  0
  2  4  1  0  0  0
  4  5  1  0  0  0
  4  6  1  0  0  0
  6  7  1  0  0  0
  6  8  1  0  0  0
  8  9  1  0  0  0
 14 15  1  0  0  0
 14 21  1  0  0  0
 15 16  1  0  0  0
 15 17  2  0  0  0
 16 18  1  0  0  0
 16 19  1  0  0  0
 19 13  1  0  0  0
 19 20  1  0  0  0
 20 21  1  0  0  0
  3 10  1  0  0  0
  5 11  1  0  0  0
  7 12  1  0  0  0
 14 22  1  0  0  0
 18 23  1  0  0  0
M  END
> <minimizedAffinity>
-6.17943

$$$$
