3OIL_VZ5_A_263


 29 32  0  0  0  0  0  0  0  0999 V2000
   -4.3496    4.0297   10.4181 C   0  0  0  0  0  0  0  0  0  0  0  0
   -4.8038    5.3227   10.1517 C   0  0  0  0  0  0  0  0  0  0  0  0
   -5.1490    6.1910   11.2200 C   0  0  0  0  0  0  0  0  0  0  0  0
   -4.9703    5.7375   12.5415 C   0  0  0  0  0  0  0  0  0  0  0  0
   -4.5415    4.4125   12.8175 C   0  0  0  0  0  0  0  0  0  0  0  0
   -4.2111    3.5637   11.7632 C   0  0  0  0  0  0  0  0  0  0  0  0
   -3.7846    2.1294   11.9956 C   0  0  0  0  0  0  0  0  0  0  0  0
   -3.7530    1.6459   13.4195 C   0  0  0  0  0  0  0  0  0  0  0  0
   -4.7265    2.4137   14.2549 C   0  0  0  0  0  0  0  0  0  0  0  0
   -4.4370    3.9109   14.2311 C   0  0  0  0  0  0  0  0  0  0  0  0
   -5.1683    4.7048   15.3097 C   0  0  0  0  0  0  0  0  0  0  0  0
   -6.2257    3.9857   16.0617 C   0  0  0  0  0  0  0  0  0  0  0  0
   -5.8742    2.5334   16.4944 C   0  0  0  0  0  0  0  0  0  0  0  0
   -4.7691    1.9406   15.7156 C   0  0  0  0  0  0  0  0  0  0  0  0
   -4.9510    0.4832   15.9918 C   0  0  0  0  0  0  0  0  0  0  0  0
   -5.3351    0.4877   17.4538 C   0  0  0  0  0  0  0  0  0  0  0  0
   -5.5746    1.9695   17.8110 C   0  0  0  0  0  0  0  0  0  0  0  0
   -6.5896    2.0740   18.7232 O   0  0  0  0  0  0  0  0  0  0  0  0
   -7.1715    1.9655   16.1245 C   0  0  0  0  0  0  0  0  0  0  0  0
   -7.3817    1.6337   18.3773 H   0  0  0  0  0  0  0  0  0  0  0  0
   -5.6152    7.5809   10.9799 C   0  0  0  0  0  0  0  0  0  0  0  0
   -7.0880    7.8018   11.1562 C   0  0  0  0  0  0  0  0  0  0  0  0
   -4.9530    5.7273    8.8202 O   0  0  0  0  0  0  0  0  0  0  0  0
   -3.4767    4.7993    7.0052 N   0  0  0  0  0  0  0  0  0  0  0  0
   -4.4351    7.1191    7.0343 O   0  0  0  0  0  0  0  0  0  0  0  0
   -3.8575    6.0973    7.8904 S   0  0  0  0  0  0  0  0  0  0  0  0
   -2.7476    6.6877    8.6543 O   0  0  0  0  0  0  0  0  0  0  0  0
   -4.3073    4.4656    6.5162 H   0  0  0  0  0  0  0  0  0  0  0  0
   -3.1231    4.0630    7.6161 H   0  0  0  0  0  0  0  0  0  0  0  0
  6  1  2  0  0  0
  1  2  1  0  0  0
 24 26  1  0  0  0
 26 25  2  0  0  0
 23 26  1  0  0  0
 27 26  2  0  0  0
  3  2  2  0  0  0
  2 23  1  0  0  0
  4  3  1  0  0  0
  3 21  1  0  0  0
  5  4  2  0  0  0
 10  5  1  0  0  0
  5  6  1  0  0  0
  7  6  1  0  0  0
  8  7  1  0  0  0
  9  8  1  0  0  0
 14  9  1  0  0  0
  9 10  1  0  0  0
 11 10  1  0  0  0
 12 11  1  0  0  0
 13 12  1  0  0  0
 17 13  1  0  0  0
 13 14  1  0  0  0
 13 19  1  0  0  0
 15 14  1  0  0  0
 16 15  1  0  0  0
 16 17  1  0  0  0
 18 17  1  0  0  0
 21 22  1  0  0  0
 24 28  1  0  0  0
 24 29  1  0  0  0
 18 20  1  0  0  0
M  END
> <minimizedAffinity>
-8.30853

$$$$
3OIL_VZ5_A_263


 29 32  0  0  0  0  0  0  0  0999 V2000
   -3.4239    1.4599   12.7202 C   0  0  0  0  0  0  0  0  0  0  0  0
   -3.9907    2.1512   13.7926 C   0  0  0  0  0  0  0  0  0  0  0  0
   -3.7385    3.5377   13.9598 C   0  0  0  0  0  0  0  0  0  0  0  0
   -2.9556    4.2014   12.9952 C   0  0  0  0  0  0  0  0  0  0  0  0
   -2.3491    3.4966   11.9222 C   0  0  0  0  0  0  0  0  0  0  0  0
   -2.5958    2.1341   11.7687 C   0  0  0  0  0  0  0  0  0  0  0  0
   -1.9465    1.3236   10.6665 C   0  0  0  0  0  0  0  0  0  0  0  0
   -0.9994    2.0482    9.7499 C   0  0  0  0  0  0  0  0  0  0  0  0
   -0.3872    3.2194   10.4492 C   0  0  0  0  0  0  0  0  0  0  0  0
   -1.4448    4.1987   10.9474 C   0  0  0  0  0  0  0  0  0  0  0  0
   -0.8896    5.5576   11.3640 C   0  0  0  0  0  0  0  0  0  0  0  0
    0.5862    5.6692   11.4661 C   0  0  0  0  0  0  0  0  0  0  0  0
    1.3927    4.9974   10.3179 C   0  0  0  0  0  0  0  0  0  0  0  0
    0.6211    3.9809    9.5760 C   0  0  0  0  0  0  0  0  0  0  0  0
    1.7074    3.2106    8.8979 C   0  0  0  0  0  0  0  0  0  0  0  0
    2.6697    4.3078    8.5041 C   0  0  0  0  0  0  0  0  0  0  0  0
    2.1562    5.5785    9.2131 C   0  0  0  0  0  0  0  0  0  0  0  0
    3.2118    6.3612    9.5958 O   0  0  0  0  0  0  0  0  0  0  0  0
    2.3956    4.3915   11.1951 C   0  0  0  0  0  0  0  0  0  0  0  0
    3.8192    5.8396   10.1435 H   0  0  0  0  0  0  0  0  0  0  0  0
   -4.3398    4.3141   15.0745 C   0  0  0  0  0  0  0  0  0  0  0  0
   -5.7170    4.8473   14.8137 C   0  0  0  0  0  0  0  0  0  0  0  0
   -4.7702    1.4462   14.7168 O   0  0  0  0  0  0  0  0  0  0  0  0
   -5.2742    0.8511   17.1099 N   0  0  0  0  0  0  0  0  0  0  0  0
   -4.3173   -0.7250   15.4066 O   0  0  0  0  0  0  0  0  0  0  0  0
   -4.2636    0.6529   15.8638 S   0  0  0  0  0  0  0  0  0  0  0  0
   -2.8615    1.0135   16.1252 O   0  0  0  0  0  0  0  0  0  0  0  0
   -6.2160    0.5759   16.8310 H   0  0  0  0  0  0  0  0  0  0  0  0
   -5.2763    1.8309   17.3934 H   0  0  0  0  0  0  0  0  0  0  0  0
  6  1  2  0  0  0
  1  2  1  0  0  0
 24 26  1  0  0  0
 26 25  2  0  0  0
 23 26  1  0  0  0
 27 26  2  0  0  0
  3  2  2  0  0  0
  2 23  1  0  0  0
  4  3  1  0  0  0
  3 21  1  0  0  0
  5  4  2  0  0  0
 10  5  1  0  0  0
  5  6  1  0  0  0
  7  6  1  0  0  0
  8  7  1  0  0  0
  9  8  1  0  0  0
 14  9  1  0  0  0
  9 10  1  0  0  0
 11 10  1  0  0  0
 12 11  1  0  0  0
 13 12  1  0  0  0
 17 13  1  0  0  0
 13 14  1  0  0  0
 13 19  1  0  0  0
 15 14  1  0  0  0
 16 15  1  0  0  0
 16 17  1  0  0  0
 18 17  1  0  0  0
 21 22  1  0  0  0
 24 28  1  0  0  0
 24 29  1  0  0  0
 18 20  1  0  0  0
M  END
> <minimizedAffinity>
-8.30466

$$$$
3OIL_VZ5_A_263


 29 32  0  0  0  0  0  0  0  0999 V2000
   -3.7091    3.3088   15.4131 C   0  0  0  0  0  0  0  0  0  0  0  0
   -3.9040    1.9364   15.2468 C   0  0  0  0  0  0  0  0  0  0  0  0
   -3.9104    1.3700   13.9455 C   0  0  0  0  0  0  0  0  0  0  0  0
   -3.6625    2.2112   12.8432 C   0  0  0  0  0  0  0  0  0  0  0  0
   -3.4979    3.6122   13.0040 C   0  0  0  0  0  0  0  0  0  0  0  0
   -3.4997    4.1617   14.2842 C   0  0  0  0  0  0  0  0  0  0  0  0
   -3.3666    5.6526   14.5141 C   0  0  0  0  0  0  0  0  0  0  0  0
   -3.2540    6.5267   13.2953 C   0  0  0  0  0  0  0  0  0  0  0  0
   -3.9206    5.8798   12.1237 C   0  0  0  0  0  0  0  0  0  0  0  0
   -3.3201    4.5128   11.8131 C   0  0  0  0  0  0  0  0  0  0  0  0
   -3.7149    3.9534   10.4494 C   0  0  0  0  0  0  0  0  0  0  0  0
   -4.7949    4.6679    9.7257 C   0  0  0  0  0  0  0  0  0  0  0  0
   -4.7120    6.2211    9.7564 C   0  0  0  0  0  0  0  0  0  0  0  0
   -3.8729    6.7421   10.8535 C   0  0  0  0  0  0  0  0  0  0  0  0
   -4.3277    8.1634   10.9347 C   0  0  0  0  0  0  0  0  0  0  0  0
   -4.5069    8.5180    9.4762 C   0  0  0  0  0  0  0  0  0  0  0  0
   -4.3716    7.1856    8.7099 C   0  0  0  0  0  0  0  0  0  0  0  0
   -5.2117    7.1784    7.6294 O   0  0  0  0  0  0  0  0  0  0  0  0
   -6.1384    6.4266   10.0126 C   0  0  0  0  0  0  0  0  0  0  0  0
   -6.1185    7.3571    7.9237 H   0  0  0  0  0  0  0  0  0  0  0  0
   -4.0926   -0.0880   13.7270 C   0  0  0  0  0  0  0  0  0  0  0  0
   -3.9495   -0.5455   12.3060 C   0  0  0  0  0  0  0  0  0  0  0  0
   -4.1352    1.1433   16.3766 O   0  0  0  0  0  0  0  0  0  0  0  0
   -6.5879    1.6711   16.1757 N   0  0  0  0  0  0  0  0  0  0  0  0
   -5.6477   -0.5002   17.0137 O   0  0  0  0  0  0  0  0  0  0  0  0
   -5.4419    0.9375   17.0485 S   0  0  0  0  0  0  0  0  0  0  0  0
   -5.3430    1.3705   18.4510 O   0  0  0  0  0  0  0  0  0  0  0  0
   -6.5769    1.3049   15.2237 H   0  0  0  0  0  0  0  0  0  0  0  0
   -6.4096    2.6752   16.1557 H   0  0  0  0  0  0  0  0  0  0  0  0
  6  1  2  0  0  0
  1  2  1  0  0  0
 24 26  1  0  0  0
 26 25  2  0  0  0
 23 26  1  0  0  0
 27 26  2  0  0  0
  3  2  2  0  0  0
  2 23  1  0  0  0
  4  3  1  0  0  0
  3 21  1  0  0  0
  5  4  2  0  0  0
 10  5  1  0  0  0
  5  6  1  0  0  0
  7  6  1  0  0  0
  8  7  1  0  0  0
  9  8  1  0  0  0
 14  9  1  0  0  0
  9 10  1  0  0  0
 11 10  1  0  0  0
 12 11  1  0  0  0
 13 12  1  0  0  0
 17 13  1  0  0  0
 13 14  1  0  0  0
 13 19  1  0  0  0
 15 14  1  0  0  0
 16 15  1  0  0  0
 16 17  1  0  0  0
 18 17  1  0  0  0
 21 22  1  0  0  0
 24 28  1  0  0  0
 24 29  1  0  0  0
 18 20  1  0  0  0
M  END
> <minimizedAffinity>
-7.91806

$$$$
3OIL_VZ5_A_263


 29 32  0  0  0  0  0  0  0  0999 V2000
   -3.9845    3.7838   14.7904 C   0  0  0  0  0  0  0  0  0  0  0  0
   -4.3315    2.5528   14.2308 C   0  0  0  0  0  0  0  0  0  0  0  0
   -4.0670    2.2927   12.8609 C   0  0  0  0  0  0  0  0  0  0  0  0
   -3.4026    3.2775   12.1041 C   0  0  0  0  0  0  0  0  0  0  0  0
   -3.0784    4.5435   12.6591 C   0  0  0  0  0  0  0  0  0  0  0  0
   -3.3475    4.7937   14.0029 C   0  0  0  0  0  0  0  0  0  0  0  0
   -3.0587    6.1373   14.6390 C   0  0  0  0  0  0  0  0  0  0  0  0
   -2.4860    7.2073   13.7505 C   0  0  0  0  0  0  0  0  0  0  0  0
   -2.8962    6.9836   12.3303 C   0  0  0  0  0  0  0  0  0  0  0  0
   -2.4474    5.6188   11.8187 C   0  0  0  0  0  0  0  0  0  0  0  0
   -2.5336    5.4616   10.3033 C   0  0  0  0  0  0  0  0  0  0  0  0
   -3.2533    6.5280    9.5648 C   0  0  0  0  0  0  0  0  0  0  0  0
   -2.9482    7.9843   10.0189 C   0  0  0  0  0  0  0  0  0  0  0  0
   -2.3728    8.0672   11.3758 C   0  0  0  0  0  0  0  0  0  0  0  0
   -2.6121    9.5017   11.7197 C   0  0  0  0  0  0  0  0  0  0  0  0
   -2.3294   10.1900   10.4039 C   0  0  0  0  0  0  0  0  0  0  0  0
   -2.1926    9.0549    9.3677 C   0  0  0  0  0  0  0  0  0  0  0  0
   -2.6958    9.4586    8.1606 O   0  0  0  0  0  0  0  0  0  0  0  0
   -4.3421    8.4297    9.9867 C   0  0  0  0  0  0  0  0  0  0  0  0
   -3.6108    9.7594    8.2760 H   0  0  0  0  0  0  0  0  0  0  0  0
   -4.4007    0.9884   12.2329 C   0  0  0  0  0  0  0  0  0  0  0  0
   -3.2314    0.0876   11.9677 C   0  0  0  0  0  0  0  0  0  0  0  0
   -4.9803    1.6044   15.0298 O   0  0  0  0  0  0  0  0  0  0  0  0
   -5.1947    0.6507   17.3492 N   0  0  0  0  0  0  0  0  0  0  0  0
   -4.4092   -0.6261   15.3359 O   0  0  0  0  0  0  0  0  0  0  0  0
   -4.3301    0.6719   15.9834 S   0  0  0  0  0  0  0  0  0  0  0  0
   -2.9145    1.0412   16.1385 O   0  0  0  0  0  0  0  0  0  0  0  0
   -6.1567    0.3851   17.1386 H   0  0  0  0  0  0  0  0  0  0  0  0
   -5.1832    1.5783   17.7733 H   0  0  0  0  0  0  0  0  0  0  0  0
  6  1  2  0  0  0
  1  2  1  0  0  0
 24 26  1  0  0  0
 26 25  2  0  0  0
 23 26  1  0  0  0
 27 26  2  0  0  0
  3  2  2  0  0  0
  2 23  1  0  0  0
  4  3  1  0  0  0
  3 21  1  0  0  0
  5  4  2  0  0  0
 10  5  1  0  0  0
  5  6  1  0  0  0
  7  6  1  0  0  0
  8  7  1  0  0  0
  9  8  1  0  0  0
 14  9  1  0  0  0
  9 10  1  0  0  0
 11 10  1  0  0  0
 12 11  1  0  0  0
 13 12  1  0  0  0
 17 13  1  0  0  0
 13 14  1  0  0  0
 13 19  1  0  0  0
 15 14  1  0  0  0
 16 15  1  0  0  0
 16 17  1  0  0  0
 18 17  1  0  0  0
 21 22  1  0  0  0
 24 28  1  0  0  0
 24 29  1  0  0  0
 18 20  1  0  0  0
M  END
> <minimizedAffinity>
-7.75404

$$$$
3OIL_VZ5_A_263


 29 32  0  0  0  0  0  0  0  0999 V2000
   -3.7623    3.2334   13.9067 C   0  0  0  0  0  0  0  0  0  0  0  0
   -4.1196    1.8858   13.8334 C   0  0  0  0  0  0  0  0  0  0  0  0
   -3.6757    1.0890   12.7460 C   0  0  0  0  0  0  0  0  0  0  0  0
   -2.8293    1.6734   11.7838 C   0  0  0  0  0  0  0  0  0  0  0  0
   -2.4910    3.0514   11.8352 C   0  0  0  0  0  0  0  0  0  0  0  0
   -2.9364    3.8287   12.9022 C   0  0  0  0  0  0  0  0  0  0  0  0
   -2.6388    5.3109   12.9900 C   0  0  0  0  0  0  0  0  0  0  0  0
   -1.8563    5.9210   11.8596 C   0  0  0  0  0  0  0  0  0  0  0  0
   -2.0670    5.1458   10.5986 C   0  0  0  0  0  0  0  0  0  0  0  0
   -1.6578    3.6851   10.7559 C   0  0  0  0  0  0  0  0  0  0  0  0
   -1.5297    2.9279    9.4373 C   0  0  0  0  0  0  0  0  0  0  0  0
   -2.0436    3.6123    8.2257 C   0  0  0  0  0  0  0  0  0  0  0  0
   -1.6939    5.1235    8.1073 C   0  0  0  0  0  0  0  0  0  0  0  0
   -1.3222    5.7421    9.3950 C   0  0  0  0  0  0  0  0  0  0  0  0
   -1.4943    7.1958    9.0941 C   0  0  0  0  0  0  0  0  0  0  0  0
   -0.9647    7.2875    7.6813 C   0  0  0  0  0  0  0  0  0  0  0  0
   -0.7664    5.8281    7.2215 C   0  0  0  0  0  0  0  0  0  0  0  0
   -1.0503    5.7139    5.8874 O   0  0  0  0  0  0  0  0  0  0  0  0
   -3.0272    5.5356    7.6660 C   0  0  0  0  0  0  0  0  0  0  0  0
   -1.9451    6.0475    5.7176 H   0  0  0  0  0  0  0  0  0  0  0  0
   -4.0155   -0.3535   12.6423 C   0  0  0  0  0  0  0  0  0  0  0  0
   -4.0573   -0.9029   11.2476 C   0  0  0  0  0  0  0  0  0  0  0  0
   -4.9540    1.3515   14.8219 O   0  0  0  0  0  0  0  0  0  0  0  0
   -5.2994    1.6583   17.2961 N   0  0  0  0  0  0  0  0  0  0  0  0
   -4.9655   -0.5516   16.1533 O   0  0  0  0  0  0  0  0  0  0  0  0
   -4.5233    0.8321   16.1434 S   0  0  0  0  0  0  0  0  0  0  0  0
   -3.0548    0.8633   16.2249 O   0  0  0  0  0  0  0  0  0  0  0  0
   -6.3061    1.5762   17.1540 H   0  0  0  0  0  0  0  0  0  0  0  0
   -5.0286    2.6407   17.2511 H   0  0  0  0  0  0  0  0  0  0  0  0
  6  1  2  0  0  0
  1  2  1  0  0  0
 24 26  1  0  0  0
 26 25  2  0  0  0
 23 26  1  0  0  0
 27 26  2  0  0  0
  3  2  2  0  0  0
  2 23  1  0  0  0
  4  3  1  0  0  0
  3 21  1  0  0  0
  5  4  2  0  0  0
 10  5  1  0  0  0
  5  6  1  0  0  0
  7  6  1  0  0  0
  8  7  1  0  0  0
  9  8  1  0  0  0
 14  9  1  0  0  0
  9 10  1  0  0  0
 11 10  1  0  0  0
 12 11  1  0  0  0
 13 12  1  0  0  0
 17 13  1  0  0  0
 13 14  1  0  0  0
 13 19  1  0  0  0
 15 14  1  0  0  0
 16 15  1  0  0  0
 16 17  1  0  0  0
 18 17  1  0  0  0
 21 22  1  0  0  0
 24 28  1  0  0  0
 24 29  1  0  0  0
 18 20  1  0  0  0
M  END
> <minimizedAffinity>
-7.72786

$$$$
3OIL_VZ5_A_263


 29 32  0  0  0  0  0  0  0  0999 V2000
   -3.9613    1.2952   14.3279 C   0  0  0  0  0  0  0  0  0  0  0  0
   -4.4110    2.2489   15.2429 C   0  0  0  0  0  0  0  0  0  0  0  0
   -4.6082    3.5930   14.8323 C   0  0  0  0  0  0  0  0  0  0  0  0
   -4.3939    3.9228   13.4798 C   0  0  0  0  0  0  0  0  0  0  0  0
   -3.9040    2.9649   12.5533 C   0  0  0  0  0  0  0  0  0  0  0  0
   -3.7062    1.6490   12.9657 C   0  0  0  0  0  0  0  0  0  0  0  0
   -3.1501    0.5940   12.0324 C   0  0  0  0  0  0  0  0  0  0  0  0
   -2.7955    1.0312   10.6376 C   0  0  0  0  0  0  0  0  0  0  0  0
   -2.4496    2.4856   10.6167 C   0  0  0  0  0  0  0  0  0  0  0  0
   -3.5963    3.3486   11.1325 C   0  0  0  0  0  0  0  0  0  0  0  0
   -3.4431    4.8361   10.8283 C   0  0  0  0  0  0  0  0  0  0  0  0
   -2.1251    5.2753   10.3081 C   0  0  0  0  0  0  0  0  0  0  0  0
   -1.4871    4.3546    9.2285 C   0  0  0  0  0  0  0  0  0  0  0  0
   -2.0406    2.9861    9.2234 C   0  0  0  0  0  0  0  0  0  0  0  0
   -0.9883    2.2360    8.4728 C   0  0  0  0  0  0  0  0  0  0  0  0
   -0.6027    3.2283    7.3996 C   0  0  0  0  0  0  0  0  0  0  0  0
   -1.3007    4.5478    7.7901 C   0  0  0  0  0  0  0  0  0  0  0  0
   -0.5112    5.6137    7.4530 O   0  0  0  0  0  0  0  0  0  0  0  0
   -0.1383    4.3980    9.7953 C   0  0  0  0  0  0  0  0  0  0  0  0
    0.3626    5.5108    7.8613 H   0  0  0  0  0  0  0  0  0  0  0  0
   -5.1062    4.6329   15.7691 C   0  0  0  0  0  0  0  0  0  0  0  0
   -6.4498    5.2075   15.4325 C   0  0  0  0  0  0  0  0  0  0  0  0
   -4.6193    1.8661   16.5729 O   0  0  0  0  0  0  0  0  0  0  0  0
   -5.4389   -0.4226   17.2248 N   0  0  0  0  0  0  0  0  0  0  0  0
   -6.0104    1.7061   18.4260 O   0  0  0  0  0  0  0  0  0  0  0  0
   -5.8049    1.1472   17.1009 S   0  0  0  0  0  0  0  0  0  0  0  0
   -6.9757    1.4580   16.2662 O   0  0  0  0  0  0  0  0  0  0  0  0
   -4.6181   -0.5344   17.8199 H   0  0  0  0  0  0  0  0  0  0  0  0
   -5.2409   -0.7997   16.2980 H   0  0  0  0  0  0  0  0  0  0  0  0
  6  1  2  0  0  0
  1  2  1  0  0  0
 24 26  1  0  0  0
 26 25  2  0  0  0
 23 26  1  0  0  0
 27 26  2  0  0  0
  3  2  2  0  0  0
  2 23  1  0  0  0
  4  3  1  0  0  0
  3 21  1  0  0  0
  5  4  2  0  0  0
 10  5  1  0  0  0
  5  6  1  0  0  0
  7  6  1  0  0  0
  8  7  1  0  0  0
  9  8  1  0  0  0
 14  9  1  0  0  0
  9 10  1  0  0  0
 11 10  1  0  0  0
 12 11  1  0  0  0
 13 12  1  0  0  0
 17 13  1  0  0  0
 13 14  1  0  0  0
 13 19  1  0  0  0
 15 14  1  0  0  0
 16 15  1  0  0  0
 16 17  1  0  0  0
 18 17  1  0  0  0
 21 22  1  0  0  0
 24 28  1  0  0  0
 24 29  1  0  0  0
 18 20  1  0  0  0
M  END
> <minimizedAffinity>
-7.65378

$$$$
3OIL_VZ5_A_263


 29 32  0  0  0  0  0  0  0  0999 V2000
   -2.8619    3.5069   13.3064 C   0  0  0  0  0  0  0  0  0  0  0  0
   -3.4488    2.2829   12.9801 C   0  0  0  0  0  0  0  0  0  0  0  0
   -4.2031    2.1504   11.7852 C   0  0  0  0  0  0  0  0  0  0  0  0
   -4.2959    3.2583   10.9205 C   0  0  0  0  0  0  0  0  0  0  0  0
   -3.7300    4.5144   11.2640 C   0  0  0  0  0  0  0  0  0  0  0  0
   -2.9968    4.6384   12.4421 C   0  0  0  0  0  0  0  0  0  0  0  0
   -2.4030    5.9615   12.8782 C   0  0  0  0  0  0  0  0  0  0  0  0
   -2.6568    7.1514   11.9939 C   0  0  0  0  0  0  0  0  0  0  0  0
   -3.9308    6.9749   11.2316 C   0  0  0  0  0  0  0  0  0  0  0  0
   -3.9088    5.7136   10.3747 C   0  0  0  0  0  0  0  0  0  0  0  0
   -5.0200    5.6494    9.3308 C   0  0  0  0  0  0  0  0  0  0  0  0
   -6.0946    6.6661    9.4410 C   0  0  0  0  0  0  0  0  0  0  0  0
   -5.6206    8.1150    9.7512 C   0  0  0  0  0  0  0  0  0  0  0  0
   -4.2665    8.1766   10.3358 C   0  0  0  0  0  0  0  0  0  0  0  0
   -4.2582    9.5442   10.9384 C   0  0  0  0  0  0  0  0  0  0  0  0
   -5.0015   10.3492    9.8970 C   0  0  0  0  0  0  0  0  0  0  0  0
   -5.5781    9.3121    8.9107 C   0  0  0  0  0  0  0  0  0  0  0  0
   -6.7965    9.7310    8.4487 O   0  0  0  0  0  0  0  0  0  0  0  0
   -6.6597    8.3861   10.7457 C   0  0  0  0  0  0  0  0  0  0  0  0
   -7.3838    9.9081    9.2002 H   0  0  0  0  0  0  0  0  0  0  0  0
   -4.8250    0.8602   11.3910 C   0  0  0  0  0  0  0  0  0  0  0  0
   -3.9165   -0.0978   10.6797 C   0  0  0  0  0  0  0  0  0  0  0  0
   -3.3168    1.2101   13.8691 O   0  0  0  0  0  0  0  0  0  0  0  0
   -4.4388   -0.5107   15.3234 N   0  0  0  0  0  0  0  0  0  0  0  0
   -3.0620    1.4104   16.1690 O   0  0  0  0  0  0  0  0  0  0  0  0
   -4.0373    1.0463   15.1557 S   0  0  0  0  0  0  0  0  0  0  0  0
   -5.1589    1.9965   15.2113 O   0  0  0  0  0  0  0  0  0  0  0  0
   -3.5982   -1.0861   15.2711 H   0  0  0  0  0  0  0  0  0  0  0  0
   -5.0810   -0.7784   14.5776 H   0  0  0  0  0  0  0  0  0  0  0  0
  6  1  2  0  0  0
  1  2  1  0  0  0
 24 26  1  0  0  0
 26 25  2  0  0  0
 23 26  1  0  0  0
 27 26  2  0  0  0
  3  2  2  0  0  0
  2 23  1  0  0  0
  4  3  1  0  0  0
  3 21  1  0  0  0
  5  4  2  0  0  0
 10  5  1  0  0  0
  5  6  1  0  0  0
  7  6  1  0  0  0
  8  7  1  0  0  0
  9  8  1  0  0  0
 14  9  1  0  0  0
  9 10  1  0  0  0
 11 10  1  0  0  0
 12 11  1  0  0  0
 13 12  1  0  0  0
 17 13  1  0  0  0
 13 14  1  0  0  0
 13 19  1  0  0  0
 15 14  1  0  0  0
 16 15  1  0  0  0
 16 17  1  0  0  0
 18 17  1  0  0  0
 21 22  1  0  0  0
 24 28  1  0  0  0
 24 29  1  0  0  0
 18 20  1  0  0  0
M  END
> <minimizedAffinity>
-7.62332

$$$$
3OIL_VZ5_A_263


 29 32  0  0  0  0  0  0  0  0999 V2000
   -4.2177    2.7385   11.2448 C   0  0  0  0  0  0  0  0  0  0  0  0
   -4.2425    1.7902   12.2692 C   0  0  0  0  0  0  0  0  0  0  0  0
   -4.0929    2.1971   13.6206 C   0  0  0  0  0  0  0  0  0  0  0  0
   -3.9759    3.5724   13.9013 C   0  0  0  0  0  0  0  0  0  0  0  0
   -3.9157    4.5372   12.8614 C   0  0  0  0  0  0  0  0  0  0  0  0
   -4.0564    4.1293   11.5368 C   0  0  0  0  0  0  0  0  0  0  0  0
   -3.9627    5.1080   10.3850 C   0  0  0  0  0  0  0  0  0  0  0  0
   -3.6872    6.5462   10.7284 C   0  0  0  0  0  0  0  0  0  0  0  0
   -2.9386    6.6422   12.0190 C   0  0  0  0  0  0  0  0  0  0  0  0
   -3.7038    5.9939   13.1679 C   0  0  0  0  0  0  0  0  0  0  0  0
   -3.1661    6.3453   14.5521 C   0  0  0  0  0  0  0  0  0  0  0  0
   -1.8599    7.0469   14.5989 C   0  0  0  0  0  0  0  0  0  0  0  0
   -1.6693    8.1842   13.5546 C   0  0  0  0  0  0  0  0  0  0  0  0
   -2.5929    8.0876   12.4072 C   0  0  0  0  0  0  0  0  0  0  0  0
   -1.9159    8.9581   11.3986 C   0  0  0  0  0  0  0  0  0  0  0  0
   -1.4060   10.0929   12.2572 C   0  0  0  0  0  0  0  0  0  0  0  0
   -1.6301    9.6381   13.7145 C   0  0  0  0  0  0  0  0  0  0  0  0
   -0.6171   10.0995   14.5110 O   0  0  0  0  0  0  0  0  0  0  0  0
   -0.3029    7.8052   13.1915 C   0  0  0  0  0  0  0  0  0  0  0  0
    0.2355    9.8106   14.1496 H   0  0  0  0  0  0  0  0  0  0  0  0
   -4.1355    1.2225   14.7409 C   0  0  0  0  0  0  0  0  0  0  0  0
   -4.1435    1.8252   16.1141 C   0  0  0  0  0  0  0  0  0  0  0  0
   -4.3723    0.4370   11.9364 O   0  0  0  0  0  0  0  0  0  0  0  0
   -1.8920    0.1700   11.6025 N   0  0  0  0  0  0  0  0  0  0  0  0
   -3.5300   -1.7227   11.7916 O   0  0  0  0  0  0  0  0  0  0  0  0
   -3.3622   -0.3919   11.2336 S   0  0  0  0  0  0  0  0  0  0  0  0
   -3.6794   -0.4343    9.7977 O   0  0  0  0  0  0  0  0  0  0  0  0
   -1.7684    0.1601   12.6149 H   0  0  0  0  0  0  0  0  0  0  0  0
   -1.7967    1.1251   11.2576 H   0  0  0  0  0  0  0  0  0  0  0  0
  6  1  2  0  0  0
  1  2  1  0  0  0
 24 26  1  0  0  0
 26 25  2  0  0  0
 23 26  1  0  0  0
 27 26  2  0  0  0
  3  2  2  0  0  0
  2 23  1  0  0  0
  4  3  1  0  0  0
  3 21  1  0  0  0
  5  4  2  0  0  0
 10  5  1  0  0  0
  5  6  1  0  0  0
  7  6  1  0  0  0
  8  7  1  0  0  0
  9  8  1  0  0  0
 14  9  1  0  0  0
  9 10  1  0  0  0
 11 10  1  0  0  0
 12 11  1  0  0  0
 13 12  1  0  0  0
 17 13  1  0  0  0
 13 14  1  0  0  0
 13 19  1  0  0  0
 15 14  1  0  0  0
 16 15  1  0  0  0
 16 17  1  0  0  0
 18 17  1  0  0  0
 21 22  1  0  0  0
 24 28  1  0  0  0
 24 29  1  0  0  0
 18 20  1  0  0  0
M  END
> <minimizedAffinity>
-7.59430

$$$$
3OIL_VZ5_A_263


 29 32  0  0  0  0  0  0  0  0999 V2000
   -2.8862    6.6140   14.2119 C   0  0  0  0  0  0  0  0  0  0  0  0
   -2.5403    7.6302   13.3194 C   0  0  0  0  0  0  0  0  0  0  0  0
   -2.6990    7.4363   11.9224 C   0  0  0  0  0  0  0  0  0  0  0  0
   -3.2603    6.2264   11.4695 C   0  0  0  0  0  0  0  0  0  0  0  0
   -3.5817    5.1771   12.3703 C   0  0  0  0  0  0  0  0  0  0  0  0
   -3.4166    5.3725   13.7397 C   0  0  0  0  0  0  0  0  0  0  0  0
   -3.7067    4.2768   14.7440 C   0  0  0  0  0  0  0  0  0  0  0  0
   -4.1624    2.9509   14.1993 C   0  0  0  0  0  0  0  0  0  0  0  0
   -3.6437    2.7487   12.8117 C   0  0  0  0  0  0  0  0  0  0  0  0
   -4.0993    3.8574   11.8688 C   0  0  0  0  0  0  0  0  0  0  0  0
   -3.8928    3.5426   10.3901 C   0  0  0  0  0  0  0  0  0  0  0  0
   -3.0742    2.3466   10.0736 C   0  0  0  0  0  0  0  0  0  0  0  0
   -3.3611    1.0865   10.9398 C   0  0  0  0  0  0  0  0  0  0  0  0
   -4.0443    1.3926   12.2120 C   0  0  0  0  0  0  0  0  0  0  0  0
   -3.7807    0.1529   13.0039 C   0  0  0  0  0  0  0  0  0  0  0  0
   -3.9262   -0.9252   11.9543 C   0  0  0  0  0  0  0  0  0  0  0  0
   -4.0187   -0.1777   10.6077 C   0  0  0  0  0  0  0  0  0  0  0  0
   -3.4015   -0.9034    9.6250 O   0  0  0  0  0  0  0  0  0  0  0  0
   -1.9535    0.7403   11.1432 C   0  0  0  0  0  0  0  0  0  0  0  0
   -2.4887   -1.0965    9.8905 H   0  0  0  0  0  0  0  0  0  0  0  0
   -2.3635    8.5000   10.9412 C   0  0  0  0  0  0  0  0  0  0  0  0
   -3.5071    9.3813   10.5360 C   0  0  0  0  0  0  0  0  0  0  0  0
   -1.9968    8.8177   13.8226 O   0  0  0  0  0  0  0  0  0  0  0  0
    0.4124    8.1902   13.4529 N   0  0  0  0  0  0  0  0  0  0  0  0
   -0.3801   10.4129   14.3089 O   0  0  0  0  0  0  0  0  0  0  0  0
   -0.6367    8.9854   14.3913 S   0  0  0  0  0  0  0  0  0  0  0  0
   -0.6467    8.5843   15.8066 O   0  0  0  0  0  0  0  0  0  0  0  0
    0.3441    8.5377   12.4963 H   0  0  0  0  0  0  0  0  0  0  0  0
    0.1954    7.1937   13.4689 H   0  0  0  0  0  0  0  0  0  0  0  0
  6  1  2  0  0  0
  1  2  1  0  0  0
 24 26  1  0  0  0
 26 25  2  0  0  0
 23 26  1  0  0  0
 27 26  2  0  0  0
  3  2  2  0  0  0
  2 23  1  0  0  0
  4  3  1  0  0  0
  3 21  1  0  0  0
  5  4  2  0  0  0
 10  5  1  0  0  0
  5  6  1  0  0  0
  7  6  1  0  0  0
  8  7  1  0  0  0
  9  8  1  0  0  0
 14  9  1  0  0  0
  9 10  1  0  0  0
 11 10  1  0  0  0
 12 11  1  0  0  0
 13 12  1  0  0  0
 17 13  1  0  0  0
 13 14  1  0  0  0
 13 19  1  0  0  0
 15 14  1  0  0  0
 16 15  1  0  0  0
 16 17  1  0  0  0
 18 17  1  0  0  0
 21 22  1  0  0  0
 24 28  1  0  0  0
 24 29  1  0  0  0
 18 20  1  0  0  0
M  END
> <minimizedAffinity>
-7.59270

$$$$
3OIL_VZ5_A_263


 29 32  0  0  0  0  0  0  0  0999 V2000
   -4.9362    3.7124   15.3749 C   0  0  0  0  0  0  0  0  0  0  0  0
   -5.0346    2.3492   15.0900 C   0  0  0  0  0  0  0  0  0  0  0  0
   -4.1440    1.7490   14.1623 C   0  0  0  0  0  0  0  0  0  0  0  0
   -3.1348    2.5445   13.5856 C   0  0  0  0  0  0  0  0  0  0  0  0
   -3.0519    3.9378   13.8456 C   0  0  0  0  0  0  0  0  0  0  0  0
   -3.9342    4.5211   14.7524 C   0  0  0  0  0  0  0  0  0  0  0  0
   -3.9173    6.0078   15.0402 C   0  0  0  0  0  0  0  0  0  0  0  0
   -2.9174    6.8406   14.2860 C   0  0  0  0  0  0  0  0  0  0  0  0
   -2.5850    6.2009   12.9762 C   0  0  0  0  0  0  0  0  0  0  0  0
   -2.0248    4.7941   13.1581 C   0  0  0  0  0  0  0  0  0  0  0  0
   -1.3604    4.2211   11.9096 C   0  0  0  0  0  0  0  0  0  0  0  0
   -1.5559    4.9757   10.6474 C   0  0  0  0  0  0  0  0  0  0  0  0
   -1.4282    6.5220   10.7613 C   0  0  0  0  0  0  0  0  0  0  0  0
   -1.5944    7.0242   12.1394 C   0  0  0  0  0  0  0  0  0  0  0  0
   -1.8859    8.4707   11.9021 C   0  0  0  0  0  0  0  0  0  0  0  0
   -0.9494    8.7950   10.7607 C   0  0  0  0  0  0  0  0  0  0  0  0
   -0.3869    7.4367   10.2922 C   0  0  0  0  0  0  0  0  0  0  0  0
   -0.2028    7.4478    8.9360 O   0  0  0  0  0  0  0  0  0  0  0  0
   -2.5946    6.8147    9.9270 C   0  0  0  0  0  0  0  0  0  0  0  0
   -1.0354    7.6855    8.4987 H   0  0  0  0  0  0  0  0  0  0  0  0
   -4.2014    0.2982   13.8481 C   0  0  0  0  0  0  0  0  0  0  0  0
   -3.8916   -0.0618   12.4257 C   0  0  0  0  0  0  0  0  0  0  0  0
   -6.0490    1.6016   15.6990 O   0  0  0  0  0  0  0  0  0  0  0  0
   -6.0551    2.2511   18.1307 N   0  0  0  0  0  0  0  0  0  0  0  0
   -7.2369    0.2548   17.1721 O   0  0  0  0  0  0  0  0  0  0  0  0
   -6.0143    1.0327   17.0690 S   0  0  0  0  0  0  0  0  0  0  0  0
   -4.8618    0.1269   17.1922 O   0  0  0  0  0  0  0  0  0  0  0  0
   -6.8862    2.8188   17.9650 H   0  0  0  0  0  0  0  0  0  0  0  0
   -5.2214    2.8279   18.0184 H   0  0  0  0  0  0  0  0  0  0  0  0
  6  1  2  0  0  0
  1  2  1  0  0  0
 24 26  1  0  0  0
 26 25  2  0  0  0
 23 26  1  0  0  0
 27 26  2  0  0  0
  3  2  2  0  0  0
  2 23  1  0  0  0
  4  3  1  0  0  0
  3 21  1  0  0  0
  5  4  2  0  0  0
 10  5  1  0  0  0
  5  6  1  0  0  0
  7  6  1  0  0  0
  8  7  1  0  0  0
  9  8  1  0  0  0
 14  9  1  0  0  0
  9 10  1  0  0  0
 11 10  1  0  0  0
 12 11  1  0  0  0
 13 12  1  0  0  0
 17 13  1  0  0  0
 13 14  1  0  0  0
 13 19  1  0  0  0
 15 14  1  0  0  0
 16 15  1  0  0  0
 16 17  1  0  0  0
 18 17  1  0  0  0
 21 22  1  0  0  0
 24 28  1  0  0  0
 24 29  1  0  0  0
 18 20  1  0  0  0
M  END
> <minimizedAffinity>
-6.86279

$$$$
