4OGJ_2TA_A_203


 40 43  0  0  0  0  0  0  0  0999 V2000
   20.2827   40.2265   23.9903 C   0  0  0  0  0  0  0  0  0  0  0  0
   20.7286   40.4133   22.7330 N   0  0  0  0  0  0  0  0  0  0  0  0
   19.5867   41.1758   24.6571 N   0  0  0  0  0  0  0  0  0  0  0  0
   19.2856   42.3517   23.9493 C   0  0  0  0  0  0  0  0  0  0  0  0
   19.7270   42.5832   22.6297 C   0  0  0  0  0  0  0  0  0  0  0  0
   19.3650   43.8642   21.9832 C   0  0  0  0  0  0  0  0  0  0  0  0
   20.4876   41.5445   22.0415 C   0  0  0  0  0  0  0  0  0  0  0  0
   20.5609   39.1461   24.7304 N   0  0  0  0  0  0  0  0  0  0  0  0
   21.2992   39.2191   25.3776 H   0  0  0  0  0  0  0  0  0  0  0  0
   18.8015   35.3691   24.2977 C   0  0  0  0  0  0  0  0  0  0  0  0
   19.5342   35.9655   23.3027 C   0  0  0  0  0  0  0  0  0  0  0  0
   20.0932   37.2236   23.4787 C   0  0  0  0  0  0  0  0  0  0  0  0
   18.5855   36.0599   25.4818 C   0  0  0  0  0  0  0  0  0  0  0  0
   19.2031   37.3071   25.6544 C   0  0  0  0  0  0  0  0  0  0  0  0
   19.9012   37.9468   24.6602 C   0  0  0  0  0  0  0  0  0  0  0  0
   18.1892   34.1035   24.2328 O   0  0  0  0  0  0  0  0  0  0  0  0
   18.9622   32.9923   23.7983 C   0  0  0  0  0  0  0  0  0  0  0  0
   18.2185   32.3885   22.6022 C   0  0  0  0  0  0  0  0  0  0  0  0
   18.2468   32.4769   20.1636 C   0  0  0  0  0  0  0  0  0  0  0  0
   19.2218   33.0525   19.1273 C   0  0  0  0  0  0  0  0  0  0  0  0
   19.9721   34.0123   20.0904 C   0  0  0  0  0  0  0  0  0  0  0  0
   20.1047   33.3282   21.4352 C   0  0  0  0  0  0  0  0  0  0  0  0
   19.0510   32.2946   21.4044 N   0  0  0  0  0  0  0  0  0  0  0  0
   20.8789   41.7608   20.7843 N   0  0  0  0  0  0  0  0  0  0  0  0
   21.1231   42.6804   20.5317 H   0  0  0  0  0  0  0  0  0  0  0  0
   20.9662   40.7658   19.7965 C   0  0  0  0  0  0  0  0  0  0  0  0
   22.0304   40.4899   18.8986 C   0  0  0  0  0  0  0  0  0  0  0  0
   19.7951   40.0031   19.6800 C   0  0  0  0  0  0  0  0  0  0  0  0
   19.6671   38.9784   18.7448 C   0  0  0  0  0  0  0  0  0  0  0  0
   20.6985   38.7492   17.8625 C   0  0  0  0  0  0  0  0  0  0  0  0
   21.8521   39.5010   17.9251 C   0  0  0  0  0  0  0  0  0  0  0  0
   23.2138   39.0980   16.8495 S   0  0  0  0  0  0  0  0  0  0  0  0
   24.4330   38.9116   17.7200 O   0  0  0  0  0  0  0  0  0  0  0  0
   23.1480   40.1223   15.7402 O   0  0  0  0  0  0  0  0  0  0  0  0
   22.8117   37.7545   16.1033 N   0  0  0  0  0  0  0  0  0  0  0  0
   22.3189   38.0348   15.2554 H   0  0  0  0  0  0  0  0  0  0  0  0
   23.8127   36.7702   15.6897 C   0  0  0  0  0  0  0  0  0  0  0  0
   25.2061   37.4071   15.3835 C   0  0  0  0  0  0  0  0  0  0  0  0
   23.3617   35.9073   14.5052 C   0  0  0  0  0  0  0  0  0  0  0  0
   23.9076   35.8482   16.9037 C   0  0  0  0  0  0  0  0  0  0  0  0
  6  5  1  0  0  0
  4  5  2  0  0  0
  4  3  1  0  0  0
  5  7  1  0  0  0
  3  1  2  0  0  0
  1  2  1  0  0  0
  1  8  1  0  0  0
  7 24  1  0  0  0
  7  2  2  0  0  0
 24 26  1  0  0  0
  8 15  1  0  0  0
 15 14  2  0  0  0
 15 12  1  0  0  0
 14 13  1  0  0  0
 26 28  2  0  0  0
 26 27  1  0  0  0
 28 29  1  0  0  0
 12 11  2  0  0  0
 13 10  2  0  0  0
 27 31  2  0  0  0
 29 30  2  0  0  0
 11 10  1  0  0  0
 10 16  1  0  0  0
 31 30  1  0  0  0
 31 32  1  0  0  0
 16 17  1  0  0  0
 34 32  2  0  0  0
 35 32  1  0  0  0
 35 37  1  0  0  0
 17 18  1  0  0  0
 32 33  2  0  0  0
 40 37  1  0  0  0
 38 37  1  0  0  0
 37 39  1  0  0  0
 18 23  1  0  0  0
 23 19  1  0  0  0
 23 22  1  0  0  0
 19 20  1  0  0  0
 22 21  1  0  0  0
 20 21  1  0  0  0
  8  9  1  0  0  0
 24 25  1  0  0  0
 35 36  1  0  0  0
M  END
> <minimizedAffinity>
-7.98923

$$$$
4OGJ_2TA_A_203


 40 43  0  0  0  0  0  0  0  0999 V2000
   21.4431   40.1623   19.1977 C   0  0  0  0  0  0  0  0  0  0  0  0
   21.0157   38.9126   19.4623 N   0  0  0  0  0  0  0  0  0  0  0  0
   22.5887   40.4043   18.5200 N   0  0  0  0  0  0  0  0  0  0  0  0
   23.2857   39.2834   18.0382 C   0  0  0  0  0  0  0  0  0  0  0  0
   22.8681   37.9593   18.2869 C   0  0  0  0  0  0  0  0  0  0  0  0
   23.6863   36.8518   17.7444 C   0  0  0  0  0  0  0  0  0  0  0  0
   21.6817   37.8177   19.0456 C   0  0  0  0  0  0  0  0  0  0  0  0
   20.8451   41.2701   19.6533 N   0  0  0  0  0  0  0  0  0  0  0  0
   20.7335   42.0164   19.0211 H   0  0  0  0  0  0  0  0  0  0  0  0
   19.7410   41.7579   23.6647 C   0  0  0  0  0  0  0  0  0  0  0  0
   20.7487   40.9149   23.2690 C   0  0  0  0  0  0  0  0  0  0  0  0
   21.0793   40.7710   21.9288 C   0  0  0  0  0  0  0  0  0  0  0  0
   19.0174   42.4430   22.6988 C   0  0  0  0  0  0  0  0  0  0  0  0
   19.4039   42.3197   21.3564 C   0  0  0  0  0  0  0  0  0  0  0  0
   20.3757   41.4494   20.9285 C   0  0  0  0  0  0  0  0  0  0  0  0
   19.3188   41.9829   24.9884 O   0  0  0  0  0  0  0  0  0  0  0  0
   17.9721   41.6875   25.3352 C   0  0  0  0  0  0  0  0  0  0  0  0
   17.9221   40.1858   25.6367 C   0  0  0  0  0  0  0  0  0  0  0  0
   16.3050   40.3662   23.8178 C   0  0  0  0  0  0  0  0  0  0  0  0
   16.0599   39.5763   22.5248 C   0  0  0  0  0  0  0  0  0  0  0  0
   17.4590   38.9067   22.4475 C   0  0  0  0  0  0  0  0  0  0  0  0
   17.9004   38.5643   23.8553 C   0  0  0  0  0  0  0  0  0  0  0  0
   17.0744   39.4471   24.7027 N   0  0  0  0  0  0  0  0  0  0  0  0
   21.2798   36.5625   19.2539 N   0  0  0  0  0  0  0  0  0  0  0  0
   21.2621   35.9524   18.4815 H   0  0  0  0  0  0  0  0  0  0  0  0
   20.8802   36.0522   20.5002 C   0  0  0  0  0  0  0  0  0  0  0  0
   20.2950   34.7953   20.8043 C   0  0  0  0  0  0  0  0  0  0  0  0
   21.0486   36.9683   21.5485 C   0  0  0  0  0  0  0  0  0  0  0  0
   20.6936   36.6667   22.8616 C   0  0  0  0  0  0  0  0  0  0  0  0
   20.0979   35.4548   23.1289 C   0  0  0  0  0  0  0  0  0  0  0  0
   19.8858   34.5421   22.1181 C   0  0  0  0  0  0  0  0  0  0  0  0
   19.2250   32.9369   22.5184 S   0  0  0  0  0  0  0  0  0  0  0  0
   20.3968   32.0052   22.7129 O   0  0  0  0  0  0  0  0  0  0  0  0
   18.1469   32.6934   21.4878 O   0  0  0  0  0  0  0  0  0  0  0  0
   18.3887   33.1189   23.8567 N   0  0  0  0  0  0  0  0  0  0  0  0
   17.4887   33.5115   23.5804 H   0  0  0  0  0  0  0  0  0  0  0  0
   18.0905   31.9920   24.7416 C   0  0  0  0  0  0  0  0  0  0  0  0
   19.1664   31.7885   25.8561 C   0  0  0  0  0  0  0  0  0  0  0  0
   17.8618   30.6749   23.9905 C   0  0  0  0  0  0  0  0  0  0  0  0
   16.7534   32.3899   25.3633 C   0  0  0  0  0  0  0  0  0  0  0  0
  6  5  1  0  0  0
  4  5  2  0  0  0
  4  3  1  0  0  0
  5  7  1  0  0  0
  3  1  2  0  0  0
  1  2  1  0  0  0
  1  8  1  0  0  0
  7 24  1  0  0  0
  7  2  2  0  0  0
 24 26  1  0  0  0
  8 15  1  0  0  0
 15 14  2  0  0  0
 15 12  1  0  0  0
 14 13  1  0  0  0
 26 28  2  0  0  0
 26 27  1  0  0  0
 28 29  1  0  0  0
 12 11  2  0  0  0
 13 10  2  0  0  0
 27 31  2  0  0  0
 29 30  2  0  0  0
 11 10  1  0  0  0
 10 16  1  0  0  0
 31 30  1  0  0  0
 31 32  1  0  0  0
 16 17  1  0  0  0
 34 32  2  0  0  0
 35 32  1  0  0  0
 35 37  1  0  0  0
 17 18  1  0  0  0
 32 33  2  0  0  0
 40 37  1  0  0  0
 38 37  1  0  0  0
 37 39  1  0  0  0
 18 23  1  0  0  0
 23 19  1  0  0  0
 23 22  1  0  0  0
 19 20  1  0  0  0
 22 21  1  0  0  0
 20 21  1  0  0  0
  8  9  1  0  0  0
 24 25  1  0  0  0
 35 36  1  0  0  0
M  END
> <minimizedAffinity>
-7.86241

$$$$
4OGJ_2TA_A_203


 40 43  0  0  0  0  0  0  0  0999 V2000
   20.0431   39.7825   23.8596 C   0  0  0  0  0  0  0  0  0  0  0  0
   20.6238   40.0549   22.6751 N   0  0  0  0  0  0  0  0  0  0  0  0
   19.3472   40.7130   24.5526 N   0  0  0  0  0  0  0  0  0  0  0  0
   19.1958   41.9705   23.9441 C   0  0  0  0  0  0  0  0  0  0  0  0
   19.7812   42.2936   22.7022 C   0  0  0  0  0  0  0  0  0  0  0  0
   19.5701   43.6541   22.1596 C   0  0  0  0  0  0  0  0  0  0  0  0
   20.5275   41.2621   22.0838 C   0  0  0  0  0  0  0  0  0  0  0  0
   20.1747   38.6184   24.5076 N   0  0  0  0  0  0  0  0  0  0  0  0
   20.3372   38.6567   25.4778 H   0  0  0  0  0  0  0  0  0  0  0  0
   19.6043   34.8282   22.8172 C   0  0  0  0  0  0  0  0  0  0  0  0
   18.8591   35.2905   23.8725 C   0  0  0  0  0  0  0  0  0  0  0  0
   19.0844   36.5486   24.4135 C   0  0  0  0  0  0  0  0  0  0  0  0
   20.6263   35.6215   22.3152 C   0  0  0  0  0  0  0  0  0  0  0  0
   20.8002   36.9082   22.8453 C   0  0  0  0  0  0  0  0  0  0  0  0
   20.1015   37.3777   23.9299 C   0  0  0  0  0  0  0  0  0  0  0  0
   19.4673   33.5756   22.1901 O   0  0  0  0  0  0  0  0  0  0  0  0
   18.2136   32.9091   22.2624 C   0  0  0  0  0  0  0  0  0  0  0  0
   18.4953   31.4267   21.9951 C   0  0  0  0  0  0  0  0  0  0  0  0
   20.2719   30.5956   23.4473 C   0  0  0  0  0  0  0  0  0  0  0  0
   20.4348   30.4655   24.9679 C   0  0  0  0  0  0  0  0  0  0  0  0
   19.3239   31.4769   25.3614 C   0  0  0  0  0  0  0  0  0  0  0  0
   18.1787   31.3301   24.3812 C   0  0  0  0  0  0  0  0  0  0  0  0
   18.8030   30.6787   23.2127 N   0  0  0  0  0  0  0  0  0  0  0  0
   21.0560   41.5678   20.8974 N   0  0  0  0  0  0  0  0  0  0  0  0
   21.4663   42.4567   20.7934 H   0  0  0  0  0  0  0  0  0  0  0  0
   21.0669   40.7080   19.7866 C   0  0  0  0  0  0  0  0  0  0  0  0
   22.1534   40.3472   18.9474 C   0  0  0  0  0  0  0  0  0  0  0  0
   19.7965   40.2077   19.4666 C   0  0  0  0  0  0  0  0  0  0  0  0
   19.5860   39.3540   18.3859 C   0  0  0  0  0  0  0  0  0  0  0  0
   20.6472   39.0430   17.5662 C   0  0  0  0  0  0  0  0  0  0  0  0
   21.9043   39.5429   17.8300 C   0  0  0  0  0  0  0  0  0  0  0  0
   23.2777   39.0233   16.8213 S   0  0  0  0  0  0  0  0  0  0  0  0
   24.4825   38.9164   17.7247 O   0  0  0  0  0  0  0  0  0  0  0  0
   23.2372   39.9310   15.6137 O   0  0  0  0  0  0  0  0  0  0  0  0
   22.8742   37.6145   16.2083 N   0  0  0  0  0  0  0  0  0  0  0  0
   22.1748   37.8046   15.4906 H   0  0  0  0  0  0  0  0  0  0  0  0
   23.8623   36.7271   15.5933 C   0  0  0  0  0  0  0  0  0  0  0  0
   25.2420   37.4204   15.3550 C   0  0  0  0  0  0  0  0  0  0  0  0
   23.3712   36.0814   14.2922 C   0  0  0  0  0  0  0  0  0  0  0  0
   24.0035   35.6073   16.6223 C   0  0  0  0  0  0  0  0  0  0  0  0
  6  5  1  0  0  0
  4  5  2  0  0  0
  4  3  1  0  0  0
  5  7  1  0  0  0
  3  1  2  0  0  0
  1  2  1  0  0  0
  1  8  1  0  0  0
  7 24  1  0  0  0
  7  2  2  0  0  0
 24 26  1  0  0  0
  8 15  1  0  0  0
 15 14  2  0  0  0
 15 12  1  0  0  0
 14 13  1  0  0  0
 26 28  2  0  0  0
 26 27  1  0  0  0
 28 29  1  0  0  0
 12 11  2  0  0  0
 13 10  2  0  0  0
 27 31  2  0  0  0
 29 30  2  0  0  0
 11 10  1  0  0  0
 10 16  1  0  0  0
 31 30  1  0  0  0
 31 32  1  0  0  0
 16 17  1  0  0  0
 34 32  2  0  0  0
 35 32  1  0  0  0
 35 37  1  0  0  0
 17 18  1  0  0  0
 32 33  2  0  0  0
 40 37  1  0  0  0
 38 37  1  0  0  0
 37 39  1  0  0  0
 18 23  1  0  0  0
 23 19  1  0  0  0
 23 22  1  0  0  0
 19 20  1  0  0  0
 22 21  1  0  0  0
 20 21  1  0  0  0
  8  9  1  0  0  0
 24 25  1  0  0  0
 35 36  1  0  0  0
M  END
> <minimizedAffinity>
-7.84547

$$$$
4OGJ_2TA_A_203


 40 43  0  0  0  0  0  0  0  0999 V2000
   18.3976   33.1172   23.4324 C   0  0  0  0  0  0  0  0  0  0  0  0
   19.3533   33.8417   22.8190 N   0  0  0  0  0  0  0  0  0  0  0  0
   17.5629   32.2999   22.7503 N   0  0  0  0  0  0  0  0  0  0  0  0
   17.7829   32.1847   21.3672 C   0  0  0  0  0  0  0  0  0  0  0  0
   18.7770   32.9198   20.6882 C   0  0  0  0  0  0  0  0  0  0  0  0
   18.9124   32.7328   19.2264 C   0  0  0  0  0  0  0  0  0  0  0  0
   19.5644   33.7808   21.4894 C   0  0  0  0  0  0  0  0  0  0  0  0
   18.1152   33.2039   24.7382 N   0  0  0  0  0  0  0  0  0  0  0  0
   17.7992   32.3870   25.1878 H   0  0  0  0  0  0  0  0  0  0  0  0
   18.6778   36.4835   27.2829 C   0  0  0  0  0  0  0  0  0  0  0  0
   18.6857   35.1864   27.7302 C   0  0  0  0  0  0  0  0  0  0  0  0
   18.4848   34.1254   26.8585 C   0  0  0  0  0  0  0  0  0  0  0  0
   18.4224   36.7322   25.9416 C   0  0  0  0  0  0  0  0  0  0  0  0
   18.2733   35.6416   25.0727 C   0  0  0  0  0  0  0  0  0  0  0  0
   18.2301   34.3375   25.4999 C   0  0  0  0  0  0  0  0  0  0  0  0
   18.8682   37.6344   28.0705 O   0  0  0  0  0  0  0  0  0  0  0  0
   19.2523   38.8442   27.4303 C   0  0  0  0  0  0  0  0  0  0  0  0
   20.5577   39.2913   28.0969 C   0  0  0  0  0  0  0  0  0  0  0  0
   21.4763   39.0265   25.8515 C   0  0  0  0  0  0  0  0  0  0  0  0
   22.8325   39.3467   25.2081 C   0  0  0  0  0  0  0  0  0  0  0  0
   23.3170   40.3540   26.2863 C   0  0  0  0  0  0  0  0  0  0  0  0
   22.8538   39.8595   27.6409 C   0  0  0  0  0  0  0  0  0  0  0  0
   21.7427   38.9436   27.3150 N   0  0  0  0  0  0  0  0  0  0  0  0
   20.5193   34.4525   20.8433 N   0  0  0  0  0  0  0  0  0  0  0  0
   21.1721   33.9329   20.3206 H   0  0  0  0  0  0  0  0  0  0  0  0
   20.6567   35.8504   20.8579 C   0  0  0  0  0  0  0  0  0  0  0  0
   20.7665   36.7484   19.7641 C   0  0  0  0  0  0  0  0  0  0  0  0
   20.7522   36.3795   22.1531 C   0  0  0  0  0  0  0  0  0  0  0  0
   20.9146   37.7433   22.3873 C   0  0  0  0  0  0  0  0  0  0  0  0
   21.0513   38.5920   21.3123 C   0  0  0  0  0  0  0  0  0  0  0  0
   20.9961   38.1037   20.0246 C   0  0  0  0  0  0  0  0  0  0  0  0
   21.0544   39.2441   18.6572 S   0  0  0  0  0  0  0  0  0  0  0  0
   21.8698   40.4347   19.1005 O   0  0  0  0  0  0  0  0  0  0  0  0
   19.6224   39.3606   18.1882 O   0  0  0  0  0  0  0  0  0  0  0  0
   21.7488   38.4683   17.4574 N   0  0  0  0  0  0  0  0  0  0  0  0
   21.1893   38.6653   16.6276 H   0  0  0  0  0  0  0  0  0  0  0  0
   23.1416   38.7136   17.0810 C   0  0  0  0  0  0  0  0  0  0  0  0
   23.7267   37.6059   16.1473 C   0  0  0  0  0  0  0  0  0  0  0  0
   24.0675   38.9236   18.2851 C   0  0  0  0  0  0  0  0  0  0  0  0
   23.0655   40.0459   16.3381 C   0  0  0  0  0  0  0  0  0  0  0  0
  6  5  1  0  0  0
  4  5  2  0  0  0
  4  3  1  0  0  0
  5  7  1  0  0  0
  3  1  2  0  0  0
  1  2  1  0  0  0
  1  8  1  0  0  0
  7 24  1  0  0  0
  7  2  2  0  0  0
 24 26  1  0  0  0
  8 15  1  0  0  0
 15 14  2  0  0  0
 15 12  1  0  0  0
 14 13  1  0  0  0
 26 28  2  0  0  0
 26 27  1  0  0  0
 28 29  1  0  0  0
 12 11  2  0  0  0
 13 10  2  0  0  0
 27 31  2  0  0  0
 29 30  2  0  0  0
 11 10  1  0  0  0
 10 16  1  0  0  0
 31 30  1  0  0  0
 31 32  1  0  0  0
 16 17  1  0  0  0
 34 32  2  0  0  0
 35 32  1  0  0  0
 35 37  1  0  0  0
 17 18  1  0  0  0
 32 33  2  0  0  0
 40 37  1  0  0  0
 38 37  1  0  0  0
 37 39  1  0  0  0
 18 23  1  0  0  0
 23 19  1  0  0  0
 23 22  1  0  0  0
 19 20  1  0  0  0
 22 21  1  0  0  0
 20 21  1  0  0  0
  8  9  1  0  0  0
 24 25  1  0  0  0
 35 36  1  0  0  0
M  END
> <minimizedAffinity>
-7.67299

$$$$
4OGJ_2TA_A_203


 40 43  0  0  0  0  0  0  0  0999 V2000
   20.7626   39.9372   19.0365 C   0  0  0  0  0  0  0  0  0  0  0  0
   20.6618   38.7213   19.6072 N   0  0  0  0  0  0  0  0  0  0  0  0
   21.7312   40.2353   18.1404 N   0  0  0  0  0  0  0  0  0  0  0  0
   22.5956   39.1897   17.7742 C   0  0  0  0  0  0  0  0  0  0  0  0
   22.5190   37.9009   18.3423 C   0  0  0  0  0  0  0  0  0  0  0  0
   23.4898   36.8777   17.8943 C   0  0  0  0  0  0  0  0  0  0  0  0
   21.4985   37.7092   19.3041 C   0  0  0  0  0  0  0  0  0  0  0  0
   19.9937   40.9834   19.3632 N   0  0  0  0  0  0  0  0  0  0  0  0
   19.5107   41.4350   18.6338 H   0  0  0  0  0  0  0  0  0  0  0  0
   19.8291   42.5255   23.2547 C   0  0  0  0  0  0  0  0  0  0  0  0
   20.8847   41.7786   22.7958 C   0  0  0  0  0  0  0  0  0  0  0  0
   20.8991   41.2749   21.5026 C   0  0  0  0  0  0  0  0  0  0  0  0
   18.7425   42.7411   22.4188 C   0  0  0  0  0  0  0  0  0  0  0  0
   18.8036   42.2652   21.1010 C   0  0  0  0  0  0  0  0  0  0  0  0
   19.8245   41.4768   20.6307 C   0  0  0  0  0  0  0  0  0  0  0  0
   19.7047   43.0845   24.5403 O   0  0  0  0  0  0  0  0  0  0  0  0
   19.9733   42.2649   25.6704 C   0  0  0  0  0  0  0  0  0  0  0  0
   21.3525   42.6834   26.1909 C   0  0  0  0  0  0  0  0  0  0  0  0
   21.2329   40.4009   27.0463 C   0  0  0  0  0  0  0  0  0  0  0  0
   22.1367   39.1663   26.9245 C   0  0  0  0  0  0  0  0  0  0  0  0
   22.9319   39.6399   25.6775 C   0  0  0  0  0  0  0  0  0  0  0  0
   23.1535   41.1336   25.7942 C   0  0  0  0  0  0  0  0  0  0  0  0
   22.1125   41.5657   26.7476 N   0  0  0  0  0  0  0  0  0  0  0  0
   21.4166   36.4802   19.8172 N   0  0  0  0  0  0  0  0  0  0  0  0
   21.8972   35.7568   19.3537 H   0  0  0  0  0  0  0  0  0  0  0  0
   20.6914   36.1481   20.9735 C   0  0  0  0  0  0  0  0  0  0  0  0
   20.2817   36.9876   22.0424 C   0  0  0  0  0  0  0  0  0  0  0  0
   20.4062   34.7784   21.0686 C   0  0  0  0  0  0  0  0  0  0  0  0
   19.7136   34.2382   22.1502 C   0  0  0  0  0  0  0  0  0  0  0  0
   19.3543   35.0644   23.1908 C   0  0  0  0  0  0  0  0  0  0  0  0
   19.6472   36.4106   23.1478 C   0  0  0  0  0  0  0  0  0  0  0  0
   19.0611   37.4717   24.4532 S   0  0  0  0  0  0  0  0  0  0  0  0
   19.7590   38.8013   24.2980 O   0  0  0  0  0  0  0  0  0  0  0  0
   19.1619   36.6351   25.7078 O   0  0  0  0  0  0  0  0  0  0  0  0
   17.4909   37.6035   24.2512 N   0  0  0  0  0  0  0  0  0  0  0  0
   17.0708   37.4516   25.1682 H   0  0  0  0  0  0  0  0  0  0  0  0
   16.8795   38.8208   23.7163 C   0  0  0  0  0  0  0  0  0  0  0  0
   17.2374   39.0768   22.2171 C   0  0  0  0  0  0  0  0  0  0  0  0
   17.1899   40.0713   24.5476 C   0  0  0  0  0  0  0  0  0  0  0  0
   15.3844   38.5458   23.8638 C   0  0  0  0  0  0  0  0  0  0  0  0
  6  5  1  0  0  0
  4  5  2  0  0  0
  4  3  1  0  0  0
  5  7  1  0  0  0
  3  1  2  0  0  0
  1  2  1  0  0  0
  1  8  1  0  0  0
  7 24  1  0  0  0
  7  2  2  0  0  0
 24 26  1  0  0  0
  8 15  1  0  0  0
 15 14  2  0  0  0
 15 12  1  0  0  0
 14 13  1  0  0  0
 26 28  2  0  0  0
 26 27  1  0  0  0
 28 29  1  0  0  0
 12 11  2  0  0  0
 13 10  2  0  0  0
 27 31  2  0  0  0
 29 30  2  0  0  0
 11 10  1  0  0  0
 10 16  1  0  0  0
 31 30  1  0  0  0
 31 32  1  0  0  0
 16 17  1  0  0  0
 34 32  2  0  0  0
 35 32  1  0  0  0
 35 37  1  0  0  0
 17 18  1  0  0  0
 32 33  2  0  0  0
 40 37  1  0  0  0
 38 37  1  0  0  0
 37 39  1  0  0  0
 18 23  1  0  0  0
 23 19  1  0  0  0
 23 22  1  0  0  0
 19 20  1  0  0  0
 22 21  1  0  0  0
 20 21  1  0  0  0
  8  9  1  0  0  0
 24 25  1  0  0  0
 35 36  1  0  0  0
M  END
> <minimizedAffinity>
-7.67045

$$$$
4OGJ_2TA_A_203


 40 43  0  0  0  0  0  0  0  0999 V2000
   20.3017   34.7676   20.0593 C   0  0  0  0  0  0  0  0  0  0  0  0
   20.2593   34.4070   21.3565 N   0  0  0  0  0  0  0  0  0  0  0  0
   19.6712   34.0607   19.0934 N   0  0  0  0  0  0  0  0  0  0  0  0
   18.9043   32.9612   19.5146 C   0  0  0  0  0  0  0  0  0  0  0  0
   18.8276   32.5551   20.8633 C   0  0  0  0  0  0  0  0  0  0  0  0
   18.0017   31.3726   21.1943 C   0  0  0  0  0  0  0  0  0  0  0  0
   19.5628   33.3364   21.7865 C   0  0  0  0  0  0  0  0  0  0  0  0
   21.0369   35.7823   19.5882 N   0  0  0  0  0  0  0  0  0  0  0  0
   21.8609   35.5551   19.0996 H   0  0  0  0  0  0  0  0  0  0  0  0
   20.4654   39.9084   20.0318 C   0  0  0  0  0  0  0  0  0  0  0  0
   21.5428   39.2464   20.5643 C   0  0  0  0  0  0  0  0  0  0  0  0
   21.6929   37.8758   20.4058 C   0  0  0  0  0  0  0  0  0  0  0  0
   19.4923   39.1814   19.3605 C   0  0  0  0  0  0  0  0  0  0  0  0
   19.6927   37.8065   19.1699 C   0  0  0  0  0  0  0  0  0  0  0  0
   20.7357   37.1117   19.7308 C   0  0  0  0  0  0  0  0  0  0  0  0
   20.2086   41.2889   20.1288 O   0  0  0  0  0  0  0  0  0  0  0  0
   18.9371   41.7155   20.6002 C   0  0  0  0  0  0  0  0  0  0  0  0
   19.1403   42.1591   22.0529 C   0  0  0  0  0  0  0  0  0  0  0  0
   20.3982   44.1868   22.5648 C   0  0  0  0  0  0  0  0  0  0  0  0
   21.6129   44.4946   23.4511 C   0  0  0  0  0  0  0  0  0  0  0  0
   21.5290   43.2182   24.3318 C   0  0  0  0  0  0  0  0  0  0  0  0
   21.0979   42.0622   23.4534 C   0  0  0  0  0  0  0  0  0  0  0  0
   20.4670   42.7234   22.2939 N   0  0  0  0  0  0  0  0  0  0  0  0
   19.4638   32.9611   23.0631 N   0  0  0  0  0  0  0  0  0  0  0  0
   19.9953   32.1857   23.3557 H   0  0  0  0  0  0  0  0  0  0  0  0
   18.6531   33.5966   24.0181 C   0  0  0  0  0  0  0  0  0  0  0  0
   18.5616   34.9773   24.3350 C   0  0  0  0  0  0  0  0  0  0  0  0
   17.8903   32.6974   24.7771 C   0  0  0  0  0  0  0  0  0  0  0  0
   17.0356   33.1221   25.7921 C   0  0  0  0  0  0  0  0  0  0  0  0
   16.9866   34.4618   26.1045 C   0  0  0  0  0  0  0  0  0  0  0  0
   17.7474   35.3717   25.4022 C   0  0  0  0  0  0  0  0  0  0  0  0
   17.5687   37.1096   25.7506 S   0  0  0  0  0  0  0  0  0  0  0  0
   18.9406   37.6435   26.0848 O   0  0  0  0  0  0  0  0  0  0  0  0
   16.4010   37.1954   26.7062 O   0  0  0  0  0  0  0  0  0  0  0  0
   16.9841   37.7723   24.4305 N   0  0  0  0  0  0  0  0  0  0  0  0
   16.0328   38.0643   24.6542 H   0  0  0  0  0  0  0  0  0  0  0  0
   17.6269   38.9219   23.7924 C   0  0  0  0  0  0  0  0  0  0  0  0
   19.0602   38.6026   23.2589 C   0  0  0  0  0  0  0  0  0  0  0  0
   17.6682   40.1671   24.6862 C   0  0  0  0  0  0  0  0  0  0  0  0
   16.6877   39.2372   22.6300 C   0  0  0  0  0  0  0  0  0  0  0  0
  6  5  1  0  0  0
  4  5  2  0  0  0
  4  3  1  0  0  0
  5  7  1  0  0  0
  3  1  2  0  0  0
  1  2  1  0  0  0
  1  8  1  0  0  0
  7 24  1  0  0  0
  7  2  2  0  0  0
 24 26  1  0  0  0
  8 15  1  0  0  0
 15 14  2  0  0  0
 15 12  1  0  0  0
 14 13  1  0  0  0
 26 28  2  0  0  0
 26 27  1  0  0  0
 28 29  1  0  0  0
 12 11  2  0  0  0
 13 10  2  0  0  0
 27 31  2  0  0  0
 29 30  2  0  0  0
 11 10  1  0  0  0
 10 16  1  0  0  0
 31 30  1  0  0  0
 31 32  1  0  0  0
 16 17  1  0  0  0
 34 32  2  0  0  0
 35 32  1  0  0  0
 35 37  1  0  0  0
 17 18  1  0  0  0
 32 33  2  0  0  0
 40 37  1  0  0  0
 38 37  1  0  0  0
 37 39  1  0  0  0
 18 23  1  0  0  0
 23 19  1  0  0  0
 23 22  1  0  0  0
 19 20  1  0  0  0
 22 21  1  0  0  0
 20 21  1  0  0  0
  8  9  1  0  0  0
 24 25  1  0  0  0
 35 36  1  0  0  0
M  END
> <minimizedAffinity>
-7.62707

$$$$
4OGJ_2TA_A_203


 40 43  0  0  0  0  0  0  0  0999 V2000
   18.7881   33.0227   23.4281 C   0  0  0  0  0  0  0  0  0  0  0  0
   19.6839   33.8197   22.8142 N   0  0  0  0  0  0  0  0  0  0  0  0
   17.9397   32.2261   22.7383 N   0  0  0  0  0  0  0  0  0  0  0  0
   18.0816   32.2136   21.3404 C   0  0  0  0  0  0  0  0  0  0  0  0
   19.0116   33.0269   20.6597 C   0  0  0  0  0  0  0  0  0  0  0  0
   19.0667   32.9453   19.1831 C   0  0  0  0  0  0  0  0  0  0  0  0
   19.8185   33.8573   21.4739 C   0  0  0  0  0  0  0  0  0  0  0  0
   18.5802   33.0100   24.7505 N   0  0  0  0  0  0  0  0  0  0  0  0
   19.0331   32.3091   25.2729 H   0  0  0  0  0  0  0  0  0  0  0  0
   16.3357   35.9717   26.6844 C   0  0  0  0  0  0  0  0  0  0  0  0
   17.6454   36.1532   26.3175 C   0  0  0  0  0  0  0  0  0  0  0  0
   18.3607   35.1443   25.6877 C   0  0  0  0  0  0  0  0  0  0  0  0
   15.7363   34.7410   26.4558 C   0  0  0  0  0  0  0  0  0  0  0  0
   16.4639   33.7558   25.7726 C   0  0  0  0  0  0  0  0  0  0  0  0
   17.7879   33.8935   25.4363 C   0  0  0  0  0  0  0  0  0  0  0  0
   15.5148   36.9177   27.3262 O   0  0  0  0  0  0  0  0  0  0  0  0
   15.8774   38.2909   27.2636 C   0  0  0  0  0  0  0  0  0  0  0  0
   14.9593   38.9339   26.2186 C   0  0  0  0  0  0  0  0  0  0  0  0
   17.1298   39.7069   25.4141 C   0  0  0  0  0  0  0  0  0  0  0  0
   17.8770   39.5897   24.0785 C   0  0  0  0  0  0  0  0  0  0  0  0
   17.0567   38.3999   23.5099 C   0  0  0  0  0  0  0  0  0  0  0  0
   15.6115   38.5764   23.9273 C   0  0  0  0  0  0  0  0  0  0  0  0
   15.6932   39.4907   25.0837 N   0  0  0  0  0  0  0  0  0  0  0  0
   20.7132   34.6039   20.8238 N   0  0  0  0  0  0  0  0  0  0  0  0
   21.4043   34.1386   20.2993 H   0  0  0  0  0  0  0  0  0  0  0  0
   20.7363   36.0083   20.8368 C   0  0  0  0  0  0  0  0  0  0  0  0
   20.8325   36.9099   19.7447 C   0  0  0  0  0  0  0  0  0  0  0  0
   20.7181   36.5461   22.1318 C   0  0  0  0  0  0  0  0  0  0  0  0
   20.7570   37.9191   22.3656 C   0  0  0  0  0  0  0  0  0  0  0  0
   20.8830   38.7739   21.2941 C   0  0  0  0  0  0  0  0  0  0  0  0
   20.9375   38.2799   20.0084 C   0  0  0  0  0  0  0  0  0  0  0  0
   20.9777   39.4185   18.6388 S   0  0  0  0  0  0  0  0  0  0  0  0
   21.7673   40.6262   19.0825 O   0  0  0  0  0  0  0  0  0  0  0  0
   19.5454   39.5051   18.1644 O   0  0  0  0  0  0  0  0  0  0  0  0
   21.6920   38.6543   17.4432 N   0  0  0  0  0  0  0  0  0  0  0  0
   21.1325   38.8395   16.6107 H   0  0  0  0  0  0  0  0  0  0  0  0
   23.0816   38.9256   17.0725 C   0  0  0  0  0  0  0  0  0  0  0  0
   24.0296   39.0547   18.3077 C   0  0  0  0  0  0  0  0  0  0  0  0
   23.2389   40.1504   16.1637 C   0  0  0  0  0  0  0  0  0  0  0  0
   23.4590   37.7010   16.2415 C   0  0  0  0  0  0  0  0  0  0  0  0
  6  5  1  0  0  0
  4  5  2  0  0  0
  4  3  1  0  0  0
  5  7  1  0  0  0
  3  1  2  0  0  0
  1  2  1  0  0  0
  1  8  1  0  0  0
  7 24  1  0  0  0
  7  2  2  0  0  0
 24 26  1  0  0  0
  8 15  1  0  0  0
 15 14  2  0  0  0
 15 12  1  0  0  0
 14 13  1  0  0  0
 26 28  2  0  0  0
 26 27  1  0  0  0
 28 29  1  0  0  0
 12 11  2  0  0  0
 13 10  2  0  0  0
 27 31  2  0  0  0
 29 30  2  0  0  0
 11 10  1  0  0  0
 10 16  1  0  0  0
 31 30  1  0  0  0
 31 32  1  0  0  0
 16 17  1  0  0  0
 34 32  2  0  0  0
 35 32  1  0  0  0
 35 37  1  0  0  0
 17 18  1  0  0  0
 32 33  2  0  0  0
 40 37  1  0  0  0
 38 37  1  0  0  0
 37 39  1  0  0  0
 18 23  1  0  0  0
 23 19  1  0  0  0
 23 22  1  0  0  0
 19 20  1  0  0  0
 22 21  1  0  0  0
 20 21  1  0  0  0
  8  9  1  0  0  0
 24 25  1  0  0  0
 35 36  1  0  0  0
M  END
> <minimizedAffinity>
-7.61958

$$$$
4OGJ_2TA_A_203


 40 43  0  0  0  0  0  0  0  0999 V2000
   17.8159   39.7725   21.7639 C   0  0  0  0  0  0  0  0  0  0  0  0
   18.1311   41.0792   21.8519 N   0  0  0  0  0  0  0  0  0  0  0  0
   16.7200   39.2531   22.3634 N   0  0  0  0  0  0  0  0  0  0  0  0
   15.8777   40.1578   23.0317 C   0  0  0  0  0  0  0  0  0  0  0  0
   16.1677   41.5339   23.1404 C   0  0  0  0  0  0  0  0  0  0  0  0
   15.2182   42.3948   23.8803 C   0  0  0  0  0  0  0  0  0  0  0  0
   17.3629   41.9647   22.5166 C   0  0  0  0  0  0  0  0  0  0  0  0
   18.5892   38.8543   21.1714 N   0  0  0  0  0  0  0  0  0  0  0  0
   18.3882   37.9079   21.3537 H   0  0  0  0  0  0  0  0  0  0  0  0
   21.5558   39.7897   18.3655 C   0  0  0  0  0  0  0  0  0  0  0  0
   20.3020   39.3633   18.0066 C   0  0  0  0  0  0  0  0  0  0  0  0
   19.3480   39.0520   18.9653 C   0  0  0  0  0  0  0  0  0  0  0  0
   21.8808   39.8683   19.7124 C   0  0  0  0  0  0  0  0  0  0  0  0
   20.8841   39.5974   20.6611 C   0  0  0  0  0  0  0  0  0  0  0  0
   19.6379   39.1247   20.3315 C   0  0  0  0  0  0  0  0  0  0  0  0
   22.5999   40.1312   17.4857 O   0  0  0  0  0  0  0  0  0  0  0  0
   23.7917   39.3564   17.5069 C   0  0  0  0  0  0  0  0  0  0  0  0
   23.9891   38.8264   16.0826 C   0  0  0  0  0  0  0  0  0  0  0  0
   23.7604   36.5707   16.9855 C   0  0  0  0  0  0  0  0  0  0  0  0
   23.8706   35.1633   16.3831 C   0  0  0  0  0  0  0  0  0  0  0  0
   23.6903   35.5815   14.8984 C   0  0  0  0  0  0  0  0  0  0  0  0
   24.3966   36.9048   14.6883 C   0  0  0  0  0  0  0  0  0  0  0  0
   24.5070   37.4599   16.0519 N   0  0  0  0  0  0  0  0  0  0  0  0
   17.6162   43.2719   22.6020 N   0  0  0  0  0  0  0  0  0  0  0  0
   16.8723   43.8951   22.4359 H   0  0  0  0  0  0  0  0  0  0  0  0
   18.8718   43.8198   22.9128 C   0  0  0  0  0  0  0  0  0  0  0  0
   19.7974   43.4210   23.9124 C   0  0  0  0  0  0  0  0  0  0  0  0
   19.1845   44.9489   22.1422 C   0  0  0  0  0  0  0  0  0  0  0  0
   20.3746   45.6541   22.3082 C   0  0  0  0  0  0  0  0  0  0  0  0
   21.2429   45.2700   23.3049 C   0  0  0  0  0  0  0  0  0  0  0  0
   20.9536   44.1851   24.1043 C   0  0  0  0  0  0  0  0  0  0  0  0
   22.1542   43.6414   25.3028 S   0  0  0  0  0  0  0  0  0  0  0  0
   21.4454   43.5351   26.6314 O   0  0  0  0  0  0  0  0  0  0  0  0
   23.3533   44.5347   25.0832 O   0  0  0  0  0  0  0  0  0  0  0  0
   22.6792   42.2288   24.8004 N   0  0  0  0  0  0  0  0  0  0  0  0
   23.6936   42.2466   24.9061 H   0  0  0  0  0  0  0  0  0  0  0  0
   22.2256   40.9755   25.4051 C   0  0  0  0  0  0  0  0  0  0  0  0
   21.8355   39.8930   24.3482 C   0  0  0  0  0  0  0  0  0  0  0  0
   21.0792   41.1648   26.4057 C   0  0  0  0  0  0  0  0  0  0  0  0
   23.4452   40.5201   26.2037 C   0  0  0  0  0  0  0  0  0  0  0  0
  6  5  1  0  0  0
  4  5  2  0  0  0
  4  3  1  0  0  0
  5  7  1  0  0  0
  3  1  2  0  0  0
  1  2  1  0  0  0
  1  8  1  0  0  0
  7 24  1  0  0  0
  7  2  2  0  0  0
 24 26  1  0  0  0
  8 15  1  0  0  0
 15 14  2  0  0  0
 15 12  1  0  0  0
 14 13  1  0  0  0
 26 28  2  0  0  0
 26 27  1  0  0  0
 28 29  1  0  0  0
 12 11  2  0  0  0
 13 10  2  0  0  0
 27 31  2  0  0  0
 29 30  2  0  0  0
 11 10  1  0  0  0
 10 16  1  0  0  0
 31 30  1  0  0  0
 31 32  1  0  0  0
 16 17  1  0  0  0
 34 32  2  0  0  0
 35 32  1  0  0  0
 35 37  1  0  0  0
 17 18  1  0  0  0
 32 33  2  0  0  0
 40 37  1  0  0  0
 38 37  1  0  0  0
 37 39  1  0  0  0
 18 23  1  0  0  0
 23 19  1  0  0  0
 23 22  1  0  0  0
 19 20  1  0  0  0
 22 21  1  0  0  0
 20 21  1  0  0  0
  8  9  1  0  0  0
 24 25  1  0  0  0
 35 36  1  0  0  0
M  END
> <minimizedAffinity>
-7.56843

$$$$
4OGJ_2TA_A_203


 40 43  0  0  0  0  0  0  0  0999 V2000
   21.6428   40.1489   19.3109 C   0  0  0  0  0  0  0  0  0  0  0  0
   21.3067   38.9373   19.7942 N   0  0  0  0  0  0  0  0  0  0  0  0
   22.5650   40.3050   18.3335 N   0  0  0  0  0  0  0  0  0  0  0  0
   23.1131   39.1310   17.7896 C   0  0  0  0  0  0  0  0  0  0  0  0
   22.7826   37.8436   18.2619 C   0  0  0  0  0  0  0  0  0  0  0  0
   23.4311   36.6751   17.6264 C   0  0  0  0  0  0  0  0  0  0  0  0
   21.8422   37.7957   19.3186 C   0  0  0  0  0  0  0  0  0  0  0  0
   21.1833   41.3054   19.8045 N   0  0  0  0  0  0  0  0  0  0  0  0
   21.5877   42.1354   19.4629 H   0  0  0  0  0  0  0  0  0  0  0  0
   18.3585   41.9365   22.8329 C   0  0  0  0  0  0  0  0  0  0  0  0
   19.7038   42.1314   23.0197 C   0  0  0  0  0  0  0  0  0  0  0  0
   20.6114   41.9014   21.9953 C   0  0  0  0  0  0  0  0  0  0  0  0
   17.9102   41.4612   21.6085 C   0  0  0  0  0  0  0  0  0  0  0  0
   18.8410   41.2853   20.5744 C   0  0  0  0  0  0  0  0  0  0  0  0
   20.1956   41.4276   20.7469 C   0  0  0  0  0  0  0  0  0  0  0  0
   17.3496   42.1353   23.7939 O   0  0  0  0  0  0  0  0  0  0  0  0
   16.3574   43.1233   23.5482 C   0  0  0  0  0  0  0  0  0  0  0  0
   17.0628   44.4799   23.6493 C   0  0  0  0  0  0  0  0  0  0  0  0
   18.2543   45.3344   21.6984 C   0  0  0  0  0  0  0  0  0  0  0  0
   17.8867   45.5206   20.2198 C   0  0  0  0  0  0  0  0  0  0  0  0
   16.6779   44.5457   20.2042 C   0  0  0  0  0  0  0  0  0  0  0  0
   15.9459   44.6751   21.5239 C   0  0  0  0  0  0  0  0  0  0  0  0
   16.9545   45.2691   22.4237 N   0  0  0  0  0  0  0  0  0  0  0  0
   21.5157   36.5731   19.7416 N   0  0  0  0  0  0  0  0  0  0  0  0
   21.7535   35.8101   19.1667 H   0  0  0  0  0  0  0  0  0  0  0  0
   20.8559   36.3002   20.9514 C   0  0  0  0  0  0  0  0  0  0  0  0
   20.6334   37.1579   22.0603 C   0  0  0  0  0  0  0  0  0  0  0  0
   20.4270   34.9691   21.0551 C   0  0  0  0  0  0  0  0  0  0  0  0
   19.7699   34.4873   22.1852 C   0  0  0  0  0  0  0  0  0  0  0  0
   19.5933   35.3269   23.2616 C   0  0  0  0  0  0  0  0  0  0  0  0
   20.0315   36.6327   23.2090 C   0  0  0  0  0  0  0  0  0  0  0  0
   19.6789   37.7255   24.5710 S   0  0  0  0  0  0  0  0  0  0  0  0
   19.3009   36.8636   25.7513 O   0  0  0  0  0  0  0  0  0  0  0  0
   18.7581   38.7770   23.9961 O   0  0  0  0  0  0  0  0  0  0  0  0
   21.0121   38.5453   24.8430 N   0  0  0  0  0  0  0  0  0  0  0  0
   21.2764   38.9654   23.9519 H   0  0  0  0  0  0  0  0  0  0  0  0
   21.0709   39.6187   25.8362 C   0  0  0  0  0  0  0  0  0  0  0  0
   19.6671   40.2141   26.1765 C   0  0  0  0  0  0  0  0  0  0  0  0
   22.0373   40.7462   25.4542 C   0  0  0  0  0  0  0  0  0  0  0  0
   21.6603   38.9203   27.0599 C   0  0  0  0  0  0  0  0  0  0  0  0
  6  5  1  0  0  0
  4  5  2  0  0  0
  4  3  1  0  0  0
  5  7  1  0  0  0
  3  1  2  0  0  0
  1  2  1  0  0  0
  1  8  1  0  0  0
  7 24  1  0  0  0
  7  2  2  0  0  0
 24 26  1  0  0  0
  8 15  1  0  0  0
 15 14  2  0  0  0
 15 12  1  0  0  0
 14 13  1  0  0  0
 26 28  2  0  0  0
 26 27  1  0  0  0
 28 29  1  0  0  0
 12 11  2  0  0  0
 13 10  2  0  0  0
 27 31  2  0  0  0
 29 30  2  0  0  0
 11 10  1  0  0  0
 10 16  1  0  0  0
 31 30  1  0  0  0
 31 32  1  0  0  0
 16 17  1  0  0  0
 34 32  2  0  0  0
 35 32  1  0  0  0
 35 37  1  0  0  0
 17 18  1  0  0  0
 32 33  2  0  0  0
 40 37  1  0  0  0
 38 37  1  0  0  0
 37 39  1  0  0  0
 18 23  1  0  0  0
 23 19  1  0  0  0
 23 22  1  0  0  0
 19 20  1  0  0  0
 22 21  1  0  0  0
 20 21  1  0  0  0
  8  9  1  0  0  0
 24 25  1  0  0  0
 35 36  1  0  0  0
M  END
> <minimizedAffinity>
-7.43527

$$$$
4OGJ_2TA_A_203


 40 43  0  0  0  0  0  0  0  0999 V2000
   19.8774   33.8427   21.4624 C   0  0  0  0  0  0  0  0  0  0  0  0
   19.6132   34.1942   22.7356 N   0  0  0  0  0  0  0  0  0  0  0  0
   19.4586   32.6686   20.9368 N   0  0  0  0  0  0  0  0  0  0  0  0
   18.6681   31.8530   21.7640 C   0  0  0  0  0  0  0  0  0  0  0  0
   18.3625   32.1879   23.0997 C   0  0  0  0  0  0  0  0  0  0  0  0
   17.5333   31.2481   23.8867 C   0  0  0  0  0  0  0  0  0  0  0  0
   18.8892   33.4166   23.5646 C   0  0  0  0  0  0  0  0  0  0  0  0
   20.6490   34.5567   20.6335 N   0  0  0  0  0  0  0  0  0  0  0  0
   21.2805   34.0608   20.0638 H   0  0  0  0  0  0  0  0  0  0  0  0
   20.2682   38.6981   20.1312 C   0  0  0  0  0  0  0  0  0  0  0  0
   19.6638   37.7902   19.2986 C   0  0  0  0  0  0  0  0  0  0  0  0
   19.8219   36.4247   19.4899 C   0  0  0  0  0  0  0  0  0  0  0  0
   21.0834   38.2352   21.1545 C   0  0  0  0  0  0  0  0  0  0  0  0
   21.1860   36.8514   21.3581 C   0  0  0  0  0  0  0  0  0  0  0  0
   20.6311   35.9219   20.5137 C   0  0  0  0  0  0  0  0  0  0  0  0
   20.1809   40.0995   20.0345 O   0  0  0  0  0  0  0  0  0  0  0  0
   21.2936   40.8191   19.5194 C   0  0  0  0  0  0  0  0  0  0  0  0
   21.4714   40.3607   18.0680 C   0  0  0  0  0  0  0  0  0  0  0  0
   23.2772   38.7205   18.1385 C   0  0  0  0  0  0  0  0  0  0  0  0
   24.3922   38.3176   17.1638 C   0  0  0  0  0  0  0  0  0  0  0  0
   23.7506   38.9236   15.8859 C   0  0  0  0  0  0  0  0  0  0  0  0
   23.0651   40.2193   16.2671 C   0  0  0  0  0  0  0  0  0  0  0  0
   22.8665   40.0915   17.7244 N   0  0  0  0  0  0  0  0  0  0  0  0
   18.5737   33.7380   24.8206 N   0  0  0  0  0  0  0  0  0  0  0  0
   18.7608   33.0754   25.5244 H   0  0  0  0  0  0  0  0  0  0  0  0
   17.9927   34.9571   25.2073 C   0  0  0  0  0  0  0  0  0  0  0  0
   18.4934   36.2755   25.0465 C   0  0  0  0  0  0  0  0  0  0  0  0
   16.7808   34.7947   25.8939 C   0  0  0  0  0  0  0  0  0  0  0  0
   16.0538   35.8784   26.3822 C   0  0  0  0  0  0  0  0  0  0  0  0
   16.5734   37.1455   26.2440 C   0  0  0  0  0  0  0  0  0  0  0  0
   17.7784   37.3411   25.6042 C   0  0  0  0  0  0  0  0  0  0  0  0
   18.3624   39.0025   25.3353 S   0  0  0  0  0  0  0  0  0  0  0  0
   19.5615   38.9142   24.4224 O   0  0  0  0  0  0  0  0  0  0  0  0
   18.4257   39.6191   26.7136 O   0  0  0  0  0  0  0  0  0  0  0  0
   17.1630   39.7936   24.6576 N   0  0  0  0  0  0  0  0  0  0  0  0
   17.0804   40.6756   25.1632 H   0  0  0  0  0  0  0  0  0  0  0  0
   17.1682   40.1353   23.2345 C   0  0  0  0  0  0  0  0  0  0  0  0
   17.2677   38.8830   22.3056 C   0  0  0  0  0  0  0  0  0  0  0  0
   18.2533   41.1513   22.8585 C   0  0  0  0  0  0  0  0  0  0  0  0
   15.8210   40.8293   23.0446 C   0  0  0  0  0  0  0  0  0  0  0  0
  6  5  1  0  0  0
  4  5  2  0  0  0
  4  3  1  0  0  0
  5  7  1  0  0  0
  3  1  2  0  0  0
  1  2  1  0  0  0
  1  8  1  0  0  0
  7 24  1  0  0  0
  7  2  2  0  0  0
 24 26  1  0  0  0
  8 15  1  0  0  0
 15 14  2  0  0  0
 15 12  1  0  0  0
 14 13  1  0  0  0
 26 28  2  0  0  0
 26 27  1  0  0  0
 28 29  1  0  0  0
 12 11  2  0  0  0
 13 10  2  0  0  0
 27 31  2  0  0  0
 29 30  2  0  0  0
 11 10  1  0  0  0
 10 16  1  0  0  0
 31 30  1  0  0  0
 31 32  1  0  0  0
 16 17  1  0  0  0
 34 32  2  0  0  0
 35 32  1  0  0  0
 35 37  1  0  0  0
 17 18  1  0  0  0
 32 33  2  0  0  0
 40 37  1  0  0  0
 38 37  1  0  0  0
 37 39  1  0  0  0
 18 23  1  0  0  0
 23 19  1  0  0  0
 23 22  1  0  0  0
 19 20  1  0  0  0
 22 21  1  0  0  0
 20 21  1  0  0  0
  8  9  1  0  0  0
 24 25  1  0  0  0
 35 36  1  0  0  0
M  END
> <minimizedAffinity>
-7.40816

$$$$
