4OGJ_2TA_A_203
  RCSB PDB12061714033D
Coordinates from PDB:4OGJ:A:203 Model:1 without hydrogens
 37 40  0  0  0  0            999 V2000
   16.3660   40.7830   26.0320   C 0  0  0  0  0  0  0  0  0  0  0  0
   16.0390   39.5760   26.9220   C 0  0  0  0  0  0  0  0  0  0  0  0
   14.6750   40.0980   27.4500   C 0  0  0  0  0  0  0  0  0  0  0  0
   13.9770   40.8290   26.3220   C 0  0  0  0  0  0  0  0  0  0  0  0
   15.0750   41.1650   25.3940   N 0  0  0  0  0  0  0  0  0  0  0  0
   15.0390   42.5890   25.0660   C 0  0  0  0  0  0  0  0  0  0  0  0
   16.1540   43.0060   24.1010   C 0  0  0  0  0  0  0  0  0  0  0  0
   16.2570   41.9690   23.1340   O 0  0  0  0  0  0  0  0  0  0  0  0
   17.4280   41.8820   22.3580   C 0  0  0  0  0  0  0  0  0  0  0  0
   18.3930   42.8500   22.2380   C 0  0  0  0  0  0  0  0  0  0  0  0
   19.5120   42.6530   21.4410   C 0  0  0  0  0  0  0  0  0  0  0  0
   17.6020   40.6720   21.7010   C 0  0  0  0  0  0  0  0  0  0  0  0
   18.7150   40.5170   20.8620   C 0  0  0  0  0  0  0  0  0  0  0  0
   19.7180   41.4490   20.7600   C 0  0  0  0  0  0  0  0  0  0  0  0
   20.8280   41.4090   19.9570   N 0  0  0  0  0  0  0  0  0  0  0  0
   21.3930   40.2960   19.4730   C 0  0  0  0  0  0  0  0  0  0  0  0
   21.1450   39.0590   19.9450   N 0  0  0  0  0  0  0  0  0  0  0  0
   22.3240   40.5310   18.5200   N 0  0  0  0  0  0  0  0  0  0  0  0
   22.9800   39.4080   17.9880   C 0  0  0  0  0  0  0  0  0  0  0  0
   22.7440   38.0960   18.4490   C 0  0  0  0  0  0  0  0  0  0  0  0
   23.5020   36.9870   17.8280   C 0  0  0  0  0  0  0  0  0  0  0  0
   21.7840   37.9670   19.4810   C 0  0  0  0  0  0  0  0  0  0  0  0
   21.5480   36.7200   19.8930   N 0  0  0  0  0  0  0  0  0  0  0  0
   20.7330   36.3850   20.9870   C 0  0  0  0  0  0  0  0  0  0  0  0
   20.1410   37.2390   21.9540   C 0  0  0  0  0  0  0  0  0  0  0  0
   20.5560   35.0020   21.1370   C 0  0  0  0  0  0  0  0  0  0  0  0
   19.7990   34.4590   22.1730   C 0  0  0  0  0  0  0  0  0  0  0  0
   19.2610   35.3030   23.1180   C 0  0  0  0  0  0  0  0  0  0  0  0
   19.4420   36.6660   23.0220   C 0  0  0  0  0  0  0  0  0  0  0  0
   18.6310   37.7370   24.1920   S 0  0  0  0  0  0  0  0  0  0  0  0
   18.8030   37.1200   25.5590   O 0  0  0  0  0  0  0  0  0  0  0  0
   17.2760   38.0190   23.5850   O 0  0  0  0  0  0  0  0  0  0  0  0
   19.3570   39.1460   24.0860   N 0  0  0  0  0  0  0  0  0  0  0  0
   20.5620   39.4550   24.8570   C 0  0  0  0  0  0  0  0  0  0  0  0
   21.6680   38.3590   24.7280   C 0  0  0  0  0  0  0  0  0  0  0  0
   20.2790   39.7390   26.3370   C 0  0  0  0  0  0  0  0  0  0  0  0
   21.0400   40.7650   24.2340   C 0  0  0  0  0  0  0  0  0  0  0  0
 21 20  1  0  0  0  0
 19 20  2  0  0  0  0
 19 18  1  0  0  0  0
 20 22  1  0  0  0  0
 18 16  2  0  0  0  0
 16 17  1  0  0  0  0
 16 15  1  0  0  0  0
 22 23  1  0  0  0  0
 22 17  2  0  0  0  0
 23 24  1  0  0  0  0
 15 14  1  0  0  0  0
 14 13  2  0  0  0  0
 14 11  1  0  0  0  0
 13 12  1  0  0  0  0
 24 26  2  0  0  0  0
 24 25  1  0  0  0  0
 26 27  1  0  0  0  0
 11 10  2  0  0  0  0
 12  9  2  0  0  0  0
 25 29  2  0  0  0  0
 27 28  2  0  0  0  0
 10  9  1  0  0  0  0
  9  8  1  0  0  0  0
 29 28  1  0  0  0  0
 29 30  1  0  0  0  0
  8  7  1  0  0  0  0
 32 30  2  0  0  0  0
 33 30  1  0  0  0  0
 33 34  1  0  0  0  0
  7  6  1  0  0  0  0
 30 31  2  0  0  0  0
 37 34  1  0  0  0  0
 35 34  1  0  0  0  0
 34 36  1  0  0  0  0
  6  5  1  0  0  0  0
  5  1  1  0  0  0  0
  5  4  1  0  0  0  0
  1  2  1  0  0  0  0
  4  3  1  0  0  0  0
  2  3  1  0  0  0  0
A    1
CAQ
A    2
CAR
A    3
CAS
A    4
CAT
A    5
NAP
A    6
CAO
A    7
CAN
A    8
OAM
A    9
CAJ
A   10
CAK
A   11
CAL
A   12
CAI
A   13
CAH
A   14
CAG
A   15
NAF
A   16
C2
A   17
N3
A   18
N1
A   19
C6
A   20
C5
A   21
CAA
A   22
C4
A   23
NAW
A   24
CAX
A   25
CBC
A   26
CAY
A   27
CAZ
A   28
CBA
A   29
CBB
A   30
SBD
A   31
OBJ
A   32
OBK
A   33
NBE
A   34
CBF
A   35
CBH
A   36
CBI
A   37
CBG
M  END
>  <InstanceId>
4OGJ_2TA_A_203

>  <ChemCompId>
2TA

>  <PdbId>
4OGJ

>  <ChainId>
A

>  <ResidueNumber>
203

>  <InsertionCode>


>  <Model>
1

>  <AltIds>


>  <MissingHeavyAtoms>
0

>  <ObservedFormula>
C27 N6 O3 S

>  <Name>
N-tert-butyl-3-{[5-methyl-2-({4-[2-(pyrrolidin-1-yl)ethoxy]phenyl}amino)pyrimidin-4-yl]amino}benzenesulfonamide

>  <SystematicName>
N-tert-butyl-3-[[5-methyl-2-[[4-(2-pyrrolidin-1-ylethoxy)phenyl]amino]pyrimidin-4-yl]amino]benzenesulfonamide

>  <Synonyms>


>  <Type>
NON-POLYMER

>  <Formula>
C27 H36 N6 O3 S

>  <MolecularWeight>
524.678

>  <ModifiedDate>
2014-02-21

>  <Parent>


>  <OneLetterCode>


>  <SubcomponentList>


>  <AmbiguousFlag>
N

>  <InChI>
InChI=1S/C27H36N6O3S/c1-20-19-28-26(30-21-10-12-23(13-11-21)36-17-16-33-14-5-6-15-33)31-25(20)29-22-8-7-9-24(18-22)37(34,35)32-27(2,3)4/h7-13,18-19,32H,5-6,14-17H2,1-4H3,(H2,28,29,30,31)

>  <InChIKey>
JOOXLOJCABQBSG-UHFFFAOYSA-N

>  <SMILES>
Cc1cnc(nc1Nc2cccc(c2)S(=O)(=O)NC(C)(C)C)Nc3ccc(cc3)OCCN4CCCC4

$$$$
