3K02_TXT_A_405
  RCSB PDB12061709213D
Coordinates from PDB:3K02:A:405 Model:1 without hydrogens
 55 59  0  0  0  0            999 V2000
   -8.2750  -14.3640   18.9790   C 0  0  0  0  0  0  0  0  0  0  0  0
   -5.3370  -11.9350   22.8950   C 0  0  0  0  0  0  0  0  0  0  0  0
   -4.5490   -6.6510   23.9860   C 0  0  0  0  0  0  0  0  0  0  0  0
   -4.2490   -2.7010   20.4260   C 0  0  0  0  0  0  0  0  0  0  0  0
   -4.1100   -2.6710   15.0990   C 0  0  0  0  0  0  0  0  0  0  0  0
   -3.2890   -3.8500   15.0340   O 0  0  0  0  0  0  0  0  0  0  0  0
   -7.6290  -15.7320   18.7920   C 0  0  0  0  0  0  0  0  0  0  0  0
   -6.4440  -15.9440   19.5630   O 0  0  0  0  0  0  0  0  0  0  0  0
   -4.5700  -12.8850   21.9420   C 0  0  0  0  0  0  0  0  0  0  0  0
   -3.3370  -12.2630   21.5570   O 0  0  0  0  0  0  0  0  0  0  0  0
   -3.5990   -7.6900   24.5900   C 0  0  0  0  0  0  0  0  0  0  0  0
   -2.2940   -7.1590   24.8210   O 0  0  0  0  0  0  0  0  0  0  0  0
   -3.0210   -2.9450   21.2990   C 0  0  0  0  0  0  0  0  0  0  0  0
   -1.8510   -2.4580   20.6200   O 0  0  0  0  0  0  0  0  0  0  0  0
   -3.3680   -1.6330   15.9200   C 0  0  0  0  0  0  0  0  0  0  0  0
   -2.1420   -1.1820   15.3120   O 0  0  0  0  0  0  0  0  0  0  0  0
   -8.7780  -16.5680   19.3170   C 0  0  0  0  0  0  0  0  0  0  0  0
   -8.3120  -17.8640   19.7060   O 0  0  0  0  0  0  0  0  0  0  0  0
   -5.3160  -13.5080   20.7240   C 0  0  0  0  0  0  0  0  0  0  0  0
   -4.7850  -13.2250   19.3860   O 0  0  0  0  0  0  0  0  0  0  0  0
   -3.6030   -8.9050   23.6740   C 0  0  0  0  0  0  0  0  0  0  0  0
   -2.5710   -9.8060   24.1430   O 0  0  0  0  0  0  0  0  0  0  0  0
   -2.8770   -4.4270   21.6920   C 0  0  0  0  0  0  0  0  0  0  0  0
   -1.7830   -4.5670   22.5750   O 0  0  0  0  0  0  0  0  0  0  0  0
   -3.0690   -2.1570   17.3300   C 0  0  0  0  0  0  0  0  0  0  0  0
   -2.3700   -1.1890   18.1240   O 0  0  0  0  0  0  0  0  0  0  0  0
   -9.8840  -16.5960   18.2490   C 0  0  0  0  0  0  0  0  0  0  0  0
  -11.0880  -17.1880   18.8020   O 0  0  0  0  0  0  0  0  0  0  0  0
   -6.8530  -13.3860   20.7470   C 0  0  0  0  0  0  0  0  0  0  0  0
   -7.4010  -13.2810   19.3890   N 0  0  0  0  0  0  0  0  0  0  0  0
   -5.0270   -9.5130   23.5480   C 0  0  0  0  0  0  0  0  0  0  0  0
   -5.1370  -10.5370   22.5320   O 0  0  0  0  0  0  0  0  0  0  0  0
   -4.2170   -4.8990   22.3180   C 0  0  0  0  0  0  0  0  0  0  0  0
   -4.1110   -6.3170   22.6470   O 0  0  0  0  0  0  0  0  0  0  0  0
   -4.3680   -2.6250   18.0040   C 0  0  0  0  0  0  0  0  0  0  0  0
   -4.0680   -3.3930   19.1780   O 0  0  0  0  0  0  0  0  0  0  0  0
  -10.1430  -15.1940   17.6900   C 0  0  0  0  0  0  0  0  0  0  0  0
   -7.4440  -12.3740   21.7460   C 0  0  0  0  0  0  0  0  0  0  0  0
   -6.7070  -12.3490   22.9640   O 0  0  0  0  0  0  0  0  0  0  0  0
   -6.0460   -8.4190   23.1800   C 0  0  0  0  0  0  0  0  0  0  0  0
   -5.8700   -7.2040   23.9440   O 0  0  0  0  0  0  0  0  0  0  0  0
   -5.3910   -4.5770   21.3910   C 0  0  0  0  0  0  0  0  0  0  0  0
   -5.4310   -3.1930   21.0350   O 0  0  0  0  0  0  0  0  0  0  0  0
   -5.2180   -3.4920   17.0840   C 0  0  0  0  0  0  0  0  0  0  0  0
   -5.3660   -2.9680   15.7420   O 0  0  0  0  0  0  0  0  0  0  0  0
  -11.4460  -14.8910   16.9860   C 0  0  0  0  0  0  0  0  0  0  0  0
  -11.9700  -16.0680   16.3570   O 0  0  0  0  0  0  0  0  0  0  0  0
   -8.8830  -12.7280   22.1200   C 0  0  0  0  0  0  0  0  0  0  0  0
   -7.4710   -8.8950   23.4370   C 0  0  0  0  0  0  0  0  0  0  0  0
   -8.3580   -8.1750   22.6180   O 0  0  0  0  0  0  0  0  0  0  0  0
   -6.7660   -4.8420   22.0000   C 0  0  0  0  0  0  0  0  0  0  0  0
   -7.8280   -4.6920   21.0560   O 0  0  0  0  0  0  0  0  0  0  0  0
   -6.6500   -3.7180   17.5950   C 0  0  0  0  0  0  0  0  0  0  0  0
   -7.3560   -2.4630   17.6490   O 0  0  0  0  0  0  0  0  0  0  0  0
   -9.2180  -14.2070   17.8020   C 0  0  0  0  0  0  0  0  0  0  0  0
 55  1  1  0  0  0  0
  7  1  1  0  0  0  0
  1 30  1  0  0  0  0
  9  2  1  0  0  0  0
 32  2  1  0  0  0  0
  2 39  1  0  0  0  0
 34  3  1  0  0  0  0
 41  3  1  0  0  0  0
  3 11  1  0  0  0  0
 36  4  1  0  0  0  0
  4 43  1  0  0  0  0
  4 13  1  0  0  0  0
  6  5  1  0  0  0  0
  5 45  1  0  0  0  0
  5 15  1  0  0  0  0
  7 17  1  0  0  0  0
  7  8  1  0  0  0  0
 19  9  1  0  0  0  0
 10  9  1  0  0  0  0
 21 11  1  0  0  0  0
 11 12  1  0  0  0  0
 14 13  1  0  0  0  0
 13 23  1  0  0  0  0
 16 15  1  0  0  0  0
 15 25  1  0  0  0  0
 27 17  1  0  0  0  0
 17 18  1  0  0  0  0
 20 19  1  0  0  0  0
 19 29  1  0  0  0  0
 31 21  1  0  0  0  0
 21 22  1  0  0  0  0
 23 33  1  0  0  0  0
 23 24  1  0  0  0  0
 25 35  1  0  0  0  0
 25 26  1  0  0  0  0
 37 27  1  0  0  0  0
 27 28  1  0  0  0  0
 30 29  1  0  0  0  0
 29 38  1  0  0  0  0
 32 31  1  0  0  0  0
 40 31  1  0  0  0  0
 42 33  1  0  0  0  0
 33 34  1  0  0  0  0
 44 35  1  0  0  0  0
 35 36  1  0  0  0  0
 46 37  1  0  0  0  0
 37 55  1  0  0  0  0
 38 48  1  0  0  0  0
 38 39  1  0  0  0  0
 40 49  1  0  0  0  0
 40 41  1  0  0  0  0
 43 42  1  0  0  0  0
 42 51  1  0  0  0  0
 45 44  1  0  0  0  0
 44 53  1  0  0  0  0
 47 46  1  0  0  0  0
 50 49  1  0  0  0  0
 52 51  1  0  0  0  0
 53 54  1  0  0  0  0
A    1
C1A
A    2
C1B
A    3
C1C
A    4
C1D
A    5
C1E
A    6
O1E
A    7
C2A
A    8
O2A
A    9
C2B
A   10
O2B
A   11
C2C
A   12
O2C
A   13
C2D
A   14
O2D
A   15
C2E
A   16
O2E
A   17
C3A
A   18
O3A
A   19
C3B
A   20
O3B
A   21
C3C
A   22
O3C
A   23
C3D
A   24
O3D
A   25
C3E
A   26
O3E
A   27
C4A
A   28
O4A
A   29
C4B
A   30
N4B
A   31
C4C
A   32
O4C
A   33
C4D
A   34
O4D
A   35
C4E
A   36
O4E
A   37
C5A
A   38
C5B
A   39
O5B
A   40
C5C
A   41
O5C
A   42
C5D
A   43
O5D
A   44
C5E
A   45
O5E
A   46
C6A
A   47
O6A
A   48
C6B
A   49
C6C
A   50
O6C
A   51
C6D
A   52
O6D
A   53
C6E
A   54
O6E
A   55
C7A
M  END
>  <InstanceId>
3K02_TXT_A_405

>  <ChemCompId>
TXT

>  <PdbId>
3K02

>  <ChainId>
A

>  <ResidueNumber>
405

>  <InsertionCode>


>  <Model>
1

>  <AltIds>


>  <MissingHeavyAtoms>
0

>  <ObservedFormula>
C31 N O23

>  <Name>
4,6-dideoxy-4-{[(1S,2R,3R,4S,5S)-2,3,4-trihydroxy-5-(hydroxymethyl)cyclohexyl]amino}-alpha-D-allopyranosyl-(1->4)-alpha-D-glucopyranosyl-(1->4)-alpha-D-glucopyranosyl-(1->4)-alpha-D-glucopyranose

>  <SystematicName>
(2S,3R,4R,5S,6R)-5-[(2R,3R,4R,5S,6R)-5-[(2R,3R,4R,5S,6R)-5-[(2R,3R,4R,5S,6R)-3,4-dihydroxy-6-methyl-5-[[(1S,2R,3R,4S)-2,3,4-trihydroxy-5-(hydroxymethyl)cyclohexyl]amino]oxan-2-yl]oxy-3,4-dihydroxy-6-(hydroxymethyl)oxan-2-yl]oxy-3,4-dihydroxy-6-(hydroxymethyl)oxan-2-yl]oxy-6-(hydroxymethyl)oxane-2,3,4-triol

>  <Synonyms>


>  <Type>
NON-POLYMER

>  <Formula>
C31 H55 N O23

>  <MolecularWeight>
809.761

>  <ModifiedDate>
2011-06-04

>  <Parent>


>  <OneLetterCode>


>  <SubcomponentList>


>  <AmbiguousFlag>
N

>  <InChI>
InChI=1S/C31H55NO23/c1-7-13(32-9-2-8(3-33)14(37)17(40)15(9)38)16(39)22(45)29(49-7)53-26-11(5-35)51-31(23(46)19(26)42)55-27-12(6-36)52-30(24(47)20(27)43)54-25-10(4-34)50-28(48)21(44)18(25)41/h7-48H,2-6H2,1H3/t7-,8+,9+,10-,11-,12-,13-,14+,15-,16-,17-,18-,19-,20-,21-,22-,23-,24-,25-,26-,27-,28+,29-,30-,31-/m1/s1

>  <InChIKey>
IVFOOIPIJGLQPY-UHRLXRDBSA-N

>  <SMILES>
C[C@@H]1[C@H]([C@H]([C@H]([C@H](O1)O[C@@H]2[C@H](O[C@@H]([C@@H]([C@H]2O)O)O[C@@H]3[C@H](O[C@@H]([C@@H]([C@H]3O)O)O[C@@H]4[C@H](O[C@@H]([C@@H]([C@H]4O)O)O)CO)CO)CO)O)O)N[C@H]5CC([C@@H]([C@H]([C@@H]5O)O)O)CO

$$$$
