3K02_TXT_A_405


 72 76  0  0  0  0  0  0  0  0999 V2000
   -5.0427   -6.8892   23.8380 C   0  0  0  0  0  0  0  0  0  0  0  0
   -4.0213   -7.8713   24.4204 C   0  0  0  0  0  0  0  0  0  0  0  0
   -2.7465   -7.2637   24.6301 O   0  0  0  0  0  0  0  0  0  0  0  0
   -3.9692   -9.0813   23.4993 C   0  0  0  0  0  0  0  0  0  0  0  0
   -2.8767   -9.9203   23.9458 O   0  0  0  0  0  0  0  0  0  0  0  0
   -5.3563   -9.7732   23.3963 C   0  0  0  0  0  0  0  0  0  0  0  0
   -6.4455   -8.7412   23.0514 C   0  0  0  0  0  0  0  0  0  0  0  0
   -6.3287   -7.5203   23.8174 O   0  0  0  0  0  0  0  0  0  0  0  0
   -2.3965   -6.9458   23.7832 H   0  0  0  0  0  0  0  0  0  0  0  0
   -3.0305  -10.1896   24.8649 H   0  0  0  0  0  0  0  0  0  0  0  0
   -7.8345   -9.3026   23.3320 C   0  0  0  0  0  0  0  0  0  0  0  0
   -8.7434   -8.7909   22.3896 O   0  0  0  0  0  0  0  0  0  0  0  0
   -8.7653   -7.8233   22.4538 H   0  0  0  0  0  0  0  0  0  0  0  0
   -5.4232  -10.7987   22.3780 O   0  0  0  0  0  0  0  0  0  0  0  0
   -5.6825  -12.1896   22.7305 C   0  0  0  0  0  0  0  0  0  0  0  0
   -4.6602  -13.1445   22.0656 C   0  0  0  0  0  0  0  0  0  0  0  0
   -3.3839  -12.4941   22.0083 O   0  0  0  0  0  0  0  0  0  0  0  0
   -5.0265  -13.8336   20.7168 C   0  0  0  0  0  0  0  0  0  0  0  0
   -4.1540  -13.5781   19.5655 O   0  0  0  0  0  0  0  0  0  0  0  0
   -6.5127  -13.7636   20.3117 C   0  0  0  0  0  0  0  0  0  0  0  0
   -7.3800  -12.7392   21.0666 C   0  0  0  0  0  0  0  0  0  0  0  0
   -7.0082  -12.6477   22.4380 O   0  0  0  0  0  0  0  0  0  0  0  0
   -8.8576  -13.1294   21.0455 C   0  0  0  0  0  0  0  0  0  0  0  0
   -3.4368  -11.7301   21.4129 H   0  0  0  0  0  0  0  0  0  0  0  0
   -4.2864  -12.6687   19.2549 H   0  0  0  0  0  0  0  0  0  0  0  0
   -6.6673  -13.7235   18.8523 N   0  0  0  0  0  0  0  0  0  0  0  0
   -7.2336  -12.9078   18.6192 H   0  0  0  0  0  0  0  0  0  0  0  0
   -7.2947  -14.8874   18.2550 C   0  0  0  0  0  0  0  0  0  0  0  0
   -8.7003  -14.6969   17.6967 C   0  0  0  0  0  0  0  0  0  0  0  0
   -9.0074  -13.3603   17.2934 O   0  0  0  0  0  0  0  0  0  0  0  0
   -8.5630  -15.6107   16.4963 C   0  0  0  0  0  0  0  0  0  0  0  0
   -9.5531  -15.2916   15.5135 O   0  0  0  0  0  0  0  0  0  0  0  0
   -8.6165  -17.0669   16.9876 C   0  0  0  0  0  0  0  0  0  0  0  0
   -8.2578  -17.9653   15.9059 O   0  0  0  0  0  0  0  0  0  0  0  0
   -7.7215  -17.2656   18.2143 C   0  0  0  0  0  0  0  0  0  0  0  0
   -7.3346  -16.2165   18.9837 C   0  0  0  0  0  0  0  0  0  0  0  0
   -8.3500  -13.0584   16.6472 H   0  0  0  0  0  0  0  0  0  0  0  0
  -10.4370  -15.3989   15.8983 H   0  0  0  0  0  0  0  0  0  0  0  0
   -7.3526  -17.7747   15.6140 H   0  0  0  0  0  0  0  0  0  0  0  0
   -7.2610  -18.6541   18.5956 C   0  0  0  0  0  0  0  0  0  0  0  0
   -6.1452  -19.0587   17.7914 O   0  0  0  0  0  0  0  0  0  0  0  0
   -6.4070  -19.0702   16.8574 H   0  0  0  0  0  0  0  0  0  0  0  0
   -4.6500   -6.5252   22.4928 O   0  0  0  0  0  0  0  0  0  0  0  0
   -4.2632   -2.7904   20.5107 C   0  0  0  0  0  0  0  0  0  0  0  0
   -3.1814   -3.1680   21.5190 C   0  0  0  0  0  0  0  0  0  0  0  0
   -1.9027   -2.7271   21.0315 O   0  0  0  0  0  0  0  0  0  0  0  0
   -3.1838   -4.6760   21.8311 C   0  0  0  0  0  0  0  0  0  0  0  0
   -2.2294   -4.9412   22.8385 O   0  0  0  0  0  0  0  0  0  0  0  0
   -4.6225   -5.0871   22.2449 C   0  0  0  0  0  0  0  0  0  0  0  0
   -5.6388   -4.6325   21.1952 C   0  0  0  0  0  0  0  0  0  0  0  0
   -5.5446   -3.2315   20.9271 O   0  0  0  0  0  0  0  0  0  0  0  0
   -1.7065   -3.1707   20.1914 H   0  0  0  0  0  0  0  0  0  0  0  0
   -2.4477   -4.4299   23.6334 H   0  0  0  0  0  0  0  0  0  0  0  0
   -7.0971   -4.8341   21.6011 C   0  0  0  0  0  0  0  0  0  0  0  0
   -7.5339   -6.1853   21.4440 O   0  0  0  0  0  0  0  0  0  0  0  0
   -7.4705   -6.4392   20.5100 H   0  0  0  0  0  0  0  0  0  0  0  0
   -3.9591   -3.4228   19.2550 O   0  0  0  0  0  0  0  0  0  0  0  0
   -3.5141   -2.4758   15.2467 C   0  0  0  0  0  0  0  0  0  0  0  0
   -2.6764   -3.6445   15.2184 O   0  0  0  0  0  0  0  0  0  0  0  0
   -2.8905   -1.4806   16.2073 C   0  0  0  0  0  0  0  0  0  0  0  0
   -1.6055   -0.9894   15.7789 O   0  0  0  0  0  0  0  0  0  0  0  0
   -2.7586   -2.0803   17.6127 C   0  0  0  0  0  0  0  0  0  0  0  0
   -2.1735   -1.1537   18.5375 O   0  0  0  0  0  0  0  0  0  0  0  0
   -4.1238   -2.5926   18.0966 C   0  0  0  0  0  0  0  0  0  0  0  0
   -4.8447   -3.4122   17.0340 C   0  0  0  0  0  0  0  0  0  0  0  0
   -4.8351   -2.8155   15.7145 O   0  0  0  0  0  0  0  0  0  0  0  0
   -2.6062   -4.0137   16.1127 H   0  0  0  0  0  0  0  0  0  0  0  0
   -0.9713   -1.7229   15.7525 H   0  0  0  0  0  0  0  0  0  0  0  0
   -2.7461   -0.3752   18.6211 H   0  0  0  0  0  0  0  0  0  0  0  0
   -6.3252   -3.6747   17.3533 C   0  0  0  0  0  0  0  0  0  0  0  0
   -6.8189   -2.6668   18.2572 O   0  0  0  0  0  0  0  0  0  0  0  0
   -6.3075   -2.6929   19.0810 H   0  0  0  0  0  0  0  0  0  0  0  0
 36 28  1  0  0  0
 29 28  1  0  0  0
 28 26  1  0  0  0
 16 15  1  0  0  0
 14 15  1  0  0  0
 15 22  1  0  0  0
 43  1  1  0  0  0
  8  1  1  0  0  0
  1  2  1  0  0  0
 57 44  1  0  0  0
 44 51  1  0  0  0
 44 45  1  0  0  0
 59 58  1  0  0  0
 58 66  1  0  0  0
 58 60  1  0  0  0
 29 31  1  0  0  0
 29 30  1  0  0  0
 18 16  1  0  0  0
 17 16  1  0  0  0
  4  2  1  0  0  0
  2  3  1  0  0  0
 46 45  1  0  0  0
 45 47  1  0  0  0
 61 60  1  0  0  0
 60 62  1  0  0  0
 33 31  1  0  0  0
 31 32  1  0  0  0
 19 18  1  0  0  0
 18 20  1  0  0  0
  6  4  1  0  0  0
  4  5  1  0  0  0
 47 49  1  0  0  0
 47 48  1  0  0  0
 62 64  1  0  0  0
 62 63  1  0  0  0
 35 33  1  0  0  0
 33 34  1  0  0  0
 26 20  1  0  0  0
 20 21  1  0  0  0
 14  6  1  0  0  0
  7  6  1  0  0  0
 50 49  1  0  0  0
 49 43  1  0  0  0
 65 64  1  0  0  0
 64 57  1  0  0  0
 40 35  1  0  0  0
 35 36  1  0  0  0
 21 23  1  0  0  0
 21 22  1  0  0  0
  7 11  1  0  0  0
  7  8  1  0  0  0
 51 50  1  0  0  0
 50 54  1  0  0  0
 66 65  1  0  0  0
 65 70  1  0  0  0
 41 40  1  0  0  0
 12 11  1  0  0  0
 55 54  1  0  0  0
 70 71  1  0  0  0
 59 67  1  0  0  0
 30 37  1  0  0  0
 17 24  1  0  0  0
  3  9  1  0  0  0
 46 52  1  0  0  0
 61 68  1  0  0  0
 32 38  1  0  0  0
 19 25  1  0  0  0
  5 10  1  0  0  0
 48 53  1  0  0  0
 63 69  1  0  0  0
 34 39  1  0  0  0
 26 27  1  0  0  0
 41 42  1  0  0  0
 12 13  1  0  0  0
 55 56  1  0  0  0
 71 72  1  0  0  0
M  END
> <minimizedAffinity>
-13.28366

$$$$
3K02_TXT_A_405


 72 76  0  0  0  0  0  0  0  0999 V2000
   -4.9837   -6.8090   23.9503 C   0  0  0  0  0  0  0  0  0  0  0  0
   -3.9490   -7.7835   24.5219 C   0  0  0  0  0  0  0  0  0  0  0  0
   -2.6668   -7.1767   24.6832 O   0  0  0  0  0  0  0  0  0  0  0  0
   -3.9273   -9.0112   23.6233 C   0  0  0  0  0  0  0  0  0  0  0  0
   -2.8250   -9.8455   24.0543 O   0  0  0  0  0  0  0  0  0  0  0  0
   -5.3189   -9.6998   23.5735 C   0  0  0  0  0  0  0  0  0  0  0  0
   -6.4144   -8.6705   23.2402 C   0  0  0  0  0  0  0  0  0  0  0  0
   -6.2717   -7.4356   23.9788 O   0  0  0  0  0  0  0  0  0  0  0  0
   -2.3403   -6.8765   23.8205 H   0  0  0  0  0  0  0  0  0  0  0  0
   -2.9532  -10.0965   24.9824 H   0  0  0  0  0  0  0  0  0  0  0  0
   -7.7965   -9.2213   23.5714 C   0  0  0  0  0  0  0  0  0  0  0  0
   -8.6598   -8.9987   22.4846 O   0  0  0  0  0  0  0  0  0  0  0  0
   -8.7228   -8.0464   22.3114 H   0  0  0  0  0  0  0  0  0  0  0  0
   -5.4184  -10.7444   22.5776 O   0  0  0  0  0  0  0  0  0  0  0  0
   -5.4312  -12.1503   22.9643 C   0  0  0  0  0  0  0  0  0  0  0  0
   -4.7188  -13.0357   21.9119 C   0  0  0  0  0  0  0  0  0  0  0  0
   -3.6171  -12.3050   21.3571 O   0  0  0  0  0  0  0  0  0  0  0  0
   -5.5658  -13.7419   20.8110 C   0  0  0  0  0  0  0  0  0  0  0  0
   -5.2575  -13.4272   19.4116 O   0  0  0  0  0  0  0  0  0  0  0  0
   -7.0888  -13.7654   21.0508 C   0  0  0  0  0  0  0  0  0  0  0  0
   -7.6273  -12.8010   22.1239 C   0  0  0  0  0  0  0  0  0  0  0  0
   -6.7321  -12.6909   23.2257 O   0  0  0  0  0  0  0  0  0  0  0  0
   -8.9590  -13.2845   22.6970 C   0  0  0  0  0  0  0  0  0  0  0  0
   -3.9525  -11.5438   20.8581 H   0  0  0  0  0  0  0  0  0  0  0  0
   -5.5569  -12.5270   19.2092 H   0  0  0  0  0  0  0  0  0  0  0  0
   -7.8298  -13.7300   19.7838 N   0  0  0  0  0  0  0  0  0  0  0  0
   -7.2111  -13.3462   19.0694 H   0  0  0  0  0  0  0  0  0  0  0  0
   -9.0473  -12.9410   19.7901 C   0  0  0  0  0  0  0  0  0  0  0  0
  -10.3400  -13.6739   19.4503 C   0  0  0  0  0  0  0  0  0  0  0  0
  -10.3249  -15.0752   19.7328 O   0  0  0  0  0  0  0  0  0  0  0  0
  -11.2470  -12.9336   20.4117 C   0  0  0  0  0  0  0  0  0  0  0  0
  -12.4287  -13.6988   20.6685 O   0  0  0  0  0  0  0  0  0  0  0  0
  -11.5212  -11.5336   19.8378 C   0  0  0  0  0  0  0  0  0  0  0  0
  -12.1909  -10.7160   20.8323 O   0  0  0  0  0  0  0  0  0  0  0  0
  -10.2282  -10.8812   19.3404 C   0  0  0  0  0  0  0  0  0  0  0  0
   -9.1311  -11.6235   19.0443 C   0  0  0  0  0  0  0  0  0  0  0  0
  -10.1000  -15.2145   20.6661 H   0  0  0  0  0  0  0  0  0  0  0  0
  -12.9018  -13.8524   19.8358 H   0  0  0  0  0  0  0  0  0  0  0  0
  -11.6196  -10.6204   21.6103 H   0  0  0  0  0  0  0  0  0  0  0  0
  -10.1605   -9.3819   19.1591 C   0  0  0  0  0  0  0  0  0  0  0  0
  -10.4253   -8.7074   20.3962 O   0  0  0  0  0  0  0  0  0  0  0  0
  -11.3154   -8.9372   20.7056 H   0  0  0  0  0  0  0  0  0  0  0  0
   -4.6287   -6.4723   22.5876 O   0  0  0  0  0  0  0  0  0  0  0  0
   -4.3164   -2.7805   20.5139 C   0  0  0  0  0  0  0  0  0  0  0  0
   -3.2216   -3.1164   21.5229 C   0  0  0  0  0  0  0  0  0  0  0  0
   -1.9537   -2.6669   21.0156 O   0  0  0  0  0  0  0  0  0  0  0  0
   -3.1974   -4.6163   21.8710 C   0  0  0  0  0  0  0  0  0  0  0  0
   -2.2318   -4.8419   22.8774 O   0  0  0  0  0  0  0  0  0  0  0  0
   -4.6263   -5.0404   22.3052 C   0  0  0  0  0  0  0  0  0  0  0  0
   -5.6572   -4.6276   21.2524 C   0  0  0  0  0  0  0  0  0  0  0  0
   -5.5876   -3.2320   20.9501 O   0  0  0  0  0  0  0  0  0  0  0  0
   -1.7562   -3.1273   20.1850 H   0  0  0  0  0  0  0  0  0  0  0  0
   -2.4528   -4.3152   23.6614 H   0  0  0  0  0  0  0  0  0  0  0  0
   -7.1091   -4.8427   21.6737 C   0  0  0  0  0  0  0  0  0  0  0  0
   -7.5354   -6.1977   21.5196 O   0  0  0  0  0  0  0  0  0  0  0  0
   -7.4798   -6.4498   20.5846 H   0  0  0  0  0  0  0  0  0  0  0  0
   -4.0109   -3.4380   19.2715 O   0  0  0  0  0  0  0  0  0  0  0  0
   -3.5497   -2.5641   15.2484 C   0  0  0  0  0  0  0  0  0  0  0  0
   -2.7015   -3.7255   15.2476 O   0  0  0  0  0  0  0  0  0  0  0  0
   -2.9410   -1.5450   16.1934 C   0  0  0  0  0  0  0  0  0  0  0  0
   -1.6578   -1.0505   15.7634 O   0  0  0  0  0  0  0  0  0  0  0  0
   -2.8123   -2.1164   17.6109 C   0  0  0  0  0  0  0  0  0  0  0  0
   -2.2413   -1.1670   18.5212 O   0  0  0  0  0  0  0  0  0  0  0  0
   -4.1759   -2.6317   18.0964 C   0  0  0  0  0  0  0  0  0  0  0  0
   -4.8829   -3.4780   17.0454 C   0  0  0  0  0  0  0  0  0  0  0  0
   -4.8704   -2.9066   15.7147 O   0  0  0  0  0  0  0  0  0  0  0  0
   -2.6334   -4.0768   16.1492 H   0  0  0  0  0  0  0  0  0  0  0  0
   -1.0169   -1.7786   15.7549 H   0  0  0  0  0  0  0  0  0  0  0  0
   -2.8213   -0.3923   18.5863 H   0  0  0  0  0  0  0  0  0  0  0  0
   -6.3629   -3.7477   17.3609 C   0  0  0  0  0  0  0  0  0  0  0  0
   -6.8571   -2.7566   18.2828 O   0  0  0  0  0  0  0  0  0  0  0  0
   -6.3452   -2.7967   19.1057 H   0  0  0  0  0  0  0  0  0  0  0  0
 36 28  1  0  0  0
 29 28  1  0  0  0
 28 26  1  0  0  0
 16 15  1  0  0  0
 14 15  1  0  0  0
 15 22  1  0  0  0
 43  1  1  0  0  0
  8  1  1  0  0  0
  1  2  1  0  0  0
 57 44  1  0  0  0
 44 51  1  0  0  0
 44 45  1  0  0  0
 59 58  1  0  0  0
 58 66  1  0  0  0
 58 60  1  0  0  0
 29 31  1  0  0  0
 29 30  1  0  0  0
 18 16  1  0  0  0
 17 16  1  0  0  0
  4  2  1  0  0  0
  2  3  1  0  0  0
 46 45  1  0  0  0
 45 47  1  0  0  0
 61 60  1  0  0  0
 60 62  1  0  0  0
 33 31  1  0  0  0
 31 32  1  0  0  0
 19 18  1  0  0  0
 18 20  1  0  0  0
  6  4  1  0  0  0
  4  5  1  0  0  0
 47 49  1  0  0  0
 47 48  1  0  0  0
 62 64  1  0  0  0
 62 63  1  0  0  0
 35 33  1  0  0  0
 33 34  1  0  0  0
 26 20  1  0  0  0
 20 21  1  0  0  0
 14  6  1  0  0  0
  7  6  1  0  0  0
 50 49  1  0  0  0
 49 43  1  0  0  0
 65 64  1  0  0  0
 64 57  1  0  0  0
 40 35  1  0  0  0
 35 36  1  0  0  0
 21 23  1  0  0  0
 21 22  1  0  0  0
  7 11  1  0  0  0
  7  8  1  0  0  0
 51 50  1  0  0  0
 50 54  1  0  0  0
 66 65  1  0  0  0
 65 70  1  0  0  0
 41 40  1  0  0  0
 12 11  1  0  0  0
 55 54  1  0  0  0
 70 71  1  0  0  0
 59 67  1  0  0  0
 30 37  1  0  0  0
 17 24  1  0  0  0
  3  9  1  0  0  0
 46 52  1  0  0  0
 61 68  1  0  0  0
 32 38  1  0  0  0
 19 25  1  0  0  0
  5 10  1  0  0  0
 48 53  1  0  0  0
 63 69  1  0  0  0
 34 39  1  0  0  0
 26 27  1  0  0  0
 41 42  1  0  0  0
 12 13  1  0  0  0
 55 56  1  0  0  0
 71 72  1  0  0  0
M  END
> <minimizedAffinity>
-12.88232

$$$$
3K02_TXT_A_405


 72 76  0  0  0  0  0  0  0  0999 V2000
   -4.9152   -6.8270   23.8601 C   0  0  0  0  0  0  0  0  0  0  0  0
   -3.9291   -7.8510   24.4309 C   0  0  0  0  0  0  0  0  0  0  0  0
   -2.6314   -7.2935   24.6390 O   0  0  0  0  0  0  0  0  0  0  0  0
   -3.9268   -9.0557   23.5013 C   0  0  0  0  0  0  0  0  0  0  0  0
   -2.8649   -9.9384   23.9369 O   0  0  0  0  0  0  0  0  0  0  0  0
   -5.3395   -9.6939   23.3999 C   0  0  0  0  0  0  0  0  0  0  0  0
   -6.3904   -8.6190   23.0673 C   0  0  0  0  0  0  0  0  0  0  0  0
   -6.2243   -7.4089   23.8411 O   0  0  0  0  0  0  0  0  0  0  0  0
   -2.2733   -6.9831   23.7926 H   0  0  0  0  0  0  0  0  0  0  0  0
   -3.0248  -10.2082   24.8548 H   0  0  0  0  0  0  0  0  0  0  0  0
   -7.7984   -9.1296   23.3503 C   0  0  0  0  0  0  0  0  0  0  0  0
   -8.1993   -8.7069   24.6296 O   0  0  0  0  0  0  0  0  0  0  0  0
   -7.5864   -9.0597   25.2935 H   0  0  0  0  0  0  0  0  0  0  0  0
   -5.4496  -10.7089   22.3749 O   0  0  0  0  0  0  0  0  0  0  0  0
   -6.7513  -11.2224   21.9649 C   0  0  0  0  0  0  0  0  0  0  0  0
   -6.9674  -12.6769   22.4515 C   0  0  0  0  0  0  0  0  0  0  0  0
   -6.3424  -12.8377   23.7317 O   0  0  0  0  0  0  0  0  0  0  0  0
   -6.6422  -13.8587   21.4894 C   0  0  0  0  0  0  0  0  0  0  0  0
   -5.6371  -14.8334   21.9274 O   0  0  0  0  0  0  0  0  0  0  0  0
   -6.4372  -13.4791   20.0089 C   0  0  0  0  0  0  0  0  0  0  0  0
   -6.2151  -11.9848   19.7103 C   0  0  0  0  0  0  0  0  0  0  0  0
   -7.0074  -11.1582   20.5566 O   0  0  0  0  0  0  0  0  0  0  0  0
   -6.6072  -11.6340   18.2753 C   0  0  0  0  0  0  0  0  0  0  0  0
   -5.3815  -12.7459   23.6361 H   0  0  0  0  0  0  0  0  0  0  0  0
   -4.7566  -14.4278   21.8924 H   0  0  0  0  0  0  0  0  0  0  0  0
   -5.4720  -14.3729   19.3570 N   0  0  0  0  0  0  0  0  0  0  0  0
   -4.9364  -13.8209   18.6870 H   0  0  0  0  0  0  0  0  0  0  0  0
   -6.0421  -15.5035   18.6487 C   0  0  0  0  0  0  0  0  0  0  0  0
   -5.3177  -16.8372   18.7917 C   0  0  0  0  0  0  0  0  0  0  0  0
   -4.5613  -16.9805   19.9963 O   0  0  0  0  0  0  0  0  0  0  0  0
   -6.5427  -17.7281   18.8077 C   0  0  0  0  0  0  0  0  0  0  0  0
   -6.2279  -18.9948   19.3948 O   0  0  0  0  0  0  0  0  0  0  0  0
   -7.0915  -17.8226   17.3743 C   0  0  0  0  0  0  0  0  0  0  0  0
   -8.3889  -18.4726   17.3854 O   0  0  0  0  0  0  0  0  0  0  0  0
   -7.1518  -16.4407   16.7174 C   0  0  0  0  0  0  0  0  0  0  0  0
   -6.4054  -15.4056   17.1798 C   0  0  0  0  0  0  0  0  0  0  0  0
   -5.1399  -16.8336   20.7608 H   0  0  0  0  0  0  0  0  0  0  0  0
   -5.5263  -19.4240   18.8806 H   0  0  0  0  0  0  0  0  0  0  0  0
   -9.0089  -17.9479   17.9156 H   0  0  0  0  0  0  0  0  0  0  0  0
   -8.0473  -16.2121   15.5211 C   0  0  0  0  0  0  0  0  0  0  0  0
   -9.4244  -16.1682   15.9176 O   0  0  0  0  0  0  0  0  0  0  0  0
   -9.6705  -17.0132   16.3256 H   0  0  0  0  0  0  0  0  0  0  0  0
   -4.5149   -6.4685   22.5157 O   0  0  0  0  0  0  0  0  0  0  0  0
   -4.2296   -2.7473   20.4911 C   0  0  0  0  0  0  0  0  0  0  0  0
   -3.1056   -3.1115   21.4574 C   0  0  0  0  0  0  0  0  0  0  0  0
   -1.8502   -2.6678   20.9148 O   0  0  0  0  0  0  0  0  0  0  0  0
   -3.0870   -4.6170   21.7807 C   0  0  0  0  0  0  0  0  0  0  0  0
   -2.0910   -4.8695   22.7504 O   0  0  0  0  0  0  0  0  0  0  0  0
   -4.5054   -5.0323   22.2560 C   0  0  0  0  0  0  0  0  0  0  0  0
   -5.5661   -4.5912   21.2451 C   0  0  0  0  0  0  0  0  0  0  0  0
   -5.4906   -3.1918   20.9627 O   0  0  0  0  0  0  0  0  0  0  0  0
   -1.6860   -3.1169   20.0709 H   0  0  0  0  0  0  0  0  0  0  0  0
   -2.2796   -4.3531   23.5496 H   0  0  0  0  0  0  0  0  0  0  0  0
   -7.0055   -4.7971   21.7116 C   0  0  0  0  0  0  0  0  0  0  0  0
   -7.5075   -6.0983   21.4010 O   0  0  0  0  0  0  0  0  0  0  0  0
   -7.5093   -6.2230   20.4390 H   0  0  0  0  0  0  0  0  0  0  0  0
   -3.9734   -3.3880   19.2290 O   0  0  0  0  0  0  0  0  0  0  0  0
   -3.5166   -2.4214   15.2266 C   0  0  0  0  0  0  0  0  0  0  0  0
   -2.6863   -3.5952   15.1930 O   0  0  0  0  0  0  0  0  0  0  0  0
   -2.8882   -1.4355   16.1937 C   0  0  0  0  0  0  0  0  0  0  0  0
   -1.5995   -0.9500   15.7699 O   0  0  0  0  0  0  0  0  0  0  0  0
   -2.7621   -2.0439   17.5959 C   0  0  0  0  0  0  0  0  0  0  0  0
   -2.1726   -1.1262   18.5267 O   0  0  0  0  0  0  0  0  0  0  0  0
   -4.1312   -2.5503   18.0750 C   0  0  0  0  0  0  0  0  0  0  0  0
   -4.8557   -3.3594   17.0068 C   0  0  0  0  0  0  0  0  0  0  0  0
   -4.8404   -2.7553   15.6906 O   0  0  0  0  0  0  0  0  0  0  0  0
   -2.6197   -3.9698   16.0853 H   0  0  0  0  0  0  0  0  0  0  0  0
   -0.9700   -1.6873   15.7403 H   0  0  0  0  0  0  0  0  0  0  0  0
   -2.7404   -0.3446   18.6138 H   0  0  0  0  0  0  0  0  0  0  0  0
   -6.3383   -3.6143   17.3226 C   0  0  0  0  0  0  0  0  0  0  0  0
   -6.8059   -2.6558   18.2917 O   0  0  0  0  0  0  0  0  0  0  0  0
   -6.2887   -2.7424   19.1077 H   0  0  0  0  0  0  0  0  0  0  0  0
 36 28  1  0  0  0
 29 28  1  0  0  0
 28 26  1  0  0  0
 16 15  1  0  0  0
 14 15  1  0  0  0
 15 22  1  0  0  0
 43  1  1  0  0  0
  8  1  1  0  0  0
  1  2  1  0  0  0
 57 44  1  0  0  0
 44 51  1  0  0  0
 44 45  1  0  0  0
 59 58  1  0  0  0
 58 66  1  0  0  0
 58 60  1  0  0  0
 29 31  1  0  0  0
 29 30  1  0  0  0
 18 16  1  0  0  0
 17 16  1  0  0  0
  4  2  1  0  0  0
  2  3  1  0  0  0
 46 45  1  0  0  0
 45 47  1  0  0  0
 61 60  1  0  0  0
 60 62  1  0  0  0
 33 31  1  0  0  0
 31 32  1  0  0  0
 19 18  1  0  0  0
 18 20  1  0  0  0
  6  4  1  0  0  0
  4  5  1  0  0  0
 47 49  1  0  0  0
 47 48  1  0  0  0
 62 64  1  0  0  0
 62 63  1  0  0  0
 35 33  1  0  0  0
 33 34  1  0  0  0
 26 20  1  0  0  0
 20 21  1  0  0  0
 14  6  1  0  0  0
  7  6  1  0  0  0
 50 49  1  0  0  0
 49 43  1  0  0  0
 65 64  1  0  0  0
 64 57  1  0  0  0
 40 35  1  0  0  0
 35 36  1  0  0  0
 21 23  1  0  0  0
 21 22  1  0  0  0
  7 11  1  0  0  0
  7  8  1  0  0  0
 51 50  1  0  0  0
 50 54  1  0  0  0
 66 65  1  0  0  0
 65 70  1  0  0  0
 41 40  1  0  0  0
 12 11  1  0  0  0
 55 54  1  0  0  0
 70 71  1  0  0  0
 59 67  1  0  0  0
 30 37  1  0  0  0
 17 24  1  0  0  0
  3  9  1  0  0  0
 46 52  1  0  0  0
 61 68  1  0  0  0
 32 38  1  0  0  0
 19 25  1  0  0  0
  5 10  1  0  0  0
 48 53  1  0  0  0
 63 69  1  0  0  0
 34 39  1  0  0  0
 26 27  1  0  0  0
 41 42  1  0  0  0
 12 13  1  0  0  0
 55 56  1  0  0  0
 71 72  1  0  0  0
M  END
> <minimizedAffinity>
-12.55708

$$$$
3K02_TXT_A_405


 72 76  0  0  0  0  0  0  0  0999 V2000
   -5.1182   -9.5958   23.9286 C   0  0  0  0  0  0  0  0  0  0  0  0
   -3.9360  -10.5699   23.9491 C   0  0  0  0  0  0  0  0  0  0  0  0
   -2.6851   -9.8982   24.0985 O   0  0  0  0  0  0  0  0  0  0  0  0
   -4.0182  -11.4202   22.6900 C   0  0  0  0  0  0  0  0  0  0  0  0
   -2.8056  -12.2084   22.6182 O   0  0  0  0  0  0  0  0  0  0  0  0
   -5.3495  -12.2187   22.6332 C   0  0  0  0  0  0  0  0  0  0  0  0
   -6.5478  -11.2793   22.8617 C   0  0  0  0  0  0  0  0  0  0  0  0
   -6.3365  -10.3494   23.9487 O   0  0  0  0  0  0  0  0  0  0  0  0
   -2.5521   -9.2927   23.3524 H   0  0  0  0  0  0  0  0  0  0  0  0
   -2.7346  -12.7651   23.4094 H   0  0  0  0  0  0  0  0  0  0  0  0
   -7.8034  -12.0732   23.2029 C   0  0  0  0  0  0  0  0  0  0  0  0
   -8.5588  -12.2757   22.0349 O   0  0  0  0  0  0  0  0  0  0  0  0
   -8.8096  -11.4174   21.6591 H   0  0  0  0  0  0  0  0  0  0  0  0
   -5.5802  -12.8803   21.3675 O   0  0  0  0  0  0  0  0  0  0  0  0
   -5.2820  -14.2974   21.1968 C   0  0  0  0  0  0  0  0  0  0  0  0
   -4.8901  -14.6236   19.7343 C   0  0  0  0  0  0  0  0  0  0  0  0
   -4.1576  -13.5176   19.1904 O   0  0  0  0  0  0  0  0  0  0  0  0
   -5.9814  -15.1427   18.7505 C   0  0  0  0  0  0  0  0  0  0  0  0
   -6.2345  -14.3533   17.5401 O   0  0  0  0  0  0  0  0  0  0  0  0
   -7.3030  -15.6014   19.3990 C   0  0  0  0  0  0  0  0  0  0  0  0
   -7.5361  -15.1671   20.8579 C   0  0  0  0  0  0  0  0  0  0  0  0
   -6.3270  -15.1865   21.6096 O   0  0  0  0  0  0  0  0  0  0  0  0
   -8.5053  -16.1057   21.5760 C   0  0  0  0  0  0  0  0  0  0  0  0
   -4.7396  -12.7442   19.1271 H   0  0  0  0  0  0  0  0  0  0  0  0
   -6.6941  -13.5332   17.7792 H   0  0  0  0  0  0  0  0  0  0  0  0
   -8.4462  -15.3608   18.5097 N   0  0  0  0  0  0  0  0  0  0  0  0
   -8.0814  -15.1006   17.5934 H   0  0  0  0  0  0  0  0  0  0  0  0
   -9.3652  -14.3219   18.9353 C   0  0  0  0  0  0  0  0  0  0  0  0
  -10.8449  -14.6867   18.9652 C   0  0  0  0  0  0  0  0  0  0  0  0
  -11.1139  -16.0790   19.1462 O   0  0  0  0  0  0  0  0  0  0  0  0
  -11.2204  -13.8937   20.2001 C   0  0  0  0  0  0  0  0  0  0  0  0
  -12.4378  -14.3950   20.7610 O   0  0  0  0  0  0  0  0  0  0  0  0
  -11.2732  -12.4042   19.8215 C   0  0  0  0  0  0  0  0  0  0  0  0
  -11.4001  -11.5956   21.0198 O   0  0  0  0  0  0  0  0  0  0  0  0
  -10.0499  -12.0050   18.9913 C   0  0  0  0  0  0  0  0  0  0  0  0
   -9.3118  -12.9326   18.3301 C   0  0  0  0  0  0  0  0  0  0  0  0
  -10.6792  -16.3897   19.9558 H   0  0  0  0  0  0  0  0  0  0  0  0
  -13.1494  -14.3232   20.1057 H   0  0  0  0  0  0  0  0  0  0  0  0
  -10.6283  -11.7385   21.5896 H   0  0  0  0  0  0  0  0  0  0  0  0
   -9.6505  -10.5508   18.8868 C   0  0  0  0  0  0  0  0  0  0  0  0
   -9.0217  -10.1078   20.0967 O   0  0  0  0  0  0  0  0  0  0  0  0
   -9.6421  -10.2011   20.8365 H   0  0  0  0  0  0  0  0  0  0  0  0
   -5.0573   -8.7878   22.7287 O   0  0  0  0  0  0  0  0  0  0  0  0
   -5.7193   -4.6545   22.0182 C   0  0  0  0  0  0  0  0  0  0  0  0
   -4.6498   -5.0312   23.0400 C   0  0  0  0  0  0  0  0  0  0  0  0
   -3.5422   -4.1216   22.9257 O   0  0  0  0  0  0  0  0  0  0  0  0
   -4.2015   -6.4971   22.8931 C   0  0  0  0  0  0  0  0  0  0  0  0
   -3.2879   -6.8068   23.9253 O   0  0  0  0  0  0  0  0  0  0  0  0
   -5.4646   -7.3994   22.9197 C   0  0  0  0  0  0  0  0  0  0  0  0
   -6.4932   -6.9217   21.8926 C   0  0  0  0  0  0  0  0  0  0  0  0
   -6.8242   -5.5416   22.0650 O   0  0  0  0  0  0  0  0  0  0  0  0
   -3.1563   -4.1919   22.0386 H   0  0  0  0  0  0  0  0  0  0  0  0
   -3.7127   -6.6665   24.7860 H   0  0  0  0  0  0  0  0  0  0  0  0
   -7.8399   -7.6373   21.9694 C   0  0  0  0  0  0  0  0  0  0  0  0
   -8.0583   -8.2724   23.2305 O   0  0  0  0  0  0  0  0  0  0  0  0
   -7.3784   -8.9493   23.3737 H   0  0  0  0  0  0  0  0  0  0  0  0
   -5.1418   -4.7289   20.7029 O   0  0  0  0  0  0  0  0  0  0  0  0
   -4.8156   -2.4062   17.2882 C   0  0  0  0  0  0  0  0  0  0  0  0
   -4.4974   -3.6554   16.6506 O   0  0  0  0  0  0  0  0  0  0  0  0
   -3.7565   -2.1393   18.3414 C   0  0  0  0  0  0  0  0  0  0  0  0
   -2.4374   -1.9376   17.7980 O   0  0  0  0  0  0  0  0  0  0  0  0
   -3.7091   -3.2720   19.3742 C   0  0  0  0  0  0  0  0  0  0  0  0
   -2.7156   -3.0374   20.3811 O   0  0  0  0  0  0  0  0  0  0  0  0
   -5.1038   -3.4898   19.9809 C   0  0  0  0  0  0  0  0  0  0  0  0
   -6.1963   -3.5342   18.9202 C   0  0  0  0  0  0  0  0  0  0  0  0
   -6.1054   -2.4828   17.9283 O   0  0  0  0  0  0  0  0  0  0  0  0
   -4.4751   -4.3613   17.3155 H   0  0  0  0  0  0  0  0  0  0  0  0
   -2.1391   -2.7515   17.3626 H   0  0  0  0  0  0  0  0  0  0  0  0
   -2.9338   -2.2273   20.8681 H   0  0  0  0  0  0  0  0  0  0  0  0
   -7.6193   -3.4345   19.4927 C   0  0  0  0  0  0  0  0  0  0  0  0
   -7.9878   -2.0509   19.6545 O   0  0  0  0  0  0  0  0  0  0  0  0
   -7.3694   -1.6210   20.2658 H   0  0  0  0  0  0  0  0  0  0  0  0
 36 28  1  0  0  0
 29 28  1  0  0  0
 28 26  1  0  0  0
 16 15  1  0  0  0
 14 15  1  0  0  0
 15 22  1  0  0  0
 43  1  1  0  0  0
  8  1  1  0  0  0
  1  2  1  0  0  0
 57 44  1  0  0  0
 44 51  1  0  0  0
 44 45  1  0  0  0
 59 58  1  0  0  0
 58 66  1  0  0  0
 58 60  1  0  0  0
 29 31  1  0  0  0
 29 30  1  0  0  0
 18 16  1  0  0  0
 17 16  1  0  0  0
  4  2  1  0  0  0
  2  3  1  0  0  0
 46 45  1  0  0  0
 45 47  1  0  0  0
 61 60  1  0  0  0
 60 62  1  0  0  0
 33 31  1  0  0  0
 31 32  1  0  0  0
 19 18  1  0  0  0
 18 20  1  0  0  0
  6  4  1  0  0  0
  4  5  1  0  0  0
 47 49  1  0  0  0
 47 48  1  0  0  0
 62 64  1  0  0  0
 62 63  1  0  0  0
 35 33  1  0  0  0
 33 34  1  0  0  0
 26 20  1  0  0  0
 20 21  1  0  0  0
 14  6  1  0  0  0
  7  6  1  0  0  0
 50 49  1  0  0  0
 49 43  1  0  0  0
 65 64  1  0  0  0
 64 57  1  0  0  0
 40 35  1  0  0  0
 35 36  1  0  0  0
 21 23  1  0  0  0
 21 22  1  0  0  0
  7 11  1  0  0  0
  7  8  1  0  0  0
 51 50  1  0  0  0
 50 54  1  0  0  0
 66 65  1  0  0  0
 65 70  1  0  0  0
 41 40  1  0  0  0
 12 11  1  0  0  0
 55 54  1  0  0  0
 70 71  1  0  0  0
 59 67  1  0  0  0
 30 37  1  0  0  0
 17 24  1  0  0  0
  3  9  1  0  0  0
 46 52  1  0  0  0
 61 68  1  0  0  0
 32 38  1  0  0  0
 19 25  1  0  0  0
  5 10  1  0  0  0
 48 53  1  0  0  0
 63 69  1  0  0  0
 34 39  1  0  0  0
 26 27  1  0  0  0
 41 42  1  0  0  0
 12 13  1  0  0  0
 55 56  1  0  0  0
 71 72  1  0  0  0
M  END
> <minimizedAffinity>
-10.98443

$$$$
3K02_TXT_A_405


 72 76  0  0  0  0  0  0  0  0999 V2000
   -6.1290  -12.5490   21.8444 C   0  0  0  0  0  0  0  0  0  0  0  0
   -5.8067  -13.3766   20.5962 C   0  0  0  0  0  0  0  0  0  0  0  0
   -4.5320  -13.0473   20.0439 O   0  0  0  0  0  0  0  0  0  0  0  0
   -6.9551  -13.1955   19.6145 C   0  0  0  0  0  0  0  0  0  0  0  0
   -6.5658  -13.8245   18.3697 O   0  0  0  0  0  0  0  0  0  0  0  0
   -8.3008  -13.6758   20.2243 C   0  0  0  0  0  0  0  0  0  0  0  0
   -8.5214  -13.0353   21.6070 C   0  0  0  0  0  0  0  0  0  0  0  0
   -7.3344  -13.0526   22.4326 O   0  0  0  0  0  0  0  0  0  0  0  0
   -4.5236  -12.1125   19.7851 H   0  0  0  0  0  0  0  0  0  0  0  0
   -6.3865  -14.7650   18.5249 H   0  0  0  0  0  0  0  0  0  0  0  0
   -9.6046  -13.7760   22.3824 C   0  0  0  0  0  0  0  0  0  0  0  0
  -10.8584  -13.2156   22.0827 O   0  0  0  0  0  0  0  0  0  0  0  0
  -10.8623  -12.2787   22.3339 H   0  0  0  0  0  0  0  0  0  0  0  0
   -9.4580  -13.3379   19.4245 O   0  0  0  0  0  0  0  0  0  0  0  0
  -10.3644  -14.3733   18.9422 C   0  0  0  0  0  0  0  0  0  0  0  0
  -10.2954  -14.5164   17.4015 C   0  0  0  0  0  0  0  0  0  0  0  0
   -8.9477  -14.2830   16.9717 O   0  0  0  0  0  0  0  0  0  0  0  0
  -11.3306  -13.7571   16.5184 C   0  0  0  0  0  0  0  0  0  0  0  0
  -10.8113  -12.8000   15.5353 O   0  0  0  0  0  0  0  0  0  0  0  0
  -12.5495  -13.1780   17.2646 C   0  0  0  0  0  0  0  0  0  0  0  0
  -12.4347  -13.0906   18.7978 C   0  0  0  0  0  0  0  0  0  0  0  0
  -11.7322  -14.2066   19.3349 O   0  0  0  0  0  0  0  0  0  0  0  0
  -13.8097  -13.0849   19.4651 C   0  0  0  0  0  0  0  0  0  0  0  0
   -8.7073  -13.3600   17.1484 H   0  0  0  0  0  0  0  0  0  0  0  0
  -10.4739  -12.0153   15.9949 H   0  0  0  0  0  0  0  0  0  0  0  0
  -13.0313  -11.9468   16.6262 N   0  0  0  0  0  0  0  0  0  0  0  0
  -12.4582  -11.7772   15.7997 H   0  0  0  0  0  0  0  0  0  0  0  0
  -12.9891  -10.7539   17.4508 C   0  0  0  0  0  0  0  0  0  0  0  0
  -14.2695   -9.9304   17.5299 C   0  0  0  0  0  0  0  0  0  0  0  0
  -15.4711  -10.6700   17.3004 O   0  0  0  0  0  0  0  0  0  0  0  0
  -14.1517   -9.5186   18.9829 C   0  0  0  0  0  0  0  0  0  0  0  0
  -15.4295   -9.1242   19.4924 O   0  0  0  0  0  0  0  0  0  0  0  0
  -13.0721   -8.4289   19.0914 C   0  0  0  0  0  0  0  0  0  0  0  0
  -12.7668   -8.1751   20.4872 O   0  0  0  0  0  0  0  0  0  0  0  0
  -11.8217   -8.8138   18.2953 C   0  0  0  0  0  0  0  0  0  0  0  0
  -11.8733   -9.7379   17.3025 C   0  0  0  0  0  0  0  0  0  0  0  0
  -15.5163  -11.4141   17.9211 H   0  0  0  0  0  0  0  0  0  0  0  0
  -15.7677   -8.3772   18.9742 H   0  0  0  0  0  0  0  0  0  0  0  0
  -12.4247   -8.9855   20.8959 H   0  0  0  0  0  0  0  0  0  0  0  0
  -10.4981   -8.1509   18.6017 C   0  0  0  0  0  0  0  0  0  0  0  0
  -10.6948   -6.7982   19.0344 O   0  0  0  0  0  0  0  0  0  0  0  0
  -11.1325   -6.2941   18.3307 H   0  0  0  0  0  0  0  0  0  0  0  0
   -6.3043  -11.1610   21.4714 O   0  0  0  0  0  0  0  0  0  0  0  0
   -5.3561   -7.6519   23.6654 C   0  0  0  0  0  0  0  0  0  0  0  0
   -4.4961   -8.8890   23.9094 C   0  0  0  0  0  0  0  0  0  0  0  0
   -3.1277   -8.4878   24.0927 O   0  0  0  0  0  0  0  0  0  0  0  0
   -4.6404   -9.9248   22.7789 C   0  0  0  0  0  0  0  0  0  0  0  0
   -3.8990  -11.0801   23.1130 O   0  0  0  0  0  0  0  0  0  0  0  0
   -6.1510  -10.2196   22.5761 C   0  0  0  0  0  0  0  0  0  0  0  0
   -6.9349   -8.9202   22.3796 C   0  0  0  0  0  0  0  0  0  0  0  0
   -6.7144   -7.9930   23.4452 O   0  0  0  0  0  0  0  0  0  0  0  0
   -2.8095   -8.0474   23.2892 H   0  0  0  0  0  0  0  0  0  0  0  0
   -4.2269  -11.4438   23.9503 H   0  0  0  0  0  0  0  0  0  0  0  0
   -8.4513   -9.0971   22.3512 C   0  0  0  0  0  0  0  0  0  0  0  0
   -8.9115   -9.7410   21.1616 O   0  0  0  0  0  0  0  0  0  0  0  0
   -8.6832   -9.1979   20.3910 H   0  0  0  0  0  0  0  0  0  0  0  0
   -4.8681   -6.9797   22.4910 O   0  0  0  0  0  0  0  0  0  0  0  0
   -3.7773   -3.1990   21.1960 C   0  0  0  0  0  0  0  0  0  0  0  0
   -3.0545   -3.9189   20.1822 O   0  0  0  0  0  0  0  0  0  0  0  0
   -3.2070   -3.5974   22.5444 C   0  0  0  0  0  0  0  0  0  0  0  0
   -1.8349   -3.2001   22.7332 O   0  0  0  0  0  0  0  0  0  0  0  0
   -3.3301   -5.1095   22.7693 C   0  0  0  0  0  0  0  0  0  0  0  0
   -2.7991   -5.5067   24.0406 O   0  0  0  0  0  0  0  0  0  0  0  0
   -4.7911   -5.5508   22.5920 C   0  0  0  0  0  0  0  0  0  0  0  0
   -5.4268   -4.9597   21.3402 C   0  0  0  0  0  0  0  0  0  0  0  0
   -5.1765   -3.5450   21.1572 O   0  0  0  0  0  0  0  0  0  0  0  0
   -3.1452   -4.8723   20.3360 H   0  0  0  0  0  0  0  0  0  0  0  0
   -1.2732   -3.6629   22.0919 H   0  0  0  0  0  0  0  0  0  0  0  0
   -3.3040   -5.0791   24.7499 H   0  0  0  0  0  0  0  0  0  0  0  0
   -6.9553   -5.1145   21.2900 C   0  0  0  0  0  0  0  0  0  0  0  0
   -7.4653   -5.3833   22.6106 O   0  0  0  0  0  0  0  0  0  0  0  0
   -7.0745   -6.2049   22.9471 H   0  0  0  0  0  0  0  0  0  0  0  0
 36 28  1  0  0  0
 29 28  1  0  0  0
 28 26  1  0  0  0
 16 15  1  0  0  0
 14 15  1  0  0  0
 15 22  1  0  0  0
 43  1  1  0  0  0
  8  1  1  0  0  0
  1  2  1  0  0  0
 57 44  1  0  0  0
 44 51  1  0  0  0
 44 45  1  0  0  0
 59 58  1  0  0  0
 58 66  1  0  0  0
 58 60  1  0  0  0
 29 31  1  0  0  0
 29 30  1  0  0  0
 18 16  1  0  0  0
 17 16  1  0  0  0
  4  2  1  0  0  0
  2  3  1  0  0  0
 46 45  1  0  0  0
 45 47  1  0  0  0
 61 60  1  0  0  0
 60 62  1  0  0  0
 33 31  1  0  0  0
 31 32  1  0  0  0
 19 18  1  0  0  0
 18 20  1  0  0  0
  6  4  1  0  0  0
  4  5  1  0  0  0
 47 49  1  0  0  0
 47 48  1  0  0  0
 62 64  1  0  0  0
 62 63  1  0  0  0
 35 33  1  0  0  0
 33 34  1  0  0  0
 26 20  1  0  0  0
 20 21  1  0  0  0
 14  6  1  0  0  0
  7  6  1  0  0  0
 50 49  1  0  0  0
 49 43  1  0  0  0
 65 64  1  0  0  0
 64 57  1  0  0  0
 40 35  1  0  0  0
 35 36  1  0  0  0
 21 23  1  0  0  0
 21 22  1  0  0  0
  7 11  1  0  0  0
  7  8  1  0  0  0
 51 50  1  0  0  0
 50 54  1  0  0  0
 66 65  1  0  0  0
 65 70  1  0  0  0
 41 40  1  0  0  0
 12 11  1  0  0  0
 55 54  1  0  0  0
 70 71  1  0  0  0
 59 67  1  0  0  0
 30 37  1  0  0  0
 17 24  1  0  0  0
  3  9  1  0  0  0
 46 52  1  0  0  0
 61 68  1  0  0  0
 32 38  1  0  0  0
 19 25  1  0  0  0
  5 10  1  0  0  0
 48 53  1  0  0  0
 63 69  1  0  0  0
 34 39  1  0  0  0
 26 27  1  0  0  0
 41 42  1  0  0  0
 12 13  1  0  0  0
 55 56  1  0  0  0
 71 72  1  0  0  0
M  END
> <minimizedAffinity>
-10.89379

$$$$
3K02_TXT_A_405


 72 76  0  0  0  0  0  0  0  0999 V2000
   -5.1304  -11.7360   23.3276 C   0  0  0  0  0  0  0  0  0  0  0  0
   -4.1877  -12.6832   22.5787 C   0  0  0  0  0  0  0  0  0  0  0  0
   -2.9149  -12.0887   22.3240 O   0  0  0  0  0  0  0  0  0  0  0  0
   -4.9031  -13.1419   21.3165 C   0  0  0  0  0  0  0  0  0  0  0  0
   -3.9479  -13.8849   20.5214 O   0  0  0  0  0  0  0  0  0  0  0  0
   -6.2255  -13.8837   21.6545 C   0  0  0  0  0  0  0  0  0  0  0  0
   -7.0822  -13.0402   22.6164 C   0  0  0  0  0  0  0  0  0  0  0  0
   -6.3132  -12.4572   23.6932 O   0  0  0  0  0  0  0  0  0  0  0  0
   -3.0315  -11.2976   21.7749 H   0  0  0  0  0  0  0  0  0  0  0  0
   -3.6228  -14.6431   21.0316 H   0  0  0  0  0  0  0  0  0  0  0  0
   -8.1682  -13.8907   23.2649 C   0  0  0  0  0  0  0  0  0  0  0  0
   -7.5701  -14.8902   24.0518 O   0  0  0  0  0  0  0  0  0  0  0  0
   -7.0099  -15.4504   23.4921 H   0  0  0  0  0  0  0  0  0  0  0  0
   -7.0525  -14.1587   20.4997 O   0  0  0  0  0  0  0  0  0  0  0  0
   -7.3200  -15.5288   20.0782 C   0  0  0  0  0  0  0  0  0  0  0  0
   -6.9862  -15.7380   18.5803 C   0  0  0  0  0  0  0  0  0  0  0  0
   -5.8444  -14.9399   18.2414 O   0  0  0  0  0  0  0  0  0  0  0  0
   -8.1226  -15.6122   17.5215 C   0  0  0  0  0  0  0  0  0  0  0  0
   -7.9630  -14.5996   16.4719 O   0  0  0  0  0  0  0  0  0  0  0  0
   -9.5600  -15.6093   18.0798 C   0  0  0  0  0  0  0  0  0  0  0  0
   -9.7054  -15.3649   19.5932 C   0  0  0  0  0  0  0  0  0  0  0  0
   -8.6551  -15.9855   20.3273 O   0  0  0  0  0  0  0  0  0  0  0  0
  -11.0113  -15.9466   20.1338 C   0  0  0  0  0  0  0  0  0  0  0  0
   -6.0724  -14.0002   18.3182 H   0  0  0  0  0  0  0  0  0  0  0  0
   -8.0814  -13.7161   16.8544 H   0  0  0  0  0  0  0  0  0  0  0  0
  -10.4539  -14.7924   17.2497 N   0  0  0  0  0  0  0  0  0  0  0  0
   -9.9553  -14.5543   16.3924 H   0  0  0  0  0  0  0  0  0  0  0  0
  -10.9175  -13.5574   17.8537 C   0  0  0  0  0  0  0  0  0  0  0  0
  -12.4230  -13.3184   17.8546 C   0  0  0  0  0  0  0  0  0  0  0  0
  -13.2170  -14.5067   17.8168 O   0  0  0  0  0  0  0  0  0  0  0  0
  -12.5164  -12.6430   19.2073 C   0  0  0  0  0  0  0  0  0  0  0  0
  -13.8563  -12.7120   19.7054 O   0  0  0  0  0  0  0  0  0  0  0  0
  -11.9728  -11.2110   19.0721 C   0  0  0  0  0  0  0  0  0  0  0  0
  -11.8295  -10.6122   20.3862 O   0  0  0  0  0  0  0  0  0  0  0  0
  -10.6551  -11.1954   18.2918 C   0  0  0  0  0  0  0  0  0  0  0  0
  -10.3048  -12.2226   17.4767 C   0  0  0  0  0  0  0  0  0  0  0  0
  -12.9721  -15.0829   18.5576 H   0  0  0  0  0  0  0  0  0  0  0  0
  -14.4554  -12.2691   19.0841 H   0  0  0  0  0  0  0  0  0  0  0  0
  -11.1987  -11.1300   20.9104 H   0  0  0  0  0  0  0  0  0  0  0  0
   -9.7205  -10.0134   18.4125 C   0  0  0  0  0  0  0  0  0  0  0  0
  -10.4491   -8.8184   18.7233 O   0  0  0  0  0  0  0  0  0  0  0  0
  -11.0845   -8.6334   18.0141 H   0  0  0  0  0  0  0  0  0  0  0  0
   -5.4769  -10.6219   22.4702 O   0  0  0  0  0  0  0  0  0  0  0  0
   -5.4690   -6.4684   23.3510 C   0  0  0  0  0  0  0  0  0  0  0  0
   -4.4794   -7.3507   24.1071 C   0  0  0  0  0  0  0  0  0  0  0  0
   -3.2406   -6.6402   24.2738 O   0  0  0  0  0  0  0  0  0  0  0  0
   -4.2689   -8.7090   23.4127 C   0  0  0  0  0  0  0  0  0  0  0  0
   -3.4225   -9.5103   24.2112 O   0  0  0  0  0  0  0  0  0  0  0  0
   -5.6595   -9.3572   23.1753 C   0  0  0  0  0  0  0  0  0  0  0  0
   -6.5927   -8.3863   22.4488 C   0  0  0  0  0  0  0  0  0  0  0  0
   -6.7012   -7.1339   23.1296 O   0  0  0  0  0  0  0  0  0  0  0  0
   -2.8653   -6.4359   23.4030 H   0  0  0  0  0  0  0  0  0  0  0  0
   -3.8249   -9.6347   25.0850 H   0  0  0  0  0  0  0  0  0  0  0  0
   -8.0365   -8.8692   22.3307 C   0  0  0  0  0  0  0  0  0  0  0  0
   -8.7345   -8.2665   21.2393 O   0  0  0  0  0  0  0  0  0  0  0  0
   -8.7753   -7.3065   21.3722 H   0  0  0  0  0  0  0  0  0  0  0  0
   -4.9027   -6.1391   22.0704 O   0  0  0  0  0  0  0  0  0  0  0  0
   -3.9835   -2.8482   19.7281 C   0  0  0  0  0  0  0  0  0  0  0  0
   -3.5961   -3.8359   18.7573 O   0  0  0  0  0  0  0  0  0  0  0  0
   -3.1001   -3.0254   20.9489 C   0  0  0  0  0  0  0  0  0  0  0  0
   -1.7069   -2.7549   20.6998 O   0  0  0  0  0  0  0  0  0  0  0  0
   -3.2437   -4.4364   21.5324 C   0  0  0  0  0  0  0  0  0  0  0  0
   -2.4184   -4.6237   22.6899 O   0  0  0  0  0  0  0  0  0  0  0  0
   -4.7219   -4.7374   21.8241 C   0  0  0  0  0  0  0  0  0  0  0  0
   -5.6319   -4.3458   20.6670 C   0  0  0  0  0  0  0  0  0  0  0  0
   -5.3602   -3.0353   20.1137 O   0  0  0  0  0  0  0  0  0  0  0  0
   -3.6961   -4.7218   19.1396 H   0  0  0  0  0  0  0  0  0  0  0  0
   -1.3616   -3.3987   20.0617 H   0  0  0  0  0  0  0  0  0  0  0  0
   -2.6930   -4.0067   23.3862 H   0  0  0  0  0  0  0  0  0  0  0  0
   -7.1255   -4.3347   21.0304 C   0  0  0  0  0  0  0  0  0  0  0  0
   -7.7016   -5.6314   20.7798 O   0  0  0  0  0  0  0  0  0  0  0  0
   -7.6058   -5.8516   19.8400 H   0  0  0  0  0  0  0  0  0  0  0  0
 36 28  1  0  0  0
 29 28  1  0  0  0
 28 26  1  0  0  0
 16 15  1  0  0  0
 14 15  1  0  0  0
 15 22  1  0  0  0
 43  1  1  0  0  0
  8  1  1  0  0  0
  1  2  1  0  0  0
 57 44  1  0  0  0
 44 51  1  0  0  0
 44 45  1  0  0  0
 59 58  1  0  0  0
 58 66  1  0  0  0
 58 60  1  0  0  0
 29 31  1  0  0  0
 29 30  1  0  0  0
 18 16  1  0  0  0
 17 16  1  0  0  0
  4  2  1  0  0  0
  2  3  1  0  0  0
 46 45  1  0  0  0
 45 47  1  0  0  0
 61 60  1  0  0  0
 60 62  1  0  0  0
 33 31  1  0  0  0
 31 32  1  0  0  0
 19 18  1  0  0  0
 18 20  1  0  0  0
  6  4  1  0  0  0
  4  5  1  0  0  0
 47 49  1  0  0  0
 47 48  1  0  0  0
 62 64  1  0  0  0
 62 63  1  0  0  0
 35 33  1  0  0  0
 33 34  1  0  0  0
 26 20  1  0  0  0
 20 21  1  0  0  0
 14  6  1  0  0  0
  7  6  1  0  0  0
 50 49  1  0  0  0
 49 43  1  0  0  0
 65 64  1  0  0  0
 64 57  1  0  0  0
 40 35  1  0  0  0
 35 36  1  0  0  0
 21 23  1  0  0  0
 21 22  1  0  0  0
  7 11  1  0  0  0
  7  8  1  0  0  0
 51 50  1  0  0  0
 50 54  1  0  0  0
 66 65  1  0  0  0
 65 70  1  0  0  0
 41 40  1  0  0  0
 12 11  1  0  0  0
 55 54  1  0  0  0
 70 71  1  0  0  0
 59 67  1  0  0  0
 30 37  1  0  0  0
 17 24  1  0  0  0
  3  9  1  0  0  0
 46 52  1  0  0  0
 61 68  1  0  0  0
 32 38  1  0  0  0
 19 25  1  0  0  0
  5 10  1  0  0  0
 48 53  1  0  0  0
 63 69  1  0  0  0
 34 39  1  0  0  0
 26 27  1  0  0  0
 41 42  1  0  0  0
 12 13  1  0  0  0
 55 56  1  0  0  0
 71 72  1  0  0  0
M  END
> <minimizedAffinity>
-10.83953

$$$$
3K02_TXT_A_405


 72 76  0  0  0  0  0  0  0  0999 V2000
   -5.9597  -12.6394   22.5271 C   0  0  0  0  0  0  0  0  0  0  0  0
   -5.8165  -13.6247   21.3628 C   0  0  0  0  0  0  0  0  0  0  0  0
   -4.4932  -13.6392   20.8270 O   0  0  0  0  0  0  0  0  0  0  0  0
   -6.8813  -13.2779   20.3326 C   0  0  0  0  0  0  0  0  0  0  0  0
   -6.6279  -14.0851   19.1574 O   0  0  0  0  0  0  0  0  0  0  0  0
   -8.3086  -13.3889   20.9357 C   0  0  0  0  0  0  0  0  0  0  0  0
   -8.3968  -12.5963   22.2528 C   0  0  0  0  0  0  0  0  0  0  0  0
   -7.2554  -12.8064   23.1153 O   0  0  0  0  0  0  0  0  0  0  0  0
   -4.2703  -12.7565   20.4922 H   0  0  0  0  0  0  0  0  0  0  0  0
   -6.6678  -15.0245   19.3956 H   0  0  0  0  0  0  0  0  0  0  0  0
   -9.6295  -13.0042   23.0510 C   0  0  0  0  0  0  0  0  0  0  0  0
  -10.2639  -14.0828   22.4106 O   0  0  0  0  0  0  0  0  0  0  0  0
  -10.5295  -13.8169   21.5163 H   0  0  0  0  0  0  0  0  0  0  0  0
   -9.3488  -12.8720   20.0734 O   0  0  0  0  0  0  0  0  0  0  0  0
   -9.0444  -12.4136   18.7231 C   0  0  0  0  0  0  0  0  0  0  0  0
   -8.7592  -10.8915   18.6904 C   0  0  0  0  0  0  0  0  0  0  0  0
   -8.0853  -10.5177   19.8993 O   0  0  0  0  0  0  0  0  0  0  0  0
   -9.9140   -9.9072   18.3362 C   0  0  0  0  0  0  0  0  0  0  0  0
  -10.2686   -8.8906   19.3327 O   0  0  0  0  0  0  0  0  0  0  0  0
  -11.1766  -10.5487   17.7262 C   0  0  0  0  0  0  0  0  0  0  0  0
  -11.3052  -12.0765   17.8701 C   0  0  0  0  0  0  0  0  0  0  0  0
  -10.0428  -12.7227   17.7429 O   0  0  0  0  0  0  0  0  0  0  0  0
  -12.2043  -12.6697   16.7859 C   0  0  0  0  0  0  0  0  0  0  0  0
   -8.6812  -10.6445   20.6541 H   0  0  0  0  0  0  0  0  0  0  0  0
  -10.7204   -9.3137   20.0795 H   0  0  0  0  0  0  0  0  0  0  0  0
  -12.3867   -9.8054   18.0984 N   0  0  0  0  0  0  0  0  0  0  0  0
  -13.1596  -10.4690   18.1479 H   0  0  0  0  0  0  0  0  0  0  0  0
  -12.7718   -8.7388   17.1934 C   0  0  0  0  0  0  0  0  0  0  0  0
  -14.1271   -8.0864   17.4410 C   0  0  0  0  0  0  0  0  0  0  0  0
  -14.5868   -8.1576   18.7927 O   0  0  0  0  0  0  0  0  0  0  0  0
  -13.7365   -6.6702   17.0717 C   0  0  0  0  0  0  0  0  0  0  0  0
  -14.6596   -5.7361   17.6405 O   0  0  0  0  0  0  0  0  0  0  0  0
  -13.6227   -6.5829   15.5406 C   0  0  0  0  0  0  0  0  0  0  0  0
  -13.0285   -5.3142   15.1623 O   0  0  0  0  0  0  0  0  0  0  0  0
  -12.8354   -7.7708   14.9800 C   0  0  0  0  0  0  0  0  0  0  0  0
  -12.6872   -8.9181   15.6901 C   0  0  0  0  0  0  0  0  0  0  0  0
  -13.9200   -7.7712   19.3818 H   0  0  0  0  0  0  0  0  0  0  0  0
  -15.5519   -5.9196   17.3073 H   0  0  0  0  0  0  0  0  0  0  0  0
  -12.1369   -5.2496   15.5389 H   0  0  0  0  0  0  0  0  0  0  0  0
  -12.2149   -7.6834   13.6044 C   0  0  0  0  0  0  0  0  0  0  0  0
  -11.0938   -6.7897   13.6079 O   0  0  0  0  0  0  0  0  0  0  0  0
  -11.3884   -5.9024   13.8664 H   0  0  0  0  0  0  0  0  0  0  0  0
   -5.8119  -11.2857   22.0350 O   0  0  0  0  0  0  0  0  0  0  0  0
   -4.9795   -7.6199   24.0088 C   0  0  0  0  0  0  0  0  0  0  0  0
   -4.0530   -8.7991   24.2930 C   0  0  0  0  0  0  0  0  0  0  0  0
   -2.7017   -8.3232   24.4138 O   0  0  0  0  0  0  0  0  0  0  0  0
   -4.1763   -9.9011   23.2244 C   0  0  0  0  0  0  0  0  0  0  0  0
   -3.3698  -10.9994   23.5977 O   0  0  0  0  0  0  0  0  0  0  0  0
   -5.6755  -10.2788   23.0827 C   0  0  0  0  0  0  0  0  0  0  0  0
   -6.5278   -9.0313   22.8403 C   0  0  0  0  0  0  0  0  0  0  0  0
   -6.3248   -8.0374   23.8477 O   0  0  0  0  0  0  0  0  0  0  0  0
   -2.4276   -7.9128   23.5787 H   0  0  0  0  0  0  0  0  0  0  0  0
   -3.6566  -11.3319   24.4626 H   0  0  0  0  0  0  0  0  0  0  0  0
   -8.0338   -9.2821   22.8665 C   0  0  0  0  0  0  0  0  0  0  0  0
   -8.7306   -8.5771   21.8375 O   0  0  0  0  0  0  0  0  0  0  0  0
   -8.6083   -7.6226   21.9596 H   0  0  0  0  0  0  0  0  0  0  0  0
   -4.5574   -6.9907   22.7861 O   0  0  0  0  0  0  0  0  0  0  0  0
   -3.8804   -3.2263   21.1947 C   0  0  0  0  0  0  0  0  0  0  0  0
   -3.0986   -3.9425   20.2230 O   0  0  0  0  0  0  0  0  0  0  0  0
   -3.2562   -3.4612   22.5575 C   0  0  0  0  0  0  0  0  0  0  0  0
   -1.9307   -2.9120   22.6898 O   0  0  0  0  0  0  0  0  0  0  0  0
   -3.2189   -4.9567   22.8957 C   0  0  0  0  0  0  0  0  0  0  0  0
   -2.6347   -5.2003   24.1824 O   0  0  0  0  0  0  0  0  0  0  0  0
   -4.6281   -5.5578   22.7799 C   0  0  0  0  0  0  0  0  0  0  0  0
   -5.3363   -5.1313   21.5003 C   0  0  0  0  0  0  0  0  0  0  0  0
   -5.2365   -3.7162   21.2086 O   0  0  0  0  0  0  0  0  0  0  0  0
   -3.0880   -4.8859   20.4484 H   0  0  0  0  0  0  0  0  0  0  0  0
   -1.3314   -3.3617   22.0738 H   0  0  0  0  0  0  0  0  0  0  0  0
   -3.1731   -4.7745   24.8678 H   0  0  0  0  0  0  0  0  0  0  0  0
   -6.8409   -5.4456   21.4913 C   0  0  0  0  0  0  0  0  0  0  0  0
   -7.3389   -5.5023   22.8423 O   0  0  0  0  0  0  0  0  0  0  0  0
   -6.8725   -6.1993   23.3298 H   0  0  0  0  0  0  0  0  0  0  0  0
 36 28  1  0  0  0
 29 28  1  0  0  0
 28 26  1  0  0  0
 16 15  1  0  0  0
 14 15  1  0  0  0
 15 22  1  0  0  0
 43  1  1  0  0  0
  8  1  1  0  0  0
  1  2  1  0  0  0
 57 44  1  0  0  0
 44 51  1  0  0  0
 44 45  1  0  0  0
 59 58  1  0  0  0
 58 66  1  0  0  0
 58 60  1  0  0  0
 29 31  1  0  0  0
 29 30  1  0  0  0
 18 16  1  0  0  0
 17 16  1  0  0  0
  4  2  1  0  0  0
  2  3  1  0  0  0
 46 45  1  0  0  0
 45 47  1  0  0  0
 61 60  1  0  0  0
 60 62  1  0  0  0
 33 31  1  0  0  0
 31 32  1  0  0  0
 19 18  1  0  0  0
 18 20  1  0  0  0
  6  4  1  0  0  0
  4  5  1  0  0  0
 47 49  1  0  0  0
 47 48  1  0  0  0
 62 64  1  0  0  0
 62 63  1  0  0  0
 35 33  1  0  0  0
 33 34  1  0  0  0
 26 20  1  0  0  0
 20 21  1  0  0  0
 14  6  1  0  0  0
  7  6  1  0  0  0
 50 49  1  0  0  0
 49 43  1  0  0  0
 65 64  1  0  0  0
 64 57  1  0  0  0
 40 35  1  0  0  0
 35 36  1  0  0  0
 21 23  1  0  0  0
 21 22  1  0  0  0
  7 11  1  0  0  0
  7  8  1  0  0  0
 51 50  1  0  0  0
 50 54  1  0  0  0
 66 65  1  0  0  0
 65 70  1  0  0  0
 41 40  1  0  0  0
 12 11  1  0  0  0
 55 54  1  0  0  0
 70 71  1  0  0  0
 59 67  1  0  0  0
 30 37  1  0  0  0
 17 24  1  0  0  0
  3  9  1  0  0  0
 46 52  1  0  0  0
 61 68  1  0  0  0
 32 38  1  0  0  0
 19 25  1  0  0  0
  5 10  1  0  0  0
 48 53  1  0  0  0
 63 69  1  0  0  0
 34 39  1  0  0  0
 26 27  1  0  0  0
 41 42  1  0  0  0
 12 13  1  0  0  0
 55 56  1  0  0  0
 71 72  1  0  0  0
M  END
> <minimizedAffinity>
-10.77271

$$$$
3K02_TXT_A_405


 72 76  0  0  0  0  0  0  0  0999 V2000
   -5.7839  -12.6400   22.1517 C   0  0  0  0  0  0  0  0  0  0  0  0
   -5.6864  -13.5696   20.9380 C   0  0  0  0  0  0  0  0  0  0  0  0
   -4.4749  -13.3786   20.2071 O   0  0  0  0  0  0  0  0  0  0  0  0
   -6.9377  -13.3622   20.0974 C   0  0  0  0  0  0  0  0  0  0  0  0
   -6.7594  -14.0993   18.8638 O   0  0  0  0  0  0  0  0  0  0  0  0
   -8.2225  -13.6940   20.9052 C   0  0  0  0  0  0  0  0  0  0  0  0
   -8.2150  -12.9500   22.2531 C   0  0  0  0  0  0  0  0  0  0  0  0
   -6.9344  -13.0075   22.9223 O   0  0  0  0  0  0  0  0  0  0  0  0
   -4.4348  -12.4661   19.8805 H   0  0  0  0  0  0  0  0  0  0  0  0
   -6.6277  -15.0390   19.0648 H   0  0  0  0  0  0  0  0  0  0  0  0
   -9.2368  -13.5508   23.2112 C   0  0  0  0  0  0  0  0  0  0  0  0
   -9.7336  -14.7498   22.6713 O   0  0  0  0  0  0  0  0  0  0  0  0
  -10.1564  -14.5691   21.8172 H   0  0  0  0  0  0  0  0  0  0  0  0
   -9.4477  -13.3182   20.2340 O   0  0  0  0  0  0  0  0  0  0  0  0
  -10.1471  -12.0875   20.5837 C   0  0  0  0  0  0  0  0  0  0  0  0
  -11.6810  -12.2981   20.6271 C   0  0  0  0  0  0  0  0  0  0  0  0
  -11.9566  -13.6155   21.1209 O   0  0  0  0  0  0  0  0  0  0  0  0
  -12.5333  -11.9551   19.3684 C   0  0  0  0  0  0  0  0  0  0  0  0
  -13.3233  -13.0361   18.7689 O   0  0  0  0  0  0  0  0  0  0  0  0
  -11.8197  -11.1234   18.2836 C   0  0  0  0  0  0  0  0  0  0  0  0
  -10.2855  -11.0392   18.3850 C   0  0  0  0  0  0  0  0  0  0  0  0
   -9.8533  -10.9674   19.7397 O   0  0  0  0  0  0  0  0  0  0  0  0
   -9.7441   -9.7886   17.6929 C   0  0  0  0  0  0  0  0  0  0  0  0
  -11.6315  -14.2732   20.4864 H   0  0  0  0  0  0  0  0  0  0  0  0
  -12.7303  -13.6614   18.3236 H   0  0  0  0  0  0  0  0  0  0  0  0
  -12.3168  -11.4556   16.9426 N   0  0  0  0  0  0  0  0  0  0  0  0
  -11.5332  -11.8163   16.3982 H   0  0  0  0  0  0  0  0  0  0  0  0
  -12.9066  -10.3567   16.2014 C   0  0  0  0  0  0  0  0  0  0  0  0
  -12.2980  -10.0448   14.8391 C   0  0  0  0  0  0  0  0  0  0  0  0
  -11.6599  -11.1537   14.2013 O   0  0  0  0  0  0  0  0  0  0  0  0
  -13.5826   -9.6720   14.1280 C   0  0  0  0  0  0  0  0  0  0  0  0
  -13.4138   -9.7759   12.7107 O   0  0  0  0  0  0  0  0  0  0  0  0
  -14.0125   -8.2749   14.6056 C   0  0  0  0  0  0  0  0  0  0  0  0
  -15.3507   -7.9810   14.1274 O   0  0  0  0  0  0  0  0  0  0  0  0
  -13.9139   -8.1612   16.1295 C   0  0  0  0  0  0  0  0  0  0  0  0
  -13.1350   -9.0062   16.8519 C   0  0  0  0  0  0  0  0  0  0  0  0
  -12.2891  -11.8877   14.1233 H   0  0  0  0  0  0  0  0  0  0  0  0
  -12.7046   -9.1789   12.4249 H   0  0  0  0  0  0  0  0  0  0  0  0
  -15.9731   -8.6318   14.4880 H   0  0  0  0  0  0  0  0  0  0  0  0
  -14.6846   -7.0836   16.8574 C   0  0  0  0  0  0  0  0  0  0  0  0
  -16.0621   -7.4537   17.0032 O   0  0  0  0  0  0  0  0  0  0  0  0
  -16.4593   -7.5731   16.1263 H   0  0  0  0  0  0  0  0  0  0  0  0
   -5.9088  -11.2696   21.7014 O   0  0  0  0  0  0  0  0  0  0  0  0
   -5.2300   -7.6175   23.7579 C   0  0  0  0  0  0  0  0  0  0  0  0
   -4.2771   -8.7748   24.0444 C   0  0  0  0  0  0  0  0  0  0  0  0
   -2.9433   -8.2631   24.2064 O   0  0  0  0  0  0  0  0  0  0  0  0
   -4.3429   -9.8606   22.9543 C   0  0  0  0  0  0  0  0  0  0  0  0
   -3.5143  -10.9421   23.3283 O   0  0  0  0  0  0  0  0  0  0  0  0
   -5.8267  -10.2780   22.7693 C   0  0  0  0  0  0  0  0  0  0  0  0
   -6.7085   -9.0511   22.5275 C   0  0  0  0  0  0  0  0  0  0  0  0
   -6.5585   -8.0701   23.5565 O   0  0  0  0  0  0  0  0  0  0  0  0
   -2.6611   -7.8302   23.3855 H   0  0  0  0  0  0  0  0  0  0  0  0
   -3.8121  -11.2980   24.1801 H   0  0  0  0  0  0  0  0  0  0  0  0
   -8.2069   -9.3449   22.5124 C   0  0  0  0  0  0  0  0  0  0  0  0
   -8.9032   -8.6197   21.4972 O   0  0  0  0  0  0  0  0  0  0  0  0
   -8.8109   -7.6678   21.6589 H   0  0  0  0  0  0  0  0  0  0  0  0
   -4.7969   -6.9547   22.5569 O   0  0  0  0  0  0  0  0  0  0  0  0
   -3.8290   -3.1738   21.1680 C   0  0  0  0  0  0  0  0  0  0  0  0
   -3.1215   -3.8951   20.1445 O   0  0  0  0  0  0  0  0  0  0  0  0
   -3.2098   -3.5371   22.5047 C   0  0  0  0  0  0  0  0  0  0  0  0
   -1.8417   -3.1073   22.6451 O   0  0  0  0  0  0  0  0  0  0  0  0
   -3.2928   -5.0474   22.7577 C   0  0  0  0  0  0  0  0  0  0  0  0
   -2.7151   -5.4117   24.0186 O   0  0  0  0  0  0  0  0  0  0  0  0
   -4.7484   -5.5229   22.6323 C   0  0  0  0  0  0  0  0  0  0  0  0
   -5.4343   -4.9669   21.3909 C   0  0  0  0  0  0  0  0  0  0  0  0
   -5.2209   -3.5505   21.1774 O   0  0  0  0  0  0  0  0  0  0  0  0
   -3.1865   -4.8475   20.3164 H   0  0  0  0  0  0  0  0  0  0  0  0
   -1.2895   -3.5687   21.9946 H   0  0  0  0  0  0  0  0  0  0  0  0
   -3.2078   -4.9831   24.7358 H   0  0  0  0  0  0  0  0  0  0  0  0
   -6.9599   -5.1553   21.3898 C   0  0  0  0  0  0  0  0  0  0  0  0
   -7.4106   -5.5202   22.7090 O   0  0  0  0  0  0  0  0  0  0  0  0
   -6.9888   -6.3518   22.9762 H   0  0  0  0  0  0  0  0  0  0  0  0
 36 28  1  0  0  0
 29 28  1  0  0  0
 28 26  1  0  0  0
 16 15  1  0  0  0
 14 15  1  0  0  0
 15 22  1  0  0  0
 43  1  1  0  0  0
  8  1  1  0  0  0
  1  2  1  0  0  0
 57 44  1  0  0  0
 44 51  1  0  0  0
 44 45  1  0  0  0
 59 58  1  0  0  0
 58 66  1  0  0  0
 58 60  1  0  0  0
 29 31  1  0  0  0
 29 30  1  0  0  0
 18 16  1  0  0  0
 17 16  1  0  0  0
  4  2  1  0  0  0
  2  3  1  0  0  0
 46 45  1  0  0  0
 45 47  1  0  0  0
 61 60  1  0  0  0
 60 62  1  0  0  0
 33 31  1  0  0  0
 31 32  1  0  0  0
 19 18  1  0  0  0
 18 20  1  0  0  0
  6  4  1  0  0  0
  4  5  1  0  0  0
 47 49  1  0  0  0
 47 48  1  0  0  0
 62 64  1  0  0  0
 62 63  1  0  0  0
 35 33  1  0  0  0
 33 34  1  0  0  0
 26 20  1  0  0  0
 20 21  1  0  0  0
 14  6  1  0  0  0
  7  6  1  0  0  0
 50 49  1  0  0  0
 49 43  1  0  0  0
 65 64  1  0  0  0
 64 57  1  0  0  0
 40 35  1  0  0  0
 35 36  1  0  0  0
 21 23  1  0  0  0
 21 22  1  0  0  0
  7 11  1  0  0  0
  7  8  1  0  0  0
 51 50  1  0  0  0
 50 54  1  0  0  0
 66 65  1  0  0  0
 65 70  1  0  0  0
 41 40  1  0  0  0
 12 11  1  0  0  0
 55 54  1  0  0  0
 70 71  1  0  0  0
 59 67  1  0  0  0
 30 37  1  0  0  0
 17 24  1  0  0  0
  3  9  1  0  0  0
 46 52  1  0  0  0
 61 68  1  0  0  0
 32 38  1  0  0  0
 19 25  1  0  0  0
  5 10  1  0  0  0
 48 53  1  0  0  0
 63 69  1  0  0  0
 34 39  1  0  0  0
 26 27  1  0  0  0
 41 42  1  0  0  0
 12 13  1  0  0  0
 55 56  1  0  0  0
 71 72  1  0  0  0
M  END
> <minimizedAffinity>
-10.58768

$$$$
3K02_TXT_A_405


 72 76  0  0  0  0  0  0  0  0999 V2000
   -5.4976  -11.0679   21.1426 C   0  0  0  0  0  0  0  0  0  0  0  0
   -6.3079  -11.4424   19.8976 C   0  0  0  0  0  0  0  0  0  0  0  0
   -7.3522  -10.5061   19.6309 O   0  0  0  0  0  0  0  0  0  0  0  0
   -6.8078  -12.8672   20.0850 C   0  0  0  0  0  0  0  0  0  0  0  0
   -7.7221  -13.1532   18.9991 O   0  0  0  0  0  0  0  0  0  0  0  0
   -5.6272  -13.8623   20.2563 C   0  0  0  0  0  0  0  0  0  0  0  0
   -4.6609  -13.3645   21.3467 C   0  0  0  0  0  0  0  0  0  0  0  0
   -4.3741  -11.9510   21.2439 O   0  0  0  0  0  0  0  0  0  0  0  0
   -7.9650  -10.4825   20.3824 H   0  0  0  0  0  0  0  0  0  0  0  0
   -7.2590  -13.0560   18.1524 H   0  0  0  0  0  0  0  0  0  0  0  0
   -3.3232  -14.0900   21.2597 C   0  0  0  0  0  0  0  0  0  0  0  0
   -3.3922  -15.0774   20.2617 O   0  0  0  0  0  0  0  0  0  0  0  0
   -4.0919  -15.7119   20.4825 H   0  0  0  0  0  0  0  0  0  0  0  0
   -6.0376  -15.1937   20.6461 O   0  0  0  0  0  0  0  0  0  0  0  0
   -6.5311  -15.4625   21.9916 C   0  0  0  0  0  0  0  0  0  0  0  0
   -6.9409  -16.9465   22.1608 C   0  0  0  0  0  0  0  0  0  0  0  0
   -6.0528  -17.7660   21.3895 O   0  0  0  0  0  0  0  0  0  0  0  0
   -8.4321  -17.3527   21.9624 C   0  0  0  0  0  0  0  0  0  0  0  0
   -8.7333  -18.3409   20.9206 O   0  0  0  0  0  0  0  0  0  0  0  0
   -9.4440  -16.1896   21.9314 C   0  0  0  0  0  0  0  0  0  0  0  0
   -8.8589  -14.7790   21.7337 C   0  0  0  0  0  0  0  0  0  0  0  0
   -7.6166  -14.6273   22.4127 O   0  0  0  0  0  0  0  0  0  0  0  0
   -9.7888  -13.7014   22.2904 C   0  0  0  0  0  0  0  0  0  0  0  0
   -6.1768  -17.5781   20.4460 H   0  0  0  0  0  0  0  0  0  0  0  0
   -8.6209  -17.9343   20.0471 H   0  0  0  0  0  0  0  0  0  0  0  0
  -10.5838  -16.4961   21.0582 N   0  0  0  0  0  0  0  0  0  0  0  0
  -10.5440  -17.4888   20.8275 H   0  0  0  0  0  0  0  0  0  0  0  0
  -10.6402  -15.7511   19.8145 C   0  0  0  0  0  0  0  0  0  0  0  0
  -11.9734  -15.0988   19.4668 C   0  0  0  0  0  0  0  0  0  0  0  0
  -12.7990  -14.7892   20.5921 O   0  0  0  0  0  0  0  0  0  0  0  0
  -11.4193  -13.8389   18.8340 C   0  0  0  0  0  0  0  0  0  0  0  0
  -12.4141  -12.8101   18.8226 O   0  0  0  0  0  0  0  0  0  0  0  0
  -10.8736  -14.1962   17.4415 C   0  0  0  0  0  0  0  0  0  0  0  0
  -10.1298  -13.0735   16.9009 O   0  0  0  0  0  0  0  0  0  0  0  0
  -10.0249  -15.4697   17.4946 C   0  0  0  0  0  0  0  0  0  0  0  0
  -10.1445  -16.3562   18.5155 C   0  0  0  0  0  0  0  0  0  0  0  0
  -12.3058  -14.2273   21.2101 H   0  0  0  0  0  0  0  0  0  0  0  0
  -13.1846  -13.1109   18.3159 H   0  0  0  0  0  0  0  0  0  0  0  0
   -9.3785  -12.8738   17.4812 H   0  0  0  0  0  0  0  0  0  0  0  0
   -9.0376  -15.7655   16.3887 C   0  0  0  0  0  0  0  0  0  0  0  0
   -7.8833  -14.9221   16.4982 O   0  0  0  0  0  0  0  0  0  0  0  0
   -8.1534  -13.9934   16.4254 H   0  0  0  0  0  0  0  0  0  0  0  0
   -6.3328  -11.1949   22.3185 O   0  0  0  0  0  0  0  0  0  0  0  0
   -5.3479   -7.4349   24.0270 C   0  0  0  0  0  0  0  0  0  0  0  0
   -4.5039   -8.6383   24.4384 C   0  0  0  0  0  0  0  0  0  0  0  0
   -3.1312   -8.2323   24.5725 O   0  0  0  0  0  0  0  0  0  0  0  0
   -4.6576   -9.8143   23.4562 C   0  0  0  0  0  0  0  0  0  0  0  0
   -3.9314  -10.9232   23.9453 O   0  0  0  0  0  0  0  0  0  0  0  0
   -6.1712  -10.1159   23.2878 C   0  0  0  0  0  0  0  0  0  0  0  0
   -6.9384   -8.8454   22.9155 C   0  0  0  0  0  0  0  0  0  0  0  0
   -6.7097   -7.7864   23.8483 O   0  0  0  0  0  0  0  0  0  0  0  0
   -2.8052   -7.9073   23.7187 H   0  0  0  0  0  0  0  0  0  0  0  0
   -4.2662  -11.1676   24.8223 H   0  0  0  0  0  0  0  0  0  0  0  0
   -8.4568   -9.0066   22.9042 C   0  0  0  0  0  0  0  0  0  0  0  0
   -8.8932  -10.0832   22.0723 O   0  0  0  0  0  0  0  0  0  0  0  0
   -8.6277   -9.9114   21.1553 H   0  0  0  0  0  0  0  0  0  0  0  0
   -4.8482   -6.9320   22.7754 O   0  0  0  0  0  0  0  0  0  0  0  0
   -3.7116   -3.3710   20.9896 C   0  0  0  0  0  0  0  0  0  0  0  0
   -2.9908   -4.2280   20.0871 O   0  0  0  0  0  0  0  0  0  0  0  0
   -3.1528   -3.5892   22.3832 C   0  0  0  0  0  0  0  0  0  0  0  0
   -1.7777   -3.1832   22.5259 O   0  0  0  0  0  0  0  0  0  0  0  0
   -3.2926   -5.0559   22.8092 C   0  0  0  0  0  0  0  0  0  0  0  0
   -2.7726   -5.2830   24.1260 O   0  0  0  0  0  0  0  0  0  0  0  0
   -4.7571   -5.5032   22.6832 C   0  0  0  0  0  0  0  0  0  0  0  0
   -5.3799   -5.0805   21.3588 C   0  0  0  0  0  0  0  0  0  0  0  0
   -5.1141   -3.7059   20.9884 O   0  0  0  0  0  0  0  0  0  0  0  0
   -3.0922   -5.1510   20.3674 H   0  0  0  0  0  0  0  0  0  0  0  0
   -1.2173   -3.7335   21.9568 H   0  0  0  0  0  0  0  0  0  0  0  0
   -3.2770   -4.7588   24.7677 H   0  0  0  0  0  0  0  0  0  0  0  0
   -6.9096   -5.2262   21.3197 C   0  0  0  0  0  0  0  0  0  0  0  0
   -7.4287   -5.3181   22.6607 O   0  0  0  0  0  0  0  0  0  0  0  0
   -7.0478   -6.0931   23.1025 H   0  0  0  0  0  0  0  0  0  0  0  0
 36 28  1  0  0  0
 29 28  1  0  0  0
 28 26  1  0  0  0
 16 15  1  0  0  0
 14 15  1  0  0  0
 15 22  1  0  0  0
 43  1  1  0  0  0
  8  1  1  0  0  0
  1  2  1  0  0  0
 57 44  1  0  0  0
 44 51  1  0  0  0
 44 45  1  0  0  0
 59 58  1  0  0  0
 58 66  1  0  0  0
 58 60  1  0  0  0
 29 31  1  0  0  0
 29 30  1  0  0  0
 18 16  1  0  0  0
 17 16  1  0  0  0
  4  2  1  0  0  0
  2  3  1  0  0  0
 46 45  1  0  0  0
 45 47  1  0  0  0
 61 60  1  0  0  0
 60 62  1  0  0  0
 33 31  1  0  0  0
 31 32  1  0  0  0
 19 18  1  0  0  0
 18 20  1  0  0  0
  6  4  1  0  0  0
  4  5  1  0  0  0
 47 49  1  0  0  0
 47 48  1  0  0  0
 62 64  1  0  0  0
 62 63  1  0  0  0
 35 33  1  0  0  0
 33 34  1  0  0  0
 26 20  1  0  0  0
 20 21  1  0  0  0
 14  6  1  0  0  0
  7  6  1  0  0  0
 50 49  1  0  0  0
 49 43  1  0  0  0
 65 64  1  0  0  0
 64 57  1  0  0  0
 40 35  1  0  0  0
 35 36  1  0  0  0
 21 23  1  0  0  0
 21 22  1  0  0  0
  7 11  1  0  0  0
  7  8  1  0  0  0
 51 50  1  0  0  0
 50 54  1  0  0  0
 66 65  1  0  0  0
 65 70  1  0  0  0
 41 40  1  0  0  0
 12 11  1  0  0  0
 55 54  1  0  0  0
 70 71  1  0  0  0
 59 67  1  0  0  0
 30 37  1  0  0  0
 17 24  1  0  0  0
  3  9  1  0  0  0
 46 52  1  0  0  0
 61 68  1  0  0  0
 32 38  1  0  0  0
 19 25  1  0  0  0
  5 10  1  0  0  0
 48 53  1  0  0  0
 63 69  1  0  0  0
 34 39  1  0  0  0
 26 27  1  0  0  0
 41 42  1  0  0  0
 12 13  1  0  0  0
 55 56  1  0  0  0
 71 72  1  0  0  0
M  END
> <minimizedAffinity>
-10.36581

$$$$
