3B50_SLB_A_311


 28 28  0  0  0  0  0  0  0  0999 V2000
    8.9872   -9.1074  -12.1106 C   0  0  0  0  0  0  0  0  0  0  0  0
   10.0781   -8.4653  -11.2620 C   0  0  0  0  0  0  0  0  0  0  0  0
   11.2003   -7.9462  -12.1549 C   0  0  0  0  0  0  0  0  0  0  0  0
   10.5591   -6.9674  -13.1508 C   0  0  0  0  0  0  0  0  0  0  0  0
    9.5068   -7.7129  -13.9846 C   0  0  0  0  0  0  0  0  0  0  0  0
    9.4703  -10.2475  -12.8017 O   0  0  0  0  0  0  0  0  0  0  0  0
   12.1859   -7.3408  -11.3080 O   0  0  0  0  0  0  0  0  0  0  0  0
    8.5295   -8.2129  -13.0906 O   0  0  0  0  0  0  0  0  0  0  0  0
    9.7994  -10.8980  -12.1618 H   0  0  0  0  0  0  0  0  0  0  0  0
   11.7724   -6.6393  -10.7809 H   0  0  0  0  0  0  0  0  0  0  0  0
   12.2961   -5.3236  -13.7497 C   0  0  0  0  0  0  0  0  0  0  0  0
   13.3197   -4.9090  -14.7817 C   0  0  0  0  0  0  0  0  0  0  0  0
   11.5987   -6.4456  -14.0428 N   0  0  0  0  0  0  0  0  0  0  0  0
   12.1388   -4.6854  -12.6894 O   0  0  0  0  0  0  0  0  0  0  0  0
   11.7954   -6.9255  -14.8796 H   0  0  0  0  0  0  0  0  0  0  0  0
    7.7534   -9.4533  -11.3325 C   0  0  0  0  0  0  0  0  0  0  0  0
    7.1105   -8.5396  -10.7795 O   0  0  0  0  0  0  0  0  0  0  0  0
    7.4534  -10.6729  -11.2446 O   0  0  0  0  0  0  0  0  0  0  0  0
    7.9748  -11.3164  -11.6829 H   0  0  0  0  0  0  0  0  0  0  0  0
    8.7850   -6.8120  -14.9874 C   0  0  0  0  0  0  0  0  0  0  0  0
    8.2699   -5.6675  -14.3260 O   0  0  0  0  0  0  0  0  0  0  0  0
    7.6305   -5.9445  -13.6512 H   0  0  0  0  0  0  0  0  0  0  0  0
    7.6374   -7.5574  -15.6637 C   0  0  0  0  0  0  0  0  0  0  0  0
    8.0039   -8.9073  -15.8684 O   0  0  0  0  0  0  0  0  0  0  0  0
    8.7744   -8.9476  -16.4564 H   0  0  0  0  0  0  0  0  0  0  0  0
    7.2153   -6.9009  -16.9660 C   0  0  0  0  0  0  0  0  0  0  0  0
    8.0014   -5.7484  -17.3219 O   0  0  0  0  0  0  0  0  0  0  0  0
    7.8975   -5.0639  -16.6426 H   0  0  0  0  0  0  0  0  0  0  0  0
 16  1  1  0  0  0
 16 17  2  0  0  0
 16 18  1  0  0  0
  1  2  1  0  0  0
  1  6  1  0  0  0
  1  8  1  0  0  0
  2  3  1  0  0  0
  3  4  1  0  0  0
  3  7  1  0  0  0
  4  5  1  0  0  0
  4 13  1  0  0  0
  5 20  1  0  0  0
  5  8  1  0  0  0
 20 23  1  0  0  0
 20 21  1  0  0  0
 23 26  1  0  0  0
 23 24  1  0  0  0
 26 27  1  0  0  0
 11 12  1  0  0  0
 11 13  1  0  0  0
 11 14  2  0  0  0
 13 15  1  0  0  0
 18 19  1  0  0  0
  6  9  1  0  0  0
  7 10  1  0  0  0
 21 22  1  0  0  0
 24 25  1  0  0  0
 27 28  1  0  0  0
M  END
> <minimizedAffinity>
-9.44261

$$$$
3B50_SLB_A_311


 28 28  0  0  0  0  0  0  0  0999 V2000
   12.9488   -5.9770  -12.7834 C   0  0  0  0  0  0  0  0  0  0  0  0
   12.6323   -5.1601  -14.0303 C   0  0  0  0  0  0  0  0  0  0  0  0
   11.6741   -5.9302  -14.9330 C   0  0  0  0  0  0  0  0  0  0  0  0
   10.4290   -6.2485  -14.0907 C   0  0  0  0  0  0  0  0  0  0  0  0
   10.8410   -7.1054  -12.8848 C   0  0  0  0  0  0  0  0  0  0  0  0
   13.6284   -7.1784  -13.1082 O   0  0  0  0  0  0  0  0  0  0  0  0
   11.3999   -5.1107  -16.0768 O   0  0  0  0  0  0  0  0  0  0  0  0
   11.7685   -6.3538  -12.1238 O   0  0  0  0  0  0  0  0  0  0  0  0
   14.4558   -6.9675  -13.5685 H   0  0  0  0  0  0  0  0  0  0  0  0
   11.0367   -4.2598  -15.7853 H   0  0  0  0  0  0  0  0  0  0  0  0
    8.1643   -6.6755  -14.9665 C   0  0  0  0  0  0  0  0  0  0  0  0
    7.3128   -7.5614  -15.8467 C   0  0  0  0  0  0  0  0  0  0  0  0
    9.4768   -7.0007  -14.9130 N   0  0  0  0  0  0  0  0  0  0  0  0
    7.6839   -5.6949  -14.3633 O   0  0  0  0  0  0  0  0  0  0  0  0
    9.8016   -7.7650  -15.4418 H   0  0  0  0  0  0  0  0  0  0  0  0
   13.7129   -5.2096  -11.7466 C   0  0  0  0  0  0  0  0  0  0  0  0
   14.4704   -5.8269  -10.9727 O   0  0  0  0  0  0  0  0  0  0  0  0
   13.5115   -3.9682  -11.6873 O   0  0  0  0  0  0  0  0  0  0  0  0
   12.9301   -3.5582  -12.2971 H   0  0  0  0  0  0  0  0  0  0  0  0
    9.6705   -7.4485  -11.9625 C   0  0  0  0  0  0  0  0  0  0  0  0
    9.9797   -7.0748  -10.6293 O   0  0  0  0  0  0  0  0  0  0  0  0
   10.7588   -7.5676  -10.3278 H   0  0  0  0  0  0  0  0  0  0  0  0
    9.3626   -8.9429  -12.0041 C   0  0  0  0  0  0  0  0  0  0  0  0
    9.8109   -9.4858  -13.2301 O   0  0  0  0  0  0  0  0  0  0  0  0
    9.3378   -9.0623  -13.9634 H   0  0  0  0  0  0  0  0  0  0  0  0
    7.8882   -9.2313  -11.7840 C   0  0  0  0  0  0  0  0  0  0  0  0
    7.6186  -10.5578  -11.2936 O   0  0  0  0  0  0  0  0  0  0  0  0
    7.9141  -11.2106  -11.9474 H   0  0  0  0  0  0  0  0  0  0  0  0
 16  1  1  0  0  0
 16 17  2  0  0  0
 16 18  1  0  0  0
  1  2  1  0  0  0
  1  6  1  0  0  0
  1  8  1  0  0  0
  2  3  1  0  0  0
  3  4  1  0  0  0
  3  7  1  0  0  0
  4  5  1  0  0  0
  4 13  1  0  0  0
  5 20  1  0  0  0
  5  8  1  0  0  0
 20 23  1  0  0  0
 20 21  1  0  0  0
 23 26  1  0  0  0
 23 24  1  0  0  0
 26 27  1  0  0  0
 11 12  1  0  0  0
 11 13  1  0  0  0
 11 14  2  0  0  0
 13 15  1  0  0  0
 18 19  1  0  0  0
  6  9  1  0  0  0
  7 10  1  0  0  0
 21 22  1  0  0  0
 24 25  1  0  0  0
 27 28  1  0  0  0
M  END
> <minimizedAffinity>
-9.13260

$$$$
3B50_SLB_A_311


 28 28  0  0  0  0  0  0  0  0999 V2000
    7.9620   -6.5133  -12.3081 C   0  0  0  0  0  0  0  0  0  0  0  0
    7.8009   -7.8822  -11.6582 C   0  0  0  0  0  0  0  0  0  0  0  0
    8.6122   -8.9241  -12.4212 C   0  0  0  0  0  0  0  0  0  0  0  0
   10.0678   -8.4322  -12.4337 C   0  0  0  0  0  0  0  0  0  0  0  0
   10.1345   -7.0712  -13.1420 C   0  0  0  0  0  0  0  0  0  0  0  0
    7.4394   -6.4993  -13.6262 O   0  0  0  0  0  0  0  0  0  0  0  0
    8.4370  -10.1833  -11.7586 O   0  0  0  0  0  0  0  0  0  0  0  0
    9.3190   -6.1709  -12.4148 O   0  0  0  0  0  0  0  0  0  0  0  0
    6.4979   -6.7314  -13.6032 H   0  0  0  0  0  0  0  0  0  0  0  0
    8.7106  -10.1016  -10.8315 H   0  0  0  0  0  0  0  0  0  0  0  0
   11.6069  -10.3555  -12.5340 C   0  0  0  0  0  0  0  0  0  0  0  0
   12.4176  -11.2599  -13.4336 C   0  0  0  0  0  0  0  0  0  0  0  0
   10.8911   -9.3977  -13.1676 N   0  0  0  0  0  0  0  0  0  0  0  0
   11.5816  -10.5136  -11.2968 O   0  0  0  0  0  0  0  0  0  0  0  0
   10.9243   -9.3479  -14.1503 H   0  0  0  0  0  0  0  0  0  0  0  0
    7.3702   -5.3972  -11.5007 C   0  0  0  0  0  0  0  0  0  0  0  0
    7.6467   -5.3149  -10.2879 O   0  0  0  0  0  0  0  0  0  0  0  0
    6.5803   -4.6164  -12.0934 O   0  0  0  0  0  0  0  0  0  0  0  0
    6.4105   -4.7272  -13.0082 H   0  0  0  0  0  0  0  0  0  0  0  0
   11.5440   -6.4793  -13.1766 C   0  0  0  0  0  0  0  0  0  0  0  0
   11.4858   -5.0788  -12.9579 O   0  0  0  0  0  0  0  0  0  0  0  0
   10.9642   -4.6629  -13.6621 H   0  0  0  0  0  0  0  0  0  0  0  0
   12.2161   -6.7479  -14.5204 C   0  0  0  0  0  0  0  0  0  0  0  0
   13.2357   -7.7134  -14.3563 O   0  0  0  0  0  0  0  0  0  0  0  0
   13.9095   -7.3719  -13.7478 H   0  0  0  0  0  0  0  0  0  0  0  0
   12.7598   -5.4796  -15.1538 C   0  0  0  0  0  0  0  0  0  0  0  0
   11.8030   -4.7756  -15.9674 O   0  0  0  0  0  0  0  0  0  0  0  0
   11.5329   -5.3390  -16.7093 H   0  0  0  0  0  0  0  0  0  0  0  0
 16  1  1  0  0  0
 16 17  2  0  0  0
 16 18  1  0  0  0
  1  2  1  0  0  0
  1  6  1  0  0  0
  1  8  1  0  0  0
  2  3  1  0  0  0
  3  4  1  0  0  0
  3  7  1  0  0  0
  4  5  1  0  0  0
  4 13  1  0  0  0
  5 20  1  0  0  0
  5  8  1  0  0  0
 20 23  1  0  0  0
 20 21  1  0  0  0
 23 26  1  0  0  0
 23 24  1  0  0  0
 26 27  1  0  0  0
 11 12  1  0  0  0
 11 13  1  0  0  0
 11 14  2  0  0  0
 13 15  1  0  0  0
 18 19  1  0  0  0
  6  9  1  0  0  0
  7 10  1  0  0  0
 21 22  1  0  0  0
 24 25  1  0  0  0
 27 28  1  0  0  0
M  END
> <minimizedAffinity>
-9.01109

$$$$
3B50_SLB_A_311


 28 28  0  0  0  0  0  0  0  0999 V2000
   11.5272   -9.0152  -13.7139 C   0  0  0  0  0  0  0  0  0  0  0  0
   11.4249   -8.9026  -12.1976 C   0  0  0  0  0  0  0  0  0  0  0  0
   10.6686   -7.6346  -11.8153 C   0  0  0  0  0  0  0  0  0  0  0  0
    9.2982   -7.7091  -12.5064 C   0  0  0  0  0  0  0  0  0  0  0  0
    9.5028   -7.7781  -14.0268 C   0  0  0  0  0  0  0  0  0  0  0  0
   12.2847   -7.9501  -14.2639 O   0  0  0  0  0  0  0  0  0  0  0  0
   10.5888   -7.5896  -10.3846 O   0  0  0  0  0  0  0  0  0  0  0  0
   10.2557   -8.9447  -14.3039 O   0  0  0  0  0  0  0  0  0  0  0  0
   13.1771   -7.9581  -13.8837 H   0  0  0  0  0  0  0  0  0  0  0  0
   10.1571   -8.3951  -10.0594 H   0  0  0  0  0  0  0  0  0  0  0  0
    7.4338   -6.5457  -11.3890 C   0  0  0  0  0  0  0  0  0  0  0  0
    6.7475   -5.2182  -11.1620 C   0  0  0  0  0  0  0  0  0  0  0  0
    8.5324   -6.5031  -12.1780 N   0  0  0  0  0  0  0  0  0  0  0  0
    7.0249   -7.5951  -10.8525 O   0  0  0  0  0  0  0  0  0  0  0  0
    8.8259   -5.6368  -12.5420 H   0  0  0  0  0  0  0  0  0  0  0  0
   12.0683  -10.3340  -14.1781 C   0  0  0  0  0  0  0  0  0  0  0  0
   12.8571  -10.3589  -15.1431 O   0  0  0  0  0  0  0  0  0  0  0  0
   11.6563  -11.3646  -13.5836 O   0  0  0  0  0  0  0  0  0  0  0  0
   11.0629  -11.2841  -12.8630 H   0  0  0  0  0  0  0  0  0  0  0  0
    8.1918   -7.8890  -14.8060 C   0  0  0  0  0  0  0  0  0  0  0  0
    8.1537   -9.1166  -15.5162 O   0  0  0  0  0  0  0  0  0  0  0  0
    8.8873   -9.1464  -16.1500 H   0  0  0  0  0  0  0  0  0  0  0  0
    8.0446   -6.7350  -15.7942 C   0  0  0  0  0  0  0  0  0  0  0  0
    7.9773   -5.5119  -15.0885 O   0  0  0  0  0  0  0  0  0  0  0  0
    7.1970   -5.5136  -14.5123 H   0  0  0  0  0  0  0  0  0  0  0  0
    6.8421   -6.9090  -16.7047 C   0  0  0  0  0  0  0  0  0  0  0  0
    7.0423   -7.8660  -17.7616 O   0  0  0  0  0  0  0  0  0  0  0  0
    7.7612   -7.5645  -18.3388 H   0  0  0  0  0  0  0  0  0  0  0  0
 16  1  1  0  0  0
 16 17  2  0  0  0
 16 18  1  0  0  0
  1  2  1  0  0  0
  1  6  1  0  0  0
  1  8  1  0  0  0
  2  3  1  0  0  0
  3  4  1  0  0  0
  3  7  1  0  0  0
  4  5  1  0  0  0
  4 13  1  0  0  0
  5 20  1  0  0  0
  5  8  1  0  0  0
 20 23  1  0  0  0
 20 21  1  0  0  0
 23 26  1  0  0  0
 23 24  1  0  0  0
 26 27  1  0  0  0
 11 12  1  0  0  0
 11 13  1  0  0  0
 11 14  2  0  0  0
 13 15  1  0  0  0
 18 19  1  0  0  0
  6  9  1  0  0  0
  7 10  1  0  0  0
 21 22  1  0  0  0
 24 25  1  0  0  0
 27 28  1  0  0  0
M  END
> <minimizedAffinity>
-8.93464

$$$$
3B50_SLB_A_311


 28 28  0  0  0  0  0  0  0  0999 V2000
    8.6908   -7.2643  -14.1581 C   0  0  0  0  0  0  0  0  0  0  0  0
    8.2473   -8.1710  -13.0163 C   0  0  0  0  0  0  0  0  0  0  0  0
    9.1856   -9.3679  -12.9019 C   0  0  0  0  0  0  0  0  0  0  0  0
   10.6021   -8.8052  -12.7071 C   0  0  0  0  0  0  0  0  0  0  0  0
   10.9736   -7.9421  -13.9217 C   0  0  0  0  0  0  0  0  0  0  0  0
    8.6050   -7.9253  -15.4096 O   0  0  0  0  0  0  0  0  0  0  0  0
    8.7318  -10.1737  -11.8064 O   0  0  0  0  0  0  0  0  0  0  0  0
   10.0332   -6.8866  -13.9993 O   0  0  0  0  0  0  0  0  0  0  0  0
    7.6897   -8.2068  -15.5645 H   0  0  0  0  0  0  0  0  0  0  0  0
    8.7091   -9.6376  -10.9983 H   0  0  0  0  0  0  0  0  0  0  0  0
   12.2787  -10.1352  -11.4832 C   0  0  0  0  0  0  0  0  0  0  0  0
   13.2204  -11.3161  -11.5420 C   0  0  0  0  0  0  0  0  0  0  0  0
   11.5477   -9.9203  -12.6015 N   0  0  0  0  0  0  0  0  0  0  0  0
   12.1680   -9.4357  -10.4562 O   0  0  0  0  0  0  0  0  0  0  0  0
   11.6540  -10.5307  -13.3665 H   0  0  0  0  0  0  0  0  0  0  0  0
    7.9518   -5.9608  -14.2050 C   0  0  0  0  0  0  0  0  0  0  0  0
    7.5037   -5.4806  -13.1455 O   0  0  0  0  0  0  0  0  0  0  0  0
    7.7860   -5.4356  -15.3372 O   0  0  0  0  0  0  0  0  0  0  0  0
    8.1469   -5.8429  -16.1000 H   0  0  0  0  0  0  0  0  0  0  0  0
   12.3597   -7.3066  -13.8069 C   0  0  0  0  0  0  0  0  0  0  0  0
   13.3608   -8.3042  -13.9309 O   0  0  0  0  0  0  0  0  0  0  0  0
   13.2629   -8.9512  -13.2149 H   0  0  0  0  0  0  0  0  0  0  0  0
   12.5253   -6.5961  -12.4661 C   0  0  0  0  0  0  0  0  0  0  0  0
   11.8747   -5.3418  -12.5104 O   0  0  0  0  0  0  0  0  0  0  0  0
   12.2841   -4.7891  -13.1943 H   0  0  0  0  0  0  0  0  0  0  0  0
   13.9842   -6.4429  -12.0742 C   0  0  0  0  0  0  0  0  0  0  0  0
   14.5797   -7.6463  -11.5546 O   0  0  0  0  0  0  0  0  0  0  0  0
   14.1206   -7.9093  -10.7416 H   0  0  0  0  0  0  0  0  0  0  0  0
 16  1  1  0  0  0
 16 17  2  0  0  0
 16 18  1  0  0  0
  1  2  1  0  0  0
  1  6  1  0  0  0
  1  8  1  0  0  0
  2  3  1  0  0  0
  3  4  1  0  0  0
  3  7  1  0  0  0
  4  5  1  0  0  0
  4 13  1  0  0  0
  5 20  1  0  0  0
  5  8  1  0  0  0
 20 23  1  0  0  0
 20 21  1  0  0  0
 23 26  1  0  0  0
 23 24  1  0  0  0
 26 27  1  0  0  0
 11 12  1  0  0  0
 11 13  1  0  0  0
 11 14  2  0  0  0
 13 15  1  0  0  0
 18 19  1  0  0  0
  6  9  1  0  0  0
  7 10  1  0  0  0
 21 22  1  0  0  0
 24 25  1  0  0  0
 27 28  1  0  0  0
M  END
> <minimizedAffinity>
-8.43503

$$$$
3B50_SLB_A_311


 28 28  0  0  0  0  0  0  0  0999 V2000
   11.4209   -8.8836  -11.2683 C   0  0  0  0  0  0  0  0  0  0  0  0
   10.2172   -9.7514  -11.6154 C   0  0  0  0  0  0  0  0  0  0  0  0
    9.1581   -8.9182  -12.3295 C   0  0  0  0  0  0  0  0  0  0  0  0
    9.8339   -8.3054  -13.5660 C   0  0  0  0  0  0  0  0  0  0  0  0
   11.0039   -7.4193  -13.1144 C   0  0  0  0  0  0  0  0  0  0  0  0
   11.0749   -7.8577  -10.3526 O   0  0  0  0  0  0  0  0  0  0  0  0
    8.0612   -9.7858  -12.6451 O   0  0  0  0  0  0  0  0  0  0  0  0
   11.9178   -8.2429  -12.4139 O   0  0  0  0  0  0  0  0  0  0  0  0
   10.7242   -8.2545   -9.5399 H   0  0  0  0  0  0  0  0  0  0  0  0
    8.3799  -10.5271  -13.1835 H   0  0  0  0  0  0  0  0  0  0  0  0
    8.1254   -7.9742  -15.3123 C   0  0  0  0  0  0  0  0  0  0  0  0
    7.1757   -6.9923  -15.9592 C   0  0  0  0  0  0  0  0  0  0  0  0
    8.8565   -7.4829  -14.2850 N   0  0  0  0  0  0  0  0  0  0  0  0
    8.1958   -9.1619  -15.6872 O   0  0  0  0  0  0  0  0  0  0  0  0
    8.7283   -6.5456  -14.0126 H   0  0  0  0  0  0  0  0  0  0  0  0
   12.5919   -9.6669  -10.7557 C   0  0  0  0  0  0  0  0  0  0  0  0
   12.5891  -10.9078  -10.8752 O   0  0  0  0  0  0  0  0  0  0  0  0
   13.5097   -9.0203  -10.1858 O   0  0  0  0  0  0  0  0  0  0  0  0
   13.4574   -8.0867  -10.1260 H   0  0  0  0  0  0  0  0  0  0  0  0
   11.7651   -6.7873  -14.2805 C   0  0  0  0  0  0  0  0  0  0  0  0
   12.5994   -7.7562  -14.8951 O   0  0  0  0  0  0  0  0  0  0  0  0
   13.2469   -8.0812  -14.2501 H   0  0  0  0  0  0  0  0  0  0  0  0
   12.6234   -5.6190  -13.8029 C   0  0  0  0  0  0  0  0  0  0  0  0
   12.1209   -5.1320  -12.5746 O   0  0  0  0  0  0  0  0  0  0  0  0
   11.2162   -4.8061  -12.7018 H   0  0  0  0  0  0  0  0  0  0  0  0
   12.7105   -4.5106  -14.8370 C   0  0  0  0  0  0  0  0  0  0  0  0
   11.8804   -4.7235  -15.9939 O   0  0  0  0  0  0  0  0  0  0  0  0
   12.1668   -5.5282  -16.4537 H   0  0  0  0  0  0  0  0  0  0  0  0
 16  1  1  0  0  0
 16 17  2  0  0  0
 16 18  1  0  0  0
  1  2  1  0  0  0
  1  6  1  0  0  0
  1  8  1  0  0  0
  2  3  1  0  0  0
  3  4  1  0  0  0
  3  7  1  0  0  0
  4  5  1  0  0  0
  4 13  1  0  0  0
  5 20  1  0  0  0
  5  8  1  0  0  0
 20 23  1  0  0  0
 20 21  1  0  0  0
 23 26  1  0  0  0
 23 24  1  0  0  0
 26 27  1  0  0  0
 11 12  1  0  0  0
 11 13  1  0  0  0
 11 14  2  0  0  0
 13 15  1  0  0  0
 18 19  1  0  0  0
  6  9  1  0  0  0
  7 10  1  0  0  0
 21 22  1  0  0  0
 24 25  1  0  0  0
 27 28  1  0  0  0
M  END
> <minimizedAffinity>
-8.33140

$$$$
3B50_SLB_A_311


 28 28  0  0  0  0  0  0  0  0999 V2000
    8.5363   -8.5202  -14.3538 C   0  0  0  0  0  0  0  0  0  0  0  0
    8.6125   -7.0213  -14.0896 C   0  0  0  0  0  0  0  0  0  0  0  0
    9.5614   -6.7405  -12.9291 C   0  0  0  0  0  0  0  0  0  0  0  0
   10.9186   -7.3542  -13.3064 C   0  0  0  0  0  0  0  0  0  0  0  0
   10.7491   -8.8666  -13.5114 C   0  0  0  0  0  0  0  0  0  0  0  0
    7.9863   -9.2154  -13.2470 O   0  0  0  0  0  0  0  0  0  0  0  0
    9.6064   -5.3205  -12.7372 O   0  0  0  0  0  0  0  0  0  0  0  0
    9.8178   -9.0536  -14.5612 O   0  0  0  0  0  0  0  0  0  0  0  0
    7.0949   -8.8791  -13.0645 H   0  0  0  0  0  0  0  0  0  0  0  0
    9.8858   -4.8916  -13.5611 H   0  0  0  0  0  0  0  0  0  0  0  0
   13.0738   -6.5433  -12.4256 C   0  0  0  0  0  0  0  0  0  0  0  0
   13.9422   -6.3894  -11.1980 C   0  0  0  0  0  0  0  0  0  0  0  0
   11.8679   -7.1198  -12.2143 N   0  0  0  0  0  0  0  0  0  0  0  0
   13.4417   -6.1321  -13.5444 O   0  0  0  0  0  0  0  0  0  0  0  0
   11.6209   -7.3896  -11.3003 H   0  0  0  0  0  0  0  0  0  0  0  0
    7.7931   -8.8668  -15.6088 C   0  0  0  0  0  0  0  0  0  0  0  0
    7.1402   -9.9278  -15.6522 O   0  0  0  0  0  0  0  0  0  0  0  0
    7.9058   -8.0737  -16.5801 O   0  0  0  0  0  0  0  0  0  0  0  0
    8.4106   -7.2896  -16.4885 H   0  0  0  0  0  0  0  0  0  0  0  0
   12.0443   -9.5668  -13.9244 C   0  0  0  0  0  0  0  0  0  0  0  0
   11.9424  -10.0209  -15.2646 O   0  0  0  0  0  0  0  0  0  0  0  0
   11.2158  -10.6596  -15.3352 H   0  0  0  0  0  0  0  0  0  0  0  0
   12.3358  -10.7568  -13.0141 C   0  0  0  0  0  0  0  0  0  0  0  0
   11.6093  -11.8846  -13.4602 O   0  0  0  0  0  0  0  0  0  0  0  0
   10.6589  -11.6968  -13.4118 H   0  0  0  0  0  0  0  0  0  0  0  0
   12.0346  -10.4524  -11.5574 C   0  0  0  0  0  0  0  0  0  0  0  0
   13.1031   -9.7773  -10.8679 O   0  0  0  0  0  0  0  0  0  0  0  0
   13.8894  -10.3452  -10.8554 H   0  0  0  0  0  0  0  0  0  0  0  0
 16  1  1  0  0  0
 16 17  2  0  0  0
 16 18  1  0  0  0
  1  2  1  0  0  0
  1  6  1  0  0  0
  1  8  1  0  0  0
  2  3  1  0  0  0
  3  4  1  0  0  0
  3  7  1  0  0  0
  4  5  1  0  0  0
  4 13  1  0  0  0
  5 20  1  0  0  0
  5  8  1  0  0  0
 20 23  1  0  0  0
 20 21  1  0  0  0
 23 26  1  0  0  0
 23 24  1  0  0  0
 26 27  1  0  0  0
 11 12  1  0  0  0
 11 13  1  0  0  0
 11 14  2  0  0  0
 13 15  1  0  0  0
 18 19  1  0  0  0
  6  9  1  0  0  0
  7 10  1  0  0  0
 21 22  1  0  0  0
 24 25  1  0  0  0
 27 28  1  0  0  0
M  END
> <minimizedAffinity>
-8.16507

$$$$
3B50_SLB_A_311


 28 28  0  0  0  0  0  0  0  0999 V2000
    9.0231   -8.1393  -12.0424 C   0  0  0  0  0  0  0  0  0  0  0  0
    8.6256   -7.6560  -13.4320 C   0  0  0  0  0  0  0  0  0  0  0  0
    9.7080   -6.7438  -13.9998 C   0  0  0  0  0  0  0  0  0  0  0  0
   11.0160   -7.5501  -13.9952 C   0  0  0  0  0  0  0  0  0  0  0  0
   11.3537   -7.9557  -12.5531 C   0  0  0  0  0  0  0  0  0  0  0  0
    9.1202   -7.0618  -11.1258 O   0  0  0  0  0  0  0  0  0  0  0  0
    9.2900   -6.3346  -15.3087 O   0  0  0  0  0  0  0  0  0  0  0  0
   10.2859   -8.7511  -12.0720 O   0  0  0  0  0  0  0  0  0  0  0  0
    8.2658   -6.6057  -11.0712 H   0  0  0  0  0  0  0  0  0  0  0  0
    9.1351   -7.1186  -15.8585 H   0  0  0  0  0  0  0  0  0  0  0  0
   12.4194   -5.5234  -13.9627 C   0  0  0  0  0  0  0  0  0  0  0  0
   13.5430   -4.7720  -14.6393 C   0  0  0  0  0  0  0  0  0  0  0  0
   12.0951   -6.7109  -14.5246 N   0  0  0  0  0  0  0  0  0  0  0  0
   11.8610   -5.0835  -12.9376 O   0  0  0  0  0  0  0  0  0  0  0  0
   12.5986   -7.0204  -15.3119 H   0  0  0  0  0  0  0  0  0  0  0  0
    8.1180   -9.2047  -11.5009 C   0  0  0  0  0  0  0  0  0  0  0  0
    7.1317   -8.8703  -10.8158 O   0  0  0  0  0  0  0  0  0  0  0  0
    8.4334  -10.4004  -11.7374 O   0  0  0  0  0  0  0  0  0  0  0  0
    9.1873  -10.5915  -12.2600 H   0  0  0  0  0  0  0  0  0  0  0  0
   12.6277   -8.7947  -12.4466 C   0  0  0  0  0  0  0  0  0  0  0  0
   13.1281   -9.0806  -13.7429 O   0  0  0  0  0  0  0  0  0  0  0  0
   12.4688   -9.5908  -14.2387 H   0  0  0  0  0  0  0  0  0  0  0  0
   12.3579  -10.1065  -11.7143 C   0  0  0  0  0  0  0  0  0  0  0  0
   13.2372  -10.2249  -10.6136 O   0  0  0  0  0  0  0  0  0  0  0  0
   14.1532  -10.2430  -10.9321 H   0  0  0  0  0  0  0  0  0  0  0  0
   12.4663  -11.3098  -12.6338 C   0  0  0  0  0  0  0  0  0  0  0  0
   11.4406  -11.3695  -13.6424 O   0  0  0  0  0  0  0  0  0  0  0  0
   10.5726  -11.4478  -13.2166 H   0  0  0  0  0  0  0  0  0  0  0  0
 16  1  1  0  0  0
 16 17  2  0  0  0
 16 18  1  0  0  0
  1  2  1  0  0  0
  1  6  1  0  0  0
  1  8  1  0  0  0
  2  3  1  0  0  0
  3  4  1  0  0  0
  3  7  1  0  0  0
  4  5  1  0  0  0
  4 13  1  0  0  0
  5 20  1  0  0  0
  5  8  1  0  0  0
 20 23  1  0  0  0
 20 21  1  0  0  0
 23 26  1  0  0  0
 23 24  1  0  0  0
 26 27  1  0  0  0
 11 12  1  0  0  0
 11 13  1  0  0  0
 11 14  2  0  0  0
 13 15  1  0  0  0
 18 19  1  0  0  0
  6  9  1  0  0  0
  7 10  1  0  0  0
 21 22  1  0  0  0
 24 25  1  0  0  0
 27 28  1  0  0  0
M  END
> <minimizedAffinity>
-8.07730

$$$$
3B50_SLB_A_311


 28 28  0  0  0  0  0  0  0  0999 V2000
    8.5044   -7.7157  -14.3603 C   0  0  0  0  0  0  0  0  0  0  0  0
    9.4613   -6.5761  -14.6887 C   0  0  0  0  0  0  0  0  0  0  0  0
   10.3775   -6.3013  -13.5007 C   0  0  0  0  0  0  0  0  0  0  0  0
   11.0996   -7.6197  -13.1821 C   0  0  0  0  0  0  0  0  0  0  0  0
   10.0593   -8.6913  -12.8251 C   0  0  0  0  0  0  0  0  0  0  0  0
    7.6364   -7.3737  -13.2924 O   0  0  0  0  0  0  0  0  0  0  0  0
   11.2628   -5.2362  -13.8708 O   0  0  0  0  0  0  0  0  0  0  0  0
    9.2124   -8.8552  -13.9477 O   0  0  0  0  0  0  0  0  0  0  0  0
    7.1228   -6.5867  -13.5326 H   0  0  0  0  0  0  0  0  0  0  0  0
   11.7519   -5.4854  -14.6706 H   0  0  0  0  0  0  0  0  0  0  0  0
   13.2722   -7.0101  -12.1890 C   0  0  0  0  0  0  0  0  0  0  0  0
   14.0610   -6.8592  -10.9085 C   0  0  0  0  0  0  0  0  0  0  0  0
   11.9889   -7.4111  -12.0356 N   0  0  0  0  0  0  0  0  0  0  0  0
   13.7718   -6.7470  -13.3014 O   0  0  0  0  0  0  0  0  0  0  0  0
   11.6424   -7.5674  -11.1275 H   0  0  0  0  0  0  0  0  0  0  0  0
    7.7144   -8.1897  -15.5430 C   0  0  0  0  0  0  0  0  0  0  0  0
    6.7748   -7.4870  -15.9643 O   0  0  0  0  0  0  0  0  0  0  0  0
    8.0228   -9.3102  -16.0274 O   0  0  0  0  0  0  0  0  0  0  0  0
    8.7405   -9.7941  -15.6687 H   0  0  0  0  0  0  0  0  0  0  0  0
   10.6802  -10.0557  -12.5228 C   0  0  0  0  0  0  0  0  0  0  0  0
   11.0609  -10.1219  -11.1577 O   0  0  0  0  0  0  0  0  0  0  0  0
   11.7242   -9.4386  -10.9735 H   0  0  0  0  0  0  0  0  0  0  0  0
   11.9071  -10.3028  -13.3965 C   0  0  0  0  0  0  0  0  0  0  0  0
   11.5140  -10.3945  -14.7514 O   0  0  0  0  0  0  0  0  0  0  0  0
   10.9111  -11.1461  -14.8630 H   0  0  0  0  0  0  0  0  0  0  0  0
   12.6793  -11.5371  -12.9655 C   0  0  0  0  0  0  0  0  0  0  0  0
   13.6248  -11.2955  -11.9070 O   0  0  0  0  0  0  0  0  0  0  0  0
   14.2959  -10.6645  -12.2107 H   0  0  0  0  0  0  0  0  0  0  0  0
 16  1  1  0  0  0
 16 17  2  0  0  0
 16 18  1  0  0  0
  1  2  1  0  0  0
  1  6  1  0  0  0
  1  8  1  0  0  0
  2  3  1  0  0  0
  3  4  1  0  0  0
  3  7  1  0  0  0
  4  5  1  0  0  0
  4 13  1  0  0  0
  5 20  1  0  0  0
  5  8  1  0  0  0
 20 23  1  0  0  0
 20 21  1  0  0  0
 23 26  1  0  0  0
 23 24  1  0  0  0
 26 27  1  0  0  0
 11 12  1  0  0  0
 11 13  1  0  0  0
 11 14  2  0  0  0
 13 15  1  0  0  0
 18 19  1  0  0  0
  6  9  1  0  0  0
  7 10  1  0  0  0
 21 22  1  0  0  0
 24 25  1  0  0  0
 27 28  1  0  0  0
M  END
> <minimizedAffinity>
-7.76286

$$$$
3B50_SLB_A_311


 28 28  0  0  0  0  0  0  0  0999 V2000
   12.5062   -9.2117  -13.6675 C   0  0  0  0  0  0  0  0  0  0  0  0
   13.4056   -9.0222  -12.4519 C   0  0  0  0  0  0  0  0  0  0  0  0
   13.7274   -7.5434  -12.2627 C   0  0  0  0  0  0  0  0  0  0  0  0
   12.3837   -6.8088  -12.1366 C   0  0  0  0  0  0  0  0  0  0  0  0
   11.5686   -7.0240  -13.4201 C   0  0  0  0  0  0  0  0  0  0  0  0
   13.1586   -8.8170  -14.8630 O   0  0  0  0  0  0  0  0  0  0  0  0
   14.5588   -7.4239  -11.1008 O   0  0  0  0  0  0  0  0  0  0  0  0
   11.3546   -8.4163  -13.5618 O   0  0  0  0  0  0  0  0  0  0  0  0
   13.9655   -9.3425  -14.9797 H   0  0  0  0  0  0  0  0  0  0  0  0
   14.1026   -7.8084  -10.3359 H   0  0  0  0  0  0  0  0  0  0  0  0
   13.4259   -4.6801  -12.8152 C   0  0  0  0  0  0  0  0  0  0  0  0
   13.6020   -3.2155  -12.4855 C   0  0  0  0  0  0  0  0  0  0  0  0
   12.6384   -5.3758  -11.9625 N   0  0  0  0  0  0  0  0  0  0  0  0
   13.9485   -5.1918  -13.8257 O   0  0  0  0  0  0  0  0  0  0  0  0
   12.2244   -4.9057  -11.2030 H   0  0  0  0  0  0  0  0  0  0  0  0
   11.9714  -10.6058  -13.8011 C   0  0  0  0  0  0  0  0  0  0  0  0
   10.9066  -10.9035  -13.2251 O   0  0  0  0  0  0  0  0  0  0  0  0
   12.6609  -11.4238  -14.4648 O   0  0  0  0  0  0  0  0  0  0  0  0
   13.4540  -11.1422  -14.8767 H   0  0  0  0  0  0  0  0  0  0  0  0
   10.1936   -6.3560  -13.3788 C   0  0  0  0  0  0  0  0  0  0  0  0
    9.6092   -6.5312  -12.0981 O   0  0  0  0  0  0  0  0  0  0  0  0
    9.4924   -7.4781  -11.9228 H   0  0  0  0  0  0  0  0  0  0  0  0
    9.2667   -6.9487  -14.4367 C   0  0  0  0  0  0  0  0  0  0  0  0
    8.7384   -5.9117  -15.2393 O   0  0  0  0  0  0  0  0  0  0  0  0
    8.2156   -5.3097  -14.6870 H   0  0  0  0  0  0  0  0  0  0  0  0
    8.1580   -7.7860  -13.8241 C   0  0  0  0  0  0  0  0  0  0  0  0
    8.5169   -9.1634  -13.6077 O   0  0  0  0  0  0  0  0  0  0  0  0
    8.7165   -9.5831  -14.4591 H   0  0  0  0  0  0  0  0  0  0  0  0
 16  1  1  0  0  0
 16 17  2  0  0  0
 16 18  1  0  0  0
  1  2  1  0  0  0
  1  6  1  0  0  0
  1  8  1  0  0  0
  2  3  1  0  0  0
  3  4  1  0  0  0
  3  7  1  0  0  0
  4  5  1  0  0  0
  4 13  1  0  0  0
  5 20  1  0  0  0
  5  8  1  0  0  0
 20 23  1  0  0  0
 20 21  1  0  0  0
 23 26  1  0  0  0
 23 24  1  0  0  0
 26 27  1  0  0  0
 11 12  1  0  0  0
 11 13  1  0  0  0
 11 14  2  0  0  0
 13 15  1  0  0  0
 18 19  1  0  0  0
  6  9  1  0  0  0
  7 10  1  0  0  0
 21 22  1  0  0  0
 24 25  1  0  0  0
 27 28  1  0  0  0
M  END
> <minimizedAffinity>
-7.75934

$$$$
