5L9L_GOP_A_401
  RCSB PDB12061718453D
Coordinates from PDB:5L9L:A:401 Model:1 without hydrogens
 21 20  0  0  0  0            999 V2000
   77.1940   28.6990   -4.9970   O 0  0  0  0  0  0  0  0  0  0  0  0
   78.0280   29.3410   -4.1460   C 0  0  0  0  0  0  0  0  0  0  0  0
   79.1670   28.3750   -3.9400   C 0  0  0  0  0  0  0  0  0  0  0  0
   80.2790   28.8220   -4.5800   O 0  0  0  0  0  0  0  0  0  0  0  0
   79.2770   28.1350   -2.4460   C 0  0  0  0  0  0  0  0  0  0  0  0
   78.1510   27.6270   -1.8890   O 0  0  0  0  0  0  0  0  0  0  0  0
   80.5130   27.5250   -1.8730   C 0  0  0  0  0  0  0  0  0  0  0  0
   81.5550   28.1490   -2.3990   O 0  0  0  0  0  0  0  0  0  0  0  0
   80.5590   26.0350   -2.0520   C 0  0  0  0  0  0  0  0  0  0  0  0
   80.6580   25.6860   -3.3200   O 0  0  0  0  0  0  0  0  0  0  0  0
   81.5500   25.2270   -1.1990   C 0  0  0  0  0  0  0  0  0  0  0  0
   82.9430   25.6210   -1.2760   N 0  0  0  0  0  0  0  0  0  0  0  0
   83.6880   25.3280   -0.0640   C 0  0  0  0  0  0  0  0  0  0  0  0
   84.0230   26.5460    0.7320   C 0  0  0  0  0  0  0  0  0  0  0  0
   83.7130   27.6320    0.2840   O 0  0  0  0  0  0  0  0  0  0  0  0
   84.9900   24.5950   -0.3880   C 0  0  0  0  0  0  0  0  0  0  0  0
   86.0770   25.4010   -0.9990   C 0  0  0  0  0  0  0  0  0  0  0  0
   87.0460   24.4490   -1.6090   C 0  0  0  0  0  0  0  0  0  0  0  0
   88.0190   24.1170   -1.0600   O 0  0  0  0  0  0  0  0  0  0  0  0
   86.7370   23.9280   -2.9050   N 0  0  0  0  0  0  0  0  0  0  0  0
   84.6080   26.4620    1.8070   O 0  0  0  0  0  0  0  0  0  0  0  0
 15 14  2  0  0  0  0
 16 13  1  0  0  0  0
 16 17  1  0  0  0  0
 13 14  1  0  0  0  0
 13 12  1  0  0  0  0
 14 21  1  0  0  0  0
 20 18  1  0  0  0  0
 11 12  1  0  0  0  0
 11  9  1  0  0  0  0
 17 18  1  0  0  0  0
 18 19  2  0  0  0  0
  8  7  1  0  0  0  0
  7  9  1  0  0  0  0
  7  5  1  0  0  0  0
  9 10  1  0  0  0  0
  6  5  1  0  0  0  0
  5  3  1  0  0  0  0
  4  3  1  0  0  0  0
  3  2  1  0  0  0  0
  2  1  1  0  0  0  0
A    1
OAN
A    2
CAM
A    3
CAL
A    4
OAT
A    5
CAK
A    6
OAS
A    7
CAJ
A    8
OAR
A    9
CAI
A   10
OAQ
A   11
CAH
A   12
N
A   13
CA
A   14
C
A   15
O
A   16
CB
A   17
CG
A   18
CD
A   19
OE1
A   20
NE2
A   21
OXT
M  END
>  <InstanceId>
5L9L_GOP_A_401

>  <ChemCompId>
GOP

>  <PdbId>
5L9L

>  <ChainId>
A

>  <ResidueNumber>
401

>  <InsertionCode>


>  <Model>
1

>  <AltIds>


>  <MissingHeavyAtoms>
0

>  <ObservedFormula>
C11 N2 O8

>  <Name>
Glucopine

>  <SystematicName>
(2~{S})-5-azanyl-5-oxidanylidene-2-[[(2~{S},3~{R},4~{R},5~{R})-2,3,4,5,6-pentakis(oxidanyl)hexyl]amino]pentanoic acid

>  <Synonyms>


>  <Type>
NON-POLYMER

>  <Formula>
C11 H22 N2 O8

>  <MolecularWeight>
310.301

>  <ModifiedDate>
2016-09-16

>  <Parent>


>  <OneLetterCode>


>  <SubcomponentList>


>  <AmbiguousFlag>
N

>  <InChI>
InChI=1S/C11H22N2O8/c12-8(17)2-1-5(11(20)21)13-3-6(15)9(18)10(19)7(16)4-14/h5-7,9-10,13-16,18-19H,1-4H2,(H2,12,17)(H,20,21)/t5-,6-,7+,9+,10+/m0/s1

>  <InChIKey>
VPRLICVDSGMIKO-ZSAGQLGGSA-N

>  <SMILES>
C(CC(=O)N)[C@@H](C(=O)O)NC[C@@H]([C@H]([C@@H]([C@@H](CO)O)O)O)O

$$$$
