2QTN_NCN_B_191
  RCSB PDB12061706513D
Coordinates from PDB:2QTN:B:191 Model:1 without hydrogens
 22 23  0  0  0  0            999 V2000
   16.9100  -29.6430   20.3250   P 0  0  0  0  0  0  0  0  0  0  0  0
   16.5250  -31.0700   20.6200   O 0  0  0  0  0  0  0  0  0  0  0  0
   15.8220  -28.6510   20.9580   O 0  0  0  0  0  0  0  0  0  0  0  0
   18.3560  -29.2880   20.9450   O 0  5  0  0  0  0  0  0  0  0  0  0
   16.9390  -29.4400   18.7320   O 0  0  0  0  0  0  0  0  0  0  0  0
   17.3420  -28.2310   18.0920   C 0  0  0  0  0  0  0  0  0  0  0  0
   16.1550  -27.2480   18.0250   C 0  0  0  0  0  0  0  0  0  0  0  0
   14.9120  -27.9240   18.1010   O 0  0  0  0  0  0  0  0  0  0  0  0
   16.0840  -26.2500   19.2120   C 0  0  0  0  0  0  0  0  0  0  0  0
   16.9020  -25.1040   18.9870   O 0  0  0  0  0  0  0  0  0  0  0  0
   14.6180  -25.8180   19.1780   C 0  0  0  0  0  0  0  0  0  0  0  0
   14.4670  -24.5920   18.4240   O 0  0  0  0  0  0  0  0  0  0  0  0
   13.8980  -26.9610   18.4140   C 0  0  0  0  0  0  0  0  0  0  0  0
   12.7920  -27.5200   19.2130   N 0  3  0  0  0  0  0  0  0  0  0  0
   12.8600  -28.8000   19.7410   C 0  0  0  0  0  0  0  0  0  0  0  0
   11.7790  -29.3170   20.4910   C 0  0  0  0  0  0  0  0  0  0  0  0
   10.6280  -28.5080   20.6890   C 0  0  0  0  0  0  0  0  0  0  0  0
   10.5760  -27.1930   20.1400   C 0  0  0  0  0  0  0  0  0  0  0  0
   11.6830  -26.7370   19.4070   C 0  0  0  0  0  0  0  0  0  0  0  0
    9.3650  -26.2980   20.3260   C 0  0  0  0  0  0  0  0  0  0  0  0
    8.3140  -26.7370   21.0100   O 0  0  0  0  0  0  0  0  0  0  0  0
    9.3610  -25.1900   19.8370   O 0  0  0  0  0  0  0  0  0  0  0  0
  1  2  1  0  0  0  0
  1  3  2  0  0  0  0
  1  4  1  0  0  0  0
  1  5  1  0  0  0  0
  5  6  1  0  0  0  0
  6  7  1  0  0  0  0
  7  8  1  0  0  0  0
  7  9  1  0  0  0  0
  8 13  1  0  0  0  0
  9 10  1  0  0  0  0
  9 11  1  0  0  0  0
 11 12  1  0  0  0  0
 11 13  1  0  0  0  0
 13 14  1  0  0  0  0
 14 15  1  0  0  0  0
 14 19  2  0  0  0  0
 15 16  2  0  0  0  0
 16 17  1  0  0  0  0
 17 18  2  0  0  0  0
 18 19  1  0  0  0  0
 18 20  1  0  0  0  0
 20 21  1  0  0  0  0
 20 22  2  0  0  0  0
M  CHG  2   4  -1  14   1
A    1
P
A    2
O1P
A    3
O2P
A    4
O3P
A    5
O5'
A    6
C5'
A    7
C4'
A    8
O4'
A    9
C3'
A   10
O3'
A   11
C2'
A   12
O2'
A   13
C1'
A   14
N1
A   15
C6
A   16
C5
A   17
C4
A   18
C3
A   19
C2
A   20
C7
A   21
O7
A   22
O8
M  END
>  <InstanceId>
2QTN_NCN_B_191

>  <ChemCompId>
NCN

>  <PdbId>
2QTN

>  <ChainId>
B

>  <ResidueNumber>
191

>  <InsertionCode>


>  <Model>
1

>  <AltIds>


>  <MissingHeavyAtoms>
0

>  <ObservedFormula>
C11 N O9 P

>  <Name>
NICOTINATE MONONUCLEOTIDE

>  <SystematicName>
[(2R,3S,4R,5R)-5-(3-carboxypyridin-1-ium-1-yl)-3,4-dihydroxy-oxolan-2-yl]methyl hydrogen phosphate

>  <Synonyms>
NAMN

>  <Type>
NON-POLYMER

>  <Formula>
C11 H14 N O9 P

>  <MolecularWeight>
335.204

>  <ModifiedDate>
2011-06-04

>  <Parent>


>  <OneLetterCode>


>  <SubcomponentList>


>  <AmbiguousFlag>
N

>  <InChI>
InChI=1S/C11H14NO9P/c13-8-7(5-20-22(17,18)19)21-10(9(8)14)12-3-1-2-6(4-12)11(15)16/h1-4,7-10,13-14H,5H2,(H2-,15,16,17,18,19)/t7-,8-,9-,10-/m1/s1

>  <InChIKey>
JOUIQRNQJGXQDC-ZYUZMQFOSA-N

>  <SMILES>
c1cc(c[n+](c1)[C@H]2[C@@H]([C@@H]([C@H](O2)CO[P@@](=O)(O)[O-])O)O)C(=O)O

$$$$
