6EVR_BZW_A_302
  RCSB PDB06021801383D
Coordinates from PDB:6EVR:A:302 Model:1 without hydrogens
 28 30  0  0  0  0            999 V2000
    9.6070   35.3660   10.8690   C 0  0  0  0  0  0  0  0  0  0  0  0
   12.9760   32.5630   15.8450   O 0  0  0  0  0  0  0  0  0  0  0  0
   10.2120   35.5880   14.6490   C 0  0  0  0  0  0  0  0  0  0  0  0
    7.9850   34.4000   14.8210   C 0  0  0  0  0  0  0  0  0  0  0  0
    7.0970   35.4500   14.5930   C 0  0  0  0  0  0  0  0  0  0  0  0
    5.9460   35.2470   13.8370   C 0  0  0  0  0  0  0  0  0  0  0  0
    5.6320   33.9740   13.3810   C 0  0  0  0  0  0  0  0  0  0  0  0
    6.4690   32.9140   13.6720   C 0  0  0  0  0  0  0  0  0  0  0  0
    7.6550   33.1340   14.3770   C 0  0  0  0  0  0  0  0  0  0  0  0
   12.7330   33.7360   16.0280   C 0  0  0  0  0  0  0  0  0  0  0  0
   13.3300   34.4360   19.7240   C 0  0  0  0  0  0  0  0  0  0  0  0
   14.0380   35.6390   19.6300   C 0  0  0  0  0  0  0  0  0  0  0  0
   14.4120   36.1420   18.4030   C 0  0  0  0  0  0  0  0  0  0  0  0
   14.0120   35.4750   17.2460   C 0  0  0  0  0  0  0  0  0  0  0  0
   12.3220   34.0190   13.6440   C 0  0  0  0  0  0  0  0  0  0  0  0
   10.9190   33.9140   13.0800   C 0  0  0  0  0  0  0  0  0  0  0  0
   10.2340   35.2110   13.2150   N 0  0  0  0  0  0  0  0  0  0  0  0
   13.1640   34.3710   17.3230   C 0  0  0  0  0  0  0  0  0  0  0  0
   12.8280   33.8560   18.5720   C 0  0  0  0  0  0  0  0  0  0  0  0
    9.6200   35.9290   12.2620   C 0  0  0  0  0  0  0  0  0  0  0  0
    9.0010   36.9290   12.5560   O 0  0  0  0  0  0  0  0  0  0  0  0
   12.2710   34.5240   15.0350   N 0  0  0  0  0  0  0  0  0  0  0  0
   11.6240   35.8280   15.1490   C 0  0  0  0  0  0  0  0  0  0  0  0
    9.3110   34.6570   15.4890   C 0  0  0  0  0  0  0  0  0  0  0  0
   14.5980   36.3910   21.1330   S 0  0  0  0  0  0  0  0  0  0  0  0
   14.8120   35.2980   22.0300   O 0  0  0  0  0  0  0  0  0  0  0  0
   13.6350   37.4430   21.4730   O 0  0  0  0  0  0  0  0  0  0  0  0
   16.0040   37.1290   20.8260   N 0  0  0  0  0  0  0  0  0  0  0  0
  1 20  1  0  0  0  0
 20 21  2  0  0  0  0
 20 17  1  0  0  0  0
 16 17  1  0  0  0  0
 16 15  1  0  0  0  0
 17  3  1  0  0  0  0
  7  8  2  0  0  0  0
  7  6  1  0  0  0  0
 15 22  1  0  0  0  0
  8  9  1  0  0  0  0
  6  5  2  0  0  0  0
  9  4  2  0  0  0  0
  5  4  1  0  0  0  0
  3 23  1  0  0  0  0
  3 24  1  0  0  0  0
  4 24  1  0  0  0  0
 22 23  1  0  0  0  0
 22 10  1  0  0  0  0
  2 10  2  0  0  0  0
 10 18  1  0  0  0  0
 14 18  2  0  0  0  0
 14 13  1  0  0  0  0
 18 19  1  0  0  0  0
 13 12  2  0  0  0  0
 19 11  2  0  0  0  0
 12 11  1  0  0  0  0
 12 25  1  0  0  0  0
 28 25  1  0  0  0  0
 25 27  2  0  0  0  0
 25 26  2  0  0  0  0
A    1
C2
A    2
O23
A    3
C8
A    4
C10
A    5
C11
A    6
C12
A    7
C13
A    8
C14
A    9
C15
A   10
C16
A   11
C19
A   12
C20
A   13
C21
A   14
C22
A   15
C5
A   16
C4
A   17
N3
A   18
C17
A   19
C18
A   20
C1
A   21
O1
A   22
N6
A   23
C7
A   24
C9
A   25
S24
A   26
O25
A   27
O26
A   28
N27
M  END
>  <InstanceId>
6EVR_BZW_A_302

>  <ChemCompId>
BZW

>  <PdbId>
6EVR

>  <ChainId>
A

>  <ResidueNumber>
302

>  <InsertionCode>


>  <Model>
1

>  <AltIds>


>  <MissingHeavyAtoms>
0

>  <ObservedFormula>
C20 N3 O4 S

>  <Name>
4-[(3~{S})-4-ethanoyl-3-(phenylmethyl)piperazin-1-yl]carbonylbenzenesulfonamide

>  <SystematicName>
4-[(3~{S})-4-ethanoyl-3-(phenylmethyl)piperazin-1-yl]carbonylbenzenesulfonamide

>  <Synonyms>


>  <Type>
NON-POLYMER

>  <Formula>
C20 H23 N3 O4 S

>  <MolecularWeight>
401.479

>  <ModifiedDate>
2018-06-01

>  <Parent>


>  <OneLetterCode>


>  <SubcomponentList>


>  <AmbiguousFlag>
N

>  <InChI>
InChI=1S/C20H23N3O4S/c1-15(24)23-12-11-22(14-18(23)13-16-5-3-2-4-6-16)20(25)17-7-9-19(10-8-17)28(21,26)27/h2-10,18H,11-14H2,1H3,(H2,21,26,27)/t18-/m0/s1

>  <InChIKey>
YHSOVHWCSACWJK-SFHVURJKSA-N

>  <SMILES>
CC(=O)N1CCN(C[C@@H]1Cc2ccccc2)C(=O)c3ccc(cc3)S(=O)(=O)N

$$$$
