3QXT_MTX_A_2000
  RCSB PDB12061710293D
Coordinates from PDB:3QXT:A:2000 Model:1 without hydrogens
 33 35  0  0  0  0            999 V2000
   31.2490  -41.0080   -5.6500   N 0  0  0  0  0  0  0  0  0  0  0  0
   29.9400  -41.0300   -6.0210   C 0  0  0  0  0  0  0  0  0  0  0  0
   29.0880  -41.0690   -5.0580   N 0  0  0  0  0  0  0  0  0  0  0  0
   29.5870  -41.0850   -7.3480   N 0  0  0  0  0  0  0  0  0  0  0  0
   30.5480  -41.0390   -8.2760   C 0  0  0  0  0  0  0  0  0  0  0  0
   30.1470  -41.0230   -9.6140   N 0  0  0  0  0  0  0  0  0  0  0  0
   31.8930  -41.0710   -7.9590   C 0  0  0  0  0  0  0  0  0  0  0  0
   32.8760  -41.1230   -8.9680   N 0  0  0  0  0  0  0  0  0  0  0  0
   34.1960  -41.2030   -8.5680   C 0  0  0  0  0  0  0  0  0  0  0  0
   34.5030  -41.1460   -7.1800   C 0  0  0  0  0  0  0  0  0  0  0  0
   33.5360  -41.0230   -6.1650   N 0  0  0  0  0  0  0  0  0  0  0  0
   32.2290  -41.0310   -6.6080   C 0  0  0  0  0  0  0  0  0  0  0  0
   35.1910  -41.3710   -9.6690   C 0  0  0  0  0  0  0  0  0  0  0  0
   36.4790  -40.9060   -9.3520   N 0  0  0  0  0  0  0  0  0  0  0  0
   36.5650  -39.4700   -9.2840   C 0  0  0  0  0  0  0  0  0  0  0  0
   39.9150  -43.2690   -8.9880   C 0  0  0  0  0  0  0  0  0  0  0  0
   38.6770  -43.8960   -9.1290   C 0  0  0  0  0  0  0  0  0  0  0  0
   37.4870  -43.0790   -9.2530   C 0  0  0  0  0  0  0  0  0  0  0  0
   37.6680  -41.7150   -9.2070   C 0  0  0  0  0  0  0  0  0  0  0  0
   38.8870  -41.0740   -9.1590   C 0  0  0  0  0  0  0  0  0  0  0  0
   40.0700  -41.8740   -9.0010   C 0  0  0  0  0  0  0  0  0  0  0  0
   41.1870  -44.1140   -8.8370   C 0  0  0  0  0  0  0  0  0  0  0  0
   42.3360  -43.4150   -9.0860   O 0  0  0  0  0  0  0  0  0  0  0  0
   41.1010  -45.3490   -8.4100   N 0  0  0  0  0  0  0  0  0  0  0  0
   42.2510  -46.2710   -8.3730   C 0  0  0  0  0  0  0  0  0  0  0  0
   41.8480  -47.5650   -8.9870   C 0  0  0  0  0  0  0  0  0  0  0  0
   42.7520  -48.3190   -9.3680   O 0  0  0  0  0  0  0  0  0  0  0  0
   40.6430  -47.9000   -9.1860   O 0  0  0  0  0  0  0  0  0  0  0  0
   42.7700  -46.6010   -6.9710   C 0  0  0  0  0  0  0  0  0  0  0  0
   43.2080  -45.3770   -6.2520   C 0  0  0  0  0  0  0  0  0  0  0  0
   41.9370  -44.8760   -5.5320   C 0  0  0  0  0  0  0  0  0  0  0  0
   41.1480  -45.6700   -4.8640   O 0  0  0  0  0  0  0  0  0  0  0  0
   41.7090  -43.6450   -5.6120   O 0  0  0  0  0  0  0  0  0  0  0  0
  1  2  2  0  0  0  0
  1 12  1  0  0  0  0
  2  3  1  0  0  0  0
  2  4  1  0  0  0  0
  4  5  2  0  0  0  0
  5  6  1  0  0  0  0
  5  7  1  0  0  0  0
  7  8  1  0  0  0  0
  7 12  2  0  0  0  0
  8  9  2  0  0  0  0
  9 10  1  0  0  0  0
  9 13  1  0  0  0  0
 10 11  2  0  0  0  0
 11 12  1  0  0  0  0
 13 14  1  0  0  0  0
 14 15  1  0  0  0  0
 14 19  1  0  0  0  0
 16 17  2  0  0  0  0
 16 21  1  0  0  0  0
 16 22  1  0  0  0  0
 17 18  1  0  0  0  0
 18 19  2  0  0  0  0
 19 20  1  0  0  0  0
 20 21  2  0  0  0  0
 22 23  2  0  0  0  0
 22 24  1  0  0  0  0
 24 25  1  0  0  0  0
 25 26  1  0  0  0  0
 25 29  1  0  0  0  0
 26 27  2  0  0  0  0
 26 28  1  0  0  0  0
 29 30  1  0  0  0  0
 30 31  1  0  0  0  0
 31 32  2  0  0  0  0
 31 33  1  0  0  0  0
A    1
N1
A    2
C2
A    3
NA2
A    4
N3
A    5
C4
A    6
NA4
A    7
C4A
A    8
N5
A    9
C6
A   10
C7
A   11
N8
A   12
C8A
A   13
C9
A   14
N10
A   15
CM
A   16
C11
A   17
C12
A   18
C13
A   19
C14
A   20
C15
A   21
C16
A   22
C
A   23
O
A   24
N
A   25
CA
A   26
CT
A   27
O1
A   28
O2
A   29
CB
A   30
CG
A   31
CD
A   32
OE1
A   33
OE2
M  END
>  <InstanceId>
3QXT_MTX_A_2000

>  <ChemCompId>
MTX

>  <PdbId>
3QXT

>  <ChainId>
A

>  <ResidueNumber>
2000

>  <InsertionCode>


>  <Model>
1

>  <AltIds>


>  <MissingHeavyAtoms>
0

>  <ObservedFormula>
C20 N8 O5

>  <Name>
METHOTREXATE

>  <SystematicName>
(2S)-2-[[4-[(2,4-diaminopteridin-6-yl)methyl-methyl-amino]phenyl]carbonylamino]pentanedioic acid

>  <Synonyms>


>  <Type>
NON-POLYMER

>  <Formula>
C20 H22 N8 O5

>  <MolecularWeight>
454.439

>  <ModifiedDate>
2011-06-04

>  <Parent>


>  <OneLetterCode>


>  <SubcomponentList>


>  <AmbiguousFlag>
N

>  <InChI>
InChI=1S/C20H22N8O5/c1-28(9-11-8-23-17-15(24-11)16(21)26-20(22)27-17)12-4-2-10(3-5-12)18(31)25-13(19(32)33)6-7-14(29)30/h2-5,8,13H,6-7,9H2,1H3,(H,25,31)(H,29,30)(H,32,33)(H4,21,22,23,26,27)/t13-/m0/s1

>  <InChIKey>
FBOZXECLQNJBKD-ZDUSSCGKSA-N

>  <SMILES>
CN(Cc1cnc2c(n1)c(nc(n2)N)N)c3ccc(cc3)C(=O)N[C@@H](CCC(=O)O)C(=O)O

$$$$
