3U8J_09O_B_211


 14 15  0  0  0  0  0  0  0  0999 V2000
    3.8476   18.4171   38.2649 C   0  0  0  0  0  0  0  0  0  0  0  0
    4.6433   18.9968   37.0736 C   0  0  0  0  0  0  0  0  0  0  0  0
    5.5484   17.9860   36.4719 N   0  0  0  0  0  0  0  0  0  0  0  0
    6.9178   17.9347   37.0547 C   0  0  0  0  0  0  0  0  0  0  0  0
    7.0196   17.3403   38.4828 C   0  0  0  0  0  0  0  0  0  0  0  0
    5.9329   17.8087   39.4713 C   0  0  0  0  0  0  0  0  0  0  0  0
    4.5880   17.3922   39.0203 N   0  0  0  0  0  0  0  0  0  0  0  0
    5.1201   17.0680   36.5913 H   0  0  0  0  0  0  0  0  0  0  0  0
    2.5692   13.9041   40.0548 C   0  0  0  0  0  0  0  0  0  0  0  0
    1.8657   14.9360   39.5437 N   0  0  0  0  0  0  0  0  0  0  0  0
    2.5647   16.0491   39.2152 C   0  0  0  0  0  0  0  0  0  0  0  0
    3.9785   16.2179   39.3586 C   0  0  0  0  0  0  0  0  0  0  0  0
    4.6825   15.1153   39.8940 C   0  0  0  0  0  0  0  0  0  0  0  0
    3.9632   13.9525   40.2449 C   0  0  0  0  0  0  0  0  0  0  0  0
  4  5  1  0  0  0
  4  3  1  0  0  0
  5  6  1  0  0  0
  3  2  1  0  0  0
  6  7  1  0  0  0
  2  1  1  0  0  0
  7  1  1  0  0  0
  7 12  1  0  0  0
 13 12  2  0  0  0
 13 14  1  0  0  0
 12 11  1  0  0  0
 14  9  2  0  0  0
 11 10  2  0  0  0
  9 10  1  0  0  0
  3  8  1  0  0  0
M  END
> <minimizedAffinity>
-7.02802

$$$$
3U8J_09O_B_211


 14 15  0  0  0  0  0  0  0  0999 V2000
    5.3591   14.8217   40.6669 C   0  0  0  0  0  0  0  0  0  0  0  0
    4.8209   13.3734   40.7015 C   0  0  0  0  0  0  0  0  0  0  0  0
    3.8801   13.1088   39.5844 N   0  0  0  0  0  0  0  0  0  0  0  0
    2.4489   13.3953   39.8798 C   0  0  0  0  0  0  0  0  0  0  0  0
    2.0718   14.8948   39.9910 C   0  0  0  0  0  0  0  0  0  0  0  0
    3.0645   15.7675   40.7851 C   0  0  0  0  0  0  0  0  0  0  0  0
    4.3905   15.7937   40.1320 N   0  0  0  0  0  0  0  0  0  0  0  0
    4.1606   13.6866   38.7920 H   0  0  0  0  0  0  0  0  0  0  0  0
    5.7645   18.5560   37.3401 C   0  0  0  0  0  0  0  0  0  0  0  0
    6.6416   17.6826   37.8775 N   0  0  0  0  0  0  0  0  0  0  0  0
    6.1492   16.7974   38.7771 C   0  0  0  0  0  0  0  0  0  0  0  0
    4.7841   16.7084   39.1974 C   0  0  0  0  0  0  0  0  0  0  0  0
    3.8940   17.6368   38.6111 C   0  0  0  0  0  0  0  0  0  0  0  0
    4.3976   18.5673   37.6767 C   0  0  0  0  0  0  0  0  0  0  0  0
  4  5  1  0  0  0
  4  3  1  0  0  0
  5  6  1  0  0  0
  3  2  1  0  0  0
  6  7  1  0  0  0
  2  1  1  0  0  0
  7  1  1  0  0  0
  7 12  1  0  0  0
 13 12  2  0  0  0
 13 14  1  0  0  0
 12 11  1  0  0  0
 14  9  2  0  0  0
 11 10  2  0  0  0
  9 10  1  0  0  0
  3  8  1  0  0  0
M  END
> <minimizedAffinity>
-5.14876

$$$$
3U8J_09O_B_211


 14 15  0  0  0  0  0  0  0  0999 V2000
    3.9262   17.9100   38.9454 C   0  0  0  0  0  0  0  0  0  0  0  0
    4.1963   18.7400   37.6701 C   0  0  0  0  0  0  0  0  0  0  0  0
    5.0593   18.0083   36.7094 N   0  0  0  0  0  0  0  0  0  0  0  0
    6.5224   18.2292   36.8764 C   0  0  0  0  0  0  0  0  0  0  0  0
    7.1639   17.5728   38.1257 C   0  0  0  0  0  0  0  0  0  0  0  0
    6.3546   17.7087   39.4312 C   0  0  0  0  0  0  0  0  0  0  0  0
    5.0462   17.0297   39.3193 N   0  0  0  0  0  0  0  0  0  0  0  0
    4.8764   17.0106   36.8174 H   0  0  0  0  0  0  0  0  0  0  0  0
    4.1530   13.0800   40.2757 C   0  0  0  0  0  0  0  0  0  0  0  0
    3.3314   13.7490   39.4401 N   0  0  0  0  0  0  0  0  0  0  0  0
    3.6643   15.0301   39.1515 C   0  0  0  0  0  0  0  0  0  0  0  0
    4.8106   15.7261   39.6512 C   0  0  0  0  0  0  0  0  0  0  0  0
    5.6497   14.9928   40.5208 C   0  0  0  0  0  0  0  0  0  0  0  0
    5.3090   13.6589   40.8327 C   0  0  0  0  0  0  0  0  0  0  0  0
  4  5  1  0  0  0
  4  3  1  0  0  0
  5  6  1  0  0  0
  3  2  1  0  0  0
  6  7  1  0  0  0
  2  1  1  0  0  0
  7  1  1  0  0  0
  7 12  1  0  0  0
 13 12  2  0  0  0
 13 14  1  0  0  0
 12 11  1  0  0  0
 14  9  2  0  0  0
 11 10  2  0  0  0
  9 10  1  0  0  0
  3  8  1  0  0  0
M  END
> <minimizedAffinity>
-4.62777

$$$$
