1QBS_DMP_A_323
  RCSB PDB12061703453D
Coordinates from PDB:1QBS:A:323 Model:1 without hydrogens
 42 46  0  0  0  0            999 V2000
   -8.8240   15.2890   27.7960   C 0  0  0  0  0  0  0  0  0  0  0  0
   -8.7650   17.6120   26.8940   C 0  0  0  0  0  0  0  0  0  0  0  0
  -10.1510   18.1420   27.1200   C 0  0  0  0  0  0  0  0  0  0  0  0
  -10.6110   17.8660   28.5290   C 0  0  0  0  0  0  0  0  0  0  0  0
  -10.8730   16.3920   28.7780   C 0  0  0  0  0  0  0  0  0  0  0  0
   -7.8950   15.6060   25.6580   C 0  0  0  0  0  0  0  0  0  0  0  0
   -8.3940   16.0040   24.3140   C 0  0  0  0  0  0  0  0  0  0  0  0
   -9.7620   16.0350   23.9810   C 0  0  0  0  0  0  0  0  0  0  0  0
  -10.1750   16.3420   22.6670   C 0  0  0  0  0  0  0  0  0  0  0  0
   -9.1890   16.6000   21.7020   C 0  0  0  0  0  0  0  0  0  0  0  0
   -7.8260   16.5690   22.0380   C 0  0  0  0  0  0  0  0  0  0  0  0
   -7.4240   16.2810   23.3540   C 0  0  0  0  0  0  0  0  0  0  0  0
   -9.5830   16.8780   20.2990   C 0  0  0  0  0  0  0  0  0  0  0  0
   -7.6750   18.1900   27.7820   C 0  0  0  0  0  0  0  0  0  0  0  0
   -6.3090   18.0780   27.1330   C 0  0  0  0  0  0  0  0  0  0  0  0
   -5.3710   17.1390   27.6170   C 0  0  0  0  0  0  0  0  0  0  0  0
   -4.1150   17.0170   27.0020   C 0  0  0  0  0  0  0  0  0  0  0  0
   -3.7920   17.8380   25.9060   C 0  0  0  0  0  0  0  0  0  0  0  0
   -4.7220   18.7820   25.4150   C 0  0  0  0  0  0  0  0  0  0  0  0
   -5.9870   18.8970   26.0350   C 0  0  0  0  0  0  0  0  0  0  0  0
  -11.9890   15.7360   27.9350   C 0  0  0  0  0  0  0  0  0  0  0  0
  -12.5340   14.4820   28.5860   C 0  0  0  0  0  0  0  0  0  0  0  0
  -13.2610   14.5870   29.8040   C 0  0  0  0  0  0  0  0  0  0  0  0
  -13.6010   13.4140   30.5130   C 0  0  0  0  0  0  0  0  0  0  0  0
  -13.2390   12.1520   29.9960   C 0  0  0  0  0  0  0  0  0  0  0  0
  -12.5480   12.0500   28.7750   C 0  0  0  0  0  0  0  0  0  0  0  0
  -12.1950   13.2160   28.0670   C 0  0  0  0  0  0  0  0  0  0  0  0
   -9.5160   14.6730   30.0030   C 0  0  0  0  0  0  0  0  0  0  0  0
   -9.6180   15.2850   31.3760   C 0  0  0  0  0  0  0  0  0  0  0  0
  -10.2970   14.5400   32.3750   C 0  0  0  0  0  0  0  0  0  0  0  0
  -10.3520   15.0360   33.6820   C 0  0  0  0  0  0  0  0  0  0  0  0
   -9.7350   16.2670   33.9880   C 0  0  0  0  0  0  0  0  0  0  0  0
   -9.0700   17.0220   32.9890   C 0  0  0  0  0  0  0  0  0  0  0  0
   -9.0140   16.5230   31.6810   C 0  0  0  0  0  0  0  0  0  0  0  0
   -9.7360   16.7740   35.4100   C 0  0  0  0  0  0  0  0  0  0  0  0
   -8.6000   16.1560   26.8220   N 0  0  0  0  0  0  0  0  0  0  0  0
   -9.6940   15.5050   28.8070   N 0  0  0  0  0  0  0  0  0  0  0  0
   -8.1740   14.2590   27.7580   O 0  0  0  0  0  0  0  0  0  0  0  0
  -10.0250   19.4970   26.8340   O 0  0  0  0  0  0  0  0  0  0  0  0
  -11.8020   18.5230   28.8520   O 0  0  0  0  0  0  0  0  0  0  0  0
   -9.0170   18.1250   19.9200   O 0  0  0  0  0  0  0  0  0  0  0  0
  -11.0720   16.7380   35.8800   O 0  0  0  0  0  0  0  0  0  0  0  0
  1 36  1  0  0  0  0
  1 37  1  0  0  0  0
  1 38  2  0  0  0  0
  2  3  1  0  0  0  0
  2 14  1  0  0  0  0
  2 36  1  0  0  0  0
  3  4  1  0  0  0  0
  3 39  1  0  0  0  0
  4  5  1  0  0  0  0
  4 40  1  0  0  0  0
  5 21  1  0  0  0  0
  5 37  1  0  0  0  0
  6  7  1  0  0  0  0
  6 36  1  0  0  0  0
  7  8  2  0  0  0  0
  7 12  1  0  0  0  0
  8  9  1  0  0  0  0
  9 10  2  0  0  0  0
 10 11  1  0  0  0  0
 10 13  1  0  0  0  0
 11 12  2  0  0  0  0
 13 41  1  0  0  0  0
 14 15  1  0  0  0  0
 15 16  2  0  0  0  0
 15 20  1  0  0  0  0
 16 17  1  0  0  0  0
 17 18  2  0  0  0  0
 18 19  1  0  0  0  0
 19 20  2  0  0  0  0
 21 22  1  0  0  0  0
 22 23  2  0  0  0  0
 22 27  1  0  0  0  0
 23 24  1  0  0  0  0
 24 25  2  0  0  0  0
 25 26  1  0  0  0  0
 26 27  2  0  0  0  0
 28 29  1  0  0  0  0
 28 37  1  0  0  0  0
 29 30  2  0  0  0  0
 29 34  1  0  0  0  0
 30 31  1  0  0  0  0
 31 32  2  0  0  0  0
 32 33  1  0  0  0  0
 32 35  1  0  0  0  0
 33 34  2  0  0  0  0
 35 42  1  0  0  0  0
A    1
C1
A    2
C3
A    3
C4
A    4
C5
A    5
C6
A    6
C20
A    7
C21
A    8
C22
A    9
C23
A   10
C24
A   11
C25
A   12
C26
A   13
C27
A   14
C30
A   15
C31
A   16
C32
A   17
C33
A   18
C34
A   19
C35
A   20
C36
A   21
C60
A   22
C61
A   23
C62
A   24
C63
A   25
C64
A   26
C65
A   27
C66
A   28
C70
A   29
C71
A   30
C72
A   31
C73
A   32
C74
A   33
C75
A   34
C76
A   35
C77
A   36
N2
A   37
N7
A   38
O1
A   39
O4
A   40
O5
A   41
O27
A   42
O77
M  END
>  <InstanceId>
1QBS_DMP_A_323

>  <ChemCompId>
DMP

>  <PdbId>
1QBS

>  <ChainId>
A

>  <ResidueNumber>
323

>  <InsertionCode>


>  <Model>
1

>  <AltIds>


>  <MissingHeavyAtoms>
0

>  <ObservedFormula>
C35 N2 O5

>  <Name>
[4-R-(-4-ALPHA,5-ALPHA,6-BETA,7-BETA)]-HEXAHYDRO-5,6-BIS(HYDROXY)-[1,3-BIS([4-HYDROXYMETHYL-PHENYL]METHYL)-4,7-BIS(PHENYLMETHYL)]-2H-1,3-DIAZEPINONE

>  <SystematicName>
(4R,5S,6S,7R)-5,6-dihydroxy-1,3-bis[[4-(hydroxymethyl)phenyl]methyl]-4,7-bis(phenylmethyl)-1,3-diazepan-2-one

>  <Synonyms>
DMP323(INHIBITOR OF DUPONT MERCK)

>  <Type>
NON-POLYMER

>  <Formula>
C35 H38 N2 O5

>  <MolecularWeight>
566.687

>  <ModifiedDate>
2011-06-04

>  <Parent>


>  <OneLetterCode>


>  <SubcomponentList>


>  <AmbiguousFlag>
N

>  <InChI>
InChI=1S/C35H38N2O5/c38-23-29-15-11-27(12-16-29)21-36-31(19-25-7-3-1-4-8-25)33(40)34(41)32(20-26-9-5-2-6-10-26)37(35(36)42)22-28-13-17-30(24-39)18-14-28/h1-18,31-34,38-41H,19-24H2/t31-,32-,33+,34+/m1/s1

>  <InChIKey>
XCVGQMUMMDXKCY-WZJLIZBTSA-N

>  <SMILES>
c1ccc(cc1)C[C@@H]2[C@@H]([C@H]([C@H](N(C(=O)N2Cc3ccc(cc3)CO)Cc4ccc(cc4)CO)Cc5ccccc5)O)O

$$$$
