1QBS_DMP_A_323


 46 50  0  0  0  0  0  0  0  0999 V2000
   -8.7820   15.3466   28.0214 C   0  0  0  0  0  0  0  0  0  0  0  0
  -10.8329   16.4073   28.9606 C   0  0  0  0  0  0  0  0  0  0  0  0
  -10.6302   17.8792   28.7478 C   0  0  0  0  0  0  0  0  0  0  0  0
  -10.1839   18.1638   27.3361 C   0  0  0  0  0  0  0  0  0  0  0  0
   -8.7700   17.6839   27.0642 C   0  0  0  0  0  0  0  0  0  0  0  0
   -9.6370   15.5588   29.0085 N   0  0  0  0  0  0  0  0  0  0  0  0
   -8.5634   16.2236   27.0169 N   0  0  0  0  0  0  0  0  0  0  0  0
   -8.1938   14.2796   28.0406 O   0  0  0  0  0  0  0  0  0  0  0  0
  -11.8737   18.4203   29.0553 O   0  0  0  0  0  0  0  0  0  0  0  0
  -10.1878   19.5274   27.0278 O   0  0  0  0  0  0  0  0  0  0  0  0
  -12.5509   18.0153   28.4911 H   0  0  0  0  0  0  0  0  0  0  0  0
   -9.5386   19.9864   27.5835 H   0  0  0  0  0  0  0  0  0  0  0  0
   -9.4815   14.6634   30.1611 C   0  0  0  0  0  0  0  0  0  0  0  0
   -9.6873   15.2551   31.5107 C   0  0  0  0  0  0  0  0  0  0  0  0
   -8.8967   16.3043   32.0178 C   0  0  0  0  0  0  0  0  0  0  0  0
   -9.0835   16.7726   33.3359 C   0  0  0  0  0  0  0  0  0  0  0  0
  -10.0645   16.1569   34.1287 C   0  0  0  0  0  0  0  0  0  0  0  0
  -10.8514   15.1115   33.6193 C   0  0  0  0  0  0  0  0  0  0  0  0
  -10.6716   14.6640   32.2988 C   0  0  0  0  0  0  0  0  0  0  0  0
  -10.2563   16.5889   35.5350 C   0  0  0  0  0  0  0  0  0  0  0  0
  -11.6447   16.5267   35.8308 O   0  0  0  0  0  0  0  0  0  0  0  0
  -12.1307   17.1079   35.2251 H   0  0  0  0  0  0  0  0  0  0  0  0
  -11.8766   15.7416   28.0784 C   0  0  0  0  0  0  0  0  0  0  0  0
  -12.5891   14.6188   28.8074 C   0  0  0  0  0  0  0  0  0  0  0  0
  -12.3266   13.2740   28.4635 C   0  0  0  0  0  0  0  0  0  0  0  0
  -12.9669   12.2326   29.1537 C   0  0  0  0  0  0  0  0  0  0  0  0
  -13.8756   12.5340   30.1847 C   0  0  0  0  0  0  0  0  0  0  0  0
  -14.1471   13.8758   30.5355 C   0  0  0  0  0  0  0  0  0  0  0  0
  -13.4957   14.9201   29.8405 C   0  0  0  0  0  0  0  0  0  0  0  0
   -7.6460   18.3352   27.9003 C   0  0  0  0  0  0  0  0  0  0  0  0
   -6.3525   18.4560   27.1221 C   0  0  0  0  0  0  0  0  0  0  0  0
   -6.2301   19.4606   26.1227 C   0  0  0  0  0  0  0  0  0  0  0  0
   -5.1081   19.4540   25.2652 C   0  0  0  0  0  0  0  0  0  0  0  0
   -4.1103   18.4689   25.4232 C   0  0  0  0  0  0  0  0  0  0  0  0
   -4.2185   17.4959   26.4333 C   0  0  0  0  0  0  0  0  0  0  0  0
   -5.3404   17.4886   27.2857 C   0  0  0  0  0  0  0  0  0  0  0  0
   -7.9360   15.6787   25.8071 C   0  0  0  0  0  0  0  0  0  0  0  0
   -8.3808   16.1448   24.4451 C   0  0  0  0  0  0  0  0  0  0  0  0
   -7.4411   16.8630   23.6608 C   0  0  0  0  0  0  0  0  0  0  0  0
   -7.7861   17.2510   22.3616 C   0  0  0  0  0  0  0  0  0  0  0  0
   -9.0600   16.9255   21.8509 C   0  0  0  0  0  0  0  0  0  0  0  0
  -10.0074   16.2225   22.6374 C   0  0  0  0  0  0  0  0  0  0  0  0
   -9.6597   15.8328   23.9375 C   0  0  0  0  0  0  0  0  0  0  0  0
   -9.4123   17.2852   20.4277 C   0  0  0  0  0  0  0  0  0  0  0  0
   -8.6300   18.4076   20.0600 O   0  0  0  0  0  0  0  0  0  0  0  0
   -8.8193   19.1447   20.6614 H   0  0  0  0  0  0  0  0  0  0  0  0
  1  6  1  0  0  0
  1  7  1  0  0  0
  1  8  2  0  0  0
  2  3  1  0  0  0
  2 23  1  0  0  0
  2  6  1  0  0  0
  3  4  1  0  0  0
  3  9  1  0  0  0
  4  5  1  0  0  0
  4 10  1  0  0  0
  5 30  1  0  0  0
  5  7  1  0  0  0
 13 14  1  0  0  0
 13  6  1  0  0  0
 14 15  2  0  0  0
 14 19  1  0  0  0
 15 16  1  0  0  0
 16 17  2  0  0  0
 17 18  1  0  0  0
 17 20  1  0  0  0
 18 19  2  0  0  0
 20 21  1  0  0  0
 23 24  1  0  0  0
 24 25  2  0  0  0
 24 29  1  0  0  0
 25 26  1  0  0  0
 26 27  2  0  0  0
 27 28  1  0  0  0
 28 29  2  0  0  0
 30 31  1  0  0  0
 31 32  2  0  0  0
 31 36  1  0  0  0
 32 33  1  0  0  0
 33 34  2  0  0  0
 34 35  1  0  0  0
 35 36  2  0  0  0
 37 38  1  0  0  0
 37  7  1  0  0  0
 38 39  2  0  0  0
 38 43  1  0  0  0
 39 40  1  0  0  0
 40 41  2  0  0  0
 41 42  1  0  0  0
 41 44  1  0  0  0
 42 43  2  0  0  0
 44 45  1  0  0  0
  9 11  1  0  0  0
 10 12  1  0  0  0
 21 22  1  0  0  0
 45 46  1  0  0  0
M  END
> <minimizedAffinity>
-12.65104

$$$$
1QBS_DMP_A_323


 46 50  0  0  0  0  0  0  0  0999 V2000
   -8.8302   15.2484   27.7608 C   0  0  0  0  0  0  0  0  0  0  0  0
   -8.7921   17.5587   26.8257 C   0  0  0  0  0  0  0  0  0  0  0  0
  -10.1784   18.0850   27.0584 C   0  0  0  0  0  0  0  0  0  0  0  0
  -10.6227   17.8267   28.4757 C   0  0  0  0  0  0  0  0  0  0  0  0
  -10.8747   16.3550   28.7481 C   0  0  0  0  0  0  0  0  0  0  0  0
   -8.6205   16.1027   26.7724 N   0  0  0  0  0  0  0  0  0  0  0  0
   -9.6910   15.4743   28.7775 N   0  0  0  0  0  0  0  0  0  0  0  0
   -8.1754   14.2212   27.7306 O   0  0  0  0  0  0  0  0  0  0  0  0
  -10.0622   19.4364   26.7521 O   0  0  0  0  0  0  0  0  0  0  0  0
  -11.8136   18.4823   28.8017 O   0  0  0  0  0  0  0  0  0  0  0  0
   -9.3748   19.8360   27.3078 H   0  0  0  0  0  0  0  0  0  0  0  0
  -12.5349   18.1332   28.2550 H   0  0  0  0  0  0  0  0  0  0  0  0
   -7.9246   15.5398   25.6091 C   0  0  0  0  0  0  0  0  0  0  0  0
   -8.3452   16.0268   24.2676 C   0  0  0  0  0  0  0  0  0  0  0  0
   -9.6389   15.8260   23.7487 C   0  0  0  0  0  0  0  0  0  0  0  0
   -9.9593   16.2382   22.4377 C   0  0  0  0  0  0  0  0  0  0  0  0
   -8.9538   16.8377   21.6634 C   0  0  0  0  0  0  0  0  0  0  0  0
   -7.6652   17.0370   22.1846 C   0  0  0  0  0  0  0  0  0  0  0  0
   -7.3600   16.6406   23.4984 C   0  0  0  0  0  0  0  0  0  0  0  0
   -9.2393   17.2393   20.2641 C   0  0  0  0  0  0  0  0  0  0  0  0
   -8.5350   18.4444   19.9979 O   0  0  0  0  0  0  0  0  0  0  0  0
   -8.8256   19.1321   20.6172 H   0  0  0  0  0  0  0  0  0  0  0  0
   -7.6961   18.1545   27.6943 C   0  0  0  0  0  0  0  0  0  0  0  0
   -6.3880   18.2759   26.9366 C   0  0  0  0  0  0  0  0  0  0  0  0
   -5.3379   17.3650   27.1884 C   0  0  0  0  0  0  0  0  0  0  0  0
   -4.1352   17.4608   26.4707 C   0  0  0  0  0  0  0  0  0  0  0  0
   -3.9778   18.4713   25.5044 C   0  0  0  0  0  0  0  0  0  0  0  0
   -5.0211   19.3889   25.2460 C   0  0  0  0  0  0  0  0  0  0  0  0
   -6.2317   19.2846   25.9681 C   0  0  0  0  0  0  0  0  0  0  0  0
  -11.9958   15.6817   27.9259 C   0  0  0  0  0  0  0  0  0  0  0  0
  -12.7313   14.6242   28.7220 C   0  0  0  0  0  0  0  0  0  0  0  0
  -13.5922   15.0212   29.7824 C   0  0  0  0  0  0  0  0  0  0  0  0
  -14.1250   14.0411   30.6482 C   0  0  0  0  0  0  0  0  0  0  0  0
  -13.8191   12.6796   30.4394 C   0  0  0  0  0  0  0  0  0  0  0  0
  -12.9932   12.2872   29.3705 C   0  0  0  0  0  0  0  0  0  0  0  0
  -12.4483   13.2598   28.5088 C   0  0  0  0  0  0  0  0  0  0  0  0
   -9.4966   14.6602   29.9832 C   0  0  0  0  0  0  0  0  0  0  0  0
   -9.6829   15.2688   31.3488 C   0  0  0  0  0  0  0  0  0  0  0  0
  -10.7078   14.7309   32.1700 C   0  0  0  0  0  0  0  0  0  0  0  0
  -10.8684   15.2156   33.4725 C   0  0  0  0  0  0  0  0  0  0  0  0
  -10.0130   16.2304   33.9502 C   0  0  0  0  0  0  0  0  0  0  0  0
   -8.9987   16.7817   33.1271 C   0  0  0  0  0  0  0  0  0  0  0  0
   -8.8377   16.2939   31.8236 C   0  0  0  0  0  0  0  0  0  0  0  0
  -10.1407   16.7102   35.3758 C   0  0  0  0  0  0  0  0  0  0  0  0
  -11.5111   16.6502   35.7302 O   0  0  0  0  0  0  0  0  0  0  0  0
  -12.0256   17.2102   35.1280 H   0  0  0  0  0  0  0  0  0  0  0  0
  1  6  1  0  0  0
  1  7  1  0  0  0
  1  8  2  0  0  0
  2  3  1  0  0  0
  2 23  1  0  0  0
  2  6  1  0  0  0
  3  4  1  0  0  0
  3  9  1  0  0  0
  4  5  1  0  0  0
  4 10  1  0  0  0
  5 30  1  0  0  0
  5  7  1  0  0  0
 13 14  1  0  0  0
 13  6  1  0  0  0
 14 15  2  0  0  0
 14 19  1  0  0  0
 15 16  1  0  0  0
 16 17  2  0  0  0
 17 18  1  0  0  0
 17 20  1  0  0  0
 18 19  2  0  0  0
 20 21  1  0  0  0
 23 24  1  0  0  0
 24 25  2  0  0  0
 24 29  1  0  0  0
 25 26  1  0  0  0
 26 27  2  0  0  0
 27 28  1  0  0  0
 28 29  2  0  0  0
 30 31  1  0  0  0
 31 32  2  0  0  0
 31 36  1  0  0  0
 32 33  1  0  0  0
 33 34  2  0  0  0
 34 35  1  0  0  0
 35 36  2  0  0  0
 37 38  1  0  0  0
 37  7  1  0  0  0
 38 39  2  0  0  0
 38 43  1  0  0  0
 39 40  1  0  0  0
 40 41  2  0  0  0
 41 42  1  0  0  0
 41 44  1  0  0  0
 42 43  2  0  0  0
 44 45  1  0  0  0
  9 11  1  0  0  0
 10 12  1  0  0  0
 21 22  1  0  0  0
 45 46  1  0  0  0
M  END
> <minimizedAffinity>
-12.54839

$$$$
1QBS_DMP_A_323


 46 50  0  0  0  0  0  0  0  0999 V2000
  -11.0758   17.1433   28.8424 C   0  0  0  0  0  0  0  0  0  0  0  0
   -9.1060   16.1281   27.7011 C   0  0  0  0  0  0  0  0  0  0  0  0
   -8.3010   15.5135   28.8089 C   0  0  0  0  0  0  0  0  0  0  0  0
   -9.1774   14.6954   29.7230 C   0  0  0  0  0  0  0  0  0  0  0  0
  -10.1143   15.5535   30.5533 C   0  0  0  0  0  0  0  0  0  0  0  0
  -10.0171   17.2228   28.0529 N   0  0  0  0  0  0  0  0  0  0  0  0
  -11.2079   16.2311   29.8304 N   0  0  0  0  0  0  0  0  0  0  0  0
  -11.9716   17.9393   28.6212 O   0  0  0  0  0  0  0  0  0  0  0  0
   -7.3502   14.7582   28.1312 O   0  0  0  0  0  0  0  0  0  0  0  0
   -8.4474   13.9338   30.6402 O   0  0  0  0  0  0  0  0  0  0  0  0
   -7.7965   14.1231   27.5495 H   0  0  0  0  0  0  0  0  0  0  0  0
   -7.9612   14.5245   31.2366 H   0  0  0  0  0  0  0  0  0  0  0  0
   -9.9128   18.4702   27.2864 C   0  0  0  0  0  0  0  0  0  0  0  0
   -8.5887   18.7874   26.6863 C   0  0  0  0  0  0  0  0  0  0  0  0
   -8.2934   18.5810   25.3249 C   0  0  0  0  0  0  0  0  0  0  0  0
   -6.9957   18.8234   24.8263 C   0  0  0  0  0  0  0  0  0  0  0  0
   -6.0082   19.2597   25.7232 C   0  0  0  0  0  0  0  0  0  0  0  0
   -6.3066   19.4651   27.0798 C   0  0  0  0  0  0  0  0  0  0  0  0
   -7.6069   19.2395   27.5643 C   0  0  0  0  0  0  0  0  0  0  0  0
   -4.6206   19.4777   25.2457 C   0  0  0  0  0  0  0  0  0  0  0  0
   -4.6754   19.8095   23.8652 O   0  0  0  0  0  0  0  0  0  0  0  0
   -5.0960   19.0857   23.3751 H   0  0  0  0  0  0  0  0  0  0  0  0
   -9.8307   15.1571   26.7831 C   0  0  0  0  0  0  0  0  0  0  0  0
   -9.5246   15.4349   25.3240 C   0  0  0  0  0  0  0  0  0  0  0  0
   -8.2516   15.1229   24.7968 C   0  0  0  0  0  0  0  0  0  0  0  0
   -7.9743   15.3568   23.4406 C   0  0  0  0  0  0  0  0  0  0  0  0
   -8.9671   15.9090   22.6106 C   0  0  0  0  0  0  0  0  0  0  0  0
  -10.2432   16.2267   23.1280 C   0  0  0  0  0  0  0  0  0  0  0  0
  -10.5184   15.9844   24.4931 C   0  0  0  0  0  0  0  0  0  0  0  0
   -9.4544   16.5468   31.5353 C   0  0  0  0  0  0  0  0  0  0  0  0
   -9.7338   16.1915   32.9806 C   0  0  0  0  0  0  0  0  0  0  0  0
  -10.4471   14.9983   33.2811 C   0  0  0  0  0  0  0  0  0  0  0  0
  -10.8784   14.7617   34.6048 C   0  0  0  0  0  0  0  0  0  0  0  0
  -10.5774   15.6963   35.6182 C   0  0  0  0  0  0  0  0  0  0  0  0
   -9.8440   16.8600   35.3240 C   0  0  0  0  0  0  0  0  0  0  0  0
   -9.4199   17.1091   34.0036 C   0  0  0  0  0  0  0  0  0  0  0  0
  -12.5731   15.9941   30.3144 C   0  0  0  0  0  0  0  0  0  0  0  0
  -13.0555   14.5897   30.5692 C   0  0  0  0  0  0  0  0  0  0  0  0
  -12.8892   13.6420   29.5260 C   0  0  0  0  0  0  0  0  0  0  0  0
  -13.2551   12.3095   29.7450 C   0  0  0  0  0  0  0  0  0  0  0  0
  -13.7845   11.9275   30.9954 C   0  0  0  0  0  0  0  0  0  0  0  0
  -13.9675   12.8748   32.0343 C   0  0  0  0  0  0  0  0  0  0  0  0
  -13.5986   14.2084   31.8142 C   0  0  0  0  0  0  0  0  0  0  0  0
  -14.1198   10.4790   31.2575 C   0  0  0  0  0  0  0  0  0  0  0  0
  -12.8999    9.7689   31.3794 O   0  0  0  0  0  0  0  0  0  0  0  0
  -12.3873    9.8641   30.5614 H   0  0  0  0  0  0  0  0  0  0  0  0
  1  6  1  0  0  0
  1  7  1  0  0  0
  1  8  2  0  0  0
  2  3  1  0  0  0
  2 23  1  0  0  0
  2  6  1  0  0  0
  3  4  1  0  0  0
  3  9  1  0  0  0
  4  5  1  0  0  0
  4 10  1  0  0  0
  5 30  1  0  0  0
  5  7  1  0  0  0
 13 14  1  0  0  0
 13  6  1  0  0  0
 14 15  2  0  0  0
 14 19  1  0  0  0
 15 16  1  0  0  0
 16 17  2  0  0  0
 17 18  1  0  0  0
 17 20  1  0  0  0
 18 19  2  0  0  0
 20 21  1  0  0  0
 23 24  1  0  0  0
 24 25  2  0  0  0
 24 29  1  0  0  0
 25 26  1  0  0  0
 26 27  2  0  0  0
 27 28  1  0  0  0
 28 29  2  0  0  0
 30 31  1  0  0  0
 31 32  2  0  0  0
 31 36  1  0  0  0
 32 33  1  0  0  0
 33 34  2  0  0  0
 34 35  1  0  0  0
 35 36  2  0  0  0
 37 38  1  0  0  0
 37  7  1  0  0  0
 38 39  2  0  0  0
 38 43  1  0  0  0
 39 40  1  0  0  0
 40 41  2  0  0  0
 41 42  1  0  0  0
 41 44  1  0  0  0
 42 43  2  0  0  0
 44 45  1  0  0  0
  9 11  1  0  0  0
 10 12  1  0  0  0
 21 22  1  0  0  0
 45 46  1  0  0  0
M  END
> <minimizedAffinity>
-10.19680

$$$$
1QBS_DMP_A_323


 46 50  0  0  0  0  0  0  0  0999 V2000
  -10.5779   17.4901   28.3520 C   0  0  0  0  0  0  0  0  0  0  0  0
   -8.9434   16.2441   26.9415 C   0  0  0  0  0  0  0  0  0  0  0  0
   -8.1662   15.4047   27.9133 C   0  0  0  0  0  0  0  0  0  0  0  0
   -9.0899   14.6793   28.8586 C   0  0  0  0  0  0  0  0  0  0  0  0
   -9.7714   15.6152   29.8399 C   0  0  0  0  0  0  0  0  0  0  0  0
   -9.6004   17.4485   27.4612 N   0  0  0  0  0  0  0  0  0  0  0  0
  -10.7836   16.5346   29.2849 N   0  0  0  0  0  0  0  0  0  0  0  0
  -11.3281   18.4477   28.2815 O   0  0  0  0  0  0  0  0  0  0  0  0
   -7.4380   14.5540   27.0889 O   0  0  0  0  0  0  0  0  0  0  0  0
   -8.4309   13.7251   29.6395 O   0  0  0  0  0  0  0  0  0  0  0  0
   -8.0457   14.0598   26.5167 H   0  0  0  0  0  0  0  0  0  0  0  0
   -7.7910   14.1675   30.2189 H   0  0  0  0  0  0  0  0  0  0  0  0
   -9.3395   18.7187   26.7735 C   0  0  0  0  0  0  0  0  0  0  0  0
   -7.9986   18.8888   26.1516 C   0  0  0  0  0  0  0  0  0  0  0  0
   -7.7429   18.6215   24.7927 C   0  0  0  0  0  0  0  0  0  0  0  0
   -6.4343   18.7223   24.2743 C   0  0  0  0  0  0  0  0  0  0  0  0
   -5.3969   19.0802   25.1494 C   0  0  0  0  0  0  0  0  0  0  0  0
   -5.6558   19.3468   26.5034 C   0  0  0  0  0  0  0  0  0  0  0  0
   -6.9656   19.2626   27.0073 C   0  0  0  0  0  0  0  0  0  0  0  0
   -4.0009   19.1484   24.6518 C   0  0  0  0  0  0  0  0  0  0  0  0
   -4.0093   19.8287   23.4044 O   0  0  0  0  0  0  0  0  0  0  0  0
   -4.5727   19.3483   22.7778 H   0  0  0  0  0  0  0  0  0  0  0  0
   -9.9166   15.4985   26.0429 C   0  0  0  0  0  0  0  0  0  0  0  0
   -9.5737   15.6806   24.5769 C   0  0  0  0  0  0  0  0  0  0  0  0
  -10.4992   16.2969   23.7055 C   0  0  0  0  0  0  0  0  0  0  0  0
  -10.1738   16.4884   22.3534 C   0  0  0  0  0  0  0  0  0  0  0  0
   -8.9250   16.0583   21.8686 C   0  0  0  0  0  0  0  0  0  0  0  0
   -7.9925   15.4389   22.7311 C   0  0  0  0  0  0  0  0  0  0  0  0
   -8.3235   15.2532   24.0926 C   0  0  0  0  0  0  0  0  0  0  0  0
   -8.8516   16.3888   30.8104 C   0  0  0  0  0  0  0  0  0  0  0  0
   -9.2093   16.1358   32.2600 C   0  0  0  0  0  0  0  0  0  0  0  0
   -9.7542   14.8766   32.6352 C   0  0  0  0  0  0  0  0  0  0  0  0
  -10.2680   14.7032   33.9391 C   0  0  0  0  0  0  0  0  0  0  0  0
  -10.2141   15.7693   34.8619 C   0  0  0  0  0  0  0  0  0  0  0  0
   -9.6455   17.0033   34.4978 C   0  0  0  0  0  0  0  0  0  0  0  0
   -9.1409   17.1882   33.1952 C   0  0  0  0  0  0  0  0  0  0  0  0
  -12.1183   16.5020   29.8947 C   0  0  0  0  0  0  0  0  0  0  0  0
  -12.7063   15.1974   30.3661 C   0  0  0  0  0  0  0  0  0  0  0  0
  -13.0595   15.0970   31.7370 C   0  0  0  0  0  0  0  0  0  0  0  0
  -13.6761   13.9308   32.2028 C   0  0  0  0  0  0  0  0  0  0  0  0
  -13.9363   12.8730   31.3067 C   0  0  0  0  0  0  0  0  0  0  0  0
  -13.5700   12.9632   29.9400 C   0  0  0  0  0  0  0  0  0  0  0  0
  -12.9543   14.1325   29.4745 C   0  0  0  0  0  0  0  0  0  0  0  0
  -14.6598   11.6397   31.7912 C   0  0  0  0  0  0  0  0  0  0  0  0
  -16.0436   11.9404   31.8347 O   0  0  0  0  0  0  0  0  0  0  0  0
  -16.1933   12.6885   32.4337 H   0  0  0  0  0  0  0  0  0  0  0  0
  1  6  1  0  0  0
  1  7  1  0  0  0
  1  8  2  0  0  0
  2  3  1  0  0  0
  2 23  1  0  0  0
  2  6  1  0  0  0
  3  4  1  0  0  0
  3  9  1  0  0  0
  4  5  1  0  0  0
  4 10  1  0  0  0
  5 30  1  0  0  0
  5  7  1  0  0  0
 13 14  1  0  0  0
 13  6  1  0  0  0
 14 15  2  0  0  0
 14 19  1  0  0  0
 15 16  1  0  0  0
 16 17  2  0  0  0
 17 18  1  0  0  0
 17 20  1  0  0  0
 18 19  2  0  0  0
 20 21  1  0  0  0
 23 24  1  0  0  0
 24 25  2  0  0  0
 24 29  1  0  0  0
 25 26  1  0  0  0
 26 27  2  0  0  0
 27 28  1  0  0  0
 28 29  2  0  0  0
 30 31  1  0  0  0
 31 32  2  0  0  0
 31 36  1  0  0  0
 32 33  1  0  0  0
 33 34  2  0  0  0
 34 35  1  0  0  0
 35 36  2  0  0  0
 37 38  1  0  0  0
 37  7  1  0  0  0
 38 39  2  0  0  0
 38 43  1  0  0  0
 39 40  1  0  0  0
 40 41  2  0  0  0
 41 42  1  0  0  0
 41 44  1  0  0  0
 42 43  2  0  0  0
 44 45  1  0  0  0
  9 11  1  0  0  0
 10 12  1  0  0  0
 21 22  1  0  0  0
 45 46  1  0  0  0
M  END
> <minimizedAffinity>
-10.03092

$$$$
