3LPL_TDP_A_887


 13 12  0  0  0  0  0  0  0  0999 V2000
   14.5027  -65.7677    0.1730 P   0  0  0  0  0  0  0  0  0  0  0  0
   13.2708  -65.5578   -0.6215 O   0  0  0  0  0  0  0  0  0  0  0  0
   14.4102  -66.5929    1.3984 O   0  0  0  0  0  0  0  0  0  0  0  0
   15.2831  -66.6478    1.8179 H   0  0  0  0  0  0  0  0  0  0  0  0
   15.6126  -66.4161   -0.8004 O   0  0  0  0  0  0  0  0  0  0  0  0
   17.5845  -67.6782   -0.0660 C   0  0  0  0  0  0  0  0  0  0  0  0
   16.1208  -67.7234   -0.5092 C   0  0  0  0  0  0  0  0  0  0  0  0
   15.1974  -64.3648    0.5697 O   0  0  0  0  0  0  0  0  0  0  0  0
   15.9520  -64.1013    1.9692 P   0  0  0  0  0  0  0  0  0  0  0  0
   17.0991  -65.0236    2.1395 O   0  0  0  0  0  0  0  0  0  0  0  0
   16.4166  -62.5604    1.9792 O   0  0  0  0  0  0  0  0  0  0  0  0
   14.8482  -64.2570    3.1336 O   0  0  0  0  0  0  0  0  0  0  0  0
   14.5380  -65.1755    3.1644 H   0  0  0  0  0  0  0  0  0  0  0  0
  6  7  1  0  0  0
  7  5  1  0  0  0
  5  1  1  0  0  0
  1  8  1  0  0  0
  1  2  2  0  0  0
  1  3  1  0  0  0
  8  9  1  0  0  0
  9 10  2  0  0  0
  9 11  1  0  0  0
  9 12  1  0  0  0
  3  4  1  0  0  0
 12 13  1  0  0  0
M  CHG 1  11  -1
M  END
> <minimizedAffinity>
-6.73909

$$$$
3LPL_TDP_A_887


 13 12  0  0  0  0  0  0  0  0999 V2000
   16.0033  -64.0147    1.7397 P   0  0  0  0  0  0  0  0  0  0  0  0
   15.0317  -64.0295    2.8571 O   0  0  0  0  0  0  0  0  0  0  0  0
   16.7912  -62.7816    1.5168 O   0  0  0  0  0  0  0  0  0  0  0  0
   17.3836  -62.9088    0.7593 H   0  0  0  0  0  0  0  0  0  0  0  0
   17.0236  -65.2441    1.9572 O   0  0  0  0  0  0  0  0  0  0  0  0
   18.5765  -65.8843    0.1686 C   0  0  0  0  0  0  0  0  0  0  0  0
   18.3702  -65.1282    1.4826 C   0  0  0  0  0  0  0  0  0  0  0  0
   15.3030  -64.4166    0.3411 O   0  0  0  0  0  0  0  0  0  0  0  0
   14.4562  -65.7696    0.1178 P   0  0  0  0  0  0  0  0  0  0  0  0
   13.1463  -65.4822   -0.5123 O   0  0  0  0  0  0  0  0  0  0  0  0
   15.3537  -66.7512   -0.7886 O   0  0  0  0  0  0  0  0  0  0  0  0
   14.3133  -66.4765    1.5594 O   0  0  0  0  0  0  0  0  0  0  0  0
   13.7766  -65.9168    2.1422 H   0  0  0  0  0  0  0  0  0  0  0  0
  6  7  1  0  0  0
  7  5  1  0  0  0
  5  1  1  0  0  0
  1  8  1  0  0  0
  1  2  2  0  0  0
  1  3  1  0  0  0
  8  9  1  0  0  0
  9 10  2  0  0  0
  9 11  1  0  0  0
  9 12  1  0  0  0
  3  4  1  0  0  0
 12 13  1  0  0  0
M  CHG 1  11  -1
M  END
> <minimizedAffinity>
-6.12537

$$$$
3LPL_TDP_A_887


 13 12  0  0  0  0  0  0  0  0999 V2000
   14.5700  -65.8093    0.2194 P   0  0  0  0  0  0  0  0  0  0  0  0
   13.3306  -65.4623   -0.5130 O   0  0  0  0  0  0  0  0  0  0  0  0
   14.4396  -66.4753    1.5349 O   0  0  0  0  0  0  0  0  0  0  0  0
   15.3219  -66.6439    1.9008 H   0  0  0  0  0  0  0  0  0  0  0  0
   15.4661  -66.7428   -0.7425 O   0  0  0  0  0  0  0  0  0  0  0  0
   17.6943  -67.5458   -0.1015 C   0  0  0  0  0  0  0  0  0  0  0  0
   16.8726  -66.4928   -0.8478 C   0  0  0  0  0  0  0  0  0  0  0  0
   15.5267  -64.5218    0.4068 O   0  0  0  0  0  0  0  0  0  0  0  0
   16.0455  -63.9900    1.8370 P   0  0  0  0  0  0  0  0  0  0  0  0
   14.9661  -64.0443    2.8507 O   0  0  0  0  0  0  0  0  0  0  0  0
   17.3064  -64.8983    2.2562 O   0  0  0  0  0  0  0  0  0  0  0  0
   16.6096  -62.4977    1.6058 O   0  0  0  0  0  0  0  0  0  0  0  0
   15.8798  -61.9122    1.3500 H   0  0  0  0  0  0  0  0  0  0  0  0
  6  7  1  0  0  0
  7  5  1  0  0  0
  5  1  1  0  0  0
  1  8  1  0  0  0
  1  2  2  0  0  0
  1  3  1  0  0  0
  8  9  1  0  0  0
  9 10  2  0  0  0
  9 11  1  0  0  0
  9 12  1  0  0  0
  3  4  1  0  0  0
 12 13  1  0  0  0
M  CHG 1  11  -1
M  END
> <minimizedAffinity>
-6.07204

$$$$
3LPL_TDP_A_887


 13 12  0  0  0  0  0  0  0  0999 V2000
   15.6407  -64.5204    1.7255 P   0  0  0  0  0  0  0  0  0  0  0  0
   15.0187  -64.0105    2.9689 O   0  0  0  0  0  0  0  0  0  0  0  0
   15.7377  -63.6036    0.5674 O   0  0  0  0  0  0  0  0  0  0  0  0
   16.1624  -64.0630   -0.1739 H   0  0  0  0  0  0  0  0  0  0  0  0
   17.1214  -65.0422    2.0931 O   0  0  0  0  0  0  0  0  0  0  0  0
   18.2242  -66.5691    0.5205 C   0  0  0  0  0  0  0  0  0  0  0  0
   18.1057  -65.1412    1.0571 C   0  0  0  0  0  0  0  0  0  0  0  0
   14.9311  -65.8815    1.2239 O   0  0  0  0  0  0  0  0  0  0  0  0
   14.1965  -66.0376   -0.2022 P   0  0  0  0  0  0  0  0  0  0  0  0
   13.8075  -67.4454   -0.4514 O   0  0  0  0  0  0  0  0  0  0  0  0
   12.9204  -65.0568   -0.1925 O   0  0  0  0  0  0  0  0  0  0  0  0
   15.2098  -65.4638   -1.3168 O   0  0  0  0  0  0  0  0  0  0  0  0
   15.9983  -66.0272   -1.3576 H   0  0  0  0  0  0  0  0  0  0  0  0
  6  7  1  0  0  0
  7  5  1  0  0  0
  5  1  1  0  0  0
  1  8  1  0  0  0
  1  2  2  0  0  0
  1  3  1  0  0  0
  8  9  1  0  0  0
  9 10  2  0  0  0
  9 11  1  0  0  0
  9 12  1  0  0  0
  3  4  1  0  0  0
 12 13  1  0  0  0
M  CHG 1  11  -1
M  END
> <minimizedAffinity>
-6.02736

$$$$
3LPL_TDP_A_887


 13 12  0  0  0  0  0  0  0  0999 V2000
   15.5716  -64.7188    1.8987 P   0  0  0  0  0  0  0  0  0  0  0  0
   16.9644  -65.1980    2.0509 O   0  0  0  0  0  0  0  0  0  0  0  0
   14.8662  -64.2307    3.1050 O   0  0  0  0  0  0  0  0  0  0  0  0
   13.9697  -63.9496    2.8637 H   0  0  0  0  0  0  0  0  0  0  0  0
   15.5723  -63.5447    0.7936 O   0  0  0  0  0  0  0  0  0  0  0  0
   17.4591  -63.2360   -0.7444 C   0  0  0  0  0  0  0  0  0  0  0  0
   16.7775  -62.8075    0.5566 C   0  0  0  0  0  0  0  0  0  0  0  0
   14.6372  -65.8303    1.1920 O   0  0  0  0  0  0  0  0  0  0  0  0
   15.1964  -66.9809    0.2118 P   0  0  0  0  0  0  0  0  0  0  0  0
   14.1446  -67.9781   -0.0961 O   0  0  0  0  0  0  0  0  0  0  0  0
   15.7395  -66.2541   -1.1176 O   0  0  0  0  0  0  0  0  0  0  0  0
   16.4800  -67.6321    0.9376 O   0  0  0  0  0  0  0  0  0  0  0  0
   16.1984  -68.0835    1.7486 H   0  0  0  0  0  0  0  0  0  0  0  0
  6  7  1  0  0  0
  7  5  1  0  0  0
  5  1  1  0  0  0
  1  8  1  0  0  0
  1  2  2  0  0  0
  1  3  1  0  0  0
  8  9  1  0  0  0
  9 10  2  0  0  0
  9 11  1  0  0  0
  9 12  1  0  0  0
  3  4  1  0  0  0
 12 13  1  0  0  0
M  CHG 1  11  -1
M  END
> <minimizedAffinity>
-5.88785

$$$$
3LPL_TDP_A_887


 13 12  0  0  0  0  0  0  0  0999 V2000
   18.1384  -65.4688    1.0107 P   0  0  0  0  0  0  0  0  0  0  0  0
   19.4644  -65.4951    1.6694 O   0  0  0  0  0  0  0  0  0  0  0  0
   17.9407  -64.5366   -0.1220 O   0  0  0  0  0  0  0  0  0  0  0  0
   17.0343  -64.6222   -0.4568 H   0  0  0  0  0  0  0  0  0  0  0  0
   17.8076  -66.9648    0.5086 O   0  0  0  0  0  0  0  0  0  0  0  0
   15.5792  -67.5850   -0.3100 C   0  0  0  0  0  0  0  0  0  0  0  0
   17.0026  -67.1481   -0.6620 C   0  0  0  0  0  0  0  0  0  0  0  0
   16.9528  -65.2137    2.0771 O   0  0  0  0  0  0  0  0  0  0  0  0
   15.8693  -64.0277    1.9477 P   0  0  0  0  0  0  0  0  0  0  0  0
   16.5171  -62.6990    2.0488 O   0  0  0  0  0  0  0  0  0  0  0  0
   15.1156  -64.2203    0.5386 O   0  0  0  0  0  0  0  0  0  0  0  0
   14.7661  -64.2729    3.0972 O   0  0  0  0  0  0  0  0  0  0  0  0
   15.1782  -64.1665    3.9688 H   0  0  0  0  0  0  0  0  0  0  0  0
  6  7  1  0  0  0
  7  5  1  0  0  0
  5  1  1  0  0  0
  1  8  1  0  0  0
  1  2  2  0  0  0
  1  3  1  0  0  0
  8  9  1  0  0  0
  9 10  2  0  0  0
  9 11  1  0  0  0
  9 12  1  0  0  0
  3  4  1  0  0  0
 12 13  1  0  0  0
M  CHG 1  11  -1
M  END
> <minimizedAffinity>
-5.76159

$$$$
3LPL_TDP_A_887


 13 12  0  0  0  0  0  0  0  0999 V2000
   17.2186  -66.4779    0.2446 P   0  0  0  0  0  0  0  0  0  0  0  0
   18.3594  -66.3045   -0.6834 O   0  0  0  0  0  0  0  0  0  0  0  0
   16.9488  -67.8342    0.7725 O   0  0  0  0  0  0  0  0  0  0  0  0
   16.1801  -67.8042    1.3634 H   0  0  0  0  0  0  0  0  0  0  0  0
   17.4389  -65.4767    1.4891 O   0  0  0  0  0  0  0  0  0  0  0  0
   16.3047  -63.3689    2.0289 C   0  0  0  0  0  0  0  0  0  0  0  0
   17.4306  -64.0627    1.2596 C   0  0  0  0  0  0  0  0  0  0  0  0
   15.8469  -65.9101   -0.3911 O   0  0  0  0  0  0  0  0  0  0  0  0
   14.3784  -66.3279    0.1249 P   0  0  0  0  0  0  0  0  0  0  0  0
   13.3534  -65.3666   -0.3453 O   0  0  0  0  0  0  0  0  0  0  0  0
   14.0902  -67.8187   -0.4088 O   0  0  0  0  0  0  0  0  0  0  0  0
   14.4552  -66.4211    1.7324 O   0  0  0  0  0  0  0  0  0  0  0  0
   14.6284  -65.5401    2.0994 H   0  0  0  0  0  0  0  0  0  0  0  0
  6  7  1  0  0  0
  7  5  1  0  0  0
  5  1  1  0  0  0
  1  8  1  0  0  0
  1  2  2  0  0  0
  1  3  1  0  0  0
  8  9  1  0  0  0
  9 10  2  0  0  0
  9 11  1  0  0  0
  9 12  1  0  0  0
  3  4  1  0  0  0
 12 13  1  0  0  0
M  CHG 1  11  -1
M  END
> <minimizedAffinity>
-5.72132

$$$$
3LPL_TDP_A_887


 13 12  0  0  0  0  0  0  0  0999 V2000
   15.0013  -66.7237    0.9982 P   0  0  0  0  0  0  0  0  0  0  0  0
   14.2272  -66.6051   -0.2586 O   0  0  0  0  0  0  0  0  0  0  0  0
   14.5479  -67.7080    2.0064 O   0  0  0  0  0  0  0  0  0  0  0  0
   15.1406  -67.6811    2.7739 H   0  0  0  0  0  0  0  0  0  0  0  0
   16.5295  -67.0563    0.6064 O   0  0  0  0  0  0  0  0  0  0  0  0
   18.0796  -67.3146   -1.2781 C   0  0  0  0  0  0  0  0  0  0  0  0
   16.8000  -67.7952   -0.5906 C   0  0  0  0  0  0  0  0  0  0  0  0
   15.1576  -65.2946    1.7340 O   0  0  0  0  0  0  0  0  0  0  0  0
   16.3270  -64.2369    1.4007 P   0  0  0  0  0  0  0  0  0  0  0  0
   16.2782  -63.8165   -0.0193 O   0  0  0  0  0  0  0  0  0  0  0  0
   16.1426  -62.9893    2.4007 O   0  0  0  0  0  0  0  0  0  0  0  0
   17.7224  -64.9409    1.7952 O   0  0  0  0  0  0  0  0  0  0  0  0
   17.8756  -65.7028    1.2147 H   0  0  0  0  0  0  0  0  0  0  0  0
  6  7  1  0  0  0
  7  5  1  0  0  0
  5  1  1  0  0  0
  1  8  1  0  0  0
  1  2  2  0  0  0
  1  3  1  0  0  0
  8  9  1  0  0  0
  9 10  2  0  0  0
  9 11  1  0  0  0
  9 12  1  0  0  0
  3  4  1  0  0  0
 12 13  1  0  0  0
M  CHG 1  11  -1
M  END
> <minimizedAffinity>
-5.52208

$$$$
3LPL_TDP_A_887


 13 12  0  0  0  0  0  0  0  0999 V2000
   15.9472  -64.0716    1.9177 P   0  0  0  0  0  0  0  0  0  0  0  0
   16.5126  -62.7037    1.8729 O   0  0  0  0  0  0  0  0  0  0  0  0
   14.8735  -64.3508    2.8975 O   0  0  0  0  0  0  0  0  0  0  0  0
   14.5975  -65.2774    2.8195 H   0  0  0  0  0  0  0  0  0  0  0  0
   15.4022  -64.4282    0.4427 O   0  0  0  0  0  0  0  0  0  0  0  0
   14.7767  -66.7590   -0.0009 C   0  0  0  0  0  0  0  0  0  0  0  0
   14.3031  -65.3363    0.3035 C   0  0  0  0  0  0  0  0  0  0  0  0
   17.1020  -65.1831    2.1155 O   0  0  0  0  0  0  0  0  0  0  0  0
   18.3371  -65.3844    1.0999 P   0  0  0  0  0  0  0  0  0  0  0  0
   19.6328  -65.3264    1.8164 O   0  0  0  0  0  0  0  0  0  0  0  0
   18.1239  -66.7989    0.3623 O   0  0  0  0  0  0  0  0  0  0  0  0
   18.2007  -64.2480   -0.0353 O   0  0  0  0  0  0  0  0  0  0  0  0
   18.3228  -63.3736    0.3663 H   0  0  0  0  0  0  0  0  0  0  0  0
  6  7  1  0  0  0
  7  5  1  0  0  0
  5  1  1  0  0  0
  1  8  1  0  0  0
  1  2  2  0  0  0
  1  3  1  0  0  0
  8  9  1  0  0  0
  9 10  2  0  0  0
  9 11  1  0  0  0
  9 12  1  0  0  0
  3  4  1  0  0  0
 12 13  1  0  0  0
M  CHG 1  11  -1
M  END
> <minimizedAffinity>
-5.49417

$$$$
3LPL_TDP_A_887


 13 12  0  0  0  0  0  0  0  0999 V2000
   16.6631  -64.7482   -0.4761 P   0  0  0  0  0  0  0  0  0  0  0  0
   16.7445  -63.3044   -0.1569 O   0  0  0  0  0  0  0  0  0  0  0  0
   16.0985  -65.1420   -1.7865 O   0  0  0  0  0  0  0  0  0  0  0  0
   16.1045  -66.1089   -1.8637 H   0  0  0  0  0  0  0  0  0  0  0  0
   18.1473  -65.3653   -0.3498 O   0  0  0  0  0  0  0  0  0  0  0  0
   20.1830  -64.3478    0.5675 C   0  0  0  0  0  0  0  0  0  0  0  0
   18.9013  -65.1355    0.8463 C   0  0  0  0  0  0  0  0  0  0  0  0
   15.8725  -65.5643    0.6714 O   0  0  0  0  0  0  0  0  0  0  0  0
   14.9239  -66.8337    0.3778 P   0  0  0  0  0  0  0  0  0  0  0  0
   13.6906  -66.4255   -0.3349 O   0  0  0  0  0  0  0  0  0  0  0  0
   15.7878  -67.8886   -0.4775 O   0  0  0  0  0  0  0  0  0  0  0  0
   14.6211  -67.5315    1.7990 O   0  0  0  0  0  0  0  0  0  0  0  0
   14.0993  -66.9281    2.3508 H   0  0  0  0  0  0  0  0  0  0  0  0
  6  7  1  0  0  0
  7  5  1  0  0  0
  5  1  1  0  0  0
  1  8  1  0  0  0
  1  2  2  0  0  0
  1  3  1  0  0  0
  8  9  1  0  0  0
  9 10  2  0  0  0
  9 11  1  0  0  0
  9 12  1  0  0  0
  3  4  1  0  0  0
 12 13  1  0  0  0
M  CHG 1  11  -1
M  END
> <minimizedAffinity>
-5.43691

$$$$
