2OI2_DP6_A_300


 23 22  0  0  0  0  0  0  0  0999 V2000
   27.6149   24.7252   47.3926 O   0  0  0  0  0  0  0  0  0  0  0  0
   28.6970   25.9070   45.4337 O   0  0  0  0  0  0  0  0  0  0  0  0
   30.0601   24.3616   46.9191 O   0  0  0  0  0  0  0  0  0  0  0  0
   28.7638   24.6894   46.2704 P   0  0  0  0  0  0  0  0  0  0  0  0
   30.7604   24.3377   46.2483 H   0  0  0  0  0  0  0  0  0  0  0  0
   28.2988   23.4092   45.4148 O   0  0  0  0  0  0  0  0  0  0  0  0
   30.1492   21.6176   45.4466 O   0  0  0  0  0  0  0  0  0  0  0  0
   30.2342   23.5506   43.7676 O   0  0  0  0  0  0  0  0  0  0  0  0
   28.4622   21.7044   43.4975 O   0  0  0  0  0  0  0  0  0  0  0  0
   29.3369   22.5014   44.5845 P   0  0  0  0  0  0  0  0  0  0  0  0
   30.8903   23.0713   43.2377 H   0  0  0  0  0  0  0  0  0  0  0  0
   29.0440   21.1383   42.9665 H   0  0  0  0  0  0  0  0  0  0  0  0
   26.6583   25.7887   47.4337 C   0  0  0  0  0  0  0  0  0  0  0  0
   25.5139   25.4471   46.4756 C   0  0  0  0  0  0  0  0  0  0  0  0
   23.3700   26.3147   45.5664 C   0  0  0  0  0  0  0  0  0  0  0  0
   24.8587   27.7251   46.8348 O   0  0  0  0  0  0  0  0  0  0  0  0
   24.8264   26.6718   45.8698 C   0  0  0  0  0  0  0  0  0  0  0  0
   24.4062   27.4371   47.6430 H   0  0  0  0  0  0  0  0  0  0  0  0
   25.5407   27.1190   44.5868 C   0  0  0  0  0  0  0  0  0  0  0  0
   26.2970   28.4505   44.6906 C   0  0  0  0  0  0  0  0  0  0  0  0
   26.1129   29.3474   43.8710 O   0  0  0  0  0  0  0  0  0  0  0  0
   27.0837   28.6480   45.6087 O   0  0  0  0  0  0  0  0  0  0  0  0
   27.2392   27.9778   46.2448 H   0  0  0  0  0  0  0  0  0  0  0  0
 15 17  1  0  0  0
  2  4  2  0  0  0
  3  4  1  0  0  0
 16 17  1  0  0  0
  7 10  2  0  0  0
  8 10  1  0  0  0
  9 10  1  0  0  0
 10  6  1  0  0  0
  6  4  1  0  0  0
  4  1  1  0  0  0
  1 13  1  0  0  0
 13 14  1  0  0  0
 14 17  1  0  0  0
 17 19  1  0  0  0
 19 20  1  0  0  0
 20 21  2  0  0  0
 20 22  1  0  0  0
  3  5  1  0  0  0
 16 18  1  0  0  0
  8 11  1  0  0  0
  9 12  1  0  0  0
 22 23  1  0  0  0
M  END
> <minimizedAffinity>
-7.57873

$$$$
2OI2_DP6_A_300


 23 22  0  0  0  0  0  0  0  0999 V2000
   26.9394   28.5019   45.8030 O   0  0  0  0  0  0  0  0  0  0  0  0
   24.5855   27.9828   45.0318 O   0  0  0  0  0  0  0  0  0  0  0  0
   26.2203   29.1557   43.4812 O   0  0  0  0  0  0  0  0  0  0  0  0
   25.9758   28.1658   44.5623 P   0  0  0  0  0  0  0  0  0  0  0  0
   25.6422   28.9604   42.7271 H   0  0  0  0  0  0  0  0  0  0  0  0
   26.5862   26.7544   44.0905 O   0  0  0  0  0  0  0  0  0  0  0  0
   26.0032   26.1805   41.6480 O   0  0  0  0  0  0  0  0  0  0  0  0
   24.2836   25.8346   43.5150 O   0  0  0  0  0  0  0  0  0  0  0  0
   26.3419   24.2966   43.3768 O   0  0  0  0  0  0  0  0  0  0  0  0
   25.8209   25.7832   43.0598 P   0  0  0  0  0  0  0  0  0  0  0  0
   23.7548   25.2667   42.9330 H   0  0  0  0  0  0  0  0  0  0  0  0
   25.9085   23.6677   42.7790 H   0  0  0  0  0  0  0  0  0  0  0  0
   27.4731   27.4590   46.6247 C   0  0  0  0  0  0  0  0  0  0  0  0
   26.4269   27.0919   47.6806 C   0  0  0  0  0  0  0  0  0  0  0  0
   27.2539   24.8269   47.0791 C   0  0  0  0  0  0  0  0  0  0  0  0
   26.0385   25.2180   49.1246 O   0  0  0  0  0  0  0  0  0  0  0  0
   26.1136   25.5964   47.7488 C   0  0  0  0  0  0  0  0  0  0  0  0
   26.8817   25.4164   49.5610 H   0  0  0  0  0  0  0  0  0  0  0  0
   24.7826   25.2858   47.0498 C   0  0  0  0  0  0  0  0  0  0  0  0
   23.8317   24.3704   47.8331 C   0  0  0  0  0  0  0  0  0  0  0  0
   23.9845   23.1512   47.8321 O   0  0  0  0  0  0  0  0  0  0  0  0
   22.9142   24.8455   48.4914 O   0  0  0  0  0  0  0  0  0  0  0  0
   22.7794   25.7726   48.5065 H   0  0  0  0  0  0  0  0  0  0  0  0
 15 17  1  0  0  0
  2  4  2  0  0  0
  3  4  1  0  0  0
 16 17  1  0  0  0
  7 10  2  0  0  0
  8 10  1  0  0  0
  9 10  1  0  0  0
 10  6  1  0  0  0
  6  4  1  0  0  0
  4  1  1  0  0  0
  1 13  1  0  0  0
 13 14  1  0  0  0
 14 17  1  0  0  0
 17 19  1  0  0  0
 19 20  1  0  0  0
 20 21  2  0  0  0
 20 22  1  0  0  0
  3  5  1  0  0  0
 16 18  1  0  0  0
  8 11  1  0  0  0
  9 12  1  0  0  0
 22 23  1  0  0  0
M  END
> <minimizedAffinity>
-7.51016

$$$$
2OI2_DP6_A_300


 23 22  0  0  0  0  0  0  0  0999 V2000
   27.0216   28.6547   45.7298 O   0  0  0  0  0  0  0  0  0  0  0  0
   24.6495   28.0464   45.0911 O   0  0  0  0  0  0  0  0  0  0  0  0
   26.1627   29.2424   43.4380 O   0  0  0  0  0  0  0  0  0  0  0  0
   26.0070   28.2651   44.5468 P   0  0  0  0  0  0  0  0  0  0  0  0
   25.5533   29.0148   42.7185 H   0  0  0  0  0  0  0  0  0  0  0  0
   26.6385   26.8656   44.0674 O   0  0  0  0  0  0  0  0  0  0  0  0
   26.0299   26.2414   41.6436 O   0  0  0  0  0  0  0  0  0  0  0  0
   24.3371   25.9152   43.5385 O   0  0  0  0  0  0  0  0  0  0  0  0
   26.4074   24.3930   43.4025 O   0  0  0  0  0  0  0  0  0  0  0  0
   25.8690   25.8688   43.0647 P   0  0  0  0  0  0  0  0  0  0  0  0
   23.8062   25.3319   42.9739 H   0  0  0  0  0  0  0  0  0  0  0  0
   25.9721   23.7493   42.8220 H   0  0  0  0  0  0  0  0  0  0  0  0
   27.6031   27.6471   46.5631 C   0  0  0  0  0  0  0  0  0  0  0  0
   26.5052   27.0679   47.4594 C   0  0  0  0  0  0  0  0  0  0  0  0
   25.6541   25.0626   48.6554 C   0  0  0  0  0  0  0  0  0  0  0  0
   25.6710   25.1754   46.2469 O   0  0  0  0  0  0  0  0  0  0  0  0
   26.4091   25.5421   47.4141 C   0  0  0  0  0  0  0  0  0  0  0  0
   24.7892   25.5781   46.2823 H   0  0  0  0  0  0  0  0  0  0  0  0
   27.8068   24.9090   47.3666 C   0  0  0  0  0  0  0  0  0  0  0  0
   28.1213   24.1156   46.0910 C   0  0  0  0  0  0  0  0  0  0  0  0
   28.8291   24.5940   45.2076 O   0  0  0  0  0  0  0  0  0  0  0  0
   27.6867   22.9798   45.9429 O   0  0  0  0  0  0  0  0  0  0  0  0
   27.1451   22.5955   46.6039 H   0  0  0  0  0  0  0  0  0  0  0  0
 15 17  1  0  0  0
  2  4  2  0  0  0
  3  4  1  0  0  0
 16 17  1  0  0  0
  7 10  2  0  0  0
  8 10  1  0  0  0
  9 10  1  0  0  0
 10  6  1  0  0  0
  6  4  1  0  0  0
  4  1  1  0  0  0
  1 13  1  0  0  0
 13 14  1  0  0  0
 14 17  1  0  0  0
 17 19  1  0  0  0
 19 20  1  0  0  0
 20 21  2  0  0  0
 20 22  1  0  0  0
  3  5  1  0  0  0
 16 18  1  0  0  0
  8 11  1  0  0  0
  9 12  1  0  0  0
 22 23  1  0  0  0
M  END
> <minimizedAffinity>
-7.36076

$$$$
2OI2_DP6_A_300


 23 22  0  0  0  0  0  0  0  0999 V2000
   28.9007   25.6969   45.5487 O   0  0  0  0  0  0  0  0  0  0  0  0
   30.3074   24.1446   46.9686 O   0  0  0  0  0  0  0  0  0  0  0  0
   27.9739   23.4595   46.2349 O   0  0  0  0  0  0  0  0  0  0  0  0
   29.2420   24.1776   45.9435 P   0  0  0  0  0  0  0  0  0  0  0  0
   28.1705   22.5404   46.4744 H   0  0  0  0  0  0  0  0  0  0  0  0
   29.8115   23.6309   44.5421 O   0  0  0  0  0  0  0  0  0  0  0  0
   30.7625   21.6851   43.1476 O   0  0  0  0  0  0  0  0  0  0  0  0
   28.2387   21.9054   43.5283 O   0  0  0  0  0  0  0  0  0  0  0  0
   29.7700   21.2401   45.4864 O   0  0  0  0  0  0  0  0  0  0  0  0
   29.7202   22.0808   44.1179 P   0  0  0  0  0  0  0  0  0  0  0  0
   28.1088   20.9857   43.2487 H   0  0  0  0  0  0  0  0  0  0  0  0
   29.7178   20.2925   45.2858 H   0  0  0  0  0  0  0  0  0  0  0  0
   28.0070   26.4817   46.3444 C   0  0  0  0  0  0  0  0  0  0  0  0
   27.0385   27.2099   45.4084 C   0  0  0  0  0  0  0  0  0  0  0  0
   25.3011   27.2057   47.1853 C   0  0  0  0  0  0  0  0  0  0  0  0
   24.7740   27.8228   44.9147 O   0  0  0  0  0  0  0  0  0  0  0  0
   25.5639   26.9307   45.7033 C   0  0  0  0  0  0  0  0  0  0  0  0
   25.0047   28.7390   45.1342 H   0  0  0  0  0  0  0  0  0  0  0  0
   25.2053   25.4776   45.3624 C   0  0  0  0  0  0  0  0  0  0  0  0
   25.5033   25.0532   43.9178 C   0  0  0  0  0  0  0  0  0  0  0  0
   26.3581   24.2054   43.6717 O   0  0  0  0  0  0  0  0  0  0  0  0
   24.8755   25.5403   42.9853 O   0  0  0  0  0  0  0  0  0  0  0  0
   24.2191   26.1883   43.1502 H   0  0  0  0  0  0  0  0  0  0  0  0
 15 17  1  0  0  0
  2  4  2  0  0  0
  3  4  1  0  0  0
 16 17  1  0  0  0
  7 10  2  0  0  0
  8 10  1  0  0  0
  9 10  1  0  0  0
 10  6  1  0  0  0
  6  4  1  0  0  0
  4  1  1  0  0  0
  1 13  1  0  0  0
 13 14  1  0  0  0
 14 17  1  0  0  0
 17 19  1  0  0  0
 19 20  1  0  0  0
 20 21  2  0  0  0
 20 22  1  0  0  0
  3  5  1  0  0  0
 16 18  1  0  0  0
  8 11  1  0  0  0
  9 12  1  0  0  0
 22 23  1  0  0  0
M  END
> <minimizedAffinity>
-7.33435

$$$$
2OI2_DP6_A_300


 23 22  0  0  0  0  0  0  0  0999 V2000
   27.4286   25.8755   44.9570 O   0  0  0  0  0  0  0  0  0  0  0  0
   29.1244   27.0273   46.4411 O   0  0  0  0  0  0  0  0  0  0  0  0
   27.8866   24.9651   47.2586 O   0  0  0  0  0  0  0  0  0  0  0  0
   28.5068   25.7183   46.1375 P   0  0  0  0  0  0  0  0  0  0  0  0
   28.5310   24.8653   47.9766 H   0  0  0  0  0  0  0  0  0  0  0  0
   29.5818   24.7556   45.4271 O   0  0  0  0  0  0  0  0  0  0  0  0
   29.7591   22.2944   46.1660 O   0  0  0  0  0  0  0  0  0  0  0  0
   29.9874   22.9342   43.6959 O   0  0  0  0  0  0  0  0  0  0  0  0
   27.6946   23.1077   44.8510 O   0  0  0  0  0  0  0  0  0  0  0  0
   29.2776   23.2075   45.1082 P   0  0  0  0  0  0  0  0  0  0  0  0
   29.8452   22.0106   43.4359 H   0  0  0  0  0  0  0  0  0  0  0  0
   27.4565   22.1885   44.6529 H   0  0  0  0  0  0  0  0  0  0  0  0
   26.5594   27.0108   44.8997 C   0  0  0  0  0  0  0  0  0  0  0  0
   25.7432   27.0608   46.1941 C   0  0  0  0  0  0  0  0  0  0  0  0
   23.4723   26.5452   45.3263 C   0  0  0  0  0  0  0  0  0  0  0  0
   25.0797   24.7995   45.7543 O   0  0  0  0  0  0  0  0  0  0  0  0
   24.5946   26.0520   46.2418 C   0  0  0  0  0  0  0  0  0  0  0  0
   25.4072   24.9102   44.8480 H   0  0  0  0  0  0  0  0  0  0  0  0
   24.0738   25.8861   47.6763 C   0  0  0  0  0  0  0  0  0  0  0  0
   24.6637   24.7005   48.4521 C   0  0  0  0  0  0  0  0  0  0  0  0
   24.3236   23.5472   48.1986 O   0  0  0  0  0  0  0  0  0  0  0  0
   25.5024   24.8855   49.3258 O   0  0  0  0  0  0  0  0  0  0  0  0
   25.7763   25.7567   49.5354 H   0  0  0  0  0  0  0  0  0  0  0  0
 15 17  1  0  0  0
  2  4  2  0  0  0
  3  4  1  0  0  0
 16 17  1  0  0  0
  7 10  2  0  0  0
  8 10  1  0  0  0
  9 10  1  0  0  0
 10  6  1  0  0  0
  6  4  1  0  0  0
  4  1  1  0  0  0
  1 13  1  0  0  0
 13 14  1  0  0  0
 14 17  1  0  0  0
 17 19  1  0  0  0
 19 20  1  0  0  0
 20 21  2  0  0  0
 20 22  1  0  0  0
  3  5  1  0  0  0
 16 18  1  0  0  0
  8 11  1  0  0  0
  9 12  1  0  0  0
 22 23  1  0  0  0
M  END
> <minimizedAffinity>
-7.24455

$$$$
2OI2_DP6_A_300


 23 22  0  0  0  0  0  0  0  0999 V2000
   29.6412   21.7382   45.9380 O   0  0  0  0  0  0  0  0  0  0  0  0
   30.7926   21.9363   43.6930 O   0  0  0  0  0  0  0  0  0  0  0  0
   28.2955   22.3534   43.9017 O   0  0  0  0  0  0  0  0  0  0  0  0
   29.6560   22.4409   44.4934 P   0  0  0  0  0  0  0  0  0  0  0  0
   28.2949   22.7756   43.0284 H   0  0  0  0  0  0  0  0  0  0  0  0
   29.9172   23.9713   44.9139 O   0  0  0  0  0  0  0  0  0  0  0  0
   28.7437   26.0734   45.8299 O   0  0  0  0  0  0  0  0  0  0  0  0
   30.1376   24.5798   47.3756 O   0  0  0  0  0  0  0  0  0  0  0  0
   27.8852   23.7268   46.4697 O   0  0  0  0  0  0  0  0  0  0  0  0
   29.1335   24.6794   46.1286 P   0  0  0  0  0  0  0  0  0  0  0  0
   29.7288   24.9907   48.1534 H   0  0  0  0  0  0  0  0  0  0  0  0
   27.3759   24.1106   47.2006 H   0  0  0  0  0  0  0  0  0  0  0  0
   30.6494   20.7922   46.3072 C   0  0  0  0  0  0  0  0  0  0  0  0
   31.3116   21.2716   47.6018 C   0  0  0  0  0  0  0  0  0  0  0  0
   33.6642   21.0311   46.8382 C   0  0  0  0  0  0  0  0  0  0  0  0
   32.4070   23.0454   46.4180 O   0  0  0  0  0  0  0  0  0  0  0  0
   32.6295   22.0168   47.3846 C   0  0  0  0  0  0  0  0  0  0  0  0
   32.0918   22.6489   45.5907 H   0  0  0  0  0  0  0  0  0  0  0  0
   33.1288   22.6354   48.6978 C   0  0  0  0  0  0  0  0  0  0  0  0
   33.2008   24.1685   48.7116 C   0  0  0  0  0  0  0  0  0  0  0  0
   32.5200   24.8261   49.4951 O   0  0  0  0  0  0  0  0  0  0  0  0
   33.9576   24.7616   47.9523 O   0  0  0  0  0  0  0  0  0  0  0  0
   34.4859   24.2799   47.3467 H   0  0  0  0  0  0  0  0  0  0  0  0
 15 17  1  0  0  0
  2  4  2  0  0  0
  3  4  1  0  0  0
 16 17  1  0  0  0
  7 10  2  0  0  0
  8 10  1  0  0  0
  9 10  1  0  0  0
 10  6  1  0  0  0
  6  4  1  0  0  0
  4  1  1  0  0  0
  1 13  1  0  0  0
 13 14  1  0  0  0
 14 17  1  0  0  0
 17 19  1  0  0  0
 19 20  1  0  0  0
 20 21  2  0  0  0
 20 22  1  0  0  0
  3  5  1  0  0  0
 16 18  1  0  0  0
  8 11  1  0  0  0
  9 12  1  0  0  0
 22 23  1  0  0  0
M  END
> <minimizedAffinity>
-7.20290

$$$$
2OI2_DP6_A_300


 23 22  0  0  0  0  0  0  0  0999 V2000
   27.9999   26.0197   45.3777 O   0  0  0  0  0  0  0  0  0  0  0  0
   29.6589   25.1756   47.0924 O   0  0  0  0  0  0  0  0  0  0  0  0
   27.5186   23.8887   46.6277 O   0  0  0  0  0  0  0  0  0  0  0  0
   28.6260   24.7436   46.1262 P   0  0  0  0  0  0  0  0  0  0  0  0
   27.8876   23.1149   47.0815 H   0  0  0  0  0  0  0  0  0  0  0  0
   29.3163   23.9856   44.8868 O   0  0  0  0  0  0  0  0  0  0  0  0
   30.7566   22.1444   43.8050 O   0  0  0  0  0  0  0  0  0  0  0  0
   29.4926   21.6976   45.9880 O   0  0  0  0  0  0  0  0  0  0  0  0
   31.5259   23.2747   45.9921 O   0  0  0  0  0  0  0  0  0  0  0  0
   30.3138   22.7378   45.0841 P   0  0  0  0  0  0  0  0  0  0  0  0
   30.0364   20.9109   46.1505 H   0  0  0  0  0  0  0  0  0  0  0  0
   32.1603   22.5564   46.1421 H   0  0  0  0  0  0  0  0  0  0  0  0
   27.3830   27.0781   46.1173 C   0  0  0  0  0  0  0  0  0  0  0  0
   26.0051   27.3537   45.5093 C   0  0  0  0  0  0  0  0  0  0  0  0
   23.5396   27.0577   45.6096 C   0  0  0  0  0  0  0  0  0  0  0  0
   25.0366   25.1704   45.7164 O   0  0  0  0  0  0  0  0  0  0  0  0
   24.8772   26.5285   46.1309 C   0  0  0  0  0  0  0  0  0  0  0  0
   25.0088   25.1226   44.7479 H   0  0  0  0  0  0  0  0  0  0  0  0
   24.9199   26.6138   47.6630 C   0  0  0  0  0  0  0  0  0  0  0  0
   24.7495   25.2764   48.3965 C   0  0  0  0  0  0  0  0  0  0  0  0
   23.6358   24.7846   48.5633 O   0  0  0  0  0  0  0  0  0  0  0  0
   25.7277   24.6658   48.8102 O   0  0  0  0  0  0  0  0  0  0  0  0
   26.5863   25.0225   48.6937 H   0  0  0  0  0  0  0  0  0  0  0  0
 15 17  1  0  0  0
  2  4  2  0  0  0
  3  4  1  0  0  0
 16 17  1  0  0  0
  7 10  2  0  0  0
  8 10  1  0  0  0
  9 10  1  0  0  0
 10  6  1  0  0  0
  6  4  1  0  0  0
  4  1  1  0  0  0
  1 13  1  0  0  0
 13 14  1  0  0  0
 14 17  1  0  0  0
 17 19  1  0  0  0
 19 20  1  0  0  0
 20 21  2  0  0  0
 20 22  1  0  0  0
  3  5  1  0  0  0
 16 18  1  0  0  0
  8 11  1  0  0  0
  9 12  1  0  0  0
 22 23  1  0  0  0
M  END
> <minimizedAffinity>
-7.18627

$$$$
2OI2_DP6_A_300


 23 22  0  0  0  0  0  0  0  0999 V2000
   29.2619   24.6668   46.5771 O   0  0  0  0  0  0  0  0  0  0  0  0
   27.9529   22.9092   45.3112 O   0  0  0  0  0  0  0  0  0  0  0  0
   30.2080   23.7034   44.4529 O   0  0  0  0  0  0  0  0  0  0  0  0
   29.3204   23.3906   45.6031 P   0  0  0  0  0  0  0  0  0  0  0  0
   30.2494   22.9377   43.8588 H   0  0  0  0  0  0  0  0  0  0  0  0
   30.0840   22.3356   46.5470 O   0  0  0  0  0  0  0  0  0  0  0  0
   32.1440   21.5451   47.8761 O   0  0  0  0  0  0  0  0  0  0  0  0
   32.1082   23.8609   46.7814 O   0  0  0  0  0  0  0  0  0  0  0  0
   32.2611   21.7567   45.3082 O   0  0  0  0  0  0  0  0  0  0  0  0
   31.6862   22.3154   46.7008 P   0  0  0  0  0  0  0  0  0  0  0  0
   33.0712   23.9286   46.8759 H   0  0  0  0  0  0  0  0  0  0  0  0
   33.2297   21.7243   45.3480 H   0  0  0  0  0  0  0  0  0  0  0  0
   28.7165   25.9114   46.1284 C   0  0  0  0  0  0  0  0  0  0  0  0
   27.3181   26.0719   46.7308 C   0  0  0  0  0  0  0  0  0  0  0  0
   26.1024   27.9103   47.8788 C   0  0  0  0  0  0  0  0  0  0  0  0
   27.7820   28.3655   46.2098 O   0  0  0  0  0  0  0  0  0  0  0  0
   26.7229   27.4694   46.5517 C   0  0  0  0  0  0  0  0  0  0  0  0
   28.4500   28.3600   46.9132 H   0  0  0  0  0  0  0  0  0  0  0  0
   25.6607   27.4716   45.4435 C   0  0  0  0  0  0  0  0  0  0  0  0
   26.1077   28.0899   44.1117 C   0  0  0  0  0  0  0  0  0  0  0  0
   26.3606   27.3820   43.1397 O   0  0  0  0  0  0  0  0  0  0  0  0
   26.1991   29.3056   43.9910 O   0  0  0  0  0  0  0  0  0  0  0  0
   26.0108   29.8642   44.7193 H   0  0  0  0  0  0  0  0  0  0  0  0
 15 17  1  0  0  0
  2  4  2  0  0  0
  3  4  1  0  0  0
 16 17  1  0  0  0
  7 10  2  0  0  0
  8 10  1  0  0  0
  9 10  1  0  0  0
 10  6  1  0  0  0
  6  4  1  0  0  0
  4  1  1  0  0  0
  1 13  1  0  0  0
 13 14  1  0  0  0
 14 17  1  0  0  0
 17 19  1  0  0  0
 19 20  1  0  0  0
 20 21  2  0  0  0
 20 22  1  0  0  0
  3  5  1  0  0  0
 16 18  1  0  0  0
  8 11  1  0  0  0
  9 12  1  0  0  0
 22 23  1  0  0  0
M  END
> <minimizedAffinity>
-7.15920

$$$$
2OI2_DP6_A_300


 23 22  0  0  0  0  0  0  0  0999 V2000
   29.3137   24.7450   45.5322 O   0  0  0  0  0  0  0  0  0  0  0  0
   29.1925   22.2346   45.8289 O   0  0  0  0  0  0  0  0  0  0  0  0
   30.1481   23.2357   43.6988 O   0  0  0  0  0  0  0  0  0  0  0  0
   29.9547   23.3172   45.1701 P   0  0  0  0  0  0  0  0  0  0  0  0
   30.5351   22.3760   43.4707 H   0  0  0  0  0  0  0  0  0  0  0  0
   31.4031   23.4636   45.8540 O   0  0  0  0  0  0  0  0  0  0  0  0
   33.7787   22.5415   46.2298 O   0  0  0  0  0  0  0  0  0  0  0  0
   32.0190   21.1479   44.9952 O   0  0  0  0  0  0  0  0  0  0  0  0
   31.7824   21.5480   47.5261 O   0  0  0  0  0  0  0  0  0  0  0  0
   32.3434   22.1950   46.1664 P   0  0  0  0  0  0  0  0  0  0  0  0
   32.5547   20.3487   45.1185 H   0  0  0  0  0  0  0  0  0  0  0  0
   32.3179   20.7740   47.7608 H   0  0  0  0  0  0  0  0  0  0  0  0
   28.7282   24.9854   46.8157 C   0  0  0  0  0  0  0  0  0  0  0  0
   27.2135   24.7940   46.6997 C   0  0  0  0  0  0  0  0  0  0  0  0
   27.0095   27.2657   46.5416 C   0  0  0  0  0  0  0  0  0  0  0  0
   26.8211   25.8624   44.5898 O   0  0  0  0  0  0  0  0  0  0  0  0
   26.4978   25.9379   45.9795 C   0  0  0  0  0  0  0  0  0  0  0  0
   27.7823   25.9287   44.4773 H   0  0  0  0  0  0  0  0  0  0  0  0
   24.9778   25.8337   46.1670 C   0  0  0  0  0  0  0  0  0  0  0  0
   24.1372   26.4927   45.0648 C   0  0  0  0  0  0  0  0  0  0  0  0
   23.7325   27.6469   45.1835 O   0  0  0  0  0  0  0  0  0  0  0  0
   23.8735   25.8822   44.0359 O   0  0  0  0  0  0  0  0  0  0  0  0
   24.1721   25.0010   43.9244 H   0  0  0  0  0  0  0  0  0  0  0  0
 15 17  1  0  0  0
  2  4  2  0  0  0
  3  4  1  0  0  0
 16 17  1  0  0  0
  7 10  2  0  0  0
  8 10  1  0  0  0
  9 10  1  0  0  0
 10  6  1  0  0  0
  6  4  1  0  0  0
  4  1  1  0  0  0
  1 13  1  0  0  0
 13 14  1  0  0  0
 14 17  1  0  0  0
 17 19  1  0  0  0
 19 20  1  0  0  0
 20 21  2  0  0  0
 20 22  1  0  0  0
  3  5  1  0  0  0
 16 18  1  0  0  0
  8 11  1  0  0  0
  9 12  1  0  0  0
 22 23  1  0  0  0
M  END
> <minimizedAffinity>
-7.13249

$$$$
2OI2_DP6_A_300


 23 22  0  0  0  0  0  0  0  0999 V2000
   29.0629   24.3967   45.3630 O   0  0  0  0  0  0  0  0  0  0  0  0
   30.1525   22.8975   43.6396 O   0  0  0  0  0  0  0  0  0  0  0  0
   31.3870   23.5203   45.7706 O   0  0  0  0  0  0  0  0  0  0  0  0
   30.1062   23.2071   45.0849 P   0  0  0  0  0  0  0  0  0  0  0  0
   32.0237   22.8068   45.6080 H   0  0  0  0  0  0  0  0  0  0  0  0
   29.3978   22.0029   45.8820 O   0  0  0  0  0  0  0  0  0  0  0  0
   29.3204   19.5554   46.6810 O   0  0  0  0  0  0  0  0  0  0  0  0
   31.0355   21.1911   47.6534 O   0  0  0  0  0  0  0  0  0  0  0  0
   31.2812   20.3818   45.2232 O   0  0  0  0  0  0  0  0  0  0  0  0
   30.2043   20.6991   46.3727 P   0  0  0  0  0  0  0  0  0  0  0  0
   31.5521   20.4505   48.0076 H   0  0  0  0  0  0  0  0  0  0  0  0
   31.7977   19.5991   45.4711 H   0  0  0  0  0  0  0  0  0  0  0  0
   28.6232   24.6952   46.6916 C   0  0  0  0  0  0  0  0  0  0  0  0
   27.0930   24.6493   46.7164 C   0  0  0  0  0  0  0  0  0  0  0  0
   26.9729   27.1301   46.6315 C   0  0  0  0  0  0  0  0  0  0  0  0
   26.7673   25.7936   44.6350 O   0  0  0  0  0  0  0  0  0  0  0  0
   26.4261   25.8377   46.0219 C   0  0  0  0  0  0  0  0  0  0  0  0
   27.7317   25.8311   44.5380 H   0  0  0  0  0  0  0  0  0  0  0  0
   24.9008   25.7788   46.1851 C   0  0  0  0  0  0  0  0  0  0  0  0
   24.0981   26.4724   45.0759 C   0  0  0  0  0  0  0  0  0  0  0  0
   23.7530   27.6466   45.1855 O   0  0  0  0  0  0  0  0  0  0  0  0
   23.8062   25.8689   44.0504 O   0  0  0  0  0  0  0  0  0  0  0  0
   24.0594   24.9729   43.9459 H   0  0  0  0  0  0  0  0  0  0  0  0
 15 17  1  0  0  0
  2  4  2  0  0  0
  3  4  1  0  0  0
 16 17  1  0  0  0
  7 10  2  0  0  0
  8 10  1  0  0  0
  9 10  1  0  0  0
 10  6  1  0  0  0
  6  4  1  0  0  0
  4  1  1  0  0  0
  1 13  1  0  0  0
 13 14  1  0  0  0
 14 17  1  0  0  0
 17 19  1  0  0  0
 19 20  1  0  0  0
 20 21  2  0  0  0
 20 22  1  0  0  0
  3  5  1  0  0  0
 16 18  1  0  0  0
  8 11  1  0  0  0
  9 12  1  0  0  0
 22 23  1  0  0  0
M  END
> <minimizedAffinity>
-7.11010

$$$$
