4W97_UCA_A_301
  RCSB PDB12061715553D
Coordinates from PDB:4W97:A:301 Model:1 without hydrogens
 64 68  0  0  0  0            999 V2000
   -8.0650   38.8040    5.6090   C 0  0  0  0  0  0  0  0  0  0  0  0
   -9.1500   39.2760    4.8560   C 0  0  0  0  0  0  0  0  0  0  0  0
   -9.6590   38.4480    3.8290   C 0  0  0  0  0  0  0  0  0  0  0  0
   -8.5610   40.8030    6.3340   C 0  0  0  0  0  0  0  0  0  0  0  0
   -9.1020   37.2560    3.6380   N 0  0  0  0  0  0  0  0  0  0  0  0
   -7.5560   37.5630    5.3580   N 0  0  0  0  0  0  0  0  0  0  0  0
   -7.9680   44.0260   24.0290   O 0  0  0  0  0  0  0  0  0  0  0  0
   -6.9130   43.3390   23.8810   C 0  0  0  0  0  0  0  0  0  0  0  0
   -5.7730   43.6810   24.9140   C 0  0  0  0  0  0  0  0  0  0  0  0
   -4.4110   43.9640   24.3160   C 0  0  0  0  0  0  0  0  0  0  0  0
   -4.1170   43.0260   23.1610   C 0  0  0  0  0  0  0  0  0  0  0  0
   -3.8420   41.5450   23.5330   C 0  0  0  0  0  0  0  0  0  0  0  0
   -2.8890   43.2450   22.2520   C 0  0  0  0  0  0  0  0  0  0  0  0
   -1.7710   43.7020   22.4930   O 0  0  0  0  0  0  0  0  0  0  0  0
   -3.2330   43.1380   20.7890   C 0  0  0  0  0  0  0  0  0  0  0  0
   -4.6280   42.5480   20.8060   C 0  0  0  0  0  0  0  0  0  0  0  0
   -5.1830   43.1650   22.0920   C 0  0  0  0  0  0  0  0  0  0  0  0
   -6.6150   42.6830   22.4840   C 0  0  0  0  0  0  0  0  0  0  0  0
   -7.5500   43.7030   21.8070   C 0  0  0  0  0  0  0  0  0  0  0  0
   -8.1760   42.5530   21.0440   C 0  0  0  0  0  0  0  0  0  0  0  0
   -9.4520   43.1020   20.4660   C 0  0  0  0  0  0  0  0  0  0  0  0
   -9.9800   44.1280   20.8210   O 0  0  0  0  0  0  0  0  0  0  0  0
  -10.1730   42.2160   19.1570   S 0  0  0  0  0  0  0  0  0  0  0  0
  -11.8890   42.4720   19.5510   C 0  0  0  0  0  0  0  0  0  0  0  0
  -12.3530   43.2910   18.4250   C 0  0  0  0  0  0  0  0  0  0  0  0
  -11.6470   43.0830   17.2190   N 0  0  0  0  0  0  0  0  0  0  0  0
  -11.0660   44.0640   16.4950   C 0  0  0  0  0  0  0  0  0  0  0  0
  -11.2610   45.2100   16.8660   O 0  0  0  0  0  0  0  0  0  0  0  0
  -10.3220   43.6690   15.3050   C 0  0  0  0  0  0  0  0  0  0  0  0
   -9.4920   44.7540   14.8200   C 0  0  0  0  0  0  0  0  0  0  0  0
   -8.2200   44.6230   15.6460   N 0  0  0  0  0  0  0  0  0  0  0  0
   -8.0390   45.4880   16.6240   C 0  0  0  0  0  0  0  0  0  0  0  0
   -8.6260   46.5060   16.9230   O 0  0  0  0  0  0  0  0  0  0  0  0
   -6.7220   45.0740   17.2300   C 0  0  0  0  0  0  0  0  0  0  0  0
   -6.7530   45.3570   18.6710   O 0  0  0  0  0  0  0  0  0  0  0  0
   -5.3910   45.6560   16.7130   C 0  0  0  0  0  0  0  0  0  0  0  0
   -4.2270   45.0590   17.4640   C 0  0  0  0  0  0  0  0  0  0  0  0
   -5.3970   47.1490   16.9620   C 0  0  0  0  0  0  0  0  0  0  0  0
   -5.2710   45.3430   15.2350   C 0  0  0  0  0  0  0  0  0  0  0  0
   -5.1070   43.9250   14.9840   O 0  0  0  0  0  0  0  0  0  0  0  0
   -4.4460   43.4600   13.6040   P 0  0  0  0  0  0  0  0  0  0  0  0
   -3.0920   44.0670   13.3470   O 0  0  0  0  0  0  0  0  0  0  0  0
   -4.4820   41.9280   13.5930   O 0  0  0  0  0  0  0  0  0  0  0  0
   -5.3740   43.9110   12.3830   O 0  0  0  0  0  0  0  0  0  0  0  0
   -6.8040   43.2400   11.9870   P 0  0  0  0  0  0  0  0  0  0  0  0
   -7.6300   44.3660   11.3930   O 0  0  0  0  0  0  0  0  0  0  0  0
   -7.4620   42.6230   13.2340   O 0  0  0  0  0  0  0  0  0  0  0  0
   -6.5330   42.0090   10.9140   O 0  0  0  0  0  0  0  0  0  0  0  0
   -5.9890   42.3180    9.6460   C 0  0  0  0  0  0  0  0  0  0  0  0
   -5.6350   40.9750    9.0460   C 0  0  0  0  0  0  0  0  0  0  0  0
   -6.9060   40.3880    8.6710   O 0  0  0  0  0  0  0  0  0  0  0  0
   -4.7210   41.0240    7.8000   C 0  0  0  0  0  0  0  0  0  0  0  0
   -3.3310   40.2960    7.9170   O 0  0  0  0  0  0  0  0  0  0  0  0
   -1.7320   40.3860    8.3210   P 0  0  0  0  0  0  0  0  0  0  0  0
   -1.0860   39.2750    7.5150   O 0  0  0  0  0  0  0  0  0  0  0  0
   -1.5500   40.1380    9.8050   O 0  0  0  0  0  0  0  0  0  0  0  0
   -1.1430   41.7310    7.9430   O 0  0  0  0  0  0  0  0  0  0  0  0
   -5.6830   40.5670    6.7330   C 0  0  0  0  0  0  0  0  0  0  0  0
   -4.7750   39.8430    5.8160   O 0  0  0  0  0  0  0  0  0  0  0  0
   -6.6040   39.6660    7.4880   C 0  0  0  0  0  0  0  0  0  0  0  0
   -7.7160   39.7620    6.5120   N 0  0  0  0  0  0  0  0  0  0  0  0
   -9.4380   40.5470    5.3390   N 0  0  0  0  0  0  0  0  0  0  0  0
   -8.0740   36.8390    4.3990   C 0  0  0  0  0  0  0  0  0  0  0  0
  -10.6740   38.8640    3.0590   N 0  0  0  0  0  0  0  0  0  0  0  0
  1  2  2  0  0  0  0
  1  6  1  0  0  0  0
  1 61  1  0  0  0  0
  2  3  1  0  0  0  0
  2 62  1  0  0  0  0
  3  5  2  0  0  0  0
  3 64  1  0  0  0  0
  4 61  1  0  0  0  0
  4 62  2  0  0  0  0
  5 63  1  0  0  0  0
  6 63  2  0  0  0  0
  7  8  2  0  0  0  0
  8  9  1  0  0  0  0
  8 18  1  0  0  0  0
  9 10  1  0  0  0  0
 10 11  1  0  0  0  0
 11 12  1  0  0  0  0
 11 13  1  0  0  0  0
 11 17  1  0  0  0  0
 13 14  2  0  0  0  0
 13 15  1  0  0  0  0
 15 16  1  0  0  0  0
 16 17  1  0  0  0  0
 17 18  1  0  0  0  0
 18 19  1  0  0  0  0
 19 20  1  0  0  0  0
 20 21  1  0  0  0  0
 21 22  2  0  0  0  0
 21 23  1  0  0  0  0
 23 24  1  0  0  0  0
 24 25  1  0  0  0  0
 25 26  1  0  0  0  0
 26 27  1  0  0  0  0
 27 28  2  0  0  0  0
 27 29  1  0  0  0  0
 29 30  1  0  0  0  0
 30 31  1  0  0  0  0
 31 32  1  0  0  0  0
 32 33  2  0  0  0  0
 32 34  1  0  0  0  0
 34 35  1  0  0  0  0
 34 36  1  0  0  0  0
 36 37  1  0  0  0  0
 36 38  1  0  0  0  0
 36 39  1  0  0  0  0
 39 40  1  0  0  0  0
 40 41  1  0  0  0  0
 41 42  2  0  0  0  0
 41 43  1  0  0  0  0
 41 44  1  0  0  0  0
 44 45  1  0  0  0  0
 45 46  2  0  0  0  0
 45 47  1  0  0  0  0
 45 48  1  0  0  0  0
 48 49  1  0  0  0  0
 49 50  1  0  0  0  0
 50 51  1  0  0  0  0
 50 52  1  0  0  0  0
 51 60  1  0  0  0  0
 52 53  1  0  0  0  0
 52 58  1  0  0  0  0
 53 54  1  0  0  0  0
 54 55  2  0  0  0  0
 54 56  1  0  0  0  0
 54 57  1  0  0  0  0
 58 59  1  0  0  0  0
 58 60  1  0  0  0  0
 60 61  1  0  0  0  0
A    1
C4
A    2
C5
A    3
C6
A    4
C8
A    5
N1
A    6
N3
A    7
OAG
A    8
CBT
A    9
CBA
A   10
CBD
A   11
CCI
A   12
CAC
A   13
CBU
A   14
OAH
A   15
CAZ
A   16
CBC
A   17
CCD
A   18
CCC
A   19
CBB
A   20
CAY
A   21
CBS
A   22
OAF
A   23
SBQ
A   24
CAW
A   25
CAU
A   26
NBJ
A   27
CBR
A   28
OAE
A   29
CAX
A   30
CAV
A   31
NBK
A   32
CBV
A   33
OAI
A   34
CBZ
A   35
OAM
A   36
CCH
A   37
CAA
A   38
CAB
A   39
CBF
A   40
OBM
A   41
PCL
A   42
OAR
A   43
OAL
A   44
OBP
A   45
PCK
A   46
OAQ
A   47
OAK
A   48
O5'
A   49
C5'
A   50
C4'
A   51
O4'
A   52
C3'
A   53
O3'
A   54
PCJ
A   55
OAO
A   56
OAP
A   57
OAJ
A   58
C2'
A   59
O2'
A   60
C1'
A   61
N9
A   62
N7
A   63
C2
A   64
N6
M  END
>  <InstanceId>
4W97_UCA_A_301

>  <ChemCompId>
UCA

>  <PdbId>
4W97

>  <ChainId>
A

>  <ResidueNumber>
301

>  <InsertionCode>


>  <Model>
1

>  <AltIds>


>  <MissingHeavyAtoms>
0

>  <ObservedFormula>
C34 N7 O19 P3 S

>  <Name>
S-[2-[3-[[(2R)-4-[[[(2R,3S,4R,5R)-5-(6-aminopurin-9-yl)-4-oxidanyl-3-phosphonooxy-oxolan-2-yl]methoxy-oxidanyl-phosphoryl]oxy-oxidanyl-phosphoryl]oxy-3,3-dimethyl-2-oxidanyl-butanoyl]amino]propanoylamino]ethyl] 3-[(3aS,4S,7aS)-7a-methyl-1,5-bis(oxidanylidene)-2,3,3a,4,6,7-hexahydroinden-4-yl]propanethioate

>  <SystematicName>
S-[2-[3-[[(2R)-4-[[[(2R,3S,4R,5R)-5-(6-aminopurin-9-yl)-4-oxidanyl-3-phosphonooxy-oxolan-2-yl]methoxy-oxidanyl-phosphoryl]oxy-oxidanyl-phosphoryl]oxy-3,3-dimethyl-2-oxidanyl-butanoyl]amino]propanoylamino]ethyl] 3-[(3aS,4S,7aS)-7a-methyl-1,5-bis(oxidanylidene)-2,3,3a,4,6,7-hexahydroinden-4-yl]propanethioate

>  <Synonyms>
HIP-CoA

>  <Type>
NON-POLYMER

>  <Formula>
C34 H52 N7 O19 P3 S

>  <MolecularWeight>
987.798

>  <ModifiedDate>
2014-11-21

>  <Parent>


>  <OneLetterCode>


>  <SubcomponentList>


>  <AmbiguousFlag>
N

>  <InChI>
InChI=1S/C34H52N7O19P3S/c1-33(2,28(47)31(48)37-11-9-23(44)36-12-13-64-24(45)7-4-18-19-5-6-22(43)34(19,3)10-8-20(18)42)15-57-63(54,55)60-62(52,53)56-14-21-27(59-61(49,50)51)26(46)32(58-21)41-17-40-25-29(35)38-16-39-30(25)41/h16-19,21,26-28,32,46-47H,4-15H2,1-3H3,(H,36,44)(H,37,48)(H,52,53)(H,54,55)(H2,35,38,39)(H2,49,50,51)/t18-,19-,21+,26+,27+,28-,32+,34-/m0/s1

>  <InChIKey>
IWNWMTZIJPUDPV-MDQHZGBLSA-N

>  <SMILES>
C[C@]12CCC(=O)[C@H]([C@@H]1CCC2=O)CCC(=O)SCCNC(=O)CCNC(=O)[C@@H](C(C)(C)COP(=O)(O)OP(=O)(O)OC[C@@H]3[C@H]([C@H]([C@@H](O3)n4cnc5c4ncnc5N)O)OP(=O)(O)O)O

$$$$
