4W97_UCA_A_301


 74 78  0  0  0  0  0  0  0  0999 V2000
   -6.2986   46.0670   17.1967 O   0  0  0  0  0  0  0  0  0  0  0  0
   -5.5612   45.8563   15.7934 P   0  0  0  0  0  0  0  0  0  0  0  0
   -4.9047   47.1031   15.2618 O   0  0  0  0  0  0  0  0  0  0  0  0
   -4.6263   44.6540   15.9636 O   0  0  0  0  0  0  0  0  0  0  0  0
   -3.9504   44.8615   16.6276 H   0  0  0  0  0  0  0  0  0  0  0  0
   -6.6250   45.4084   14.6874 O   0  0  0  0  0  0  0  0  0  0  0  0
   -7.8155   44.3198   14.9100 P   0  0  0  0  0  0  0  0  0  0  0  0
   -9.1072   45.1147   14.8579 O   0  0  0  0  0  0  0  0  0  0  0  0
   -7.6250   43.5954   16.2545 O   0  0  0  0  0  0  0  0  0  0  0  0
   -7.6766   44.2388   16.9786 H   0  0  0  0  0  0  0  0  0  0  0  0
   -7.7181   43.1762   13.7172 O   0  0  0  0  0  0  0  0  0  0  0  0
   -7.1025   43.5208   12.4918 C   0  0  0  0  0  0  0  0  0  0  0  0
   -6.1045   42.4115   12.2420 C   0  0  0  0  0  0  0  0  0  0  0  0
   -6.7260   41.5704   11.2385 O   0  0  0  0  0  0  0  0  0  0  0  0
   -4.7207   42.8668   11.7240 C   0  0  0  0  0  0  0  0  0  0  0  0
   -4.7597   42.3250   10.3177 C   0  0  0  0  0  0  0  0  0  0  0  0
   -3.3345   41.9950   10.0954 O   0  0  0  0  0  0  0  0  0  0  0  0
   -5.6319   41.1207   10.4558 C   0  0  0  0  0  0  0  0  0  0  0  0
   -3.0132   41.4419   10.8245 H   0  0  0  0  0  0  0  0  0  0  0  0
   -5.3507   40.3333    8.0664 C   0  0  0  0  0  0  0  0  0  0  0  0
   -5.9881   40.5473    6.8356 C   0  0  0  0  0  0  0  0  0  0  0  0
   -5.4550   39.9130    5.6898 C   0  0  0  0  0  0  0  0  0  0  0  0
   -7.0184   41.7008    8.4075 C   0  0  0  0  0  0  0  0  0  0  0  0
   -4.3907   39.1293    5.8337 N   0  0  0  0  0  0  0  0  0  0  0  0
   -4.2682   39.5050    8.1329 N   0  0  0  0  0  0  0  0  0  0  0  0
   -5.9999   41.0560    9.0210 N   0  0  0  0  0  0  0  0  0  0  0  0
   -7.0395   41.4210    7.0862 N   0  0  0  0  0  0  0  0  0  0  0  0
   -3.8247   38.9398    7.0393 C   0  0  0  0  0  0  0  0  0  0  0  0
   -6.0065   40.1091    4.4841 N   0  0  0  0  0  0  0  0  0  0  0  0
   -6.7945   40.6921    4.3923 H   0  0  0  0  0  0  0  0  0  0  0  0
   -5.6237   39.6702    3.6904 H   0  0  0  0  0  0  0  0  0  0  0  0
   -3.4807   42.5173   12.6272 O   0  0  0  0  0  0  0  0  0  0  0  0
   -2.7652   41.4618   13.6770 P   0  0  0  0  0  0  0  0  0  0  0  0
   -2.9830   40.1033   13.0381 O   0  0  0  0  0  0  0  0  0  0  0  0
   -3.4441   41.5251   15.0305 O   0  0  0  0  0  0  0  0  0  0  0  0
   -1.2841   41.7504   13.8248 O   0  0  0  0  0  0  0  0  0  0  0  0
   -4.3904   41.3394   14.9266 H   0  0  0  0  0  0  0  0  0  0  0  0
   -0.8579   41.7078   12.9544 H   0  0  0  0  0  0  0  0  0  0  0  0
   -6.5330   47.4185   17.6646 C   0  0  0  0  0  0  0  0  0  0  0  0
   -7.7734   47.5215   18.5294 C   0  0  0  0  0  0  0  0  0  0  0  0
   -8.0255   46.2096   19.2298 C   0  0  0  0  0  0  0  0  0  0  0  0
   -7.6233   48.5975   19.5833 C   0  0  0  0  0  0  0  0  0  0  0  0
   -8.9690   47.8904   17.6283 C   0  0  0  0  0  0  0  0  0  0  0  0
   -8.5856   47.4929   16.2671 O   0  0  0  0  0  0  0  0  0  0  0  0
   -8.4848   46.5290   16.2281 H   0  0  0  0  0  0  0  0  0  0  0  0
  -10.6820   46.7250   16.8134 N   0  0  0  0  0  0  0  0  0  0  0  0
  -10.3520   47.3644   17.9178 C   0  0  0  0  0  0  0  0  0  0  0  0
  -10.9954   47.6699   18.8991 O   0  0  0  0  0  0  0  0  0  0  0  0
  -10.0701   46.6859   16.0431 H   0  0  0  0  0  0  0  0  0  0  0  0
  -12.0456   46.0494   16.7747 C   0  0  0  0  0  0  0  0  0  0  0  0
  -11.7279   44.6413   16.9076 C   0  0  0  0  0  0  0  0  0  0  0  0
  -11.9128   42.8203   18.4608 N   0  0  0  0  0  0  0  0  0  0  0  0
  -12.1805   44.1162   18.1902 C   0  0  0  0  0  0  0  0  0  0  0  0
  -12.8325   44.7278   19.0208 O   0  0  0  0  0  0  0  0  0  0  0  0
  -11.4651   42.2890   17.7633 H   0  0  0  0  0  0  0  0  0  0  0  0
  -12.2316   42.1755   19.6768 C   0  0  0  0  0  0  0  0  0  0  0  0
  -11.0846   41.5697   20.3635 C   0  0  0  0  0  0  0  0  0  0  0  0
  -10.1545   42.9939   20.8852 S   0  0  0  0  0  0  0  0  0  0  0  0
   -8.6856   42.7047   20.0038 C   0  0  0  0  0  0  0  0  0  0  0  0
   -8.7216   42.7615   18.7985 O   0  0  0  0  0  0  0  0  0  0  0  0
   -7.4636   42.3496   20.8066 C   0  0  0  0  0  0  0  0  0  0  0  0
   -7.2598   43.5052   21.7655 C   0  0  0  0  0  0  0  0  0  0  0  0
   -7.8081   43.9359   23.9404 O   0  0  0  0  0  0  0  0  0  0  0  0
   -6.6925   43.3366   23.8843 C   0  0  0  0  0  0  0  0  0  0  0  0
   -5.6358   43.8454   24.9370 C   0  0  0  0  0  0  0  0  0  0  0  0
   -4.2763   44.2077   24.3773 C   0  0  0  0  0  0  0  0  0  0  0  0
   -3.8491   43.2252   23.3037 C   0  0  0  0  0  0  0  0  0  0  0  0
   -3.4665   41.8021   23.7893 C   0  0  0  0  0  0  0  0  0  0  0  0
   -2.6029   43.4915   22.4330 C   0  0  0  0  0  0  0  0  0  0  0  0
   -1.5406   44.0604   22.6874 O   0  0  0  0  0  0  0  0  0  0  0  0
   -2.8671   43.2582   20.9681 C   0  0  0  0  0  0  0  0  0  0  0  0
   -4.2059   42.5496   20.9688 C   0  0  0  0  0  0  0  0  0  0  0  0
   -4.8715   43.1986   22.1846 C   0  0  0  0  0  0  0  0  0  0  0  0
   -6.2740   42.6188   22.5500 C   0  0  0  0  0  0  0  0  0  0  0  0
 20 21  2  0  0  0
 20 25  1  0  0  0
 20 26  1  0  0  0
 21 22  1  0  0  0
 21 27  1  0  0  0
 22 24  2  0  0  0
 22 29  1  0  0  0
 23 26  1  0  0  0
 23 27  2  0  0  0
 24 28  1  0  0  0
 25 28  2  0  0  0
 63 64  2  0  0  0
 64 65  1  0  0  0
 64 74  1  0  0  0
 65 66  1  0  0  0
 66 67  1  0  0  0
 67 68  1  0  0  0
 67 69  1  0  0  0
 67 73  1  0  0  0
 69 70  2  0  0  0
 69 71  1  0  0  0
 71 72  1  0  0  0
 72 73  1  0  0  0
 73 74  1  0  0  0
 74 62  1  0  0  0
 62 61  1  0  0  0
 61 59  1  0  0  0
 59 60  2  0  0  0
 59 58  1  0  0  0
 58 57  1  0  0  0
 57 56  1  0  0  0
 56 52  1  0  0  0
 52 53  1  0  0  0
 53 54  2  0  0  0
 53 51  1  0  0  0
 51 50  1  0  0  0
 50 46  1  0  0  0
 46 47  1  0  0  0
 47 48  2  0  0  0
 47 43  1  0  0  0
 43 44  1  0  0  0
 43 40  1  0  0  0
 40 41  1  0  0  0
 40 42  1  0  0  0
 40 39  1  0  0  0
 39  1  1  0  0  0
  1  2  1  0  0  0
  2  3  2  0  0  0
  2  4  1  0  0  0
  2  6  1  0  0  0
  6  7  1  0  0  0
  7  8  2  0  0  0
  7  9  1  0  0  0
  7 11  1  0  0  0
 11 12  1  0  0  0
 12 13  1  0  0  0
 13 14  1  0  0  0
 13 15  1  0  0  0
 14 18  1  0  0  0
 15 32  1  0  0  0
 15 16  1  0  0  0
 32 33  1  0  0  0
 33 34  2  0  0  0
 33 35  1  0  0  0
 33 36  1  0  0  0
 16 17  1  0  0  0
 16 18  1  0  0  0
 18 26  1  0  0  0
 52 55  1  0  0  0
 46 49  1  0  0  0
 44 45  1  0  0  0
  4  5  1  0  0  0
  9 10  1  0  0  0
 35 37  1  0  0  0
 36 38  1  0  0  0
 17 19  1  0  0  0
 29 30  1  0  0  0
 29 31  1  0  0  0
M  END
> <minimizedAffinity>
-10.97729

$$$$
4W97_UCA_A_301


 74 78  0  0  0  0  0  0  0  0999 V2000
   -5.3249   47.2016   15.8366 O   0  0  0  0  0  0  0  0  0  0  0  0
   -3.8605   47.8277   15.6912 P   0  0  0  0  0  0  0  0  0  0  0  0
   -3.3499   48.4717   16.9530 O   0  0  0  0  0  0  0  0  0  0  0  0
   -2.9649   46.7237   15.1188 O   0  0  0  0  0  0  0  0  0  0  0  0
   -2.9138   45.9890   15.7501 H   0  0  0  0  0  0  0  0  0  0  0  0
   -3.8736   48.9767   14.5799 O   0  0  0  0  0  0  0  0  0  0  0  0
   -3.0139   48.9613   13.1969 P   0  0  0  0  0  0  0  0  0  0  0  0
   -1.5843   48.6650   13.6111 O   0  0  0  0  0  0  0  0  0  0  0  0
   -3.1484   50.3141   12.4755 O   0  0  0  0  0  0  0  0  0  0  0  0
   -2.7876   51.0175   13.0375 H   0  0  0  0  0  0  0  0  0  0  0  0
   -3.6434   47.8044   12.1941 O   0  0  0  0  0  0  0  0  0  0  0  0
   -4.2633   48.2108   10.9900 C   0  0  0  0  0  0  0  0  0  0  0  0
   -5.1064   47.0245   10.5766 C   0  0  0  0  0  0  0  0  0  0  0  0
   -4.2853   45.8655   10.8650 O   0  0  0  0  0  0  0  0  0  0  0  0
   -6.4552   46.8774   11.3177 C   0  0  0  0  0  0  0  0  0  0  0  0
   -6.1903   45.6357   12.1307 C   0  0  0  0  0  0  0  0  0  0  0  0
   -7.5371   45.0242   12.1717 O   0  0  0  0  0  0  0  0  0  0  0  0
   -5.2247   44.8846   11.2742 C   0  0  0  0  0  0  0  0  0  0  0  0
   -7.8877   44.9537   11.2700 H   0  0  0  0  0  0  0  0  0  0  0  0
   -3.7304   43.0904   12.2520 C   0  0  0  0  0  0  0  0  0  0  0  0
   -3.4972   42.5279   13.5154 C   0  0  0  0  0  0  0  0  0  0  0  0
   -2.5629   41.4709   13.6122 C   0  0  0  0  0  0  0  0  0  0  0  0
   -5.0278   44.1063   13.6846 C   0  0  0  0  0  0  0  0  0  0  0  0
   -1.9352   41.0736   12.5096 N   0  0  0  0  0  0  0  0  0  0  0  0
   -3.0368   42.6334   11.1693 N   0  0  0  0  0  0  0  0  0  0  0  0
   -4.6794   44.0591   12.3785 N   0  0  0  0  0  0  0  0  0  0  0  0
   -4.3375   43.1925   14.4008 N   0  0  0  0  0  0  0  0  0  0  0  0
   -2.1790   41.6572   11.3223 C   0  0  0  0  0  0  0  0  0  0  0  0
   -2.3263   40.8768   14.7900 N   0  0  0  0  0  0  0  0  0  0  0  0
   -2.7984   41.1813   15.5985 H   0  0  0  0  0  0  0  0  0  0  0  0
   -1.6804   40.1360   14.8467 H   0  0  0  0  0  0  0  0  0  0  0  0
   -7.7548   46.9298   10.4322 O   0  0  0  0  0  0  0  0  0  0  0  0
   -8.6206   46.2970    9.1760 P   0  0  0  0  0  0  0  0  0  0  0  0
   -8.0782   47.0171    7.9560 O   0  0  0  0  0  0  0  0  0  0  0  0
  -10.0964   46.5931    9.3528 O   0  0  0  0  0  0  0  0  0  0  0  0
   -8.4018   44.8017    9.0539 O   0  0  0  0  0  0  0  0  0  0  0  0
  -10.2270   47.5511    9.4301 H   0  0  0  0  0  0  0  0  0  0  0  0
   -7.4553   44.6216    8.9411 H   0  0  0  0  0  0  0  0  0  0  0  0
   -6.0094   47.3184   17.1088 C   0  0  0  0  0  0  0  0  0  0  0  0
   -6.7215   46.0388   17.4991 C   0  0  0  0  0  0  0  0  0  0  0  0
   -5.8845   45.2611   18.4840 C   0  0  0  0  0  0  0  0  0  0  0  0
   -8.0608   46.3271   18.1427 C   0  0  0  0  0  0  0  0  0  0  0  0
   -6.9665   45.2067   16.2243 C   0  0  0  0  0  0  0  0  0  0  0  0
   -6.8578   43.8003   16.6338 O   0  0  0  0  0  0  0  0  0  0  0  0
   -7.5718   43.5883   17.2552 H   0  0  0  0  0  0  0  0  0  0  0  0
   -8.7944   44.1937   15.4567 N   0  0  0  0  0  0  0  0  0  0  0  0
   -8.2244   45.3814   15.4118 C   0  0  0  0  0  0  0  0  0  0  0  0
   -8.4702   46.3728   14.7582 O   0  0  0  0  0  0  0  0  0  0  0  0
   -8.3779   43.4449   15.9415 H   0  0  0  0  0  0  0  0  0  0  0  0
  -10.1214   44.0244   14.7303 C   0  0  0  0  0  0  0  0  0  0  0  0
  -10.8410   43.0776   15.5591 C   0  0  0  0  0  0  0  0  0  0  0  0
  -11.7220   42.8781   17.7832 N   0  0  0  0  0  0  0  0  0  0  0  0
  -11.2934   43.6975   16.7988 C   0  0  0  0  0  0  0  0  0  0  0  0
  -11.3749   44.8969   17.0076 O   0  0  0  0  0  0  0  0  0  0  0  0
  -11.7460   41.9116   17.5977 H   0  0  0  0  0  0  0  0  0  0  0  0
  -12.1382   43.3139   19.0611 C   0  0  0  0  0  0  0  0  0  0  0  0
  -11.3562   42.7660   20.1756 C   0  0  0  0  0  0  0  0  0  0  0  0
  -10.0545   43.9653   20.3564 S   0  0  0  0  0  0  0  0  0  0  0  0
   -8.7171   43.0116   19.7905 C   0  0  0  0  0  0  0  0  0  0  0  0
   -8.6137   42.8201   18.6030 O   0  0  0  0  0  0  0  0  0  0  0  0
   -7.7945   42.4393   20.8320 C   0  0  0  0  0  0  0  0  0  0  0  0
   -7.3129   43.6262   21.6418 C   0  0  0  0  0  0  0  0  0  0  0  0
   -7.8672   43.9775   23.8294 O   0  0  0  0  0  0  0  0  0  0  0  0
   -6.7732   43.3413   23.7554 C   0  0  0  0  0  0  0  0  0  0  0  0
   -5.7096   43.7633   24.8390 C   0  0  0  0  0  0  0  0  0  0  0  0
   -4.3325   44.1010   24.3079 C   0  0  0  0  0  0  0  0  0  0  0  0
   -3.9301   43.1534   23.1942 C   0  0  0  0  0  0  0  0  0  0  0  0
   -3.6035   41.6968   23.6174 C   0  0  0  0  0  0  0  0  0  0  0  0
   -2.6664   43.4135   22.3470 C   0  0  0  0  0  0  0  0  0  0  0  0
   -1.5870   43.9315   22.6359 O   0  0  0  0  0  0  0  0  0  0  0  0
   -2.9242   43.2566   20.8708 C   0  0  0  0  0  0  0  0  0  0  0  0
   -4.2874   42.5977   20.8279 C   0  0  0  0  0  0  0  0  0  0  0  0
   -4.9415   43.2146   22.0665 C   0  0  0  0  0  0  0  0  0  0  0  0
   -6.3675   42.6700   22.3933 C   0  0  0  0  0  0  0  0  0  0  0  0
 20 21  2  0  0  0
 20 25  1  0  0  0
 20 26  1  0  0  0
 21 22  1  0  0  0
 21 27  1  0  0  0
 22 24  2  0  0  0
 22 29  1  0  0  0
 23 26  1  0  0  0
 23 27  2  0  0  0
 24 28  1  0  0  0
 25 28  2  0  0  0
 63 64  2  0  0  0
 64 65  1  0  0  0
 64 74  1  0  0  0
 65 66  1  0  0  0
 66 67  1  0  0  0
 67 68  1  0  0  0
 67 69  1  0  0  0
 67 73  1  0  0  0
 69 70  2  0  0  0
 69 71  1  0  0  0
 71 72  1  0  0  0
 72 73  1  0  0  0
 73 74  1  0  0  0
 74 62  1  0  0  0
 62 61  1  0  0  0
 61 59  1  0  0  0
 59 60  2  0  0  0
 59 58  1  0  0  0
 58 57  1  0  0  0
 57 56  1  0  0  0
 56 52  1  0  0  0
 52 53  1  0  0  0
 53 54  2  0  0  0
 53 51  1  0  0  0
 51 50  1  0  0  0
 50 46  1  0  0  0
 46 47  1  0  0  0
 47 48  2  0  0  0
 47 43  1  0  0  0
 43 44  1  0  0  0
 43 40  1  0  0  0
 40 41  1  0  0  0
 40 42  1  0  0  0
 40 39  1  0  0  0
 39  1  1  0  0  0
  1  2  1  0  0  0
  2  3  2  0  0  0
  2  4  1  0  0  0
  2  6  1  0  0  0
  6  7  1  0  0  0
  7  8  2  0  0  0
  7  9  1  0  0  0
  7 11  1  0  0  0
 11 12  1  0  0  0
 12 13  1  0  0  0
 13 14  1  0  0  0
 13 15  1  0  0  0
 14 18  1  0  0  0
 15 32  1  0  0  0
 15 16  1  0  0  0
 32 33  1  0  0  0
 33 34  2  0  0  0
 33 35  1  0  0  0
 33 36  1  0  0  0
 16 17  1  0  0  0
 16 18  1  0  0  0
 18 26  1  0  0  0
 52 55  1  0  0  0
 46 49  1  0  0  0
 44 45  1  0  0  0
  4  5  1  0  0  0
  9 10  1  0  0  0
 35 37  1  0  0  0
 36 38  1  0  0  0
 17 19  1  0  0  0
 29 30  1  0  0  0
 29 31  1  0  0  0
M  END
> <minimizedAffinity>
-10.89674

$$$$
4W97_UCA_A_301


 74 78  0  0  0  0  0  0  0  0999 V2000
   -4.1349   45.2026   15.2739 O   0  0  0  0  0  0  0  0  0  0  0  0
   -5.3887   44.8321   14.3529 P   0  0  0  0  0  0  0  0  0  0  0  0
   -6.2318   43.7111   14.9011 O   0  0  0  0  0  0  0  0  0  0  0  0
   -6.1423   46.1400   14.0885 O   0  0  0  0  0  0  0  0  0  0  0  0
   -6.4813   46.4929   14.9260 H   0  0  0  0  0  0  0  0  0  0  0  0
   -4.8785   44.3437   12.9189 O   0  0  0  0  0  0  0  0  0  0  0  0
   -5.8340   43.9771   11.6522 P   0  0  0  0  0  0  0  0  0  0  0  0
   -5.3917   44.8981   10.5301 O   0  0  0  0  0  0  0  0  0  0  0  0
   -7.3125   44.1783   12.0294 O   0  0  0  0  0  0  0  0  0  0  0  0
   -7.4654   45.1098   12.2524 H   0  0  0  0  0  0  0  0  0  0  0  0
   -5.6342   42.3758   11.2833 O   0  0  0  0  0  0  0  0  0  0  0  0
   -6.6546   41.7094   10.5665 C   0  0  0  0  0  0  0  0  0  0  0  0
   -5.9177   40.7464    9.6617 C   0  0  0  0  0  0  0  0  0  0  0  0
   -6.9592   39.9874    8.9985 O   0  0  0  0  0  0  0  0  0  0  0  0
   -5.0164   41.3999    8.5889 C   0  0  0  0  0  0  0  0  0  0  0  0
   -5.7768   41.0466    7.3360 C   0  0  0  0  0  0  0  0  0  0  0  0
   -4.6735   40.8908    6.3625 O   0  0  0  0  0  0  0  0  0  0  0  0
   -6.4293   39.7546    7.7035 C   0  0  0  0  0  0  0  0  0  0  0  0
   -4.0097   40.2810    6.7209 H   0  0  0  0  0  0  0  0  0  0  0  0
   -7.9205   38.8192    5.8843 C   0  0  0  0  0  0  0  0  0  0  0  0
   -8.9206   39.3045    5.0292 C   0  0  0  0  0  0  0  0  0  0  0  0
   -9.4890   38.4099    4.0931 C   0  0  0  0  0  0  0  0  0  0  0  0
   -8.2069   40.9380    6.3274 C   0  0  0  0  0  0  0  0  0  0  0  0
   -9.0662   37.1495    4.0799 N   0  0  0  0  0  0  0  0  0  0  0  0
   -7.5491   37.5079    5.8156 N   0  0  0  0  0  0  0  0  0  0  0  0
   -7.4923   39.8431    6.6738 N   0  0  0  0  0  0  0  0  0  0  0  0
   -9.0763   40.6515    5.3340 N   0  0  0  0  0  0  0  0  0  0  0  0
   -8.1166   36.7257    4.9334 C   0  0  0  0  0  0  0  0  0  0  0  0
  -10.4255   38.8301    3.2314 N   0  0  0  0  0  0  0  0  0  0  0  0
  -10.7292   39.7664    3.2525 H   0  0  0  0  0  0  0  0  0  0  0  0
  -10.8097   38.2026    2.5774 H   0  0  0  0  0  0  0  0  0  0  0  0
   -3.4818   41.0587    8.6551 O   0  0  0  0  0  0  0  0  0  0  0  0
   -2.2496   40.2935    9.4453 P   0  0  0  0  0  0  0  0  0  0  0  0
   -1.0695   41.2328    9.2833 O   0  0  0  0  0  0  0  0  0  0  0  0
   -1.9562   38.9575    8.7927 O   0  0  0  0  0  0  0  0  0  0  0  0
   -2.5755   40.0945   10.9126 O   0  0  0  0  0  0  0  0  0  0  0  0
   -1.7490   39.0942    7.8550 H   0  0  0  0  0  0  0  0  0  0  0  0
   -2.7617   40.9539   11.3219 H   0  0  0  0  0  0  0  0  0  0  0  0
   -3.4918   46.4885   15.0908 C   0  0  0  0  0  0  0  0  0  0  0  0
   -3.5494   47.3441   16.3404 C   0  0  0  0  0  0  0  0  0  0  0  0
   -2.1774   47.4499   16.9582 C   0  0  0  0  0  0  0  0  0  0  0  0
   -4.0355   48.7433   16.0289 C   0  0  0  0  0  0  0  0  0  0  0  0
   -4.5386   46.6977   17.3310 C   0  0  0  0  0  0  0  0  0  0  0  0
   -3.7436   45.7712   18.1478 O   0  0  0  0  0  0  0  0  0  0  0  0
   -3.1004   46.2731   18.6725 H   0  0  0  0  0  0  0  0  0  0  0  0
   -6.6169   47.1275   18.0035 N   0  0  0  0  0  0  0  0  0  0  0  0
   -5.3896   47.5440   18.2435 C   0  0  0  0  0  0  0  0  0  0  0  0
   -4.9641   48.4866   18.8765 O   0  0  0  0  0  0  0  0  0  0  0  0
   -6.7966   46.4200   17.3428 H   0  0  0  0  0  0  0  0  0  0  0  0
   -7.7459   47.7824   18.7870 C   0  0  0  0  0  0  0  0  0  0  0  0
   -8.7671   48.0067   17.7829 C   0  0  0  0  0  0  0  0  0  0  0  0
   -9.6436   45.8154   17.3441 N   0  0  0  0  0  0  0  0  0  0  0  0
   -8.9028   46.8540   16.9005 C   0  0  0  0  0  0  0  0  0  0  0  0
   -8.3582   46.7177   15.8171 O   0  0  0  0  0  0  0  0  0  0  0  0
  -10.0167   45.8732   18.2533 H   0  0  0  0  0  0  0  0  0  0  0  0
   -9.9193   44.6517   16.5919 C   0  0  0  0  0  0  0  0  0  0  0  0
   -9.2189   43.4478   17.0545 C   0  0  0  0  0  0  0  0  0  0  0  0
   -9.6317   43.4054   18.7846 S   0  0  0  0  0  0  0  0  0  0  0  0
   -8.0352   43.5472   19.4549 C   0  0  0  0  0  0  0  0  0  0  0  0
   -7.2205   44.2071   18.8563 O   0  0  0  0  0  0  0  0  0  0  0  0
   -7.7553   42.7896   20.7243 C   0  0  0  0  0  0  0  0  0  0  0  0
   -7.3212   43.8351   21.7318 C   0  0  0  0  0  0  0  0  0  0  0  0
   -7.7669   44.0645   23.9600 O   0  0  0  0  0  0  0  0  0  0  0  0
   -6.7210   43.3673   23.7959 C   0  0  0  0  0  0  0  0  0  0  0  0
   -5.5911   43.6432   24.8594 C   0  0  0  0  0  0  0  0  0  0  0  0
   -4.2160   43.9299   24.2941 C   0  0  0  0  0  0  0  0  0  0  0  0
   -3.9200   43.0402   23.1020 C   0  0  0  0  0  0  0  0  0  0  0  0
   -3.6745   41.5395   23.4103 C   0  0  0  0  0  0  0  0  0  0  0  0
   -2.6753   43.2793   22.2213 C   0  0  0  0  0  0  0  0  0  0  0  0
   -1.5538   43.7062   22.4985 O   0  0  0  0  0  0  0  0  0  0  0  0
   -2.9992   43.2442   20.7502 C   0  0  0  0  0  0  0  0  0  0  0  0
   -4.4037   42.6775   20.7208 C   0  0  0  0  0  0  0  0  0  0  0  0
   -4.9677   43.2451   22.0255 C   0  0  0  0  0  0  0  0  0  0  0  0
   -6.4129   42.7701   22.3750 C   0  0  0  0  0  0  0  0  0  0  0  0
 20 21  2  0  0  0
 20 25  1  0  0  0
 20 26  1  0  0  0
 21 22  1  0  0  0
 21 27  1  0  0  0
 22 24  2  0  0  0
 22 29  1  0  0  0
 23 26  1  0  0  0
 23 27  2  0  0  0
 24 28  1  0  0  0
 25 28  2  0  0  0
 63 64  2  0  0  0
 64 65  1  0  0  0
 64 74  1  0  0  0
 65 66  1  0  0  0
 66 67  1  0  0  0
 67 68  1  0  0  0
 67 69  1  0  0  0
 67 73  1  0  0  0
 69 70  2  0  0  0
 69 71  1  0  0  0
 71 72  1  0  0  0
 72 73  1  0  0  0
 73 74  1  0  0  0
 74 62  1  0  0  0
 62 61  1  0  0  0
 61 59  1  0  0  0
 59 60  2  0  0  0
 59 58  1  0  0  0
 58 57  1  0  0  0
 57 56  1  0  0  0
 56 52  1  0  0  0
 52 53  1  0  0  0
 53 54  2  0  0  0
 53 51  1  0  0  0
 51 50  1  0  0  0
 50 46  1  0  0  0
 46 47  1  0  0  0
 47 48  2  0  0  0
 47 43  1  0  0  0
 43 44  1  0  0  0
 43 40  1  0  0  0
 40 41  1  0  0  0
 40 42  1  0  0  0
 40 39  1  0  0  0
 39  1  1  0  0  0
  1  2  1  0  0  0
  2  3  2  0  0  0
  2  4  1  0  0  0
  2  6  1  0  0  0
  6  7  1  0  0  0
  7  8  2  0  0  0
  7  9  1  0  0  0
  7 11  1  0  0  0
 11 12  1  0  0  0
 12 13  1  0  0  0
 13 14  1  0  0  0
 13 15  1  0  0  0
 14 18  1  0  0  0
 15 32  1  0  0  0
 15 16  1  0  0  0
 32 33  1  0  0  0
 33 34  2  0  0  0
 33 35  1  0  0  0
 33 36  1  0  0  0
 16 17  1  0  0  0
 16 18  1  0  0  0
 18 26  1  0  0  0
 52 55  1  0  0  0
 46 49  1  0  0  0
 44 45  1  0  0  0
  4  5  1  0  0  0
  9 10  1  0  0  0
 35 37  1  0  0  0
 36 38  1  0  0  0
 17 19  1  0  0  0
 29 30  1  0  0  0
 29 31  1  0  0  0
M  END
> <minimizedAffinity>
-10.85381

$$$$
4W97_UCA_A_301


 74 78  0  0  0  0  0  0  0  0999 V2000
   -6.3277   46.7126   18.0644 O   0  0  0  0  0  0  0  0  0  0  0  0
   -4.8612   47.1815   17.6321 P   0  0  0  0  0  0  0  0  0  0  0  0
   -4.3776   48.4061   18.3632 O   0  0  0  0  0  0  0  0  0  0  0  0
   -3.9527   45.9534   17.7537 O   0  0  0  0  0  0  0  0  0  0  0  0
   -3.9142   45.6702   18.6807 H   0  0  0  0  0  0  0  0  0  0  0  0
   -4.8520   47.5589   16.0788 O   0  0  0  0  0  0  0  0  0  0  0  0
   -3.5541   48.0740   15.2408 P   0  0  0  0  0  0  0  0  0  0  0  0
   -2.4218   47.1434   15.6341 O   0  0  0  0  0  0  0  0  0  0  0  0
   -3.2528   49.5439   15.5833 O   0  0  0  0  0  0  0  0  0  0  0  0
   -3.0416   49.6192   16.5270 H   0  0  0  0  0  0  0  0  0  0  0  0
   -3.9061   48.0078   13.6247 O   0  0  0  0  0  0  0  0  0  0  0  0
   -3.4620   46.8937   12.8758 C   0  0  0  0  0  0  0  0  0  0  0  0
   -4.6678   45.9835   12.7959 C   0  0  0  0  0  0  0  0  0  0  0  0
   -4.6923   45.5174   11.4237 O   0  0  0  0  0  0  0  0  0  0  0  0
   -4.6393   44.7584   13.7386 C   0  0  0  0  0  0  0  0  0  0  0  0
   -4.4877   43.6420   12.7369 C   0  0  0  0  0  0  0  0  0  0  0  0
   -5.2396   42.5540   13.4006 O   0  0  0  0  0  0  0  0  0  0  0  0
   -5.1782   44.1891   11.5311 C   0  0  0  0  0  0  0  0  0  0  0  0
   -6.1214   42.8742   13.6473 H   0  0  0  0  0  0  0  0  0  0  0  0
   -5.0611   42.2431    9.9163 C   0  0  0  0  0  0  0  0  0  0  0  0
   -4.0862   41.6389    9.1092 C   0  0  0  0  0  0  0  0  0  0  0  0
   -4.4539   40.4956    8.3628 C   0  0  0  0  0  0  0  0  0  0  0  0
   -3.1991   43.3537   10.1748 C   0  0  0  0  0  0  0  0  0  0  0  0
   -5.7071   40.0592    8.4433 N   0  0  0  0  0  0  0  0  0  0  0  0
   -6.3297   41.7406    9.9360 N   0  0  0  0  0  0  0  0  0  0  0  0
   -4.4923   43.2960   10.5666 N   0  0  0  0  0  0  0  0  0  0  0  0
   -2.9166   42.3655    9.2982 N   0  0  0  0  0  0  0  0  0  0  0  0
   -6.6125   40.6841    9.2176 C   0  0  0  0  0  0  0  0  0  0  0  0
   -3.5525   39.8612    7.6004 N   0  0  0  0  0  0  0  0  0  0  0  0
   -2.6278   40.1955    7.5502 H   0  0  0  0  0  0  0  0  0  0  0  0
   -3.8150   39.0610    7.0906 H   0  0  0  0  0  0  0  0  0  0  0  0
   -5.7960   44.6599   14.8007 O   0  0  0  0  0  0  0  0  0  0  0  0
   -7.4125   44.5024   15.1011 P   0  0  0  0  0  0  0  0  0  0  0  0
   -7.9915   45.8499   14.7134 O   0  0  0  0  0  0  0  0  0  0  0  0
   -7.6494   44.2281   16.5727 O   0  0  0  0  0  0  0  0  0  0  0  0
   -8.0240   43.3977   14.2617 O   0  0  0  0  0  0  0  0  0  0  0  0
   -7.2553   44.9392   17.1017 H   0  0  0  0  0  0  0  0  0  0  0  0
   -7.8677   43.5814   13.3222 H   0  0  0  0  0  0  0  0  0  0  0  0
   -7.4728   47.4095   17.5132 C   0  0  0  0  0  0  0  0  0  0  0  0
   -8.5953   47.5591   18.5203 C   0  0  0  0  0  0  0  0  0  0  0  0
   -8.3435   46.6681   19.7112 C   0  0  0  0  0  0  0  0  0  0  0  0
   -8.7073   48.9856   19.0139 C   0  0  0  0  0  0  0  0  0  0  0  0
   -9.9227   47.1792   17.8336 C   0  0  0  0  0  0  0  0  0  0  0  0
   -9.8723   45.7246   17.6358 O   0  0  0  0  0  0  0  0  0  0  0  0
   -9.8596   45.2812   18.4985 H   0  0  0  0  0  0  0  0  0  0  0  0
  -11.5558   46.4839   19.1774 N   0  0  0  0  0  0  0  0  0  0  0  0
  -11.2492   47.5409   18.4521 C   0  0  0  0  0  0  0  0  0  0  0  0
  -11.8884   48.5244   18.1445 O   0  0  0  0  0  0  0  0  0  0  0  0
  -10.9642   45.6976   19.2106 H   0  0  0  0  0  0  0  0  0  0  0  0
  -12.8598   46.5255   19.9619 C   0  0  0  0  0  0  0  0  0  0  0  0
  -13.7419   45.6681   19.1950 C   0  0  0  0  0  0  0  0  0  0  0  0
  -12.8432   43.4855   19.6322 N   0  0  0  0  0  0  0  0  0  0  0  0
  -13.0468   44.4726   18.7332 C   0  0  0  0  0  0  0  0  0  0  0  0
  -12.5791   44.3058   17.6185 O   0  0  0  0  0  0  0  0  0  0  0  0
  -13.1362   43.6415   20.5591 H   0  0  0  0  0  0  0  0  0  0  0  0
  -12.2385   42.2442   19.3329 C   0  0  0  0  0  0  0  0  0  0  0  0
  -11.2739   41.7793   20.3366 C   0  0  0  0  0  0  0  0  0  0  0  0
  -10.4137   43.2769   20.7638 S   0  0  0  0  0  0  0  0  0  0  0  0
   -8.8698   42.9243   20.0493 C   0  0  0  0  0  0  0  0  0  0  0  0
   -8.7435   43.0750   18.8582 O   0  0  0  0  0  0  0  0  0  0  0  0
   -7.7954   42.4011   20.9634 C   0  0  0  0  0  0  0  0  0  0  0  0
   -7.3135   43.6031   21.7505 C   0  0  0  0  0  0  0  0  0  0  0  0
   -7.8210   44.0021   23.9413 O   0  0  0  0  0  0  0  0  0  0  0  0
   -6.7276   43.3662   23.8577 C   0  0  0  0  0  0  0  0  0  0  0  0
   -5.6416   43.8138   24.9084 C   0  0  0  0  0  0  0  0  0  0  0  0
   -4.2770   44.1418   24.3401 C   0  0  0  0  0  0  0  0  0  0  0  0
   -3.8969   43.1702   23.2392 C   0  0  0  0  0  0  0  0  0  0  0  0
   -3.5582   41.7239   23.6875 C   0  0  0  0  0  0  0  0  0  0  0  0
   -2.6524   43.4134   22.3593 C   0  0  0  0  0  0  0  0  0  0  0  0
   -1.5680   43.9393   22.6131 O   0  0  0  0  0  0  0  0  0  0  0  0
   -2.9418   43.2232   20.8929 C   0  0  0  0  0  0  0  0  0  0  0  0
   -4.3042   42.5614   20.8942 C   0  0  0  0  0  0  0  0  0  0  0  0
   -4.9326   43.2047   22.1327 C   0  0  0  0  0  0  0  0  0  0  0  0
   -6.3500   42.6653   22.5024 C   0  0  0  0  0  0  0  0  0  0  0  0
 20 21  2  0  0  0
 20 25  1  0  0  0
 20 26  1  0  0  0
 21 22  1  0  0  0
 21 27  1  0  0  0
 22 24  2  0  0  0
 22 29  1  0  0  0
 23 26  1  0  0  0
 23 27  2  0  0  0
 24 28  1  0  0  0
 25 28  2  0  0  0
 63 64  2  0  0  0
 64 65  1  0  0  0
 64 74  1  0  0  0
 65 66  1  0  0  0
 66 67  1  0  0  0
 67 68  1  0  0  0
 67 69  1  0  0  0
 67 73  1  0  0  0
 69 70  2  0  0  0
 69 71  1  0  0  0
 71 72  1  0  0  0
 72 73  1  0  0  0
 73 74  1  0  0  0
 74 62  1  0  0  0
 62 61  1  0  0  0
 61 59  1  0  0  0
 59 60  2  0  0  0
 59 58  1  0  0  0
 58 57  1  0  0  0
 57 56  1  0  0  0
 56 52  1  0  0  0
 52 53  1  0  0  0
 53 54  2  0  0  0
 53 51  1  0  0  0
 51 50  1  0  0  0
 50 46  1  0  0  0
 46 47  1  0  0  0
 47 48  2  0  0  0
 47 43  1  0  0  0
 43 44  1  0  0  0
 43 40  1  0  0  0
 40 41  1  0  0  0
 40 42  1  0  0  0
 40 39  1  0  0  0
 39  1  1  0  0  0
  1  2  1  0  0  0
  2  3  2  0  0  0
  2  4  1  0  0  0
  2  6  1  0  0  0
  6  7  1  0  0  0
  7  8  2  0  0  0
  7  9  1  0  0  0
  7 11  1  0  0  0
 11 12  1  0  0  0
 12 13  1  0  0  0
 13 14  1  0  0  0
 13 15  1  0  0  0
 14 18  1  0  0  0
 15 32  1  0  0  0
 15 16  1  0  0  0
 32 33  1  0  0  0
 33 34  2  0  0  0
 33 35  1  0  0  0
 33 36  1  0  0  0
 16 17  1  0  0  0
 16 18  1  0  0  0
 18 26  1  0  0  0
 52 55  1  0  0  0
 46 49  1  0  0  0
 44 45  1  0  0  0
  4  5  1  0  0  0
  9 10  1  0  0  0
 35 37  1  0  0  0
 36 38  1  0  0  0
 17 19  1  0  0  0
 29 30  1  0  0  0
 29 31  1  0  0  0
M  END
> <minimizedAffinity>
-10.76184

$$$$
4W97_UCA_A_301


 74 78  0  0  0  0  0  0  0  0999 V2000
   -4.3486   46.8277   16.6621 O   0  0  0  0  0  0  0  0  0  0  0  0
   -3.5153   47.2631   15.3684 P   0  0  0  0  0  0  0  0  0  0  0  0
   -4.1540   48.3793   14.5849 O   0  0  0  0  0  0  0  0  0  0  0  0
   -2.0834   47.5390   15.8396 O   0  0  0  0  0  0  0  0  0  0  0  0
   -2.0849   48.2857   16.4587 H   0  0  0  0  0  0  0  0  0  0  0  0
   -3.3958   46.0262   14.3628 O   0  0  0  0  0  0  0  0  0  0  0  0
   -3.2043   46.1372   12.7495 P   0  0  0  0  0  0  0  0  0  0  0  0
   -2.1343   45.1205   12.3969 O   0  0  0  0  0  0  0  0  0  0  0  0
   -2.8025   47.5715   12.3621 O   0  0  0  0  0  0  0  0  0  0  0  0
   -1.9526   47.7917   12.7744 H   0  0  0  0  0  0  0  0  0  0  0  0
   -4.6558   45.8192   12.0201 O   0  0  0  0  0  0  0  0  0  0  0  0
   -5.8483   46.0760   12.7352 C   0  0  0  0  0  0  0  0  0  0  0  0
   -6.8103   45.0057   12.2684 C   0  0  0  0  0  0  0  0  0  0  0  0
   -6.3679   44.6651   10.9308 O   0  0  0  0  0  0  0  0  0  0  0  0
   -6.8410   43.7199   13.1263 C   0  0  0  0  0  0  0  0  0  0  0  0
   -6.2264   42.7325   12.1671 C   0  0  0  0  0  0  0  0  0  0  0  0
   -6.9390   41.4892   12.5361 O   0  0  0  0  0  0  0  0  0  0  0  0
   -6.6318   43.2747   10.8361 C   0  0  0  0  0  0  0  0  0  0  0  0
   -7.8955   41.6500   12.5274 H   0  0  0  0  0  0  0  0  0  0  0  0
   -5.7176   41.9467    8.8844 C   0  0  0  0  0  0  0  0  0  0  0  0
   -4.4811   41.4060    8.5028 C   0  0  0  0  0  0  0  0  0  0  0  0
   -4.4197   40.6671    7.2988 C   0  0  0  0  0  0  0  0  0  0  0  0
   -4.2625   42.4514   10.4322 C   0  0  0  0  0  0  0  0  0  0  0  0
   -5.5275   40.5364    6.5754 N   0  0  0  0  0  0  0  0  0  0  0  0
   -6.8073   41.7772    8.0806 N   0  0  0  0  0  0  0  0  0  0  0  0
   -5.5611   42.5841   10.0778 N   0  0  0  0  0  0  0  0  0  0  0  0
   -3.5807   41.7417    9.5070 N   0  0  0  0  0  0  0  0  0  0  0  0
   -6.6873   41.0897    6.9737 C   0  0  0  0  0  0  0  0  0  0  0  0
   -3.2702   40.1023    6.9042 N   0  0  0  0  0  0  0  0  0  0  0  0
   -2.4575   40.2072    7.4497 H   0  0  0  0  0  0  0  0  0  0  0  0
   -3.2386   39.5824    6.0687 H   0  0  0  0  0  0  0  0  0  0  0  0
   -8.2158   43.3546   13.7989 O   0  0  0  0  0  0  0  0  0  0  0  0
   -9.5007   43.8424   14.7149 P   0  0  0  0  0  0  0  0  0  0  0  0
   -9.8727   45.1944   14.1362 O   0  0  0  0  0  0  0  0  0  0  0  0
   -9.0881   43.9833   16.1664 O   0  0  0  0  0  0  0  0  0  0  0  0
  -10.6612   42.8739   14.5964 O   0  0  0  0  0  0  0  0  0  0  0  0
   -8.3457   44.6041   16.2327 H   0  0  0  0  0  0  0  0  0  0  0  0
  -10.9184   42.7899   13.6649 H   0  0  0  0  0  0  0  0  0  0  0  0
   -5.7596   46.5311   16.5146 C   0  0  0  0  0  0  0  0  0  0  0  0
   -6.5554   46.8874   17.7542 C   0  0  0  0  0  0  0  0  0  0  0  0
   -6.7878   45.6544   18.5914 C   0  0  0  0  0  0  0  0  0  0  0  0
   -5.8255   47.9044   18.6050 C   0  0  0  0  0  0  0  0  0  0  0  0
   -7.8995   47.5010   17.3132 C   0  0  0  0  0  0  0  0  0  0  0  0
   -8.2189   46.8843   16.0189 O   0  0  0  0  0  0  0  0  0  0  0  0
   -8.3652   45.9333   16.1412 H   0  0  0  0  0  0  0  0  0  0  0  0
   -9.9766   46.7209   17.4959 N   0  0  0  0  0  0  0  0  0  0  0  0
   -9.1160   47.4278   18.2009 C   0  0  0  0  0  0  0  0  0  0  0  0
   -9.2378   48.0609   19.2278 O   0  0  0  0  0  0  0  0  0  0  0  0
   -9.7488   46.3849   16.5989 H   0  0  0  0  0  0  0  0  0  0  0  0
  -11.3364   46.4439   18.1218 C   0  0  0  0  0  0  0  0  0  0  0  0
  -12.0118   45.6431   17.1199 C   0  0  0  0  0  0  0  0  0  0  0  0
  -12.3463   44.0959   18.9245 N   0  0  0  0  0  0  0  0  0  0  0  0
  -12.2311   44.2811   17.5916 C   0  0  0  0  0  0  0  0  0  0  0  0
  -12.2626   43.2811   16.8930 O   0  0  0  0  0  0  0  0  0  0  0  0
  -12.2345   44.8808   19.5081 H   0  0  0  0  0  0  0  0  0  0  0  0
  -12.6162   42.8522   19.5381 C   0  0  0  0  0  0  0  0  0  0  0  0
  -11.7839   42.5585   20.7106 C   0  0  0  0  0  0  0  0  0  0  0  0
  -10.3030   41.9024   19.9745 S   0  0  0  0  0  0  0  0  0  0  0  0
   -9.1674   43.0984   20.5210 C   0  0  0  0  0  0  0  0  0  0  0  0
   -9.4587   44.2631   20.3944 O   0  0  0  0  0  0  0  0  0  0  0  0
   -7.8609   42.5995   21.0758 C   0  0  0  0  0  0  0  0  0  0  0  0
   -7.2895   43.7580   21.8683 C   0  0  0  0  0  0  0  0  0  0  0  0
   -7.7463   44.0966   24.0803 O   0  0  0  0  0  0  0  0  0  0  0  0
   -6.6812   43.4206   23.9554 C   0  0  0  0  0  0  0  0  0  0  0  0
   -5.5617   43.7854   25.0029 C   0  0  0  0  0  0  0  0  0  0  0  0
   -4.1938   44.0787   24.4237 C   0  0  0  0  0  0  0  0  0  0  0  0
   -3.8708   43.1336   23.2824 C   0  0  0  0  0  0  0  0  0  0  0  0
   -3.5847   41.6594   23.6726 C   0  0  0  0  0  0  0  0  0  0  0  0
   -2.6311   43.3585   22.3908 C   0  0  0  0  0  0  0  0  0  0  0  0
   -1.5224   43.8307   22.6450 O   0  0  0  0  0  0  0  0  0  0  0  0
   -2.9507   43.2339   20.9236 C   0  0  0  0  0  0  0  0  0  0  0  0
   -4.3389   42.6279   20.9242 C   0  0  0  0  0  0  0  0  0  0  0  0
   -4.9213   43.2503   22.1955 C   0  0  0  0  0  0  0  0  0  0  0  0
   -6.3536   42.7552   22.5695 C   0  0  0  0  0  0  0  0  0  0  0  0
 20 21  2  0  0  0
 20 25  1  0  0  0
 20 26  1  0  0  0
 21 22  1  0  0  0
 21 27  1  0  0  0
 22 24  2  0  0  0
 22 29  1  0  0  0
 23 26  1  0  0  0
 23 27  2  0  0  0
 24 28  1  0  0  0
 25 28  2  0  0  0
 63 64  2  0  0  0
 64 65  1  0  0  0
 64 74  1  0  0  0
 65 66  1  0  0  0
 66 67  1  0  0  0
 67 68  1  0  0  0
 67 69  1  0  0  0
 67 73  1  0  0  0
 69 70  2  0  0  0
 69 71  1  0  0  0
 71 72  1  0  0  0
 72 73  1  0  0  0
 73 74  1  0  0  0
 74 62  1  0  0  0
 62 61  1  0  0  0
 61 59  1  0  0  0
 59 60  2  0  0  0
 59 58  1  0  0  0
 58 57  1  0  0  0
 57 56  1  0  0  0
 56 52  1  0  0  0
 52 53  1  0  0  0
 53 54  2  0  0  0
 53 51  1  0  0  0
 51 50  1  0  0  0
 50 46  1  0  0  0
 46 47  1  0  0  0
 47 48  2  0  0  0
 47 43  1  0  0  0
 43 44  1  0  0  0
 43 40  1  0  0  0
 40 41  1  0  0  0
 40 42  1  0  0  0
 40 39  1  0  0  0
 39  1  1  0  0  0
  1  2  1  0  0  0
  2  3  2  0  0  0
  2  4  1  0  0  0
  2  6  1  0  0  0
  6  7  1  0  0  0
  7  8  2  0  0  0
  7  9  1  0  0  0
  7 11  1  0  0  0
 11 12  1  0  0  0
 12 13  1  0  0  0
 13 14  1  0  0  0
 13 15  1  0  0  0
 14 18  1  0  0  0
 15 32  1  0  0  0
 15 16  1  0  0  0
 32 33  1  0  0  0
 33 34  2  0  0  0
 33 35  1  0  0  0
 33 36  1  0  0  0
 16 17  1  0  0  0
 16 18  1  0  0  0
 18 26  1  0  0  0
 52 55  1  0  0  0
 46 49  1  0  0  0
 44 45  1  0  0  0
  4  5  1  0  0  0
  9 10  1  0  0  0
 35 37  1  0  0  0
 36 38  1  0  0  0
 17 19  1  0  0  0
 29 30  1  0  0  0
 29 31  1  0  0  0
M  END
> <minimizedAffinity>
-10.66274

$$$$
4W97_UCA_A_301


 74 78  0  0  0  0  0  0  0  0999 V2000
   -4.6279   44.6097   16.2088 O   0  0  0  0  0  0  0  0  0  0  0  0
   -4.8173   43.9522   14.7633 P   0  0  0  0  0  0  0  0  0  0  0  0
   -6.2579   43.7428   14.3780 O   0  0  0  0  0  0  0  0  0  0  0  0
   -4.0013   44.8019   13.7831 O   0  0  0  0  0  0  0  0  0  0  0  0
   -4.3662   45.7001   13.7524 H   0  0  0  0  0  0  0  0  0  0  0  0
   -4.1353   42.5067   14.7352 O   0  0  0  0  0  0  0  0  0  0  0  0
   -3.3612   41.8536   13.4600 P   0  0  0  0  0  0  0  0  0  0  0  0
   -3.5409   40.3533   13.6011 O   0  0  0  0  0  0  0  0  0  0  0  0
   -1.8800   42.2716   13.4697 O   0  0  0  0  0  0  0  0  0  0  0  0
   -1.4547   41.9362   14.2744 H   0  0  0  0  0  0  0  0  0  0  0  0
   -4.0317   42.4514   12.0697 O   0  0  0  0  0  0  0  0  0  0  0  0
   -3.5748   41.9577   10.8260 C   0  0  0  0  0  0  0  0  0  0  0  0
   -4.5963   42.4477    9.8233 C   0  0  0  0  0  0  0  0  0  0  0  0
   -4.2946   41.7277    8.6021 O   0  0  0  0  0  0  0  0  0  0  0  0
   -6.0736   42.1927   10.2010 C   0  0  0  0  0  0  0  0  0  0  0  0
   -6.4491   41.1607    9.1681 C   0  0  0  0  0  0  0  0  0  0  0  0
   -7.8746   41.4853    8.9399 O   0  0  0  0  0  0  0  0  0  0  0  0
   -5.5688   41.5169    8.0156 C   0  0  0  0  0  0  0  0  0  0  0  0
   -7.9633   42.4308    8.7423 H   0  0  0  0  0  0  0  0  0  0  0  0
   -6.6574   39.7336    6.5863 C   0  0  0  0  0  0  0  0  0  0  0  0
   -6.3659   38.4208    6.1880 C   0  0  0  0  0  0  0  0  0  0  0  0
   -7.3108   37.7431    5.3834 C   0  0  0  0  0  0  0  0  0  0  0  0
   -4.7352   39.1816    7.4627 C   0  0  0  0  0  0  0  0  0  0  0  0
   -8.4185   38.3853    5.0251 N   0  0  0  0  0  0  0  0  0  0  0  0
   -7.8124   40.3273    6.1672 N   0  0  0  0  0  0  0  0  0  0  0  0
   -5.6408   40.1823    7.3738 N   0  0  0  0  0  0  0  0  0  0  0  0
   -5.1418   38.1002    6.7628 N   0  0  0  0  0  0  0  0  0  0  0  0
   -8.6453   39.6521    5.4171 C   0  0  0  0  0  0  0  0  0  0  0  0
   -7.0963   36.4765    5.0015 N   0  0  0  0  0  0  0  0  0  0  0  0
   -6.2716   36.0131    5.2741 H   0  0  0  0  0  0  0  0  0  0  0  0
   -7.7635   36.0095    4.4483 H   0  0  0  0  0  0  0  0  0  0  0  0
   -6.9896   43.4622   10.3588 O   0  0  0  0  0  0  0  0  0  0  0  0
   -7.1155   45.0563   10.7727 P   0  0  0  0  0  0  0  0  0  0  0  0
   -6.8537   45.7952    9.4740 O   0  0  0  0  0  0  0  0  0  0  0  0
   -6.0671   45.4152   11.8066 O   0  0  0  0  0  0  0  0  0  0  0  0
   -8.4990   45.3807   11.3015 O   0  0  0  0  0  0  0  0  0  0  0  0
   -5.1859   45.2045   11.4602 H   0  0  0  0  0  0  0  0  0  0  0  0
   -9.1630   45.1479   10.6338 H   0  0  0  0  0  0  0  0  0  0  0  0
   -4.7185   46.0506   16.3361 C   0  0  0  0  0  0  0  0  0  0  0  0
   -5.6331   46.4722   17.4686 C   0  0  0  0  0  0  0  0  0  0  0  0
   -5.6032   45.4405   18.5686 C   0  0  0  0  0  0  0  0  0  0  0  0
   -5.2072   47.8005   18.0562 C   0  0  0  0  0  0  0  0  0  0  0  0
   -7.0628   46.6257   16.9118 C   0  0  0  0  0  0  0  0  0  0  0  0
   -6.9336   46.5742   15.4495 O   0  0  0  0  0  0  0  0  0  0  0  0
   -6.6158   45.6971   15.1837 H   0  0  0  0  0  0  0  0  0  0  0  0
   -8.3305   44.9038   16.2917 N   0  0  0  0  0  0  0  0  0  0  0  0
   -8.1669   45.6909   17.3363 C   0  0  0  0  0  0  0  0  0  0  0  0
   -8.8130   45.8315   18.3527 O   0  0  0  0  0  0  0  0  0  0  0  0
   -7.7906   45.0177   15.4763 H   0  0  0  0  0  0  0  0  0  0  0  0
   -9.3864   43.8121   16.3944 C   0  0  0  0  0  0  0  0  0  0  0  0
  -10.6332   44.5322   16.2255 C   0  0  0  0  0  0  0  0  0  0  0  0
  -11.2859   44.2148   18.5136 N   0  0  0  0  0  0  0  0  0  0  0  0
  -11.6234   44.1125   17.2099 C   0  0  0  0  0  0  0  0  0  0  0  0
  -12.7122   43.6211   16.9609 O   0  0  0  0  0  0  0  0  0  0  0  0
  -10.3772   44.5264   18.7293 H   0  0  0  0  0  0  0  0  0  0  0  0
  -12.1483   43.9049   19.5890 C   0  0  0  0  0  0  0  0  0  0  0  0
  -11.5500   43.0523   20.6229 C   0  0  0  0  0  0  0  0  0  0  0  0
   -9.9338   43.7690   20.8225 S   0  0  0  0  0  0  0  0  0  0  0  0
   -8.9756   42.4857   20.1492 C   0  0  0  0  0  0  0  0  0  0  0  0
   -9.4256   41.8651   19.2165 O   0  0  0  0  0  0  0  0  0  0  0  0
   -7.6559   42.1963   20.8113 C   0  0  0  0  0  0  0  0  0  0  0  0
   -7.3444   43.4226   21.6454 C   0  0  0  0  0  0  0  0  0  0  0  0
   -7.9290   43.8819   23.8050 O   0  0  0  0  0  0  0  0  0  0  0  0
   -6.8054   43.2957   23.7745 C   0  0  0  0  0  0  0  0  0  0  0  0
   -5.7702   43.8348   24.8334 C   0  0  0  0  0  0  0  0  0  0  0  0
   -4.4073   44.2047   24.2871 C   0  0  0  0  0  0  0  0  0  0  0  0
   -3.9529   43.2102   23.2360 C   0  0  0  0  0  0  0  0  0  0  0  0
   -3.5599   41.8001   23.7503 C   0  0  0  0  0  0  0  0  0  0  0  0
   -2.6977   43.4777   22.3787 C   0  0  0  0  0  0  0  0  0  0  0  0
   -1.6462   44.0639   22.6385 O   0  0  0  0  0  0  0  0  0  0  0  0
   -2.9381   43.2173   20.9142 C   0  0  0  0  0  0  0  0  0  0  0  0
   -4.2680   42.4921   20.9077 C   0  0  0  0  0  0  0  0  0  0  0  0
   -4.9588   43.1526   22.1032 C   0  0  0  0  0  0  0  0  0  0  0  0
   -6.3592   42.5614   22.4583 C   0  0  0  0  0  0  0  0  0  0  0  0
 20 21  2  0  0  0
 20 25  1  0  0  0
 20 26  1  0  0  0
 21 22  1  0  0  0
 21 27  1  0  0  0
 22 24  2  0  0  0
 22 29  1  0  0  0
 23 26  1  0  0  0
 23 27  2  0  0  0
 24 28  1  0  0  0
 25 28  2  0  0  0
 63 64  2  0  0  0
 64 65  1  0  0  0
 64 74  1  0  0  0
 65 66  1  0  0  0
 66 67  1  0  0  0
 67 68  1  0  0  0
 67 69  1  0  0  0
 67 73  1  0  0  0
 69 70  2  0  0  0
 69 71  1  0  0  0
 71 72  1  0  0  0
 72 73  1  0  0  0
 73 74  1  0  0  0
 74 62  1  0  0  0
 62 61  1  0  0  0
 61 59  1  0  0  0
 59 60  2  0  0  0
 59 58  1  0  0  0
 58 57  1  0  0  0
 57 56  1  0  0  0
 56 52  1  0  0  0
 52 53  1  0  0  0
 53 54  2  0  0  0
 53 51  1  0  0  0
 51 50  1  0  0  0
 50 46  1  0  0  0
 46 47  1  0  0  0
 47 48  2  0  0  0
 47 43  1  0  0  0
 43 44  1  0  0  0
 43 40  1  0  0  0
 40 41  1  0  0  0
 40 42  1  0  0  0
 40 39  1  0  0  0
 39  1  1  0  0  0
  1  2  1  0  0  0
  2  3  2  0  0  0
  2  4  1  0  0  0
  2  6  1  0  0  0
  6  7  1  0  0  0
  7  8  2  0  0  0
  7  9  1  0  0  0
  7 11  1  0  0  0
 11 12  1  0  0  0
 12 13  1  0  0  0
 13 14  1  0  0  0
 13 15  1  0  0  0
 14 18  1  0  0  0
 15 32  1  0  0  0
 15 16  1  0  0  0
 32 33  1  0  0  0
 33 34  2  0  0  0
 33 35  1  0  0  0
 33 36  1  0  0  0
 16 17  1  0  0  0
 16 18  1  0  0  0
 18 26  1  0  0  0
 52 55  1  0  0  0
 46 49  1  0  0  0
 44 45  1  0  0  0
  4  5  1  0  0  0
  9 10  1  0  0  0
 35 37  1  0  0  0
 36 38  1  0  0  0
 17 19  1  0  0  0
 29 30  1  0  0  0
 29 31  1  0  0  0
M  END
> <minimizedAffinity>
-10.61689

$$$$
4W97_UCA_A_301


 74 78  0  0  0  0  0  0  0  0999 V2000
  -11.2570   44.4013   17.3444 O   0  0  0  0  0  0  0  0  0  0  0  0
  -10.1370   43.4552   16.7057 P   0  0  0  0  0  0  0  0  0  0  0  0
   -9.5180   42.4999   17.6916 O   0  0  0  0  0  0  0  0  0  0  0  0
  -10.7673   42.7969   15.4737 O   0  0  0  0  0  0  0  0  0  0  0  0
  -11.5089   42.2363   15.7505 H   0  0  0  0  0  0  0  0  0  0  0  0
   -8.9377   44.3470   16.1383 O   0  0  0  0  0  0  0  0  0  0  0  0
   -8.6257   44.6160   14.5628 P   0  0  0  0  0  0  0  0  0  0  0  0
   -7.8131   45.8971   14.5230 O   0  0  0  0  0  0  0  0  0  0  0  0
   -9.9428   44.7307   13.7750 O   0  0  0  0  0  0  0  0  0  0  0  0
  -10.4530   45.4863   14.1062 H   0  0  0  0  0  0  0  0  0  0  0  0
   -7.8014   43.3151   13.9560 O   0  0  0  0  0  0  0  0  0  0  0  0
   -6.8541   43.5280   12.9281 C   0  0  0  0  0  0  0  0  0  0  0  0
   -5.5444   43.7402   13.6551 C   0  0  0  0  0  0  0  0  0  0  0  0
   -4.8529   42.4704   13.5549 O   0  0  0  0  0  0  0  0  0  0  0  0
   -4.6361   44.8500   13.0777 C   0  0  0  0  0  0  0  0  0  0  0  0
   -3.5010   44.0221   12.5310 C   0  0  0  0  0  0  0  0  0  0  0  0
   -2.3538   44.9342   12.7343 O   0  0  0  0  0  0  0  0  0  0  0  0
   -3.4882   42.8414   13.4453 C   0  0  0  0  0  0  0  0  0  0  0  0
   -2.3401   45.2361   13.6561 H   0  0  0  0  0  0  0  0  0  0  0  0
   -1.4205   41.8710   12.3540 C   0  0  0  0  0  0  0  0  0  0  0  0
   -1.1358   40.9288   11.3549 C   0  0  0  0  0  0  0  0  0  0  0  0
    0.2183   40.7096   11.0117 C   0  0  0  0  0  0  0  0  0  0  0  0
   -3.3195   41.0771   11.6251 C   0  0  0  0  0  0  0  0  0  0  0  0
    1.1576   41.3883   11.6633 N   0  0  0  0  0  0  0  0  0  0  0  0
   -0.3981   42.5191   12.9839 N   0  0  0  0  0  0  0  0  0  0  0  0
   -2.7721   41.9490   12.5024 N   0  0  0  0  0  0  0  0  0  0  0  0
   -2.3615   40.4462   10.9116 N   0  0  0  0  0  0  0  0  0  0  0  0
    0.8361   42.2688   12.6282 C   0  0  0  0  0  0  0  0  0  0  0  0
    0.5435   39.8437   10.0419 N   0  0  0  0  0  0  0  0  0  0  0  0
   -0.1625   39.3478    9.5677 H   0  0  0  0  0  0  0  0  0  0  0  0
    1.4884   39.7035    9.8037 H   0  0  0  0  0  0  0  0  0  0  0  0
   -4.2940   46.0500   14.0363 O   0  0  0  0  0  0  0  0  0  0  0  0
   -4.0784   46.5908   15.5819 P   0  0  0  0  0  0  0  0  0  0  0  0
   -5.1092   47.6935   15.7329 O   0  0  0  0  0  0  0  0  0  0  0  0
   -2.6791   47.1471   15.7538 O   0  0  0  0  0  0  0  0  0  0  0  0
   -4.3262   45.4871   16.5915 O   0  0  0  0  0  0  0  0  0  0  0  0
   -2.5294   47.8520   15.1045 H   0  0  0  0  0  0  0  0  0  0  0  0
   -5.2233   45.1372   16.4743 H   0  0  0  0  0  0  0  0  0  0  0  0
  -12.3029   43.7990   18.1469 C   0  0  0  0  0  0  0  0  0  0  0  0
  -12.3998   44.4196   19.5262 C   0  0  0  0  0  0  0  0  0  0  0  0
  -12.5344   43.3396   20.5706 C   0  0  0  0  0  0  0  0  0  0  0  0
  -11.1686   45.2383   19.8505 C   0  0  0  0  0  0  0  0  0  0  0  0
  -13.6249   45.3554   19.5569 C   0  0  0  0  0  0  0  0  0  0  0  0
  -13.4134   46.2591   20.6953 O   0  0  0  0  0  0  0  0  0  0  0  0
  -12.6348   46.8129   20.5283 H   0  0  0  0  0  0  0  0  0  0  0  0
  -12.9334   46.8968   18.1070 N   0  0  0  0  0  0  0  0  0  0  0  0
  -14.0084   46.1738   18.3501 C   0  0  0  0  0  0  0  0  0  0  0  0
  -15.1320   46.2165   17.8964 O   0  0  0  0  0  0  0  0  0  0  0  0
  -12.1308   46.8257   18.6727 H   0  0  0  0  0  0  0  0  0  0  0  0
  -12.9805   47.8459   16.9177 C   0  0  0  0  0  0  0  0  0  0  0  0
  -11.7046   47.6310   16.2642 C   0  0  0  0  0  0  0  0  0  0  0  0
   -9.5414   47.1790   17.2017 N   0  0  0  0  0  0  0  0  0  0  0  0
  -10.5962   48.0192   17.1283 C   0  0  0  0  0  0  0  0  0  0  0  0
  -10.5598   49.0105   17.8389 O   0  0  0  0  0  0  0  0  0  0  0  0
   -9.5940   46.3318   16.7028 H   0  0  0  0  0  0  0  0  0  0  0  0
   -8.3675   47.4331   17.9457 C   0  0  0  0  0  0  0  0  0  0  0  0
   -7.3852   46.3430   17.9242 C   0  0  0  0  0  0  0  0  0  0  0  0
   -7.6546   45.5535   19.4957 S   0  0  0  0  0  0  0  0  0  0  0  0
   -6.8703   44.0353   19.1822 C   0  0  0  0  0  0  0  0  0  0  0  0
   -6.3949   43.8528   18.0876 O   0  0  0  0  0  0  0  0  0  0  0  0
   -6.8791   43.0180   20.2907 C   0  0  0  0  0  0  0  0  0  0  0  0
   -7.0564   43.8135   21.5683 C   0  0  0  0  0  0  0  0  0  0  0  0
   -7.7574   43.9853   23.7352 O   0  0  0  0  0  0  0  0  0  0  0  0
   -6.6833   43.3144   23.6781 C   0  0  0  0  0  0  0  0  0  0  0  0
   -5.6883   43.5916   24.8684 C   0  0  0  0  0  0  0  0  0  0  0  0
   -4.2652   43.9200   24.4689 C   0  0  0  0  0  0  0  0  0  0  0  0
   -3.8147   43.0627   23.3017 C   0  0  0  0  0  0  0  0  0  0  0  0
   -3.5701   41.5614   23.6075 C   0  0  0  0  0  0  0  0  0  0  0  0
   -2.4842   43.3475   22.5732 C   0  0  0  0  0  0  0  0  0  0  0  0
   -1.4118   43.7923   22.9844 O   0  0  0  0  0  0  0  0  0  0  0  0
   -2.6382   43.3371   21.0744 C   0  0  0  0  0  0  0  0  0  0  0  0
   -4.0163   42.7410   20.8745 C   0  0  0  0  0  0  0  0  0  0  0  0
   -4.7380   43.2682   22.1169 C   0  0  0  0  0  0  0  0  0  0  0  0
   -6.2019   42.7546   22.2905 C   0  0  0  0  0  0  0  0  0  0  0  0
 20 21  2  0  0  0
 20 25  1  0  0  0
 20 26  1  0  0  0
 21 22  1  0  0  0
 21 27  1  0  0  0
 22 24  2  0  0  0
 22 29  1  0  0  0
 23 26  1  0  0  0
 23 27  2  0  0  0
 24 28  1  0  0  0
 25 28  2  0  0  0
 63 64  2  0  0  0
 64 65  1  0  0  0
 64 74  1  0  0  0
 65 66  1  0  0  0
 66 67  1  0  0  0
 67 68  1  0  0  0
 67 69  1  0  0  0
 67 73  1  0  0  0
 69 70  2  0  0  0
 69 71  1  0  0  0
 71 72  1  0  0  0
 72 73  1  0  0  0
 73 74  1  0  0  0
 74 62  1  0  0  0
 62 61  1  0  0  0
 61 59  1  0  0  0
 59 60  2  0  0  0
 59 58  1  0  0  0
 58 57  1  0  0  0
 57 56  1  0  0  0
 56 52  1  0  0  0
 52 53  1  0  0  0
 53 54  2  0  0  0
 53 51  1  0  0  0
 51 50  1  0  0  0
 50 46  1  0  0  0
 46 47  1  0  0  0
 47 48  2  0  0  0
 47 43  1  0  0  0
 43 44  1  0  0  0
 43 40  1  0  0  0
 40 41  1  0  0  0
 40 42  1  0  0  0
 40 39  1  0  0  0
 39  1  1  0  0  0
  1  2  1  0  0  0
  2  3  2  0  0  0
  2  4  1  0  0  0
  2  6  1  0  0  0
  6  7  1  0  0  0
  7  8  2  0  0  0
  7  9  1  0  0  0
  7 11  1  0  0  0
 11 12  1  0  0  0
 12 13  1  0  0  0
 13 14  1  0  0  0
 13 15  1  0  0  0
 14 18  1  0  0  0
 15 32  1  0  0  0
 15 16  1  0  0  0
 32 33  1  0  0  0
 33 34  2  0  0  0
 33 35  1  0  0  0
 33 36  1  0  0  0
 16 17  1  0  0  0
 16 18  1  0  0  0
 18 26  1  0  0  0
 52 55  1  0  0  0
 46 49  1  0  0  0
 44 45  1  0  0  0
  4  5  1  0  0  0
  9 10  1  0  0  0
 35 37  1  0  0  0
 36 38  1  0  0  0
 17 19  1  0  0  0
 29 30  1  0  0  0
 29 31  1  0  0  0
M  END
> <minimizedAffinity>
-10.58096

$$$$
4W97_UCA_A_301


 74 78  0  0  0  0  0  0  0  0999 V2000
   -3.4653   47.1715   12.1595 O   0  0  0  0  0  0  0  0  0  0  0  0
   -4.1588   45.9229   12.8789 P   0  0  0  0  0  0  0  0  0  0  0  0
   -3.1929   44.8339   13.2647 O   0  0  0  0  0  0  0  0  0  0  0  0
   -4.9932   46.4879   14.0334 O   0  0  0  0  0  0  0  0  0  0  0  0
   -4.4069   46.9152   14.6772 H   0  0  0  0  0  0  0  0  0  0  0  0
   -5.2158   45.2484   11.8872 O   0  0  0  0  0  0  0  0  0  0  0  0
   -6.1399   43.9528   12.2328 P   0  0  0  0  0  0  0  0  0  0  0  0
   -7.5740   44.4235   12.0746 O   0  0  0  0  0  0  0  0  0  0  0  0
   -5.8390   43.4534   13.6571 O   0  0  0  0  0  0  0  0  0  0  0  0
   -6.0580   44.1490   14.2967 H   0  0  0  0  0  0  0  0  0  0  0  0
   -5.7484   42.7287   11.1895 O   0  0  0  0  0  0  0  0  0  0  0  0
   -6.7094   42.3081   10.2415 C   0  0  0  0  0  0  0  0  0  0  0  0
   -6.0787   41.1104    9.5657 C   0  0  0  0  0  0  0  0  0  0  0  0
   -7.1860   40.4003    8.9572 O   0  0  0  0  0  0  0  0  0  0  0  0
   -5.0348   41.4373    8.4730 C   0  0  0  0  0  0  0  0  0  0  0  0
   -5.7730   40.9817    7.2400 C   0  0  0  0  0  0  0  0  0  0  0  0
   -4.6560   40.5084    6.3927 O   0  0  0  0  0  0  0  0  0  0  0  0
   -6.6299   39.8759    7.7624 C   0  0  0  0  0  0  0  0  0  0  0  0
   -4.1107   39.8837    6.8960 H   0  0  0  0  0  0  0  0  0  0  0  0
   -8.0759   38.8625    5.9484 C   0  0  0  0  0  0  0  0  0  0  0  0
   -8.9727   39.3260    4.9748 C   0  0  0  0  0  0  0  0  0  0  0  0
   -9.5548   38.3795    4.1004 C   0  0  0  0  0  0  0  0  0  0  0  0
   -8.2051   41.0337    6.1400 C   0  0  0  0  0  0  0  0  0  0  0  0
   -9.2433   37.0961    4.2533 N   0  0  0  0  0  0  0  0  0  0  0  0
   -7.8163   37.5265    6.0481 N   0  0  0  0  0  0  0  0  0  0  0  0
   -7.6124   39.9317    6.6533 N   0  0  0  0  0  0  0  0  0  0  0  0
   -9.0300   40.7069    5.1214 N   0  0  0  0  0  0  0  0  0  0  0  0
   -8.3913   36.6973    5.2151 C   0  0  0  0  0  0  0  0  0  0  0  0
  -10.3936   38.7727    3.1318 N   0  0  0  0  0  0  0  0  0  0  0  0
  -10.6155   39.7265    3.0301 H   0  0  0  0  0  0  0  0  0  0  0  0
  -10.7878   38.1079    2.5221 H   0  0  0  0  0  0  0  0  0  0  0  0
   -3.5743   40.9030    8.7119 O   0  0  0  0  0  0  0  0  0  0  0  0
   -2.5740   39.8811    9.5385 P   0  0  0  0  0  0  0  0  0  0  0  0
   -1.4855   40.7891   10.0787 O   0  0  0  0  0  0  0  0  0  0  0  0
   -1.9842   38.8487    8.5988 O   0  0  0  0  0  0  0  0  0  0  0  0
   -3.3060   39.1922   10.6737 O   0  0  0  0  0  0  0  0  0  0  0  0
   -1.5182   39.2979    7.8763 H   0  0  0  0  0  0  0  0  0  0  0  0
   -3.6800   39.8599   11.2696 H   0  0  0  0  0  0  0  0  0  0  0  0
   -2.1340   47.5645   12.5763 C   0  0  0  0  0  0  0  0  0  0  0  0
   -1.9808   49.0694   12.6702 C   0  0  0  0  0  0  0  0  0  0  0  0
   -0.5213   49.4453   12.6080 C   0  0  0  0  0  0  0  0  0  0  0  0
   -2.6967   49.7686   11.5345 C   0  0  0  0  0  0  0  0  0  0  0  0
   -2.6035   49.5427   13.9990 C   0  0  0  0  0  0  0  0  0  0  0  0
   -4.0583   49.4539   13.8166 O   0  0  0  0  0  0  0  0  0  0  0  0
   -4.3130   48.5257   13.6961 H   0  0  0  0  0  0  0  0  0  0  0  0
   -3.3895   48.4584   15.7774 N   0  0  0  0  0  0  0  0  0  0  0  0
   -2.2359   48.8883   15.3065 C   0  0  0  0  0  0  0  0  0  0  0  0
   -1.1330   48.9568   15.8057 O   0  0  0  0  0  0  0  0  0  0  0  0
   -4.2296   48.6074   15.2862 H   0  0  0  0  0  0  0  0  0  0  0  0
   -3.3729   47.7227   17.1101 C   0  0  0  0  0  0  0  0  0  0  0  0
   -4.7791   47.5473   17.4157 C   0  0  0  0  0  0  0  0  0  0  0  0
   -5.9770   45.5274   16.9183 N   0  0  0  0  0  0  0  0  0  0  0  0
   -5.0849   46.1538   17.7158 C   0  0  0  0  0  0  0  0  0  0  0  0
   -4.6499   45.5161   18.6609 O   0  0  0  0  0  0  0  0  0  0  0  0
   -6.4039   46.0546   16.2049 H   0  0  0  0  0  0  0  0  0  0  0  0
   -6.3391   44.1671   17.0385 C   0  0  0  0  0  0  0  0  0  0  0  0
   -7.7579   43.9389   17.3365 C   0  0  0  0  0  0  0  0  0  0  0  0
   -7.8560   44.3435   19.0662 S   0  0  0  0  0  0  0  0  0  0  0  0
   -8.4576   42.8304   19.6720 C   0  0  0  0  0  0  0  0  0  0  0  0
   -9.3060   42.2558   19.0336 O   0  0  0  0  0  0  0  0  0  0  0  0
   -7.9124   42.3552   20.9913 C   0  0  0  0  0  0  0  0  0  0  0  0
   -7.3276   43.5861   21.6542 C   0  0  0  0  0  0  0  0  0  0  0  0
   -7.9003   44.0175   23.8226 O   0  0  0  0  0  0  0  0  0  0  0  0
   -6.8072   43.3769   23.7814 C   0  0  0  0  0  0  0  0  0  0  0  0
   -5.7522   43.8357   24.8585 C   0  0  0  0  0  0  0  0  0  0  0  0
   -4.3696   44.1512   24.3277 C   0  0  0  0  0  0  0  0  0  0  0  0
   -3.9596   43.1630   23.2527 C   0  0  0  0  0  0  0  0  0  0  0  0
   -3.6403   41.7221   23.7313 C   0  0  0  0  0  0  0  0  0  0  0  0
   -2.6879   43.3897   22.4079 C   0  0  0  0  0  0  0  0  0  0  0  0
   -1.6100   43.9156   22.6875 O   0  0  0  0  0  0  0  0  0  0  0  0
   -2.9331   43.1800   20.9362 C   0  0  0  0  0  0  0  0  0  0  0  0
   -4.2974   42.5226   20.9050 C   0  0  0  0  0  0  0  0  0  0  0  0
   -4.9610   43.1854   22.1146 C   0  0  0  0  0  0  0  0  0  0  0  0
   -6.3910   42.6559   22.4481 C   0  0  0  0  0  0  0  0  0  0  0  0
 20 21  2  0  0  0
 20 25  1  0  0  0
 20 26  1  0  0  0
 21 22  1  0  0  0
 21 27  1  0  0  0
 22 24  2  0  0  0
 22 29  1  0  0  0
 23 26  1  0  0  0
 23 27  2  0  0  0
 24 28  1  0  0  0
 25 28  2  0  0  0
 63 64  2  0  0  0
 64 65  1  0  0  0
 64 74  1  0  0  0
 65 66  1  0  0  0
 66 67  1  0  0  0
 67 68  1  0  0  0
 67 69  1  0  0  0
 67 73  1  0  0  0
 69 70  2  0  0  0
 69 71  1  0  0  0
 71 72  1  0  0  0
 72 73  1  0  0  0
 73 74  1  0  0  0
 74 62  1  0  0  0
 62 61  1  0  0  0
 61 59  1  0  0  0
 59 60  2  0  0  0
 59 58  1  0  0  0
 58 57  1  0  0  0
 57 56  1  0  0  0
 56 52  1  0  0  0
 52 53  1  0  0  0
 53 54  2  0  0  0
 53 51  1  0  0  0
 51 50  1  0  0  0
 50 46  1  0  0  0
 46 47  1  0  0  0
 47 48  2  0  0  0
 47 43  1  0  0  0
 43 44  1  0  0  0
 43 40  1  0  0  0
 40 41  1  0  0  0
 40 42  1  0  0  0
 40 39  1  0  0  0
 39  1  1  0  0  0
  1  2  1  0  0  0
  2  3  2  0  0  0
  2  4  1  0  0  0
  2  6  1  0  0  0
  6  7  1  0  0  0
  7  8  2  0  0  0
  7  9  1  0  0  0
  7 11  1  0  0  0
 11 12  1  0  0  0
 12 13  1  0  0  0
 13 14  1  0  0  0
 13 15  1  0  0  0
 14 18  1  0  0  0
 15 32  1  0  0  0
 15 16  1  0  0  0
 32 33  1  0  0  0
 33 34  2  0  0  0
 33 35  1  0  0  0
 33 36  1  0  0  0
 16 17  1  0  0  0
 16 18  1  0  0  0
 18 26  1  0  0  0
 52 55  1  0  0  0
 46 49  1  0  0  0
 44 45  1  0  0  0
  4  5  1  0  0  0
  9 10  1  0  0  0
 35 37  1  0  0  0
 36 38  1  0  0  0
 17 19  1  0  0  0
 29 30  1  0  0  0
 29 31  1  0  0  0
M  END
> <minimizedAffinity>
-10.50034

$$$$
4W97_UCA_A_301


 74 78  0  0  0  0  0  0  0  0999 V2000
   -2.1741   47.0589   12.9337 O   0  0  0  0  0  0  0  0  0  0  0  0
   -2.3390   45.5631   12.3925 P   0  0  0  0  0  0  0  0  0  0  0  0
   -2.6831   45.4839   10.9285 O   0  0  0  0  0  0  0  0  0  0  0  0
   -1.0721   44.8046   12.8023 O   0  0  0  0  0  0  0  0  0  0  0  0
   -0.3028   45.1981   12.3615 H   0  0  0  0  0  0  0  0  0  0  0  0
   -3.5330   44.8375   13.1693 O   0  0  0  0  0  0  0  0  0  0  0  0
   -3.9377   43.2670   13.0215 P   0  0  0  0  0  0  0  0  0  0  0  0
   -2.6870   42.4895   13.3878 O   0  0  0  0  0  0  0  0  0  0  0  0
   -4.4116   42.9758   11.5865 O   0  0  0  0  0  0  0  0  0  0  0  0
   -3.6881   43.1520   10.9650 H   0  0  0  0  0  0  0  0  0  0  0  0
   -5.2089   42.9497   14.0332 O   0  0  0  0  0  0  0  0  0  0  0  0
   -5.8789   44.0336   14.6459 C   0  0  0  0  0  0  0  0  0  0  0  0
   -7.2483   44.0473   14.0029 C   0  0  0  0  0  0  0  0  0  0  0  0
   -8.1730   43.7973   15.0906 O   0  0  0  0  0  0  0  0  0  0  0  0
   -7.6424   45.3705   13.3071 C   0  0  0  0  0  0  0  0  0  0  0  0
   -8.7363   45.8514   14.2263 C   0  0  0  0  0  0  0  0  0  0  0  0
   -9.6286   46.5487   13.2739 O   0  0  0  0  0  0  0  0  0  0  0  0
   -9.3089   44.5748   14.7482 C   0  0  0  0  0  0  0  0  0  0  0  0
   -9.8359   45.9578   12.5331 H   0  0  0  0  0  0  0  0  0  0  0  0
  -10.7801   44.5653   16.8082 C   0  0  0  0  0  0  0  0  0  0  0  0
  -11.1424   45.4749   17.8125 C   0  0  0  0  0  0  0  0  0  0  0  0
  -12.0659   45.0497   18.7952 C   0  0  0  0  0  0  0  0  0  0  0  0
   -9.7375   46.4432   16.4155 C   0  0  0  0  0  0  0  0  0  0  0  0
  -12.5312   43.8057   18.7352 N   0  0  0  0  0  0  0  0  0  0  0  0
  -11.2942   43.3014   16.8225 N   0  0  0  0  0  0  0  0  0  0  0  0
   -9.9160   45.1836   15.9561 N   0  0  0  0  0  0  0  0  0  0  0  0
  -10.4662   46.6564   17.5327 N   0  0  0  0  0  0  0  0  0  0  0  0
  -12.1393   42.9630   17.7625 C   0  0  0  0  0  0  0  0  0  0  0  0
  -12.4701   45.8892   19.7585 N   0  0  0  0  0  0  0  0  0  0  0  0
  -12.1173   46.8077   19.7909 H   0  0  0  0  0  0  0  0  0  0  0  0
  -13.1198   45.5874   20.4338 H   0  0  0  0  0  0  0  0  0  0  0  0
   -7.9407   45.2934   11.7641 O   0  0  0  0  0  0  0  0  0  0  0  0
   -7.4411   44.8199   10.2626 P   0  0  0  0  0  0  0  0  0  0  0  0
   -7.1364   43.3427   10.4253 O   0  0  0  0  0  0  0  0  0  0  0  0
   -6.1912   45.5772    9.8614 O   0  0  0  0  0  0  0  0  0  0  0  0
   -8.5298   45.0291    9.2283 O   0  0  0  0  0  0  0  0  0  0  0  0
   -5.5006   45.4377   10.5282 H   0  0  0  0  0  0  0  0  0  0  0  0
   -9.3253   44.5413    9.4929 H   0  0  0  0  0  0  0  0  0  0  0  0
   -1.3464   47.9834   12.1848 C   0  0  0  0  0  0  0  0  0  0  0  0
   -1.9435   49.3752   12.1289 C   0  0  0  0  0  0  0  0  0  0  0  0
   -0.8881   50.3746   11.7253 C   0  0  0  0  0  0  0  0  0  0  0  0
   -3.0733   49.4509   11.1244 C   0  0  0  0  0  0  0  0  0  0  0  0
   -2.5097   49.7211   13.5208 C   0  0  0  0  0  0  0  0  0  0  0  0
   -3.8910   49.2217   13.5296 O   0  0  0  0  0  0  0  0  0  0  0  0
   -3.8855   48.2545   13.4554 H   0  0  0  0  0  0  0  0  0  0  0  0
   -2.7537   48.5972   15.4270 N   0  0  0  0  0  0  0  0  0  0  0  0
   -1.8172   49.2602   14.7782 C   0  0  0  0  0  0  0  0  0  0  0  0
   -0.7081   49.6239   15.1066 O   0  0  0  0  0  0  0  0  0  0  0  0
   -3.6633   48.5079   15.0613 H   0  0  0  0  0  0  0  0  0  0  0  0
   -2.3745   47.9749   16.7636 C   0  0  0  0  0  0  0  0  0  0  0  0
   -3.5025   48.2946   17.6162 C   0  0  0  0  0  0  0  0  0  0  0  0
   -5.3028   46.7506   17.9870 N   0  0  0  0  0  0  0  0  0  0  0  0
   -4.7185   47.6373   17.1525 C   0  0  0  0  0  0  0  0  0  0  0  0
   -5.2265   47.7729   16.0513 O   0  0  0  0  0  0  0  0  0  0  0  0
   -4.8558   46.5639   18.8441 H   0  0  0  0  0  0  0  0  0  0  0  0
   -6.5119   46.0729   17.7135 C   0  0  0  0  0  0  0  0  0  0  0  0
   -6.5824   44.7109   18.2557 C   0  0  0  0  0  0  0  0  0  0  0  0
   -7.7704   44.8823   19.5690 S   0  0  0  0  0  0  0  0  0  0  0  0
   -8.1826   43.2093   19.7912 C   0  0  0  0  0  0  0  0  0  0  0  0
   -8.6792   42.6151   18.8650 O   0  0  0  0  0  0  0  0  0  0  0  0
   -7.9373   42.6183   21.1529 C   0  0  0  0  0  0  0  0  0  0  0  0
   -7.3985   43.7561   21.9964 C   0  0  0  0  0  0  0  0  0  0  0  0
   -7.7175   44.1344   24.2261 O   0  0  0  0  0  0  0  0  0  0  0  0
   -6.6720   43.4399   24.0487 C   0  0  0  0  0  0  0  0  0  0  0  0
   -5.4867   43.8024   25.0221 C   0  0  0  0  0  0  0  0  0  0  0  0
   -4.1515   44.0656   24.3583 C   0  0  0  0  0  0  0  0  0  0  0  0
   -3.9112   43.0988   23.2146 C   0  0  0  0  0  0  0  0  0  0  0  0
   -3.6243   41.6262   23.6102 C   0  0  0  0  0  0  0  0  0  0  0  0
   -2.7237   43.2910   22.2476 C   0  0  0  0  0  0  0  0  0  0  0  0
   -1.5949   43.7493   22.4281 O   0  0  0  0  0  0  0  0  0  0  0  0
   -3.1320   43.1499   20.8041 C   0  0  0  0  0  0  0  0  0  0  0  0
   -4.5265   42.5659   20.8967 C   0  0  0  0  0  0  0  0  0  0  0  0
   -5.0227   43.2160   22.1904 C   0  0  0  0  0  0  0  0  0  0  0  0
   -6.4375   42.7492   22.6564 C   0  0  0  0  0  0  0  0  0  0  0  0
 20 21  2  0  0  0
 20 25  1  0  0  0
 20 26  1  0  0  0
 21 22  1  0  0  0
 21 27  1  0  0  0
 22 24  2  0  0  0
 22 29  1  0  0  0
 23 26  1  0  0  0
 23 27  2  0  0  0
 24 28  1  0  0  0
 25 28  2  0  0  0
 63 64  2  0  0  0
 64 65  1  0  0  0
 64 74  1  0  0  0
 65 66  1  0  0  0
 66 67  1  0  0  0
 67 68  1  0  0  0
 67 69  1  0  0  0
 67 73  1  0  0  0
 69 70  2  0  0  0
 69 71  1  0  0  0
 71 72  1  0  0  0
 72 73  1  0  0  0
 73 74  1  0  0  0
 74 62  1  0  0  0
 62 61  1  0  0  0
 61 59  1  0  0  0
 59 60  2  0  0  0
 59 58  1  0  0  0
 58 57  1  0  0  0
 57 56  1  0  0  0
 56 52  1  0  0  0
 52 53  1  0  0  0
 53 54  2  0  0  0
 53 51  1  0  0  0
 51 50  1  0  0  0
 50 46  1  0  0  0
 46 47  1  0  0  0
 47 48  2  0  0  0
 47 43  1  0  0  0
 43 44  1  0  0  0
 43 40  1  0  0  0
 40 41  1  0  0  0
 40 42  1  0  0  0
 40 39  1  0  0  0
 39  1  1  0  0  0
  1  2  1  0  0  0
  2  3  2  0  0  0
  2  4  1  0  0  0
  2  6  1  0  0  0
  6  7  1  0  0  0
  7  8  2  0  0  0
  7  9  1  0  0  0
  7 11  1  0  0  0
 11 12  1  0  0  0
 12 13  1  0  0  0
 13 14  1  0  0  0
 13 15  1  0  0  0
 14 18  1  0  0  0
 15 32  1  0  0  0
 15 16  1  0  0  0
 32 33  1  0  0  0
 33 34  2  0  0  0
 33 35  1  0  0  0
 33 36  1  0  0  0
 16 17  1  0  0  0
 16 18  1  0  0  0
 18 26  1  0  0  0
 52 55  1  0  0  0
 46 49  1  0  0  0
 44 45  1  0  0  0
  4  5  1  0  0  0
  9 10  1  0  0  0
 35 37  1  0  0  0
 36 38  1  0  0  0
 17 19  1  0  0  0
 29 30  1  0  0  0
 29 31  1  0  0  0
M  END
> <minimizedAffinity>
-10.43590

$$$$
4W97_UCA_A_301


 74 78  0  0  0  0  0  0  0  0999 V2000
   -3.9038   47.0182   14.7823 O   0  0  0  0  0  0  0  0  0  0  0  0
   -3.7232   47.5680   13.2914 P   0  0  0  0  0  0  0  0  0  0  0  0
   -3.7834   49.0693   13.1889 O   0  0  0  0  0  0  0  0  0  0  0  0
   -2.4428   46.9317   12.7398 O   0  0  0  0  0  0  0  0  0  0  0  0
   -1.6822   47.2307   13.2622 H   0  0  0  0  0  0  0  0  0  0  0  0
   -4.9016   47.0119   12.3655 O   0  0  0  0  0  0  0  0  0  0  0  0
   -5.2742   47.5641   10.8795 P   0  0  0  0  0  0  0  0  0  0  0  0
   -4.0003   47.4302   10.0656 O   0  0  0  0  0  0  0  0  0  0  0  0
   -5.7672   49.0195   10.9644 O   0  0  0  0  0  0  0  0  0  0  0  0
   -5.0589   49.5808   11.3169 H   0  0  0  0  0  0  0  0  0  0  0  0
   -6.5198   46.6575   10.2739 O   0  0  0  0  0  0  0  0  0  0  0  0
   -7.7749   46.7044   10.9233 C   0  0  0  0  0  0  0  0  0  0  0  0
   -8.0642   45.2672   11.2971 C   0  0  0  0  0  0  0  0  0  0  0  0
   -7.2814   44.4761   10.3686 O   0  0  0  0  0  0  0  0  0  0  0  0
   -7.6815   44.8660   12.7404 C   0  0  0  0  0  0  0  0  0  0  0  0
   -6.5315   43.9291   12.4714 C   0  0  0  0  0  0  0  0  0  0  0  0
   -6.6777   42.9650   13.5843 O   0  0  0  0  0  0  0  0  0  0  0  0
   -6.8839   43.3536   11.1392 C   0  0  0  0  0  0  0  0  0  0  0  0
   -7.5879   42.6301   13.6045 H   0  0  0  0  0  0  0  0  0  0  0  0
   -4.9040   41.7766   11.1725 C   0  0  0  0  0  0  0  0  0  0  0  0
   -3.5928   41.7679   10.6748 C   0  0  0  0  0  0  0  0  0  0  0  0
   -2.7739   40.6545   10.9736 C   0  0  0  0  0  0  0  0  0  0  0  0
   -4.5908   43.6436   10.0846 C   0  0  0  0  0  0  0  0  0  0  0  0
   -3.2881   39.6610   11.6920 N   0  0  0  0  0  0  0  0  0  0  0  0
   -5.3610   40.7122   11.8939 N   0  0  0  0  0  0  0  0  0  0  0  0
   -5.5002   42.9430   10.7998 N   0  0  0  0  0  0  0  0  0  0  0  0
   -3.4254   42.9669    9.9923 N   0  0  0  0  0  0  0  0  0  0  0  0
   -4.5586   39.7064   12.1319 C   0  0  0  0  0  0  0  0  0  0  0  0
   -1.5033   40.6103   10.5495 N   0  0  0  0  0  0  0  0  0  0  0  0
   -1.1356   41.3531   10.0182 H   0  0  0  0  0  0  0  0  0  0  0  0
   -0.9377   39.8351   10.7692 H   0  0  0  0  0  0  0  0  0  0  0  0
   -8.8519   44.3688   13.6670 O   0  0  0  0  0  0  0  0  0  0  0  0
   -9.4005   44.0802   15.1980 P   0  0  0  0  0  0  0  0  0  0  0  0
  -10.0334   45.3941   15.6156 O   0  0  0  0  0  0  0  0  0  0  0  0
   -8.2439   43.7349   16.1145 O   0  0  0  0  0  0  0  0  0  0  0  0
  -10.4272   42.9646   15.2142 O   0  0  0  0  0  0  0  0  0  0  0  0
   -7.5926   44.4534   16.0979 H   0  0  0  0  0  0  0  0  0  0  0  0
  -11.1631   43.1939   14.6255 H   0  0  0  0  0  0  0  0  0  0  0  0
   -4.1601   47.9663   15.8482 C   0  0  0  0  0  0  0  0  0  0  0  0
   -4.7837   47.3108   17.0641 C   0  0  0  0  0  0  0  0  0  0  0  0
   -4.1334   45.9744   17.3214 C   0  0  0  0  0  0  0  0  0  0  0  0
   -4.6105   48.1656   18.3012 C   0  0  0  0  0  0  0  0  0  0  0  0
   -6.2935   47.1350   16.8050 C   0  0  0  0  0  0  0  0  0  0  0  0
   -6.4014   46.2916   15.6073 O   0  0  0  0  0  0  0  0  0  0  0  0
   -6.0397   45.4119   15.7977 H   0  0  0  0  0  0  0  0  0  0  0  0
   -7.9515   47.6188   18.2098 N   0  0  0  0  0  0  0  0  0  0  0  0
   -7.2064   46.5854   17.8716 C   0  0  0  0  0  0  0  0  0  0  0  0
   -7.0800   45.4837   18.3621 O   0  0  0  0  0  0  0  0  0  0  0  0
   -7.8271   48.4990   17.7866 H   0  0  0  0  0  0  0  0  0  0  0  0
   -9.0116   47.3991   19.2800 C   0  0  0  0  0  0  0  0  0  0  0  0
  -10.2519   47.3938   18.5296 C   0  0  0  0  0  0  0  0  0  0  0  0
  -11.2445   45.2191   18.7475 N   0  0  0  0  0  0  0  0  0  0  0  0
  -11.2367   46.5106   19.1425 C   0  0  0  0  0  0  0  0  0  0  0  0
  -12.0961   46.8464   19.9410 O   0  0  0  0  0  0  0  0  0  0  0  0
  -10.6156   44.9522   18.0387 H   0  0  0  0  0  0  0  0  0  0  0  0
  -12.0941   44.2249   19.2824 C   0  0  0  0  0  0  0  0  0  0  0  0
  -11.4523   42.9208   19.4858 C   0  0  0  0  0  0  0  0  0  0  0  0
  -10.2781   43.2688   20.7764 S   0  0  0  0  0  0  0  0  0  0  0  0
   -8.8218   42.7753   19.9677 C   0  0  0  0  0  0  0  0  0  0  0  0
   -8.8066   42.7860   18.7606 O   0  0  0  0  0  0  0  0  0  0  0  0
   -7.6804   42.3144   20.8328 C   0  0  0  0  0  0  0  0  0  0  0  0
   -7.2805   43.5243   21.6531 C   0  0  0  0  0  0  0  0  0  0  0  0
   -7.8749   43.9247   23.8217 O   0  0  0  0  0  0  0  0  0  0  0  0
   -6.7655   43.3127   23.7814 C   0  0  0  0  0  0  0  0  0  0  0  0
   -5.7280   43.7905   24.8672 C   0  0  0  0  0  0  0  0  0  0  0  0
   -4.3514   44.1453   24.3459 C   0  0  0  0  0  0  0  0  0  0  0  0
   -3.9108   43.1759   23.2658 C   0  0  0  0  0  0  0  0  0  0  0  0
   -3.5568   41.7401   23.7355 C   0  0  0  0  0  0  0  0  0  0  0  0
   -2.6412   43.4415   22.4293 C   0  0  0  0  0  0  0  0  0  0  0  0
   -1.5785   43.9928   22.7182 O   0  0  0  0  0  0  0  0  0  0  0  0
   -2.8735   43.2364   20.9548 C   0  0  0  0  0  0  0  0  0  0  0  0
   -4.2203   42.5445   20.9118 C   0  0  0  0  0  0  0  0  0  0  0  0
   -4.9067   43.1810   22.1227 C   0  0  0  0  0  0  0  0  0  0  0  0
   -6.3243   42.6125   22.4451 C   0  0  0  0  0  0  0  0  0  0  0  0
 20 21  2  0  0  0
 20 25  1  0  0  0
 20 26  1  0  0  0
 21 22  1  0  0  0
 21 27  1  0  0  0
 22 24  2  0  0  0
 22 29  1  0  0  0
 23 26  1  0  0  0
 23 27  2  0  0  0
 24 28  1  0  0  0
 25 28  2  0  0  0
 63 64  2  0  0  0
 64 65  1  0  0  0
 64 74  1  0  0  0
 65 66  1  0  0  0
 66 67  1  0  0  0
 67 68  1  0  0  0
 67 69  1  0  0  0
 67 73  1  0  0  0
 69 70  2  0  0  0
 69 71  1  0  0  0
 71 72  1  0  0  0
 72 73  1  0  0  0
 73 74  1  0  0  0
 74 62  1  0  0  0
 62 61  1  0  0  0
 61 59  1  0  0  0
 59 60  2  0  0  0
 59 58  1  0  0  0
 58 57  1  0  0  0
 57 56  1  0  0  0
 56 52  1  0  0  0
 52 53  1  0  0  0
 53 54  2  0  0  0
 53 51  1  0  0  0
 51 50  1  0  0  0
 50 46  1  0  0  0
 46 47  1  0  0  0
 47 48  2  0  0  0
 47 43  1  0  0  0
 43 44  1  0  0  0
 43 40  1  0  0  0
 40 41  1  0  0  0
 40 42  1  0  0  0
 40 39  1  0  0  0
 39  1  1  0  0  0
  1  2  1  0  0  0
  2  3  2  0  0  0
  2  4  1  0  0  0
  2  6  1  0  0  0
  6  7  1  0  0  0
  7  8  2  0  0  0
  7  9  1  0  0  0
  7 11  1  0  0  0
 11 12  1  0  0  0
 12 13  1  0  0  0
 13 14  1  0  0  0
 13 15  1  0  0  0
 14 18  1  0  0  0
 15 32  1  0  0  0
 15 16  1  0  0  0
 32 33  1  0  0  0
 33 34  2  0  0  0
 33 35  1  0  0  0
 33 36  1  0  0  0
 16 17  1  0  0  0
 16 18  1  0  0  0
 18 26  1  0  0  0
 52 55  1  0  0  0
 46 49  1  0  0  0
 44 45  1  0  0  0
  4  5  1  0  0  0
  9 10  1  0  0  0
 35 37  1  0  0  0
 36 38  1  0  0  0
 17 19  1  0  0  0
 29 30  1  0  0  0
 29 31  1  0  0  0
M  END
> <minimizedAffinity>
-10.34025

$$$$
