2VWO_LZG_A_1245


 35 38  0  0  0  0  0  0  0  0999 V2000
    7.5735   64.4997    2.3203 C   0  0  0  0  0  0  0  0  0  0  0  0
    6.6765   64.0373    1.5842 O   0  0  0  0  0  0  0  0  0  0  0  0
    8.2314   63.6718    3.2930 N   0  0  0  0  0  0  0  0  0  0  0  0
    8.9448   64.0300    3.8692 H   0  0  0  0  0  0  0  0  0  0  0  0
    7.8063   62.2898    3.3948 C   0  0  0  0  0  0  0  0  0  0  0  0
    8.3387   61.3286    2.5335 C   0  0  0  0  0  0  0  0  0  0  0  0
    9.2839   61.7302    1.6623 F   0  0  0  0  0  0  0  0  0  0  0  0
    6.8294   61.9037    4.3091 C   0  0  0  0  0  0  0  0  0  0  0  0
    6.3953   60.5808    4.3738 C   0  0  0  0  0  0  0  0  0  0  0  0
    6.9786   59.6441    3.4942 C   0  0  0  0  0  0  0  0  0  0  0  0
    7.9478   59.9915    2.5525 C   0  0  0  0  0  0  0  0  0  0  0  0
    6.4911   58.3019    3.5087 N   0  0  0  0  0  0  0  0  0  0  0  0
    5.3360   58.0186    2.7290 C   0  0  0  0  0  0  0  0  0  0  0  0
    4.8363   58.9998    2.0528 O   0  0  0  0  0  0  0  0  0  0  0  0
    4.8515   56.6771    2.7490 C   0  0  0  0  0  0  0  0  0  0  0  0
    5.4449   55.6868    3.4810 C   0  0  0  0  0  0  0  0  0  0  0  0
    6.6088   56.0060    4.2503 C   0  0  0  0  0  0  0  0  0  0  0  0
    7.1054   57.2737    4.2787 C   0  0  0  0  0  0  0  0  0  0  0  0
    7.9861   65.9358    2.2091 C   0  0  0  0  0  0  0  0  0  0  0  0
   11.2293   66.7911    3.5768 C   0  0  0  0  0  0  0  0  0  0  0  0
   10.3482   67.8999    4.1504 C   0  0  0  0  0  0  0  0  0  0  0  0
   10.8856   69.1473    3.8745 F   0  0  0  0  0  0  0  0  0  0  0  0
    8.9794   67.6784    3.5162 C   0  0  0  0  0  0  0  0  0  0  0  0
   10.3005   65.8369    2.8397 C   0  0  0  0  0  0  0  0  0  0  0  0
    8.9418   66.2302    3.2686 N   0  0  0  0  0  0  0  0  0  0  0  0
   13.1421   65.5157    4.4349 C   0  0  0  0  0  0  0  0  0  0  0  0
   13.5223   65.4434    3.2526 O   0  0  0  0  0  0  0  0  0  0  0  0
   11.9484   66.1434    4.6905 N   0  0  0  0  0  0  0  0  0  0  0  0
   11.5779   66.1612    5.6025 H   0  0  0  0  0  0  0  0  0  0  0  0
   16.6781   62.3879    7.2682 Cl  0  0  0  0  0  0  0  0  0  0  0  0
   15.4426   63.5262    6.8206 C   0  0  0  0  0  0  0  0  0  0  0  0
   14.6524   64.3014    7.6421 C   0  0  0  0  0  0  0  0  0  0  0  0
   13.7363   65.1010    6.9007 C   0  0  0  0  0  0  0  0  0  0  0  0
   15.0855   63.7361    5.1419 S   0  0  0  0  0  0  0  0  0  0  0  0
   13.8621   64.8880    5.5316 C   0  0  0  0  0  0  0  0  0  0  0  0
 30 31  1  0  0  0
 31 32  2  0  0  0
 31 34  1  0  0  0
 32 33  1  0  0  0
 33 35  2  0  0  0
 34 35  1  0  0  0
 35 26  1  0  0  0
 26 27  2  0  0  0
 26 28  1  0  0  0
 28 20  1  0  0  0
 20 21  1  0  0  0
 20 24  1  0  0  0
 21 22  1  0  0  0
 21 23  1  0  0  0
 23 25  1  0  0  0
 24 25  1  0  0  0
 25 19  1  0  0  0
 19  1  1  0  0  0
  1  2  2  0  0  0
  1  3  1  0  0  0
  3  5  1  0  0  0
  5  6  1  0  0  0
  5  8  2  0  0  0
  6  7  1  0  0  0
  6 11  2  0  0  0
  8  9  1  0  0  0
  9 10  2  0  0  0
 10 11  1  0  0  0
 10 12  1  0  0  0
 12 13  1  0  0  0
 12 18  1  0  0  0
 13 14  2  0  0  0
 13 15  1  0  0  0
 15 16  2  0  0  0
 16 17  1  0  0  0
 17 18  2  0  0  0
 28 29  1  0  0  0
  3  4  1  0  0  0
M  END
> <minimizedAffinity>
-11.13483

$$$$
2VWO_LZG_A_1245


 35 38  0  0  0  0  0  0  0  0999 V2000
    6.0168   62.0001    2.4703 C   0  0  0  0  0  0  0  0  0  0  0  0
    5.1230   61.8204    3.3241 O   0  0  0  0  0  0  0  0  0  0  0  0
    6.7518   60.8923    1.9253 N   0  0  0  0  0  0  0  0  0  0  0  0
    7.4511   61.0286    1.2459 H   0  0  0  0  0  0  0  0  0  0  0  0
    6.4260   59.5667    2.4125 C   0  0  0  0  0  0  0  0  0  0  0  0
    5.5198   58.7672    1.7133 C   0  0  0  0  0  0  0  0  0  0  0  0
    5.0186   59.2563    0.5630 F   0  0  0  0  0  0  0  0  0  0  0  0
    6.9637   59.0864    3.6040 C   0  0  0  0  0  0  0  0  0  0  0  0
    6.6144   57.8269    4.0883 C   0  0  0  0  0  0  0  0  0  0  0  0
    5.7088   57.0505    3.3344 C   0  0  0  0  0  0  0  0  0  0  0  0
    5.1344   57.4998    2.1448 C   0  0  0  0  0  0  0  0  0  0  0  0
    5.2948   55.7881    3.8581 N   0  0  0  0  0  0  0  0  0  0  0  0
    6.2795   54.9989    4.5139 C   0  0  0  0  0  0  0  0  0  0  0  0
    7.4660   55.5036    4.6001 O   0  0  0  0  0  0  0  0  0  0  0  0
    5.8615   53.7377    5.0326 C   0  0  0  0  0  0  0  0  0  0  0  0
    4.5800   53.2766    4.9143 C   0  0  0  0  0  0  0  0  0  0  0  0
    3.6136   54.0992    4.2527 C   0  0  0  0  0  0  0  0  0  0  0  0
    3.9616   55.3058    3.7260 C   0  0  0  0  0  0  0  0  0  0  0  0
    6.3483   63.3809    1.9926 C   0  0  0  0  0  0  0  0  0  0  0  0
    9.5249   65.0428    2.5105 C   0  0  0  0  0  0  0  0  0  0  0  0
    8.5996   65.8517    3.4185 C   0  0  0  0  0  0  0  0  0  0  0  0
    8.7015   67.2062    3.1434 F   0  0  0  0  0  0  0  0  0  0  0  0
    7.2073   65.2862    3.1606 C   0  0  0  0  0  0  0  0  0  0  0  0
    8.6930   63.8957    1.9552 C   0  0  0  0  0  0  0  0  0  0  0  0
    7.4648   63.8909    2.7774 N   0  0  0  0  0  0  0  0  0  0  0  0
   11.8709   65.2468    3.2005 C   0  0  0  0  0  0  0  0  0  0  0  0
   11.9554   66.1604    2.3605 O   0  0  0  0  0  0  0  0  0  0  0  0
   10.6757   64.5806    3.3097 N   0  0  0  0  0  0  0  0  0  0  0  0
   10.5877   63.8067    3.9118 H   0  0  0  0  0  0  0  0  0  0  0  0
   15.2675   64.3741    7.4450 Cl  0  0  0  0  0  0  0  0  0  0  0  0
   14.5246   64.3769    5.8732 C   0  0  0  0  0  0  0  0  0  0  0  0
   14.9783   63.7942    4.7092 C   0  0  0  0  0  0  0  0  0  0  0  0
   14.0972   64.0316    3.6158 C   0  0  0  0  0  0  0  0  0  0  0  0
   13.0366   65.2331    5.6671 S   0  0  0  0  0  0  0  0  0  0  0  0
   13.0046   64.8042    3.9967 C   0  0  0  0  0  0  0  0  0  0  0  0
 30 31  1  0  0  0
 31 32  2  0  0  0
 31 34  1  0  0  0
 32 33  1  0  0  0
 33 35  2  0  0  0
 34 35  1  0  0  0
 35 26  1  0  0  0
 26 27  2  0  0  0
 26 28  1  0  0  0
 28 20  1  0  0  0
 20 21  1  0  0  0
 20 24  1  0  0  0
 21 22  1  0  0  0
 21 23  1  0  0  0
 23 25  1  0  0  0
 24 25  1  0  0  0
 25 19  1  0  0  0
 19  1  1  0  0  0
  1  2  2  0  0  0
  1  3  1  0  0  0
  3  5  1  0  0  0
  5  6  1  0  0  0
  5  8  2  0  0  0
  6  7  1  0  0  0
  6 11  2  0  0  0
  8  9  1  0  0  0
  9 10  2  0  0  0
 10 11  1  0  0  0
 10 12  1  0  0  0
 12 13  1  0  0  0
 12 18  1  0  0  0
 13 14  2  0  0  0
 13 15  1  0  0  0
 15 16  2  0  0  0
 16 17  1  0  0  0
 17 18  2  0  0  0
 28 29  1  0  0  0
  3  4  1  0  0  0
M  END
> <minimizedAffinity>
-8.72378

$$$$
2VWO_LZG_A_1245


 35 38  0  0  0  0  0  0  0  0999 V2000
    7.9543   63.7288   -0.4946 C   0  0  0  0  0  0  0  0  0  0  0  0
    7.8430   64.8350    0.0748 O   0  0  0  0  0  0  0  0  0  0  0  0
    9.0304   62.8344   -0.1683 N   0  0  0  0  0  0  0  0  0  0  0  0
    9.1169   61.9581   -0.6085 H   0  0  0  0  0  0  0  0  0  0  0  0
    9.9840   63.2698    0.8327 C   0  0  0  0  0  0  0  0  0  0  0  0
   11.2486   63.7180    0.4465 C   0  0  0  0  0  0  0  0  0  0  0  0
   11.5110   63.7758   -0.8732 F   0  0  0  0  0  0  0  0  0  0  0  0
    9.6822   63.2022    2.1905 C   0  0  0  0  0  0  0  0  0  0  0  0
   10.6188   63.5836    3.1498 C   0  0  0  0  0  0  0  0  0  0  0  0
   11.8757   64.0472    2.7068 C   0  0  0  0  0  0  0  0  0  0  0  0
   12.2248   64.1155    1.3575 C   0  0  0  0  0  0  0  0  0  0  0  0
   12.8632   64.3757    3.6847 N   0  0  0  0  0  0  0  0  0  0  0  0
   12.5228   65.3633    4.6498 C   0  0  0  0  0  0  0  0  0  0  0  0
   11.3348   65.8658    4.5729 O   0  0  0  0  0  0  0  0  0  0  0  0
   13.5136   65.6898    5.6226 C   0  0  0  0  0  0  0  0  0  0  0  0
   14.7477   65.1023    5.6481 C   0  0  0  0  0  0  0  0  0  0  0  0
   15.0548   64.1087    4.6648 C   0  0  0  0  0  0  0  0  0  0  0  0
   14.1513   63.7691    3.7041 C   0  0  0  0  0  0  0  0  0  0  0  0
    6.9661   63.3057   -1.5383 C   0  0  0  0  0  0  0  0  0  0  0  0
    4.8703   60.7654   -0.0300 C   0  0  0  0  0  0  0  0  0  0  0  0
    4.7649   60.4143   -1.5134 C   0  0  0  0  0  0  0  0  0  0  0  0
    3.4383   60.3197   -1.9034 F   0  0  0  0  0  0  0  0  0  0  0  0
    5.5280   61.5216   -2.2319 C   0  0  0  0  0  0  0  0  0  0  0  0
    5.8782   61.9008    0.0762 C   0  0  0  0  0  0  0  0  0  0  0  0
    6.5340   61.9451   -1.2477 N   0  0  0  0  0  0  0  0  0  0  0  0
    5.1837   59.5442    2.0752 C   0  0  0  0  0  0  0  0  0  0  0  0
    4.8214   60.5900    2.6432 O   0  0  0  0  0  0  0  0  0  0  0  0
    5.2892   59.5576    0.7067 N   0  0  0  0  0  0  0  0  0  0  0  0
    5.6388   58.7738    0.2243 H   0  0  0  0  0  0  0  0  0  0  0  0
    5.2533   54.4279    4.1082 Cl  0  0  0  0  0  0  0  0  0  0  0  0
    5.6541   56.0710    3.7054 C   0  0  0  0  0  0  0  0  0  0  0  0
    6.7477   56.8095    4.1043 C   0  0  0  0  0  0  0  0  0  0  0  0
    6.7169   58.1331    3.5797 C   0  0  0  0  0  0  0  0  0  0  0  0
    4.5628   56.9629    2.7038 S   0  0  0  0  0  0  0  0  0  0  0  0
    5.5818   58.3510    2.8053 C   0  0  0  0  0  0  0  0  0  0  0  0
 30 31  1  0  0  0
 31 32  2  0  0  0
 31 34  1  0  0  0
 32 33  1  0  0  0
 33 35  2  0  0  0
 34 35  1  0  0  0
 35 26  1  0  0  0
 26 27  2  0  0  0
 26 28  1  0  0  0
 28 20  1  0  0  0
 20 21  1  0  0  0
 20 24  1  0  0  0
 21 22  1  0  0  0
 21 23  1  0  0  0
 23 25  1  0  0  0
 24 25  1  0  0  0
 25 19  1  0  0  0
 19  1  1  0  0  0
  1  2  2  0  0  0
  1  3  1  0  0  0
  3  5  1  0  0  0
  5  6  1  0  0  0
  5  8  2  0  0  0
  6  7  1  0  0  0
  6 11  2  0  0  0
  8  9  1  0  0  0
  9 10  2  0  0  0
 10 11  1  0  0  0
 10 12  1  0  0  0
 12 13  1  0  0  0
 12 18  1  0  0  0
 13 14  2  0  0  0
 13 15  1  0  0  0
 15 16  2  0  0  0
 16 17  1  0  0  0
 17 18  2  0  0  0
 28 29  1  0  0  0
  3  4  1  0  0  0
M  END
> <minimizedAffinity>
-8.29584

$$$$
