5F1V_3VN_A_301


 32 31  0  0  0  0  0  0  0  0999 V2000
   32.4310  -12.5669  -12.5343 C   0  0  0  0  0  0  0  0  0  0  0  0
   31.3857  -14.3155  -13.7799 N   0  0  0  0  0  0  0  0  0  0  0  0
   31.1347  -13.1348  -13.0011 C   0  0  0  0  0  0  0  0  0  0  0  0
   30.4996  -14.7060  -14.1005 H   0  0  0  0  0  0  0  0  0  0  0  0
   31.8729  -15.0040  -13.2063 H   0  0  0  0  0  0  0  0  0  0  0  0
   30.3430  -13.4878  -11.7913 C   0  0  0  0  0  0  0  0  0  0  0  0
   29.7526  -12.5839  -11.1458 O   0  0  0  0  0  0  0  0  0  0  0  0
   30.2730  -14.6849  -11.4095 O   0  0  0  0  0  0  0  0  0  0  0  0
   30.7135  -15.3569  -11.8916 H   0  0  0  0  0  0  0  0  0  0  0  0
   30.4152  -12.1191  -13.8292 C   0  0  0  0  0  0  0  0  0  0  0  0
   30.6419  -10.6724  -13.5458 C   0  0  0  0  0  0  0  0  0  0  0  0
   31.3944   -9.8668  -14.5525 C   0  0  0  0  0  0  0  0  0  0  0  0
   32.2628   -8.7720  -14.0295 C   0  0  0  0  0  0  0  0  0  0  0  0
   32.8836   -8.9461  -12.7428 N   0  0  0  0  0  0  0  0  0  0  0  0
   33.5461   -9.7204  -12.7869 H   0  0  0  0  0  0  0  0  0  0  0  0
   32.1682   -9.1501  -12.0449 H   0  0  0  0  0  0  0  0  0  0  0  0
   33.1886  -13.2514  -11.4454 C   0  0  0  0  0  0  0  0  0  0  0  0
   33.5349  -12.4262  -10.2530 C   0  0  0  0  0  0  0  0  0  0  0  0
   33.2415  -11.0465  -10.5206 N   0  0  0  0  0  0  0  0  0  0  0  0
   33.7741  -10.7371  -11.3336 H   0  0  0  0  0  0  0  0  0  0  0  0
   33.4976  -10.4813   -9.7111 H   0  0  0  0  0  0  0  0  0  0  0  0
   32.7639  -12.8917   -9.0680 C   0  0  0  0  0  0  0  0  0  0  0  0
   32.3091  -14.0668   -9.0429 O   0  0  0  0  0  0  0  0  0  0  0  0
   32.5717  -12.1065   -8.0975 O   0  0  0  0  0  0  0  0  0  0  0  0
   32.9138  -11.2346   -8.1255 H   0  0  0  0  0  0  0  0  0  0  0  0
   34.9917  -12.5826   -9.9820 C   0  0  0  0  0  0  0  0  0  0  0  0
   35.9853  -12.1048  -10.9896 C   0  0  0  0  0  0  0  0  0  0  0  0
   36.9331  -11.0404  -10.5408 C   0  0  0  0  0  0  0  0  0  0  0  0
   36.6757   -9.6453  -11.0080 C   0  0  0  0  0  0  0  0  0  0  0  0
   35.3598   -9.0943  -10.8187 N   0  0  0  0  0  0  0  0  0  0  0  0
   34.6876   -9.6194  -11.3780 H   0  0  0  0  0  0  0  0  0  0  0  0
   35.3553   -8.1170  -11.1108 H   0  0  0  0  0  0  0  0  0  0  0  0
 14 13  1  0  0  0
 13 12  1  0  0  0
 12 11  1  0  0  0
 11 10  1  0  0  0
  7  6  2  0  0  0
 10  3  1  0  0  0
  8  6  1  0  0  0
  6  3  1  0  0  0
  2  3  1  0  0  0
  3  1  1  0  0  0
  1 17  1  0  0  0
 17 18  1  0  0  0
 18 19  1  0  0  0
 18 26  1  0  0  0
 18 22  1  0  0  0
 26 27  1  0  0  0
 22 23  2  0  0  0
 22 24  1  0  0  0
 27 28  1  0  0  0
 28 29  1  0  0  0
 29 30  1  0  0  0
  2  4  1  0  0  0
  2  5  1  0  0  0
  8  9  1  0  0  0
 14 15  1  0  0  0
 14 16  1  0  0  0
 19 20  1  0  0  0
 19 21  1  0  0  0
 30 31  1  0  0  0
 30 32  1  0  0  0
 24 25  1  0  0  0
M  END
> <minimizedAffinity>
-5.24090

$$$$
5F1V_3VN_A_301


 32 31  0  0  0  0  0  0  0  0999 V2000
   33.3305  -13.1452  -11.4809 C   0  0  0  0  0  0  0  0  0  0  0  0
   33.5103  -10.9771  -10.4965 N   0  0  0  0  0  0  0  0  0  0  0  0
   33.7481  -12.3763  -10.2746 C   0  0  0  0  0  0  0  0  0  0  0  0
   33.7955  -10.4487   -9.6720 H   0  0  0  0  0  0  0  0  0  0  0  0
   32.5171  -10.8245  -10.6714 H   0  0  0  0  0  0  0  0  0  0  0  0
   32.9192  -12.8538   -9.1344 C   0  0  0  0  0  0  0  0  0  0  0  0
   32.5067  -14.0419   -9.1169 O   0  0  0  0  0  0  0  0  0  0  0  0
   32.6233  -12.0687   -8.1964 O   0  0  0  0  0  0  0  0  0  0  0  0
   32.9315  -11.1840   -8.2112 H   0  0  0  0  0  0  0  0  0  0  0  0
   35.2006  -12.6128  -10.0111 C   0  0  0  0  0  0  0  0  0  0  0  0
   36.1600  -11.4912  -10.2262 C   0  0  0  0  0  0  0  0  0  0  0  0
   36.8486  -11.3967  -11.5474 C   0  0  0  0  0  0  0  0  0  0  0  0
   36.5674  -10.1846  -12.3709 C   0  0  0  0  0  0  0  0  0  0  0  0
   35.2187   -9.9597  -12.8197 N   0  0  0  0  0  0  0  0  0  0  0  0
   34.6150   -9.7961  -12.0139 H   0  0  0  0  0  0  0  0  0  0  0  0
   34.8893  -10.7789  -13.3305 H   0  0  0  0  0  0  0  0  0  0  0  0
   32.5806  -12.4573  -12.5729 C   0  0  0  0  0  0  0  0  0  0  0  0
   31.2757  -13.0600  -12.9685 C   0  0  0  0  0  0  0  0  0  0  0  0
   31.5063  -14.1819  -13.8341 N   0  0  0  0  0  0  0  0  0  0  0  0
   32.0204  -13.8744  -14.6597 H   0  0  0  0  0  0  0  0  0  0  0  0
   30.6119  -14.5807  -14.1196 H   0  0  0  0  0  0  0  0  0  0  0  0
   30.5256  -13.4944  -11.7585 C   0  0  0  0  0  0  0  0  0  0  0  0
   29.8727  -12.6468  -11.0925 O   0  0  0  0  0  0  0  0  0  0  0  0
   30.5489  -14.7079  -11.4089 O   0  0  0  0  0  0  0  0  0  0  0  0
   31.0372  -15.3306  -11.9106 H   0  0  0  0  0  0  0  0  0  0  0  0
   30.4824  -12.0269  -13.6921 C   0  0  0  0  0  0  0  0  0  0  0  0
   31.0193  -10.6388  -13.8184 C   0  0  0  0  0  0  0  0  0  0  0  0
   30.0125   -9.5369  -13.8894 C   0  0  0  0  0  0  0  0  0  0  0  0
   30.5108   -8.1364  -13.7443 C   0  0  0  0  0  0  0  0  0  0  0  0
   30.7927   -7.6461  -12.4210 N   0  0  0  0  0  0  0  0  0  0  0  0
   29.9279   -7.6074  -11.8814 H   0  0  0  0  0  0  0  0  0  0  0  0
   31.1966   -6.7116  -12.4835 H   0  0  0  0  0  0  0  0  0  0  0  0
 14 13  1  0  0  0
 13 12  1  0  0  0
 12 11  1  0  0  0
 11 10  1  0  0  0
  7  6  2  0  0  0
 10  3  1  0  0  0
  8  6  1  0  0  0
  6  3  1  0  0  0
  2  3  1  0  0  0
  3  1  1  0  0  0
  1 17  1  0  0  0
 17 18  1  0  0  0
 18 19  1  0  0  0
 18 26  1  0  0  0
 18 22  1  0  0  0
 26 27  1  0  0  0
 22 23  2  0  0  0
 22 24  1  0  0  0
 27 28  1  0  0  0
 28 29  1  0  0  0
 29 30  1  0  0  0
  2  4  1  0  0  0
  2  5  1  0  0  0
  8  9  1  0  0  0
 14 15  1  0  0  0
 14 16  1  0  0  0
 19 20  1  0  0  0
 19 21  1  0  0  0
 30 31  1  0  0  0
 30 32  1  0  0  0
 24 25  1  0  0  0
M  END
> <minimizedAffinity>
-5.13486

$$$$
5F1V_3VN_A_301


 32 31  0  0  0  0  0  0  0  0999 V2000
   33.1781  -13.1291  -11.4408 C   0  0  0  0  0  0  0  0  0  0  0  0
   33.5115  -11.0112  -10.3896 N   0  0  0  0  0  0  0  0  0  0  0  0
   33.6572  -12.4296  -10.2153 C   0  0  0  0  0  0  0  0  0  0  0  0
   33.8389  -10.5303   -9.5518 H   0  0  0  0  0  0  0  0  0  0  0  0
   32.5291  -10.7872  -10.5482 H   0  0  0  0  0  0  0  0  0  0  0  0
   32.8087  -12.8880   -9.0817 C   0  0  0  0  0  0  0  0  0  0  0  0
   32.3230  -14.0482   -9.0946 O   0  0  0  0  0  0  0  0  0  0  0  0
   32.5694  -12.1140   -8.1188 O   0  0  0  0  0  0  0  0  0  0  0  0
   32.9320  -11.2501   -8.1108 H   0  0  0  0  0  0  0  0  0  0  0  0
   35.0930  -12.7708   -9.9760 C   0  0  0  0  0  0  0  0  0  0  0  0
   36.1015  -11.6718   -9.9824 C   0  0  0  0  0  0  0  0  0  0  0  0
   36.7688  -11.3355  -11.2748 C   0  0  0  0  0  0  0  0  0  0  0  0
   38.0478  -10.5712  -11.1962 C   0  0  0  0  0  0  0  0  0  0  0  0
   37.9872   -9.1334  -11.1967 N   0  0  0  0  0  0  0  0  0  0  0  0
   37.5127   -8.8128  -10.3526 H   0  0  0  0  0  0  0  0  0  0  0  0
   37.4725   -8.8150  -12.0178 H   0  0  0  0  0  0  0  0  0  0  0  0
   32.3798  -12.3797  -12.4553 C   0  0  0  0  0  0  0  0  0  0  0  0
   31.1244  -13.0295  -12.9292 C   0  0  0  0  0  0  0  0  0  0  0  0
   31.4479  -14.1942  -13.7038 N   0  0  0  0  0  0  0  0  0  0  0  0
   32.0294  -13.9242  -14.4971 H   0  0  0  0  0  0  0  0  0  0  0  0
   30.5885  -14.6260  -14.0436 H   0  0  0  0  0  0  0  0  0  0  0  0
   30.2752  -13.4088  -11.7670 C   0  0  0  0  0  0  0  0  0  0  0  0
   29.5724  -12.5320  -11.1964 O   0  0  0  0  0  0  0  0  0  0  0  0
   30.2653  -14.6052  -11.3623 O   0  0  0  0  0  0  0  0  0  0  0  0
   30.7913  -15.2499  -11.7932 H   0  0  0  0  0  0  0  0  0  0  0  0
   30.3844  -12.0550  -13.7794 C   0  0  0  0  0  0  0  0  0  0  0  0
   30.3200  -12.2644  -15.2568 C   0  0  0  0  0  0  0  0  0  0  0  0
   28.9588  -12.4357  -15.8488 C   0  0  0  0  0  0  0  0  0  0  0  0
   28.4545  -13.8300  -16.0281 C   0  0  0  0  0  0  0  0  0  0  0  0
   29.3811  -14.9179  -15.8577 N   0  0  0  0  0  0  0  0  0  0  0  0
   30.0982  -14.8702  -16.5815 H   0  0  0  0  0  0  0  0  0  0  0  0
   28.8820  -15.8043  -15.9315 H   0  0  0  0  0  0  0  0  0  0  0  0
 14 13  1  0  0  0
 13 12  1  0  0  0
 12 11  1  0  0  0
 11 10  1  0  0  0
  7  6  2  0  0  0
 10  3  1  0  0  0
  8  6  1  0  0  0
  6  3  1  0  0  0
  2  3  1  0  0  0
  3  1  1  0  0  0
  1 17  1  0  0  0
 17 18  1  0  0  0
 18 19  1  0  0  0
 18 26  1  0  0  0
 18 22  1  0  0  0
 26 27  1  0  0  0
 22 23  2  0  0  0
 22 24  1  0  0  0
 27 28  1  0  0  0
 28 29  1  0  0  0
 29 30  1  0  0  0
  2  4  1  0  0  0
  2  5  1  0  0  0
  8  9  1  0  0  0
 14 15  1  0  0  0
 14 16  1  0  0  0
 19 20  1  0  0  0
 19 21  1  0  0  0
 30 31  1  0  0  0
 30 32  1  0  0  0
 24 25  1  0  0  0
M  END
> <minimizedAffinity>
-5.07404

$$$$
5F1V_3VN_A_301


 32 31  0  0  0  0  0  0  0  0999 V2000
   32.6435  -12.3915  -13.1698 C   0  0  0  0  0  0  0  0  0  0  0  0
   31.1872  -14.2505  -12.8162 N   0  0  0  0  0  0  0  0  0  0  0  0
   31.2498  -12.9014  -13.3057 C   0  0  0  0  0  0  0  0  0  0  0  0
   30.2340  -14.6017  -12.9082 H   0  0  0  0  0  0  0  0  0  0  0  0
   31.4632  -14.2692  -11.8344 H   0  0  0  0  0  0  0  0  0  0  0  0
   30.3737  -12.0250  -12.4814 C   0  0  0  0  0  0  0  0  0  0  0  0
   29.7651  -12.5049  -11.4907 O   0  0  0  0  0  0  0  0  0  0  0  0
   30.2341  -10.8107  -12.7807 O   0  0  0  0  0  0  0  0  0  0  0  0
   30.6882  -10.4550  -13.5191 H   0  0  0  0  0  0  0  0  0  0  0  0
   30.8418  -12.8594  -14.7433 C   0  0  0  0  0  0  0  0  0  0  0  0
   29.5445  -13.4803  -15.1387 C   0  0  0  0  0  0  0  0  0  0  0  0
   29.5789  -14.6738  -16.0349 C   0  0  0  0  0  0  0  0  0  0  0  0
   30.9167  -15.2747  -16.3091 C   0  0  0  0  0  0  0  0  0  0  0  0
   31.4468  -16.2244  -15.3666 N   0  0  0  0  0  0  0  0  0  0  0  0
   30.8556  -17.0554  -15.3523 H   0  0  0  0  0  0  0  0  0  0  0  0
   31.4671  -15.8055  -14.4368 H   0  0  0  0  0  0  0  0  0  0  0  0
   33.5550  -12.9933  -12.1525 C   0  0  0  0  0  0  0  0  0  0  0  0
   33.8017  -12.1914  -10.9201 C   0  0  0  0  0  0  0  0  0  0  0  0
   33.5591  -10.8029  -11.1927 N   0  0  0  0  0  0  0  0  0  0  0  0
   34.1714  -10.4924  -11.9470 H   0  0  0  0  0  0  0  0  0  0  0  0
   33.7476  -10.2538  -10.3540 H   0  0  0  0  0  0  0  0  0  0  0  0
   32.9142  -12.6586   -9.8203 C   0  0  0  0  0  0  0  0  0  0  0  0
   32.3880  -13.8018   -9.8872 O   0  0  0  0  0  0  0  0  0  0  0  0
   32.6958  -11.9066   -8.8292 O   0  0  0  0  0  0  0  0  0  0  0  0
   33.0916  -11.0583   -8.7886 H   0  0  0  0  0  0  0  0  0  0  0  0
   35.2234  -12.3791  -10.5157 C   0  0  0  0  0  0  0  0  0  0  0  0
   36.1241  -11.1921  -10.4119 C   0  0  0  0  0  0  0  0  0  0  0  0
   37.1644  -11.0477  -11.4748 C   0  0  0  0  0  0  0  0  0  0  0  0
   36.7397  -11.2645  -12.8902 C   0  0  0  0  0  0  0  0  0  0  0  0
   35.7932  -10.3466  -13.4668 N   0  0  0  0  0  0  0  0  0  0  0  0
   34.9021  -10.4246  -12.9767 H   0  0  0  0  0  0  0  0  0  0  0  0
   35.6597  -10.5707  -14.4529 H   0  0  0  0  0  0  0  0  0  0  0  0
 14 13  1  0  0  0
 13 12  1  0  0  0
 12 11  1  0  0  0
 11 10  1  0  0  0
  7  6  2  0  0  0
 10  3  1  0  0  0
  8  6  1  0  0  0
  6  3  1  0  0  0
  2  3  1  0  0  0
  3  1  1  0  0  0
  1 17  1  0  0  0
 17 18  1  0  0  0
 18 19  1  0  0  0
 18 26  1  0  0  0
 18 22  1  0  0  0
 26 27  1  0  0  0
 22 23  2  0  0  0
 22 24  1  0  0  0
 27 28  1  0  0  0
 28 29  1  0  0  0
 29 30  1  0  0  0
  2  4  1  0  0  0
  2  5  1  0  0  0
  8  9  1  0  0  0
 14 15  1  0  0  0
 14 16  1  0  0  0
 19 20  1  0  0  0
 19 21  1  0  0  0
 30 31  1  0  0  0
 30 32  1  0  0  0
 24 25  1  0  0  0
M  END
> <minimizedAffinity>
-4.98075

$$$$
5F1V_3VN_A_301


 32 31  0  0  0  0  0  0  0  0999 V2000
   32.8808  -13.3571  -11.8456 C   0  0  0  0  0  0  0  0  0  0  0  0
   30.9655  -14.7804  -11.7562 N   0  0  0  0  0  0  0  0  0  0  0  0
   31.4969  -13.5201  -11.3171 C   0  0  0  0  0  0  0  0  0  0  0  0
   30.0182  -14.8942  -11.3955 H   0  0  0  0  0  0  0  0  0  0  0  0
   31.5546  -15.5373  -11.4090 H   0  0  0  0  0  0  0  0  0  0  0  0
   31.5835  -13.4996   -9.8315 C   0  0  0  0  0  0  0  0  0  0  0  0
   32.7056  -13.5892   -9.2701 O   0  0  0  0  0  0  0  0  0  0  0  0
   30.5370  -13.4035   -9.1392 O   0  0  0  0  0  0  0  0  0  0  0  0
   29.7020  -13.3368   -9.5591 H   0  0  0  0  0  0  0  0  0  0  0  0
   30.6386  -12.4018  -11.8148 C   0  0  0  0  0  0  0  0  0  0  0  0
   29.7815  -12.6347  -13.0132 C   0  0  0  0  0  0  0  0  0  0  0  0
   30.2731  -12.1482  -14.3362 C   0  0  0  0  0  0  0  0  0  0  0  0
   31.0209  -13.1252  -15.1802 C   0  0  0  0  0  0  0  0  0  0  0  0
   30.9584  -14.5200  -14.8311 N   0  0  0  0  0  0  0  0  0  0  0  0
   30.0014  -14.8554  -14.9405 H   0  0  0  0  0  0  0  0  0  0  0  0
   31.2525  -14.6414  -13.8619 H   0  0  0  0  0  0  0  0  0  0  0  0
   33.3281  -12.0245  -12.3477 C   0  0  0  0  0  0  0  0  0  0  0  0
   34.2909  -11.2770  -11.4893 C   0  0  0  0  0  0  0  0  0  0  0  0
   33.6208  -10.8091  -10.3090 N   0  0  0  0  0  0  0  0  0  0  0  0
   32.8418  -10.2074  -10.5762 H   0  0  0  0  0  0  0  0  0  0  0  0
   34.2761  -10.2811   -9.7327 H   0  0  0  0  0  0  0  0  0  0  0  0
   35.4312  -12.1571  -11.1143 C   0  0  0  0  0  0  0  0  0  0  0  0
   36.2390  -12.5424  -12.0016 O   0  0  0  0  0  0  0  0  0  0  0  0
   35.5805  -12.5104   -9.9109 O   0  0  0  0  0  0  0  0  0  0  0  0
   34.9746  -12.2188   -9.2584 H   0  0  0  0  0  0  0  0  0  0  0  0
   34.8047  -10.1133  -12.2652 C   0  0  0  0  0  0  0  0  0  0  0  0
   34.5789   -8.7280  -11.7545 C   0  0  0  0  0  0  0  0  0  0  0  0
   35.7462   -8.0557  -11.1077 C   0  0  0  0  0  0  0  0  0  0  0  0
   35.4648   -6.8911  -10.2159 C   0  0  0  0  0  0  0  0  0  0  0  0
   36.5805   -6.1613   -9.6743 N   0  0  0  0  0  0  0  0  0  0  0  0
   37.1122   -6.7674   -9.0495 H   0  0  0  0  0  0  0  0  0  0  0  0
   36.2381   -5.3534   -9.1542 H   0  0  0  0  0  0  0  0  0  0  0  0
 14 13  1  0  0  0
 13 12  1  0  0  0
 12 11  1  0  0  0
 11 10  1  0  0  0
  7  6  2  0  0  0
 10  3  1  0  0  0
  8  6  1  0  0  0
  6  3  1  0  0  0
  2  3  1  0  0  0
  3  1  1  0  0  0
  1 17  1  0  0  0
 17 18  1  0  0  0
 18 19  1  0  0  0
 18 26  1  0  0  0
 18 22  1  0  0  0
 26 27  1  0  0  0
 22 23  2  0  0  0
 22 24  1  0  0  0
 27 28  1  0  0  0
 28 29  1  0  0  0
 29 30  1  0  0  0
  2  4  1  0  0  0
  2  5  1  0  0  0
  8  9  1  0  0  0
 14 15  1  0  0  0
 14 16  1  0  0  0
 19 20  1  0  0  0
 19 21  1  0  0  0
 30 31  1  0  0  0
 30 32  1  0  0  0
 24 25  1  0  0  0
M  END
> <minimizedAffinity>
-4.92675

$$$$
5F1V_3VN_A_301


 32 31  0  0  0  0  0  0  0  0999 V2000
   33.4376  -13.3304  -11.4212 C   0  0  0  0  0  0  0  0  0  0  0  0
   33.3232  -11.0729  -10.6514 N   0  0  0  0  0  0  0  0  0  0  0  0
   33.6830  -12.4114  -10.2740 C   0  0  0  0  0  0  0  0  0  0  0  0
   33.4904  -10.4420   -9.8675 H   0  0  0  0  0  0  0  0  0  0  0  0
   32.3358  -11.0451  -10.9056 H   0  0  0  0  0  0  0  0  0  0  0  0
   32.8222  -12.8664   -9.1483 C   0  0  0  0  0  0  0  0  0  0  0  0
   32.3092  -14.0145   -9.1791 O   0  0  0  0  0  0  0  0  0  0  0  0
   32.6000  -12.1014   -8.1742 O   0  0  0  0  0  0  0  0  0  0  0  0
   32.9830  -11.2465   -8.1529 H   0  0  0  0  0  0  0  0  0  0  0  0
   35.1278  -12.4647   -9.8932 C   0  0  0  0  0  0  0  0  0  0  0  0
   36.1467  -12.0053  -10.8809 C   0  0  0  0  0  0  0  0  0  0  0  0
   36.9766  -10.8137  -10.5345 C   0  0  0  0  0  0  0  0  0  0  0  0
   36.5871   -9.5148  -11.1568 C   0  0  0  0  0  0  0  0  0  0  0  0
   35.3489   -8.9047  -10.7496 N   0  0  0  0  0  0  0  0  0  0  0  0
   35.4061   -8.6435   -9.7653 H   0  0  0  0  0  0  0  0  0  0  0  0
   34.5841   -9.5666  -10.8818 H   0  0  0  0  0  0  0  0  0  0  0  0
   32.6566  -12.8500  -12.5991 C   0  0  0  0  0  0  0  0  0  0  0  0
   31.2453  -13.3197  -12.7005 C   0  0  0  0  0  0  0  0  0  0  0  0
   31.0891  -14.5386  -11.9582 N   0  0  0  0  0  0  0  0  0  0  0  0
   31.7260  -15.2451  -12.3266 H   0  0  0  0  0  0  0  0  0  0  0  0
   30.1280  -14.8689  -12.0451 H   0  0  0  0  0  0  0  0  0  0  0  0
   30.3212  -12.2788  -12.1734 C   0  0  0  0  0  0  0  0  0  0  0  0
   29.5844  -12.5422  -11.1855 O   0  0  0  0  0  0  0  0  0  0  0  0
   30.2829  -11.1405  -12.7193 O   0  0  0  0  0  0  0  0  0  0  0  0
   30.8346  -10.9541  -13.4534 H   0  0  0  0  0  0  0  0  0  0  0  0
   30.9360  -13.5676  -14.1368 C   0  0  0  0  0  0  0  0  0  0  0  0
   32.0456  -13.5981  -15.1362 C   0  0  0  0  0  0  0  0  0  0  0  0
   32.3079  -14.9090  -15.8036 C   0  0  0  0  0  0  0  0  0  0  0  0
   31.6871  -15.1383  -17.1425 C   0  0  0  0  0  0  0  0  0  0  0  0
   30.5598  -16.0287  -17.2284 N   0  0  0  0  0  0  0  0  0  0  0  0
   30.8531  -16.9735  -16.9799 H   0  0  0  0  0  0  0  0  0  0  0  0
   30.1958  -16.0253  -18.1813 H   0  0  0  0  0  0  0  0  0  0  0  0
 14 13  1  0  0  0
 13 12  1  0  0  0
 12 11  1  0  0  0
 11 10  1  0  0  0
  7  6  2  0  0  0
 10  3  1  0  0  0
  8  6  1  0  0  0
  6  3  1  0  0  0
  2  3  1  0  0  0
  3  1  1  0  0  0
  1 17  1  0  0  0
 17 18  1  0  0  0
 18 19  1  0  0  0
 18 26  1  0  0  0
 18 22  1  0  0  0
 26 27  1  0  0  0
 22 23  2  0  0  0
 22 24  1  0  0  0
 27 28  1  0  0  0
 28 29  1  0  0  0
 29 30  1  0  0  0
  2  4  1  0  0  0
  2  5  1  0  0  0
  8  9  1  0  0  0
 14 15  1  0  0  0
 14 16  1  0  0  0
 19 20  1  0  0  0
 19 21  1  0  0  0
 30 31  1  0  0  0
 30 32  1  0  0  0
 24 25  1  0  0  0
M  END
> <minimizedAffinity>
-4.91269

$$$$
5F1V_3VN_A_301


 32 31  0  0  0  0  0  0  0  0999 V2000
   31.3975  -13.5904  -13.8939 C   0  0  0  0  0  0  0  0  0  0  0  0
   31.3477  -11.4731  -12.7909 N   0  0  0  0  0  0  0  0  0  0  0  0
   31.5945  -12.8755  -12.6012 C   0  0  0  0  0  0  0  0  0  0  0  0
   31.4820  -10.9817  -11.9072 H   0  0  0  0  0  0  0  0  0  0  0  0
   30.3896  -11.3371  -13.1134 H   0  0  0  0  0  0  0  0  0  0  0  0
   30.6134  -13.4333  -11.6310 C   0  0  0  0  0  0  0  0  0  0  0  0
   29.8026  -12.6657  -11.0517 O   0  0  0  0  0  0  0  0  0  0  0  0
   30.6019  -14.6670  -11.3832 O   0  0  0  0  0  0  0  0  0  0  0  0
   31.2066  -15.2374  -11.8157 H   0  0  0  0  0  0  0  0  0  0  0  0
   32.9948  -13.0883  -12.1226 C   0  0  0  0  0  0  0  0  0  0  0  0
   33.4701  -12.3225  -10.9341 C   0  0  0  0  0  0  0  0  0  0  0  0
   33.6959  -13.0675   -9.6602 C   0  0  0  0  0  0  0  0  0  0  0  0
   32.5773  -13.0724   -8.6728 C   0  0  0  0  0  0  0  0  0  0  0  0
   32.4452  -11.9494   -7.7826 N   0  0  0  0  0  0  0  0  0  0  0  0
   32.2292  -11.1113   -8.3223 H   0  0  0  0  0  0  0  0  0  0  0  0
   33.3200  -11.8119   -7.2765 H   0  0  0  0  0  0  0  0  0  0  0  0
   31.0934  -12.8116  -15.1304 C   0  0  0  0  0  0  0  0  0  0  0  0
   29.6915  -12.8786  -15.6334 C   0  0  0  0  0  0  0  0  0  0  0  0
   28.9182  -13.7452  -14.7894 N   0  0  0  0  0  0  0  0  0  0  0  0
   29.3376  -14.6749  -14.7814 H   0  0  0  0  0  0  0  0  0  0  0  0
   27.9647  -13.8054  -15.1466 H   0  0  0  0  0  0  0  0  0  0  0  0
   29.0906  -11.5170  -15.6547 C   0  0  0  0  0  0  0  0  0  0  0  0
   29.7925  -10.5211  -15.3328 O   0  0  0  0  0  0  0  0  0  0  0  0
   27.8832  -11.3703  -15.9952 O   0  0  0  0  0  0  0  0  0  0  0  0
   27.3694  -12.1170  -16.2328 H   0  0  0  0  0  0  0  0  0  0  0  0
   29.7166  -13.4249  -17.0194 C   0  0  0  0  0  0  0  0  0  0  0  0
   30.6509  -14.5405  -17.3562 C   0  0  0  0  0  0  0  0  0  0  0  0
   30.0378  -15.8886  -17.5547 C   0  0  0  0  0  0  0  0  0  0  0  0
   30.3793  -16.9545  -16.5657 C   0  0  0  0  0  0  0  0  0  0  0  0
   31.3331  -16.6468  -15.5330 N   0  0  0  0  0  0  0  0  0  0  0  0
   32.2442  -16.4660  -15.9545 H   0  0  0  0  0  0  0  0  0  0  0  0
   31.4059  -17.4362  -14.8913 H   0  0  0  0  0  0  0  0  0  0  0  0
 14 13  1  0  0  0
 13 12  1  0  0  0
 12 11  1  0  0  0
 11 10  1  0  0  0
  7  6  2  0  0  0
 10  3  1  0  0  0
  8  6  1  0  0  0
  6  3  1  0  0  0
  2  3  1  0  0  0
  3  1  1  0  0  0
  1 17  1  0  0  0
 17 18  1  0  0  0
 18 19  1  0  0  0
 18 26  1  0  0  0
 18 22  1  0  0  0
 26 27  1  0  0  0
 22 23  2  0  0  0
 22 24  1  0  0  0
 27 28  1  0  0  0
 28 29  1  0  0  0
 29 30  1  0  0  0
  2  4  1  0  0  0
  2  5  1  0  0  0
  8  9  1  0  0  0
 14 15  1  0  0  0
 14 16  1  0  0  0
 19 20  1  0  0  0
 19 21  1  0  0  0
 30 31  1  0  0  0
 30 32  1  0  0  0
 24 25  1  0  0  0
M  END
> <minimizedAffinity>
-4.83393

$$$$
5F1V_3VN_A_301


 32 31  0  0  0  0  0  0  0  0999 V2000
   31.9056  -12.8325  -14.4726 C   0  0  0  0  0  0  0  0  0  0  0  0
   31.3974  -15.1598  -14.6389 N   0  0  0  0  0  0  0  0  0  0  0  0
   31.1213  -13.8679  -15.2031 C   0  0  0  0  0  0  0  0  0  0  0  0
   30.8616  -15.8702  -15.1375 H   0  0  0  0  0  0  0  0  0  0  0  0
   31.1335  -15.1640  -13.6537 H   0  0  0  0  0  0  0  0  0  0  0  0
   29.6803  -13.5391  -15.0284 C   0  0  0  0  0  0  0  0  0  0  0  0
   28.9870  -13.2202  -16.0284 O   0  0  0  0  0  0  0  0  0  0  0  0
   29.1600  -13.5698  -13.8831 O   0  0  0  0  0  0  0  0  0  0  0  0
   29.6780  -13.8075  -13.1394 H   0  0  0  0  0  0  0  0  0  0  0  0
   31.4987  -13.8502  -16.6497 C   0  0  0  0  0  0  0  0  0  0  0  0
   31.7467  -15.1482  -17.3416 C   0  0  0  0  0  0  0  0  0  0  0  0
   30.6448  -15.7299  -18.1639 C   0  0  0  0  0  0  0  0  0  0  0  0
   29.6299  -16.5556  -17.4468 C   0  0  0  0  0  0  0  0  0  0  0  0
   30.0538  -17.3214  -16.3044 N   0  0  0  0  0  0  0  0  0  0  0  0
   30.3538  -16.6884  -15.5630 H   0  0  0  0  0  0  0  0  0  0  0  0
   30.8308  -17.9265  -16.5700 H   0  0  0  0  0  0  0  0  0  0  0  0
   32.5577  -13.1781  -13.1751 C   0  0  0  0  0  0  0  0  0  0  0  0
   31.9665  -12.5707  -11.9486 C   0  0  0  0  0  0  0  0  0  0  0  0
   31.0457  -11.5339  -12.3207 N   0  0  0  0  0  0  0  0  0  0  0  0
   31.5346  -10.8253  -12.8678 H   0  0  0  0  0  0  0  0  0  0  0  0
   30.6573  -11.1063  -11.4800 H   0  0  0  0  0  0  0  0  0  0  0  0
   31.2662  -13.6127  -11.1490 C   0  0  0  0  0  0  0  0  0  0  0  0
   30.9948  -13.3914   -9.9384 O   0  0  0  0  0  0  0  0  0  0  0  0
   30.9493  -14.7095  -11.6895 O   0  0  0  0  0  0  0  0  0  0  0  0
   31.1554  -14.8646  -12.5903 H   0  0  0  0  0  0  0  0  0  0  0  0
   33.0707  -11.9886  -11.1350 C   0  0  0  0  0  0  0  0  0  0  0  0
   34.2869  -12.8069  -10.8485 C   0  0  0  0  0  0  0  0  0  0  0  0
   35.5274  -12.0564  -10.4872 C   0  0  0  0  0  0  0  0  0  0  0  0
   35.8598  -10.8437  -11.2932 C   0  0  0  0  0  0  0  0  0  0  0  0
   35.5281   -9.5524  -10.7515 N   0  0  0  0  0  0  0  0  0  0  0  0
   34.5148   -9.4674  -10.6714 H   0  0  0  0  0  0  0  0  0  0  0  0
   35.8826   -8.8230  -11.3701 H   0  0  0  0  0  0  0  0  0  0  0  0
 14 13  1  0  0  0
 13 12  1  0  0  0
 12 11  1  0  0  0
 11 10  1  0  0  0
  7  6  2  0  0  0
 10  3  1  0  0  0
  8  6  1  0  0  0
  6  3  1  0  0  0
  2  3  1  0  0  0
  3  1  1  0  0  0
  1 17  1  0  0  0
 17 18  1  0  0  0
 18 19  1  0  0  0
 18 26  1  0  0  0
 18 22  1  0  0  0
 26 27  1  0  0  0
 22 23  2  0  0  0
 22 24  1  0  0  0
 27 28  1  0  0  0
 28 29  1  0  0  0
 29 30  1  0  0  0
  2  4  1  0  0  0
  2  5  1  0  0  0
  8  9  1  0  0  0
 14 15  1  0  0  0
 14 16  1  0  0  0
 19 20  1  0  0  0
 19 21  1  0  0  0
 30 31  1  0  0  0
 30 32  1  0  0  0
 24 25  1  0  0  0
M  END
> <minimizedAffinity>
-4.78604

$$$$
5F1V_3VN_A_301


 32 31  0  0  0  0  0  0  0  0999 V2000
   33.6852  -11.8808  -12.4485 C   0  0  0  0  0  0  0  0  0  0  0  0
   33.5728  -11.1230  -10.1869 N   0  0  0  0  0  0  0  0  0  0  0  0
   34.3844  -11.1236  -11.3721 C   0  0  0  0  0  0  0  0  0  0  0  0
   34.0494  -10.6052   -9.4486 H   0  0  0  0  0  0  0  0  0  0  0  0
   33.4161  -12.0836   -9.8816 H   0  0  0  0  0  0  0  0  0  0  0  0
   35.6709  -11.8213  -11.1018 C   0  0  0  0  0  0  0  0  0  0  0  0
   36.4652  -12.0555  -12.0487 O   0  0  0  0  0  0  0  0  0  0  0  0
   35.9584  -12.1849   -9.9319 O   0  0  0  0  0  0  0  0  0  0  0  0
   35.3656  -12.0096   -9.2278 H   0  0  0  0  0  0  0  0  0  0  0  0
   34.6265   -9.7201  -11.8269 C   0  0  0  0  0  0  0  0  0  0  0  0
   35.4566   -8.8228  -10.9722 C   0  0  0  0  0  0  0  0  0  0  0  0
   34.8928   -7.4944  -10.5898 C   0  0  0  0  0  0  0  0  0  0  0  0
   35.8552   -6.4712  -10.0868 C   0  0  0  0  0  0  0  0  0  0  0  0
   35.6068   -5.8706   -8.8027 N   0  0  0  0  0  0  0  0  0  0  0  0
   35.6761   -6.5823   -8.0753 H   0  0  0  0  0  0  0  0  0  0  0  0
   34.6713   -5.4642   -8.7928 H   0  0  0  0  0  0  0  0  0  0  0  0
   33.0491  -13.1942  -12.1347 C   0  0  0  0  0  0  0  0  0  0  0  0
   31.5764  -13.2898  -12.3464 C   0  0  0  0  0  0  0  0  0  0  0  0
   31.3058  -14.1427  -13.4691 N   0  0  0  0  0  0  0  0  0  0  0  0
   31.7604  -13.7649  -14.3004 H   0  0  0  0  0  0  0  0  0  0  0  0
   30.2988  -14.1909  -13.6245 H   0  0  0  0  0  0  0  0  0  0  0  0
   30.9186  -13.8292  -11.1250 C   0  0  0  0  0  0  0  0  0  0  0  0
   31.1766  -13.3196  -10.0016 O   0  0  0  0  0  0  0  0  0  0  0  0
   30.1075  -14.7924  -11.2237 O   0  0  0  0  0  0  0  0  0  0  0  0
   29.9222  -15.1646  -12.0634 H   0  0  0  0  0  0  0  0  0  0  0  0
   31.0528  -11.9222  -12.6215 C   0  0  0  0  0  0  0  0  0  0  0  0
   30.1497  -11.6990  -13.7901 C   0  0  0  0  0  0  0  0  0  0  0  0
   30.2791  -10.3870  -14.4934 C   0  0  0  0  0  0  0  0  0  0  0  0
   31.2358   -9.3907  -13.9254 C   0  0  0  0  0  0  0  0  0  0  0  0
   30.7121   -8.3374  -13.0964 N   0  0  0  0  0  0  0  0  0  0  0  0
   30.1051   -7.7362  -13.6536 H   0  0  0  0  0  0  0  0  0  0  0  0
   31.4830   -7.7863  -12.7193 H   0  0  0  0  0  0  0  0  0  0  0  0
 14 13  1  0  0  0
 13 12  1  0  0  0
 12 11  1  0  0  0
 11 10  1  0  0  0
  7  6  2  0  0  0
 10  3  1  0  0  0
  8  6  1  0  0  0
  6  3  1  0  0  0
  2  3  1  0  0  0
  3  1  1  0  0  0
  1 17  1  0  0  0
 17 18  1  0  0  0
 18 19  1  0  0  0
 18 26  1  0  0  0
 18 22  1  0  0  0
 26 27  1  0  0  0
 22 23  2  0  0  0
 22 24  1  0  0  0
 27 28  1  0  0  0
 28 29  1  0  0  0
 29 30  1  0  0  0
  2  4  1  0  0  0
  2  5  1  0  0  0
  8  9  1  0  0  0
 14 15  1  0  0  0
 14 16  1  0  0  0
 19 20  1  0  0  0
 19 21  1  0  0  0
 30 31  1  0  0  0
 30 32  1  0  0  0
 24 25  1  0  0  0
M  END
> <minimizedAffinity>
-4.74413

$$$$
5F1V_3VN_A_301


 32 31  0  0  0  0  0  0  0  0999 V2000
   35.4400  -10.6850  -12.2054 C   0  0  0  0  0  0  0  0  0  0  0  0
   33.1176  -11.1923  -11.9791 N   0  0  0  0  0  0  0  0  0  0  0  0
   34.4436  -11.6925  -11.7441 C   0  0  0  0  0  0  0  0  0  0  0  0
   32.4338  -11.8804  -11.6641 H   0  0  0  0  0  0  0  0  0  0  0  0
   32.9913  -11.0193  -12.9764 H   0  0  0  0  0  0  0  0  0  0  0  0
   34.6633  -12.9312  -12.5395 C   0  0  0  0  0  0  0  0  0  0  0  0
   35.8347  -13.3389  -12.7493 O   0  0  0  0  0  0  0  0  0  0  0  0
   33.6814  -13.5626  -13.0091 O   0  0  0  0  0  0  0  0  0  0  0  0
   32.8095  -13.2575  -12.8518 H   0  0  0  0  0  0  0  0  0  0  0  0
   34.6399  -11.9559  -10.2856 C   0  0  0  0  0  0  0  0  0  0  0  0
   34.0201  -13.1735   -9.6873 C   0  0  0  0  0  0  0  0  0  0  0  0
   32.7095  -13.0257   -8.9878 C   0  0  0  0  0  0  0  0  0  0  0  0
   31.5409  -13.7355   -9.5848 C   0  0  0  0  0  0  0  0  0  0  0  0
   31.5831  -14.0663  -10.9849 N   0  0  0  0  0  0  0  0  0  0  0  0
   32.3307  -14.7396  -11.1527 H   0  0  0  0  0  0  0  0  0  0  0  0
   31.7581  -13.2213  -11.5287 H   0  0  0  0  0  0  0  0  0  0  0  0
   35.7046   -9.4732  -11.3750 C   0  0  0  0  0  0  0  0  0  0  0  0
   35.1389   -8.1868  -11.8727 C   0  0  0  0  0  0  0  0  0  0  0  0
   34.5885   -8.3785  -13.1847 N   0  0  0  0  0  0  0  0  0  0  0  0
   35.3182   -8.7127  -13.8141 H   0  0  0  0  0  0  0  0  0  0  0  0
   34.2198   -7.4929  -13.5315 H   0  0  0  0  0  0  0  0  0  0  0  0
   34.0843   -7.6986  -10.9427 C   0  0  0  0  0  0  0  0  0  0  0  0
   33.7244   -6.4917  -10.9871 O   0  0  0  0  0  0  0  0  0  0  0  0
   33.5584   -8.4970  -10.1173 O   0  0  0  0  0  0  0  0  0  0  0  0
   33.8327   -9.3926  -10.0919 H   0  0  0  0  0  0  0  0  0  0  0  0
   36.2393   -7.1841  -11.9353 C   0  0  0  0  0  0  0  0  0  0  0  0
   37.2265   -7.1009  -10.8175 C   0  0  0  0  0  0  0  0  0  0  0  0
   38.6696   -7.2009  -11.1917 C   0  0  0  0  0  0  0  0  0  0  0  0
   39.6750   -7.1299  -10.0895 C   0  0  0  0  0  0  0  0  0  0  0  0
   39.2009   -7.1531   -8.7310 N   0  0  0  0  0  0  0  0  0  0  0  0
   38.6465   -6.3163   -8.5499 H   0  0  0  0  0  0  0  0  0  0  0  0
   39.9967   -7.1782   -8.0935 H   0  0  0  0  0  0  0  0  0  0  0  0
 14 13  1  0  0  0
 13 12  1  0  0  0
 12 11  1  0  0  0
 11 10  1  0  0  0
  7  6  2  0  0  0
 10  3  1  0  0  0
  8  6  1  0  0  0
  6  3  1  0  0  0
  2  3  1  0  0  0
  3  1  1  0  0  0
  1 17  1  0  0  0
 17 18  1  0  0  0
 18 19  1  0  0  0
 18 26  1  0  0  0
 18 22  1  0  0  0
 26 27  1  0  0  0
 22 23  2  0  0  0
 22 24  1  0  0  0
 27 28  1  0  0  0
 28 29  1  0  0  0
 29 30  1  0  0  0
  2  4  1  0  0  0
  2  5  1  0  0  0
  8  9  1  0  0  0
 14 15  1  0  0  0
 14 16  1  0  0  0
 19 20  1  0  0  0
 19 21  1  0  0  0
 30 31  1  0  0  0
 30 32  1  0  0  0
 24 25  1  0  0  0
M  END
> <minimizedAffinity>
-4.66796

$$$$
