3DX3_YTB_A_1050


 16 16  0  0  0  0  0  0  0  0999 V2000
   29.2364   66.0099    6.7692 O   0  0  0  0  0  0  0  0  0  0  0  0
   30.5533   65.9205    7.3384 C   0  0  0  0  0  0  0  0  0  0  0  0
   31.3217   67.2007    7.1029 C   0  0  0  0  0  0  0  0  0  0  0  0
   31.5931   67.5101    5.7289 O   0  0  0  0  0  0  0  0  0  0  0  0
   32.5646   66.9992    7.9664 C   0  0  0  0  0  0  0  0  0  0  0  0
   33.4384   66.0577    7.3226 O   0  0  0  0  0  0  0  0  0  0  0  0
   30.5951   65.8478    8.8575 C   0  0  0  0  0  0  0  0  0  0  0  0
   30.3728   64.4919    9.3635 N   0  0  0  0  0  0  0  0  0  0  0  0
   31.9792   66.3758    9.2508 C   0  0  0  0  0  0  0  0  0  0  0  0
   32.8140   65.3453    9.8222 O   0  0  0  0  0  0  0  0  0  0  0  0
   29.3041   66.0517    5.8025 H   0  0  0  0  0  0  0  0  0  0  0  0
   32.1135   66.7938    5.3329 H   0  0  0  0  0  0  0  0  0  0  0  0
   32.9557   65.2342    7.1501 H   0  0  0  0  0  0  0  0  0  0  0  0
   31.0910   63.8691    8.9937 H   0  0  0  0  0  0  0  0  0  0  0  0
   29.4534   64.1648    9.0667 H   0  0  0  0  0  0  0  0  0  0  0  0
   32.9270   64.6275    9.1796 H   0  0  0  0  0  0  0  0  0  0  0  0
  1  2  1  0  0  0
  3  2  1  0  0  0
  2  7  1  0  0  0
  4  3  1  0  0  0
  3  5  1  0  0  0
  6  5  1  0  0  0
  5  9  1  0  0  0
  7  9  1  0  0  0
  7  8  1  0  0  0
  9 10  1  0  0  0
  1 11  1  0  0  0
  4 12  1  0  0  0
  6 13  1  0  0  0
  8 14  1  0  0  0
  8 15  1  0  0  0
 10 16  1  0  0  0
M  END
> <minimizedAffinity>
-8.25282

$$$$
3DX3_YTB_A_1050


 16 16  0  0  0  0  0  0  0  0999 V2000
   29.9389   65.8503   10.6360 O   0  0  0  0  0  0  0  0  0  0  0  0
   30.5190   65.7794    9.3227 C   0  0  0  0  0  0  0  0  0  0  0  0
   29.6532   66.5068    8.3197 C   0  0  0  0  0  0  0  0  0  0  0  0
   28.3473   65.9493    8.1173 O   0  0  0  0  0  0  0  0  0  0  0  0
   30.5374   66.5221    7.0751 C   0  0  0  0  0  0  0  0  0  0  0  0
   30.5525   65.2093    6.4913 O   0  0  0  0  0  0  0  0  0  0  0  0
   31.8297   66.5337    9.1557 C   0  0  0  0  0  0  0  0  0  0  0  0
   32.9860   65.7644    9.6193 N   0  0  0  0  0  0  0  0  0  0  0  0
   31.9274   66.8506    7.6593 C   0  0  0  0  0  0  0  0  0  0  0  0
   33.0047   66.1332    7.0190 O   0  0  0  0  0  0  0  0  0  0  0  0
   29.1113   65.3446   10.6516 H   0  0  0  0  0  0  0  0  0  0  0  0
   28.4309   65.0349    7.8047 H   0  0  0  0  0  0  0  0  0  0  0  0
   30.8392   64.5633    7.1556 H   0  0  0  0  0  0  0  0  0  0  0  0
   33.0488   64.8937    9.0917 H   0  0  0  0  0  0  0  0  0  0  0  0
   32.8786   65.5538   10.6115 H   0  0  0  0  0  0  0  0  0  0  0  0
   32.8660   65.1791    7.1255 H   0  0  0  0  0  0  0  0  0  0  0  0
  1  2  1  0  0  0
  3  2  1  0  0  0
  2  7  1  0  0  0
  4  3  1  0  0  0
  3  5  1  0  0  0
  6  5  1  0  0  0
  5  9  1  0  0  0
  7  9  1  0  0  0
  7  8  1  0  0  0
  9 10  1  0  0  0
  1 11  1  0  0  0
  4 12  1  0  0  0
  6 13  1  0  0  0
  8 14  1  0  0  0
  8 15  1  0  0  0
 10 16  1  0  0  0
M  END
> <minimizedAffinity>
-7.25494

$$$$
3DX3_YTB_A_1050


 16 16  0  0  0  0  0  0  0  0999 V2000
   31.8028   67.4294    6.1078 O   0  0  0  0  0  0  0  0  0  0  0  0
   31.0641   66.6619    7.0729 C   0  0  0  0  0  0  0  0  0  0  0  0
   31.7471   66.7044    8.4206 C   0  0  0  0  0  0  0  0  0  0  0  0
   33.0480   66.1025    8.4690 O   0  0  0  0  0  0  0  0  0  0  0  0
   30.7108   66.0524    9.3328 C   0  0  0  0  0  0  0  0  0  0  0  0
   30.7019   64.6349    9.0985 O   0  0  0  0  0  0  0  0  0  0  0  0
   29.6987   67.2262    7.4363 C   0  0  0  0  0  0  0  0  0  0  0  0
   28.6613   66.8586    6.4706 N   0  0  0  0  0  0  0  0  0  0  0  0
   29.3900   66.6736    8.8322 C   0  0  0  0  0  0  0  0  0  0  0  0
   28.2856   65.7433    8.8186 O   0  0  0  0  0  0  0  0  0  0  0  0
   32.6552   66.9992    5.9366 H   0  0  0  0  0  0  0  0  0  0  0  0
   32.9815   65.1680    8.2178 H   0  0  0  0  0  0  0  0  0  0  0  0
   30.5434   64.4638    8.1569 H   0  0  0  0  0  0  0  0  0  0  0  0
   28.5851   65.8426    6.4238 H   0  0  0  0  0  0  0  0  0  0  0  0
   28.9083   67.2238    5.5508 H   0  0  0  0  0  0  0  0  0  0  0  0
   28.4955   65.0009    8.2305 H   0  0  0  0  0  0  0  0  0  0  0  0
  1  2  1  0  0  0
  3  2  1  0  0  0
  2  7  1  0  0  0
  4  3  1  0  0  0
  3  5  1  0  0  0
  6  5  1  0  0  0
  5  9  1  0  0  0
  7  9  1  0  0  0
  7  8  1  0  0  0
  9 10  1  0  0  0
  1 11  1  0  0  0
  4 12  1  0  0  0
  6 13  1  0  0  0
  8 14  1  0  0  0
  8 15  1  0  0  0
 10 16  1  0  0  0
M  END
> <minimizedAffinity>
-7.11719

$$$$
3DX3_YTB_A_1050


 16 16  0  0  0  0  0  0  0  0999 V2000
   31.3517   65.2995   10.1107 O   0  0  0  0  0  0  0  0  0  0  0  0
   31.0877   65.6752    8.7486 C   0  0  0  0  0  0  0  0  0  0  0  0
   29.7174   66.3013    8.6263 C   0  0  0  0  0  0  0  0  0  0  0  0
   28.6166   65.4344    8.9327 O   0  0  0  0  0  0  0  0  0  0  0  0
   29.7279   66.8336    7.1954 C   0  0  0  0  0  0  0  0  0  0  0  0
   29.5857   65.7336    6.2821 O   0  0  0  0  0  0  0  0  0  0  0  0
   31.9564   66.8027    8.2111 C   0  0  0  0  0  0  0  0  0  0  0  0
   33.2624   66.3344    7.7434 N   0  0  0  0  0  0  0  0  0  0  0  0
   31.1444   67.4338    7.0747 C   0  0  0  0  0  0  0  0  0  0  0  0
   31.7531   67.2166    5.7834 O   0  0  0  0  0  0  0  0  0  0  0  0
   30.7561   64.5786   10.3686 H   0  0  0  0  0  0  0  0  0  0  0  0
   28.6303   64.6707    8.3348 H   0  0  0  0  0  0  0  0  0  0  0  0
   30.2824   65.0804    6.4517 H   0  0  0  0  0  0  0  0  0  0  0  0
   33.1314   65.6492    6.9992 H   0  0  0  0  0  0  0  0  0  0  0  0
   33.7662   65.9027    8.5181 H   0  0  0  0  0  0  0  0  0  0  0  0
   31.8293   66.2638    5.6181 H   0  0  0  0  0  0  0  0  0  0  0  0
  1  2  1  0  0  0
  3  2  1  0  0  0
  2  7  1  0  0  0
  4  3  1  0  0  0
  3  5  1  0  0  0
  6  5  1  0  0  0
  5  9  1  0  0  0
  7  9  1  0  0  0
  7  8  1  0  0  0
  9 10  1  0  0  0
  1 11  1  0  0  0
  4 12  1  0  0  0
  6 13  1  0  0  0
  8 14  1  0  0  0
  8 15  1  0  0  0
 10 16  1  0  0  0
M  END
> <minimizedAffinity>
-6.66496

$$$$
3DX3_YTB_A_1050


 16 16  0  0  0  0  0  0  0  0999 V2000
   32.8620   66.3455    8.4347 O   0  0  0  0  0  0  0  0  0  0  0  0
   31.4973   66.7714    8.2855 C   0  0  0  0  0  0  0  0  0  0  0  0
   30.9891   66.4499    6.8987 C   0  0  0  0  0  0  0  0  0  0  0  0
   31.6518   67.1361    5.8276 O   0  0  0  0  0  0  0  0  0  0  0  0
   29.4972   66.7509    7.0195 C   0  0  0  0  0  0  0  0  0  0  0  0
   29.3032   68.1745    7.0363 O   0  0  0  0  0  0  0  0  0  0  0  0
   30.4886   66.0107    9.1333 C   0  0  0  0  0  0  0  0  0  0  0  0
   30.4108   66.5155   10.5055 N   0  0  0  0  0  0  0  0  0  0  0  0
   29.1500   66.1595    8.4018 C   0  0  0  0  0  0  0  0  0  0  0  0
   28.2061   66.9576    9.1484 O   0  0  0  0  0  0  0  0  0  0  0  0
   33.4324   66.8811    7.8613 H   0  0  0  0  0  0  0  0  0  0  0  0
   31.5536   68.0936    5.9473 H   0  0  0  0  0  0  0  0  0  0  0  0
   29.8306   68.5642    7.7511 H   0  0  0  0  0  0  0  0  0  0  0  0
   30.1396   67.4986   10.4913 H   0  0  0  0  0  0  0  0  0  0  0  0
   31.3215   66.4205   10.9549 H   0  0  0  0  0  0  0  0  0  0  0  0
   28.5773   67.8411    9.2985 H   0  0  0  0  0  0  0  0  0  0  0  0
  1  2  1  0  0  0
  3  2  1  0  0  0
  2  7  1  0  0  0
  4  3  1  0  0  0
  3  5  1  0  0  0
  6  5  1  0  0  0
  5  9  1  0  0  0
  7  9  1  0  0  0
  7  8  1  0  0  0
  9 10  1  0  0  0
  1 11  1  0  0  0
  4 12  1  0  0  0
  6 13  1  0  0  0
  8 14  1  0  0  0
  8 15  1  0  0  0
 10 16  1  0  0  0
M  END
> <minimizedAffinity>
-6.08735

$$$$
3DX3_YTB_A_1050


 16 16  0  0  0  0  0  0  0  0999 V2000
   31.7354   67.4871    6.3543 O   0  0  0  0  0  0  0  0  0  0  0  0
   31.0353   67.1566    7.5655 C   0  0  0  0  0  0  0  0  0  0  0  0
   29.5913   66.8217    7.2699 C   0  0  0  0  0  0  0  0  0  0  0  0
   28.8078   67.8987    6.7374 O   0  0  0  0  0  0  0  0  0  0  0  0
   29.1002   66.2810    8.6105 C   0  0  0  0  0  0  0  0  0  0  0  0
   28.9240   67.3756    9.5245 O   0  0  0  0  0  0  0  0  0  0  0  0
   31.4859   65.8690    8.2393 C   0  0  0  0  0  0  0  0  0  0  0  0
   32.6747   66.0551    9.0734 N   0  0  0  0  0  0  0  0  0  0  0  0
   30.2838   65.4030    9.0681 C   0  0  0  0  0  0  0  0  0  0  0  0
   30.5388   65.4756   10.4876 O   0  0  0  0  0  0  0  0  0  0  0  0
   31.3856   68.3175    5.9951 H   0  0  0  0  0  0  0  0  0  0  0  0
   28.8014   68.6362    7.3676 H   0  0  0  0  0  0  0  0  0  0  0  0
   29.7527   67.8749    9.5945 H   0  0  0  0  0  0  0  0  0  0  0  0
   32.4762   66.7434    9.7995 H   0  0  0  0  0  0  0  0  0  0  0  0
   33.4477   66.3844    8.4950 H   0  0  0  0  0  0  0  0  0  0  0  0
   30.7481   66.3906   10.7321 H   0  0  0  0  0  0  0  0  0  0  0  0
  1  2  1  0  0  0
  3  2  1  0  0  0
  2  7  1  0  0  0
  4  3  1  0  0  0
  3  5  1  0  0  0
  6  5  1  0  0  0
  5  9  1  0  0  0
  7  9  1  0  0  0
  7  8  1  0  0  0
  9 10  1  0  0  0
  1 11  1  0  0  0
  4 12  1  0  0  0
  6 13  1  0  0  0
  8 14  1  0  0  0
  8 15  1  0  0  0
 10 16  1  0  0  0
M  END
> <minimizedAffinity>
-6.04895

$$$$
3DX3_YTB_A_1050


 16 16  0  0  0  0  0  0  0  0999 V2000
   32.1507   65.6110    9.8267 O   0  0  0  0  0  0  0  0  0  0  0  0
   31.5945   66.3826    8.7490 C   0  0  0  0  0  0  0  0  0  0  0  0
   32.1914   65.9562    7.4273 C   0  0  0  0  0  0  0  0  0  0  0  0
   33.5997   66.1880    7.2863 O   0  0  0  0  0  0  0  0  0  0  0  0
   31.3204   66.7025    6.4196 C   0  0  0  0  0  0  0  0  0  0  0  0
   31.6814   68.0932    6.4232 O   0  0  0  0  0  0  0  0  0  0  0  0
   30.1174   66.1390    8.4773 C   0  0  0  0  0  0  0  0  0  0  0  0
   29.2460   66.9069    9.3688 N   0  0  0  0  0  0  0  0  0  0  0  0
   29.9055   66.5279    7.0100 C   0  0  0  0  0  0  0  0  0  0  0  0
   29.0755   67.7014    6.8712 O   0  0  0  0  0  0  0  0  0  0  0  0
   33.0904   65.8286    9.9288 H   0  0  0  0  0  0  0  0  0  0  0  0
   33.7828   67.1355    7.3840 H   0  0  0  0  0  0  0  0  0  0  0  0
   31.6083   68.4439    7.3246 H   0  0  0  0  0  0  0  0  0  0  0  0
   29.4326   67.9029    9.2516 H   0  0  0  0  0  0  0  0  0  0  0  0
   29.4276   66.6385   10.3359 H   0  0  0  0  0  0  0  0  0  0  0  0
   29.4899   68.4470    7.3329 H   0  0  0  0  0  0  0  0  0  0  0  0
  1  2  1  0  0  0
  3  2  1  0  0  0
  2  7  1  0  0  0
  4  3  1  0  0  0
  3  5  1  0  0  0
  6  5  1  0  0  0
  5  9  1  0  0  0
  7  9  1  0  0  0
  7  8  1  0  0  0
  9 10  1  0  0  0
  1 11  1  0  0  0
  4 12  1  0  0  0
  6 13  1  0  0  0
  8 14  1  0  0  0
  8 15  1  0  0  0
 10 16  1  0  0  0
M  END
> <minimizedAffinity>
-5.91084

$$$$
3DX3_YTB_A_1050


 16 16  0  0  0  0  0  0  0  0999 V2000
   31.7981   65.1236    9.7935 O   0  0  0  0  0  0  0  0  0  0  0  0
   30.4520   65.2835    9.3153 C   0  0  0  0  0  0  0  0  0  0  0  0
   29.6342   66.0965   10.2926 C   0  0  0  0  0  0  0  0  0  0  0  0
   29.4414   65.4959   11.5807 O   0  0  0  0  0  0  0  0  0  0  0  0
   28.3477   66.3500    9.5106 C   0  0  0  0  0  0  0  0  0  0  0  0
   27.5715   65.1414    9.4753 O   0  0  0  0  0  0  0  0  0  0  0  0
   30.3103   66.1333    8.0613 C   0  0  0  0  0  0  0  0  0  0  0  0
   30.5695   65.3765    6.8350 N   0  0  0  0  0  0  0  0  0  0  0  0
   28.8763   66.6733    8.0974 C   0  0  0  0  0  0  0  0  0  0  0  0
   28.0606   66.1261    7.0389 O   0  0  0  0  0  0  0  0  0  0  0  0
   31.7945   64.5713   10.5909 H   0  0  0  0  0  0  0  0  0  0  0  0
   28.9882   64.6446   11.4759 H   0  0  0  0  0  0  0  0  0  0  0  0
   28.1082   64.4231    9.1053 H   0  0  0  0  0  0  0  0  0  0  0  0
   29.9126   64.5989    6.7701 H   0  0  0  0  0  0  0  0  0  0  0  0
   31.5232   65.0153    6.8536 H   0  0  0  0  0  0  0  0  0  0  0  0
   28.0303   65.1600    7.1206 H   0  0  0  0  0  0  0  0  0  0  0  0
  1  2  1  0  0  0
  3  2  1  0  0  0
  2  7  1  0  0  0
  4  3  1  0  0  0
  3  5  1  0  0  0
  6  5  1  0  0  0
  5  9  1  0  0  0
  7  9  1  0  0  0
  7  8  1  0  0  0
  9 10  1  0  0  0
  1 11  1  0  0  0
  4 12  1  0  0  0
  6 13  1  0  0  0
  8 14  1  0  0  0
  8 15  1  0  0  0
 10 16  1  0  0  0
M  END
> <minimizedAffinity>
-5.90350

$$$$
3DX3_YTB_A_1050


 16 16  0  0  0  0  0  0  0  0999 V2000
   28.9826   67.7746    7.0543 O   0  0  0  0  0  0  0  0  0  0  0  0
   28.9987   66.6003    7.8831 C   0  0  0  0  0  0  0  0  0  0  0  0
   30.0201   66.7441    8.9880 C   0  0  0  0  0  0  0  0  0  0  0  0
   31.3839   66.8421    8.5546 O   0  0  0  0  0  0  0  0  0  0  0  0
   29.7192   65.5351    9.8705 C   0  0  0  0  0  0  0  0  0  0  0  0
   30.2087   64.3477    9.2264 O   0  0  0  0  0  0  0  0  0  0  0  0
   27.7363   66.3714    8.7010 C   0  0  0  0  0  0  0  0  0  0  0  0
   26.6775   65.7149    7.9319 N   0  0  0  0  0  0  0  0  0  0  0  0
   28.1764   65.5182    9.8957 C   0  0  0  0  0  0  0  0  0  0  0  0
   27.6149   64.1885    9.8526 O   0  0  0  0  0  0  0  0  0  0  0  0
   29.8214   67.8413    6.5717 H   0  0  0  0  0  0  0  0  0  0  0  0
   31.6221   66.0460    8.0542 H   0  0  0  0  0  0  0  0  0  0  0  0
   29.8226   64.2785    8.3393 H   0  0  0  0  0  0  0  0  0  0  0  0
   27.0106   64.8104    7.5982 H   0  0  0  0  0  0  0  0  0  0  0  0
   26.4240   66.2990    7.1350 H   0  0  0  0  0  0  0  0  0  0  0  0
   27.8941   63.7459    9.0359 H   0  0  0  0  0  0  0  0  0  0  0  0
  1  2  1  0  0  0
  3  2  1  0  0  0
  2  7  1  0  0  0
  4  3  1  0  0  0
  3  5  1  0  0  0
  6  5  1  0  0  0
  5  9  1  0  0  0
  7  9  1  0  0  0
  7  8  1  0  0  0
  9 10  1  0  0  0
  1 11  1  0  0  0
  4 12  1  0  0  0
  6 13  1  0  0  0
  8 14  1  0  0  0
  8 15  1  0  0  0
 10 16  1  0  0  0
M  END
> <minimizedAffinity>
-5.70340

$$$$
3DX3_YTB_A_1050


 16 16  0  0  0  0  0  0  0  0999 V2000
   28.9378   67.6074    6.8745 O   0  0  0  0  0  0  0  0  0  0  0  0
   29.6055   67.1159    8.0487 C   0  0  0  0  0  0  0  0  0  0  0  0
   28.6112   66.5014    9.0071 C   0  0  0  0  0  0  0  0  0  0  0  0
   27.6427   67.4081    9.5521 O   0  0  0  0  0  0  0  0  0  0  0  0
   29.5196   65.8438   10.0431 C   0  0  0  0  0  0  0  0  0  0  0  0
   30.0875   66.8601   10.8851 O   0  0  0  0  0  0  0  0  0  0  0  0
   30.5327   65.9325    7.8150 C   0  0  0  0  0  0  0  0  0  0  0  0
   31.8542   66.3382    7.3325 N   0  0  0  0  0  0  0  0  0  0  0  0
   30.6224   65.2146    9.1662 C   0  0  0  0  0  0  0  0  0  0  0  0
   31.9415   65.3072    9.7465 O   0  0  0  0  0  0  0  0  0  0  0  0
   28.3710   68.3570    7.1147 H   0  0  0  0  0  0  0  0  0  0  0  0
   28.0979   68.1153   10.0354 H   0  0  0  0  0  0  0  0  0  0  0  0
   30.5460   67.5155   10.3364 H   0  0  0  0  0  0  0  0  0  0  0  0
   32.2909   66.9562    8.0164 H   0  0  0  0  0  0  0  0  0  0  0  0
   31.7557   66.8297    6.4442 H   0  0  0  0  0  0  0  0  0  0  0  0
   32.1735   66.2402    9.8750 H   0  0  0  0  0  0  0  0  0  0  0  0
  1  2  1  0  0  0
  3  2  1  0  0  0
  2  7  1  0  0  0
  4  3  1  0  0  0
  3  5  1  0  0  0
  6  5  1  0  0  0
  5  9  1  0  0  0
  7  9  1  0  0  0
  7  8  1  0  0  0
  9 10  1  0  0  0
  1 11  1  0  0  0
  4 12  1  0  0  0
  6 13  1  0  0  0
  8 14  1  0  0  0
  8 15  1  0  0  0
 10 16  1  0  0  0
M  END
> <minimizedAffinity>
-5.66811

$$$$
