5G5F_GSH_A_1222
  RCSB PDB12061717483D
Coordinates from PDB:5G5F:A:1222 Model:1 without hydrogens
 20 19  0  0  0  0            999 V2000
   -3.8370  -27.9090   19.1950   N 0  0  0  0  0  0  0  0  0  0  0  0
   -3.2300  -27.7900   17.9200   C 0  0  0  0  0  0  0  0  0  0  0  0
   -3.5960  -26.4690   17.2680   C 0  0  0  0  0  0  0  0  0  0  0  0
   -2.7630  -25.8920   16.5190   O 0  0  0  0  0  0  0  0  0  0  0  0
   -4.7340  -25.9370   17.4680   O 0  0  0  0  0  0  0  0  0  0  0  0
   -3.6500  -28.9340   17.0090   C 0  0  0  0  0  0  0  0  0  0  0  0
   -2.6160  -29.0860   15.8910   C 0  0  0  0  0  0  0  0  0  0  0  0
   -2.8710  -30.3370   15.0750   C 0  0  0  0  0  0  0  0  0  0  0  0
   -3.2140  -31.3610   15.6200   O 0  0  0  0  0  0  0  0  0  0  0  0
   -2.7070  -30.3440   13.6260   N 0  0  0  0  0  0  0  0  0  0  0  0
   -2.9410  -31.6210   12.9740   C 0  0  0  0  0  0  0  0  0  0  0  0
   -1.6030  -32.1510   12.5050   C 0  0  0  0  0  0  0  0  0  0  0  0
   -1.4290  -32.5170   11.3590   O 0  0  0  0  0  0  0  0  0  0  0  0
   -3.8430  -31.5590   11.8480   C 0  0  0  0  0  0  0  0  0  0  0  0
   -4.7210  -30.0430   11.8280   S 0  0  0  0  0  0  0  0  0  0  0  0
   -0.5660  -32.1590   13.4950   N 0  0  0  0  0  0  0  0  0  0  0  0
    0.7220  -32.6550   13.1720   C 0  0  0  0  0  0  0  0  0  0  0  0
    0.5410  -33.9160   13.9650   C 0  0  0  0  0  0  0  0  0  0  0  0
   -0.5760  -34.1630   14.4640   O 0  0  0  0  0  0  0  0  0  0  0  0
    1.4670  -34.7270   14.1680   O 0  0  0  0  0  0  0  0  0  0  0  0
  1  2  1  0  0  0  0
  2  3  1  0  0  0  0
  2  6  1  0  0  0  0
  3  4  2  0  0  0  0
  3  5  1  0  0  0  0
  6  7  1  0  0  0  0
  7  8  1  0  0  0  0
  8  9  2  0  0  0  0
  8 10  1  0  0  0  0
 10 11  1  0  0  0  0
 11 12  1  0  0  0  0
 11 14  1  0  0  0  0
 12 13  2  0  0  0  0
 12 16  1  0  0  0  0
 14 15  1  0  0  0  0
 16 17  1  0  0  0  0
 17 18  1  0  0  0  0
 18 19  2  0  0  0  0
 18 20  1  0  0  0  0
A    1
N1
A    2
CA1
A    3
C1
A    4
O11
A    5
O12
A    6
CB1
A    7
CG1
A    8
CD1
A    9
OE1
A   10
N2
A   11
CA2
A   12
C2
A   13
O2
A   14
CB2
A   15
SG2
A   16
N3
A   17
CA3
A   18
C3
A   19
O31
A   20
O32
M  END
>  <InstanceId>
5G5F_GSH_A_1222

>  <ChemCompId>
GSH

>  <PdbId>
5G5F

>  <ChainId>
A

>  <ResidueNumber>
1222

>  <InsertionCode>


>  <Model>
1

>  <AltIds>


>  <MissingHeavyAtoms>
0

>  <ObservedFormula>
C10 N3 O6 S

>  <Name>
GLUTATHIONE

>  <SystematicName>
(2S)-2-azanyl-5-[[(2R)-1-(2-hydroxy-2-oxoethylamino)-1-oxidanylidene-3-sulfanyl-propan-2-yl]amino]-5-oxidanylidene-pentanoic acid

>  <Synonyms>


>  <Type>
NON-POLYMER

>  <Formula>
C10 H17 N3 O6 S

>  <MolecularWeight>
307.323

>  <ModifiedDate>
2014-04-22

>  <Parent>


>  <OneLetterCode>


>  <SubcomponentList>


>  <AmbiguousFlag>
N

>  <InChI>
InChI=1S/C10H17N3O6S/c11-5(10(18)19)1-2-7(14)13-6(4-20)9(17)12-3-8(15)16/h5-6,20H,1-4,11H2,(H,12,17)(H,13,14)(H,15,16)(H,18,19)/t5-,6-/m0/s1

>  <InChIKey>
RWSXRVCMGQZWBV-WDSKDSINSA-N

>  <SMILES>
C(CC(=O)N[C@@H](CS)C(=O)NCC(=O)O)[C@@H](C(=O)O)N

$$$$
