5G5F_GSH_A_1222


 27 26  0  0  0  0  0  0  0  0999 V2000
   -5.5979  -29.2999   19.2732 C   0  0  0  0  0  0  0  0  0  0  0  0
   -6.7387  -28.9566   19.0631 O   0  0  0  0  0  0  0  0  0  0  0  0
   -5.1075  -29.2732   20.6463 N   0  0  0  0  0  0  0  0  0  0  0  0
   -4.1975  -29.5641   20.8841 H   0  0  0  0  0  0  0  0  0  0  0  0
   -4.7093  -29.7393   18.1273 C   0  0  0  0  0  0  0  0  0  0  0  0
   -4.3187  -28.5528   17.2431 C   0  0  0  0  0  0  0  0  0  0  0  0
   -2.4502  -28.5462   18.7835 N   0  0  0  0  0  0  0  0  0  0  0  0
   -2.8455  -28.2389   17.4578 C   0  0  0  0  0  0  0  0  0  0  0  0
   -1.4610  -28.3278   18.9027 H   0  0  0  0  0  0  0  0  0  0  0  0
   -2.6031  -29.5387   18.9625 H   0  0  0  0  0  0  0  0  0  0  0  0
   -2.5933  -26.7753   17.1439 C   0  0  0  0  0  0  0  0  0  0  0  0
   -1.4381  -26.4002   16.8083 O   0  0  0  0  0  0  0  0  0  0  0  0
   -3.5342  -25.9223   17.2149 O   0  0  0  0  0  0  0  0  0  0  0  0
   -4.3956  -26.1945   17.4638 H   0  0  0  0  0  0  0  0  0  0  0  0
   -6.0501  -28.7891   21.6401 C   0  0  0  0  0  0  0  0  0  0  0  0
   -5.7370  -27.3313   21.9006 C   0  0  0  0  0  0  0  0  0  0  0  0
   -5.0468  -26.9858   22.8397 O   0  0  0  0  0  0  0  0  0  0  0  0
   -6.2850  -26.4077   20.9507 N   0  0  0  0  0  0  0  0  0  0  0  0
   -6.8092  -26.7414   20.1871 H   0  0  0  0  0  0  0  0  0  0  0  0
   -6.0733  -25.0151   21.1090 C   0  0  0  0  0  0  0  0  0  0  0  0
   -5.6114  -24.8266   19.6937 C   0  0  0  0  0  0  0  0  0  0  0  0
   -6.2294  -25.3997   18.7732 O   0  0  0  0  0  0  0  0  0  0  0  0
   -4.6184  -24.1343   19.3920 O   0  0  0  0  0  0  0  0  0  0  0  0
   -4.1346  -23.6922   20.0617 H   0  0  0  0  0  0  0  0  0  0  0  0
   -6.0178  -29.5079   22.8922 C   0  0  0  0  0  0  0  0  0  0  0  0
   -7.2944  -30.7057   22.9630 S   0  0  0  0  0  0  0  0  0  0  0  0
   -8.5018  -30.0879   22.8620 H   0  0  0  0  0  0  0  0  0  0  0  0
  7  8  1  0  0  0
  8 11  1  0  0  0
  8  6  1  0  0  0
 11 12  2  0  0  0
 11 13  1  0  0  0
  6  5  1  0  0  0
  5  1  1  0  0  0
  1  2  2  0  0  0
  1  3  1  0  0  0
  3 15  1  0  0  0
 15 16  1  0  0  0
 15 25  1  0  0  0
 16 17  2  0  0  0
 16 18  1  0  0  0
 25 26  1  0  0  0
 18 20  1  0  0  0
 20 21  1  0  0  0
 21 22  2  0  0  0
 21 23  1  0  0  0
  7  9  1  0  0  0
  7 10  1  0  0  0
 13 14  1  0  0  0
  3  4  1  0  0  0
 26 27  1  0  0  0
 18 19  1  0  0  0
 23 24  1  0  0  0
M  END
> <minimizedAffinity>
-6.67318

$$$$
5G5F_GSH_A_1222


 27 26  0  0  0  0  0  0  0  0999 V2000
   -4.8634  -27.7603   22.5167 C   0  0  0  0  0  0  0  0  0  0  0  0
   -4.4041  -28.5665   23.2928 O   0  0  0  0  0  0  0  0  0  0  0  0
   -4.9089  -28.1084   21.1014 N   0  0  0  0  0  0  0  0  0  0  0  0
   -5.2935  -27.5052   20.4249 H   0  0  0  0  0  0  0  0  0  0  0  0
   -5.3705  -26.4226   23.0162 C   0  0  0  0  0  0  0  0  0  0  0  0
   -4.8559  -25.2750   22.1442 C   0  0  0  0  0  0  0  0  0  0  0  0
   -7.1627  -25.5484   21.4600 N   0  0  0  0  0  0  0  0  0  0  0  0
   -5.9869  -24.7852   21.2520 C   0  0  0  0  0  0  0  0  0  0  0  0
   -7.9049  -25.2019   20.8521 H   0  0  0  0  0  0  0  0  0  0  0  0
   -7.4542  -25.4653   22.4339 H   0  0  0  0  0  0  0  0  0  0  0  0
   -5.5471  -24.8540   19.8009 C   0  0  0  0  0  0  0  0  0  0  0  0
   -6.0373  -25.7327   19.0423 O   0  0  0  0  0  0  0  0  0  0  0  0
   -4.6896  -24.0350   19.3405 O   0  0  0  0  0  0  0  0  0  0  0  0
   -4.3211  -23.3791   19.8991 H   0  0  0  0  0  0  0  0  0  0  0  0
   -4.3495  -29.4036   20.7552 C   0  0  0  0  0  0  0  0  0  0  0  0
   -3.9749  -29.3669   19.2891 C   0  0  0  0  0  0  0  0  0  0  0  0
   -3.4115  -30.3005   18.7519 O   0  0  0  0  0  0  0  0  0  0  0  0
   -4.3576  -28.1760   18.5886 N   0  0  0  0  0  0  0  0  0  0  0  0
   -4.8435  -27.4623   19.0617 H   0  0  0  0  0  0  0  0  0  0  0  0
   -4.0378  -28.0242   17.2160 C   0  0  0  0  0  0  0  0  0  0  0  0
   -3.0168  -26.9550   17.4729 C   0  0  0  0  0  0  0  0  0  0  0  0
   -1.8168  -27.2781   17.5880 O   0  0  0  0  0  0  0  0  0  0  0  0
   -3.3149  -25.7501   17.5978 O   0  0  0  0  0  0  0  0  0  0  0  0
   -4.2077  -25.4775   17.5165 H   0  0  0  0  0  0  0  0  0  0  0  0
   -5.2388  -30.5179   20.9855 C   0  0  0  0  0  0  0  0  0  0  0  0
   -6.8081  -30.2304   20.2615 S   0  0  0  0  0  0  0  0  0  0  0  0
   -7.3674  -29.1221   20.8170 H   0  0  0  0  0  0  0  0  0  0  0  0
  7  8  1  0  0  0
  8 11  1  0  0  0
  8  6  1  0  0  0
 11 12  2  0  0  0
 11 13  1  0  0  0
  6  5  1  0  0  0
  5  1  1  0  0  0
  1  2  2  0  0  0
  1  3  1  0  0  0
  3 15  1  0  0  0
 15 16  1  0  0  0
 15 25  1  0  0  0
 16 17  2  0  0  0
 16 18  1  0  0  0
 25 26  1  0  0  0
 18 20  1  0  0  0
 20 21  1  0  0  0
 21 22  2  0  0  0
 21 23  1  0  0  0
  7  9  1  0  0  0
  7 10  1  0  0  0
 13 14  1  0  0  0
  3  4  1  0  0  0
 26 27  1  0  0  0
 18 19  1  0  0  0
 23 24  1  0  0  0
M  END
> <minimizedAffinity>
-5.76340

$$$$
5G5F_GSH_A_1222


 27 26  0  0  0  0  0  0  0  0999 V2000
   -3.3506  -29.7264   16.3348 C   0  0  0  0  0  0  0  0  0  0  0  0
   -2.3791  -29.0222   16.1815 O   0  0  0  0  0  0  0  0  0  0  0  0
   -3.5993  -30.7858   15.3641 N   0  0  0  0  0  0  0  0  0  0  0  0
   -4.3585  -31.4069   15.4483 H   0  0  0  0  0  0  0  0  0  0  0  0
   -4.2813  -29.4985   17.5086 C   0  0  0  0  0  0  0  0  0  0  0  0
   -3.8411  -28.2898   18.3377 C   0  0  0  0  0  0  0  0  0  0  0  0
   -3.6072  -25.9873   17.6251 N   0  0  0  0  0  0  0  0  0  0  0  0
   -4.5337  -27.0445   17.8042 C   0  0  0  0  0  0  0  0  0  0  0  0
   -4.0941  -25.1654   17.2677 H   0  0  0  0  0  0  0  0  0  0  0  0
   -2.8892  -26.2734   16.9595 H   0  0  0  0  0  0  0  0  0  0  0  0
   -5.6405  -26.6375   18.7599 C   0  0  0  0  0  0  0  0  0  0  0  0
   -5.9252  -25.4181   18.9004 O   0  0  0  0  0  0  0  0  0  0  0  0
   -6.2849  -27.5126   19.4210 O   0  0  0  0  0  0  0  0  0  0  0  0
   -6.0783  -28.4211   19.3213 H   0  0  0  0  0  0  0  0  0  0  0  0
   -2.6530  -30.8644   14.2646 C   0  0  0  0  0  0  0  0  0  0  0  0
   -3.4329  -30.7270   12.9746 C   0  0  0  0  0  0  0  0  0  0  0  0
   -3.1789  -29.8552   12.1665 O   0  0  0  0  0  0  0  0  0  0  0  0
   -4.4580  -31.7083   12.7709 N   0  0  0  0  0  0  0  0  0  0  0  0
   -4.6014  -32.4155   13.4407 H   0  0  0  0  0  0  0  0  0  0  0  0
   -5.2656  -31.6623   11.6068 C   0  0  0  0  0  0  0  0  0  0  0  0
   -6.3944  -32.4191   12.2430 C   0  0  0  0  0  0  0  0  0  0  0  0
   -6.3694  -32.6231   13.4741 O   0  0  0  0  0  0  0  0  0  0  0  0
   -7.3557  -32.8754   11.5917 O   0  0  0  0  0  0  0  0  0  0  0  0
   -7.4016  -32.7381   10.6660 H   0  0  0  0  0  0  0  0  0  0  0  0
   -1.8876  -32.0883   14.2231 C   0  0  0  0  0  0  0  0  0  0  0  0
   -0.3647  -31.8500   13.3903 S   0  0  0  0  0  0  0  0  0  0  0  0
   -0.6046  -31.4586   12.1101 H   0  0  0  0  0  0  0  0  0  0  0  0
  7  8  1  0  0  0
  8 11  1  0  0  0
  8  6  1  0  0  0
 11 12  2  0  0  0
 11 13  1  0  0  0
  6  5  1  0  0  0
  5  1  1  0  0  0
  1  2  2  0  0  0
  1  3  1  0  0  0
  3 15  1  0  0  0
 15 16  1  0  0  0
 15 25  1  0  0  0
 16 17  2  0  0  0
 16 18  1  0  0  0
 25 26  1  0  0  0
 18 20  1  0  0  0
 20 21  1  0  0  0
 21 22  2  0  0  0
 21 23  1  0  0  0
  7  9  1  0  0  0
  7 10  1  0  0  0
 13 14  1  0  0  0
  3  4  1  0  0  0
 26 27  1  0  0  0
 18 19  1  0  0  0
 23 24  1  0  0  0
M  END
> <minimizedAffinity>
-5.72558

$$$$
5G5F_GSH_A_1222


 27 26  0  0  0  0  0  0  0  0999 V2000
   -5.6057  -29.8724   18.9880 C   0  0  0  0  0  0  0  0  0  0  0  0
   -6.8039  -30.0368   18.9637 O   0  0  0  0  0  0  0  0  0  0  0  0
   -5.0083  -29.3015   20.1895 N   0  0  0  0  0  0  0  0  0  0  0  0
   -4.0372  -29.1668   20.2795 H   0  0  0  0  0  0  0  0  0  0  0  0
   -4.7586  -30.2500   17.7897 C   0  0  0  0  0  0  0  0  0  0  0  0
   -4.1418  -29.0116   17.1355 C   0  0  0  0  0  0  0  0  0  0  0  0
   -1.9877  -28.1742   16.4126 N   0  0  0  0  0  0  0  0  0  0  0  0
   -2.7379  -29.3513   16.6573 C   0  0  0  0  0  0  0  0  0  0  0  0
   -1.0524  -28.4273   16.0938 H   0  0  0  0  0  0  0  0  0  0  0  0
   -1.9181  -27.6304   17.2727 H   0  0  0  0  0  0  0  0  0  0  0  0
   -2.8271  -30.2057   15.4058 C   0  0  0  0  0  0  0  0  0  0  0  0
   -2.5903  -31.4413   15.4768 O   0  0  0  0  0  0  0  0  0  0  0  0
   -3.1384  -29.6897   14.2856 O   0  0  0  0  0  0  0  0  0  0  0  0
   -3.3157  -28.7716   14.2257 H   0  0  0  0  0  0  0  0  0  0  0  0
   -5.9405  -28.9445   21.2451 C   0  0  0  0  0  0  0  0  0  0  0  0
   -5.6539  -27.5141   21.6487 C   0  0  0  0  0  0  0  0  0  0  0  0
   -5.0009  -27.2504   22.6396 O   0  0  0  0  0  0  0  0  0  0  0  0
   -6.1792  -26.5120   20.7682 N   0  0  0  0  0  0  0  0  0  0  0  0
   -6.6725  -26.7786   19.9591 H   0  0  0  0  0  0  0  0  0  0  0  0
   -5.9895  -25.1380   21.0606 C   0  0  0  0  0  0  0  0  0  0  0  0
   -5.6575  -24.7826   19.6410 C   0  0  0  0  0  0  0  0  0  0  0  0
   -4.7204  -23.9890   19.4183 O   0  0  0  0  0  0  0  0  0  0  0  0
   -6.2917  -25.2310   18.6647 O   0  0  0  0  0  0  0  0  0  0  0  0
   -7.0004  -25.8286   18.8009 H   0  0  0  0  0  0  0  0  0  0  0  0
   -5.8668  -29.7871   22.4156 C   0  0  0  0  0  0  0  0  0  0  0  0
   -7.4547  -30.0349   23.1132 S   0  0  0  0  0  0  0  0  0  0  0  0
   -7.9772  -28.8366   23.4881 H   0  0  0  0  0  0  0  0  0  0  0  0
  7  8  1  0  0  0
  8 11  1  0  0  0
  8  6  1  0  0  0
 11 12  2  0  0  0
 11 13  1  0  0  0
  6  5  1  0  0  0
  5  1  1  0  0  0
  1  2  2  0  0  0
  1  3  1  0  0  0
  3 15  1  0  0  0
 15 16  1  0  0  0
 15 25  1  0  0  0
 16 17  2  0  0  0
 16 18  1  0  0  0
 25 26  1  0  0  0
 18 20  1  0  0  0
 20 21  1  0  0  0
 21 22  2  0  0  0
 21 23  1  0  0  0
  7  9  1  0  0  0
  7 10  1  0  0  0
 13 14  1  0  0  0
  3  4  1  0  0  0
 26 27  1  0  0  0
 18 19  1  0  0  0
 23 24  1  0  0  0
M  END
> <minimizedAffinity>
-5.62031

$$$$
5G5F_GSH_A_1222


 27 26  0  0  0  0  0  0  0  0999 V2000
   -5.7521  -29.2569   19.1596 C   0  0  0  0  0  0  0  0  0  0  0  0
   -6.9223  -29.5537   19.2354 O   0  0  0  0  0  0  0  0  0  0  0  0
   -5.1905  -28.3837   20.1837 N   0  0  0  0  0  0  0  0  0  0  0  0
   -4.2401  -28.1269   20.1907 H   0  0  0  0  0  0  0  0  0  0  0  0
   -4.9032  -29.7824   18.0198 C   0  0  0  0  0  0  0  0  0  0  0  0
   -3.5859  -29.0110   17.9094 C   0  0  0  0  0  0  0  0  0  0  0  0
   -2.6323  -28.4240   15.7623 N   0  0  0  0  0  0  0  0  0  0  0  0
   -3.6477  -28.0965   16.6950 C   0  0  0  0  0  0  0  0  0  0  0  0
   -2.6942  -27.7986   14.9589 H   0  0  0  0  0  0  0  0  0  0  0  0
   -2.7533  -29.3883   15.4527 H   0  0  0  0  0  0  0  0  0  0  0  0
   -3.5216  -26.6529   17.1471 C   0  0  0  0  0  0  0  0  0  0  0  0
   -2.6478  -25.9105   16.6245 O   0  0  0  0  0  0  0  0  0  0  0  0
   -4.2878  -26.1828   18.0470 O   0  0  0  0  0  0  0  0  0  0  0  0
   -4.9397  -26.7294   18.4398 H   0  0  0  0  0  0  0  0  0  0  0  0
   -6.1258  -27.9177   21.1930 C   0  0  0  0  0  0  0  0  0  0  0  0
   -6.0878  -26.4045   21.1929 C   0  0  0  0  0  0  0  0  0  0  0  0
   -6.0755  -25.7677   20.1576 O   0  0  0  0  0  0  0  0  0  0  0  0
   -6.0976  -25.7913   22.4888 N   0  0  0  0  0  0  0  0  0  0  0  0
   -6.1428  -26.3514   23.2971 H   0  0  0  0  0  0  0  0  0  0  0  0
   -6.0423  -24.3799   22.6083 C   0  0  0  0  0  0  0  0  0  0  0  0
   -4.5593  -24.3609   22.8369 C   0  0  0  0  0  0  0  0  0  0  0  0
   -4.0105  -25.3636   23.3380 O   0  0  0  0  0  0  0  0  0  0  0  0
   -3.8451  -23.3745   22.5660 O   0  0  0  0  0  0  0  0  0  0  0  0
   -4.2290  -22.6074   22.1890 H   0  0  0  0  0  0  0  0  0  0  0  0
   -5.8492  -28.3948   22.5276 C   0  0  0  0  0  0  0  0  0  0  0  0
   -6.7107  -29.8851   22.8540 S   0  0  0  0  0  0  0  0  0  0  0  0
   -8.0492  -29.6665   22.7528 H   0  0  0  0  0  0  0  0  0  0  0  0
  7  8  1  0  0  0
  8 11  1  0  0  0
  8  6  1  0  0  0
 11 12  2  0  0  0
 11 13  1  0  0  0
  6  5  1  0  0  0
  5  1  1  0  0  0
  1  2  2  0  0  0
  1  3  1  0  0  0
  3 15  1  0  0  0
 15 16  1  0  0  0
 15 25  1  0  0  0
 16 17  2  0  0  0
 16 18  1  0  0  0
 25 26  1  0  0  0
 18 20  1  0  0  0
 20 21  1  0  0  0
 21 22  2  0  0  0
 21 23  1  0  0  0
  7  9  1  0  0  0
  7 10  1  0  0  0
 13 14  1  0  0  0
  3  4  1  0  0  0
 26 27  1  0  0  0
 18 19  1  0  0  0
 23 24  1  0  0  0
M  END
> <minimizedAffinity>
-5.58709

$$$$
5G5F_GSH_A_1222


 27 26  0  0  0  0  0  0  0  0999 V2000
   -5.1464  -30.2595   18.6587 C   0  0  0  0  0  0  0  0  0  0  0  0
   -4.1794  -30.9852   18.6200 O   0  0  0  0  0  0  0  0  0  0  0  0
   -6.4714  -30.8664   18.6070 N   0  0  0  0  0  0  0  0  0  0  0  0
   -7.2960  -30.3312   18.6598 H   0  0  0  0  0  0  0  0  0  0  0  0
   -4.9707  -28.7575   18.7532 C   0  0  0  0  0  0  0  0  0  0  0  0
   -4.4350  -28.1792   17.4414 C   0  0  0  0  0  0  0  0  0  0  0  0
   -3.5348  -25.9347   17.5681 N   0  0  0  0  0  0  0  0  0  0  0  0
   -3.2254  -27.3066   17.7422 C   0  0  0  0  0  0  0  0  0  0  0  0
   -2.7102  -25.3712   17.7750 H   0  0  0  0  0  0  0  0  0  0  0  0
   -4.2920  -25.6741   18.1999 H   0  0  0  0  0  0  0  0  0  0  0  0
   -2.0732  -27.7193   16.8442 C   0  0  0  0  0  0  0  0  0  0  0  0
   -1.0192  -27.0290   16.8262 O   0  0  0  0  0  0  0  0  0  0  0  0
   -2.1583  -28.7541   16.1094 O   0  0  0  0  0  0  0  0  0  0  0  0
   -2.9392  -29.2719   16.1179 H   0  0  0  0  0  0  0  0  0  0  0  0
   -6.4944  -32.3128   18.4725 C   0  0  0  0  0  0  0  0  0  0  0  0
   -6.3298  -32.6418   17.0043 C   0  0  0  0  0  0  0  0  0  0  0  0
   -7.2716  -32.6163   16.2362 O   0  0  0  0  0  0  0  0  0  0  0  0
   -4.9920  -32.9514   16.5920 N   0  0  0  0  0  0  0  0  0  0  0  0
   -4.2574  -32.9246   17.2469 H   0  0  0  0  0  0  0  0  0  0  0  0
   -4.7250  -33.2960   15.2432 C   0  0  0  0  0  0  0  0  0  0  0  0
   -3.9817  -32.0227   14.9640 C   0  0  0  0  0  0  0  0  0  0  0  0
   -4.1078  -31.4798   13.8473 O   0  0  0  0  0  0  0  0  0  0  0  0
   -3.2213  -31.4865   15.7950 O   0  0  0  0  0  0  0  0  0  0  0  0
   -3.1066  -31.8712   16.6417 H   0  0  0  0  0  0  0  0  0  0  0  0
   -7.7006  -32.9379   18.9620 C   0  0  0  0  0  0  0  0  0  0  0  0
   -7.4672  -33.5775   20.5763 S   0  0  0  0  0  0  0  0  0  0  0  0
   -6.4842  -34.5171   20.5539 H   0  0  0  0  0  0  0  0  0  0  0  0
  7  8  1  0  0  0
  8 11  1  0  0  0
  8  6  1  0  0  0
 11 12  2  0  0  0
 11 13  1  0  0  0
  6  5  1  0  0  0
  5  1  1  0  0  0
  1  2  2  0  0  0
  1  3  1  0  0  0
  3 15  1  0  0  0
 15 16  1  0  0  0
 15 25  1  0  0  0
 16 17  2  0  0  0
 16 18  1  0  0  0
 25 26  1  0  0  0
 18 20  1  0  0  0
 20 21  1  0  0  0
 21 22  2  0  0  0
 21 23  1  0  0  0
  7  9  1  0  0  0
  7 10  1  0  0  0
 13 14  1  0  0  0
  3  4  1  0  0  0
 26 27  1  0  0  0
 18 19  1  0  0  0
 23 24  1  0  0  0
M  END
> <minimizedAffinity>
-5.41109

$$$$
5G5F_GSH_A_1222


 27 26  0  0  0  0  0  0  0  0999 V2000
   -4.3516  -30.4352   18.2283 C   0  0  0  0  0  0  0  0  0  0  0  0
   -3.8096  -31.3280   18.8385 O   0  0  0  0  0  0  0  0  0  0  0  0
   -4.7439  -30.6792   16.8451 N   0  0  0  0  0  0  0  0  0  0  0  0
   -5.2106  -30.0014   16.3048 H   0  0  0  0  0  0  0  0  0  0  0  0
   -4.6057  -29.0988   18.8955 C   0  0  0  0  0  0  0  0  0  0  0  0
   -4.7442  -27.9805   17.8600 C   0  0  0  0  0  0  0  0  0  0  0  0
   -3.6949  -25.8102   17.6297 N   0  0  0  0  0  0  0  0  0  0  0  0
   -3.4430  -27.1939   17.8034 C   0  0  0  0  0  0  0  0  0  0  0  0
   -2.8094  -25.3052   17.5948 H   0  0  0  0  0  0  0  0  0  0  0  0
   -4.2524  -25.4654   18.4111 H   0  0  0  0  0  0  0  0  0  0  0  0
   -2.5800  -27.7320   16.6766 C   0  0  0  0  0  0  0  0  0  0  0  0
   -1.3298  -27.5807   16.7225 O   0  0  0  0  0  0  0  0  0  0  0  0
   -3.1032  -28.3347   15.6860 O   0  0  0  0  0  0  0  0  0  0  0  0
   -4.0321  -28.4506   15.6456 H   0  0  0  0  0  0  0  0  0  0  0  0
   -4.4009  -31.9884   16.3170 C   0  0  0  0  0  0  0  0  0  0  0  0
   -3.4318  -31.7842   15.1724 C   0  0  0  0  0  0  0  0  0  0  0  0
   -2.2818  -31.4409   15.3649 O   0  0  0  0  0  0  0  0  0  0  0  0
   -3.9604  -32.0522   13.8669 N   0  0  0  0  0  0  0  0  0  0  0  0
   -4.8897  -32.3615   13.7670 H   0  0  0  0  0  0  0  0  0  0  0  0
   -3.1474  -31.8727   12.7197 C   0  0  0  0  0  0  0  0  0  0  0  0
   -3.7900  -30.5682   12.3496 C   0  0  0  0  0  0  0  0  0  0  0  0
   -4.8520  -30.5802   11.6941 O   0  0  0  0  0  0  0  0  0  0  0  0
   -3.2989  -29.4618   12.6514 O   0  0  0  0  0  0  0  0  0  0  0  0
   -2.5023  -29.4212   13.1431 H   0  0  0  0  0  0  0  0  0  0  0  0
   -5.5299  -32.7558   15.8460 C   0  0  0  0  0  0  0  0  0  0  0  0
   -6.7923  -32.8267   17.0588 S   0  0  0  0  0  0  0  0  0  0  0  0
   -6.3111  -33.4284   18.1795 H   0  0  0  0  0  0  0  0  0  0  0  0
  7  8  1  0  0  0
  8 11  1  0  0  0
  8  6  1  0  0  0
 11 12  2  0  0  0
 11 13  1  0  0  0
  6  5  1  0  0  0
  5  1  1  0  0  0
  1  2  2  0  0  0
  1  3  1  0  0  0
  3 15  1  0  0  0
 15 16  1  0  0  0
 15 25  1  0  0  0
 16 17  2  0  0  0
 16 18  1  0  0  0
 25 26  1  0  0  0
 18 20  1  0  0  0
 20 21  1  0  0  0
 21 22  2  0  0  0
 21 23  1  0  0  0
  7  9  1  0  0  0
  7 10  1  0  0  0
 13 14  1  0  0  0
  3  4  1  0  0  0
 26 27  1  0  0  0
 18 19  1  0  0  0
 23 24  1  0  0  0
M  END
> <minimizedAffinity>
-5.37519

$$$$
5G5F_GSH_A_1222


 27 26  0  0  0  0  0  0  0  0999 V2000
   -3.1304  -30.4473   15.5961 C   0  0  0  0  0  0  0  0  0  0  0  0
   -3.5877  -31.5527   15.7756 O   0  0  0  0  0  0  0  0  0  0  0  0
   -2.6308  -30.1108   14.2681 N   0  0  0  0  0  0  0  0  0  0  0  0
   -2.2702  -29.2202   14.0534 H   0  0  0  0  0  0  0  0  0  0  0  0
   -3.0792  -29.4481   16.7341 C   0  0  0  0  0  0  0  0  0  0  0  0
   -3.0729  -28.0107   16.2087 C   0  0  0  0  0  0  0  0  0  0  0  0
   -3.4078  -25.9144   17.3739 N   0  0  0  0  0  0  0  0  0  0  0  0
   -2.6040  -27.0801   17.3174 C   0  0  0  0  0  0  0  0  0  0  0  0
   -3.0746  -25.3076   18.1231 H   0  0  0  0  0  0  0  0  0  0  0  0
   -4.3764  -26.1778   17.5551 H   0  0  0  0  0  0  0  0  0  0  0  0
   -1.1468  -26.7216   17.0888 C   0  0  0  0  0  0  0  0  0  0  0  0
   -0.2473  -27.3355   17.7226 O   0  0  0  0  0  0  0  0  0  0  0  0
   -0.8221  -25.8088   16.2644 O   0  0  0  0  0  0  0  0  0  0  0  0
   -1.4859  -25.3484   15.7898 H   0  0  0  0  0  0  0  0  0  0  0  0
   -2.7000  -31.1762   13.2829 C   0  0  0  0  0  0  0  0  0  0  0  0
   -1.2855  -31.4948   12.8484 C   0  0  0  0  0  0  0  0  0  0  0  0
   -0.3229  -31.1253   13.4922 O   0  0  0  0  0  0  0  0  0  0  0  0
   -1.1735  -32.2793   11.6536 N   0  0  0  0  0  0  0  0  0  0  0  0
   -1.9856  -32.5831   11.1874 H   0  0  0  0  0  0  0  0  0  0  0  0
    0.1044  -32.6182   11.1424 C   0  0  0  0  0  0  0  0  0  0  0  0
   -0.0701  -34.0841   11.4117 C   0  0  0  0  0  0  0  0  0  0  0  0
   -1.1743  -34.6162   11.1764 O   0  0  0  0  0  0  0  0  0  0  0  0
    0.8376  -34.7989   11.8824 O   0  0  0  0  0  0  0  0  0  0  0  0
    1.6773  -34.4272   12.0693 H   0  0  0  0  0  0  0  0  0  0  0  0
   -3.4899  -30.8590   12.1164 C   0  0  0  0  0  0  0  0  0  0  0  0
   -5.0440  -31.6662   12.1704 S   0  0  0  0  0  0  0  0  0  0  0  0
   -4.8547  -33.0126   12.1986 H   0  0  0  0  0  0  0  0  0  0  0  0
  7  8  1  0  0  0
  8 11  1  0  0  0
  8  6  1  0  0  0
 11 12  2  0  0  0
 11 13  1  0  0  0
  6  5  1  0  0  0
  5  1  1  0  0  0
  1  2  2  0  0  0
  1  3  1  0  0  0
  3 15  1  0  0  0
 15 16  1  0  0  0
 15 25  1  0  0  0
 16 17  2  0  0  0
 16 18  1  0  0  0
 25 26  1  0  0  0
 18 20  1  0  0  0
 20 21  1  0  0  0
 21 22  2  0  0  0
 21 23  1  0  0  0
  7  9  1  0  0  0
  7 10  1  0  0  0
 13 14  1  0  0  0
  3  4  1  0  0  0
 26 27  1  0  0  0
 18 19  1  0  0  0
 23 24  1  0  0  0
M  END
> <minimizedAffinity>
-5.32423

$$$$
5G5F_GSH_A_1222


 27 26  0  0  0  0  0  0  0  0999 V2000
   -4.4684  -32.3353    8.4285 C   0  0  0  0  0  0  0  0  0  0  0  0
   -3.8551  -31.5959    7.6934 O   0  0  0  0  0  0  0  0  0  0  0  0
   -3.9685  -32.5374    9.7834 N   0  0  0  0  0  0  0  0  0  0  0  0
   -4.4366  -33.1070   10.4358 H   0  0  0  0  0  0  0  0  0  0  0  0
   -5.7213  -33.0325    7.9385 C   0  0  0  0  0  0  0  0  0  0  0  0
   -5.9877  -34.3141    8.7315 C   0  0  0  0  0  0  0  0  0  0  0  0
   -7.7019  -32.7817    9.4915 N   0  0  0  0  0  0  0  0  0  0  0  0
   -7.1790  -34.0891    9.6509 C   0  0  0  0  0  0  0  0  0  0  0  0
   -8.4977  -32.6552   10.1168 H   0  0  0  0  0  0  0  0  0  0  0  0
   -8.0041  -32.6518    8.5260 H   0  0  0  0  0  0  0  0  0  0  0  0
   -6.7560  -34.3308   11.0885 C   0  0  0  0  0  0  0  0  0  0  0  0
   -5.5810  -34.7125   11.3365 O   0  0  0  0  0  0  0  0  0  0  0  0
   -7.5732  -34.1522   12.0468 O   0  0  0  0  0  0  0  0  0  0  0  0
   -8.4484  -33.8685   11.8695 H   0  0  0  0  0  0  0  0  0  0  0  0
   -2.7341  -31.8431   10.1070 C   0  0  0  0  0  0  0  0  0  0  0  0
   -1.6756  -32.8893   10.3829 C   0  0  0  0  0  0  0  0  0  0  0  0
   -1.8128  -34.0435   10.0274 O   0  0  0  0  0  0  0  0  0  0  0  0
   -0.5045  -32.4127   11.0590 N   0  0  0  0  0  0  0  0  0  0  0  0
   -0.4271  -31.4601   11.2953 H   0  0  0  0  0  0  0  0  0  0  0  0
    0.5419  -33.3105   11.3879 C   0  0  0  0  0  0  0  0  0  0  0  0
    1.5967  -32.2435   11.3586 C   0  0  0  0  0  0  0  0  0  0  0  0
    2.1016  -31.9204   10.2639 O   0  0  0  0  0  0  0  0  0  0  0  0
    2.0110  -31.6726   12.3876 O   0  0  0  0  0  0  0  0  0  0  0  0
    1.6509  -31.8944   13.2237 H   0  0  0  0  0  0  0  0  0  0  0  0
   -2.8284  -30.9583   11.2444 C   0  0  0  0  0  0  0  0  0  0  0  0
   -4.2409  -31.3273   12.2130 S   0  0  0  0  0  0  0  0  0  0  0  0
   -5.3617  -31.1670   11.4596 H   0  0  0  0  0  0  0  0  0  0  0  0
  7  8  1  0  0  0
  8 11  1  0  0  0
  8  6  1  0  0  0
 11 12  2  0  0  0
 11 13  1  0  0  0
  6  5  1  0  0  0
  5  1  1  0  0  0
  1  2  2  0  0  0
  1  3  1  0  0  0
  3 15  1  0  0  0
 15 16  1  0  0  0
 15 25  1  0  0  0
 16 17  2  0  0  0
 16 18  1  0  0  0
 25 26  1  0  0  0
 18 20  1  0  0  0
 20 21  1  0  0  0
 21 22  2  0  0  0
 21 23  1  0  0  0
  7  9  1  0  0  0
  7 10  1  0  0  0
 13 14  1  0  0  0
  3  4  1  0  0  0
 26 27  1  0  0  0
 18 19  1  0  0  0
 23 24  1  0  0  0
M  END
> <minimizedAffinity>
-5.32092

$$$$
5G5F_GSH_A_1222


 27 26  0  0  0  0  0  0  0  0999 V2000
   -4.5542  -28.5101   19.3561 C   0  0  0  0  0  0  0  0  0  0  0  0
   -5.3033  -28.5167   18.4063 O   0  0  0  0  0  0  0  0  0  0  0  0
   -3.1484  -28.8267   19.1327 N   0  0  0  0  0  0  0  0  0  0  0  0
   -2.4855  -28.8134   19.8605 H   0  0  0  0  0  0  0  0  0  0  0  0
   -5.0785  -28.1845   20.7399 C   0  0  0  0  0  0  0  0  0  0  0  0
   -6.2707  -27.2275   20.6692 C   0  0  0  0  0  0  0  0  0  0  0  0
   -6.6615  -25.0855   21.7290 N   0  0  0  0  0  0  0  0  0  0  0  0
   -5.7774  -25.8047   20.8868 C   0  0  0  0  0  0  0  0  0  0  0  0
   -6.3103  -24.1368   21.8597 H   0  0  0  0  0  0  0  0  0  0  0  0
   -6.7245  -25.5524   22.6337 H   0  0  0  0  0  0  0  0  0  0  0  0
   -5.6287  -25.1141   19.5433 C   0  0  0  0  0  0  0  0  0  0  0  0
   -4.8712  -24.1127   19.4380 O   0  0  0  0  0  0  0  0  0  0  0  0
   -6.2593  -25.5342   18.5215 O   0  0  0  0  0  0  0  0  0  0  0  0
   -6.8242  -26.2784   18.5929 H   0  0  0  0  0  0  0  0  0  0  0  0
   -2.7903  -29.1629   17.7654 C   0  0  0  0  0  0  0  0  0  0  0  0
   -2.3760  -27.8841   17.0698 C   0  0  0  0  0  0  0  0  0  0  0  0
   -3.1509  -27.2577   16.3736 O   0  0  0  0  0  0  0  0  0  0  0  0
   -1.0286  -27.4610   17.3168 N   0  0  0  0  0  0  0  0  0  0  0  0
   -0.4509  -27.9860   17.9168 H   0  0  0  0  0  0  0  0  0  0  0  0
   -0.5266  -26.2882   16.6988 C   0  0  0  0  0  0  0  0  0  0  0  0
    0.8158  -26.3981   17.3603 C   0  0  0  0  0  0  0  0  0  0  0  0
    1.7343  -25.6348   16.9978 O   0  0  0  0  0  0  0  0  0  0  0  0
    1.0659  -27.2368   18.2495 O   0  0  0  0  0  0  0  0  0  0  0  0
    0.3963  -27.8232   18.5420 H   0  0  0  0  0  0  0  0  0  0  0  0
   -3.8493  -29.7881   17.0084 C   0  0  0  0  0  0  0  0  0  0  0  0
   -3.2106  -30.6332   15.6129 S   0  0  0  0  0  0  0  0  0  0  0  0
   -2.5754  -29.7483   14.7986 H   0  0  0  0  0  0  0  0  0  0  0  0
  7  8  1  0  0  0
  8 11  1  0  0  0
  8  6  1  0  0  0
 11 12  2  0  0  0
 11 13  1  0  0  0
  6  5  1  0  0  0
  5  1  1  0  0  0
  1  2  2  0  0  0
  1  3  1  0  0  0
  3 15  1  0  0  0
 15 16  1  0  0  0
 15 25  1  0  0  0
 16 17  2  0  0  0
 16 18  1  0  0  0
 25 26  1  0  0  0
 18 20  1  0  0  0
 20 21  1  0  0  0
 21 22  2  0  0  0
 21 23  1  0  0  0
  7  9  1  0  0  0
  7 10  1  0  0  0
 13 14  1  0  0  0
  3  4  1  0  0  0
 26 27  1  0  0  0
 18 19  1  0  0  0
 23 24  1  0  0  0
M  END
> <minimizedAffinity>
-5.26913

$$$$
