3VF5_031_B_201


 45 49  0  0  0  0  0  0  0  0999 V2000
  -13.1542  -19.2507   17.5918 C   0  0  0  0  0  0  0  0  0  0  0  0
  -14.1235  -18.4988   18.3545 O   0  0  0  0  0  0  0  0  0  0  0  0
  -14.1092  -18.7958   19.2778 H   0  0  0  0  0  0  0  0  0  0  0  0
  -13.4981  -20.7275   17.5131 C   0  0  0  0  0  0  0  0  0  0  0  0
  -14.7391  -20.9677   16.7922 N   0  0  0  0  0  0  0  0  0  0  0  0
  -14.6713  -20.8912   15.1518 S   0  0  0  0  0  0  0  0  0  0  0  0
  -13.3788  -21.4564   14.7552 O   0  0  0  0  0  0  0  0  0  0  0  0
  -14.9728  -19.4961   14.7856 O   0  0  0  0  0  0  0  0  0  0  0  0
  -17.9865  -23.2440   13.1476 C   0  0  0  0  0  0  0  0  0  0  0  0
  -16.6783  -23.6756   13.0457 C   0  0  0  0  0  0  0  0  0  0  0  0
  -15.6627  -22.9877   13.7171 C   0  0  0  0  0  0  0  0  0  0  0  0
  -15.9629  -21.8610   14.4618 C   0  0  0  0  0  0  0  0  0  0  0  0
  -17.2723  -21.4549   14.5926 C   0  0  0  0  0  0  0  0  0  0  0  0
  -18.2901  -22.1733   14.0008 C   0  0  0  0  0  0  0  0  0  0  0  0
  -19.0239  -23.8602   12.5264 O   0  0  0  0  0  0  0  0  0  0  0  0
  -18.9066  -23.9740   11.1339 C   0  0  0  0  0  0  0  0  0  0  0  0
  -15.6229  -21.9889   17.3385 C   0  0  0  0  0  0  0  0  0  0  0  0
  -14.9474  -23.2645   17.7857 C   0  0  0  0  0  0  0  0  0  0  0  0
  -14.9979  -23.5857   19.2792 C   0  0  0  0  0  0  0  0  0  0  0  0
  -15.5663  -24.4515   17.1480 N   0  0  0  0  0  0  0  0  0  0  0  0
  -16.3003  -25.1319   18.0026 C   0  0  0  0  0  0  0  0  0  0  0  0
  -16.9865  -26.1348   17.7658 O   0  0  0  0  0  0  0  0  0  0  0  0
  -16.1630  -24.5782   19.3963 C   0  0  0  0  0  0  0  0  0  0  0  0
  -15.4435  -24.6996   16.2032 H   0  0  0  0  0  0  0  0  0  0  0  0
  -11.7813  -18.9741   18.1848 C   0  0  0  0  0  0  0  0  0  0  0  0
  -11.1088  -17.9623   17.4070 N   0  0  0  0  0  0  0  0  0  0  0  0
   -9.7969  -17.9180   17.1724 C   0  0  0  0  0  0  0  0  0  0  0  0
   -9.0029  -18.8089   17.5565 O   0  0  0  0  0  0  0  0  0  0  0  0
  -11.6627  -17.2473   17.0183 H   0  0  0  0  0  0  0  0  0  0  0  0
   -9.4213  -16.8665   16.4365 O   0  0  0  0  0  0  0  0  0  0  0  0
   -8.0624  -17.1661   14.4069 C   0  0  0  0  0  0  0  0  0  0  0  0
   -9.4718  -17.0763   15.0094 C   0  0  0  0  0  0  0  0  0  0  0  0
  -10.0263  -15.7770   14.4327 C   0  0  0  0  0  0  0  0  0  0  0  0
   -8.8299  -14.8429   14.3108 C   0  0  0  0  0  0  0  0  0  0  0  0
   -8.5273  -14.1783   15.5415 O   0  0  0  0  0  0  0  0  0  0  0  0
   -7.2324  -14.5574   16.0297 C   0  0  0  0  0  0  0  0  0  0  0  0
   -6.5246  -15.1906   14.8515 C   0  0  0  0  0  0  0  0  0  0  0  0
   -7.6414  -15.7597   14.0190 C   0  0  0  0  0  0  0  0  0  0  0  0
  -11.8386  -18.5572   19.6653 C   0  0  0  0  0  0  0  0  0  0  0  0
  -10.8214  -20.7231   20.5333 C   0  0  0  0  0  0  0  0  0  0  0  0
   -9.8837  -21.4752   21.2087 C   0  0  0  0  0  0  0  0  0  0  0  0
   -8.9036  -20.7920   21.9473 C   0  0  0  0  0  0  0  0  0  0  0  0
   -8.8260  -19.4077   21.8551 C   0  0  0  0  0  0  0  0  0  0  0  0
   -9.7655  -18.6577   21.1351 C   0  0  0  0  0  0  0  0  0  0  0  0
  -10.7970  -19.3516   20.4592 C   0  0  0  0  0  0  0  0  0  0  0  0
 16 15  1  0  0  0
  9 15  1  0  0  0
 10  9  2  0  0  0
  9 14  1  0  0  0
 11 10  1  0  0  0
 11 12  2  0  0  0
  6 12  1  0  0  0
 12 13  1  0  0  0
 13 14  2  0  0  0
  8  6  2  0  0  0
  5  6  1  0  0  0
  6  7  2  0  0  0
 17  5  1  0  0  0
  5  4  1  0  0  0
 18 17  1  0  0  0
 20 18  1  0  0  0
 19 18  1  0  0  0
 23 19  1  0  0  0
 21 20  1  0  0  0
 22 21  2  0  0  0
 21 23  1  0  0  0
  1  4  1  0  0  0
  1 25  1  0  0  0
  1  2  1  0  0  0
 26 25  1  0  0  0
 25 39  1  0  0  0
 27 26  1  0  0  0
 28 27  2  0  0  0
 30 27  1  0  0  0
 32 30  1  0  0  0
 32 31  1  0  0  0
 31 38  1  0  0  0
 33 32  1  0  0  0
 33 34  1  0  0  0
 34 38  1  0  0  0
 34 35  1  0  0  0
 35 36  1  0  0  0
 37 36  1  0  0  0
 38 37  1  0  0  0
 39 45  1  0  0  0
 45 40  2  0  0  0
 40 41  1  0  0  0
 42 41  2  0  0  0
 43 42  1  0  0  0
 44 43  2  0  0  0
 44 45  1  0  0  0
 20 24  1  0  0  0
  2  3  1  0  0  0
 26 29  1  0  0  0
M  END
> <minimizedAffinity>
-10.86057

$$$$
3VF5_031_B_201


 45 49  0  0  0  0  0  0  0  0999 V2000
  -13.8474  -19.1675   17.9193 C   0  0  0  0  0  0  0  0  0  0  0  0
  -14.9745  -18.3901   18.3796 O   0  0  0  0  0  0  0  0  0  0  0  0
  -15.4480  -18.0239   17.6163 H   0  0  0  0  0  0  0  0  0  0  0  0
  -12.8085  -18.3177   17.2094 C   0  0  0  0  0  0  0  0  0  0  0  0
  -11.4834  -18.9175   17.2498 N   0  0  0  0  0  0  0  0  0  0  0  0
  -10.8144  -19.3371   15.8083 S   0  0  0  0  0  0  0  0  0  0  0  0
  -11.9228  -19.5507   14.8740 O   0  0  0  0  0  0  0  0  0  0  0  0
   -9.8981  -20.4578   16.0832 O   0  0  0  0  0  0  0  0  0  0  0  0
   -8.1816  -15.8697   14.5478 C   0  0  0  0  0  0  0  0  0  0  0  0
   -7.6206  -17.1107   14.7786 C   0  0  0  0  0  0  0  0  0  0  0  0
   -8.4396  -18.1964   15.1041 C   0  0  0  0  0  0  0  0  0  0  0  0
   -9.8073  -18.0235   15.2205 C   0  0  0  0  0  0  0  0  0  0  0  0
  -10.3678  -16.7944   14.9531 C   0  0  0  0  0  0  0  0  0  0  0  0
   -9.5777  -15.7373   14.5525 C   0  0  0  0  0  0  0  0  0  0  0  0
   -7.4520  -14.7713   14.2268 O   0  0  0  0  0  0  0  0  0  0  0  0
   -6.7722  -14.1700   15.2954 C   0  0  0  0  0  0  0  0  0  0  0  0
  -10.5582  -18.3876   18.2425 C   0  0  0  0  0  0  0  0  0  0  0  0
  -10.5088  -19.1373   19.5536 C   0  0  0  0  0  0  0  0  0  0  0  0
   -9.4993  -20.2804   19.6577 C   0  0  0  0  0  0  0  0  0  0  0  0
  -10.1400  -18.2373   20.6728 N   0  0  0  0  0  0  0  0  0  0  0  0
   -8.9067  -18.4514   21.0792 C   0  0  0  0  0  0  0  0  0  0  0  0
   -8.2891  -17.8290   21.9533 O   0  0  0  0  0  0  0  0  0  0  0  0
   -8.3054  -19.6433   20.3824 C   0  0  0  0  0  0  0  0  0  0  0  0
  -10.7426  -17.5637   21.0632 H   0  0  0  0  0  0  0  0  0  0  0  0
  -14.3863  -20.3087   17.0706 C   0  0  0  0  0  0  0  0  0  0  0  0
  -15.1247  -21.2281   17.9016 N   0  0  0  0  0  0  0  0  0  0  0  0
  -14.5830  -22.1134   18.7387 C   0  0  0  0  0  0  0  0  0  0  0  0
  -13.3490  -22.1941   18.9445 O   0  0  0  0  0  0  0  0  0  0  0  0
  -16.1072  -21.1996   17.8461 H   0  0  0  0  0  0  0  0  0  0  0  0
  -15.4857  -22.8619   19.3816 O   0  0  0  0  0  0  0  0  0  0  0  0
  -15.2535  -24.9059   18.0311 C   0  0  0  0  0  0  0  0  0  0  0  0
  -15.1815  -24.2721   19.4277 C   0  0  0  0  0  0  0  0  0  0  0  0
  -16.3508  -24.9102   20.1719 C   0  0  0  0  0  0  0  0  0  0  0  0
  -17.4347  -25.1198   19.1231 C   0  0  0  0  0  0  0  0  0  0  0  0
  -18.2114  -23.9396   18.8958 O   0  0  0  0  0  0  0  0  0  0  0  0
  -18.0500  -23.4648   17.5515 C   0  0  0  0  0  0  0  0  0  0  0  0
  -17.4501  -24.6217   16.7824 C   0  0  0  0  0  0  0  0  0  0  0  0
  -16.6780  -25.3883   17.8218 C   0  0  0  0  0  0  0  0  0  0  0  0
  -15.2628  -19.8265   15.9009 C   0  0  0  0  0  0  0  0  0  0  0  0
  -14.6305  -21.8010   14.4242 C   0  0  0  0  0  0  0  0  0  0  0  0
  -14.8949  -22.8975   13.6310 C   0  0  0  0  0  0  0  0  0  0  0  0
  -16.2352  -23.1638   13.3061 C   0  0  0  0  0  0  0  0  0  0  0  0
  -17.2407  -22.4136   13.9036 C   0  0  0  0  0  0  0  0  0  0  0  0
  -16.9579  -21.3232   14.7371 C   0  0  0  0  0  0  0  0  0  0  0  0
  -15.6013  -21.0138   14.9943 C   0  0  0  0  0  0  0  0  0  0  0  0
 16 15  1  0  0  0
  9 15  1  0  0  0
 10  9  2  0  0  0
  9 14  1  0  0  0
 11 10  1  0  0  0
 11 12  2  0  0  0
  6 12  1  0  0  0
 12 13  1  0  0  0
 13 14  2  0  0  0
  8  6  2  0  0  0
  5  6  1  0  0  0
  6  7  2  0  0  0
 17  5  1  0  0  0
  5  4  1  0  0  0
 18 17  1  0  0  0
 20 18  1  0  0  0
 19 18  1  0  0  0
 23 19  1  0  0  0
 21 20  1  0  0  0
 22 21  2  0  0  0
 21 23  1  0  0  0
  1  4  1  0  0  0
  1 25  1  0  0  0
  1  2  1  0  0  0
 26 25  1  0  0  0
 25 39  1  0  0  0
 27 26  1  0  0  0
 28 27  2  0  0  0
 30 27  1  0  0  0
 32 30  1  0  0  0
 32 31  1  0  0  0
 31 38  1  0  0  0
 33 32  1  0  0  0
 33 34  1  0  0  0
 34 38  1  0  0  0
 34 35  1  0  0  0
 35 36  1  0  0  0
 37 36  1  0  0  0
 38 37  1  0  0  0
 39 45  1  0  0  0
 45 40  2  0  0  0
 40 41  1  0  0  0
 42 41  2  0  0  0
 43 42  1  0  0  0
 44 43  2  0  0  0
 44 45  1  0  0  0
 20 24  1  0  0  0
  2  3  1  0  0  0
 26 29  1  0  0  0
M  END
> <minimizedAffinity>
-10.66484

$$$$
3VF5_031_B_201


 45 49  0  0  0  0  0  0  0  0999 V2000
  -13.5612  -19.4623   17.8839 C   0  0  0  0  0  0  0  0  0  0  0  0
  -14.5413  -18.4651   18.2467 O   0  0  0  0  0  0  0  0  0  0  0  0
  -14.9034  -18.0603   17.4430 H   0  0  0  0  0  0  0  0  0  0  0  0
  -12.3507  -18.8604   17.1924 C   0  0  0  0  0  0  0  0  0  0  0  0
  -11.3012  -18.4977   18.1328 N   0  0  0  0  0  0  0  0  0  0  0  0
  -10.7951  -19.6695   19.1683 S   0  0  0  0  0  0  0  0  0  0  0  0
  -10.5100  -20.8561   18.3572 O   0  0  0  0  0  0  0  0  0  0  0  0
  -11.8194  -19.7661   20.2230 O   0  0  0  0  0  0  0  0  0  0  0  0
   -6.9871  -18.1189   21.0756 C   0  0  0  0  0  0  0  0  0  0  0  0
   -8.2142  -17.7542   21.5947 C   0  0  0  0  0  0  0  0  0  0  0  0
   -9.3875  -18.2833   21.0481 C   0  0  0  0  0  0  0  0  0  0  0  0
   -9.3222  -19.1506   19.9722 C   0  0  0  0  0  0  0  0  0  0  0  0
   -8.0966  -19.5419   19.4809 C   0  0  0  0  0  0  0  0  0  0  0  0
   -6.9319  -19.0893   20.0647 C   0  0  0  0  0  0  0  0  0  0  0  0
   -5.8073  -17.6484   21.5537 O   0  0  0  0  0  0  0  0  0  0  0  0
   -4.7044  -18.4930   21.3648 C   0  0  0  0  0  0  0  0  0  0  0  0
  -10.2627  -17.6042   17.6375 C   0  0  0  0  0  0  0  0  0  0  0  0
   -9.8312  -17.8351   16.2078 C   0  0  0  0  0  0  0  0  0  0  0  0
  -10.1769  -16.7419   15.1970 C   0  0  0  0  0  0  0  0  0  0  0  0
   -8.3570  -17.9575   16.1054 N   0  0  0  0  0  0  0  0  0  0  0  0
   -7.8190  -16.8840   15.5668 C   0  0  0  0  0  0  0  0  0  0  0  0
   -6.6138  -16.6568   15.3973 O   0  0  0  0  0  0  0  0  0  0  0  0
   -8.8794  -15.9292   15.0856 C   0  0  0  0  0  0  0  0  0  0  0  0
   -7.8447  -18.7437   16.4031 H   0  0  0  0  0  0  0  0  0  0  0  0
  -14.2669  -20.5290   17.0611 C   0  0  0  0  0  0  0  0  0  0  0  0
  -15.0656  -21.3630   17.9257 N   0  0  0  0  0  0  0  0  0  0  0  0
  -14.5866  -22.2789   18.7681 C   0  0  0  0  0  0  0  0  0  0  0  0
  -13.3603  -22.4674   18.9486 O   0  0  0  0  0  0  0  0  0  0  0  0
  -16.0426  -21.2466   17.8910 H   0  0  0  0  0  0  0  0  0  0  0  0
  -15.5378  -22.9312   19.4449 O   0  0  0  0  0  0  0  0  0  0  0  0
  -15.3522  -25.0332   18.1790 C   0  0  0  0  0  0  0  0  0  0  0  0
  -15.3337  -24.3556   19.5567 C   0  0  0  0  0  0  0  0  0  0  0  0
  -16.5918  -24.8888   20.2356 C   0  0  0  0  0  0  0  0  0  0  0  0
  -17.6128  -25.0647   19.1195 C   0  0  0  0  0  0  0  0  0  0  0  0
  -18.2903  -23.8451   18.8008 O   0  0  0  0  0  0  0  0  0  0  0  0
  -18.0052  -23.4305   17.4572 C   0  0  0  0  0  0  0  0  0  0  0  0
  -17.4335  -24.6511   16.7692 C   0  0  0  0  0  0  0  0  0  0  0  0
  -16.7883  -25.4286   17.8843 C   0  0  0  0  0  0  0  0  0  0  0  0
  -15.1368  -19.9423   15.9350 C   0  0  0  0  0  0  0  0  0  0  0  0
  -16.9273  -21.3229   14.7657 C   0  0  0  0  0  0  0  0  0  0  0  0
  -17.3821  -22.3057   13.9123 C   0  0  0  0  0  0  0  0  0  0  0  0
  -16.4317  -23.1635   13.3344 C   0  0  0  0  0  0  0  0  0  0  0  0
  -15.0797  -22.9049   13.5238 C   0  0  0  0  0  0  0  0  0  0  0  0
  -14.6308  -21.8792   14.3664 C   0  0  0  0  0  0  0  0  0  0  0  0
  -15.5988  -21.0704   15.0075 C   0  0  0  0  0  0  0  0  0  0  0  0
 16 15  1  0  0  0
  9 15  1  0  0  0
 10  9  2  0  0  0
  9 14  1  0  0  0
 11 10  1  0  0  0
 11 12  2  0  0  0
  6 12  1  0  0  0
 12 13  1  0  0  0
 13 14  2  0  0  0
  8  6  2  0  0  0
  5  6  1  0  0  0
  6  7  2  0  0  0
 17  5  1  0  0  0
  5  4  1  0  0  0
 18 17  1  0  0  0
 20 18  1  0  0  0
 19 18  1  0  0  0
 23 19  1  0  0  0
 21 20  1  0  0  0
 22 21  2  0  0  0
 21 23  1  0  0  0
  1  4  1  0  0  0
  1 25  1  0  0  0
  1  2  1  0  0  0
 26 25  1  0  0  0
 25 39  1  0  0  0
 27 26  1  0  0  0
 28 27  2  0  0  0
 30 27  1  0  0  0
 32 30  1  0  0  0
 32 31  1  0  0  0
 31 38  1  0  0  0
 33 32  1  0  0  0
 33 34  1  0  0  0
 34 38  1  0  0  0
 34 35  1  0  0  0
 35 36  1  0  0  0
 37 36  1  0  0  0
 38 37  1  0  0  0
 39 45  1  0  0  0
 45 40  2  0  0  0
 40 41  1  0  0  0
 42 41  2  0  0  0
 43 42  1  0  0  0
 44 43  2  0  0  0
 44 45  1  0  0  0
 20 24  1  0  0  0
  2  3  1  0  0  0
 26 29  1  0  0  0
M  END
> <minimizedAffinity>
-10.14997

$$$$
3VF5_031_B_201


 45 49  0  0  0  0  0  0  0  0999 V2000
  -12.0196  -21.3625   18.0666 C   0  0  0  0  0  0  0  0  0  0  0  0
  -11.0691  -22.0524   18.9075 O   0  0  0  0  0  0  0  0  0  0  0  0
  -10.2923  -22.2998   18.3819 H   0  0  0  0  0  0  0  0  0  0  0  0
  -12.5792  -22.2539   16.9722 C   0  0  0  0  0  0  0  0  0  0  0  0
  -13.9769  -21.9667   16.6870 N   0  0  0  0  0  0  0  0  0  0  0  0
  -14.2948  -21.1120   15.3195 S   0  0  0  0  0  0  0  0  0  0  0  0
  -13.1093  -21.2242   14.4656 O   0  0  0  0  0  0  0  0  0  0  0  0
  -14.7258  -19.7720   15.7549 O   0  0  0  0  0  0  0  0  0  0  0  0
  -17.8771  -23.1042   13.3851 C   0  0  0  0  0  0  0  0  0  0  0  0
  -18.0594  -22.0071   14.2044 C   0  0  0  0  0  0  0  0  0  0  0  0
  -16.9508  -21.3520   14.7495 C   0  0  0  0  0  0  0  0  0  0  0  0
  -15.6737  -21.8167   14.4904 C   0  0  0  0  0  0  0  0  0  0  0  0
  -15.4927  -22.8872   13.6433 C   0  0  0  0  0  0  0  0  0  0  0  0
  -16.5747  -23.4898   13.0363 C   0  0  0  0  0  0  0  0  0  0  0  0
  -18.9031  -23.7895   12.8198 O   0  0  0  0  0  0  0  0  0  0  0  0
  -18.7273  -24.1263   11.4702 C   0  0  0  0  0  0  0  0  0  0  0  0
  -14.9368  -23.0130   17.0126 C   0  0  0  0  0  0  0  0  0  0  0  0
  -15.9642  -22.6522   18.0602 C   0  0  0  0  0  0  0  0  0  0  0  0
  -17.3607  -23.2507   17.8928 C   0  0  0  0  0  0  0  0  0  0  0  0
  -15.5425  -23.1108   19.4058 N   0  0  0  0  0  0  0  0  0  0  0  0
  -16.2396  -24.1545   19.8015 C   0  0  0  0  0  0  0  0  0  0  0  0
  -16.0907  -24.7999   20.8475 O   0  0  0  0  0  0  0  0  0  0  0  0
  -17.3481  -24.4658   18.8308 C   0  0  0  0  0  0  0  0  0  0  0  0
  -14.8299  -22.6873   19.9369 H   0  0  0  0  0  0  0  0  0  0  0  0
  -11.3476  -20.1023   17.5438 C   0  0  0  0  0  0  0  0  0  0  0  0
  -10.4766  -19.5578   18.5567 N   0  0  0  0  0  0  0  0  0  0  0  0
  -10.8494  -18.7129   19.5186 C   0  0  0  0  0  0  0  0  0  0  0  0
  -12.0371  -18.3484   19.6864 O   0  0  0  0  0  0  0  0  0  0  0  0
   -9.5313  -19.8319   18.5361 H   0  0  0  0  0  0  0  0  0  0  0  0
   -9.8466  -18.3427   20.3221 O   0  0  0  0  0  0  0  0  0  0  0  0
   -7.7470  -18.9943   21.4281 C   0  0  0  0  0  0  0  0  0  0  0  0
   -8.6410  -19.1247   20.1866 C   0  0  0  0  0  0  0  0  0  0  0  0
   -7.8358  -18.4329   19.0905 C   0  0  0  0  0  0  0  0  0  0  0  0
   -7.0916  -17.3007   19.7856 C   0  0  0  0  0  0  0  0  0  0  0  0
   -7.9001  -16.1304   19.9431 O   0  0  0  0  0  0  0  0  0  0  0  0
   -8.1188  -15.8352   21.3301 C   0  0  0  0  0  0  0  0  0  0  0  0
   -7.0751  -16.6312   22.0832 C   0  0  0  0  0  0  0  0  0  0  0  0
   -6.8139  -17.8189   21.1971 C   0  0  0  0  0  0  0  0  0  0  0  0
  -10.5661  -20.3347   16.2384 C   0  0  0  0  0  0  0  0  0  0  0  0
   -8.9325  -18.5767   15.3900 C   0  0  0  0  0  0  0  0  0  0  0  0
   -8.5874  -17.3851   14.7880 C   0  0  0  0  0  0  0  0  0  0  0  0
   -9.6212  -16.4920   14.4616 C   0  0  0  0  0  0  0  0  0  0  0  0
  -10.9416  -16.8948   14.6197 C   0  0  0  0  0  0  0  0  0  0  0  0
  -11.2783  -18.1248   15.2005 C   0  0  0  0  0  0  0  0  0  0  0  0
  -10.2275  -18.9843   15.5996 C   0  0  0  0  0  0  0  0  0  0  0  0
 16 15  1  0  0  0
  9 15  1  0  0  0
 10  9  2  0  0  0
  9 14  1  0  0  0
 11 10  1  0  0  0
 11 12  2  0  0  0
  6 12  1  0  0  0
 12 13  1  0  0  0
 13 14  2  0  0  0
  8  6  2  0  0  0
  5  6  1  0  0  0
  6  7  2  0  0  0
 17  5  1  0  0  0
  5  4  1  0  0  0
 18 17  1  0  0  0
 20 18  1  0  0  0
 19 18  1  0  0  0
 23 19  1  0  0  0
 21 20  1  0  0  0
 22 21  2  0  0  0
 21 23  1  0  0  0
  1  4  1  0  0  0
  1 25  1  0  0  0
  1  2  1  0  0  0
 26 25  1  0  0  0
 25 39  1  0  0  0
 27 26  1  0  0  0
 28 27  2  0  0  0
 30 27  1  0  0  0
 32 30  1  0  0  0
 32 31  1  0  0  0
 31 38  1  0  0  0
 33 32  1  0  0  0
 33 34  1  0  0  0
 34 38  1  0  0  0
 34 35  1  0  0  0
 35 36  1  0  0  0
 37 36  1  0  0  0
 38 37  1  0  0  0
 39 45  1  0  0  0
 45 40  2  0  0  0
 40 41  1  0  0  0
 42 41  2  0  0  0
 43 42  1  0  0  0
 44 43  2  0  0  0
 44 45  1  0  0  0
 20 24  1  0  0  0
  2  3  1  0  0  0
 26 29  1  0  0  0
M  END
> <minimizedAffinity>
-10.02552

$$$$
3VF5_031_B_201


 45 49  0  0  0  0  0  0  0  0999 V2000
  -11.7825  -21.5374   16.9604 C   0  0  0  0  0  0  0  0  0  0  0  0
  -10.8162  -22.5956   16.7789 O   0  0  0  0  0  0  0  0  0  0  0  0
  -10.0061  -22.3810   17.2675 H   0  0  0  0  0  0  0  0  0  0  0  0
  -11.3216  -20.2221   16.3577 C   0  0  0  0  0  0  0  0  0  0  0  0
  -12.4087  -19.2638   16.2269 N   0  0  0  0  0  0  0  0  0  0  0  0
  -12.0207  -17.6747   16.3877 S   0  0  0  0  0  0  0  0  0  0  0  0
  -12.4299  -17.2740   17.7365 O   0  0  0  0  0  0  0  0  0  0  0  0
  -12.6183  -16.9798   15.2341 O   0  0  0  0  0  0  0  0  0  0  0  0
   -7.5793  -16.8866   15.9450 C   0  0  0  0  0  0  0  0  0  0  0  0
   -8.1491  -16.9238   17.2027 C   0  0  0  0  0  0  0  0  0  0  0  0
   -9.5059  -17.2311   17.3447 C   0  0  0  0  0  0  0  0  0  0  0  0
  -10.2834  -17.4722   16.2261 C   0  0  0  0  0  0  0  0  0  0  0  0
   -9.7049  -17.4717   14.9763 C   0  0  0  0  0  0  0  0  0  0  0  0
   -8.3514  -17.2498   14.8320 C   0  0  0  0  0  0  0  0  0  0  0  0
   -6.2710  -16.5974   15.7290 O   0  0  0  0  0  0  0  0  0  0  0  0
   -5.5419  -16.2317   16.8693 C   0  0  0  0  0  0  0  0  0  0  0  0
  -13.4265  -19.5652   15.2291 C   0  0  0  0  0  0  0  0  0  0  0  0
  -14.8167  -19.8091   15.7689 C   0  0  0  0  0  0  0  0  0  0  0  0
  -15.9852  -19.3169   14.9153 C   0  0  0  0  0  0  0  0  0  0  0  0
  -15.0830  -21.2589   15.9299 N   0  0  0  0  0  0  0  0  0  0  0  0
  -15.9064  -21.7049   15.0052 C   0  0  0  0  0  0  0  0  0  0  0  0
  -16.2777  -22.8738   14.8358 O   0  0  0  0  0  0  0  0  0  0  0  0
  -16.4386  -20.5757   14.1629 C   0  0  0  0  0  0  0  0  0  0  0  0
  -14.6927  -21.8181   16.6400 H   0  0  0  0  0  0  0  0  0  0  0  0
  -12.1021  -21.4502   18.4448 C   0  0  0  0  0  0  0  0  0  0  0  0
  -13.2911  -22.2142   18.7335 N   0  0  0  0  0  0  0  0  0  0  0  0
  -14.4763  -21.6983   19.0608 C   0  0  0  0  0  0  0  0  0  0  0  0
  -14.7021  -20.4654   19.0865 O   0  0  0  0  0  0  0  0  0  0  0  0
  -13.2220  -23.1951   18.6850 H   0  0  0  0  0  0  0  0  0  0  0  0
  -15.4138  -22.6222   19.2972 O   0  0  0  0  0  0  0  0  0  0  0  0
  -15.1076  -24.7601   18.1176 C   0  0  0  0  0  0  0  0  0  0  0  0
  -14.9172  -23.9717   19.4213 C   0  0  0  0  0  0  0  0  0  0  0  0
  -15.8661  -24.6597   20.3983 C   0  0  0  0  0  0  0  0  0  0  0  0
  -17.0542  -25.1129   19.5604 C   0  0  0  0  0  0  0  0  0  0  0  0
  -18.0092  -24.0670   19.3549 O   0  0  0  0  0  0  0  0  0  0  0  0
  -18.1140  -23.7278   17.9648 C   0  0  0  0  0  0  0  0  0  0  0  0
  -17.4824  -24.8820   17.2172 C   0  0  0  0  0  0  0  0  0  0  0  0
  -16.4684  -25.4305   18.1842 C   0  0  0  0  0  0  0  0  0  0  0  0
  -10.9392  -21.9167   19.3387 C   0  0  0  0  0  0  0  0  0  0  0  0
  -10.9825  -19.5634   20.3080 C   0  0  0  0  0  0  0  0  0  0  0  0
  -10.4309  -18.4610   20.9257 C   0  0  0  0  0  0  0  0  0  0  0  0
   -9.0447  -18.4616   21.1525 C   0  0  0  0  0  0  0  0  0  0  0  0
   -8.3134  -19.6124   20.8845 C   0  0  0  0  0  0  0  0  0  0  0  0
   -8.8948  -20.7397   20.2890 C   0  0  0  0  0  0  0  0  0  0  0  0
  -10.2774  -20.6989   19.9910 C   0  0  0  0  0  0  0  0  0  0  0  0
 16 15  1  0  0  0
  9 15  1  0  0  0
 10  9  2  0  0  0
  9 14  1  0  0  0
 11 10  1  0  0  0
 11 12  2  0  0  0
  6 12  1  0  0  0
 12 13  1  0  0  0
 13 14  2  0  0  0
  8  6  2  0  0  0
  5  6  1  0  0  0
  6  7  2  0  0  0
 17  5  1  0  0  0
  5  4  1  0  0  0
 18 17  1  0  0  0
 20 18  1  0  0  0
 19 18  1  0  0  0
 23 19  1  0  0  0
 21 20  1  0  0  0
 22 21  2  0  0  0
 21 23  1  0  0  0
  1  4  1  0  0  0
  1 25  1  0  0  0
  1  2  1  0  0  0
 26 25  1  0  0  0
 25 39  1  0  0  0
 27 26  1  0  0  0
 28 27  2  0  0  0
 30 27  1  0  0  0
 32 30  1  0  0  0
 32 31  1  0  0  0
 31 38  1  0  0  0
 33 32  1  0  0  0
 33 34  1  0  0  0
 34 38  1  0  0  0
 34 35  1  0  0  0
 35 36  1  0  0  0
 37 36  1  0  0  0
 38 37  1  0  0  0
 39 45  1  0  0  0
 45 40  2  0  0  0
 40 41  1  0  0  0
 42 41  2  0  0  0
 43 42  1  0  0  0
 44 43  2  0  0  0
 44 45  1  0  0  0
 20 24  1  0  0  0
  2  3  1  0  0  0
 26 29  1  0  0  0
M  END
> <minimizedAffinity>
-10.02230

$$$$
3VF5_031_B_201


 45 49  0  0  0  0  0  0  0  0999 V2000
  -11.7727  -18.0221   15.6175 C   0  0  0  0  0  0  0  0  0  0  0  0
  -12.6369  -17.5363   16.6681 O   0  0  0  0  0  0  0  0  0  0  0  0
  -12.3459  -17.8987   17.5196 H   0  0  0  0  0  0  0  0  0  0  0  0
  -11.8714  -19.5263   15.4351 C   0  0  0  0  0  0  0  0  0  0  0  0
  -12.9749  -20.1026   16.1885 N   0  0  0  0  0  0  0  0  0  0  0  0
  -12.6604  -20.5542   17.7372 S   0  0  0  0  0  0  0  0  0  0  0  0
  -12.9861  -19.4058   18.5870 O   0  0  0  0  0  0  0  0  0  0  0  0
  -11.2809  -21.0717   17.7497 O   0  0  0  0  0  0  0  0  0  0  0  0
  -15.4192  -24.0392   18.6247 C   0  0  0  0  0  0  0  0  0  0  0  0
  -14.1483  -24.2749   18.1372 C   0  0  0  0  0  0  0  0  0  0  0  0
  -13.2736  -23.2048   17.9245 C   0  0  0  0  0  0  0  0  0  0  0  0
  -13.6879  -21.9092   18.1770 C   0  0  0  0  0  0  0  0  0  0  0  0
  -14.9418  -21.6801   18.6984 C   0  0  0  0  0  0  0  0  0  0  0  0
  -15.7825  -22.7343   18.9879 C   0  0  0  0  0  0  0  0  0  0  0  0
  -16.3218  -25.0257   18.8569 O   0  0  0  0  0  0  0  0  0  0  0  0
  -17.2817  -24.7409   19.8383 C   0  0  0  0  0  0  0  0  0  0  0  0
  -14.2931  -19.5275   15.9560 C   0  0  0  0  0  0  0  0  0  0  0  0
  -15.0869  -20.1501   14.8310 C   0  0  0  0  0  0  0  0  0  0  0  0
  -14.4510  -21.3406   14.1136 C   0  0  0  0  0  0  0  0  0  0  0  0
  -16.3821  -20.6824   15.3188 N   0  0  0  0  0  0  0  0  0  0  0  0
  -16.3755  -21.9974   15.3714 C   0  0  0  0  0  0  0  0  0  0  0  0
  -17.2804  -22.7335   15.7863 O   0  0  0  0  0  0  0  0  0  0  0  0
  -15.1092  -22.5573   14.7791 C   0  0  0  0  0  0  0  0  0  0  0  0
  -17.1511  -20.1221   15.5717 H   0  0  0  0  0  0  0  0  0  0  0  0
  -10.3630  -17.5340   15.9132 C   0  0  0  0  0  0  0  0  0  0  0  0
   -9.7450  -18.3928   16.8937 N   0  0  0  0  0  0  0  0  0  0  0  0
   -9.0392  -17.9761   17.9456 C   0  0  0  0  0  0  0  0  0  0  0  0
   -8.8930  -16.7651   18.2348 O   0  0  0  0  0  0  0  0  0  0  0  0
   -9.8529  -19.3644   16.7770 H   0  0  0  0  0  0  0  0  0  0  0  0
   -8.5567  -18.9739   18.6939 O   0  0  0  0  0  0  0  0  0  0  0  0
   -9.8368  -18.4120   20.7191 C   0  0  0  0  0  0  0  0  0  0  0  0
   -9.4730  -19.4864   19.6843 C   0  0  0  0  0  0  0  0  0  0  0  0
   -8.6666  -20.5012   20.4893 C   0  0  0  0  0  0  0  0  0  0  0  0
   -7.9089  -19.6861   21.5288 C   0  0  0  0  0  0  0  0  0  0  0  0
   -6.7000  -19.1243   21.0083 O   0  0  0  0  0  0  0  0  0  0  0  0
   -6.7514  -17.6904   21.0138 C   0  0  0  0  0  0  0  0  0  0  0  0
   -7.8893  -17.3292   21.9437 C   0  0  0  0  0  0  0  0  0  0  0  0
   -8.8248  -18.5038   21.8474 C   0  0  0  0  0  0  0  0  0  0  0  0
   -9.4819  -17.4424   14.6546 C   0  0  0  0  0  0  0  0  0  0  0  0
   -8.5130  -15.1090   14.9635 C   0  0  0  0  0  0  0  0  0  0  0  0
   -7.5067  -14.2032   15.2246 C   0  0  0  0  0  0  0  0  0  0  0  0
   -6.1964  -14.6952   15.3438 C   0  0  0  0  0  0  0  0  0  0  0  0
   -5.9838  -16.0684   15.3401 C   0  0  0  0  0  0  0  0  0  0  0  0
   -7.0227  -16.9800   15.1090 C   0  0  0  0  0  0  0  0  0  0  0  0
   -8.3272  -16.4690   14.9104 C   0  0  0  0  0  0  0  0  0  0  0  0
 16 15  1  0  0  0
  9 15  1  0  0  0
 10  9  2  0  0  0
  9 14  1  0  0  0
 11 10  1  0  0  0
 11 12  2  0  0  0
  6 12  1  0  0  0
 12 13  1  0  0  0
 13 14  2  0  0  0
  8  6  2  0  0  0
  5  6  1  0  0  0
  6  7  2  0  0  0
 17  5  1  0  0  0
  5  4  1  0  0  0
 18 17  1  0  0  0
 20 18  1  0  0  0
 19 18  1  0  0  0
 23 19  1  0  0  0
 21 20  1  0  0  0
 22 21  2  0  0  0
 21 23  1  0  0  0
  1  4  1  0  0  0
  1 25  1  0  0  0
  1  2  1  0  0  0
 26 25  1  0  0  0
 25 39  1  0  0  0
 27 26  1  0  0  0
 28 27  2  0  0  0
 30 27  1  0  0  0
 32 30  1  0  0  0
 32 31  1  0  0  0
 31 38  1  0  0  0
 33 32  1  0  0  0
 33 34  1  0  0  0
 34 38  1  0  0  0
 34 35  1  0  0  0
 35 36  1  0  0  0
 37 36  1  0  0  0
 38 37  1  0  0  0
 39 45  1  0  0  0
 45 40  2  0  0  0
 40 41  1  0  0  0
 42 41  2  0  0  0
 43 42  1  0  0  0
 44 43  2  0  0  0
 44 45  1  0  0  0
 20 24  1  0  0  0
  2  3  1  0  0  0
 26 29  1  0  0  0
M  END
> <minimizedAffinity>
-9.90049

$$$$
3VF5_031_B_201


 45 49  0  0  0  0  0  0  0  0999 V2000
  -10.1068  -18.4226   16.1951 C   0  0  0  0  0  0  0  0  0  0  0  0
   -8.7627  -18.9434   16.1015 O   0  0  0  0  0  0  0  0  0  0  0  0
   -8.2931  -18.7778   16.9339 H   0  0  0  0  0  0  0  0  0  0  0  0
  -10.1338  -16.9117   16.3435 C   0  0  0  0  0  0  0  0  0  0  0  0
   -8.8011  -16.3481   16.4965 N   0  0  0  0  0  0  0  0  0  0  0  0
   -8.1596  -15.5928   15.1852 S   0  0  0  0  0  0  0  0  0  0  0  0
   -8.8340  -14.2968   15.0718 O   0  0  0  0  0  0  0  0  0  0  0  0
   -8.2641  -16.5424   14.0634 O   0  0  0  0  0  0  0  0  0  0  0  0
   -3.7728  -14.9140   16.1008 C   0  0  0  0  0  0  0  0  0  0  0  0
   -4.2543  -16.2008   15.9573 C   0  0  0  0  0  0  0  0  0  0  0  0
   -5.5929  -16.4097   15.6108 C   0  0  0  0  0  0  0  0  0  0  0  0
   -6.4412  -15.3307   15.4371 C   0  0  0  0  0  0  0  0  0  0  0  0
   -5.9499  -14.0486   15.5437 C   0  0  0  0  0  0  0  0  0  0  0  0
   -4.6133  -13.8311   15.8052 C   0  0  0  0  0  0  0  0  0  0  0  0
   -2.4874  -14.6334   16.4338 O   0  0  0  0  0  0  0  0  0  0  0  0
   -2.2783  -14.2850   17.7756 C   0  0  0  0  0  0  0  0  0  0  0  0
   -8.4942  -15.7413   17.7849 C   0  0  0  0  0  0  0  0  0  0  0  0
   -8.1174  -16.7049   18.8862 C   0  0  0  0  0  0  0  0  0  0  0  0
   -6.6321  -17.0315   19.0398 C   0  0  0  0  0  0  0  0  0  0  0  0
   -8.5022  -16.1758   20.2170 N   0  0  0  0  0  0  0  0  0  0  0  0
   -7.4518  -15.7695   20.8979 C   0  0  0  0  0  0  0  0  0  0  0  0
   -7.4464  -15.2304   22.0124 O   0  0  0  0  0  0  0  0  0  0  0  0
   -6.1740  -16.1058   20.1755 C   0  0  0  0  0  0  0  0  0  0  0  0
   -9.4279  -16.1338   20.5496 H   0  0  0  0  0  0  0  0  0  0  0  0
  -10.8127  -19.1598   17.3226 C   0  0  0  0  0  0  0  0  0  0  0  0
  -12.0434  -19.7332   16.8352 N   0  0  0  0  0  0  0  0  0  0  0  0
  -13.2526  -19.5123   17.3519 C   0  0  0  0  0  0  0  0  0  0  0  0
  -13.4577  -18.7120   18.2949 O   0  0  0  0  0  0  0  0  0  0  0  0
  -11.9859  -20.3360   16.0589 H   0  0  0  0  0  0  0  0  0  0  0  0
  -14.2299  -20.1780   16.7273 O   0  0  0  0  0  0  0  0  0  0  0  0
  -15.8627  -19.9037   14.9068 C   0  0  0  0  0  0  0  0  0  0  0  0
  -14.3876  -19.8529   15.3299 C   0  0  0  0  0  0  0  0  0  0  0  0
  -13.7572  -21.0186   14.5736 C   0  0  0  0  0  0  0  0  0  0  0  0
  -14.8367  -22.0904   14.5052 C   0  0  0  0  0  0  0  0  0  0  0  0
  -14.8968  -22.8830   15.6953 O   0  0  0  0  0  0  0  0  0  0  0  0
  -16.1553  -22.7176   16.3642 C   0  0  0  0  0  0  0  0  0  0  0  0
  -17.0793  -22.0938   15.3409 C   0  0  0  0  0  0  0  0  0  0  0  0
  -16.1553  -21.3190   14.4408 C   0  0  0  0  0  0  0  0  0  0  0  0
   -9.9378  -20.2481   17.9700 C   0  0  0  0  0  0  0  0  0  0  0  0
   -8.3920  -20.1151   19.9879 C   0  0  0  0  0  0  0  0  0  0  0  0
   -8.0472  -19.7416   21.2696 C   0  0  0  0  0  0  0  0  0  0  0  0
   -9.0363  -19.1413   22.0661 C   0  0  0  0  0  0  0  0  0  0  0  0
  -10.2620  -18.8175   21.4973 C   0  0  0  0  0  0  0  0  0  0  0  0
  -10.5864  -19.1715   20.1809 C   0  0  0  0  0  0  0  0  0  0  0  0
   -9.6102  -19.8479   19.4118 C   0  0  0  0  0  0  0  0  0  0  0  0
 16 15  1  0  0  0
  9 15  1  0  0  0
 10  9  2  0  0  0
  9 14  1  0  0  0
 11 10  1  0  0  0
 11 12  2  0  0  0
  6 12  1  0  0  0
 12 13  1  0  0  0
 13 14  2  0  0  0
  8  6  2  0  0  0
  5  6  1  0  0  0
  6  7  2  0  0  0
 17  5  1  0  0  0
  5  4  1  0  0  0
 18 17  1  0  0  0
 20 18  1  0  0  0
 19 18  1  0  0  0
 23 19  1  0  0  0
 21 20  1  0  0  0
 22 21  2  0  0  0
 21 23  1  0  0  0
  1  4  1  0  0  0
  1 25  1  0  0  0
  1  2  1  0  0  0
 26 25  1  0  0  0
 25 39  1  0  0  0
 27 26  1  0  0  0
 28 27  2  0  0  0
 30 27  1  0  0  0
 32 30  1  0  0  0
 32 31  1  0  0  0
 31 38  1  0  0  0
 33 32  1  0  0  0
 33 34  1  0  0  0
 34 38  1  0  0  0
 34 35  1  0  0  0
 35 36  1  0  0  0
 37 36  1  0  0  0
 38 37  1  0  0  0
 39 45  1  0  0  0
 45 40  2  0  0  0
 40 41  1  0  0  0
 42 41  2  0  0  0
 43 42  1  0  0  0
 44 43  2  0  0  0
 44 45  1  0  0  0
 20 24  1  0  0  0
  2  3  1  0  0  0
 26 29  1  0  0  0
M  END
> <minimizedAffinity>
-9.89949

$$$$
3VF5_031_B_201


 45 49  0  0  0  0  0  0  0  0999 V2000
  -10.9840  -18.9718   16.5623 C   0  0  0  0  0  0  0  0  0  0  0  0
  -10.7939  -18.1713   15.3751 O   0  0  0  0  0  0  0  0  0  0  0  0
  -11.0454  -17.2530   15.5606 H   0  0  0  0  0  0  0  0  0  0  0  0
  -12.4430  -19.0613   16.9734 C   0  0  0  0  0  0  0  0  0  0  0  0
  -12.8551  -20.4287   17.2522 N   0  0  0  0  0  0  0  0  0  0  0  0
  -13.8726  -20.6526   18.5234 S   0  0  0  0  0  0  0  0  0  0  0  0
  -14.8852  -19.5963   18.4455 O   0  0  0  0  0  0  0  0  0  0  0  0
  -13.0266  -20.7308   19.7272 O   0  0  0  0  0  0  0  0  0  0  0  0
  -15.8346  -24.6903   17.8977 C   0  0  0  0  0  0  0  0  0  0  0  0
  -14.5104  -24.6217   18.2849 C   0  0  0  0  0  0  0  0  0  0  0  0
  -13.9223  -23.3792   18.5413 C   0  0  0  0  0  0  0  0  0  0  0  0
  -14.6572  -22.2178   18.3826 C   0  0  0  0  0  0  0  0  0  0  0  0
  -15.9873  -22.2908   18.0332 C   0  0  0  0  0  0  0  0  0  0  0  0
  -16.5982  -23.5147   17.8570 C   0  0  0  0  0  0  0  0  0  0  0  0
  -16.4729  -25.8583   17.6330 O   0  0  0  0  0  0  0  0  0  0  0  0
  -17.6826  -26.0484   18.3157 C   0  0  0  0  0  0  0  0  0  0  0  0
  -13.0912  -21.2863   16.0984 C   0  0  0  0  0  0  0  0  0  0  0  0
  -13.7754  -20.6256   14.9242 C   0  0  0  0  0  0  0  0  0  0  0  0
  -13.8592  -21.4340   13.6296 C   0  0  0  0  0  0  0  0  0  0  0  0
  -15.1903  -20.3099   15.2357 N   0  0  0  0  0  0  0  0  0  0  0  0
  -16.0157  -21.1259   14.6153 C   0  0  0  0  0  0  0  0  0  0  0  0
  -17.2496  -21.1570   14.7122 O   0  0  0  0  0  0  0  0  0  0  0  0
  -15.2736  -22.0294   13.6663 C   0  0  0  0  0  0  0  0  0  0  0  0
  -15.4766  -19.5809   15.8322 H   0  0  0  0  0  0  0  0  0  0  0  0
  -10.0767  -18.4144   17.6482 C   0  0  0  0  0  0  0  0  0  0  0  0
   -9.5294  -17.1487   17.2244 N   0  0  0  0  0  0  0  0  0  0  0  0
   -8.5484  -16.4895   17.8418 C   0  0  0  0  0  0  0  0  0  0  0  0
   -7.9407  -16.9445   18.8395 O   0  0  0  0  0  0  0  0  0  0  0  0
   -9.9107  -16.7388   16.4146 H   0  0  0  0  0  0  0  0  0  0  0  0
   -8.2355  -15.3280   17.2574 O   0  0  0  0  0  0  0  0  0  0  0  0
   -6.6428  -14.1062   15.8340 C   0  0  0  0  0  0  0  0  0  0  0  0
   -6.8413  -15.1780   16.9153 C   0  0  0  0  0  0  0  0  0  0  0  0
   -6.4602  -16.4754   16.2086 C   0  0  0  0  0  0  0  0  0  0  0  0
   -6.8943  -16.2926   14.7605 C   0  0  0  0  0  0  0  0  0  0  0  0
   -8.2820  -16.5827   14.5648 O   0  0  0  0  0  0  0  0  0  0  0  0
   -9.0006  -15.4144   14.1436 C   0  0  0  0  0  0  0  0  0  0  0  0
   -7.9451  -14.4364   13.6752 C   0  0  0  0  0  0  0  0  0  0  0  0
   -6.7293  -14.7976   14.4849 C   0  0  0  0  0  0  0  0  0  0  0  0
  -10.7870  -18.2599   19.0048 C   0  0  0  0  0  0  0  0  0  0  0  0
   -9.9759  -20.5291   19.8246 C   0  0  0  0  0  0  0  0  0  0  0  0
   -9.3555  -21.3837   20.7113 C   0  0  0  0  0  0  0  0  0  0  0  0
   -8.9407  -20.8589   21.9464 C   0  0  0  0  0  0  0  0  0  0  0  0
   -9.0361  -19.4907   22.1692 C   0  0  0  0  0  0  0  0  0  0  0  0
   -9.6372  -18.6277   21.2432 C   0  0  0  0  0  0  0  0  0  0  0  0
  -10.1243  -19.1797   20.0349 C   0  0  0  0  0  0  0  0  0  0  0  0
 16 15  1  0  0  0
  9 15  1  0  0  0
 10  9  2  0  0  0
  9 14  1  0  0  0
 11 10  1  0  0  0
 11 12  2  0  0  0
  6 12  1  0  0  0
 12 13  1  0  0  0
 13 14  2  0  0  0
  8  6  2  0  0  0
  5  6  1  0  0  0
  6  7  2  0  0  0
 17  5  1  0  0  0
  5  4  1  0  0  0
 18 17  1  0  0  0
 20 18  1  0  0  0
 19 18  1  0  0  0
 23 19  1  0  0  0
 21 20  1  0  0  0
 22 21  2  0  0  0
 21 23  1  0  0  0
  1  4  1  0  0  0
  1 25  1  0  0  0
  1  2  1  0  0  0
 26 25  1  0  0  0
 25 39  1  0  0  0
 27 26  1  0  0  0
 28 27  2  0  0  0
 30 27  1  0  0  0
 32 30  1  0  0  0
 32 31  1  0  0  0
 31 38  1  0  0  0
 33 32  1  0  0  0
 33 34  1  0  0  0
 34 38  1  0  0  0
 34 35  1  0  0  0
 35 36  1  0  0  0
 37 36  1  0  0  0
 38 37  1  0  0  0
 39 45  1  0  0  0
 45 40  2  0  0  0
 40 41  1  0  0  0
 42 41  2  0  0  0
 43 42  1  0  0  0
 44 43  2  0  0  0
 44 45  1  0  0  0
 20 24  1  0  0  0
  2  3  1  0  0  0
 26 29  1  0  0  0
M  END
> <minimizedAffinity>
-9.31278

$$$$
3VF5_031_B_201


 45 49  0  0  0  0  0  0  0  0999 V2000
  -11.3046  -19.7206   18.6539 C   0  0  0  0  0  0  0  0  0  0  0  0
  -12.2149  -19.4989   19.7533 O   0  0  0  0  0  0  0  0  0  0  0  0
  -11.9858  -20.0905   20.4871 H   0  0  0  0  0  0  0  0  0  0  0  0
  -11.4365  -21.1136   18.0642 C   0  0  0  0  0  0  0  0  0  0  0  0
  -12.7482  -21.3427   17.4774 N   0  0  0  0  0  0  0  0  0  0  0  0
  -13.1970  -20.3453   16.2506 S   0  0  0  0  0  0  0  0  0  0  0  0
  -12.0287  -20.1951   15.3789 O   0  0  0  0  0  0  0  0  0  0  0  0
  -13.7674  -19.1406   16.8787 O   0  0  0  0  0  0  0  0  0  0  0  0
  -16.6254  -22.4028   14.1161 C   0  0  0  0  0  0  0  0  0  0  0  0
  -16.8579  -21.2468   14.8357 C   0  0  0  0  0  0  0  0  0  0  0  0
  -15.7907  -20.5754   15.4405 C   0  0  0  0  0  0  0  0  0  0  0  0
  -14.5069  -21.0812   15.3408 C   0  0  0  0  0  0  0  0  0  0  0  0
  -14.2724  -22.2127   14.5916 C   0  0  0  0  0  0  0  0  0  0  0  0
  -15.3057  -22.8366   13.9244 C   0  0  0  0  0  0  0  0  0  0  0  0
  -17.6092  -23.1072   13.5015 O   0  0  0  0  0  0  0  0  0  0  0  0
  -17.3227  -23.5200   12.1926 C   0  0  0  0  0  0  0  0  0  0  0  0
  -13.1698  -22.7310   17.3461 C   0  0  0  0  0  0  0  0  0  0  0  0
  -14.0300  -23.2604   18.4700 C   0  0  0  0  0  0  0  0  0  0  0  0
  -15.2114  -22.3925   18.9030 C   0  0  0  0  0  0  0  0  0  0  0  0
  -14.6571  -24.5529   18.1027 N   0  0  0  0  0  0  0  0  0  0  0  0
  -15.9422  -24.4139   17.8556 C   0  0  0  0  0  0  0  0  0  0  0  0
  -16.7288  -25.2899   17.4726 O   0  0  0  0  0  0  0  0  0  0  0  0
  -16.4062  -23.0156   18.1678 C   0  0  0  0  0  0  0  0  0  0  0  0
  -14.1725  -25.4083   18.0502 H   0  0  0  0  0  0  0  0  0  0  0  0
   -9.9011  -19.3937   19.1403 C   0  0  0  0  0  0  0  0  0  0  0  0
   -9.2317  -18.5588   18.1729 N   0  0  0  0  0  0  0  0  0  0  0  0
   -9.8255  -17.6481   17.4009 C   0  0  0  0  0  0  0  0  0  0  0  0
  -11.0450  -17.3699   17.4857 O   0  0  0  0  0  0  0  0  0  0  0  0
   -8.2585  -18.6705   18.0748 H   0  0  0  0  0  0  0  0  0  0  0  0
   -8.9839  -17.0188   16.5739 O   0  0  0  0  0  0  0  0  0  0  0  0
   -7.9000  -17.1682   14.3697 C   0  0  0  0  0  0  0  0  0  0  0  0
   -9.2048  -17.2786   15.1714 C   0  0  0  0  0  0  0  0  0  0  0  0
  -10.0340  -16.0994   14.6711 C   0  0  0  0  0  0  0  0  0  0  0  0
   -9.0297  -14.9958   14.3673 C   0  0  0  0  0  0  0  0  0  0  0  0
   -8.6624  -14.2541   15.5348 O   0  0  0  0  0  0  0  0  0  0  0  0
   -7.2675  -14.4128   15.8311 C   0  0  0  0  0  0  0  0  0  0  0  0
   -6.6451  -14.9656   14.5674 C   0  0  0  0  0  0  0  0  0  0  0  0
   -7.7659  -15.7264   13.9124 C   0  0  0  0  0  0  0  0  0  0  0  0
   -9.8857  -18.7218   20.5249 C   0  0  0  0  0  0  0  0  0  0  0  0
   -8.1695  -16.9498   21.1525 C   0  0  0  0  0  0  0  0  0  0  0  0
   -6.9091  -16.4994   21.4836 C   0  0  0  0  0  0  0  0  0  0  0  0
   -5.8455  -17.4138   21.4092 C   0  0  0  0  0  0  0  0  0  0  0  0
   -6.1173  -18.7518   21.1511 C   0  0  0  0  0  0  0  0  0  0  0  0
   -7.4098  -19.2025   20.8511 C   0  0  0  0  0  0  0  0  0  0  0  0
   -8.4628  -18.2574   20.8504 C   0  0  0  0  0  0  0  0  0  0  0  0
 16 15  1  0  0  0
  9 15  1  0  0  0
 10  9  2  0  0  0
  9 14  1  0  0  0
 11 10  1  0  0  0
 11 12  2  0  0  0
  6 12  1  0  0  0
 12 13  1  0  0  0
 13 14  2  0  0  0
  8  6  2  0  0  0
  5  6  1  0  0  0
  6  7  2  0  0  0
 17  5  1  0  0  0
  5  4  1  0  0  0
 18 17  1  0  0  0
 20 18  1  0  0  0
 19 18  1  0  0  0
 23 19  1  0  0  0
 21 20  1  0  0  0
 22 21  2  0  0  0
 21 23  1  0  0  0
  1  4  1  0  0  0
  1 25  1  0  0  0
  1  2  1  0  0  0
 26 25  1  0  0  0
 25 39  1  0  0  0
 27 26  1  0  0  0
 28 27  2  0  0  0
 30 27  1  0  0  0
 32 30  1  0  0  0
 32 31  1  0  0  0
 31 38  1  0  0  0
 33 32  1  0  0  0
 33 34  1  0  0  0
 34 38  1  0  0  0
 34 35  1  0  0  0
 35 36  1  0  0  0
 37 36  1  0  0  0
 38 37  1  0  0  0
 39 45  1  0  0  0
 45 40  2  0  0  0
 40 41  1  0  0  0
 42 41  2  0  0  0
 43 42  1  0  0  0
 44 43  2  0  0  0
 44 45  1  0  0  0
 20 24  1  0  0  0
  2  3  1  0  0  0
 26 29  1  0  0  0
M  END
> <minimizedAffinity>
-9.24385

$$$$
3VF5_031_B_201


 45 49  0  0  0  0  0  0  0  0999 V2000
  -11.8498  -19.9003   19.2727 C   0  0  0  0  0  0  0  0  0  0  0  0
  -12.0584  -18.4753   19.3842 O   0  0  0  0  0  0  0  0  0  0  0  0
  -11.7617  -18.0404   18.5696 H   0  0  0  0  0  0  0  0  0  0  0  0
  -10.3792  -20.2644   19.1707 C   0  0  0  0  0  0  0  0  0  0  0  0
   -9.5110  -19.1854   19.6172 N   0  0  0  0  0  0  0  0  0  0  0  0
   -8.9943  -19.2455   21.1763 S   0  0  0  0  0  0  0  0  0  0  0  0
   -8.7659  -20.6581   21.4919 O   0  0  0  0  0  0  0  0  0  0  0  0
   -9.9813  -18.4957   21.9730 O   0  0  0  0  0  0  0  0  0  0  0  0
   -5.1106  -16.9127   21.3138 C   0  0  0  0  0  0  0  0  0  0  0  0
   -6.3008  -16.2861   21.6284 C   0  0  0  0  0  0  0  0  0  0  0  0
   -7.4909  -17.0200   21.6497 C   0  0  0  0  0  0  0  0  0  0  0  0
   -7.4816  -18.3663   21.3309 C   0  0  0  0  0  0  0  0  0  0  0  0
   -6.2888  -18.9968   21.0546 C   0  0  0  0  0  0  0  0  0  0  0  0
   -5.0998  -18.3001   21.1102 C   0  0  0  0  0  0  0  0  0  0  0  0
   -3.9175  -16.2670   21.2742 O   0  0  0  0  0  0  0  0  0  0  0  0
   -3.1753  -16.4510   20.0991 C   0  0  0  0  0  0  0  0  0  0  0  0
   -8.5406  -18.6878   18.6513 C   0  0  0  0  0  0  0  0  0  0  0  0
   -8.7991  -17.2948   18.1258 C   0  0  0  0  0  0  0  0  0  0  0  0
   -7.8774  -16.7941   17.0140 C   0  0  0  0  0  0  0  0  0  0  0  0
  -10.1552  -17.1870   17.5357 N   0  0  0  0  0  0  0  0  0  0  0  0
  -10.1078  -17.1325   16.2217 C   0  0  0  0  0  0  0  0  0  0  0  0
  -11.0672  -17.0958   15.4400 O   0  0  0  0  0  0  0  0  0  0  0  0
   -8.6858  -17.0457   15.7335 C   0  0  0  0  0  0  0  0  0  0  0  0
  -10.9872  -17.1596   18.0614 H   0  0  0  0  0  0  0  0  0  0  0  0
  -12.6855  -20.4018   18.1053 C   0  0  0  0  0  0  0  0  0  0  0  0
  -13.8187  -21.1448   18.6001 N   0  0  0  0  0  0  0  0  0  0  0  0
  -13.9523  -22.4704   18.5461 C   0  0  0  0  0  0  0  0  0  0  0  0
  -13.0561  -23.2310   18.1101 O   0  0  0  0  0  0  0  0  0  0  0  0
  -14.5521  -20.6321   19.0105 H   0  0  0  0  0  0  0  0  0  0  0  0
  -15.1060  -22.9120   19.0582 O   0  0  0  0  0  0  0  0  0  0  0  0
  -15.3330  -25.2034   18.1899 C   0  0  0  0  0  0  0  0  0  0  0  0
  -15.1135  -24.3096   19.4189 C   0  0  0  0  0  0  0  0  0  0  0  0
  -16.3866  -24.5055   20.2368 C   0  0  0  0  0  0  0  0  0  0  0  0
  -17.4993  -24.7039   19.2163 C   0  0  0  0  0  0  0  0  0  0  0  0
  -18.0043  -23.4643   18.7099 O   0  0  0  0  0  0  0  0  0  0  0  0
  -17.7558  -23.3406   17.3023 C   0  0  0  0  0  0  0  0  0  0  0  0
  -17.4269  -24.7383   16.8245 C   0  0  0  0  0  0  0  0  0  0  0  0
  -16.8299  -25.4052   18.0339 C   0  0  0  0  0  0  0  0  0  0  0  0
  -13.1561  -19.2711   17.1730 C   0  0  0  0  0  0  0  0  0  0  0  0
  -13.0733  -20.5806   14.9918 C   0  0  0  0  0  0  0  0  0  0  0  0
  -13.6206  -21.1690   13.8713 C   0  0  0  0  0  0  0  0  0  0  0  0
  -14.9841  -20.9495   13.6152 C   0  0  0  0  0  0  0  0  0  0  0  0
  -15.7533  -20.2809   14.5598 C   0  0  0  0  0  0  0  0  0  0  0  0
  -15.1898  -19.7183   15.7128 C   0  0  0  0  0  0  0  0  0  0  0  0
  -13.7992  -19.8767   15.9216 C   0  0  0  0  0  0  0  0  0  0  0  0
 16 15  1  0  0  0
  9 15  1  0  0  0
 10  9  2  0  0  0
  9 14  1  0  0  0
 11 10  1  0  0  0
 11 12  2  0  0  0
  6 12  1  0  0  0
 12 13  1  0  0  0
 13 14  2  0  0  0
  8  6  2  0  0  0
  5  6  1  0  0  0
  6  7  2  0  0  0
 17  5  1  0  0  0
  5  4  1  0  0  0
 18 17  1  0  0  0
 20 18  1  0  0  0
 19 18  1  0  0  0
 23 19  1  0  0  0
 21 20  1  0  0  0
 22 21  2  0  0  0
 21 23  1  0  0  0
  1  4  1  0  0  0
  1 25  1  0  0  0
  1  2  1  0  0  0
 26 25  1  0  0  0
 25 39  1  0  0  0
 27 26  1  0  0  0
 28 27  2  0  0  0
 30 27  1  0  0  0
 32 30  1  0  0  0
 32 31  1  0  0  0
 31 38  1  0  0  0
 33 32  1  0  0  0
 33 34  1  0  0  0
 34 38  1  0  0  0
 34 35  1  0  0  0
 35 36  1  0  0  0
 37 36  1  0  0  0
 38 37  1  0  0  0
 39 45  1  0  0  0
 45 40  2  0  0  0
 40 41  1  0  0  0
 42 41  2  0  0  0
 43 42  1  0  0  0
 44 43  2  0  0  0
 44 45  1  0  0  0
 20 24  1  0  0  0
  2  3  1  0  0  0
 26 29  1  0  0  0
M  END
> <minimizedAffinity>
-9.19933

$$$$
