5TUO_1SA_A_303


 14 14  0  0  0  0  0  0  0  0999 V2000
    9.2166  -41.6125  -77.7585 N   0  0  0  0  0  0  0  0  0  0  0  0
    8.5076  -42.6467  -77.8951 N   0  0  0  0  0  0  0  0  0  0  0  0
    7.0862  -41.0357  -76.8121 S   0  0  0  0  0  0  0  0  0  0  0  0
    8.7572  -40.5165  -77.1910 C   0  0  0  0  0  0  0  0  0  0  0  0
    7.2469  -42.6890  -77.4842 C   0  0  0  0  0  0  0  0  0  0  0  0
    6.3206  -43.7197  -77.5510 N   0  0  0  0  0  0  0  0  0  0  0  0
    6.5705  -44.5806  -77.9580 H   0  0  0  0  0  0  0  0  0  0  0  0
    5.4133  -43.5903  -77.1912 H   0  0  0  0  0  0  0  0  0  0  0  0
    9.5582  -38.9751  -76.8905 S   0  0  0  0  0  0  0  0  0  0  0  0
    9.2293  -38.1479  -77.9991 O   0  0  0  0  0  0  0  0  0  0  0  0
   10.8741  -39.3004  -76.4685 O   0  0  0  0  0  0  0  0  0  0  0  0
    8.8223  -38.2828  -75.5781 N   0  0  0  0  0  0  0  0  0  0  0  0
    9.2628  -37.3854  -75.3754 H   0  0  0  0  0  0  0  0  0  0  0  0
    8.9179  -38.8985  -74.7706 H   0  0  0  0  0  0  0  0  0  0  0  0
  9 10  2  0  0  0
  9 11  2  0  0  0
  9 12  1  0  0  0
  9  4  1  0  0  0
  1  2  1  0  0  0
  1  4  2  0  0  0
  2  5  2  0  0  0
  3  4  1  0  0  0
  3  5  1  0  0  0
  5  6  1  0  0  0
 12 13  1  0  0  0
 12 14  1  0  0  0
  6  7  1  0  0  0
  6  8  1  0  0  0
M  END
> <minimizedAffinity>
-5.25123

$$$$
5TUO_1SA_A_303


 14 14  0  0  0  0  0  0  0  0999 V2000
   11.7132  -40.5394  -77.2227 N   0  0  0  0  0  0  0  0  0  0  0  0
   12.4922  -41.3197  -77.8350 N   0  0  0  0  0  0  0  0  0  0  0  0
   10.4246  -41.3872  -79.0633 S   0  0  0  0  0  0  0  0  0  0  0  0
   10.4743  -40.3315  -77.6183 C   0  0  0  0  0  0  0  0  0  0  0  0
   12.1129  -41.9717  -78.9263 C   0  0  0  0  0  0  0  0  0  0  0  0
   12.8194  -42.8567  -79.7280 N   0  0  0  0  0  0  0  0  0  0  0  0
   13.7546  -43.0768  -79.5130 H   0  0  0  0  0  0  0  0  0  0  0  0
   12.3855  -43.2646  -80.5120 H   0  0  0  0  0  0  0  0  0  0  0  0
    9.2208  -39.3044  -76.9242 S   0  0  0  0  0  0  0  0  0  0  0  0
    8.1065  -40.1576  -76.6964 O   0  0  0  0  0  0  0  0  0  0  0  0
    9.2063  -38.1258  -77.7155 O   0  0  0  0  0  0  0  0  0  0  0  0
    9.7415  -38.8337  -75.4240 N   0  0  0  0  0  0  0  0  0  0  0  0
    9.0373  -38.2355  -74.9919 H   0  0  0  0  0  0  0  0  0  0  0  0
   10.6167  -38.3177  -75.5143 H   0  0  0  0  0  0  0  0  0  0  0  0
  9 10  2  0  0  0
  9 11  2  0  0  0
  9 12  1  0  0  0
  9  4  1  0  0  0
  1  2  1  0  0  0
  1  4  2  0  0  0
  2  5  2  0  0  0
  3  4  1  0  0  0
  3  5  1  0  0  0
  5  6  1  0  0  0
 12 13  1  0  0  0
 12 14  1  0  0  0
  6  7  1  0  0  0
  6  8  1  0  0  0
M  END
> <minimizedAffinity>
-5.19473

$$$$
5TUO_1SA_A_303


 14 14  0  0  0  0  0  0  0  0999 V2000
    9.3709  -41.8805  -78.3705 N   0  0  0  0  0  0  0  0  0  0  0  0
    9.8484  -42.8339  -79.0442 N   0  0  0  0  0  0  0  0  0  0  0  0
   11.7418  -41.4990  -78.3950 S   0  0  0  0  0  0  0  0  0  0  0  0
   10.1307  -40.9380  -77.8520 C   0  0  0  0  0  0  0  0  0  0  0  0
   11.1517  -42.9520  -79.2620 C   0  0  0  0  0  0  0  0  0  0  0  0
   11.8551  -43.9199  -79.9643 N   0  0  0  0  0  0  0  0  0  0  0  0
   11.3744  -44.6664  -80.3895 H   0  0  0  0  0  0  0  0  0  0  0  0
   12.8351  -43.8602  -80.0375 H   0  0  0  0  0  0  0  0  0  0  0  0
    9.6885  -39.5258  -76.8939 S   0  0  0  0  0  0  0  0  0  0  0  0
   10.9046  -39.0403  -76.3400 O   0  0  0  0  0  0  0  0  0  0  0  0
    8.5409  -39.9082  -76.1508 O   0  0  0  0  0  0  0  0  0  0  0  0
    9.1743  -38.3551  -77.9467 N   0  0  0  0  0  0  0  0  0  0  0  0
    8.9094  -37.5203  -77.4239 H   0  0  0  0  0  0  0  0  0  0  0  0
    8.3688  -38.6984  -78.4699 H   0  0  0  0  0  0  0  0  0  0  0  0
  9 10  2  0  0  0
  9 11  2  0  0  0
  9 12  1  0  0  0
  9  4  1  0  0  0
  1  2  1  0  0  0
  1  4  2  0  0  0
  2  5  2  0  0  0
  3  4  1  0  0  0
  3  5  1  0  0  0
  5  6  1  0  0  0
 12 13  1  0  0  0
 12 14  1  0  0  0
  6  7  1  0  0  0
  6  8  1  0  0  0
M  END
> <minimizedAffinity>
-5.17934

$$$$
5TUO_1SA_A_303


 14 14  0  0  0  0  0  0  0  0999 V2000
   11.3790  -39.9889  -77.2489 N   0  0  0  0  0  0  0  0  0  0  0  0
   10.7880  -39.2054  -76.4567 N   0  0  0  0  0  0  0  0  0  0  0  0
    9.0446  -40.4926  -77.5016 S   0  0  0  0  0  0  0  0  0  0  0  0
   10.7260  -40.8491  -78.0026 C   0  0  0  0  0  0  0  0  0  0  0  0
    9.4679  -39.2087  -76.3254 C   0  0  0  0  0  0  0  0  0  0  0  0
    8.6497  -38.4359  -75.5140 N   0  0  0  0  0  0  0  0  0  0  0  0
    9.0454  -37.7629  -74.9142 H   0  0  0  0  0  0  0  0  0  0  0  0
    7.6734  -38.5604  -75.5382 H   0  0  0  0  0  0  0  0  0  0  0  0
   11.3336  -42.0205  -79.1715 S   0  0  0  0  0  0  0  0  0  0  0  0
   10.8659  -41.5776  -80.4390 O   0  0  0  0  0  0  0  0  0  0  0  0
   11.0844  -43.2973  -78.6029 O   0  0  0  0  0  0  0  0  0  0  0  0
   12.9816  -41.8624  -79.2194 N   0  0  0  0  0  0  0  0  0  0  0  0
   13.3678  -42.5282  -79.8887 H   0  0  0  0  0  0  0  0  0  0  0  0
   13.3680  -42.0479  -78.2938 H   0  0  0  0  0  0  0  0  0  0  0  0
  9 10  2  0  0  0
  9 11  2  0  0  0
  9 12  1  0  0  0
  9  4  1  0  0  0
  1  2  1  0  0  0
  1  4  2  0  0  0
  2  5  2  0  0  0
  3  4  1  0  0  0
  3  5  1  0  0  0
  5  6  1  0  0  0
 12 13  1  0  0  0
 12 14  1  0  0  0
  6  7  1  0  0  0
  6  8  1  0  0  0
M  END
> <minimizedAffinity>
-5.17931

$$$$
5TUO_1SA_A_303


 14 14  0  0  0  0  0  0  0  0999 V2000
   10.9776  -40.8164  -77.5862 N   0  0  0  0  0  0  0  0  0  0  0  0
   12.2158  -40.5925  -77.4994 N   0  0  0  0  0  0  0  0  0  0  0  0
   11.9741  -42.1523  -79.3152 S   0  0  0  0  0  0  0  0  0  0  0  0
   10.4744  -41.6397  -78.4825 C   0  0  0  0  0  0  0  0  0  0  0  0
   13.0887  -41.1662  -78.3172 C   0  0  0  0  0  0  0  0  0  0  0  0
   14.4693  -41.0422  -78.3783 N   0  0  0  0  0  0  0  0  0  0  0  0
   14.9387  -40.4492  -77.7479 H   0  0  0  0  0  0  0  0  0  0  0  0
   14.9796  -41.5472  -79.0519 H   0  0  0  0  0  0  0  0  0  0  0  0
    8.8001  -42.1045  -78.7801 S   0  0  0  0  0  0  0  0  0  0  0  0
    8.1552  -40.9328  -79.2623 O   0  0  0  0  0  0  0  0  0  0  0  0
    8.4005  -42.8548  -77.6430 O   0  0  0  0  0  0  0  0  0  0  0  0
    8.8007  -43.1718  -80.0467 N   0  0  0  0  0  0  0  0  0  0  0  0
    7.8437  -43.4626  -80.2467 H   0  0  0  0  0  0  0  0  0  0  0  0
    9.3604  -43.9888  -79.8027 H   0  0  0  0  0  0  0  0  0  0  0  0
  9 10  2  0  0  0
  9 11  2  0  0  0
  9 12  1  0  0  0
  9  4  1  0  0  0
  1  2  1  0  0  0
  1  4  2  0  0  0
  2  5  2  0  0  0
  3  4  1  0  0  0
  3  5  1  0  0  0
  5  6  1  0  0  0
 12 13  1  0  0  0
 12 14  1  0  0  0
  6  7  1  0  0  0
  6  8  1  0  0  0
M  END
> <minimizedAffinity>
-4.85573

$$$$
5TUO_1SA_A_303


 14 14  0  0  0  0  0  0  0  0999 V2000
   10.2726  -42.8793  -77.8883 N   0  0  0  0  0  0  0  0  0  0  0  0
   11.5047  -42.6153  -77.9441 N   0  0  0  0  0  0  0  0  0  0  0  0
   10.4031  -40.4856  -77.7457 S   0  0  0  0  0  0  0  0  0  0  0  0
    9.3574  -41.9384  -77.7805 C   0  0  0  0  0  0  0  0  0  0  0  0
   11.9558  -41.3692  -77.8853 C   0  0  0  0  0  0  0  0  0  0  0  0
   13.2565  -40.8880  -77.9260 N   0  0  0  0  0  0  0  0  0  0  0  0
   14.0111  -41.5152  -78.0062 H   0  0  0  0  0  0  0  0  0  0  0  0
   13.4249  -39.9194  -77.8746 H   0  0  0  0  0  0  0  0  0  0  0  0
    7.6016  -42.0705  -77.6934 S   0  0  0  0  0  0  0  0  0  0  0  0
    7.1450  -42.0245  -79.0390 O   0  0  0  0  0  0  0  0  0  0  0  0
    7.1996  -41.1870  -76.6574 O   0  0  0  0  0  0  0  0  0  0  0  0
    7.2466  -43.5941  -77.1494 N   0  0  0  0  0  0  0  0  0  0  0  0
    6.2347  -43.7056  -77.0868 H   0  0  0  0  0  0  0  0  0  0  0  0
    7.6615  -43.7313  -76.2277 H   0  0  0  0  0  0  0  0  0  0  0  0
  9 10  2  0  0  0
  9 11  2  0  0  0
  9 12  1  0  0  0
  9  4  1  0  0  0
  1  2  1  0  0  0
  1  4  2  0  0  0
  2  5  2  0  0  0
  3  4  1  0  0  0
  3  5  1  0  0  0
  5  6  1  0  0  0
 12 13  1  0  0  0
 12 14  1  0  0  0
  6  7  1  0  0  0
  6  8  1  0  0  0
M  END
> <minimizedAffinity>
-4.81032

$$$$
5TUO_1SA_A_303


 14 14  0  0  0  0  0  0  0  0999 V2000
   11.2628  -42.2173  -79.3044 N   0  0  0  0  0  0  0  0  0  0  0  0
   12.5144  -42.0700  -79.3566 N   0  0  0  0  0  0  0  0  0  0  0  0
   11.7796  -40.6579  -77.5527 S   0  0  0  0  0  0  0  0  0  0  0  0
   10.5175  -41.5810  -78.4245 C   0  0  0  0  0  0  0  0  0  0  0  0
   13.1598  -41.2711  -78.5170 C   0  0  0  0  0  0  0  0  0  0  0  0
   14.5144  -40.9876  -78.4179 N   0  0  0  0  0  0  0  0  0  0  0  0
   15.1530  -41.4148  -79.0334 H   0  0  0  0  0  0  0  0  0  0  0  0
   14.8369  -40.3593  -77.7320 H   0  0  0  0  0  0  0  0  0  0  0  0
    8.7730  -41.6259  -78.1742 S   0  0  0  0  0  0  0  0  0  0  0  0
    8.4916  -42.9198  -77.6566 O   0  0  0  0  0  0  0  0  0  0  0  0
    8.2009  -41.0666  -79.3469 O   0  0  0  0  0  0  0  0  0  0  0  0
    8.4214  -40.5655  -76.9513 N   0  0  0  0  0  0  0  0  0  0  0  0
    7.4159  -40.5662  -76.7794 H   0  0  0  0  0  0  0  0  0  0  0  0
    8.7200  -39.6275  -77.2183 H   0  0  0  0  0  0  0  0  0  0  0  0
  9 10  2  0  0  0
  9 11  2  0  0  0
  9 12  1  0  0  0
  9  4  1  0  0  0
  1  2  1  0  0  0
  1  4  2  0  0  0
  2  5  2  0  0  0
  3  4  1  0  0  0
  3  5  1  0  0  0
  5  6  1  0  0  0
 12 13  1  0  0  0
 12 14  1  0  0  0
  6  7  1  0  0  0
  6  8  1  0  0  0
M  END
> <minimizedAffinity>
-4.74771

$$$$
5TUO_1SA_A_303


 14 14  0  0  0  0  0  0  0  0999 V2000
   11.7126  -42.0373  -78.3887 N   0  0  0  0  0  0  0  0  0  0  0  0
   11.7425  -41.1047  -77.5401 N   0  0  0  0  0  0  0  0  0  0  0  0
    9.8218  -40.6543  -78.9172 S   0  0  0  0  0  0  0  0  0  0  0  0
   10.7833  -42.1100  -79.3191 C   0  0  0  0  0  0  0  0  0  0  0  0
   10.8287  -40.1431  -77.5258 C   0  0  0  0  0  0  0  0  0  0  0  0
   10.6946  -39.0518  -76.6797 N   0  0  0  0  0  0  0  0  0  0  0  0
   11.3423  -38.9108  -75.9517 H   0  0  0  0  0  0  0  0  0  0  0  0
    9.9518  -38.4183  -76.8072 H   0  0  0  0  0  0  0  0  0  0  0  0
   10.5502  -43.3021  -80.5967 S   0  0  0  0  0  0  0  0  0  0  0  0
   11.3447  -44.4220  -80.2278 O   0  0  0  0  0  0  0  0  0  0  0  0
   10.6558  -42.5848  -81.8172 O   0  0  0  0  0  0  0  0  0  0  0  0
    8.9785  -43.8176  -80.5115 N   0  0  0  0  0  0  0  0  0  0  0  0
    8.8081  -44.5112  -81.2397 H   0  0  0  0  0  0  0  0  0  0  0  0
    8.3525  -43.0234  -80.6453 H   0  0  0  0  0  0  0  0  0  0  0  0
  9 10  2  0  0  0
  9 11  2  0  0  0
  9 12  1  0  0  0
  9  4  1  0  0  0
  1  2  1  0  0  0
  1  4  2  0  0  0
  2  5  2  0  0  0
  3  4  1  0  0  0
  3  5  1  0  0  0
  5  6  1  0  0  0
 12 13  1  0  0  0
 12 14  1  0  0  0
  6  7  1  0  0  0
  6  8  1  0  0  0
M  END
> <minimizedAffinity>
-4.68289

$$$$
5TUO_1SA_A_303


 14 14  0  0  0  0  0  0  0  0999 V2000
   11.2730  -39.4973  -76.7729 N   0  0  0  0  0  0  0  0  0  0  0  0
   10.0839  -39.3055  -76.3984 N   0  0  0  0  0  0  0  0  0  0  0  0
   10.0053  -41.2598  -77.7995 S   0  0  0  0  0  0  0  0  0  0  0  0
   11.6065  -40.4934  -77.5673 C   0  0  0  0  0  0  0  0  0  0  0  0
    9.0951  -40.1061  -76.7740 C   0  0  0  0  0  0  0  0  0  0  0  0
    7.7431  -40.0598  -76.4657 N   0  0  0  0  0  0  0  0  0  0  0  0
    7.3963  -39.3501  -75.8782 H   0  0  0  0  0  0  0  0  0  0  0  0
    7.1307  -40.7367  -76.8345 H   0  0  0  0  0  0  0  0  0  0  0  0
   13.1818  -40.9456  -78.2168 S   0  0  0  0  0  0  0  0  0  0  0  0
   13.8742  -41.5732  -77.1454 O   0  0  0  0  0  0  0  0  0  0  0  0
   13.6394  -39.8137  -78.9412 O   0  0  0  0  0  0  0  0  0  0  0  0
   12.9295  -42.1312  -79.3456 N   0  0  0  0  0  0  0  0  0  0  0  0
   13.8240  -42.4176  -79.7435 H   0  0  0  0  0  0  0  0  0  0  0  0
   12.3271  -41.7726  -80.0865 H   0  0  0  0  0  0  0  0  0  0  0  0
  9 10  2  0  0  0
  9 11  2  0  0  0
  9 12  1  0  0  0
  9  4  1  0  0  0
  1  2  1  0  0  0
  1  4  2  0  0  0
  2  5  2  0  0  0
  3  4  1  0  0  0
  3  5  1  0  0  0
  5  6  1  0  0  0
 12 13  1  0  0  0
 12 14  1  0  0  0
  6  7  1  0  0  0
  6  8  1  0  0  0
M  END
> <minimizedAffinity>
-4.61866

$$$$
5TUO_1SA_A_303


 14 14  0  0  0  0  0  0  0  0999 V2000
   10.9923  -41.0045  -79.1756 N   0  0  0  0  0  0  0  0  0  0  0  0
   11.1824  -41.5224  -80.3098 N   0  0  0  0  0  0  0  0  0  0  0  0
    9.1365  -40.2729  -80.5127 S   0  0  0  0  0  0  0  0  0  0  0  0
    9.9471  -40.2462  -78.9167 C   0  0  0  0  0  0  0  0  0  0  0  0
   10.3438  -41.3238  -81.3183 C   0  0  0  0  0  0  0  0  0  0  0  0
   10.3866  -41.7984  -82.6214 N   0  0  0  0  0  0  0  0  0  0  0  0
   11.1302  -42.3749  -82.9111 H   0  0  0  0  0  0  0  0  0  0  0  0
    9.6733  -41.5587  -83.2562 H   0  0  0  0  0  0  0  0  0  0  0  0
    9.4790  -39.4337  -77.4238 S   0  0  0  0  0  0  0  0  0  0  0  0
    8.6188  -40.3400  -76.7457 O   0  0  0  0  0  0  0  0  0  0  0  0
    9.1452  -38.1051  -77.7965 O   0  0  0  0  0  0  0  0  0  0  0  0
   10.8356  -39.3100  -76.4816 N   0  0  0  0  0  0  0  0  0  0  0  0
   10.6000  -38.8427  -75.6061 H   0  0  0  0  0  0  0  0  0  0  0  0
   11.5447  -38.7685  -76.9760 H   0  0  0  0  0  0  0  0  0  0  0  0
  9 10  2  0  0  0
  9 11  2  0  0  0
  9 12  1  0  0  0
  9  4  1  0  0  0
  1  2  1  0  0  0
  1  4  2  0  0  0
  2  5  2  0  0  0
  3  4  1  0  0  0
  3  5  1  0  0  0
  5  6  1  0  0  0
 12 13  1  0  0  0
 12 14  1  0  0  0
  6  7  1  0  0  0
  6  8  1  0  0  0
M  END
> <minimizedAffinity>
-4.61337

$$$$
