2I4W_KGQ_B_300


 51 54  0  0  0  0  0  0  0  0999 V2000
   16.7691   24.6640   16.2966 C   0  0  0  0  0  0  0  0  0  0  0  0
   18.1515   25.0476   16.1138 N   0  0  0  0  0  0  0  0  0  0  0  0
   18.4548   25.7687   14.9542 C   0  0  0  0  0  0  0  0  0  0  0  0
   17.6530   26.0961   14.0833 O   0  0  0  0  0  0  0  0  0  0  0  0
   18.8445   24.8129   16.7725 H   0  0  0  0  0  0  0  0  0  0  0  0
   19.7712   26.0198   14.9607 O   0  0  0  0  0  0  0  0  0  0  0  0
   21.6929   27.5152   14.6580 C   0  0  0  0  0  0  0  0  0  0  0  0
   20.2975   27.0570   14.1306 C   0  0  0  0  0  0  0  0  0  0  0  0
   19.5073   28.3521   14.3878 C   0  0  0  0  0  0  0  0  0  0  0  0
   19.8562   28.7649   15.7014 O   0  0  0  0  0  0  0  0  0  0  0  0
   21.2737   28.6245   15.6781 C   0  0  0  0  0  0  0  0  0  0  0  0
   21.7746   28.3050   16.9909 O   0  0  0  0  0  0  0  0  0  0  0  0
   21.9226   26.8888   16.9738 C   0  0  0  0  0  0  0  0  0  0  0  0
   22.5039   26.5618   15.5891 C   0  0  0  0  0  0  0  0  0  0  0  0
   16.3567   24.7272   17.7876 C   0  0  0  0  0  0  0  0  0  0  0  0
   15.6780   25.9410   18.0787 O   0  0  0  0  0  0  0  0  0  0  0  0
   16.2731   26.6903   17.9198 H   0  0  0  0  0  0  0  0  0  0  0  0
   17.5802   24.5924   18.7162 C   0  0  0  0  0  0  0  0  0  0  0  0
   17.2272   23.9183   19.9707 N   0  0  0  0  0  0  0  0  0  0  0  0
   17.3286   22.2784   19.6694 S   0  0  0  0  0  0  0  0  0  0  0  0
   18.4371   22.0252   18.6361 O   0  0  0  0  0  0  0  0  0  0  0  0
   17.8010   21.5229   20.9274 O   0  0  0  0  0  0  0  0  0  0  0  0
   15.8478   21.5521   19.0818 C   0  0  0  0  0  0  0  0  0  0  0  0
   14.5999   21.9913   19.4215 C   0  0  0  0  0  0  0  0  0  0  0  0
   13.4129   21.4173   18.9629 C   0  0  0  0  0  0  0  0  0  0  0  0
   13.4589   20.3833   18.1489 C   0  0  0  0  0  0  0  0  0  0  0  0
   14.6150   19.8950   17.7667 C   0  0  0  0  0  0  0  0  0  0  0  0
   15.8051   20.4815   18.2343 C   0  0  0  0  0  0  0  0  0  0  0  0
   12.1226   19.7221   17.6244 O   0  0  0  0  0  0  0  0  0  0  0  0
   11.4330   19.1834   18.5476 C   0  0  0  0  0  0  0  0  0  0  0  0
   18.2909   24.2995   20.9223 C   0  0  0  0  0  0  0  0  0  0  0  0
   19.5969   24.8862   20.3218 C   0  0  0  0  0  0  0  0  0  0  0  0
   20.7803   23.9048   20.2728 C   0  0  0  0  0  0  0  0  0  0  0  0
   20.0217   26.2126   20.9628 C   0  0  0  0  0  0  0  0  0  0  0  0
   16.6570   23.1937   15.7176 C   0  0  0  0  0  0  0  0  0  0  0  0
   15.2178   22.8160   15.4582 C   0  0  0  0  0  0  0  0  0  0  0  0
   14.8874   21.7112   14.6665 C   0  0  0  0  0  0  0  0  0  0  0  0
   13.5504   21.3459   14.4218 C   0  0  0  0  0  0  0  0  0  0  0  0
   12.4735   22.0991   14.9782 C   0  0  0  0  0  0  0  0  0  0  0  0
   12.8066   23.2255   15.7832 C   0  0  0  0  0  0  0  0  0  0  0  0
   14.1574   23.5640   16.0069 C   0  0  0  0  0  0  0  0  0  0  0  0
   11.1504   21.7400   14.7379 O   0  0  0  0  0  0  0  0  0  0  0  0
   10.8585   20.3415   14.5723 C   0  0  0  0  0  0  0  0  0  0  0  0
    9.1239   20.0601   14.3915 P   0  0  0  0  0  0  0  0  0  0  0  0
    8.3943   20.6207   15.6537 O   0  0  0  0  0  0  0  0  0  0  0  0
    8.4251   20.7863   13.2996 O   0  0  0  0  0  0  0  0  0  0  0  0
    8.0108   22.0945   13.7127 C   0  0  0  0  0  0  0  0  0  0  0  0
    6.9712   22.6381   12.7091 C   0  0  0  0  0  0  0  0  0  0  0  0
    8.8710   18.5119   14.5102 O   0  0  0  0  0  0  0  0  0  0  0  0
   10.0369   17.8482   15.0027 C   0  0  0  0  0  0  0  0  0  0  0  0
    9.6320   16.7417   16.0019 C   0  0  0  0  0  0  0  0  0  0  0  0
  2  1  1  0  0  0
  2  3  1  0  0  0
  7 14  1  0  0  0
  7  8  1  0  0  0
  7 11  1  0  0  0
 42 43  1  0  0  0
 42 39  1  0  0  0
  1 35  1  0  0  0
  1 15  1  0  0  0
 35 36  1  0  0  0
 36 37  2  0  0  0
 36 41  1  0  0  0
 37 38  1  0  0  0
 38 39  2  0  0  0
 39 40  1  0  0  0
 43 44  1  0  0  0
 44 46  1  0  0  0
 44 49  1  0  0  0
 44 45  2  0  0  0
 49 50  1  0  0  0
 50 51  1  0  0  0
 46 47  1  0  0  0
 47 48  1  0  0  0
 40 41  2  0  0  0
 15 18  1  0  0  0
 15 16  1  0  0  0
 18 19  1  0  0  0
 19 20  1  0  0  0
 19 31  1  0  0  0
 31 32  1  0  0  0
 32 34  1  0  0  0
 32 33  1  0  0  0
 20 22  2  0  0  0
 20 23  1  0  0  0
 20 21  2  0  0  0
 23 28  2  0  0  0
 23 24  1  0  0  0
 24 25  2  0  0  0
 25 26  1  0  0  0
 26 29  1  0  0  0
 26 27  2  0  0  0
 29 30  1  0  0  0
 27 28  1  0  0  0
  3  4  2  0  0  0
  3  6  1  0  0  0
  6  8  1  0  0  0
  8  9  1  0  0  0
  9 10  1  0  0  0
 10 11  1  0  0  0
 11 12  1  0  0  0
 12 13  1  0  0  0
 13 14  1  0  0  0
  2  5  1  0  0  0
 16 17  1  0  0  0
M  END
> <minimizedAffinity>
-9.35227

$$$$
2I4W_KGQ_B_300


 51 54  0  0  0  0  0  0  0  0999 V2000
   16.7553   24.7736   16.4514 C   0  0  0  0  0  0  0  0  0  0  0  0
   18.1185   25.2333   16.3030 N   0  0  0  0  0  0  0  0  0  0  0  0
   18.4327   25.8908   15.1090 C   0  0  0  0  0  0  0  0  0  0  0  0
   17.6557   26.1040   14.1821 O   0  0  0  0  0  0  0  0  0  0  0  0
   18.7917   25.0905   17.0070 H   0  0  0  0  0  0  0  0  0  0  0  0
   19.7290   26.2273   15.1558 O   0  0  0  0  0  0  0  0  0  0  0  0
   21.7432   27.4799   14.5273 C   0  0  0  0  0  0  0  0  0  0  0  0
   20.2594   27.1354   14.1884 C   0  0  0  0  0  0  0  0  0  0  0  0
   19.6344   28.5238   14.4109 C   0  0  0  0  0  0  0  0  0  0  0  0
   20.1664   28.9959   15.6405 O   0  0  0  0  0  0  0  0  0  0  0  0
   21.5517   28.7026   15.4840 C   0  0  0  0  0  0  0  0  0  0  0  0
   22.1617   28.4325   16.7612 O   0  0  0  0  0  0  0  0  0  0  0  0
   22.1664   27.0115   16.8531 C   0  0  0  0  0  0  0  0  0  0  0  0
   22.5547   26.5190   15.4500 C   0  0  0  0  0  0  0  0  0  0  0  0
   16.3321   24.7289   17.9400 C   0  0  0  0  0  0  0  0  0  0  0  0
   15.5527   25.8659   18.2837 O   0  0  0  0  0  0  0  0  0  0  0  0
   16.0836   26.6693   18.1665 H   0  0  0  0  0  0  0  0  0  0  0  0
   17.5582   24.6514   18.8717 C   0  0  0  0  0  0  0  0  0  0  0  0
   17.2504   23.9096   20.0996 N   0  0  0  0  0  0  0  0  0  0  0  0
   17.3473   22.2886   19.7080 S   0  0  0  0  0  0  0  0  0  0  0  0
   18.4187   22.0971   18.6236 O   0  0  0  0  0  0  0  0  0  0  0  0
   17.8678   21.4702   20.9063 O   0  0  0  0  0  0  0  0  0  0  0  0
   15.8491   21.5859   19.1361 C   0  0  0  0  0  0  0  0  0  0  0  0
   15.7852   20.4749   18.3440 C   0  0  0  0  0  0  0  0  0  0  0  0
   14.5971   19.9089   17.8786 C   0  0  0  0  0  0  0  0  0  0  0  0
   13.4430   20.4537   18.2024 C   0  0  0  0  0  0  0  0  0  0  0  0
   13.4076   21.5225   18.9623 C   0  0  0  0  0  0  0  0  0  0  0  0
   14.6108   22.0843   19.4266 C   0  0  0  0  0  0  0  0  0  0  0  0
   12.0904   19.8247   17.6799 O   0  0  0  0  0  0  0  0  0  0  0  0
   11.7019   18.8275   18.3675 C   0  0  0  0  0  0  0  0  0  0  0  0
   18.3443   24.2453   21.0339 C   0  0  0  0  0  0  0  0  0  0  0  0
   19.6081   24.9140   20.4286 C   0  0  0  0  0  0  0  0  0  0  0  0
   20.7977   23.9635   20.2114 C   0  0  0  0  0  0  0  0  0  0  0  0
   20.0532   26.1727   21.1823 C   0  0  0  0  0  0  0  0  0  0  0  0
   16.7178   23.3363   15.7863 C   0  0  0  0  0  0  0  0  0  0  0  0
   15.2989   22.8970   15.5123 C   0  0  0  0  0  0  0  0  0  0  0  0
   15.0254   21.7292   14.7925 C   0  0  0  0  0  0  0  0  0  0  0  0
   13.7079   21.3065   14.5353 C   0  0  0  0  0  0  0  0  0  0  0  0
   12.5928   22.0637   15.0043 C   0  0  0  0  0  0  0  0  0  0  0  0
   12.8679   23.2540   15.7358 C   0  0  0  0  0  0  0  0  0  0  0  0
   14.2007   23.6489   15.9744 C   0  0  0  0  0  0  0  0  0  0  0  0
   11.2888   21.6478   14.7514 O   0  0  0  0  0  0  0  0  0  0  0  0
   11.0939   20.2907   14.3172 C   0  0  0  0  0  0  0  0  0  0  0  0
    9.3883   19.8339   14.3691 P   0  0  0  0  0  0  0  0  0  0  0  0
    8.9957   19.2173   12.9887 O   0  0  0  0  0  0  0  0  0  0  0  0
    9.0023   18.7423   15.3005 O   0  0  0  0  0  0  0  0  0  0  0  0
    9.6200   17.4988   14.9457 C   0  0  0  0  0  0  0  0  0  0  0  0
    9.7948   16.6385   16.2156 C   0  0  0  0  0  0  0  0  0  0  0  0
    8.5356   21.1554   14.4080 O   0  0  0  0  0  0  0  0  0  0  0  0
    8.0775   21.4970   13.0981 C   0  0  0  0  0  0  0  0  0  0  0  0
    7.3214   22.8437   13.1378 C   0  0  0  0  0  0  0  0  0  0  0  0
  2  1  1  0  0  0
  2  3  1  0  0  0
  7 14  1  0  0  0
  7  8  1  0  0  0
  7 11  1  0  0  0
 42 43  1  0  0  0
 42 39  1  0  0  0
  1 35  1  0  0  0
  1 15  1  0  0  0
 35 36  1  0  0  0
 36 37  2  0  0  0
 36 41  1  0  0  0
 37 38  1  0  0  0
 38 39  2  0  0  0
 39 40  1  0  0  0
 43 44  1  0  0  0
 44 46  1  0  0  0
 44 49  1  0  0  0
 44 45  2  0  0  0
 49 50  1  0  0  0
 50 51  1  0  0  0
 46 47  1  0  0  0
 47 48  1  0  0  0
 40 41  2  0  0  0
 15 18  1  0  0  0
 15 16  1  0  0  0
 18 19  1  0  0  0
 19 20  1  0  0  0
 19 31  1  0  0  0
 31 32  1  0  0  0
 32 34  1  0  0  0
 32 33  1  0  0  0
 20 22  2  0  0  0
 20 23  1  0  0  0
 20 21  2  0  0  0
 23 28  2  0  0  0
 23 24  1  0  0  0
 24 25  2  0  0  0
 25 26  1  0  0  0
 26 29  1  0  0  0
 26 27  2  0  0  0
 29 30  1  0  0  0
 27 28  1  0  0  0
  3  4  2  0  0  0
  3  6  1  0  0  0
  6  8  1  0  0  0
  8  9  1  0  0  0
  9 10  1  0  0  0
 10 11  1  0  0  0
 11 12  1  0  0  0
 12 13  1  0  0  0
 13 14  1  0  0  0
  2  5  1  0  0  0
 16 17  1  0  0  0
M  END
> <minimizedAffinity>
-9.10225

$$$$
2I4W_KGQ_B_300


 51 54  0  0  0  0  0  0  0  0999 V2000
   13.8519   22.3378   17.1426 C   0  0  0  0  0  0  0  0  0  0  0  0
   12.9596   21.4152   17.8091 N   0  0  0  0  0  0  0  0  0  0  0  0
   13.5037   20.1874   18.2003 C   0  0  0  0  0  0  0  0  0  0  0  0
   14.6647   19.8284   18.0218 O   0  0  0  0  0  0  0  0  0  0  0  0
   12.0163   21.6401   17.9791 H   0  0  0  0  0  0  0  0  0  0  0  0
   12.5303   19.4757   18.7850 O   0  0  0  0  0  0  0  0  0  0  0  0
   11.9078   17.1977   19.4512 C   0  0  0  0  0  0  0  0  0  0  0  0
   12.8698   18.4068   19.6702 C   0  0  0  0  0  0  0  0  0  0  0  0
   12.4507   18.7901   21.1004 C   0  0  0  0  0  0  0  0  0  0  0  0
   11.0303   18.7880   21.1019 O   0  0  0  0  0  0  0  0  0  0  0  0
   10.7456   17.5633   20.4323 C   0  0  0  0  0  0  0  0  0  0  0  0
    9.5004   17.6546   19.7128 O   0  0  0  0  0  0  0  0  0  0  0  0
    9.8894   17.9603   18.3776 C   0  0  0  0  0  0  0  0  0  0  0  0
   11.1233   17.0845   18.1077 C   0  0  0  0  0  0  0  0  0  0  0  0
   14.3518   23.4395   18.1087 C   0  0  0  0  0  0  0  0  0  0  0  0
   13.3059   24.3428   18.4380 O   0  0  0  0  0  0  0  0  0  0  0  0
   13.0010   24.7915   17.6338 H   0  0  0  0  0  0  0  0  0  0  0  0
   15.5321   24.2256   17.5035 C   0  0  0  0  0  0  0  0  0  0  0  0
   16.8027   23.5195   17.7027 N   0  0  0  0  0  0  0  0  0  0  0  0
   17.4177   23.2169   16.1793 S   0  0  0  0  0  0  0  0  0  0  0  0
   18.3362   21.9869   16.2437 O   0  0  0  0  0  0  0  0  0  0  0  0
   16.2921   22.8014   15.2115 O   0  0  0  0  0  0  0  0  0  0  0  0
   18.3194   24.5449   15.4801 C   0  0  0  0  0  0  0  0  0  0  0  0
   17.7385   25.6652   14.9573 C   0  0  0  0  0  0  0  0  0  0  0  0
   18.4469   26.7276   14.3935 C   0  0  0  0  0  0  0  0  0  0  0  0
   19.7620   26.6828   14.3436 C   0  0  0  0  0  0  0  0  0  0  0  0
   20.4059   25.6459   14.8246 C   0  0  0  0  0  0  0  0  0  0  0  0
   19.6822   24.5811   15.3914 C   0  0  0  0  0  0  0  0  0  0  0  0
   20.5763   27.8776   13.7054 O   0  0  0  0  0  0  0  0  0  0  0  0
   21.4464   28.3692   14.4925 C   0  0  0  0  0  0  0  0  0  0  0  0
   17.6771   24.4915   18.3903 C   0  0  0  0  0  0  0  0  0  0  0  0
   18.6117   23.9376   19.4994 C   0  0  0  0  0  0  0  0  0  0  0  0
   20.1037   24.2550   19.3015 C   0  0  0  0  0  0  0  0  0  0  0  0
   18.4098   22.4436   19.7783 C   0  0  0  0  0  0  0  0  0  0  0  0
   13.0151   22.9444   15.9420 C   0  0  0  0  0  0  0  0  0  0  0  0
   12.3582   21.8552   15.1275 C   0  0  0  0  0  0  0  0  0  0  0  0
   13.1171   20.8864   14.4625 C   0  0  0  0  0  0  0  0  0  0  0  0
   12.5167   19.8635   13.7050 C   0  0  0  0  0  0  0  0  0  0  0  0
   11.0971   19.7787   13.5869 C   0  0  0  0  0  0  0  0  0  0  0  0
   10.3217   20.7646   14.2613 C   0  0  0  0  0  0  0  0  0  0  0  0
   10.9563   21.7768   15.0109 C   0  0  0  0  0  0  0  0  0  0  0  0
   10.5007   18.7680   12.8385 O   0  0  0  0  0  0  0  0  0  0  0  0
    9.2351   18.2590   13.2941 C   0  0  0  0  0  0  0  0  0  0  0  0
    9.3947   16.6300   13.9585 P   0  0  0  0  0  0  0  0  0  0  0  0
    8.6456   15.6330   13.0180 O   0  0  0  0  0  0  0  0  0  0  0  0
   10.7570   16.0373   13.9920 O   0  0  0  0  0  0  0  0  0  0  0  0
   11.0080   15.2188   12.8428 C   0  0  0  0  0  0  0  0  0  0  0  0
   12.1947   15.8073   12.0500 C   0  0  0  0  0  0  0  0  0  0  0  0
    8.5416   16.5612   15.2784 O   0  0  0  0  0  0  0  0  0  0  0  0
    8.0820   15.2282   15.5112 C   0  0  0  0  0  0  0  0  0  0  0  0
    8.9165   14.5704   16.6327 C   0  0  0  0  0  0  0  0  0  0  0  0
  2  1  1  0  0  0
  2  3  1  0  0  0
  7 14  1  0  0  0
  7  8  1  0  0  0
  7 11  1  0  0  0
 42 43  1  0  0  0
 42 39  1  0  0  0
  1 35  1  0  0  0
  1 15  1  0  0  0
 35 36  1  0  0  0
 36 37  2  0  0  0
 36 41  1  0  0  0
 37 38  1  0  0  0
 38 39  2  0  0  0
 39 40  1  0  0  0
 43 44  1  0  0  0
 44 46  1  0  0  0
 44 49  1  0  0  0
 44 45  2  0  0  0
 49 50  1  0  0  0
 50 51  1  0  0  0
 46 47  1  0  0  0
 47 48  1  0  0  0
 40 41  2  0  0  0
 15 18  1  0  0  0
 15 16  1  0  0  0
 18 19  1  0  0  0
 19 20  1  0  0  0
 19 31  1  0  0  0
 31 32  1  0  0  0
 32 34  1  0  0  0
 32 33  1  0  0  0
 20 22  2  0  0  0
 20 23  1  0  0  0
 20 21  2  0  0  0
 23 28  2  0  0  0
 23 24  1  0  0  0
 24 25  2  0  0  0
 25 26  1  0  0  0
 26 29  1  0  0  0
 26 27  2  0  0  0
 29 30  1  0  0  0
 27 28  1  0  0  0
  3  4  2  0  0  0
  3  6  1  0  0  0
  6  8  1  0  0  0
  8  9  1  0  0  0
  9 10  1  0  0  0
 10 11  1  0  0  0
 11 12  1  0  0  0
 12 13  1  0  0  0
 13 14  1  0  0  0
  2  5  1  0  0  0
 16 17  1  0  0  0
M  END
> <minimizedAffinity>
-8.93117

$$$$
2I4W_KGQ_B_300


 51 54  0  0  0  0  0  0  0  0999 V2000
   13.9761   22.2217   17.0394 C   0  0  0  0  0  0  0  0  0  0  0  0
   13.0768   21.3880   17.8061 N   0  0  0  0  0  0  0  0  0  0  0  0
   13.5571   20.1304   18.1862 C   0  0  0  0  0  0  0  0  0  0  0  0
   14.6673   19.6770   17.9210 O   0  0  0  0  0  0  0  0  0  0  0  0
   12.1717   21.6905   18.0484 H   0  0  0  0  0  0  0  0  0  0  0  0
   12.5863   19.5115   18.8719 O   0  0  0  0  0  0  0  0  0  0  0  0
   11.9587   17.2358   19.5415 C   0  0  0  0  0  0  0  0  0  0  0  0
   12.9193   18.4455   19.7633 C   0  0  0  0  0  0  0  0  0  0  0  0
   12.4899   18.8338   21.1891 C   0  0  0  0  0  0  0  0  0  0  0  0
   11.0695   18.8318   21.1803 O   0  0  0  0  0  0  0  0  0  0  0  0
   10.7895   17.6048   20.5129 C   0  0  0  0  0  0  0  0  0  0  0  0
    9.5496   17.6938   19.7842 O   0  0  0  0  0  0  0  0  0  0  0  0
    9.9483   17.9949   18.4507 C   0  0  0  0  0  0  0  0  0  0  0  0
   11.1840   17.1181   18.1928 C   0  0  0  0  0  0  0  0  0  0  0  0
   14.6436   23.3001   17.9275 C   0  0  0  0  0  0  0  0  0  0  0  0
   13.7405   24.3600   18.2095 O   0  0  0  0  0  0  0  0  0  0  0  0
   13.4854   24.7963   17.3816 H   0  0  0  0  0  0  0  0  0  0  0  0
   15.9098   23.8738   17.2604 C   0  0  0  0  0  0  0  0  0  0  0  0
   16.6834   24.6942   18.1991 N   0  0  0  0  0  0  0  0  0  0  0  0
   17.5549   23.6306   19.1475 S   0  0  0  0  0  0  0  0  0  0  0  0
   16.6918   23.2015   20.3440 O   0  0  0  0  0  0  0  0  0  0  0  0
   17.8266   22.3191   18.3842 O   0  0  0  0  0  0  0  0  0  0  0  0
   19.0676   24.2681   19.7565 C   0  0  0  0  0  0  0  0  0  0  0  0
   19.1524   25.2185   20.7339 C   0  0  0  0  0  0  0  0  0  0  0  0
   20.3522   25.7372   21.2237 C   0  0  0  0  0  0  0  0  0  0  0  0
   21.4974   25.3074   20.7360 C   0  0  0  0  0  0  0  0  0  0  0  0
   21.5126   24.3929   19.7955 C   0  0  0  0  0  0  0  0  0  0  0  0
   20.2977   23.8764   19.3097 C   0  0  0  0  0  0  0  0  0  0  0  0
   22.8631   25.8882   21.2796 O   0  0  0  0  0  0  0  0  0  0  0  0
   23.8716   25.1814   20.9607 C   0  0  0  0  0  0  0  0  0  0  0  0
   17.6195   25.4632   17.3537 C   0  0  0  0  0  0  0  0  0  0  0  0
   17.8443   24.9513   15.9052 C   0  0  0  0  0  0  0  0  0  0  0  0
   19.1905   24.2439   15.6743 C   0  0  0  0  0  0  0  0  0  0  0  0
   17.6072   26.0233   14.8350 C   0  0  0  0  0  0  0  0  0  0  0  0
   13.0865   22.8679   15.8989 C   0  0  0  0  0  0  0  0  0  0  0  0
   12.3950   21.8063   15.0768 C   0  0  0  0  0  0  0  0  0  0  0  0
   11.0027   21.7817   14.9438 C   0  0  0  0  0  0  0  0  0  0  0  0
   10.3470   20.8010   14.1762 C   0  0  0  0  0  0  0  0  0  0  0  0
   11.0880   19.7857   13.5005 C   0  0  0  0  0  0  0  0  0  0  0  0
   12.5054   19.8069   13.6354 C   0  0  0  0  0  0  0  0  0  0  0  0
   13.1299   20.8037   14.4136 C   0  0  0  0  0  0  0  0  0  0  0  0
   10.4420   18.8147   12.7407 O   0  0  0  0  0  0  0  0  0  0  0  0
    9.1540   18.3619   13.1927 C   0  0  0  0  0  0  0  0  0  0  0  0
    9.2253   16.7004   13.7884 P   0  0  0  0  0  0  0  0  0  0  0  0
   10.3659   16.6007   14.8508 O   0  0  0  0  0  0  0  0  0  0  0  0
    8.0579   16.2018   14.5609 O   0  0  0  0  0  0  0  0  0  0  0  0
    8.4488   15.6870   15.8399 C   0  0  0  0  0  0  0  0  0  0  0  0
    8.0014   14.2137   15.9522 C   0  0  0  0  0  0  0  0  0  0  0  0
    9.7642   15.7922   12.6223 O   0  0  0  0  0  0  0  0  0  0  0  0
   11.0587   15.2783   12.9423 C   0  0  0  0  0  0  0  0  0  0  0  0
   12.0928   15.7688   11.9045 C   0  0  0  0  0  0  0  0  0  0  0  0
  2  1  1  0  0  0
  2  3  1  0  0  0
  7 14  1  0  0  0
  7  8  1  0  0  0
  7 11  1  0  0  0
 42 43  1  0  0  0
 42 39  1  0  0  0
  1 35  1  0  0  0
  1 15  1  0  0  0
 35 36  1  0  0  0
 36 37  2  0  0  0
 36 41  1  0  0  0
 37 38  1  0  0  0
 38 39  2  0  0  0
 39 40  1  0  0  0
 43 44  1  0  0  0
 44 46  1  0  0  0
 44 49  1  0  0  0
 44 45  2  0  0  0
 49 50  1  0  0  0
 50 51  1  0  0  0
 46 47  1  0  0  0
 47 48  1  0  0  0
 40 41  2  0  0  0
 15 18  1  0  0  0
 15 16  1  0  0  0
 18 19  1  0  0  0
 19 20  1  0  0  0
 19 31  1  0  0  0
 31 32  1  0  0  0
 32 34  1  0  0  0
 32 33  1  0  0  0
 20 22  2  0  0  0
 20 23  1  0  0  0
 20 21  2  0  0  0
 23 28  2  0  0  0
 23 24  1  0  0  0
 24 25  2  0  0  0
 25 26  1  0  0  0
 26 29  1  0  0  0
 26 27  2  0  0  0
 29 30  1  0  0  0
 27 28  1  0  0  0
  3  4  2  0  0  0
  3  6  1  0  0  0
  6  8  1  0  0  0
  8  9  1  0  0  0
  9 10  1  0  0  0
 10 11  1  0  0  0
 11 12  1  0  0  0
 12 13  1  0  0  0
 13 14  1  0  0  0
  2  5  1  0  0  0
 16 17  1  0  0  0
M  END
> <minimizedAffinity>
-8.87433

$$$$
2I4W_KGQ_B_300


 51 54  0  0  0  0  0  0  0  0999 V2000
   13.6040   21.8394   16.2414 C   0  0  0  0  0  0  0  0  0  0  0  0
   12.8206   21.1768   17.2606 N   0  0  0  0  0  0  0  0  0  0  0  0
   13.4560   20.1567   17.9765 C   0  0  0  0  0  0  0  0  0  0  0  0
   14.6119   19.7766   17.8097 O   0  0  0  0  0  0  0  0  0  0  0  0
   11.8869   21.4309   17.4416 H   0  0  0  0  0  0  0  0  0  0  0  0
   12.5745   19.6647   18.8578 O   0  0  0  0  0  0  0  0  0  0  0  0
   11.9603   17.3431   19.3618 C   0  0  0  0  0  0  0  0  0  0  0  0
   12.9276   18.5322   19.6543 C   0  0  0  0  0  0  0  0  0  0  0  0
   12.5338   18.8071   21.1162 C   0  0  0  0  0  0  0  0  0  0  0  0
   11.1136   18.8050   21.1422 O   0  0  0  0  0  0  0  0  0  0  0  0
   10.8156   17.6341   20.3875 C   0  0  0  0  0  0  0  0  0  0  0  0
    9.5584   17.7794   19.6986 O   0  0  0  0  0  0  0  0  0  0  0  0
    9.9248   18.1845   18.3835 C   0  0  0  0  0  0  0  0  0  0  0  0
   11.1526   17.3313   18.0273 C   0  0  0  0  0  0  0  0  0  0  0  0
   14.2398   23.1458   16.7763 C   0  0  0  0  0  0  0  0  0  0  0  0
   14.0274   24.2234   15.8751 O   0  0  0  0  0  0  0  0  0  0  0  0
   14.4588   24.0269   15.0288 H   0  0  0  0  0  0  0  0  0  0  0  0
   15.7529   22.9766   17.0203 C   0  0  0  0  0  0  0  0  0  0  0  0
   16.2297   23.8843   18.0698 N   0  0  0  0  0  0  0  0  0  0  0  0
   17.1981   22.9709   19.0789 S   0  0  0  0  0  0  0  0  0  0  0  0
   16.3673   22.5023   20.2834 O   0  0  0  0  0  0  0  0  0  0  0  0
   17.6295   21.6650   18.3826 O   0  0  0  0  0  0  0  0  0  0  0  0
   18.6182   23.8030   19.6762 C   0  0  0  0  0  0  0  0  0  0  0  0
   18.5845   24.7565   20.6536 C   0  0  0  0  0  0  0  0  0  0  0  0
   19.7092   25.4294   21.1340 C   0  0  0  0  0  0  0  0  0  0  0  0
   20.8971   25.1547   20.6367 C   0  0  0  0  0  0  0  0  0  0  0  0
   21.0255   24.2499   19.6954 C   0  0  0  0  0  0  0  0  0  0  0  0
   19.8856   23.5772   19.2190 C   0  0  0  0  0  0  0  0  0  0  0  0
   22.1784   25.9111   21.1697 O   0  0  0  0  0  0  0  0  0  0  0  0
   23.0957   25.1252   21.5685 C   0  0  0  0  0  0  0  0  0  0  0  0
   17.0684   24.8760   17.3659 C   0  0  0  0  0  0  0  0  0  0  0  0
   17.5245   24.5181   15.9256 C   0  0  0  0  0  0  0  0  0  0  0  0
   18.9707   24.0053   15.8172 C   0  0  0  0  0  0  0  0  0  0  0  0
   17.2709   25.6373   14.9090 C   0  0  0  0  0  0  0  0  0  0  0  0
   12.5987   22.1201   15.0497 C   0  0  0  0  0  0  0  0  0  0  0  0
   11.6530   20.9601   14.8468 C   0  0  0  0  0  0  0  0  0  0  0  0
   10.3262   21.0182   15.2859 C   0  0  0  0  0  0  0  0  0  0  0  0
    9.4339   19.9462   15.0979 C   0  0  0  0  0  0  0  0  0  0  0  0
    9.8569   18.7489   14.4466 C   0  0  0  0  0  0  0  0  0  0  0  0
   11.2076   18.6859   14.0000 C   0  0  0  0  0  0  0  0  0  0  0  0
   12.0753   19.7786   14.2060 C   0  0  0  0  0  0  0  0  0  0  0  0
    8.9765   17.6872   14.2594 O   0  0  0  0  0  0  0  0  0  0  0  0
    9.5371   16.3675   14.1489 C   0  0  0  0  0  0  0  0  0  0  0  0
    8.8634   15.2752   15.3628 P   0  0  0  0  0  0  0  0  0  0  0  0
   10.0332   14.4669   16.0093 O   0  0  0  0  0  0  0  0  0  0  0  0
    8.2330   15.8905   16.5594 O   0  0  0  0  0  0  0  0  0  0  0  0
    7.3478   14.9781   17.2211 C   0  0  0  0  0  0  0  0  0  0  0  0
    7.7698   14.8443   18.7001 C   0  0  0  0  0  0  0  0  0  0  0  0
    8.0516   14.1579   14.6094 O   0  0  0  0  0  0  0  0  0  0  0  0
    8.8270   12.9628   14.4960 C   0  0  0  0  0  0  0  0  0  0  0  0
    8.9401   12.5456   13.0128 C   0  0  0  0  0  0  0  0  0  0  0  0
  2  1  1  0  0  0
  2  3  1  0  0  0
  7 14  1  0  0  0
  7  8  1  0  0  0
  7 11  1  0  0  0
 42 43  1  0  0  0
 42 39  1  0  0  0
  1 35  1  0  0  0
  1 15  1  0  0  0
 35 36  1  0  0  0
 36 37  2  0  0  0
 36 41  1  0  0  0
 37 38  1  0  0  0
 38 39  2  0  0  0
 39 40  1  0  0  0
 43 44  1  0  0  0
 44 46  1  0  0  0
 44 49  1  0  0  0
 44 45  2  0  0  0
 49 50  1  0  0  0
 50 51  1  0  0  0
 46 47  1  0  0  0
 47 48  1  0  0  0
 40 41  2  0  0  0
 15 18  1  0  0  0
 15 16  1  0  0  0
 18 19  1  0  0  0
 19 20  1  0  0  0
 19 31  1  0  0  0
 31 32  1  0  0  0
 32 34  1  0  0  0
 32 33  1  0  0  0
 20 22  2  0  0  0
 20 23  1  0  0  0
 20 21  2  0  0  0
 23 28  2  0  0  0
 23 24  1  0  0  0
 24 25  2  0  0  0
 25 26  1  0  0  0
 26 29  1  0  0  0
 26 27  2  0  0  0
 29 30  1  0  0  0
 27 28  1  0  0  0
  3  4  2  0  0  0
  3  6  1  0  0  0
  6  8  1  0  0  0
  8  9  1  0  0  0
  9 10  1  0  0  0
 10 11  1  0  0  0
 11 12  1  0  0  0
 12 13  1  0  0  0
 13 14  1  0  0  0
  2  5  1  0  0  0
 16 17  1  0  0  0
M  END
> <minimizedAffinity>
-8.43781

$$$$
2I4W_KGQ_B_300


 51 54  0  0  0  0  0  0  0  0999 V2000
   13.8559   22.3123   17.1580 C   0  0  0  0  0  0  0  0  0  0  0  0
   12.9646   21.3838   17.8176 N   0  0  0  0  0  0  0  0  0  0  0  0
   13.5215   20.1726   18.2415 C   0  0  0  0  0  0  0  0  0  0  0  0
   14.6928   19.8327   18.0968 O   0  0  0  0  0  0  0  0  0  0  0  0
   12.0135   21.5937   17.9612 H   0  0  0  0  0  0  0  0  0  0  0  0
   12.5473   19.4522   18.8140 O   0  0  0  0  0  0  0  0  0  0  0  0
   11.9265   17.1893   19.5314 C   0  0  0  0  0  0  0  0  0  0  0  0
   12.8846   18.4055   19.7263 C   0  0  0  0  0  0  0  0  0  0  0  0
   12.4573   18.8220   21.1447 C   0  0  0  0  0  0  0  0  0  0  0  0
   11.0368   18.8166   21.1390 O   0  0  0  0  0  0  0  0  0  0  0  0
   10.7583   17.5755   20.4974 C   0  0  0  0  0  0  0  0  0  0  0  0
    9.5167   17.6467   19.7696 O   0  0  0  0  0  0  0  0  0  0  0  0
    9.9120   17.9212   18.4295 C   0  0  0  0  0  0  0  0  0  0  0  0
   11.1492   17.0421   18.1870 C   0  0  0  0  0  0  0  0  0  0  0  0
   14.3237   23.4297   18.1221 C   0  0  0  0  0  0  0  0  0  0  0  0
   13.2761   24.3544   18.3788 O   0  0  0  0  0  0  0  0  0  0  0  0
   13.0174   24.7880   17.5506 H   0  0  0  0  0  0  0  0  0  0  0  0
   15.5435   24.1857   17.5580 C   0  0  0  0  0  0  0  0  0  0  0  0
   16.7810   23.4208   17.7479 N   0  0  0  0  0  0  0  0  0  0  0  0
   17.3980   23.1359   16.2219 S   0  0  0  0  0  0  0  0  0  0  0  0
   18.3536   21.9343   16.2828 O   0  0  0  0  0  0  0  0  0  0  0  0
   16.2811   22.6858   15.2594 O   0  0  0  0  0  0  0  0  0  0  0  0
   18.2559   24.4902   15.5179 C   0  0  0  0  0  0  0  0  0  0  0  0
   17.6399   25.6018   15.0172 C   0  0  0  0  0  0  0  0  0  0  0  0
   18.3132   26.6849   14.4498 C   0  0  0  0  0  0  0  0  0  0  0  0
   19.6277   26.6702   14.3739 C   0  0  0  0  0  0  0  0  0  0  0  0
   20.3039   25.6437   14.8323 C   0  0  0  0  0  0  0  0  0  0  0  0
   19.6155   24.5578   15.4030 C   0  0  0  0  0  0  0  0  0  0  0  0
   20.4024   27.8888   13.7312 O   0  0  0  0  0  0  0  0  0  0  0  0
   21.0205   28.5983   14.5872 C   0  0  0  0  0  0  0  0  0  0  0  0
   17.6887   24.3347   18.4711 C   0  0  0  0  0  0  0  0  0  0  0  0
   18.6636   23.6949   19.4961 C   0  0  0  0  0  0  0  0  0  0  0  0
   18.3871   22.2147   19.8100 C   0  0  0  0  0  0  0  0  0  0  0  0
   18.8059   24.5039   20.7907 C   0  0  0  0  0  0  0  0  0  0  0  0
   13.0320   22.8962   15.9373 C   0  0  0  0  0  0  0  0  0  0  0  0
   12.4343   21.7896   15.1012 C   0  0  0  0  0  0  0  0  0  0  0  0
   11.0491   21.6370   14.9799 C   0  0  0  0  0  0  0  0  0  0  0  0
   10.4801   20.6133   14.1995 C   0  0  0  0  0  0  0  0  0  0  0  0
   11.3057   19.6843   13.4982 C   0  0  0  0  0  0  0  0  0  0  0  0
   12.7163   19.8358   13.6211 C   0  0  0  0  0  0  0  0  0  0  0  0
   13.2528   20.8725   14.4127 C   0  0  0  0  0  0  0  0  0  0  0  0
   10.7455   18.6710   12.7257 O   0  0  0  0  0  0  0  0  0  0  0  0
    9.4059   18.2543   13.0421 C   0  0  0  0  0  0  0  0  0  0  0  0
    8.5496   17.6849   11.6058 P   0  0  0  0  0  0  0  0  0  0  0  0
    9.3823   18.0738   10.3428 O   0  0  0  0  0  0  0  0  0  0  0  0
    8.4147   16.2156   11.4295 O   0  0  0  0  0  0  0  0  0  0  0  0
    9.3398   15.7105   10.4586 C   0  0  0  0  0  0  0  0  0  0  0  0
   10.2962   14.7094   11.1417 C   0  0  0  0  0  0  0  0  0  0  0  0
    7.2508   18.5571   11.4406 O   0  0  0  0  0  0  0  0  0  0  0  0
    7.1628   19.0819   10.1142 C   0  0  0  0  0  0  0  0  0  0  0  0
    6.7428   20.5679   10.1611 C   0  0  0  0  0  0  0  0  0  0  0  0
  2  1  1  0  0  0
  2  3  1  0  0  0
  7 14  1  0  0  0
  7  8  1  0  0  0
  7 11  1  0  0  0
 42 43  1  0  0  0
 42 39  1  0  0  0
  1 35  1  0  0  0
  1 15  1  0  0  0
 35 36  1  0  0  0
 36 37  2  0  0  0
 36 41  1  0  0  0
 37 38  1  0  0  0
 38 39  2  0  0  0
 39 40  1  0  0  0
 43 44  1  0  0  0
 44 46  1  0  0  0
 44 49  1  0  0  0
 44 45  2  0  0  0
 49 50  1  0  0  0
 50 51  1  0  0  0
 46 47  1  0  0  0
 47 48  1  0  0  0
 40 41  2  0  0  0
 15 18  1  0  0  0
 15 16  1  0  0  0
 18 19  1  0  0  0
 19 20  1  0  0  0
 19 31  1  0  0  0
 31 32  1  0  0  0
 32 34  1  0  0  0
 32 33  1  0  0  0
 20 22  2  0  0  0
 20 23  1  0  0  0
 20 21  2  0  0  0
 23 28  2  0  0  0
 23 24  1  0  0  0
 24 25  2  0  0  0
 25 26  1  0  0  0
 26 29  1  0  0  0
 26 27  2  0  0  0
 29 30  1  0  0  0
 27 28  1  0  0  0
  3  4  2  0  0  0
  3  6  1  0  0  0
  6  8  1  0  0  0
  8  9  1  0  0  0
  9 10  1  0  0  0
 10 11  1  0  0  0
 11 12  1  0  0  0
 12 13  1  0  0  0
 13 14  1  0  0  0
  2  5  1  0  0  0
 16 17  1  0  0  0
M  END
> <minimizedAffinity>
-8.37983

$$$$
2I4W_KGQ_B_300


 51 54  0  0  0  0  0  0  0  0999 V2000
   13.8817   21.8006   16.3705 C   0  0  0  0  0  0  0  0  0  0  0  0
   13.0164   21.1239   17.3112 N   0  0  0  0  0  0  0  0  0  0  0  0
   13.5497   20.0075   17.9638 C   0  0  0  0  0  0  0  0  0  0  0  0
   14.6799   19.5547   17.8022 O   0  0  0  0  0  0  0  0  0  0  0  0
   12.0979   21.4335   17.4837 H   0  0  0  0  0  0  0  0  0  0  0  0
   12.6039   19.5182   18.7774 O   0  0  0  0  0  0  0  0  0  0  0  0
   11.9426   17.2612   19.4769 C   0  0  0  0  0  0  0  0  0  0  0  0
   12.9256   18.4564   19.6779 C   0  0  0  0  0  0  0  0  0  0  0  0
   12.5144   18.8676   21.1026 C   0  0  0  0  0  0  0  0  0  0  0  0
   11.0941   18.8901   21.1050 O   0  0  0  0  0  0  0  0  0  0  0  0
   10.7877   17.6609   20.4533 C   0  0  0  0  0  0  0  0  0  0  0  0
    9.5437   17.7635   19.7333 O   0  0  0  0  0  0  0  0  0  0  0  0
    9.9368   18.0431   18.3936 C   0  0  0  0  0  0  0  0  0  0  0  0
   11.1551   17.1422   18.1356 C   0  0  0  0  0  0  0  0  0  0  0  0
   14.6476   22.9659   17.0432 C   0  0  0  0  0  0  0  0  0  0  0  0
   14.4605   24.1796   16.3289 O   0  0  0  0  0  0  0  0  0  0  0  0
   14.8209   24.0865   15.4332 H   0  0  0  0  0  0  0  0  0  0  0  0
   16.1559   22.6629   17.1463 C   0  0  0  0  0  0  0  0  0  0  0  0
   16.8732   23.7461   17.8281 N   0  0  0  0  0  0  0  0  0  0  0  0
   17.5833   23.0650   19.1780 S   0  0  0  0  0  0  0  0  0  0  0  0
   16.5474   22.9985   20.3108 O   0  0  0  0  0  0  0  0  0  0  0  0
   17.9527   21.5920   18.9129 O   0  0  0  0  0  0  0  0  0  0  0  0
   18.9946   23.9171   19.7678 C   0  0  0  0  0  0  0  0  0  0  0  0
   20.2711   23.6385   19.3698 C   0  0  0  0  0  0  0  0  0  0  0  0
   21.4036   24.3079   19.8365 C   0  0  0  0  0  0  0  0  0  0  0  0
   21.2728   25.2764   20.7190 C   0  0  0  0  0  0  0  0  0  0  0  0
   20.0832   25.6144   21.1567 C   0  0  0  0  0  0  0  0  0  0  0  0
   18.9485   24.9338   20.6791 C   0  0  0  0  0  0  0  0  0  0  0  0
   22.5470   26.0407   21.2579 O   0  0  0  0  0  0  0  0  0  0  0  0
   23.4996   25.2623   21.5818 C   0  0  0  0  0  0  0  0  0  0  0  0
   17.9317   24.1579   16.8835 C   0  0  0  0  0  0  0  0  0  0  0  0
   17.9316   25.6421   16.4279 C   0  0  0  0  0  0  0  0  0  0  0  0
   17.6954   25.8533   14.9227 C   0  0  0  0  0  0  0  0  0  0  0  0
   19.1642   26.4247   16.8959 C   0  0  0  0  0  0  0  0  0  0  0  0
   12.9301   22.3136   15.2125 C   0  0  0  0  0  0  0  0  0  0  0  0
   11.9855   21.2262   14.7584 C   0  0  0  0  0  0  0  0  0  0  0  0
   12.4619   20.0371   14.1963 C   0  0  0  0  0  0  0  0  0  0  0  0
   11.5921   19.0143   13.7744 C   0  0  0  0  0  0  0  0  0  0  0  0
   10.1783   19.1568   13.9058 C   0  0  0  0  0  0  0  0  0  0  0  0
    9.6900   20.3669   14.4759 C   0  0  0  0  0  0  0  0  0  0  0  0
   10.5901   21.3720   14.8870 C   0  0  0  0  0  0  0  0  0  0  0  0
    9.3159   18.1467   13.4894 O   0  0  0  0  0  0  0  0  0  0  0  0
    9.2585   16.9492   14.2838 C   0  0  0  0  0  0  0  0  0  0  0  0
    9.6524   15.5183   13.3258 P   0  0  0  0  0  0  0  0  0  0  0  0
   10.7354   14.6908   14.0888 O   0  0  0  0  0  0  0  0  0  0  0  0
    8.5817   14.5044   13.1417 O   0  0  0  0  0  0  0  0  0  0  0  0
    8.5151   14.0431   11.7866 C   0  0  0  0  0  0  0  0  0  0  0  0
    9.0614   12.6009   11.7141 C   0  0  0  0  0  0  0  0  0  0  0  0
   10.4277   15.9948   12.0426 O   0  0  0  0  0  0  0  0  0  0  0  0
   11.8136   15.6595   12.1389 C   0  0  0  0  0  0  0  0  0  0  0  0
   12.4009   15.4315   10.7282 C   0  0  0  0  0  0  0  0  0  0  0  0
  2  1  1  0  0  0
  2  3  1  0  0  0
  7 14  1  0  0  0
  7  8  1  0  0  0
  7 11  1  0  0  0
 42 43  1  0  0  0
 42 39  1  0  0  0
  1 35  1  0  0  0
  1 15  1  0  0  0
 35 36  1  0  0  0
 36 37  2  0  0  0
 36 41  1  0  0  0
 37 38  1  0  0  0
 38 39  2  0  0  0
 39 40  1  0  0  0
 43 44  1  0  0  0
 44 46  1  0  0  0
 44 49  1  0  0  0
 44 45  2  0  0  0
 49 50  1  0  0  0
 50 51  1  0  0  0
 46 47  1  0  0  0
 47 48  1  0  0  0
 40 41  2  0  0  0
 15 18  1  0  0  0
 15 16  1  0  0  0
 18 19  1  0  0  0
 19 20  1  0  0  0
 19 31  1  0  0  0
 31 32  1  0  0  0
 32 34  1  0  0  0
 32 33  1  0  0  0
 20 22  2  0  0  0
 20 23  1  0  0  0
 20 21  2  0  0  0
 23 28  2  0  0  0
 23 24  1  0  0  0
 24 25  2  0  0  0
 25 26  1  0  0  0
 26 29  1  0  0  0
 26 27  2  0  0  0
 29 30  1  0  0  0
 27 28  1  0  0  0
  3  4  2  0  0  0
  3  6  1  0  0  0
  6  8  1  0  0  0
  8  9  1  0  0  0
  9 10  1  0  0  0
 10 11  1  0  0  0
 11 12  1  0  0  0
 12 13  1  0  0  0
 13 14  1  0  0  0
  2  5  1  0  0  0
 16 17  1  0  0  0
M  END
> <minimizedAffinity>
-8.30536

$$$$
2I4W_KGQ_B_300


 51 54  0  0  0  0  0  0  0  0999 V2000
   13.8247   21.6352   16.2447 C   0  0  0  0  0  0  0  0  0  0  0  0
   13.0317   21.0764   17.3174 N   0  0  0  0  0  0  0  0  0  0  0  0
   13.5981   20.0133   18.0287 C   0  0  0  0  0  0  0  0  0  0  0  0
   14.7008   19.5158   17.8167 O   0  0  0  0  0  0  0  0  0  0  0  0
   12.1380   21.4267   17.5362 H   0  0  0  0  0  0  0  0  0  0  0  0
   12.7176   19.6311   18.9638 O   0  0  0  0  0  0  0  0  0  0  0  0
   11.9731   17.3379   19.4196 C   0  0  0  0  0  0  0  0  0  0  0  0
   12.9872   18.4746   19.7585 C   0  0  0  0  0  0  0  0  0  0  0  0
   12.5575   18.7540   21.2094 C   0  0  0  0  0  0  0  0  0  0  0  0
   11.1388   18.8221   21.1874 O   0  0  0  0  0  0  0  0  0  0  0  0
   10.8097   17.6749   20.4094 C   0  0  0  0  0  0  0  0  0  0  0  0
    9.5854   17.8893   19.6802 O   0  0  0  0  0  0  0  0  0  0  0  0
   10.0162   18.2888   18.3831 C   0  0  0  0  0  0  0  0  0  0  0  0
   11.2120   17.3794   18.0586 C   0  0  0  0  0  0  0  0  0  0  0  0
   14.6503   22.8531   16.7265 C   0  0  0  0  0  0  0  0  0  0  0  0
   14.1574   24.0599   16.1615 O   0  0  0  0  0  0  0  0  0  0  0  0
   14.2458   24.0246   15.1961 H   0  0  0  0  0  0  0  0  0  0  0  0
   16.1428   22.6971   16.3721 C   0  0  0  0  0  0  0  0  0  0  0  0
   17.0024   23.2643   17.4171 N   0  0  0  0  0  0  0  0  0  0  0  0
   17.2219   24.8732   17.0253 S   0  0  0  0  0  0  0  0  0  0  0  0
   17.0221   25.0535   15.5126 O   0  0  0  0  0  0  0  0  0  0  0  0
   16.1192   25.7428   17.6613 O   0  0  0  0  0  0  0  0  0  0  0  0
   18.7898   25.5216   17.4576 C   0  0  0  0  0  0  0  0  0  0  0  0
   19.2956   26.6855   16.9526 C   0  0  0  0  0  0  0  0  0  0  0  0
   20.5457   27.2093   17.2866 C   0  0  0  0  0  0  0  0  0  0  0  0
   21.3163   26.5676   18.1399 C   0  0  0  0  0  0  0  0  0  0  0  0
   20.9110   25.4417   18.6779 C   0  0  0  0  0  0  0  0  0  0  0  0
   19.6492   24.9232   18.3350 C   0  0  0  0  0  0  0  0  0  0  0  0
   22.7352   27.1480   18.5246 O   0  0  0  0  0  0  0  0  0  0  0  0
   23.6574   26.2719   18.5078 C   0  0  0  0  0  0  0  0  0  0  0  0
   16.2056   23.1755   18.6579 C   0  0  0  0  0  0  0  0  0  0  0  0
   16.9711   22.8315   19.9641 C   0  0  0  0  0  0  0  0  0  0  0  0
   17.4680   24.0510   20.7591 C   0  0  0  0  0  0  0  0  0  0  0  0
   18.1063   21.8218   19.7588 C   0  0  0  0  0  0  0  0  0  0  0  0
   12.7880   22.0372   15.1163 C   0  0  0  0  0  0  0  0  0  0  0  0
   12.1566   20.8151   14.4928 C   0  0  0  0  0  0  0  0  0  0  0  0
   10.7698   20.6319   14.4947 C   0  0  0  0  0  0  0  0  0  0  0  0
   10.1692   19.5002   13.9123 C   0  0  0  0  0  0  0  0  0  0  0  0
   10.9630   18.4885   13.2937 C   0  0  0  0  0  0  0  0  0  0  0  0
   12.3753   18.6711   13.2916 C   0  0  0  0  0  0  0  0  0  0  0  0
   12.9440   19.8169   13.8856 C   0  0  0  0  0  0  0  0  0  0  0  0
   10.3716   17.3683   12.7169 O   0  0  0  0  0  0  0  0  0  0  0  0
    9.0347   17.0337   13.1282 C   0  0  0  0  0  0  0  0  0  0  0  0
    9.0397   15.8960   14.4795 P   0  0  0  0  0  0  0  0  0  0  0  0
   10.5198   15.5230   14.8110 O   0  0  0  0  0  0  0  0  0  0  0  0
    8.5597   16.3959   15.7940 O   0  0  0  0  0  0  0  0  0  0  0  0
    7.7353   15.4312   16.4598 C   0  0  0  0  0  0  0  0  0  0  0  0
    8.5142   14.8342   17.6515 C   0  0  0  0  0  0  0  0  0  0  0  0
    8.4506   14.5314   13.9640 O   0  0  0  0  0  0  0  0  0  0  0  0
    8.3573   14.5307   12.5379 C   0  0  0  0  0  0  0  0  0  0  0  0
    9.2729   13.4343   11.9495 C   0  0  0  0  0  0  0  0  0  0  0  0
  2  1  1  0  0  0
  2  3  1  0  0  0
  7 14  1  0  0  0
  7  8  1  0  0  0
  7 11  1  0  0  0
 42 43  1  0  0  0
 42 39  1  0  0  0
  1 35  1  0  0  0
  1 15  1  0  0  0
 35 36  1  0  0  0
 36 37  2  0  0  0
 36 41  1  0  0  0
 37 38  1  0  0  0
 38 39  2  0  0  0
 39 40  1  0  0  0
 43 44  1  0  0  0
 44 46  1  0  0  0
 44 49  1  0  0  0
 44 45  2  0  0  0
 49 50  1  0  0  0
 50 51  1  0  0  0
 46 47  1  0  0  0
 47 48  1  0  0  0
 40 41  2  0  0  0
 15 18  1  0  0  0
 15 16  1  0  0  0
 18 19  1  0  0  0
 19 20  1  0  0  0
 19 31  1  0  0  0
 31 32  1  0  0  0
 32 34  1  0  0  0
 32 33  1  0  0  0
 20 22  2  0  0  0
 20 23  1  0  0  0
 20 21  2  0  0  0
 23 28  2  0  0  0
 23 24  1  0  0  0
 24 25  2  0  0  0
 25 26  1  0  0  0
 26 29  1  0  0  0
 26 27  2  0  0  0
 29 30  1  0  0  0
 27 28  1  0  0  0
  3  4  2  0  0  0
  3  6  1  0  0  0
  6  8  1  0  0  0
  8  9  1  0  0  0
  9 10  1  0  0  0
 10 11  1  0  0  0
 11 12  1  0  0  0
 12 13  1  0  0  0
 13 14  1  0  0  0
  2  5  1  0  0  0
 16 17  1  0  0  0
M  END
> <minimizedAffinity>
-8.30400

$$$$
2I4W_KGQ_B_300


 51 54  0  0  0  0  0  0  0  0999 V2000
   11.0235   20.3917   14.9137 C   0  0  0  0  0  0  0  0  0  0  0  0
   10.4682   19.9648   13.6483 N   0  0  0  0  0  0  0  0  0  0  0  0
   11.2213   19.0455   12.9105 C   0  0  0  0  0  0  0  0  0  0  0  0
   12.3078   18.5786   13.2422 O   0  0  0  0  0  0  0  0  0  0  0  0
    9.6035   20.3043   13.3225 H   0  0  0  0  0  0  0  0  0  0  0  0
   10.5532   18.7835   11.7787 O   0  0  0  0  0  0  0  0  0  0  0  0
    8.8447   17.5483   10.5232 C   0  0  0  0  0  0  0  0  0  0  0  0
   10.0022   17.4821   11.5679 C   0  0  0  0  0  0  0  0  0  0  0  0
    9.1835   17.0793   12.8070 C   0  0  0  0  0  0  0  0  0  0  0  0
    8.0448   17.9285   12.8122 O   0  0  0  0  0  0  0  0  0  0  0  0
    7.6240   17.8506   11.4534 C   0  0  0  0  0  0  0  0  0  0  0  0
    6.9842   19.0765   11.0483 O   0  0  0  0  0  0  0  0  0  0  0  0
    8.0128   19.8061   10.3869 C   0  0  0  0  0  0  0  0  0  0  0  0
    8.7696   18.7638    9.5484 C   0  0  0  0  0  0  0  0  0  0  0  0
   10.0533   20.1003   16.0845 C   0  0  0  0  0  0  0  0  0  0  0  0
    9.0814   21.1289   16.2104 O   0  0  0  0  0  0  0  0  0  0  0  0
    9.5233   21.9681   16.4138 H   0  0  0  0  0  0  0  0  0  0  0  0
   10.8109   19.9493   17.4190 C   0  0  0  0  0  0  0  0  0  0  0  0
   11.0805   18.5397   17.7240 N   0  0  0  0  0  0  0  0  0  0  0  0
   12.0842   18.5298   19.0592 S   0  0  0  0  0  0  0  0  0  0  0  0
   11.2667   18.9056   20.3047 O   0  0  0  0  0  0  0  0  0  0  0  0
   12.5872   17.1020   19.3504 O   0  0  0  0  0  0  0  0  0  0  0  0
   13.4549   19.6137   18.9491 C   0  0  0  0  0  0  0  0  0  0  0  0
   14.5002   19.4308   18.0892 C   0  0  0  0  0  0  0  0  0  0  0  0
   15.5999   20.2856   17.9961 C   0  0  0  0  0  0  0  0  0  0  0  0
   15.6699   21.3473   18.7718 C   0  0  0  0  0  0  0  0  0  0  0  0
   14.7090   21.6042   19.6274 C   0  0  0  0  0  0  0  0  0  0  0  0
   13.6050   20.7366   19.7124 C   0  0  0  0  0  0  0  0  0  0  0  0
   16.9107   22.3218   18.6786 O   0  0  0  0  0  0  0  0  0  0  0  0
   16.6981   23.4576   19.2106 C   0  0  0  0  0  0  0  0  0  0  0  0
    9.7701   17.9727   18.1027 C   0  0  0  0  0  0  0  0  0  0  0  0
    9.4013   16.5884   17.5041 C   0  0  0  0  0  0  0  0  0  0  0  0
    9.4450   15.4218   18.5057 C   0  0  0  0  0  0  0  0  0  0  0  0
   10.1906   16.2414   16.2363 C   0  0  0  0  0  0  0  0  0  0  0  0
   11.3014   21.9430   14.7529 C   0  0  0  0  0  0  0  0  0  0  0  0
   12.7584   22.2650   14.9865 C   0  0  0  0  0  0  0  0  0  0  0  0
   13.7688   21.6386   14.2493 C   0  0  0  0  0  0  0  0  0  0  0  0
   15.1296   21.9339   14.4539 C   0  0  0  0  0  0  0  0  0  0  0  0
   15.5303   22.8925   15.4322 C   0  0  0  0  0  0  0  0  0  0  0  0
   14.5042   23.5306   16.1857 C   0  0  0  0  0  0  0  0  0  0  0  0
   13.1502   23.2098   15.9555 C   0  0  0  0  0  0  0  0  0  0  0  0
   16.8754   23.1865   15.6365 O   0  0  0  0  0  0  0  0  0  0  0  0
   17.3839   24.4083   15.0736 C   0  0  0  0  0  0  0  0  0  0  0  0
   18.8331   24.9569   15.9219 P   0  0  0  0  0  0  0  0  0  0  0  0
   18.5323   26.3428   16.5764 O   0  0  0  0  0  0  0  0  0  0  0  0
   19.2760   24.1646   17.0984 O   0  0  0  0  0  0  0  0  0  0  0  0
   19.7457   25.0066   18.1587 C   0  0  0  0  0  0  0  0  0  0  0  0
   20.3324   24.1266   19.2834 C   0  0  0  0  0  0  0  0  0  0  0  0
   19.9177   25.3177   14.8410 O   0  0  0  0  0  0  0  0  0  0  0  0
   19.6470   26.5970   14.2644 C   0  0  0  0  0  0  0  0  0  0  0  0
   20.9242   27.4660   14.2841 C   0  0  0  0  0  0  0  0  0  0  0  0
  2  1  1  0  0  0
  2  3  1  0  0  0
  7 14  1  0  0  0
  7  8  1  0  0  0
  7 11  1  0  0  0
 42 43  1  0  0  0
 42 39  1  0  0  0
  1 35  1  0  0  0
  1 15  1  0  0  0
 35 36  1  0  0  0
 36 37  2  0  0  0
 36 41  1  0  0  0
 37 38  1  0  0  0
 38 39  2  0  0  0
 39 40  1  0  0  0
 43 44  1  0  0  0
 44 46  1  0  0  0
 44 49  1  0  0  0
 44 45  2  0  0  0
 49 50  1  0  0  0
 50 51  1  0  0  0
 46 47  1  0  0  0
 47 48  1  0  0  0
 40 41  2  0  0  0
 15 18  1  0  0  0
 15 16  1  0  0  0
 18 19  1  0  0  0
 19 20  1  0  0  0
 19 31  1  0  0  0
 31 32  1  0  0  0
 32 34  1  0  0  0
 32 33  1  0  0  0
 20 22  2  0  0  0
 20 23  1  0  0  0
 20 21  2  0  0  0
 23 28  2  0  0  0
 23 24  1  0  0  0
 24 25  2  0  0  0
 25 26  1  0  0  0
 26 29  1  0  0  0
 26 27  2  0  0  0
 29 30  1  0  0  0
 27 28  1  0  0  0
  3  4  2  0  0  0
  3  6  1  0  0  0
  6  8  1  0  0  0
  8  9  1  0  0  0
  9 10  1  0  0  0
 10 11  1  0  0  0
 11 12  1  0  0  0
 12 13  1  0  0  0
 13 14  1  0  0  0
  2  5  1  0  0  0
 16 17  1  0  0  0
M  END
> <minimizedAffinity>
-8.28072

$$$$
2I4W_KGQ_B_300


 51 54  0  0  0  0  0  0  0  0999 V2000
   16.1729   23.0113   16.9101 C   0  0  0  0  0  0  0  0  0  0  0  0
   17.0471   23.6698   17.8555 N   0  0  0  0  0  0  0  0  0  0  0  0
   16.4463   24.5613   18.7504 C   0  0  0  0  0  0  0  0  0  0  0  0
   15.2495   24.8332   18.7965 O   0  0  0  0  0  0  0  0  0  0  0  0
   18.0166   23.4990   17.8686 H   0  0  0  0  0  0  0  0  0  0  0  0
   17.4101   25.0712   19.5295 O   0  0  0  0  0  0  0  0  0  0  0  0
   19.2292   24.6089   21.1100 C   0  0  0  0  0  0  0  0  0  0  0  0
   17.7125   24.4487   20.7796 C   0  0  0  0  0  0  0  0  0  0  0  0
   17.6665   22.9210   20.6010 C   0  0  0  0  0  0  0  0  0  0  0  0
   18.7816   22.5923   19.7847 O   0  0  0  0  0  0  0  0  0  0  0  0
   19.8208   23.3447   20.4038 C   0  0  0  0  0  0  0  0  0  0  0  0
   20.8114   23.7373   19.4338 O   0  0  0  0  0  0  0  0  0  0  0  0
   20.4494   25.0691   19.0833 C   0  0  0  0  0  0  0  0  0  0  0  0
   20.0449   25.7375   20.4069 C   0  0  0  0  0  0  0  0  0  0  0  0
   15.7512   21.6085   17.4113 C   0  0  0  0  0  0  0  0  0  0  0  0
   16.8877   20.8059   17.6988 O   0  0  0  0  0  0  0  0  0  0  0  0
   17.4021   20.6715   16.8875 H   0  0  0  0  0  0  0  0  0  0  0  0
   14.8646   20.8846   16.3781 C   0  0  0  0  0  0  0  0  0  0  0  0
   13.4560   21.2700   16.5192 N   0  0  0  0  0  0  0  0  0  0  0  0
   12.9410   21.7385   15.0008 S   0  0  0  0  0  0  0  0  0  0  0  0
   12.5721   23.2297   15.0336 O   0  0  0  0  0  0  0  0  0  0  0  0
   14.0973   21.6546   13.9848 O   0  0  0  0  0  0  0  0  0  0  0  0
   11.5676   20.8420   14.3878 C   0  0  0  0  0  0  0  0  0  0  0  0
   10.2682   21.1665   14.6557 C   0  0  0  0  0  0  0  0  0  0  0  0
    9.1660   20.4565   14.1765 C   0  0  0  0  0  0  0  0  0  0  0  0
    9.3512   19.3990   13.4141 C   0  0  0  0  0  0  0  0  0  0  0  0
   10.5661   19.0145   13.1023 C   0  0  0  0  0  0  0  0  0  0  0  0
   11.6697   19.7377   13.5900 C   0  0  0  0  0  0  0  0  0  0  0  0
    8.1122   18.5844   12.8669 O   0  0  0  0  0  0  0  0  0  0  0  0
    8.2304   18.2514   11.6449 C   0  0  0  0  0  0  0  0  0  0  0  0
   12.7558   20.0270   16.9026 C   0  0  0  0  0  0  0  0  0  0  0  0
   12.0837   19.9993   18.3019 C   0  0  0  0  0  0  0  0  0  0  0  0
   12.9990   19.5319   19.4463 C   0  0  0  0  0  0  0  0  0  0  0  0
   10.7553   19.2343   18.3262 C   0  0  0  0  0  0  0  0  0  0  0  0
   16.9949   22.9298   15.5583 C   0  0  0  0  0  0  0  0  0  0  0  0
   17.6706   24.2446   15.2486 C   0  0  0  0  0  0  0  0  0  0  0  0
   16.9466   25.3366   14.7586 C   0  0  0  0  0  0  0  0  0  0  0  0
   17.5637   26.5684   14.4715 C   0  0  0  0  0  0  0  0  0  0  0  0
   18.9652   26.7478   14.6713 C   0  0  0  0  0  0  0  0  0  0  0  0
   19.7055   25.6375   15.1683 C   0  0  0  0  0  0  0  0  0  0  0  0
   19.0551   24.4168   15.4444 C   0  0  0  0  0  0  0  0  0  0  0  0
   19.5780   27.9651   14.3882 O   0  0  0  0  0  0  0  0  0  0  0  0
   20.9172   27.9318   13.8650 C   0  0  0  0  0  0  0  0  0  0  0  0
   22.1058   28.3482   15.1038 P   0  0  0  0  0  0  0  0  0  0  0  0
   21.3456   28.7820   16.3975 O   0  0  0  0  0  0  0  0  0  0  0  0
   22.9657   27.2519   15.6202 O   0  0  0  0  0  0  0  0  0  0  0  0
   22.7360   27.0089   17.0137 C   0  0  0  0  0  0  0  0  0  0  0  0
   24.0935   26.9118   17.7424 C   0  0  0  0  0  0  0  0  0  0  0  0
   22.8167   29.6804   14.6623 O   0  0  0  0  0  0  0  0  0  0  0  0
   24.2329   29.5703   14.8187 C   0  0  0  0  0  0  0  0  0  0  0  0
   24.6909   30.3700   16.0587 C   0  0  0  0  0  0  0  0  0  0  0  0
  2  1  1  0  0  0
  2  3  1  0  0  0
  7 14  1  0  0  0
  7  8  1  0  0  0
  7 11  1  0  0  0
 42 43  1  0  0  0
 42 39  1  0  0  0
  1 35  1  0  0  0
  1 15  1  0  0  0
 35 36  1  0  0  0
 36 37  2  0  0  0
 36 41  1  0  0  0
 37 38  1  0  0  0
 38 39  2  0  0  0
 39 40  1  0  0  0
 43 44  1  0  0  0
 44 46  1  0  0  0
 44 49  1  0  0  0
 44 45  2  0  0  0
 49 50  1  0  0  0
 50 51  1  0  0  0
 46 47  1  0  0  0
 47 48  1  0  0  0
 40 41  2  0  0  0
 15 18  1  0  0  0
 15 16  1  0  0  0
 18 19  1  0  0  0
 19 20  1  0  0  0
 19 31  1  0  0  0
 31 32  1  0  0  0
 32 34  1  0  0  0
 32 33  1  0  0  0
 20 22  2  0  0  0
 20 23  1  0  0  0
 20 21  2  0  0  0
 23 28  2  0  0  0
 23 24  1  0  0  0
 24 25  2  0  0  0
 25 26  1  0  0  0
 26 29  1  0  0  0
 26 27  2  0  0  0
 29 30  1  0  0  0
 27 28  1  0  0  0
  3  4  2  0  0  0
  3  6  1  0  0  0
  6  8  1  0  0  0
  8  9  1  0  0  0
  9 10  1  0  0  0
 10 11  1  0  0  0
 11 12  1  0  0  0
 12 13  1  0  0  0
 13 14  1  0  0  0
  2  5  1  0  0  0
 16 17  1  0  0  0
M  END
> <minimizedAffinity>
-8.27559

$$$$
