4ZO5_4Q0_B_803
  RCSB PDB12061716403D
Coordinates from PDB:4ZO5:B:803 Model:1 without hydrogens
 36 40  0  0  0  0            999 V2000
   -0.2320   -4.6420   23.4190   C 0  0  0  0  0  0  0  0  0  0  0  0
   -1.5160   -5.0720   23.7010   C 0  0  0  0  0  0  0  0  0  0  0  0
   -0.7760   -5.8070   25.8770   C 0  0  0  0  0  0  0  0  0  0  0  0
   -5.3250   -6.5520   24.3840   C 0  0  0  0  0  0  0  0  0  0  0  0
   -4.7540   -5.0900   21.9500   C 0  0  0  0  0  0  0  0  0  0  0  0
   -5.0200   -3.5930   21.9940   C 0  0  0  0  0  0  0  0  0  0  0  0
   -6.3990   -5.8370   24.8900   C 0  0  0  0  0  0  0  0  0  0  0  0
   -7.6120   -6.4710   25.0990   C 0  0  0  0  0  0  0  0  0  0  0  0
   -6.6510   -8.5440   24.3190   C 0  0  0  0  0  0  0  0  0  0  0  0
   -9.7620   -7.8780   25.9440   C 0  0  0  0  0  0  0  0  0  0  0  0
   -6.1950   -3.1850   21.2610   N 0  0  0  0  0  0  0  0  0  0  0  0
   -7.3910   -2.8710   21.8800   C 0  0  0  0  0  0  0  0  0  0  0  0
   -8.2500   -2.4900   20.7700   C 0  0  0  0  0  0  0  0  0  0  0  0
   -7.5740   -2.6360   19.5890   C 0  0  0  0  0  0  0  0  0  0  0  0
    0.5030   -5.3720   25.5900   C 0  0  0  0  0  0  0  0  0  0  0  0
   -2.5110   -4.9010   22.7360   N 0  0  0  0  0  0  0  0  0  0  0  0
   -3.3990   -6.6120   26.3350   O 0  0  0  0  0  0  0  0  0  0  0  0
    0.7670   -4.7880   24.3670   C 0  0  0  0  0  0  0  0  0  0  0  0
   -1.7790   -5.6460   24.9350   C 0  0  0  0  0  0  0  0  0  0  0  0
   -3.7120   -5.3120   23.0040   C 0  0  0  0  0  0  0  0  0  0  0  0
   -4.0850   -5.9040   24.2110   N 0  0  0  0  0  0  0  0  0  0  0  0
   -3.1590   -6.1000   25.2400   C 0  0  0  0  0  0  0  0  0  0  0  0
   -7.7300   -7.8310   24.8250   C 0  0  0  0  0  0  0  0  0  0  0  0
   -5.4440   -7.9060   24.0940   C 0  0  0  0  0  0  0  0  0  0  0  0
   -8.9130   -8.5450   25.0160   O 0  0  0  0  0  0  0  0  0  0  0  0
   -6.2140   -3.0870   19.8780   C 0  0  0  0  0  0  0  0  0  0  0  0
   -9.5620   -2.0690   20.8170   C 0  0  0  0  0  0  0  0  0  0  0  0
  -10.1630   -1.7730   19.6020   C 0  0  0  0  0  0  0  0  0  0  0  0
   -9.4780   -1.9090   18.4110   C 0  0  0  0  0  0  0  0  0  0  0  0
   -8.1610   -2.3530   18.3720   C 0  0  0  0  0  0  0  0  0  0  0  0
   -5.3280   -3.2700   19.0440   O 0  0  0  0  0  0  0  0  0  0  0  0
   -7.7510   -2.9430   23.0560   O 0  0  0  0  0  0  0  0  0  0  0  0
   -7.4160   -2.5500   17.1940   O 0  0  0  0  0  0  0  0  0  0  0  0
   -8.0540   -2.0180   16.0060   C 0  0  0  0  0  0  0  0  0  0  0  0
   -6.9830   -1.5880   15.0300   C 0  0  0  0  0  0  0  0  0  0  0  0
   -8.9370   -3.0220   15.2880   C 0  0  0  0  0  0  0  0  0  0  0  0
 35 34  1  0  0  0  0
 36 34  1  0  0  0  0
 34 33  1  0  0  0  0
 33 30  1  0  0  0  0
 30 29  2  0  0  0  0
 30 14  1  0  0  0  0
 29 28  1  0  0  0  0
 31 26  2  0  0  0  0
 14 26  1  0  0  0  0
 14 13  2  0  0  0  0
 28 27  2  0  0  0  0
 26 11  1  0  0  0  0
 13 27  1  0  0  0  0
 13 12  1  0  0  0  0
 11 12  1  0  0  0  0
 11  6  1  0  0  0  0
 12 32  2  0  0  0  0
  5  6  1  0  0  0  0
  5 20  1  0  0  0  0
 16 20  2  0  0  0  0
 16  2  1  0  0  0  0
 20 21  1  0  0  0  0
  1  2  2  0  0  0  0
  1 18  1  0  0  0  0
  2 19  1  0  0  0  0
 24  9  2  0  0  0  0
 24  4  1  0  0  0  0
 21  4  1  0  0  0  0
 21 22  1  0  0  0  0
  9 23  1  0  0  0  0
 18 15  2  0  0  0  0
  4  7  2  0  0  0  0
 23 25  1  0  0  0  0
 23  8  2  0  0  0  0
  7  8  1  0  0  0  0
 19 22  1  0  0  0  0
 19  3  2  0  0  0  0
 25 10  1  0  0  0  0
 22 17  2  0  0  0  0
 15  3  1  0  0  0  0
A    1
C2
A    2
C3
A    3
C5
A    4
C9
A    5
C10
A    6
C11
A    7
C12
A    8
C13
A    9
C15
A   10
C18
A   11
N19
A   12
C20
A   13
C21
A   14
C22
A   15
C
A   16
N
A   17
O
A   18
C1
A   19
C4
A   20
C6
A   21
N7
A   22
C8
A   23
C14
A   24
C16
A   25
O17
A   26
C23
A   27
C24
A   28
C25
A   29
C26
A   30
C27
A   31
O28
A   32
O29
A   33
O30
A   34
C31
A   35
C32
A   36
C33
M  END
>  <InstanceId>
4ZO5_4Q0_B_803

>  <ChemCompId>
4Q0

>  <PdbId>
4ZO5

>  <ChainId>
B

>  <ResidueNumber>
803

>  <InsertionCode>


>  <Model>
1

>  <AltIds>


>  <MissingHeavyAtoms>
0

>  <ObservedFormula>
C28 N3 O5

>  <Name>
2-{2-[3-(4-methoxyphenyl)-4-oxo-3,4-dihydroquinazolin-2-yl]ethyl}-4-(propan-2-yloxy)-1H-isoindole-1,3(2H)-dione

>  <SystematicName>
2-[2-[3-(4-methoxyphenyl)-4-oxidanylidene-quinazolin-2-yl]ethyl]-4-propan-2-yloxy-isoindole-1,3-dione

>  <Synonyms>


>  <Type>
NON-POLYMER

>  <Formula>
C28 H25 N3 O5

>  <MolecularWeight>
483.515

>  <ModifiedDate>
2015-08-07

>  <Parent>


>  <OneLetterCode>


>  <SubcomponentList>


>  <AmbiguousFlag>
N

>  <InChI>
InChI=1S/C28H25N3O5/c1-17(2)36-23-10-6-8-21-25(23)28(34)30(26(21)32)16-15-24-29-22-9-5-4-7-20(22)27(33)31(24)18-11-13-19(35-3)14-12-18/h4-14,17H,15-16H2,1-3H3

>  <InChIKey>
UUAAHYNWZKQZBM-UHFFFAOYSA-N

>  <SMILES>
CC(C)Oc1cccc2c1C(=O)N(C2=O)CCC3=Nc4ccccc4C(=O)N3c5ccc(cc5)OC

$$$$
