4ZO5_4Q0_B_803


 36 40  0  0  0  0  0  0  0  0999 V2000
   -0.4633   -4.6871   23.4877 C   0  0  0  0  0  0  0  0  0  0  0  0
   -1.7739   -5.0488   23.7420 C   0  0  0  0  0  0  0  0  0  0  0  0
   -1.1678   -5.5908   26.0140 C   0  0  0  0  0  0  0  0  0  0  0  0
    0.1382   -5.2244   25.7540 C   0  0  0  0  0  0  0  0  0  0  0  0
   -2.7137   -4.9425   22.7144 N   0  0  0  0  0  0  0  0  0  0  0  0
   -3.8367   -6.2682   26.4091 O   0  0  0  0  0  0  0  0  0  0  0  0
    0.4822   -4.7703   24.4962 C   0  0  0  0  0  0  0  0  0  0  0  0
   -2.1171   -5.4920   25.0098 C   0  0  0  0  0  0  0  0  0  0  0  0
   -3.9400   -5.2892   22.9573 C   0  0  0  0  0  0  0  0  0  0  0  0
   -4.3924   -5.7497   24.1942 N   0  0  0  0  0  0  0  0  0  0  0  0
   -3.5254   -5.8725   25.2842 C   0  0  0  0  0  0  0  0  0  0  0  0
   -5.6613   -6.3402   24.3633 C   0  0  0  0  0  0  0  0  0  0  0  0
   -6.7239   -5.5556   24.7829 C   0  0  0  0  0  0  0  0  0  0  0  0
   -7.9665   -6.1308   24.9880 C   0  0  0  0  0  0  0  0  0  0  0  0
   -7.0591   -8.2835   24.3782 C   0  0  0  0  0  0  0  0  0  0  0  0
   -8.1268   -7.5008   24.7978 C   0  0  0  0  0  0  0  0  0  0  0  0
   -5.8218   -7.7052   24.1567 C   0  0  0  0  0  0  0  0  0  0  0  0
  -10.1804   -7.4210   25.8747 C   0  0  0  0  0  0  0  0  0  0  0  0
   -9.3419   -8.1580   24.9911 O   0  0  0  0  0  0  0  0  0  0  0  0
   -4.9206   -5.1395   21.8340 C   0  0  0  0  0  0  0  0  0  0  0  0
   -4.8979   -3.6532   21.5110 C   0  0  0  0  0  0  0  0  0  0  0  0
   -6.0829   -3.1827   20.8337 N   0  0  0  0  0  0  0  0  0  0  0  0
   -7.2090   -2.7508   21.5101 C   0  0  0  0  0  0  0  0  0  0  0  0
   -8.1060   -2.3471   20.4388 C   0  0  0  0  0  0  0  0  0  0  0  0
   -7.5206   -2.5927   19.2263 C   0  0  0  0  0  0  0  0  0  0  0  0
   -6.1833   -3.1382   19.4515 C   0  0  0  0  0  0  0  0  0  0  0  0
   -9.3762   -1.8220   20.5471 C   0  0  0  0  0  0  0  0  0  0  0  0
  -10.0297   -1.5275   19.3591 C   0  0  0  0  0  0  0  0  0  0  0  0
   -9.4352   -1.7643   18.1357 C   0  0  0  0  0  0  0  0  0  0  0  0
   -8.1613   -2.3124   18.0361 C   0  0  0  0  0  0  0  0  0  0  0  0
   -5.3694   -3.4236   18.5739 O   0  0  0  0  0  0  0  0  0  0  0  0
   -7.4971   -2.7476   22.7079 O   0  0  0  0  0  0  0  0  0  0  0  0
   -7.5109   -2.6141   16.8247 O   0  0  0  0  0  0  0  0  0  0  0  0
   -8.1149   -1.9842   15.6672 C   0  0  0  0  0  0  0  0  0  0  0  0
   -7.0192   -1.4070   14.8006 C   0  0  0  0  0  0  0  0  0  0  0  0
   -8.9135   -2.9410   14.8011 C   0  0  0  0  0  0  0  0  0  0  0  0
 35 34  1  0  0  0
 36 34  1  0  0  0
 34 33  1  0  0  0
 33 30  1  0  0  0
 30 29  2  0  0  0
 30 25  1  0  0  0
 29 28  1  0  0  0
 31 26  2  0  0  0
 25 26  1  0  0  0
 25 24  2  0  0  0
 28 27  2  0  0  0
 26 22  1  0  0  0
 24 27  1  0  0  0
 24 23  1  0  0  0
 22 23  1  0  0  0
 22 21  1  0  0  0
 23 32  2  0  0  0
 20 21  1  0  0  0
 20  9  1  0  0  0
  5  9  2  0  0  0
  5  2  1  0  0  0
  9 10  1  0  0  0
  1  2  2  0  0  0
  1  7  1  0  0  0
  2  8  1  0  0  0
 17 15  2  0  0  0
 17 12  1  0  0  0
 10 12  1  0  0  0
 10 11  1  0  0  0
 15 16  1  0  0  0
  7  4  2  0  0  0
 12 13  2  0  0  0
 16 19  1  0  0  0
 16 14  2  0  0  0
 13 14  1  0  0  0
  8 11  1  0  0  0
  8  3  2  0  0  0
 19 18  1  0  0  0
 11  6  2  0  0  0
  4  3  1  0  0  0
M  END
> <minimizedAffinity>
-11.35938

$$$$
4ZO5_4Q0_B_803


 36 40  0  0  0  0  0  0  0  0999 V2000
   -0.2988   -4.5921   23.6418 C   0  0  0  0  0  0  0  0  0  0  0  0
   -1.6031   -4.9784   23.8917 C   0  0  0  0  0  0  0  0  0  0  0  0
   -0.9704   -5.6121   26.1325 C   0  0  0  0  0  0  0  0  0  0  0  0
    0.3293   -5.2209   25.8771 C   0  0  0  0  0  0  0  0  0  0  0  0
   -2.5535   -4.8376   22.8781 N   0  0  0  0  0  0  0  0  0  0  0  0
   -3.6284   -6.3343   26.5214 O   0  0  0  0  0  0  0  0  0  0  0  0
    0.6569   -4.7089   24.6373 C   0  0  0  0  0  0  0  0  0  0  0  0
   -1.9299   -5.4799   25.1420 C   0  0  0  0  0  0  0  0  0  0  0  0
   -3.7739   -5.2076   23.1166 C   0  0  0  0  0  0  0  0  0  0  0  0
   -4.2100   -5.7260   24.3362 N   0  0  0  0  0  0  0  0  0  0  0  0
   -3.3317   -5.8869   25.4121 C   0  0  0  0  0  0  0  0  0  0  0  0
   -5.4711   -6.3368   24.4907 C   0  0  0  0  0  0  0  0  0  0  0  0
   -5.5999   -7.6962   24.2535 C   0  0  0  0  0  0  0  0  0  0  0  0
   -6.8402   -8.3010   24.3661 C   0  0  0  0  0  0  0  0  0  0  0  0
   -7.8191   -6.1658   24.9245 C   0  0  0  0  0  0  0  0  0  0  0  0
   -7.9524   -7.5279   24.6886 C   0  0  0  0  0  0  0  0  0  0  0  0
   -6.5764   -5.5650   24.8288 C   0  0  0  0  0  0  0  0  0  0  0  0
   -9.9690   -7.3771   25.8261 C   0  0  0  0  0  0  0  0  0  0  0  0
   -9.2366   -8.0581   24.8128 O   0  0  0  0  0  0  0  0  0  0  0  0
   -4.7664   -5.0196   22.0095 C   0  0  0  0  0  0  0  0  0  0  0  0
   -4.9386   -3.5115   21.9113 C   0  0  0  0  0  0  0  0  0  0  0  0
   -5.9132   -3.0958   20.9306 N   0  0  0  0  0  0  0  0  0  0  0  0
   -5.6313   -3.0269   19.5786 C   0  0  0  0  0  0  0  0  0  0  0  0
   -6.8961   -2.6076   18.9960 C   0  0  0  0  0  0  0  0  0  0  0  0
   -7.8187   -2.4056   19.9865 C   0  0  0  0  0  0  0  0  0  0  0  0
   -7.2044   -2.7246   21.2739 C   0  0  0  0  0  0  0  0  0  0  0  0
   -7.1889   -2.3928   17.6660 C   0  0  0  0  0  0  0  0  0  0  0  0
   -8.4817   -1.9830   17.3731 C   0  0  0  0  0  0  0  0  0  0  0  0
   -9.4163   -1.7902   18.3708 C   0  0  0  0  0  0  0  0  0  0  0  0
   -9.1063   -1.9905   19.7113 C   0  0  0  0  0  0  0  0  0  0  0  0
   -7.7726   -2.6964   22.3649 O   0  0  0  0  0  0  0  0  0  0  0  0
   -4.5844   -3.1851   18.9487 O   0  0  0  0  0  0  0  0  0  0  0  0
   -9.9966   -1.7774   20.7806 O   0  0  0  0  0  0  0  0  0  0  0  0
  -10.4613   -0.4084   20.8872 C   0  0  0  0  0  0  0  0  0  0  0  0
  -11.9324   -0.3660   20.5429 C   0  0  0  0  0  0  0  0  0  0  0  0
  -10.3099    0.1791   22.2783 C   0  0  0  0  0  0  0  0  0  0  0  0
 35 34  1  0  0  0
 36 34  1  0  0  0
 34 33  1  0  0  0
 33 30  1  0  0  0
 30 29  2  0  0  0
 30 25  1  0  0  0
 29 28  1  0  0  0
 31 26  2  0  0  0
 25 26  1  0  0  0
 25 24  2  0  0  0
 28 27  2  0  0  0
 26 22  1  0  0  0
 24 27  1  0  0  0
 24 23  1  0  0  0
 22 23  1  0  0  0
 22 21  1  0  0  0
 23 32  2  0  0  0
 20 21  1  0  0  0
 20  9  1  0  0  0
  5  9  2  0  0  0
  5  2  1  0  0  0
  9 10  1  0  0  0
  1  2  2  0  0  0
  1  7  1  0  0  0
  2  8  1  0  0  0
 17 15  2  0  0  0
 17 12  1  0  0  0
 10 12  1  0  0  0
 10 11  1  0  0  0
 15 16  1  0  0  0
  7  4  2  0  0  0
 12 13  2  0  0  0
 16 19  1  0  0  0
 16 14  2  0  0  0
 13 14  1  0  0  0
  8 11  1  0  0  0
  8  3  2  0  0  0
 19 18  1  0  0  0
 11  6  2  0  0  0
  4  3  1  0  0  0
M  END
> <minimizedAffinity>
-10.89098

$$$$
4ZO5_4Q0_B_803


 36 40  0  0  0  0  0  0  0  0999 V2000
   -6.5599   -3.0374   17.8711 C   0  0  0  0  0  0  0  0  0  0  0  0
   -7.7417   -2.4394   18.2697 C   0  0  0  0  0  0  0  0  0  0  0  0
   -8.2067   -1.8622   15.9733 C   0  0  0  0  0  0  0  0  0  0  0  0
   -7.0270   -2.4644   15.5820 C   0  0  0  0  0  0  0  0  0  0  0  0
   -8.0781   -2.4493   19.6251 N   0  0  0  0  0  0  0  0  0  0  0  0
  -10.5656   -0.7108   16.8940 O   0  0  0  0  0  0  0  0  0  0  0  0
   -6.2136   -3.0525   16.5302 C   0  0  0  0  0  0  0  0  0  0  0  0
   -8.5611   -1.8616   17.3126 C   0  0  0  0  0  0  0  0  0  0  0  0
   -9.1849   -1.8814   19.9935 C   0  0  0  0  0  0  0  0  0  0  0  0
  -10.0802   -1.2699   19.1155 N   0  0  0  0  0  0  0  0  0  0  0  0
   -9.8332   -1.2271   17.7400 C   0  0  0  0  0  0  0  0  0  0  0  0
  -11.1438   -0.4598   19.5627 C   0  0  0  0  0  0  0  0  0  0  0  0
  -12.4314   -0.9724   19.5665 C   0  0  0  0  0  0  0  0  0  0  0  0
  -13.4895   -0.1750   19.9687 C   0  0  0  0  0  0  0  0  0  0  0  0
  -11.9580    1.6559   20.3316 C   0  0  0  0  0  0  0  0  0  0  0  0
  -13.2498    1.1460   20.3377 C   0  0  0  0  0  0  0  0  0  0  0  0
  -10.8988    0.8534   19.9461 C   0  0  0  0  0  0  0  0  0  0  0  0
  -14.0694    2.4127   22.1004 C   0  0  0  0  0  0  0  0  0  0  0  0
  -14.2603    2.0163   20.7464 O   0  0  0  0  0  0  0  0  0  0  0  0
   -9.5186   -1.9333   21.4536 C   0  0  0  0  0  0  0  0  0  0  0  0
   -8.1660   -2.0040   22.1459 C   0  0  0  0  0  0  0  0  0  0  0  0
   -7.9350   -3.2398   22.8556 N   0  0  0  0  0  0  0  0  0  0  0  0
   -8.8721   -3.8019   23.7030 C   0  0  0  0  0  0  0  0  0  0  0  0
   -8.2264   -5.0271   24.1470 C   0  0  0  0  0  0  0  0  0  0  0  0
   -6.9709   -5.1111   23.6088 C   0  0  0  0  0  0  0  0  0  0  0  0
   -6.7497   -3.9512   22.7474 C   0  0  0  0  0  0  0  0  0  0  0  0
   -8.7236   -5.9875   25.0022 C   0  0  0  0  0  0  0  0  0  0  0  0
   -7.8942   -7.0659   25.2744 C   0  0  0  0  0  0  0  0  0  0  0  0
   -6.6319   -7.1570   24.7227 C   0  0  0  0  0  0  0  0  0  0  0  0
   -6.1314   -6.1738   23.8765 C   0  0  0  0  0  0  0  0  0  0  0  0
   -5.7419   -3.7419   22.0731 O   0  0  0  0  0  0  0  0  0  0  0  0
   -9.9664   -3.3991   24.1005 O   0  0  0  0  0  0  0  0  0  0  0  0
   -4.8430   -6.1839   23.3097 O   0  0  0  0  0  0  0  0  0  0  0  0
   -3.8214   -5.6305   24.1766 C   0  0  0  0  0  0  0  0  0  0  0  0
   -3.2685   -6.7373   25.0448 C   0  0  0  0  0  0  0  0  0  0  0  0
   -2.6504   -5.0228   23.4264 C   0  0  0  0  0  0  0  0  0  0  0  0
 35 34  1  0  0  0
 36 34  1  0  0  0
 34 33  1  0  0  0
 33 30  1  0  0  0
 30 29  2  0  0  0
 30 25  1  0  0  0
 29 28  1  0  0  0
 31 26  2  0  0  0
 25 26  1  0  0  0
 25 24  2  0  0  0
 28 27  2  0  0  0
 26 22  1  0  0  0
 24 27  1  0  0  0
 24 23  1  0  0  0
 22 23  1  0  0  0
 22 21  1  0  0  0
 23 32  2  0  0  0
 20 21  1  0  0  0
 20  9  1  0  0  0
  5  9  2  0  0  0
  5  2  1  0  0  0
  9 10  1  0  0  0
  1  2  2  0  0  0
  1  7  1  0  0  0
  2  8  1  0  0  0
 17 15  2  0  0  0
 17 12  1  0  0  0
 10 12  1  0  0  0
 10 11  1  0  0  0
 15 16  1  0  0  0
  7  4  2  0  0  0
 12 13  2  0  0  0
 16 19  1  0  0  0
 16 14  2  0  0  0
 13 14  1  0  0  0
  8 11  1  0  0  0
  8  3  2  0  0  0
 19 18  1  0  0  0
 11  6  2  0  0  0
  4  3  1  0  0  0
M  END
> <minimizedAffinity>
-9.65230

$$$$
4ZO5_4Q0_B_803


 36 40  0  0  0  0  0  0  0  0999 V2000
  -12.0435   -0.3129   21.2514 C   0  0  0  0  0  0  0  0  0  0  0  0
  -11.2338   -0.6326   20.1766 C   0  0  0  0  0  0  0  0  0  0  0  0
  -12.7683    0.5043   18.7016 C   0  0  0  0  0  0  0  0  0  0  0  0
  -13.5701    0.8231   19.7799 C   0  0  0  0  0  0  0  0  0  0  0  0
  -10.0627   -1.3577   20.4074 N   0  0  0  0  0  0  0  0  0  0  0  0
  -11.0491   -0.1803   16.6246 O   0  0  0  0  0  0  0  0  0  0  0  0
  -13.2018    0.4183   21.0476 C   0  0  0  0  0  0  0  0  0  0  0  0
  -11.6011   -0.2130   18.9076 C   0  0  0  0  0  0  0  0  0  0  0  0
   -9.3105   -1.6598   19.3945 C   0  0  0  0  0  0  0  0  0  0  0  0
   -9.5863   -1.2903   18.0777 N   0  0  0  0  0  0  0  0  0  0  0  0
  -10.7275   -0.5496   17.7555 C   0  0  0  0  0  0  0  0  0  0  0  0
   -8.8875   -1.8301   16.9787 C   0  0  0  0  0  0  0  0  0  0  0  0
   -9.3747   -2.9699   16.3589 C   0  0  0  0  0  0  0  0  0  0  0  0
   -8.6782   -3.5309   15.3019 C   0  0  0  0  0  0  0  0  0  0  0  0
   -6.9920   -1.8163   15.5168 C   0  0  0  0  0  0  0  0  0  0  0  0
   -7.4772   -2.9579   14.8923 C   0  0  0  0  0  0  0  0  0  0  0  0
   -7.6973   -1.2461   16.5617 C   0  0  0  0  0  0  0  0  0  0  0  0
   -5.3247   -3.4242   14.1623 C   0  0  0  0  0  0  0  0  0  0  0  0
   -6.7115   -3.4661   13.8429 O   0  0  0  0  0  0  0  0  0  0  0  0
   -8.0527   -2.4197   19.6886 C   0  0  0  0  0  0  0  0  0  0  0  0
   -7.6916   -2.0132   21.1092 C   0  0  0  0  0  0  0  0  0  0  0  0
   -7.2761   -3.1141   21.9458 N   0  0  0  0  0  0  0  0  0  0  0  0
   -6.1045   -3.8163   21.7303 C   0  0  0  0  0  0  0  0  0  0  0  0
   -6.0905   -4.7816   22.8180 C   0  0  0  0  0  0  0  0  0  0  0  0
   -7.2273   -4.6509   23.5688 C   0  0  0  0  0  0  0  0  0  0  0  0
   -8.0277   -3.5559   23.0239 C   0  0  0  0  0  0  0  0  0  0  0  0
   -5.1334   -5.7343   23.0959 C   0  0  0  0  0  0  0  0  0  0  0  0
   -5.3660   -6.5452   24.1975 C   0  0  0  0  0  0  0  0  0  0  0  0
   -6.5071   -6.4062   24.9622 C   0  0  0  0  0  0  0  0  0  0  0  0
   -7.4763   -5.4554   24.6627 C   0  0  0  0  0  0  0  0  0  0  0  0
   -9.0880   -3.1424   23.4918 O   0  0  0  0  0  0  0  0  0  0  0  0
   -5.2671   -3.7601   20.8284 O   0  0  0  0  0  0  0  0  0  0  0  0
   -8.6781   -5.2838   25.3752 O   0  0  0  0  0  0  0  0  0  0  0  0
   -9.7099   -6.2358   25.0139 C   0  0  0  0  0  0  0  0  0  0  0  0
   -9.8961   -7.2080   26.1561 C   0  0  0  0  0  0  0  0  0  0  0  0
  -11.0602   -5.5971   24.7452 C   0  0  0  0  0  0  0  0  0  0  0  0
 35 34  1  0  0  0
 36 34  1  0  0  0
 34 33  1  0  0  0
 33 30  1  0  0  0
 30 29  2  0  0  0
 30 25  1  0  0  0
 29 28  1  0  0  0
 31 26  2  0  0  0
 25 26  1  0  0  0
 25 24  2  0  0  0
 28 27  2  0  0  0
 26 22  1  0  0  0
 24 27  1  0  0  0
 24 23  1  0  0  0
 22 23  1  0  0  0
 22 21  1  0  0  0
 23 32  2  0  0  0
 20 21  1  0  0  0
 20  9  1  0  0  0
  5  9  2  0  0  0
  5  2  1  0  0  0
  9 10  1  0  0  0
  1  2  2  0  0  0
  1  7  1  0  0  0
  2  8  1  0  0  0
 17 15  2  0  0  0
 17 12  1  0  0  0
 10 12  1  0  0  0
 10 11  1  0  0  0
 15 16  1  0  0  0
  7  4  2  0  0  0
 12 13  2  0  0  0
 16 19  1  0  0  0
 16 14  2  0  0  0
 13 14  1  0  0  0
  8 11  1  0  0  0
  8  3  2  0  0  0
 19 18  1  0  0  0
 11  6  2  0  0  0
  4  3  1  0  0  0
M  END
> <minimizedAffinity>
-9.45500

$$$$
4ZO5_4Q0_B_803


 36 40  0  0  0  0  0  0  0  0999 V2000
   -6.7717   -3.0148   17.3391 C   0  0  0  0  0  0  0  0  0  0  0  0
   -7.9213   -2.4052   17.8081 C   0  0  0  0  0  0  0  0  0  0  0  0
   -8.4945   -1.7814   15.5486 C   0  0  0  0  0  0  0  0  0  0  0  0
   -7.3467   -2.3952   15.0870 C   0  0  0  0  0  0  0  0  0  0  0  0
   -8.1876   -2.4331   19.1788 N   0  0  0  0  0  0  0  0  0  0  0  0
  -10.7833   -0.6089   16.6091 O   0  0  0  0  0  0  0  0  0  0  0  0
   -6.4954   -3.0122   15.9820 C   0  0  0  0  0  0  0  0  0  0  0  0
   -8.7793   -1.7982   16.9043 C   0  0  0  0  0  0  0  0  0  0  0  0
   -9.2643   -1.8542   19.6133 C   0  0  0  0  0  0  0  0  0  0  0  0
  -10.1934   -1.2137   18.7930 N   0  0  0  0  0  0  0  0  0  0  0  0
  -10.0170   -1.1511   17.4075 C   0  0  0  0  0  0  0  0  0  0  0  0
  -11.2189   -0.3948   19.3080 C   0  0  0  0  0  0  0  0  0  0  0  0
  -10.9113    0.8849   19.7420 C   0  0  0  0  0  0  0  0  0  0  0  0
  -11.9023    1.6859   20.2836 C   0  0  0  0  0  0  0  0  0  0  0  0
  -13.4981   -0.0999   19.9779 C   0  0  0  0  0  0  0  0  0  0  0  0
  -13.1943    1.1834   20.4132 C   0  0  0  0  0  0  0  0  0  0  0  0
  -12.5112   -0.8937   19.4208 C   0  0  0  0  0  0  0  0  0  0  0  0
  -14.0624    2.1114   22.3545 C   0  0  0  0  0  0  0  0  0  0  0  0
  -14.2462    1.9217   20.9555 O   0  0  0  0  0  0  0  0  0  0  0  0
   -9.5231   -1.9260   21.0877 C   0  0  0  0  0  0  0  0  0  0  0  0
   -8.1473   -1.7740   21.7185 C   0  0  0  0  0  0  0  0  0  0  0  0
   -7.6704   -2.9662   22.3784 N   0  0  0  0  0  0  0  0  0  0  0  0
   -6.5051   -3.6113   22.0070 C   0  0  0  0  0  0  0  0  0  0  0  0
   -6.4161   -4.7098   22.9559 C   0  0  0  0  0  0  0  0  0  0  0  0
   -7.5086   -4.7005   23.7801 C   0  0  0  0  0  0  0  0  0  0  0  0
   -8.3525   -3.5596   23.4297 C   0  0  0  0  0  0  0  0  0  0  0  0
   -5.4330   -5.6717   23.0519 C   0  0  0  0  0  0  0  0  0  0  0  0
   -5.5912   -6.6238   24.0486 C   0  0  0  0  0  0  0  0  0  0  0  0
   -6.6873   -6.6082   24.8880 C   0  0  0  0  0  0  0  0  0  0  0  0
   -7.6837   -5.6456   24.7710 C   0  0  0  0  0  0  0  0  0  0  0  0
   -9.3886   -3.2316   24.0068 O   0  0  0  0  0  0  0  0  0  0  0  0
   -5.7225   -3.4215   21.0747 O   0  0  0  0  0  0  0  0  0  0  0  0
   -8.8439   -5.5920   25.5664 O   0  0  0  0  0  0  0  0  0  0  0  0
   -9.8974   -6.4819   25.1197 C   0  0  0  0  0  0  0  0  0  0  0  0
  -10.0538   -7.5957   26.1294 C   0  0  0  0  0  0  0  0  0  0  0  0
  -11.2494   -5.8056   24.9861 C   0  0  0  0  0  0  0  0  0  0  0  0
 35 34  1  0  0  0
 36 34  1  0  0  0
 34 33  1  0  0  0
 33 30  1  0  0  0
 30 29  2  0  0  0
 30 25  1  0  0  0
 29 28  1  0  0  0
 31 26  2  0  0  0
 25 26  1  0  0  0
 25 24  2  0  0  0
 28 27  2  0  0  0
 26 22  1  0  0  0
 24 27  1  0  0  0
 24 23  1  0  0  0
 22 23  1  0  0  0
 22 21  1  0  0  0
 23 32  2  0  0  0
 20 21  1  0  0  0
 20  9  1  0  0  0
  5  9  2  0  0  0
  5  2  1  0  0  0
  9 10  1  0  0  0
  1  2  2  0  0  0
  1  7  1  0  0  0
  2  8  1  0  0  0
 17 15  2  0  0  0
 17 12  1  0  0  0
 10 12  1  0  0  0
 10 11  1  0  0  0
 15 16  1  0  0  0
  7  4  2  0  0  0
 12 13  2  0  0  0
 16 19  1  0  0  0
 16 14  2  0  0  0
 13 14  1  0  0  0
  8 11  1  0  0  0
  8  3  2  0  0  0
 19 18  1  0  0  0
 11  6  2  0  0  0
  4  3  1  0  0  0
M  END
> <minimizedAffinity>
-9.39049

$$$$
4ZO5_4Q0_B_803


 36 40  0  0  0  0  0  0  0  0999 V2000
  -11.6395   -0.6093   21.2181 C   0  0  0  0  0  0  0  0  0  0  0  0
  -10.8345   -0.8983   20.1311 C   0  0  0  0  0  0  0  0  0  0  0  0
  -12.4418    0.1629   18.6774 C   0  0  0  0  0  0  0  0  0  0  0  0
  -13.2388    0.4514   19.7678 C   0  0  0  0  0  0  0  0  0  0  0  0
   -9.6290   -1.5702   20.3452 N   0  0  0  0  0  0  0  0  0  0  0  0
  -10.7289   -0.4555   16.5747 O   0  0  0  0  0  0  0  0  0  0  0  0
  -12.8321    0.0694   21.0308 C   0  0  0  0  0  0  0  0  0  0  0  0
  -11.2409   -0.5015   18.8667 C   0  0  0  0  0  0  0  0  0  0  0  0
   -8.8812   -1.8439   19.3210 C   0  0  0  0  0  0  0  0  0  0  0  0
   -9.1948   -1.4933   18.0075 N   0  0  0  0  0  0  0  0  0  0  0  0
  -10.3726   -0.8049   17.7016 C   0  0  0  0  0  0  0  0  0  0  0  0
   -8.4913   -2.0071   16.8992 C   0  0  0  0  0  0  0  0  0  0  0  0
   -8.8502   -3.2415   16.3812 C   0  0  0  0  0  0  0  0  0  0  0  0
   -8.1436   -3.7738   15.3161 C   0  0  0  0  0  0  0  0  0  0  0  0
   -6.7017   -1.8372   15.3183 C   0  0  0  0  0  0  0  0  0  0  0  0
   -7.0587   -3.0734   14.7956 C   0  0  0  0  0  0  0  0  0  0  0  0
   -7.4190   -1.2978   16.3714 C   0  0  0  0  0  0  0  0  0  0  0  0
   -4.9743   -3.8720   14.1623 C   0  0  0  0  0  0  0  0  0  0  0  0
   -6.2906   -3.5437   13.7304 O   0  0  0  0  0  0  0  0  0  0  0  0
   -7.5865   -2.5464   19.5970 C   0  0  0  0  0  0  0  0  0  0  0  0
   -7.2076   -2.0984   21.0004 C   0  0  0  0  0  0  0  0  0  0  0  0
   -6.7684   -3.1722   21.8596 N   0  0  0  0  0  0  0  0  0  0  0  0
   -7.6099   -3.8040   22.7568 C   0  0  0  0  0  0  0  0  0  0  0  0
   -6.7563   -4.8172   23.3566 C   0  0  0  0  0  0  0  0  0  0  0  0
   -5.4890   -4.7153   22.8499 C   0  0  0  0  0  0  0  0  0  0  0  0
   -5.4646   -3.6442   21.8557 C   0  0  0  0  0  0  0  0  0  0  0  0
   -7.0898   -5.7491   24.3164 C   0  0  0  0  0  0  0  0  0  0  0  0
   -6.0780   -6.6035   24.7303 C   0  0  0  0  0  0  0  0  0  0  0  0
   -4.8022   -6.5088   24.2111 C   0  0  0  0  0  0  0  0  0  0  0  0
   -4.4703   -5.5530   23.2576 C   0  0  0  0  0  0  0  0  0  0  0  0
   -4.4919   -3.3216   21.1746 O   0  0  0  0  0  0  0  0  0  0  0  0
   -8.7756   -3.5805   23.0869 O   0  0  0  0  0  0  0  0  0  0  0  0
   -3.1840   -5.3760   22.7139 O   0  0  0  0  0  0  0  0  0  0  0  0
   -2.2376   -4.7839   23.6386 C   0  0  0  0  0  0  0  0  0  0  0  0
   -2.4009   -5.4421   24.9894 C   0  0  0  0  0  0  0  0  0  0  0  0
   -0.7885   -4.9642   23.2251 C   0  0  0  0  0  0  0  0  0  0  0  0
 35 34  1  0  0  0
 36 34  1  0  0  0
 34 33  1  0  0  0
 33 30  1  0  0  0
 30 29  2  0  0  0
 30 25  1  0  0  0
 29 28  1  0  0  0
 31 26  2  0  0  0
 25 26  1  0  0  0
 25 24  2  0  0  0
 28 27  2  0  0  0
 26 22  1  0  0  0
 24 27  1  0  0  0
 24 23  1  0  0  0
 22 23  1  0  0  0
 22 21  1  0  0  0
 23 32  2  0  0  0
 20 21  1  0  0  0
 20  9  1  0  0  0
  5  9  2  0  0  0
  5  2  1  0  0  0
  9 10  1  0  0  0
  1  2  2  0  0  0
  1  7  1  0  0  0
  2  8  1  0  0  0
 17 15  2  0  0  0
 17 12  1  0  0  0
 10 12  1  0  0  0
 10 11  1  0  0  0
 15 16  1  0  0  0
  7  4  2  0  0  0
 12 13  2  0  0  0
 16 19  1  0  0  0
 16 14  2  0  0  0
 13 14  1  0  0  0
  8 11  1  0  0  0
  8  3  2  0  0  0
 19 18  1  0  0  0
 11  6  2  0  0  0
  4  3  1  0  0  0
M  END
> <minimizedAffinity>
-9.30536

$$$$
4ZO5_4Q0_B_803


 36 40  0  0  0  0  0  0  0  0999 V2000
   -9.3799   -0.1386   24.0984 C   0  0  0  0  0  0  0  0  0  0  0  0
   -8.9786   -1.4620   24.0768 C   0  0  0  0  0  0  0  0  0  0  0  0
   -9.9766   -1.7846   26.2500 C   0  0  0  0  0  0  0  0  0  0  0  0
  -10.3774   -0.4631   26.2632 C   0  0  0  0  0  0  0  0  0  0  0  0
   -8.2846   -1.9375   22.9620 N   0  0  0  0  0  0  0  0  0  0  0  0
   -9.1356   -4.4308   26.0810 O   0  0  0  0  0  0  0  0  0  0  0  0
  -10.0823    0.3504   25.1872 C   0  0  0  0  0  0  0  0  0  0  0  0
   -9.2882   -2.2781   25.1537 C   0  0  0  0  0  0  0  0  0  0  0  0
   -7.9054   -3.1782   22.9504 C   0  0  0  0  0  0  0  0  0  0  0  0
   -8.1619   -4.0842   23.9798 N   0  0  0  0  0  0  0  0  0  0  0  0
   -8.8642   -3.7004   25.1263 C   0  0  0  0  0  0  0  0  0  0  0  0
   -7.5384   -5.3467   24.0489 C   0  0  0  0  0  0  0  0  0  0  0  0
   -8.3163   -6.4917   23.9828 C   0  0  0  0  0  0  0  0  0  0  0  0
   -7.7200   -7.7370   24.0863 C   0  0  0  0  0  0  0  0  0  0  0  0
   -5.5689   -6.6732   24.3525 C   0  0  0  0  0  0  0  0  0  0  0  0
   -6.3447   -7.8232   24.2858 C   0  0  0  0  0  0  0  0  0  0  0  0
   -6.1631   -5.4295   24.2316 C   0  0  0  0  0  0  0  0  0  0  0  0
   -6.0310   -9.6975   25.6171 C   0  0  0  0  0  0  0  0  0  0  0  0
   -5.6691   -9.0374   24.4087 O   0  0  0  0  0  0  0  0  0  0  0  0
   -7.1827   -3.6533   21.7265 C   0  0  0  0  0  0  0  0  0  0  0  0
   -6.9636   -2.3914   20.9059 C   0  0  0  0  0  0  0  0  0  0  0  0
   -7.4251   -2.4922   19.5417 N   0  0  0  0  0  0  0  0  0  0  0  0
   -8.6326   -1.9667   19.1200 C   0  0  0  0  0  0  0  0  0  0  0  0
   -8.6490   -2.2704   17.6978 C   0  0  0  0  0  0  0  0  0  0  0  0
   -7.5255   -2.9756   17.3611 C   0  0  0  0  0  0  0  0  0  0  0  0
   -6.6944   -3.1336   18.5531 C   0  0  0  0  0  0  0  0  0  0  0  0
   -9.6242   -1.9595   16.7741 C   0  0  0  0  0  0  0  0  0  0  0  0
   -9.3996   -2.3765   15.4699 C   0  0  0  0  0  0  0  0  0  0  0  0
   -8.2608   -3.0779   15.1272 C   0  0  0  0  0  0  0  0  0  0  0  0
   -7.2920   -3.4039   16.0697 C   0  0  0  0  0  0  0  0  0  0  0  0
   -5.5911   -3.6772   18.5897 O   0  0  0  0  0  0  0  0  0  0  0  0
   -9.5559   -1.4322   19.7361 O   0  0  0  0  0  0  0  0  0  0  0  0
   -6.1277   -4.1471   15.7984 O   0  0  0  0  0  0  0  0  0  0  0  0
   -5.1526   -3.4306   15.0002 C   0  0  0  0  0  0  0  0  0  0  0  0
   -5.0023   -4.1328   13.6702 C   0  0  0  0  0  0  0  0  0  0  0  0
   -5.5440   -1.9941   14.7063 C   0  0  0  0  0  0  0  0  0  0  0  0
 35 34  1  0  0  0
 36 34  1  0  0  0
 34 33  1  0  0  0
 33 30  1  0  0  0
 30 29  2  0  0  0
 30 25  1  0  0  0
 29 28  1  0  0  0
 31 26  2  0  0  0
 25 26  1  0  0  0
 25 24  2  0  0  0
 28 27  2  0  0  0
 26 22  1  0  0  0
 24 27  1  0  0  0
 24 23  1  0  0  0
 22 23  1  0  0  0
 22 21  1  0  0  0
 23 32  2  0  0  0
 20 21  1  0  0  0
 20  9  1  0  0  0
  5  9  2  0  0  0
  5  2  1  0  0  0
  9 10  1  0  0  0
  1  2  2  0  0  0
  1  7  1  0  0  0
  2  8  1  0  0  0
 17 15  2  0  0  0
 17 12  1  0  0  0
 10 12  1  0  0  0
 10 11  1  0  0  0
 15 16  1  0  0  0
  7  4  2  0  0  0
 12 13  2  0  0  0
 16 19  1  0  0  0
 16 14  2  0  0  0
 13 14  1  0  0  0
  8 11  1  0  0  0
  8  3  2  0  0  0
 19 18  1  0  0  0
 11  6  2  0  0  0
  4  3  1  0  0  0
M  END
> <minimizedAffinity>
-8.86132

$$$$
4ZO5_4Q0_B_803


 36 40  0  0  0  0  0  0  0  0999 V2000
   -6.1402   -3.0973   17.4129 C   0  0  0  0  0  0  0  0  0  0  0  0
   -6.8765   -2.8886   18.5651 C   0  0  0  0  0  0  0  0  0  0  0  0
   -8.6525   -1.9338   17.2396 C   0  0  0  0  0  0  0  0  0  0  0  0
   -7.9133   -2.1485   16.0929 C   0  0  0  0  0  0  0  0  0  0  0  0
   -6.3333   -3.2778   19.7915 N   0  0  0  0  0  0  0  0  0  0  0  0
  -10.0449   -1.5854   19.6224 O   0  0  0  0  0  0  0  0  0  0  0  0
   -6.6656   -2.7328   16.1844 C   0  0  0  0  0  0  0  0  0  0  0  0
   -8.1338   -2.3135   18.4668 C   0  0  0  0  0  0  0  0  0  0  0  0
   -7.0260   -3.0738   20.8692 C   0  0  0  0  0  0  0  0  0  0  0  0
   -8.2984   -2.5016   20.8847 N   0  0  0  0  0  0  0  0  0  0  0  0
   -8.9267   -2.0972   19.7030 C   0  0  0  0  0  0  0  0  0  0  0  0
   -8.9217   -2.0760   22.0754 C   0  0  0  0  0  0  0  0  0  0  0  0
   -9.0771   -0.7193   22.3119 C   0  0  0  0  0  0  0  0  0  0  0  0
   -9.6545   -0.2874   23.4939 C   0  0  0  0  0  0  0  0  0  0  0  0
   -9.8880   -2.5825   24.2061 C   0  0  0  0  0  0  0  0  0  0  0  0
  -10.0465   -1.2240   24.4467 C   0  0  0  0  0  0  0  0  0  0  0  0
   -9.3268   -3.0142   23.0173 C   0  0  0  0  0  0  0  0  0  0  0  0
  -11.9972   -0.5257   25.4910 C   0  0  0  0  0  0  0  0  0  0  0  0
  -10.6271   -0.8715   25.6650 O   0  0  0  0  0  0  0  0  0  0  0  0
   -6.4158   -3.5255   22.1614 C   0  0  0  0  0  0  0  0  0  0  0  0
   -5.6277   -4.7721   21.7892 C   0  0  0  0  0  0  0  0  0  0  0  0
   -4.9457   -5.3882   22.9026 N   0  0  0  0  0  0  0  0  0  0  0  0
   -5.4657   -6.4670   23.5939 C   0  0  0  0  0  0  0  0  0  0  0  0
   -4.4361   -6.7585   24.5788 C   0  0  0  0  0  0  0  0  0  0  0  0
   -3.4182   -5.8503   24.4685 C   0  0  0  0  0  0  0  0  0  0  0  0
   -3.7204   -4.9363   23.3685 C   0  0  0  0  0  0  0  0  0  0  0  0
   -4.4293   -7.7558   25.5307 C   0  0  0  0  0  0  0  0  0  0  0  0
   -3.3205   -7.8123   26.3629 C   0  0  0  0  0  0  0  0  0  0  0  0
   -2.2880   -6.9034   26.2446 C   0  0  0  0  0  0  0  0  0  0  0  0
   -2.3126   -5.8889   25.2942 C   0  0  0  0  0  0  0  0  0  0  0  0
   -2.9902   -4.0298   22.9698 O   0  0  0  0  0  0  0  0  0  0  0  0
   -6.5498   -7.0471   23.5163 O   0  0  0  0  0  0  0  0  0  0  0  0
   -1.3145   -4.9079   25.1427 O   0  0  0  0  0  0  0  0  0  0  0  0
   -0.0340   -5.4407   24.7209 C   0  0  0  0  0  0  0  0  0  0  0  0
    0.2651   -4.9407   23.3262 C   0  0  0  0  0  0  0  0  0  0  0  0
    1.1232   -5.0164   25.6063 C   0  0  0  0  0  0  0  0  0  0  0  0
 35 34  1  0  0  0
 36 34  1  0  0  0
 34 33  1  0  0  0
 33 30  1  0  0  0
 30 29  2  0  0  0
 30 25  1  0  0  0
 29 28  1  0  0  0
 31 26  2  0  0  0
 25 26  1  0  0  0
 25 24  2  0  0  0
 28 27  2  0  0  0
 26 22  1  0  0  0
 24 27  1  0  0  0
 24 23  1  0  0  0
 22 23  1  0  0  0
 22 21  1  0  0  0
 23 32  2  0  0  0
 20 21  1  0  0  0
 20  9  1  0  0  0
  5  9  2  0  0  0
  5  2  1  0  0  0
  9 10  1  0  0  0
  1  2  2  0  0  0
  1  7  1  0  0  0
  2  8  1  0  0  0
 17 15  2  0  0  0
 17 12  1  0  0  0
 10 12  1  0  0  0
 10 11  1  0  0  0
 15 16  1  0  0  0
  7  4  2  0  0  0
 12 13  2  0  0  0
 16 19  1  0  0  0
 16 14  2  0  0  0
 13 14  1  0  0  0
  8 11  1  0  0  0
  8  3  2  0  0  0
 19 18  1  0  0  0
 11  6  2  0  0  0
  4  3  1  0  0  0
M  END
> <minimizedAffinity>
-8.80720

$$$$
4ZO5_4Q0_B_803


 36 40  0  0  0  0  0  0  0  0999 V2000
  -11.6187   -1.4836   25.1792 C   0  0  0  0  0  0  0  0  0  0  0  0
  -10.9270   -2.6804   25.1301 C   0  0  0  0  0  0  0  0  0  0  0  0
  -12.5602   -3.6677   26.6068 C   0  0  0  0  0  0  0  0  0  0  0  0
  -13.2478   -2.4707   26.6483 C   0  0  0  0  0  0  0  0  0  0  0  0
   -9.7692   -2.7580   24.3530 N   0  0  0  0  0  0  0  0  0  0  0  0
  -11.0952   -6.0244   26.4124 O   0  0  0  0  0  0  0  0  0  0  0  0
  -12.7776   -1.3883   25.9314 C   0  0  0  0  0  0  0  0  0  0  0  0
  -11.4100   -3.7678   25.8411 C   0  0  0  0  0  0  0  0  0  0  0  0
   -9.1214   -3.8815   24.3160 C   0  0  0  0  0  0  0  0  0  0  0  0
   -9.5169   -5.0351   24.9935 N   0  0  0  0  0  0  0  0  0  0  0  0
  -10.6715   -5.0542   25.7817 C   0  0  0  0  0  0  0  0  0  0  0  0
   -8.6761   -6.1587   25.1282 C   0  0  0  0  0  0  0  0  0  0  0  0
   -8.8167   -7.2202   24.2483 C   0  0  0  0  0  0  0  0  0  0  0  0
   -8.0221   -8.3449   24.3926 C   0  0  0  0  0  0  0  0  0  0  0  0
   -6.9716   -7.3424   26.3215 C   0  0  0  0  0  0  0  0  0  0  0  0
   -7.1086   -8.4080   25.4415 C   0  0  0  0  0  0  0  0  0  0  0  0
   -7.7538   -6.2116   26.1665 C   0  0  0  0  0  0  0  0  0  0  0  0
   -7.0116  -10.7231   25.5604 C   0  0  0  0  0  0  0  0  0  0  0  0
   -6.2782   -9.5070   25.6612 O   0  0  0  0  0  0  0  0  0  0  0  0
   -7.8967   -3.9281   23.4534 C   0  0  0  0  0  0  0  0  0  0  0  0
   -7.7607   -2.5113   22.9170 C   0  0  0  0  0  0  0  0  0  0  0  0
   -7.9547   -2.4039   21.4903 N   0  0  0  0  0  0  0  0  0  0  0  0
   -6.9969   -2.7970   20.5737 C   0  0  0  0  0  0  0  0  0  0  0  0
   -7.6378   -2.5429   19.2932 C   0  0  0  0  0  0  0  0  0  0  0  0
   -8.8725   -1.9878   19.4946 C   0  0  0  0  0  0  0  0  0  0  0  0
   -9.1147   -1.8882   20.9326 C   0  0  0  0  0  0  0  0  0  0  0  0
   -7.1319   -2.7680   18.0306 C   0  0  0  0  0  0  0  0  0  0  0  0
   -7.9503   -2.4261   16.9637 C   0  0  0  0  0  0  0  0  0  0  0  0
   -9.2006   -1.8767   17.1662 C   0  0  0  0  0  0  0  0  0  0  0  0
   -9.6947   -1.6353   18.4432 C   0  0  0  0  0  0  0  0  0  0  0  0
  -10.1492   -1.4781   21.4577 O   0  0  0  0  0  0  0  0  0  0  0  0
   -5.8401   -3.1967   20.7147 O   0  0  0  0  0  0  0  0  0  0  0  0
  -10.9419   -1.0450   18.7218 O   0  0  0  0  0  0  0  0  0  0  0  0
  -10.9566    0.3941   18.5479 C   0  0  0  0  0  0  0  0  0  0  0  0
  -11.8169    0.7305   17.3516 C   0  0  0  0  0  0  0  0  0  0  0  0
  -11.5288    1.1449   19.7362 C   0  0  0  0  0  0  0  0  0  0  0  0
 35 34  1  0  0  0
 36 34  1  0  0  0
 34 33  1  0  0  0
 33 30  1  0  0  0
 30 29  2  0  0  0
 30 25  1  0  0  0
 29 28  1  0  0  0
 31 26  2  0  0  0
 25 26  1  0  0  0
 25 24  2  0  0  0
 28 27  2  0  0  0
 26 22  1  0  0  0
 24 27  1  0  0  0
 24 23  1  0  0  0
 22 23  1  0  0  0
 22 21  1  0  0  0
 23 32  2  0  0  0
 20 21  1  0  0  0
 20  9  1  0  0  0
  5  9  2  0  0  0
  5  2  1  0  0  0
  9 10  1  0  0  0
  1  2  2  0  0  0
  1  7  1  0  0  0
  2  8  1  0  0  0
 17 15  2  0  0  0
 17 12  1  0  0  0
 10 12  1  0  0  0
 10 11  1  0  0  0
 15 16  1  0  0  0
  7  4  2  0  0  0
 12 13  2  0  0  0
 16 19  1  0  0  0
 16 14  2  0  0  0
 13 14  1  0  0  0
  8 11  1  0  0  0
  8  3  2  0  0  0
 19 18  1  0  0  0
 11  6  2  0  0  0
  4  3  1  0  0  0
M  END
> <minimizedAffinity>
-8.64355

$$$$
4ZO5_4Q0_B_803


 36 40  0  0  0  0  0  0  0  0999 V2000
   -7.9743   -2.1455   18.4562 C   0  0  0  0  0  0  0  0  0  0  0  0
   -7.3232   -2.7748   19.5016 C   0  0  0  0  0  0  0  0  0  0  0  0
   -5.8853   -3.8888   17.9159 C   0  0  0  0  0  0  0  0  0  0  0  0
   -6.5377   -3.2542   16.8772 C   0  0  0  0  0  0  0  0  0  0  0  0
   -7.7344   -2.5086   20.8095 N   0  0  0  0  0  0  0  0  0  0  0  0
   -4.6406   -5.0768   20.1017 O   0  0  0  0  0  0  0  0  0  0  0  0
   -7.5733   -2.3834   17.1521 C   0  0  0  0  0  0  0  0  0  0  0  0
   -6.2757   -3.6383   19.2214 C   0  0  0  0  0  0  0  0  0  0  0  0
   -7.1239   -3.1066   21.7855 C   0  0  0  0  0  0  0  0  0  0  0  0
   -6.0609   -3.9943   21.6163 N   0  0  0  0  0  0  0  0  0  0  0  0
   -5.5721   -4.3072   20.3443 C   0  0  0  0  0  0  0  0  0  0  0  0
   -5.5785   -4.8049   22.6640 C   0  0  0  0  0  0  0  0  0  0  0  0
   -4.2426   -4.7240   23.0239 C   0  0  0  0  0  0  0  0  0  0  0  0
   -3.7482   -5.5410   24.0265 C   0  0  0  0  0  0  0  0  0  0  0  0
   -5.9335   -6.5362   24.2786 C   0  0  0  0  0  0  0  0  0  0  0  0
   -4.5956   -6.4578   24.6429 C   0  0  0  0  0  0  0  0  0  0  0  0
   -6.4310   -5.7075   23.2886 C   0  0  0  0  0  0  0  0  0  0  0  0
   -4.2212   -8.6750   25.2149 C   0  0  0  0  0  0  0  0  0  0  0  0
   -4.1745   -7.3216   25.6540 O   0  0  0  0  0  0  0  0  0  0  0  0
   -7.5820   -2.7765   23.1737 C   0  0  0  0  0  0  0  0  0  0  0  0
   -9.0997   -2.8386   23.0932 C   0  0  0  0  0  0  0  0  0  0  0  0
   -9.7546   -1.5914   23.4097 N   0  0  0  0  0  0  0  0  0  0  0  0
   -9.9357   -1.1501   24.7076 C   0  0  0  0  0  0  0  0  0  0  0  0
  -10.5896    0.1371   24.5331 C   0  0  0  0  0  0  0  0  0  0  0  0
  -10.8047    0.3714   23.2019 C   0  0  0  0  0  0  0  0  0  0  0  0
  -10.2603   -0.7465   22.4335 C   0  0  0  0  0  0  0  0  0  0  0  0
  -10.9915    1.0248   25.5084 C   0  0  0  0  0  0  0  0  0  0  0  0
  -11.6072    2.1893   25.0726 C   0  0  0  0  0  0  0  0  0  0  0  0
  -11.8141    2.4316   23.7292 C   0  0  0  0  0  0  0  0  0  0  0  0
  -11.4228    1.5215   22.7536 C   0  0  0  0  0  0  0  0  0  0  0  0
  -10.2439   -0.8308   21.2060 O   0  0  0  0  0  0  0  0  0  0  0  0
   -9.7058   -1.6810   25.7953 O   0  0  0  0  0  0  0  0  0  0  0  0
  -11.6354    1.6865   21.3719 O   0  0  0  0  0  0  0  0  0  0  0  0
  -13.0341    1.7978   21.0075 C   0  0  0  0  0  0  0  0  0  0  0  0
  -13.1510    1.7323   19.5020 C   0  0  0  0  0  0  0  0  0  0  0  0
  -13.9004    0.6872   21.5725 C   0  0  0  0  0  0  0  0  0  0  0  0
 35 34  1  0  0  0
 36 34  1  0  0  0
 34 33  1  0  0  0
 33 30  1  0  0  0
 30 29  2  0  0  0
 30 25  1  0  0  0
 29 28  1  0  0  0
 31 26  2  0  0  0
 25 26  1  0  0  0
 25 24  2  0  0  0
 28 27  2  0  0  0
 26 22  1  0  0  0
 24 27  1  0  0  0
 24 23  1  0  0  0
 22 23  1  0  0  0
 22 21  1  0  0  0
 23 32  2  0  0  0
 20 21  1  0  0  0
 20  9  1  0  0  0
  5  9  2  0  0  0
  5  2  1  0  0  0
  9 10  1  0  0  0
  1  2  2  0  0  0
  1  7  1  0  0  0
  2  8  1  0  0  0
 17 15  2  0  0  0
 17 12  1  0  0  0
 10 12  1  0  0  0
 10 11  1  0  0  0
 15 16  1  0  0  0
  7  4  2  0  0  0
 12 13  2  0  0  0
 16 19  1  0  0  0
 16 14  2  0  0  0
 13 14  1  0  0  0
  8 11  1  0  0  0
  8  3  2  0  0  0
 19 18  1  0  0  0
 11  6  2  0  0  0
  4  3  1  0  0  0
M  END
> <minimizedAffinity>
-8.63623

$$$$
