3PGU_OLA_A_448


 14 13  0  0  0  0  0  0  0  0999 V2000
  -26.7695    5.7574  -16.9356 C   0  0  0  0  0  0  0  0  0  0  0  0
  -27.2938    7.0188  -16.9138 C   0  0  0  0  0  0  0  0  0  0  0  0
  -27.8124    7.5335  -15.6159 C   0  0  0  0  0  0  0  0  0  0  0  0
  -29.2573    7.3627  -15.2933 C   0  0  0  0  0  0  0  0  0  0  0  0
  -29.9051    6.3509  -15.6809 O   0  0  0  0  0  0  0  0  0  0  0  0
  -29.8259    8.2395  -14.6045 O   0  0  0  0  0  0  0  0  0  0  0  0
  -29.3474    8.9915  -14.3156 H   0  0  0  0  0  0  0  0  0  0  0  0
  -26.2277    5.1562  -15.6872 C   0  0  0  0  0  0  0  0  0  0  0  0
  -24.9169    4.4642  -15.7800 C   0  0  0  0  0  0  0  0  0  0  0  0
  -24.2893    4.4078  -17.1305 C   0  0  0  0  0  0  0  0  0  0  0  0
  -23.0628    5.2239  -17.3392 C   0  0  0  0  0  0  0  0  0  0  0  0
  -23.2331    6.6106  -17.8641 C   0  0  0  0  0  0  0  0  0  0  0  0
  -23.9930    6.8116  -18.9825 C   0  0  0  0  0  0  0  0  0  0  0  0
  -24.1597    8.1831  -19.5449 C   0  0  0  0  0  0  0  0  0  0  0  0
  4  5  2  0  0  0
  4  6  1  0  0  0
  4  3  1  0  0  0
  3  2  1  0  0  0
  2  1  1  0  0  0
  1  8  1  0  0  0
  8  9  1  0  0  0
  9 10  1  0  0  0
 10 11  1  0  0  0
 11 12  1  0  0  0
 12 13  2  0  0  0
 13 14  1  0  0  0
  6  7  1  0  0  0
M  END
> <minimizedAffinity>
-5.40396

$$$$
3PGU_OLA_A_448


 14 13  0  0  0  0  0  0  0  0999 V2000
  -22.6891    3.4676  -17.1375 C   0  0  0  0  0  0  0  0  0  0  0  0
  -22.9385    2.3915  -17.9415 C   0  0  0  0  0  0  0  0  0  0  0  0
  -23.5274    2.6495  -19.2850 C   0  0  0  0  0  0  0  0  0  0  0  0
  -24.9957    2.4820  -19.4774 C   0  0  0  0  0  0  0  0  0  0  0  0
  -25.8119    3.3876  -19.1497 O   0  0  0  0  0  0  0  0  0  0  0  0
  -25.4159    1.4231  -19.9955 O   0  0  0  0  0  0  0  0  0  0  0  0
  -24.8122    0.7493  -20.2397 H   0  0  0  0  0  0  0  0  0  0  0  0
  -23.7949    4.0831  -16.3555 C   0  0  0  0  0  0  0  0  0  0  0  0
  -24.2948    5.4054  -16.8111 C   0  0  0  0  0  0  0  0  0  0  0  0
  -25.4754    5.9551  -16.0866 C   0  0  0  0  0  0  0  0  0  0  0  0
  -26.8171    5.6483  -16.6520 C   0  0  0  0  0  0  0  0  0  0  0  0
  -28.0133    6.1280  -15.8995 C   0  0  0  0  0  0  0  0  0  0  0  0
  -28.4011    7.4328  -16.0252 C   0  0  0  0  0  0  0  0  0  0  0  0
  -29.5772    7.9469  -15.2651 C   0  0  0  0  0  0  0  0  0  0  0  0
  4  5  2  0  0  0
  4  6  1  0  0  0
  4  3  1  0  0  0
  3  2  1  0  0  0
  2  1  1  0  0  0
  1  8  1  0  0  0
  8  9  1  0  0  0
  9 10  1  0  0  0
 10 11  1  0  0  0
 11 12  1  0  0  0
 12 13  2  0  0  0
 13 14  1  0  0  0
  6  7  1  0  0  0
M  END
> <minimizedAffinity>
-5.35362

$$$$
3PGU_OLA_A_448


 14 13  0  0  0  0  0  0  0  0999 V2000
  -24.9801    8.6977  -18.2028 C   0  0  0  0  0  0  0  0  0  0  0  0
  -24.5581    8.7472  -19.5013 C   0  0  0  0  0  0  0  0  0  0  0  0
  -25.3432    9.5780  -20.4560 C   0  0  0  0  0  0  0  0  0  0  0  0
  -26.0675    8.9093  -21.5737 C   0  0  0  0  0  0  0  0  0  0  0  0
  -26.9411    8.0240  -21.3580 O   0  0  0  0  0  0  0  0  0  0  0  0
  -25.8095    9.2562  -22.7482 O   0  0  0  0  0  0  0  0  0  0  0  0
  -25.1615    9.9131  -22.9111 H   0  0  0  0  0  0  0  0  0  0  0  0
  -26.1841    7.9014  -17.8425 C   0  0  0  0  0  0  0  0  0  0  0  0
  -26.0254    6.4267  -17.7675 C   0  0  0  0  0  0  0  0  0  0  0  0
  -25.2459    5.9001  -16.6117 C   0  0  0  0  0  0  0  0  0  0  0  0
  -24.0613    5.0559  -16.9251 C   0  0  0  0  0  0  0  0  0  0  0  0
  -22.7904    5.7503  -17.2853 C   0  0  0  0  0  0  0  0  0  0  0  0
  -22.4448    5.8677  -18.6027 C   0  0  0  0  0  0  0  0  0  0  0  0
  -21.1678    6.5337  -18.9913 C   0  0  0  0  0  0  0  0  0  0  0  0
  4  5  2  0  0  0
  4  6  1  0  0  0
  4  3  1  0  0  0
  3  2  1  0  0  0
  2  1  1  0  0  0
  1  8  1  0  0  0
  8  9  1  0  0  0
  9 10  1  0  0  0
 10 11  1  0  0  0
 11 12  1  0  0  0
 12 13  2  0  0  0
 13 14  1  0  0  0
  6  7  1  0  0  0
M  END
> <minimizedAffinity>
-5.32609

$$$$
3PGU_OLA_A_448


 14 13  0  0  0  0  0  0  0  0999 V2000
  -22.9062    3.3418  -17.0739 C   0  0  0  0  0  0  0  0  0  0  0  0
  -22.8420    2.3404  -18.0011 C   0  0  0  0  0  0  0  0  0  0  0  0
  -23.4901    2.5735  -19.3217 C   0  0  0  0  0  0  0  0  0  0  0  0
  -24.9777    2.6080  -19.4034 C   0  0  0  0  0  0  0  0  0  0  0  0
  -25.6355    3.6218  -19.0387 O   0  0  0  0  0  0  0  0  0  0  0  0
  -25.5763    1.6105  -19.8649 O   0  0  0  0  0  0  0  0  0  0  0  0
  -25.0905    0.8567  -20.1363 H   0  0  0  0  0  0  0  0  0  0  0  0
  -21.7896    4.3178  -16.9557 C   0  0  0  0  0  0  0  0  0  0  0  0
  -21.9151    5.5884  -17.7143 C   0  0  0  0  0  0  0  0  0  0  0  0
  -23.2999    6.0411  -18.0280 C   0  0  0  0  0  0  0  0  0  0  0  0
  -24.0169    6.8025  -16.9696 C   0  0  0  0  0  0  0  0  0  0  0  0
  -25.4508    6.4686  -16.7254 C   0  0  0  0  0  0  0  0  0  0  0  0
  -25.7611    5.3613  -15.9863 C   0  0  0  0  0  0  0  0  0  0  0  0
  -27.1856    4.9883  -15.7477 C   0  0  0  0  0  0  0  0  0  0  0  0
  4  5  2  0  0  0
  4  6  1  0  0  0
  4  3  1  0  0  0
  3  2  1  0  0  0
  2  1  1  0  0  0
  1  8  1  0  0  0
  8  9  1  0  0  0
  9 10  1  0  0  0
 10 11  1  0  0  0
 11 12  1  0  0  0
 12 13  2  0  0  0
 13 14  1  0  0  0
  6  7  1  0  0  0
M  END
> <minimizedAffinity>
-5.32171

$$$$
3PGU_OLA_A_448


 14 13  0  0  0  0  0  0  0  0999 V2000
  -24.2616    4.2542  -16.0747 C   0  0  0  0  0  0  0  0  0  0  0  0
  -25.4375    4.8063  -16.4978 C   0  0  0  0  0  0  0  0  0  0  0  0
  -26.0671    5.8454  -15.6363 C   0  0  0  0  0  0  0  0  0  0  0  0
  -27.5239    5.7532  -15.3360 C   0  0  0  0  0  0  0  0  0  0  0  0
  -27.9765    5.9929  -14.1822 O   0  0  0  0  0  0  0  0  0  0  0  0
  -28.3092    5.4501  -16.2622 O   0  0  0  0  0  0  0  0  0  0  0  0
  -27.9759    5.2717  -17.1195 H   0  0  0  0  0  0  0  0  0  0  0  0
  -23.1922    3.9383  -17.0595 C   0  0  0  0  0  0  0  0  0  0  0  0
  -21.9471    4.7450  -16.9921 C   0  0  0  0  0  0  0  0  0  0  0  0
  -21.7745    5.7897  -18.0408 C   0  0  0  0  0  0  0  0  0  0  0  0
  -22.8314    5.8794  -19.0843 C   0  0  0  0  0  0  0  0  0  0  0  0
  -23.4295    7.2202  -19.3524 C   0  0  0  0  0  0  0  0  0  0  0  0
  -24.3361    7.7348  -18.4681 C   0  0  0  0  0  0  0  0  0  0  0  0
  -24.9699    9.0610  -18.7233 C   0  0  0  0  0  0  0  0  0  0  0  0
  4  5  2  0  0  0
  4  6  1  0  0  0
  4  3  1  0  0  0
  3  2  1  0  0  0
  2  1  1  0  0  0
  1  8  1  0  0  0
  8  9  1  0  0  0
  9 10  1  0  0  0
 10 11  1  0  0  0
 11 12  1  0  0  0
 12 13  2  0  0  0
 13 14  1  0  0  0
  6  7  1  0  0  0
M  END
> <minimizedAffinity>
-5.25615

$$$$
3PGU_OLA_A_448


 14 13  0  0  0  0  0  0  0  0999 V2000
  -23.5442    5.0148  -16.9016 C   0  0  0  0  0  0  0  0  0  0  0  0
  -23.3304    4.5861  -18.1810 C   0  0  0  0  0  0  0  0  0  0  0  0
  -23.9010    5.3991  -19.2909 C   0  0  0  0  0  0  0  0  0  0  0  0
  -25.2085    5.0000  -19.8841 C   0  0  0  0  0  0  0  0  0  0  0  0
  -25.7936    5.7220  -20.7386 O   0  0  0  0  0  0  0  0  0  0  0  0
  -25.7188    3.9121  -19.5344 O   0  0  0  0  0  0  0  0  0  0  0  0
  -25.2866    3.3743  -18.9004 H   0  0  0  0  0  0  0  0  0  0  0  0
  -24.5562    4.3344  -16.0493 C   0  0  0  0  0  0  0  0  0  0  0  0
  -25.8630    5.0169  -15.8705 C   0  0  0  0  0  0  0  0  0  0  0  0
  -25.8367    6.5068  -15.8452 C   0  0  0  0  0  0  0  0  0  0  0  0
  -26.8339    7.2138  -16.6935 C   0  0  0  0  0  0  0  0  0  0  0  0
  -26.3441    7.8639  -17.9444 C   0  0  0  0  0  0  0  0  0  0  0  0
  -25.2046    8.6177  -17.9021 C   0  0  0  0  0  0  0  0  0  0  0  0
  -24.7055    9.3005  -19.1309 C   0  0  0  0  0  0  0  0  0  0  0  0
  4  5  2  0  0  0
  4  6  1  0  0  0
  4  3  1  0  0  0
  3  2  1  0  0  0
  2  1  1  0  0  0
  1  8  1  0  0  0
  8  9  1  0  0  0
  9 10  1  0  0  0
 10 11  1  0  0  0
 11 12  1  0  0  0
 12 13  2  0  0  0
 13 14  1  0  0  0
  6  7  1  0  0  0
M  END
> <minimizedAffinity>
-5.23963

$$$$
3PGU_OLA_A_448


 14 13  0  0  0  0  0  0  0  0999 V2000
  -22.8580    5.4136  -17.4928 C   0  0  0  0  0  0  0  0  0  0  0  0
  -23.6494    4.3012  -17.4397 C   0  0  0  0  0  0  0  0  0  0  0  0
  -23.9016    3.5664  -18.7104 C   0  0  0  0  0  0  0  0  0  0  0  0
  -25.2657    3.6007  -19.3095 C   0  0  0  0  0  0  0  0  0  0  0  0
  -25.7838    4.6800  -19.7098 O   0  0  0  0  0  0  0  0  0  0  0  0
  -25.8944    2.5255  -19.4318 O   0  0  0  0  0  0  0  0  0  0  0  0
  -25.5121    1.7230  -19.1355 H   0  0  0  0  0  0  0  0  0  0  0  0
  -23.4290    6.7108  -17.9452 C   0  0  0  0  0  0  0  0  0  0  0  0
  -24.7156    7.1354  -17.3370 C   0  0  0  0  0  0  0  0  0  0  0  0
  -25.4992    8.1581  -18.0860 C   0  0  0  0  0  0  0  0  0  0  0  0
  -24.7345    9.2755  -18.7029 C   0  0  0  0  0  0  0  0  0  0  0  0
  -24.9315    9.5295  -20.1603 C   0  0  0  0  0  0  0  0  0  0  0  0
  -26.0203    8.9935  -20.7894 C   0  0  0  0  0  0  0  0  0  0  0  0
  -26.2292    9.2089  -22.2507 C   0  0  0  0  0  0  0  0  0  0  0  0
  4  5  2  0  0  0
  4  6  1  0  0  0
  4  3  1  0  0  0
  3  2  1  0  0  0
  2  1  1  0  0  0
  1  8  1  0  0  0
  8  9  1  0  0  0
  9 10  1  0  0  0
 10 11  1  0  0  0
 11 12  1  0  0  0
 12 13  2  0  0  0
 13 14  1  0  0  0
  6  7  1  0  0  0
M  END
> <minimizedAffinity>
-5.23433

$$$$
3PGU_OLA_A_448


 14 13  0  0  0  0  0  0  0  0999 V2000
  -25.5545    8.8659  -21.7223 C   0  0  0  0  0  0  0  0  0  0  0  0
  -26.7366    9.3069  -22.2464 C   0  0  0  0  0  0  0  0  0  0  0  0
  -27.9938    8.6851  -21.7453 C   0  0  0  0  0  0  0  0  0  0  0  0
  -29.2134    8.7245  -22.6009 C   0  0  0  0  0  0  0  0  0  0  0  0
  -29.2285    8.2083  -23.7528 O   0  0  0  0  0  0  0  0  0  0  0  0
  -30.2465    9.2669  -22.1482 O   0  0  0  0  0  0  0  0  0  0  0  0
  -30.2379    9.6509  -21.2936 H   0  0  0  0  0  0  0  0  0  0  0  0
  -25.0481    9.4381  -20.4458 C   0  0  0  0  0  0  0  0  0  0  0  0
  -24.4667    8.4911  -19.4604 C   0  0  0  0  0  0  0  0  0  0  0  0
  -25.2282    7.2331  -19.2185 C   0  0  0  0  0  0  0  0  0  0  0  0
  -26.5522    7.3632  -18.5523 C   0  0  0  0  0  0  0  0  0  0  0  0
  -26.8133    6.5112  -17.3552 C   0  0  0  0  0  0  0  0  0  0  0  0
  -25.8058    6.2974  -16.4563 C   0  0  0  0  0  0  0  0  0  0  0  0
  -26.0299    5.4292  -15.2641 C   0  0  0  0  0  0  0  0  0  0  0  0
  4  5  2  0  0  0
  4  6  1  0  0  0
  4  3  1  0  0  0
  3  2  1  0  0  0
  2  1  1  0  0  0
  1  8  1  0  0  0
  8  9  1  0  0  0
  9 10  1  0  0  0
 10 11  1  0  0  0
 11 12  1  0  0  0
 12 13  2  0  0  0
 13 14  1  0  0  0
  6  7  1  0  0  0
M  END
> <minimizedAffinity>
-5.22182

$$$$
3PGU_OLA_A_448


 14 13  0  0  0  0  0  0  0  0999 V2000
  -24.5045    7.7109  -19.9311 C   0  0  0  0  0  0  0  0  0  0  0  0
  -24.5890    8.9616  -20.4745 C   0  0  0  0  0  0  0  0  0  0  0  0
  -25.9451    9.4969  -20.7790 C   0  0  0  0  0  0  0  0  0  0  0  0
  -26.5978    9.1283  -22.0670 C   0  0  0  0  0  0  0  0  0  0  0  0
  -26.4455    9.8264  -23.1077 O   0  0  0  0  0  0  0  0  0  0  0  0
  -27.2943    8.0893  -22.1108 O   0  0  0  0  0  0  0  0  0  0  0  0
  -27.4089    7.5693  -21.3398 H   0  0  0  0  0  0  0  0  0  0  0  0
  -24.1671    7.5475  -18.4914 C   0  0  0  0  0  0  0  0  0  0  0  0
  -25.2470    7.8112  -17.5066 C   0  0  0  0  0  0  0  0  0  0  0  0
  -25.3553    6.8563  -16.3675 C   0  0  0  0  0  0  0  0  0  0  0  0
  -25.5610    5.4222  -16.7065 C   0  0  0  0  0  0  0  0  0  0  0  0
  -24.4673    4.4653  -16.3668 C   0  0  0  0  0  0  0  0  0  0  0  0
  -23.7138    3.9291  -17.3734 C   0  0  0  0  0  0  0  0  0  0  0  0
  -22.6310    2.9502  -17.0661 C   0  0  0  0  0  0  0  0  0  0  0  0
  4  5  2  0  0  0
  4  6  1  0  0  0
  4  3  1  0  0  0
  3  2  1  0  0  0
  2  1  1  0  0  0
  1  8  1  0  0  0
  8  9  1  0  0  0
  9 10  1  0  0  0
 10 11  1  0  0  0
 11 12  1  0  0  0
 12 13  2  0  0  0
 13 14  1  0  0  0
  6  7  1  0  0  0
M  END
> <minimizedAffinity>
-5.21787

$$$$
3PGU_OLA_A_448


 14 13  0  0  0  0  0  0  0  0999 V2000
  -25.5023    8.7673  -21.6903 C   0  0  0  0  0  0  0  0  0  0  0  0
  -26.6334    9.3389  -22.2008 C   0  0  0  0  0  0  0  0  0  0  0  0
  -27.9442    8.7357  -21.8319 C   0  0  0  0  0  0  0  0  0  0  0  0
  -29.0428    8.7168  -22.8387 C   0  0  0  0  0  0  0  0  0  0  0  0
  -30.0053    9.5315  -22.7807 O   0  0  0  0  0  0  0  0  0  0  0  0
  -28.9885    7.8827  -23.7702 O   0  0  0  0  0  0  0  0  0  0  0  0
  -28.2752    7.2769  -23.8156 H   0  0  0  0  0  0  0  0  0  0  0  0
  -24.8923    9.3093  -20.4463 C   0  0  0  0  0  0  0  0  0  0  0  0
  -25.4285    8.8111  -19.1541 C   0  0  0  0  0  0  0  0  0  0  0  0
  -24.4858    8.0378  -18.2972 C   0  0  0  0  0  0  0  0  0  0  0  0
  -23.5324    7.1305  -18.9914 C   0  0  0  0  0  0  0  0  0  0  0  0
  -22.9904    5.9729  -18.2210 C   0  0  0  0  0  0  0  0  0  0  0  0
  -23.8087    5.3101  -17.3494 C   0  0  0  0  0  0  0  0  0  0  0  0
  -23.2873    4.1659  -16.5468 C   0  0  0  0  0  0  0  0  0  0  0  0
  4  5  2  0  0  0
  4  6  1  0  0  0
  4  3  1  0  0  0
  3  2  1  0  0  0
  2  1  1  0  0  0
  1  8  1  0  0  0
  8  9  1  0  0  0
  9 10  1  0  0  0
 10 11  1  0  0  0
 11 12  1  0  0  0
 12 13  2  0  0  0
 13 14  1  0  0  0
  6  7  1  0  0  0
M  END
> <minimizedAffinity>
-5.21096

$$$$
