1SH9_RIT_B_301


 54 57  0  0  0  0  0  0  0  0999 V2000
   18.7364    1.8506   10.4448 C   0  0  0  0  0  0  0  0  0  0  0  0
   19.1833    1.2228   11.6900 N   0  0  0  0  0  0  0  0  0  0  0  0
   18.3909    0.9018   12.7368 C   0  0  0  0  0  0  0  0  0  0  0  0
   17.1589    1.1090   12.7551 O   0  0  0  0  0  0  0  0  0  0  0  0
   20.1426    1.0169   11.7715 H   0  0  0  0  0  0  0  0  0  0  0  0
   19.1574    0.2709   13.9160 C   0  0  0  0  0  0  0  0  0  0  0  0
   18.5324    0.6518   15.1990 N   0  0  0  0  0  0  0  0  0  0  0  0
   18.7562    1.8693   15.7782 C   0  0  0  0  0  0  0  0  0  0  0  0
   18.0181    2.0977   16.9247 N   0  0  0  0  0  0  0  0  0  0  0  0
   19.5760    2.6846   15.2812 O   0  0  0  0  0  0  0  0  0  0  0  0
   17.1322    1.2976   17.5267 C   0  0  0  0  0  0  0  0  0  0  0  0
   17.9375    0.0100   15.6500 H   0  0  0  0  0  0  0  0  0  0  0  0
   18.1540    3.3710   17.6674 C   0  0  0  0  0  0  0  0  0  0  0  0
   17.1177    4.4060   17.4781 C   0  0  0  0  0  0  0  0  0  0  0  0
   16.2076    4.5767   18.4838 C   0  0  0  0  0  0  0  0  0  0  0  0
   15.1193    5.8810   17.9467 S   0  0  0  0  0  0  0  0  0  0  0  0
   16.0415    6.0162   16.4412 C   0  0  0  0  0  0  0  0  0  0  0  0
   17.0292    5.1570   16.4158 N   0  0  0  0  0  0  0  0  0  0  0  0
   15.4605    7.0273   15.6687 C   0  0  0  0  0  0  0  0  0  0  0  0
   14.8587    8.3684   16.0862 C   0  0  0  0  0  0  0  0  0  0  0  0
   14.4088    6.4314   14.8200 C   0  0  0  0  0  0  0  0  0  0  0  0
   19.2656   -1.3012   13.8873 C   0  0  0  0  0  0  0  0  0  0  0  0
   18.6169   -2.0423   15.0873 C   0  0  0  0  0  0  0  0  0  0  0  0
   18.6785   -1.8663   12.5673 C   0  0  0  0  0  0  0  0  0  0  0  0
   19.4415    3.1822   10.2907 C   0  0  0  0  0  0  0  0  0  0  0  0
   18.8568    4.1423   11.2145 C   0  0  0  0  0  0  0  0  0  0  0  0
   17.4554    4.3971   11.0868 C   0  0  0  0  0  0  0  0  0  0  0  0
   16.8065    5.3308   11.9531 C   0  0  0  0  0  0  0  0  0  0  0  0
   17.5758    5.9945   12.9400 C   0  0  0  0  0  0  0  0  0  0  0  0
   18.9611    5.7414   13.0700 C   0  0  0  0  0  0  0  0  0  0  0  0
   19.6112    4.8169   12.2118 C   0  0  0  0  0  0  0  0  0  0  0  0
   19.1331    1.0549    9.1725 C   0  0  0  0  0  0  0  0  0  0  0  0
   19.2660   -0.4528    9.1671 C   0  0  0  0  0  0  0  0  0  0  0  0
   20.5788   -0.7952    9.5558 O   0  0  0  0  0  0  0  0  0  0  0  0
   21.2098   -0.4437    8.9083 H   0  0  0  0  0  0  0  0  0  0  0  0
   19.0557   -1.1130    7.7914 C   0  0  0  0  0  0  0  0  0  0  0  0
   19.3134   -3.4414    6.8725 C   0  0  0  0  0  0  0  0  0  0  0  0
   19.8323   -3.1282    5.7922 O   0  0  0  0  0  0  0  0  0  0  0  0
   18.9202   -2.5807    7.8521 N   0  0  0  0  0  0  0  0  0  0  0  0
   18.5149   -2.9673    8.6617 H   0  0  0  0  0  0  0  0  0  0  0  0
   19.0546   -4.7553    7.2425 O   0  0  0  0  0  0  0  0  0  0  0  0
   19.7594   -5.4895    8.2161 C   0  0  0  0  0  0  0  0  0  0  0  0
   19.2481   -5.1163   10.7467 C   0  0  0  0  0  0  0  0  0  0  0  0
   19.0295   -5.4156    9.4338 C   0  0  0  0  0  0  0  0  0  0  0  0
   17.3603   -5.8532    9.0068 S   0  0  0  0  0  0  0  0  0  0  0  0
   17.2217   -5.5496   10.7502 C   0  0  0  0  0  0  0  0  0  0  0  0
   18.2108   -5.1961   11.4896 N   0  0  0  0  0  0  0  0  0  0  0  0
   17.9039   -0.4074    7.0264 C   0  0  0  0  0  0  0  0  0  0  0  0
   18.0358   -0.0939    5.6194 C   0  0  0  0  0  0  0  0  0  0  0  0
   18.6922    1.1605    5.4693 C   0  0  0  0  0  0  0  0  0  0  0  0
   18.9241    1.6453    4.1459 C   0  0  0  0  0  0  0  0  0  0  0  0
   18.5181    0.9064    2.9893 C   0  0  0  0  0  0  0  0  0  0  0  0
   17.8582   -0.3551    3.1649 C   0  0  0  0  0  0  0  0  0  0  0  0
   17.6170   -0.8557    4.4738 C   0  0  0  0  0  0  0  0  0  0  0  0
 43 44  2  0  0  0
 43 47  1  0  0  0
 44 45  1  0  0  0
 44 42  1  0  0  0
 45 46  1  0  0  0
 46 47  2  0  0  0
 42 41  1  0  0  0
 41 37  1  0  0  0
 37 39  1  0  0  0
 37 38  2  0  0  0
 39 36  1  0  0  0
 36 33  1  0  0  0
 36 48  1  0  0  0
 33 32  1  0  0  0
 33 34  1  0  0  0
 32  1  1  0  0  0
  1 25  1  0  0  0
  1  2  1  0  0  0
  3  6  1  0  0  0
  3  2  1  0  0  0
  3  4  2  0  0  0
  6  7  1  0  0  0
  6 22  1  0  0  0
  7  8  1  0  0  0
  8  9  1  0  0  0
  8 10  2  0  0  0
 48 49  1  0  0  0
 49 50  2  0  0  0
 49 54  1  0  0  0
 50 51  1  0  0  0
 51 52  2  0  0  0
 52 53  1  0  0  0
 53 54  2  0  0  0
 25 26  1  0  0  0
 26 27  2  0  0  0
 26 31  1  0  0  0
 27 28  1  0  0  0
 28 29  2  0  0  0
 29 30  1  0  0  0
 30 31  2  0  0  0
 22 23  1  0  0  0
 22 24  1  0  0  0
  9 13  1  0  0  0
  9 11  1  0  0  0
 13 14  1  0  0  0
 14 15  2  0  0  0
 14 18  1  0  0  0
 15 16  1  0  0  0
 16 17  1  0  0  0
 17 18  2  0  0  0
 17 19  1  0  0  0
 19 20  1  0  0  0
 19 21  1  0  0  0
 39 40  1  0  0  0
 34 35  1  0  0  0
  2  5  1  0  0  0
  7 12  1  0  0  0
M  END
> <minimizedAffinity>
-9.15899

$$$$
1SH9_RIT_B_301


 54 57  0  0  0  0  0  0  0  0999 V2000
   18.5261   -2.0487    8.1887 C   0  0  0  0  0  0  0  0  0  0  0  0
   18.7940   -1.6548    6.8040 N   0  0  0  0  0  0  0  0  0  0  0  0
   17.9969   -0.8748    6.0405 C   0  0  0  0  0  0  0  0  0  0  0  0
   16.9184   -0.3905    6.4446 O   0  0  0  0  0  0  0  0  0  0  0  0
   19.6255   -1.9865    6.3943 H   0  0  0  0  0  0  0  0  0  0  0  0
   18.5381   -0.6543    4.6142 C   0  0  0  0  0  0  0  0  0  0  0  0
   17.9701   -1.6547    3.6876 N   0  0  0  0  0  0  0  0  0  0  0  0
   18.4331   -2.9396    3.6395 C   0  0  0  0  0  0  0  0  0  0  0  0
   17.7259   -3.7671    2.7870 N   0  0  0  0  0  0  0  0  0  0  0  0
   19.4248   -3.2992    4.3257 O   0  0  0  0  0  0  0  0  0  0  0  0
   16.6697   -3.4780    2.0201 C   0  0  0  0  0  0  0  0  0  0  0  0
   17.2367   -1.3881    3.0874 H   0  0  0  0  0  0  0  0  0  0  0  0
   18.1101   -5.1875    2.6248 C   0  0  0  0  0  0  0  0  0  0  0  0
   17.5511   -6.1762    3.5686 C   0  0  0  0  0  0  0  0  0  0  0  0
   17.2642   -7.4204    3.0801 C   0  0  0  0  0  0  0  0  0  0  0  0
   16.6198   -8.3525    4.4548 S   0  0  0  0  0  0  0  0  0  0  0  0
   16.8263   -6.9366    5.4980 C   0  0  0  0  0  0  0  0  0  0  0  0
   17.3224   -5.9270    4.8280 N   0  0  0  0  0  0  0  0  0  0  0  0
   16.4008   -7.2830    6.7847 C   0  0  0  0  0  0  0  0  0  0  0  0
   17.1950   -7.4353    8.0812 C   0  0  0  0  0  0  0  0  0  0  0  0
   15.6303   -8.5407    6.7075 C   0  0  0  0  0  0  0  0  0  0  0  0
   18.2649    0.7717    4.0011 C   0  0  0  0  0  0  0  0  0  0  0  0
   19.1633    1.9183    4.5381 C   0  0  0  0  0  0  0  0  0  0  0  0
   18.3683    0.7313    2.4538 C   0  0  0  0  0  0  0  0  0  0  0  0
   19.2152   -3.3697    8.4611 C   0  0  0  0  0  0  0  0  0  0  0  0
   18.5300   -4.0506    9.5493 C   0  0  0  0  0  0  0  0  0  0  0  0
   17.1012   -3.9902    9.5567 C   0  0  0  0  0  0  0  0  0  0  0  0
   16.3541   -4.6291   10.5945 C   0  0  0  0  0  0  0  0  0  0  0  0
   17.0544   -5.3240   11.6109 C   0  0  0  0  0  0  0  0  0  0  0  0
   18.4673   -5.3875   11.6033 C   0  0  0  0  0  0  0  0  0  0  0  0
   19.2145   -4.7539   10.5767 C   0  0  0  0  0  0  0  0  0  0  0  0
   19.1292   -1.0760    9.2373 C   0  0  0  0  0  0  0  0  0  0  0  0
   18.7041    0.3732    9.3385 C   0  0  0  0  0  0  0  0  0  0  0  0
   19.6396    1.1710    8.6457 O   0  0  0  0  0  0  0  0  0  0  0  0
   20.5088    1.0911    9.0687 H   0  0  0  0  0  0  0  0  0  0  0  0
   18.6630    0.9337   10.7726 C   0  0  0  0  0  0  0  0  0  0  0  0
   19.4671    3.3173   10.8367 C   0  0  0  0  0  0  0  0  0  0  0  0
   20.6813    3.0754   10.7960 O   0  0  0  0  0  0  0  0  0  0  0  0
   18.4655    2.3943   10.8334 N   0  0  0  0  0  0  0  0  0  0  0  0
   17.5399    2.7271   10.8748 H   0  0  0  0  0  0  0  0  0  0  0  0
   18.9466    4.6041   10.8924 O   0  0  0  0  0  0  0  0  0  0  0  0
   18.0440    5.0850   11.8609 C   0  0  0  0  0  0  0  0  0  0  0  0
   19.7909    6.0054   13.5656 C   0  0  0  0  0  0  0  0  0  0  0  0
   18.7585    5.2589   13.0775 C   0  0  0  0  0  0  0  0  0  0  0  0
   18.0027    4.1356   14.2295 S   0  0  0  0  0  0  0  0  0  0  0  0
   19.2619    4.8883   15.2289 C   0  0  0  0  0  0  0  0  0  0  0  0
   20.0706    5.7863   14.7936 N   0  0  0  0  0  0  0  0  0  0  0  0
   17.6562    0.1277   11.6367 C   0  0  0  0  0  0  0  0  0  0  0  0
   18.0612   -0.4398   12.9052 C   0  0  0  0  0  0  0  0  0  0  0  0
   18.5494   -1.7618   12.7028 C   0  0  0  0  0  0  0  0  0  0  0  0
   19.0073   -2.4925   13.8415 C   0  0  0  0  0  0  0  0  0  0  0  0
   18.9866   -1.9302   15.1576 C   0  0  0  0  0  0  0  0  0  0  0  0
   18.4902   -0.5964   15.3375 C   0  0  0  0  0  0  0  0  0  0  0  0
   18.0290    0.1481   14.2173 C   0  0  0  0  0  0  0  0  0  0  0  0
 43 44  2  0  0  0
 43 47  1  0  0  0
 44 45  1  0  0  0
 44 42  1  0  0  0
 45 46  1  0  0  0
 46 47  2  0  0  0
 42 41  1  0  0  0
 41 37  1  0  0  0
 37 39  1  0  0  0
 37 38  2  0  0  0
 39 36  1  0  0  0
 36 33  1  0  0  0
 36 48  1  0  0  0
 33 32  1  0  0  0
 33 34  1  0  0  0
 32  1  1  0  0  0
  1 25  1  0  0  0
  1  2  1  0  0  0
  3  6  1  0  0  0
  3  2  1  0  0  0
  3  4  2  0  0  0
  6  7  1  0  0  0
  6 22  1  0  0  0
  7  8  1  0  0  0
  8  9  1  0  0  0
  8 10  2  0  0  0
 48 49  1  0  0  0
 49 50  2  0  0  0
 49 54  1  0  0  0
 50 51  1  0  0  0
 51 52  2  0  0  0
 52 53  1  0  0  0
 53 54  2  0  0  0
 25 26  1  0  0  0
 26 27  2  0  0  0
 26 31  1  0  0  0
 27 28  1  0  0  0
 28 29  2  0  0  0
 29 30  1  0  0  0
 30 31  2  0  0  0
 22 23  1  0  0  0
 22 24  1  0  0  0
  9 13  1  0  0  0
  9 11  1  0  0  0
 13 14  1  0  0  0
 14 15  2  0  0  0
 14 18  1  0  0  0
 15 16  1  0  0  0
 16 17  1  0  0  0
 17 18  2  0  0  0
 17 19  1  0  0  0
 19 20  1  0  0  0
 19 21  1  0  0  0
 39 40  1  0  0  0
 34 35  1  0  0  0
  2  5  1  0  0  0
  7 12  1  0  0  0
M  END
> <minimizedAffinity>
-9.08640

$$$$
1SH9_RIT_B_301


 54 57  0  0  0  0  0  0  0  0999 V2000
   18.6587    1.8371   10.6235 C   0  0  0  0  0  0  0  0  0  0  0  0
   19.1063    1.2333   11.8803 N   0  0  0  0  0  0  0  0  0  0  0  0
   18.3188    0.9559   12.9432 C   0  0  0  0  0  0  0  0  0  0  0  0
   17.0914    1.1883   12.9684 O   0  0  0  0  0  0  0  0  0  0  0  0
   20.0621    1.0104   11.9576 H   0  0  0  0  0  0  0  0  0  0  0  0
   19.0850    0.3409   14.1309 C   0  0  0  0  0  0  0  0  0  0  0  0
   18.4560    0.7337   15.4083 N   0  0  0  0  0  0  0  0  0  0  0  0
   18.8535    1.8448   16.0976 C   0  0  0  0  0  0  0  0  0  0  0  0
   18.0952    2.1187   17.2208 N   0  0  0  0  0  0  0  0  0  0  0  0
   19.8346    2.5324   15.7122 O   0  0  0  0  0  0  0  0  0  0  0  0
   17.0451    1.4503   17.7087 C   0  0  0  0  0  0  0  0  0  0  0  0
   17.7294    0.1791   15.7738 H   0  0  0  0  0  0  0  0  0  0  0  0
   18.4057    3.2885   18.0731 C   0  0  0  0  0  0  0  0  0  0  0  0
   18.1079    4.6362   17.5478 C   0  0  0  0  0  0  0  0  0  0  0  0
   16.7925    4.9746   17.3922 C   0  0  0  0  0  0  0  0  0  0  0  0
   16.7843    6.6379   16.7540 S   0  0  0  0  0  0  0  0  0  0  0  0
   18.5547    6.6475   16.7854 C   0  0  0  0  0  0  0  0  0  0  0  0
   19.0235    5.5092   17.2315 N   0  0  0  0  0  0  0  0  0  0  0  0
   18.9877    7.8940   16.3212 C   0  0  0  0  0  0  0  0  0  0  0  0
   18.3647    8.8369   15.2927 C   0  0  0  0  0  0  0  0  0  0  0  0
   20.3877    7.7713   15.8669 C   0  0  0  0  0  0  0  0  0  0  0  0
   19.1990   -1.2310   14.1198 C   0  0  0  0  0  0  0  0  0  0  0  0
   18.4577   -1.9674   15.2680 C   0  0  0  0  0  0  0  0  0  0  0  0
   18.7212   -1.8050   12.7601 C   0  0  0  0  0  0  0  0  0  0  0  0
   19.3078    3.1979   10.4790 C   0  0  0  0  0  0  0  0  0  0  0  0
   18.6088    4.1531   11.3252 C   0  0  0  0  0  0  0  0  0  0  0  0
   19.3810    4.8216   12.3262 C   0  0  0  0  0  0  0  0  0  0  0  0
   18.7672    5.7708   13.2013 C   0  0  0  0  0  0  0  0  0  0  0  0
   17.3839    6.0380   13.0560 C   0  0  0  0  0  0  0  0  0  0  0  0
   16.6194    5.3803   12.0645 C   0  0  0  0  0  0  0  0  0  0  0  0
   17.2227    4.4359   11.1939 C   0  0  0  0  0  0  0  0  0  0  0  0
   19.1169    1.0557    9.3630 C   0  0  0  0  0  0  0  0  0  0  0  0
   19.3988   -0.4312    9.3882 C   0  0  0  0  0  0  0  0  0  0  0  0
   20.7518   -0.6319    9.7355 O   0  0  0  0  0  0  0  0  0  0  0  0
   21.3218   -0.2377    9.0568 H   0  0  0  0  0  0  0  0  0  0  0  0
   19.2074   -1.1459    8.0372 C   0  0  0  0  0  0  0  0  0  0  0  0
   18.1996   -3.2864    8.8946 C   0  0  0  0  0  0  0  0  0  0  0  0
   17.3092   -2.7752    9.5876 O   0  0  0  0  0  0  0  0  0  0  0  0
   19.1207   -2.6143    8.1497 N   0  0  0  0  0  0  0  0  0  0  0  0
   19.7784   -3.1487    7.6486 H   0  0  0  0  0  0  0  0  0  0  0  0
   18.3843   -4.6585    8.7799 O   0  0  0  0  0  0  0  0  0  0  0  0
   19.5865   -5.3499    9.0258 C   0  0  0  0  0  0  0  0  0  0  0  0
   21.0858   -6.1112    7.0315 C   0  0  0  0  0  0  0  0  0  0  0  0
   19.9781   -5.9906    7.8188 C   0  0  0  0  0  0  0  0  0  0  0  0
   18.5334   -6.8639    7.2618 S   0  0  0  0  0  0  0  0  0  0  0  0
   19.7118   -7.2671    5.9970 C   0  0  0  0  0  0  0  0  0  0  0  0
   20.9235   -6.8410    5.9944 N   0  0  0  0  0  0  0  0  0  0  0  0
   18.0310   -0.5062    7.2519 C   0  0  0  0  0  0  0  0  0  0  0  0
   18.2366    0.0328    5.9242 C   0  0  0  0  0  0  0  0  0  0  0  0
   17.8993   -0.9511    4.9520 C   0  0  0  0  0  0  0  0  0  0  0  0
   18.0291   -0.6066    3.5719 C   0  0  0  0  0  0  0  0  0  0  0  0
   18.4818    0.6858    3.1558 C   0  0  0  0  0  0  0  0  0  0  0  0
   18.8161    1.6612    4.1532 C   0  0  0  0  0  0  0  0  0  0  0  0
   18.6946    1.3385    5.5326 C   0  0  0  0  0  0  0  0  0  0  0  0
 43 44  2  0  0  0
 43 47  1  0  0  0
 44 45  1  0  0  0
 44 42  1  0  0  0
 45 46  1  0  0  0
 46 47  2  0  0  0
 42 41  1  0  0  0
 41 37  1  0  0  0
 37 39  1  0  0  0
 37 38  2  0  0  0
 39 36  1  0  0  0
 36 33  1  0  0  0
 36 48  1  0  0  0
 33 32  1  0  0  0
 33 34  1  0  0  0
 32  1  1  0  0  0
  1 25  1  0  0  0
  1  2  1  0  0  0
  3  6  1  0  0  0
  3  2  1  0  0  0
  3  4  2  0  0  0
  6  7  1  0  0  0
  6 22  1  0  0  0
  7  8  1  0  0  0
  8  9  1  0  0  0
  8 10  2  0  0  0
 48 49  1  0  0  0
 49 50  2  0  0  0
 49 54  1  0  0  0
 50 51  1  0  0  0
 51 52  2  0  0  0
 52 53  1  0  0  0
 53 54  2  0  0  0
 25 26  1  0  0  0
 26 27  2  0  0  0
 26 31  1  0  0  0
 27 28  1  0  0  0
 28 29  2  0  0  0
 29 30  1  0  0  0
 30 31  2  0  0  0
 22 23  1  0  0  0
 22 24  1  0  0  0
  9 13  1  0  0  0
  9 11  1  0  0  0
 13 14  1  0  0  0
 14 15  2  0  0  0
 14 18  1  0  0  0
 15 16  1  0  0  0
 16 17  1  0  0  0
 17 18  2  0  0  0
 17 19  1  0  0  0
 19 20  1  0  0  0
 19 21  1  0  0  0
 39 40  1  0  0  0
 34 35  1  0  0  0
  2  5  1  0  0  0
  7 12  1  0  0  0
M  END
> <minimizedAffinity>
-9.03854

$$$$
1SH9_RIT_B_301


 54 57  0  0  0  0  0  0  0  0999 V2000
   18.3709    0.2920   10.7586 C   0  0  0  0  0  0  0  0  0  0  0  0
   17.9843    1.6732   11.0538 N   0  0  0  0  0  0  0  0  0  0  0  0
   18.8304    2.7229   11.1488 C   0  0  0  0  0  0  0  0  0  0  0  0
   20.0658    2.6266   10.9883 O   0  0  0  0  0  0  0  0  0  0  0  0
   17.0266    1.8524   11.1951 H   0  0  0  0  0  0  0  0  0  0  0  0
   18.1258    4.0500   11.4928 C   0  0  0  0  0  0  0  0  0  0  0  0
   18.8963    4.7932   12.5105 N   0  0  0  0  0  0  0  0  0  0  0  0
   18.3283    5.2178   13.6788 C   0  0  0  0  0  0  0  0  0  0  0  0
   19.2142    5.8114   14.5588 N   0  0  0  0  0  0  0  0  0  0  0  0
   17.0980    5.0663   13.8960 O   0  0  0  0  0  0  0  0  0  0  0  0
   20.5273    6.0189   14.4167 C   0  0  0  0  0  0  0  0  0  0  0  0
   19.8464    4.9885   12.3423 H   0  0  0  0  0  0  0  0  0  0  0  0
   18.7474    6.3256   15.8661 C   0  0  0  0  0  0  0  0  0  0  0  0
   18.4832    5.3542   16.9466 C   0  0  0  0  0  0  0  0  0  0  0  0
   17.8450    5.8145   18.0646 C   0  0  0  0  0  0  0  0  0  0  0  0
   17.6823    4.4119   19.1510 S   0  0  0  0  0  0  0  0  0  0  0  0
   18.4965    3.3990   17.9482 C   0  0  0  0  0  0  0  0  0  0  0  0
   18.8211    4.0960   16.8884 N   0  0  0  0  0  0  0  0  0  0  0  0
   18.5725    2.0991   18.4593 C   0  0  0  0  0  0  0  0  0  0  0  0
   19.5363    0.9609   18.1269 C   0  0  0  0  0  0  0  0  0  0  0  0
   17.2436    1.4651   18.3437 C   0  0  0  0  0  0  0  0  0  0  0  0
   17.8838    5.0214   10.2755 C   0  0  0  0  0  0  0  0  0  0  0  0
   18.2716    4.4615    8.8804 C   0  0  0  0  0  0  0  0  0  0  0  0
   16.4067    5.4939   10.2374 C   0  0  0  0  0  0  0  0  0  0  0  0
   17.4170   -0.6436   11.4721 C   0  0  0  0  0  0  0  0  0  0  0  0
   17.9347   -0.9315   12.8011 C   0  0  0  0  0  0  0  0  0  0  0  0
   17.6831    0.0388   13.8211 C   0  0  0  0  0  0  0  0  0  0  0  0
   18.1628   -0.1674   15.1518 C   0  0  0  0  0  0  0  0  0  0  0  0
   18.8874   -1.3496   15.4405 C   0  0  0  0  0  0  0  0  0  0  0  0
   19.1343   -2.3119   14.4339 C   0  0  0  0  0  0  0  0  0  0  0  0
   18.6620   -2.1121   13.1107 C   0  0  0  0  0  0  0  0  0  0  0  0
   18.2299   -0.0840    9.2592 C   0  0  0  0  0  0  0  0  0  0  0  0
   19.4210   -0.1714    8.3293 C   0  0  0  0  0  0  0  0  0  0  0  0
   19.7315    1.1245    7.8648 O   0  0  0  0  0  0  0  0  0  0  0  0
   18.9850    1.4716    7.3518 H   0  0  0  0  0  0  0  0  0  0  0  0
   19.1901   -1.0206    7.0651 C   0  0  0  0  0  0  0  0  0  0  0  0
   19.5300   -3.4209    6.3901 C   0  0  0  0  0  0  0  0  0  0  0  0
   19.8454   -3.2101    5.2110 O   0  0  0  0  0  0  0  0  0  0  0  0
   19.2087   -2.4743    7.3153 N   0  0  0  0  0  0  0  0  0  0  0  0
   18.9709   -2.7837    8.2191 H   0  0  0  0  0  0  0  0  0  0  0  0
   19.4594   -4.6922    6.9458 O   0  0  0  0  0  0  0  0  0  0  0  0
   18.2937   -5.3114    7.4372 C   0  0  0  0  0  0  0  0  0  0  0  0
   19.1811   -5.3386    9.8900 C   0  0  0  0  0  0  0  0  0  0  0  0
   18.3036   -5.2015    8.8545 C   0  0  0  0  0  0  0  0  0  0  0  0
   16.6450   -4.7429    9.3005 S   0  0  0  0  0  0  0  0  0  0  0  0
   17.4404   -4.8161   10.8857 C   0  0  0  0  0  0  0  0  0  0  0  0
   18.6790   -5.1172   11.0447 N   0  0  0  0  0  0  0  0  0  0  0  0
   17.9254   -0.5297    6.3107 C   0  0  0  0  0  0  0  0  0  0  0  0
   18.0000   -0.1453    4.9172 C   0  0  0  0  0  0  0  0  0  0  0  0
   18.4720    1.1941    4.8160 C   0  0  0  0  0  0  0  0  0  0  0  0
   18.6222    1.7587    3.5125 C   0  0  0  0  0  0  0  0  0  0  0  0
   18.3147    1.0162    2.3282 C   0  0  0  0  0  0  0  0  0  0  0  0
   17.8405   -0.3317    2.4546 C   0  0  0  0  0  0  0  0  0  0  0  0
   17.6831   -0.9126    3.7429 C   0  0  0  0  0  0  0  0  0  0  0  0
 43 44  2  0  0  0
 43 47  1  0  0  0
 44 45  1  0  0  0
 44 42  1  0  0  0
 45 46  1  0  0  0
 46 47  2  0  0  0
 42 41  1  0  0  0
 41 37  1  0  0  0
 37 39  1  0  0  0
 37 38  2  0  0  0
 39 36  1  0  0  0
 36 33  1  0  0  0
 36 48  1  0  0  0
 33 32  1  0  0  0
 33 34  1  0  0  0
 32  1  1  0  0  0
  1 25  1  0  0  0
  1  2  1  0  0  0
  3  6  1  0  0  0
  3  2  1  0  0  0
  3  4  2  0  0  0
  6  7  1  0  0  0
  6 22  1  0  0  0
  7  8  1  0  0  0
  8  9  1  0  0  0
  8 10  2  0  0  0
 48 49  1  0  0  0
 49 50  2  0  0  0
 49 54  1  0  0  0
 50 51  1  0  0  0
 51 52  2  0  0  0
 52 53  1  0  0  0
 53 54  2  0  0  0
 25 26  1  0  0  0
 26 27  2  0  0  0
 26 31  1  0  0  0
 27 28  1  0  0  0
 28 29  2  0  0  0
 29 30  1  0  0  0
 30 31  2  0  0  0
 22 23  1  0  0  0
 22 24  1  0  0  0
  9 13  1  0  0  0
  9 11  1  0  0  0
 13 14  1  0  0  0
 14 15  2  0  0  0
 14 18  1  0  0  0
 15 16  1  0  0  0
 16 17  1  0  0  0
 17 18  2  0  0  0
 17 19  1  0  0  0
 19 20  1  0  0  0
 19 21  1  0  0  0
 39 40  1  0  0  0
 34 35  1  0  0  0
  2  5  1  0  0  0
  7 12  1  0  0  0
M  END
> <minimizedAffinity>
-8.78067

$$$$
1SH9_RIT_B_301


 54 57  0  0  0  0  0  0  0  0999 V2000
   19.0660    2.5196   11.8344 C   0  0  0  0  0  0  0  0  0  0  0  0
   19.1371    2.4059   13.2926 N   0  0  0  0  0  0  0  0  0  0  0  0
   18.1925    1.8517   14.0847 C   0  0  0  0  0  0  0  0  0  0  0  0
   17.1299    1.3613   13.6471 O   0  0  0  0  0  0  0  0  0  0  0  0
   19.9414    2.7635   13.7336 H   0  0  0  0  0  0  0  0  0  0  0  0
   18.5443    1.8990   15.5847 C   0  0  0  0  0  0  0  0  0  0  0  0
   17.7928    2.9791   16.2559 N   0  0  0  0  0  0  0  0  0  0  0  0
   18.4223    3.9704   16.9551 C   0  0  0  0  0  0  0  0  0  0  0  0
   17.5760    4.9520   17.4366 N   0  0  0  0  0  0  0  0  0  0  0  0
   19.6687    3.9532   17.1277 O   0  0  0  0  0  0  0  0  0  0  0  0
   16.2491    5.0539   17.3086 C   0  0  0  0  0  0  0  0  0  0  0  0
   16.8100    2.9851   16.1978 H   0  0  0  0  0  0  0  0  0  0  0  0
   18.1098    6.0910   18.2170 C   0  0  0  0  0  0  0  0  0  0  0  0
   18.5727    7.2864   17.4838 C   0  0  0  0  0  0  0  0  0  0  0  0
   17.7991    8.4109   17.5610 C   0  0  0  0  0  0  0  0  0  0  0  0
   18.6291    9.6475   16.5834 S   0  0  0  0  0  0  0  0  0  0  0  0
   19.9043    8.4782   16.2060 C   0  0  0  0  0  0  0  0  0  0  0  0
   19.6685    7.3242   16.7779 N   0  0  0  0  0  0  0  0  0  0  0  0
   20.8431    9.1132   15.3863 C   0  0  0  0  0  0  0  0  0  0  0  0
   20.6466    9.9547   14.1260 C   0  0  0  0  0  0  0  0  0  0  0  0
   21.8645    8.1262   14.9812 C   0  0  0  0  0  0  0  0  0  0  0  0
   18.2781    0.5665   16.3831 C   0  0  0  0  0  0  0  0  0  0  0  0
   18.6160   -0.7482   15.6298 C   0  0  0  0  0  0  0  0  0  0  0  0
   19.0326    0.5804   17.7385 C   0  0  0  0  0  0  0  0  0  0  0  0
   19.4915    3.9170   11.4339 C   0  0  0  0  0  0  0  0  0  0  0  0
   18.6254    4.8862   12.0878 C   0  0  0  0  0  0  0  0  0  0  0  0
   17.2486    4.8928   11.7010 C   0  0  0  0  0  0  0  0  0  0  0  0
   16.3339    5.8181   12.2930 C   0  0  0  0  0  0  0  0  0  0  0  0
   16.8155    6.7236   13.2698 C   0  0  0  0  0  0  0  0  0  0  0  0
   18.1760    6.7163   13.6560 C   0  0  0  0  0  0  0  0  0  0  0  0
   19.0892    5.8013   13.0708 C   0  0  0  0  0  0  0  0  0  0  0  0
   20.0590    1.5865   11.0910 C   0  0  0  0  0  0  0  0  0  0  0  0
   20.2915    0.1507   11.5099 C   0  0  0  0  0  0  0  0  0  0  0  0
   21.2705   -0.4164   10.6663 O   0  0  0  0  0  0  0  0  0  0  0  0
   20.9433   -0.4276    9.7532 H   0  0  0  0  0  0  0  0  0  0  0  0
   19.0582   -0.7639   11.3868 C   0  0  0  0  0  0  0  0  0  0  0  0
   17.2000   -0.6909    9.6915 C   0  0  0  0  0  0  0  0  0  0  0  0
   16.2730   -0.4697   10.4828 O   0  0  0  0  0  0  0  0  0  0  0  0
   18.5132   -0.8443   10.0183 N   0  0  0  0  0  0  0  0  0  0  0  0
   19.1467   -1.0222    9.2859 H   0  0  0  0  0  0  0  0  0  0  0  0
   17.0191   -0.8160    8.3198 O   0  0  0  0  0  0  0  0  0  0  0  0
   18.0227   -1.1317    7.3833 C   0  0  0  0  0  0  0  0  0  0  0  0
   19.0394    1.2056    6.8287 C   0  0  0  0  0  0  0  0  0  0  0  0
   18.3330    0.0510    6.6583 C   0  0  0  0  0  0  0  0  0  0  0  0
   17.5205   -0.1352    5.0882 S   0  0  0  0  0  0  0  0  0  0  0  0
   18.2998    1.4495    4.9084 C   0  0  0  0  0  0  0  0  0  0  0  0
   19.0140    1.9970    5.8250 N   0  0  0  0  0  0  0  0  0  0  0  0
   19.3477   -2.1470   12.0294 C   0  0  0  0  0  0  0  0  0  0  0  0
   18.9542   -3.3686   11.3600 C   0  0  0  0  0  0  0  0  0  0  0  0
   20.0709   -3.9133   10.6649 C   0  0  0  0  0  0  0  0  0  0  0  0
   19.8859   -5.1315    9.9424 C   0  0  0  0  0  0  0  0  0  0  0  0
   18.6226   -5.8033    9.9063 C   0  0  0  0  0  0  0  0  0  0  0  0
   17.5114   -5.2358   10.6141 C   0  0  0  0  0  0  0  0  0  0  0  0
   17.6740   -4.0234   11.3390 C   0  0  0  0  0  0  0  0  0  0  0  0
 43 44  2  0  0  0
 43 47  1  0  0  0
 44 45  1  0  0  0
 44 42  1  0  0  0
 45 46  1  0  0  0
 46 47  2  0  0  0
 42 41  1  0  0  0
 41 37  1  0  0  0
 37 39  1  0  0  0
 37 38  2  0  0  0
 39 36  1  0  0  0
 36 33  1  0  0  0
 36 48  1  0  0  0
 33 32  1  0  0  0
 33 34  1  0  0  0
 32  1  1  0  0  0
  1 25  1  0  0  0
  1  2  1  0  0  0
  3  6  1  0  0  0
  3  2  1  0  0  0
  3  4  2  0  0  0
  6  7  1  0  0  0
  6 22  1  0  0  0
  7  8  1  0  0  0
  8  9  1  0  0  0
  8 10  2  0  0  0
 48 49  1  0  0  0
 49 50  2  0  0  0
 49 54  1  0  0  0
 50 51  1  0  0  0
 51 52  2  0  0  0
 52 53  1  0  0  0
 53 54  2  0  0  0
 25 26  1  0  0  0
 26 27  2  0  0  0
 26 31  1  0  0  0
 27 28  1  0  0  0
 28 29  2  0  0  0
 29 30  1  0  0  0
 30 31  2  0  0  0
 22 23  1  0  0  0
 22 24  1  0  0  0
  9 13  1  0  0  0
  9 11  1  0  0  0
 13 14  1  0  0  0
 14 15  2  0  0  0
 14 18  1  0  0  0
 15 16  1  0  0  0
 16 17  1  0  0  0
 17 18  2  0  0  0
 17 19  1  0  0  0
 19 20  1  0  0  0
 19 21  1  0  0  0
 39 40  1  0  0  0
 34 35  1  0  0  0
  2  5  1  0  0  0
  7 12  1  0  0  0
M  END
> <minimizedAffinity>
-8.72119

$$$$
1SH9_RIT_B_301


 54 57  0  0  0  0  0  0  0  0999 V2000
   18.5451    3.2706   13.7866 C   0  0  0  0  0  0  0  0  0  0  0  0
   18.0416    1.8956   13.8087 N   0  0  0  0  0  0  0  0  0  0  0  0
   18.7430    0.7960   13.4541 C   0  0  0  0  0  0  0  0  0  0  0  0
   19.9285    0.8341   13.0612 O   0  0  0  0  0  0  0  0  0  0  0  0
   17.1132    1.7608   14.1073 H   0  0  0  0  0  0  0  0  0  0  0  0
   17.9327   -0.5106   13.5636 C   0  0  0  0  0  0  0  0  0  0  0  0
   18.3551   -1.4673   12.5204 N   0  0  0  0  0  0  0  0  0  0  0  0
   17.6425   -1.6397   11.3671 C   0  0  0  0  0  0  0  0  0  0  0  0
   18.2301   -2.5008   10.4590 N   0  0  0  0  0  0  0  0  0  0  0  0
   16.5458   -1.0494   11.1864 O   0  0  0  0  0  0  0  0  0  0  0  0
   19.3816   -3.1722   10.5620 C   0  0  0  0  0  0  0  0  0  0  0  0
   19.1737   -1.9961   12.6601 H   0  0  0  0  0  0  0  0  0  0  0  0
   17.5756   -2.7913    9.1634 C   0  0  0  0  0  0  0  0  0  0  0  0
   17.9985   -2.0204    7.9769 C   0  0  0  0  0  0  0  0  0  0  0  0
   18.5102   -2.7212    6.9205 C   0  0  0  0  0  0  0  0  0  0  0  0
   18.9118   -1.5117    5.6756 S   0  0  0  0  0  0  0  0  0  0  0  0
   18.3342   -0.2287    6.7508 C   0  0  0  0  0  0  0  0  0  0  0  0
   17.9077   -0.7227    7.8859 N   0  0  0  0  0  0  0  0  0  0  0  0
   18.4863    0.9925    6.0858 C   0  0  0  0  0  0  0  0  0  0  0  0
   19.0523    1.2999    4.7001 C   0  0  0  0  0  0  0  0  0  0  0  0
   19.2174    1.9253    6.9671 C   0  0  0  0  0  0  0  0  0  0  0  0
   18.0263   -1.2489   14.9528 C   0  0  0  0  0  0  0  0  0  0  0  0
   18.8259   -2.5796   14.9550 C   0  0  0  0  0  0  0  0  0  0  0  0
   18.6125   -0.3054   16.0358 C   0  0  0  0  0  0  0  0  0  0  0  0
   17.4117    4.1978   13.3998 C   0  0  0  0  0  0  0  0  0  0  0  0
   17.5257    4.5287   11.9874 C   0  0  0  0  0  0  0  0  0  0  0  0
   16.4099    5.1870   11.3819 C   0  0  0  0  0  0  0  0  0  0  0  0
   16.4413    5.5411    9.9973 C   0  0  0  0  0  0  0  0  0  0  0  0
   17.5972    5.2310    9.2396 C   0  0  0  0  0  0  0  0  0  0  0  0
   18.7029    4.5831    9.8377 C   0  0  0  0  0  0  0  0  0  0  0  0
   18.6770    4.2276   11.2112 C   0  0  0  0  0  0  0  0  0  0  0  0
   19.0058    3.7842   15.1771 C   0  0  0  0  0  0  0  0  0  0  0  0
   20.0874    4.8306   15.3378 C   0  0  0  0  0  0  0  0  0  0  0  0
   21.0018    4.3927   16.3195 O   0  0  0  0  0  0  0  0  0  0  0  0
   20.5462    4.3099   17.1718 H   0  0  0  0  0  0  0  0  0  0  0  0
   19.5872    6.2050   15.8211 C   0  0  0  0  0  0  0  0  0  0  0  0
   20.9120    7.9444   14.5753 C   0  0  0  0  0  0  0  0  0  0  0  0
   21.9954    7.7556   15.1452 O   0  0  0  0  0  0  0  0  0  0  0  0
   19.7493    7.2798   14.8237 N   0  0  0  0  0  0  0  0  0  0  0  0
   18.9574    7.5360   14.2979 H   0  0  0  0  0  0  0  0  0  0  0  0
   20.7309    8.8897   13.5735 O   0  0  0  0  0  0  0  0  0  0  0  0
   21.4441   10.0973   13.4437 C   0  0  0  0  0  0  0  0  0  0  0  0
   21.8433   10.1029   10.8659 C   0  0  0  0  0  0  0  0  0  0  0  0
   21.3746   10.5030   12.0830 C   0  0  0  0  0  0  0  0  0  0  0  0
   20.3527   11.9575   12.0794 S   0  0  0  0  0  0  0  0  0  0  0  0
   20.7432   11.7836   10.3566 C   0  0  0  0  0  0  0  0  0  0  0  0
   21.4780   10.8402    9.8874 N   0  0  0  0  0  0  0  0  0  0  0  0
   18.1462    6.0850   16.3858 C   0  0  0  0  0  0  0  0  0  0  0  0
   17.2081    7.1794   16.2533 C   0  0  0  0  0  0  0  0  0  0  0  0
   16.2066    6.8372   15.3010 C   0  0  0  0  0  0  0  0  0  0  0  0
   15.1778    7.7911   15.0331 C   0  0  0  0  0  0  0  0  0  0  0  0
   15.1346    9.0603   15.6933 C   0  0  0  0  0  0  0  0  0  0  0  0
   16.1545    9.3835   16.6489 C   0  0  0  0  0  0  0  0  0  0  0  0
   17.1881    8.4483   16.9299 C   0  0  0  0  0  0  0  0  0  0  0  0
 43 44  2  0  0  0
 43 47  1  0  0  0
 44 45  1  0  0  0
 44 42  1  0  0  0
 45 46  1  0  0  0
 46 47  2  0  0  0
 42 41  1  0  0  0
 41 37  1  0  0  0
 37 39  1  0  0  0
 37 38  2  0  0  0
 39 36  1  0  0  0
 36 33  1  0  0  0
 36 48  1  0  0  0
 33 32  1  0  0  0
 33 34  1  0  0  0
 32  1  1  0  0  0
  1 25  1  0  0  0
  1  2  1  0  0  0
  3  6  1  0  0  0
  3  2  1  0  0  0
  3  4  2  0  0  0
  6  7  1  0  0  0
  6 22  1  0  0  0
  7  8  1  0  0  0
  8  9  1  0  0  0
  8 10  2  0  0  0
 48 49  1  0  0  0
 49 50  2  0  0  0
 49 54  1  0  0  0
 50 51  1  0  0  0
 51 52  2  0  0  0
 52 53  1  0  0  0
 53 54  2  0  0  0
 25 26  1  0  0  0
 26 27  2  0  0  0
 26 31  1  0  0  0
 27 28  1  0  0  0
 28 29  2  0  0  0
 29 30  1  0  0  0
 30 31  2  0  0  0
 22 23  1  0  0  0
 22 24  1  0  0  0
  9 13  1  0  0  0
  9 11  1  0  0  0
 13 14  1  0  0  0
 14 15  2  0  0  0
 14 18  1  0  0  0
 15 16  1  0  0  0
 16 17  1  0  0  0
 17 18  2  0  0  0
 17 19  1  0  0  0
 19 20  1  0  0  0
 19 21  1  0  0  0
 39 40  1  0  0  0
 34 35  1  0  0  0
  2  5  1  0  0  0
  7 12  1  0  0  0
M  END
> <minimizedAffinity>
-8.64911

$$$$
1SH9_RIT_B_301


 54 57  0  0  0  0  0  0  0  0999 V2000
   19.7975   -4.4206    5.9952 C   0  0  0  0  0  0  0  0  0  0  0  0
   19.6696   -4.3042    7.4493 N   0  0  0  0  0  0  0  0  0  0  0  0
   18.6559   -3.6940    8.1027 C   0  0  0  0  0  0  0  0  0  0  0  0
   17.6918   -3.1514    7.5220 O   0  0  0  0  0  0  0  0  0  0  0  0
   20.3826   -4.7044    7.9976 H   0  0  0  0  0  0  0  0  0  0  0  0
   18.8127   -3.7159    9.6359 C   0  0  0  0  0  0  0  0  0  0  0  0
   18.4109   -2.4169   10.2131 N   0  0  0  0  0  0  0  0  0  0  0  0
   19.3001   -1.6108   10.8666 C   0  0  0  0  0  0  0  0  0  0  0  0
   18.7804   -0.3908   11.2579 N   0  0  0  0  0  0  0  0  0  0  0  0
   20.4828   -1.9853   11.0785 O   0  0  0  0  0  0  0  0  0  0  0  0
   17.5458    0.0914   11.0827 C   0  0  0  0  0  0  0  0  0  0  0  0
   17.4754   -2.1234   10.1244 H   0  0  0  0  0  0  0  0  0  0  0  0
   19.6216    0.5901   11.9801 C   0  0  0  0  0  0  0  0  0  0  0  0
   19.1580    1.0758   13.2955 C   0  0  0  0  0  0  0  0  0  0  0  0
   18.9218    2.4161   13.4240 C   0  0  0  0  0  0  0  0  0  0  0  0
   18.3821    2.6620   15.1039 S   0  0  0  0  0  0  0  0  0  0  0  0
   18.5490    0.9243   15.4008 C   0  0  0  0  0  0  0  0  0  0  0  0
   18.9628    0.3011   14.3262 N   0  0  0  0  0  0  0  0  0  0  0  0
   18.1825    0.6762   16.7278 C   0  0  0  0  0  0  0  0  0  0  0  0
   17.0631    1.2810   17.5740 C   0  0  0  0  0  0  0  0  0  0  0  0
   19.3758    0.8238   17.5854 C   0  0  0  0  0  0  0  0  0  0  0  0
   17.9990   -4.8406   10.3820 C   0  0  0  0  0  0  0  0  0  0  0  0
   18.4463   -5.1413   11.8380 C   0  0  0  0  0  0  0  0  0  0  0  0
   16.4825   -4.5140   10.3767 C   0  0  0  0  0  0  0  0  0  0  0  0
   18.9101   -5.5513    5.5174 C   0  0  0  0  0  0  0  0  0  0  0  0
   19.2498   -6.7652    6.2442 C   0  0  0  0  0  0  0  0  0  0  0  0
   18.1681   -7.6214    6.6212 C   0  0  0  0  0  0  0  0  0  0  0  0
   18.4180   -8.8303    7.3420 C   0  0  0  0  0  0  0  0  0  0  0  0
   19.7543   -9.1644    7.6719 C   0  0  0  0  0  0  0  0  0  0  0  0
   20.8256   -8.3206    7.2969 C   0  0  0  0  0  0  0  0  0  0  0  0
   20.5837   -7.1184    6.5828 C   0  0  0  0  0  0  0  0  0  0  0  0
   19.2820   -3.1748    5.2261 C   0  0  0  0  0  0  0  0  0  0  0  0
   18.6973   -3.2660    3.8329 C   0  0  0  0  0  0  0  0  0  0  0  0
   19.5484   -2.5847    2.9368 O   0  0  0  0  0  0  0  0  0  0  0  0
   19.5860   -1.6457    3.1772 H   0  0  0  0  0  0  0  0  0  0  0  0
   17.3135   -2.6090    3.6709 C   0  0  0  0  0  0  0  0  0  0  0  0
   15.7525   -4.1940    2.4948 C   0  0  0  0  0  0  0  0  0  0  0  0
   16.2016   -4.0380    1.3509 O   0  0  0  0  0  0  0  0  0  0  0  0
   16.1998   -3.5752    3.6226 N   0  0  0  0  0  0  0  0  0  0  0  0
   15.7456   -3.7889    4.4696 H   0  0  0  0  0  0  0  0  0  0  0  0
   14.6983   -5.0489    2.7909 O   0  0  0  0  0  0  0  0  0  0  0  0
   14.8188   -6.3812    3.2320 C   0  0  0  0  0  0  0  0  0  0  0  0
   14.7571   -6.3438    5.8395 C   0  0  0  0  0  0  0  0  0  0  0  0
   14.3069   -6.4521    4.5562 C   0  0  0  0  0  0  0  0  0  0  0  0
   12.5683   -6.7724    4.3700 S   0  0  0  0  0  0  0  0  0  0  0  0
   12.7386   -6.7076    6.1356 C   0  0  0  0  0  0  0  0  0  0  0  0
   13.8550   -6.4916    6.7332 N   0  0  0  0  0  0  0  0  0  0  0  0
   17.1245   -1.4856    4.7254 C   0  0  0  0  0  0  0  0  0  0  0  0
   17.8162   -0.2214    4.5890 C   0  0  0  0  0  0  0  0  0  0  0  0
   18.1222    0.2972    5.8791 C   0  0  0  0  0  0  0  0  0  0  0  0
   18.8157    1.5435    5.9571 C   0  0  0  0  0  0  0  0  0  0  0  0
   19.2031    2.2664    4.7842 C   0  0  0  0  0  0  0  0  0  0  0  0
   18.8840    1.7247    3.4948 C   0  0  0  0  0  0  0  0  0  0  0  0
   18.1936    0.4857    3.3949 C   0  0  0  0  0  0  0  0  0  0  0  0
 43 44  2  0  0  0
 43 47  1  0  0  0
 44 45  1  0  0  0
 44 42  1  0  0  0
 45 46  1  0  0  0
 46 47  2  0  0  0
 42 41  1  0  0  0
 41 37  1  0  0  0
 37 39  1  0  0  0
 37 38  2  0  0  0
 39 36  1  0  0  0
 36 33  1  0  0  0
 36 48  1  0  0  0
 33 32  1  0  0  0
 33 34  1  0  0  0
 32  1  1  0  0  0
  1 25  1  0  0  0
  1  2  1  0  0  0
  3  6  1  0  0  0
  3  2  1  0  0  0
  3  4  2  0  0  0
  6  7  1  0  0  0
  6 22  1  0  0  0
  7  8  1  0  0  0
  8  9  1  0  0  0
  8 10  2  0  0  0
 48 49  1  0  0  0
 49 50  2  0  0  0
 49 54  1  0  0  0
 50 51  1  0  0  0
 51 52  2  0  0  0
 52 53  1  0  0  0
 53 54  2  0  0  0
 25 26  1  0  0  0
 26 27  2  0  0  0
 26 31  1  0  0  0
 27 28  1  0  0  0
 28 29  2  0  0  0
 29 30  1  0  0  0
 30 31  2  0  0  0
 22 23  1  0  0  0
 22 24  1  0  0  0
  9 13  1  0  0  0
  9 11  1  0  0  0
 13 14  1  0  0  0
 14 15  2  0  0  0
 14 18  1  0  0  0
 15 16  1  0  0  0
 16 17  1  0  0  0
 17 18  2  0  0  0
 17 19  1  0  0  0
 19 20  1  0  0  0
 19 21  1  0  0  0
 39 40  1  0  0  0
 34 35  1  0  0  0
  2  5  1  0  0  0
  7 12  1  0  0  0
M  END
> <minimizedAffinity>
-8.35161

$$$$
1SH9_RIT_B_301


 54 57  0  0  0  0  0  0  0  0999 V2000
   19.2982    0.9027   13.6428 C   0  0  0  0  0  0  0  0  0  0  0  0
   19.2664    2.3196   13.2745 N   0  0  0  0  0  0  0  0  0  0  0  0
   18.3456    2.9035   12.4757 C   0  0  0  0  0  0  0  0  0  0  0  0
   17.3956    2.2821   11.9536 O   0  0  0  0  0  0  0  0  0  0  0  0
   19.9762    2.8959   13.6397 H   0  0  0  0  0  0  0  0  0  0  0  0
   18.5908    4.4092   12.2554 C   0  0  0  0  0  0  0  0  0  0  0  0
   19.3849    4.9698   13.3676 N   0  0  0  0  0  0  0  0  0  0  0  0
   18.8664    5.8924   14.2322 C   0  0  0  0  0  0  0  0  0  0  0  0
   19.7122    6.2373   15.2701 N   0  0  0  0  0  0  0  0  0  0  0  0
   17.7134    6.3672   14.0614 O   0  0  0  0  0  0  0  0  0  0  0  0
   20.9459    5.7935   15.5311 C   0  0  0  0  0  0  0  0  0  0  0  0
   20.3147    4.6700   13.4896 H   0  0  0  0  0  0  0  0  0  0  0  0
   19.2927    7.2282   16.2867 C   0  0  0  0  0  0  0  0  0  0  0  0
   18.3008    6.8149   17.2997 C   0  0  0  0  0  0  0  0  0  0  0  0
   17.1349    7.5257   17.3657 C   0  0  0  0  0  0  0  0  0  0  0  0
   16.1758    6.7784   18.6679 S   0  0  0  0  0  0  0  0  0  0  0  0
   17.4785    5.6110   18.9431 C   0  0  0  0  0  0  0  0  0  0  0  0
   18.4771    5.8182   18.1219 N   0  0  0  0  0  0  0  0  0  0  0  0
   17.0832    4.7601   19.9806 C   0  0  0  0  0  0  0  0  0  0  0  0
   15.6969    4.2413   20.3600 C   0  0  0  0  0  0  0  0  0  0  0  0
   17.6096    5.2890   21.2551 C   0  0  0  0  0  0  0  0  0  0  0  0
   19.3229    4.7846   10.9111 C   0  0  0  0  0  0  0  0  0  0  0  0
   20.5205    3.8770   10.5211 C   0  0  0  0  0  0  0  0  0  0  0  0
   18.3155    4.8261    9.7322 C   0  0  0  0  0  0  0  0  0  0  0  0
   18.0863    0.5947   14.4976 C   0  0  0  0  0  0  0  0  0  0  0  0
   18.3279    1.0603   15.8548 C   0  0  0  0  0  0  0  0  0  0  0  0
   17.6893    0.3401   16.9125 C   0  0  0  0  0  0  0  0  0  0  0  0
   17.8721    0.7376   18.2734 C   0  0  0  0  0  0  0  0  0  0  0  0
   18.6982    1.8535   18.5534 C   0  0  0  0  0  0  0  0  0  0  0  0
   19.3332    2.5649   17.5090 C   0  0  0  0  0  0  0  0  0  0  0  0
   19.1543    2.1761   16.1559 C   0  0  0  0  0  0  0  0  0  0  0  0
   19.1674   -0.0562   12.4292 C   0  0  0  0  0  0  0  0  0  0  0  0
   20.3471   -0.4239   11.5551 C   0  0  0  0  0  0  0  0  0  0  0  0
   21.2121    0.6877   11.4671 O   0  0  0  0  0  0  0  0  0  0  0  0
   20.7491    1.4246   11.0386 H   0  0  0  0  0  0  0  0  0  0  0  0
   19.9845   -0.7829   10.1017 C   0  0  0  0  0  0  0  0  0  0  0  0
   19.9673   -3.2663   10.5080 C   0  0  0  0  0  0  0  0  0  0  0  0
   20.9781   -3.3164   11.2222 O   0  0  0  0  0  0  0  0  0  0  0  0
   19.4383   -2.1444    9.9454 N   0  0  0  0  0  0  0  0  0  0  0  0
   18.6304   -2.2500    9.3927 H   0  0  0  0  0  0  0  0  0  0  0  0
   19.2126   -4.3838   10.1739 O   0  0  0  0  0  0  0  0  0  0  0  0
   19.6093   -5.4120    9.2968 C   0  0  0  0  0  0  0  0  0  0  0  0
   18.5295   -4.3234    7.1865 C   0  0  0  0  0  0  0  0  0  0  0  0
   18.8524   -5.2835    8.1004 C   0  0  0  0  0  0  0  0  0  0  0  0
   18.1808   -6.9008    7.7949 S   0  0  0  0  0  0  0  0  0  0  0  0
   17.5415   -5.9763    6.4210 C   0  0  0  0  0  0  0  0  0  0  0  0
   17.7810   -4.7285    6.2325 N   0  0  0  0  0  0  0  0  0  0  0  0
   19.0938    0.3259    9.4796 C   0  0  0  0  0  0  0  0  0  0  0  0
   18.9483    0.4367    8.0437 C   0  0  0  0  0  0  0  0  0  0  0  0
   19.2341    1.7706    7.6363 C   0  0  0  0  0  0  0  0  0  0  0  0
   19.1517    2.0822    6.2448 C   0  0  0  0  0  0  0  0  0  0  0  0
   18.7957    1.0964    5.2702 C   0  0  0  0  0  0  0  0  0  0  0  0
   18.5118   -0.2412    5.7040 C   0  0  0  0  0  0  0  0  0  0  0  0
   18.5874   -0.5724    7.0847 C   0  0  0  0  0  0  0  0  0  0  0  0
 43 44  2  0  0  0
 43 47  1  0  0  0
 44 45  1  0  0  0
 44 42  1  0  0  0
 45 46  1  0  0  0
 46 47  2  0  0  0
 42 41  1  0  0  0
 41 37  1  0  0  0
 37 39  1  0  0  0
 37 38  2  0  0  0
 39 36  1  0  0  0
 36 33  1  0  0  0
 36 48  1  0  0  0
 33 32  1  0  0  0
 33 34  1  0  0  0
 32  1  1  0  0  0
  1 25  1  0  0  0
  1  2  1  0  0  0
  3  6  1  0  0  0
  3  2  1  0  0  0
  3  4  2  0  0  0
  6  7  1  0  0  0
  6 22  1  0  0  0
  7  8  1  0  0  0
  8  9  1  0  0  0
  8 10  2  0  0  0
 48 49  1  0  0  0
 49 50  2  0  0  0
 49 54  1  0  0  0
 50 51  1  0  0  0
 51 52  2  0  0  0
 52 53  1  0  0  0
 53 54  2  0  0  0
 25 26  1  0  0  0
 26 27  2  0  0  0
 26 31  1  0  0  0
 27 28  1  0  0  0
 28 29  2  0  0  0
 29 30  1  0  0  0
 30 31  2  0  0  0
 22 23  1  0  0  0
 22 24  1  0  0  0
  9 13  1  0  0  0
  9 11  1  0  0  0
 13 14  1  0  0  0
 14 15  2  0  0  0
 14 18  1  0  0  0
 15 16  1  0  0  0
 16 17  1  0  0  0
 17 18  2  0  0  0
 17 19  1  0  0  0
 19 20  1  0  0  0
 19 21  1  0  0  0
 39 40  1  0  0  0
 34 35  1  0  0  0
  2  5  1  0  0  0
  7 12  1  0  0  0
M  END
> <minimizedAffinity>
-8.33056

$$$$
1SH9_RIT_B_301


 54 57  0  0  0  0  0  0  0  0999 V2000
   19.6601    0.7323    9.8750 C   0  0  0  0  0  0  0  0  0  0  0  0
   19.4096    0.3629    8.4803 N   0  0  0  0  0  0  0  0  0  0  0  0
   19.2696    1.2279    7.4512 C   0  0  0  0  0  0  0  0  0  0  0  0
   19.3433    2.4684    7.5812 O   0  0  0  0  0  0  0  0  0  0  0  0
   19.3369   -0.5971    8.2747 H   0  0  0  0  0  0  0  0  0  0  0  0
   18.9916    0.5366    6.1019 C   0  0  0  0  0  0  0  0  0  0  0  0
   18.6429   -0.8831    6.3129 N   0  0  0  0  0  0  0  0  0  0  0  0
   19.0908   -1.8687    5.4788 C   0  0  0  0  0  0  0  0  0  0  0  0
   18.7512   -3.1484    5.8770 N   0  0  0  0  0  0  0  0  0  0  0  0
   19.7506   -1.5935    4.4431 O   0  0  0  0  0  0  0  0  0  0  0  0
   18.0557   -3.5373    6.9505 C   0  0  0  0  0  0  0  0  0  0  0  0
   18.0713   -1.1265    7.0766 H   0  0  0  0  0  0  0  0  0  0  0  0
   19.1623   -4.3218    5.0736 C   0  0  0  0  0  0  0  0  0  0  0  0
   18.2653   -4.7797    3.9934 C   0  0  0  0  0  0  0  0  0  0  0  0
   17.7163   -6.0256    4.1170 C   0  0  0  0  0  0  0  0  0  0  0  0
   16.7015   -6.2619    2.6719 S   0  0  0  0  0  0  0  0  0  0  0  0
   17.1571   -4.6487    2.1011 C   0  0  0  0  0  0  0  0  0  0  0  0
   17.9722   -4.0647    2.9430 N   0  0  0  0  0  0  0  0  0  0  0  0
   16.5082   -4.4231    0.8826 C   0  0  0  0  0  0  0  0  0  0  0  0
   15.0808   -4.7511    0.4469 C   0  0  0  0  0  0  0  0  0  0  0  0
   17.3341   -4.9837   -0.2060 C   0  0  0  0  0  0  0  0  0  0  0  0
   17.8462    1.1844    5.2346 C   0  0  0  0  0  0  0  0  0  0  0  0
   18.1934    1.4383    3.7429 C   0  0  0  0  0  0  0  0  0  0  0  0
   16.5515    0.3335    5.3142 C   0  0  0  0  0  0  0  0  0  0  0  0
   18.3708    1.2460   10.4816 C   0  0  0  0  0  0  0  0  0  0  0  0
   18.6050    2.5610   11.0589 C   0  0  0  0  0  0  0  0  0  0  0  0
   17.5752    3.0971   11.8939 C   0  0  0  0  0  0  0  0  0  0  0  0
   17.7264    4.3855   12.4945 C   0  0  0  0  0  0  0  0  0  0  0  0
   18.9141    5.1173   12.2498 C   0  0  0  0  0  0  0  0  0  0  0  0
   19.9351    4.5873   11.4271 C   0  0  0  0  0  0  0  0  0  0  0  0
   19.7900    3.3096   10.8267 C   0  0  0  0  0  0  0  0  0  0  0  0
   20.0561   -0.4704   10.7729 C   0  0  0  0  0  0  0  0  0  0  0  0
   19.3838   -1.8219   10.6616 C   0  0  0  0  0  0  0  0  0  0  0  0
   18.1664   -1.6684    9.9646 O   0  0  0  0  0  0  0  0  0  0  0  0
   17.5753   -1.0886   10.4700 H   0  0  0  0  0  0  0  0  0  0  0  0
   19.0113   -2.4688   12.0090 C   0  0  0  0  0  0  0  0  0  0  0  0
   18.7357   -1.4764   14.3049 C   0  0  0  0  0  0  0  0  0  0  0  0
   19.5394   -2.2131   14.8928 O   0  0  0  0  0  0  0  0  0  0  0  0
   18.4266   -1.5239   12.9793 N   0  0  0  0  0  0  0  0  0  0  0  0
   17.7629   -0.8791   12.6434 H   0  0  0  0  0  0  0  0  0  0  0  0
   18.0185   -0.4696   14.9389 O   0  0  0  0  0  0  0  0  0  0  0  0
   18.2826    0.9109   14.8478 C   0  0  0  0  0  0  0  0  0  0  0  0
   19.1705    0.8154   17.2987 C   0  0  0  0  0  0  0  0  0  0  0  0
   18.7587    1.3502   16.1131 C   0  0  0  0  0  0  0  0  0  0  0  0
   18.7946    3.1245   16.0099 S   0  0  0  0  0  0  0  0  0  0  0  0
   19.3846    2.8446   17.6605 C   0  0  0  0  0  0  0  0  0  0  0  0
   19.5250    1.6761   18.1751 N   0  0  0  0  0  0  0  0  0  0  0  0
   18.1525   -3.7408   11.7759 C   0  0  0  0  0  0  0  0  0  0  0  0
   18.4782   -4.6664   10.7118 C   0  0  0  0  0  0  0  0  0  0  0  0
   17.2855   -5.2711   10.2232 C   0  0  0  0  0  0  0  0  0  0  0  0
   17.3970   -6.2165    9.1582 C   0  0  0  0  0  0  0  0  0  0  0  0
   18.6617   -6.5595    8.5826 C   0  0  0  0  0  0  0  0  0  0  0  0
   19.8502   -5.9376    9.0912 C   0  0  0  0  0  0  0  0  0  0  0  0
   19.7615   -4.9942   10.1514 C   0  0  0  0  0  0  0  0  0  0  0  0
 43 44  2  0  0  0
 43 47  1  0  0  0
 44 45  1  0  0  0
 44 42  1  0  0  0
 45 46  1  0  0  0
 46 47  2  0  0  0
 42 41  1  0  0  0
 41 37  1  0  0  0
 37 39  1  0  0  0
 37 38  2  0  0  0
 39 36  1  0  0  0
 36 33  1  0  0  0
 36 48  1  0  0  0
 33 32  1  0  0  0
 33 34  1  0  0  0
 32  1  1  0  0  0
  1 25  1  0  0  0
  1  2  1  0  0  0
  3  6  1  0  0  0
  3  2  1  0  0  0
  3  4  2  0  0  0
  6  7  1  0  0  0
  6 22  1  0  0  0
  7  8  1  0  0  0
  8  9  1  0  0  0
  8 10  2  0  0  0
 48 49  1  0  0  0
 49 50  2  0  0  0
 49 54  1  0  0  0
 50 51  1  0  0  0
 51 52  2  0  0  0
 52 53  1  0  0  0
 53 54  2  0  0  0
 25 26  1  0  0  0
 26 27  2  0  0  0
 26 31  1  0  0  0
 27 28  1  0  0  0
 28 29  2  0  0  0
 29 30  1  0  0  0
 30 31  2  0  0  0
 22 23  1  0  0  0
 22 24  1  0  0  0
  9 13  1  0  0  0
  9 11  1  0  0  0
 13 14  1  0  0  0
 14 15  2  0  0  0
 14 18  1  0  0  0
 15 16  1  0  0  0
 16 17  1  0  0  0
 17 18  2  0  0  0
 17 19  1  0  0  0
 19 20  1  0  0  0
 19 21  1  0  0  0
 39 40  1  0  0  0
 34 35  1  0  0  0
  2  5  1  0  0  0
  7 12  1  0  0  0
M  END
> <minimizedAffinity>
-8.31602

$$$$
1SH9_RIT_B_301


 54 57  0  0  0  0  0  0  0  0999 V2000
   19.8085   -4.4396    5.9561 C   0  0  0  0  0  0  0  0  0  0  0  0
   19.6873   -4.3795    7.4142 N   0  0  0  0  0  0  0  0  0  0  0  0
   18.7415   -3.6965    8.0967 C   0  0  0  0  0  0  0  0  0  0  0  0
   17.8432   -3.0272    7.5433 O   0  0  0  0  0  0  0  0  0  0  0  0
   20.3512   -4.8790    7.9423 H   0  0  0  0  0  0  0  0  0  0  0  0
   18.8883   -3.8079    9.6271 C   0  0  0  0  0  0  0  0  0  0  0  0
   18.1762   -2.6993   10.2946 N   0  0  0  0  0  0  0  0  0  0  0  0
   18.8265   -1.7976   11.0894 C   0  0  0  0  0  0  0  0  0  0  0  0
   18.0272   -0.7705   11.5559 N   0  0  0  0  0  0  0  0  0  0  0  0
   20.0499   -1.9284   11.3542 O   0  0  0  0  0  0  0  0  0  0  0  0
   16.7273   -0.5506   11.3338 C   0  0  0  0  0  0  0  0  0  0  0  0
   17.2048   -2.6073   10.1632 H   0  0  0  0  0  0  0  0  0  0  0  0
   18.5881    0.2827   12.4320 C   0  0  0  0  0  0  0  0  0  0  0  0
   18.5730    1.6777   11.9477 C   0  0  0  0  0  0  0  0  0  0  0  0
   19.5234    2.0368   11.0330 C   0  0  0  0  0  0  0  0  0  0  0  0
   19.2268    3.7541   10.6632 S   0  0  0  0  0  0  0  0  0  0  0  0
   17.8626    3.7507   11.7922 C   0  0  0  0  0  0  0  0  0  0  0  0
   17.7092    2.5719   12.3411 N   0  0  0  0  0  0  0  0  0  0  0  0
   17.2996    5.0313   11.7923 C   0  0  0  0  0  0  0  0  0  0  0  0
   16.5987    5.8030   12.9095 C   0  0  0  0  0  0  0  0  0  0  0  0
   16.3545    5.1344   10.6620 C   0  0  0  0  0  0  0  0  0  0  0  0
   18.3702   -5.1556   10.2589 C   0  0  0  0  0  0  0  0  0  0  0  0
   18.0605   -5.1105   11.7795 C   0  0  0  0  0  0  0  0  0  0  0  0
   17.1163   -5.6682    9.5029 C   0  0  0  0  0  0  0  0  0  0  0  0
   18.9510   -5.5777    5.4428 C   0  0  0  0  0  0  0  0  0  0  0  0
   19.2331   -6.7760    6.2186 C   0  0  0  0  0  0  0  0  0  0  0  0
   20.6031   -7.0393    6.5331 C   0  0  0  0  0  0  0  0  0  0  0  0
   20.9637   -8.1989    7.2873 C   0  0  0  0  0  0  0  0  0  0  0  0
   19.9403   -9.0778    7.7187 C   0  0  0  0  0  0  0  0  0  0  0  0
   18.5845   -8.8173    7.4115 C   0  0  0  0  0  0  0  0  0  0  0  0
   18.2205   -7.6688    6.6618 C   0  0  0  0  0  0  0  0  0  0  0  0
   19.2516   -3.1824    5.2357 C   0  0  0  0  0  0  0  0  0  0  0  0
   18.6791   -3.2366    3.8356 C   0  0  0  0  0  0  0  0  0  0  0  0
   19.5515   -2.5548    2.9607 O   0  0  0  0  0  0  0  0  0  0  0  0
   19.6041   -1.6213    3.2191 H   0  0  0  0  0  0  0  0  0  0  0  0
   17.3095   -2.5508    3.6729 C   0  0  0  0  0  0  0  0  0  0  0  0
   15.7827   -4.1552    2.4783 C   0  0  0  0  0  0  0  0  0  0  0  0
   16.3012   -4.0616    1.3573 O   0  0  0  0  0  0  0  0  0  0  0  0
   16.1779   -3.4947    3.6019 N   0  0  0  0  0  0  0  0  0  0  0  0
   15.6702   -3.6595    4.4291 H   0  0  0  0  0  0  0  0  0  0  0  0
   14.6930   -4.9733    2.7494 O   0  0  0  0  0  0  0  0  0  0  0  0
   14.7567   -6.3238    3.1444 C   0  0  0  0  0  0  0  0  0  0  0  0
   14.9804   -6.2302    5.7417 C   0  0  0  0  0  0  0  0  0  0  0  0
   14.3993   -6.3955    4.5184 C   0  0  0  0  0  0  0  0  0  0  0  0
   12.6747   -6.8262    4.5322 S   0  0  0  0  0  0  0  0  0  0  0  0
   13.0341   -6.7103    6.2667 C   0  0  0  0  0  0  0  0  0  0  0  0
   14.1934   -6.4124    6.7326 N   0  0  0  0  0  0  0  0  0  0  0  0
   17.1337   -1.4396    4.7425 C   0  0  0  0  0  0  0  0  0  0  0  0
   17.8328   -0.1782    4.6180 C   0  0  0  0  0  0  0  0  0  0  0  0
   18.1167    0.3402    5.9132 C   0  0  0  0  0  0  0  0  0  0  0  0
   18.8135    1.5839    6.0031 C   0  0  0  0  0  0  0  0  0  0  0  0
   19.2256    2.3043    4.8371 C   0  0  0  0  0  0  0  0  0  0  0  0
   18.9285    1.7626    3.5424 C   0  0  0  0  0  0  0  0  0  0  0  0
   18.2352    0.5262    3.4306 C   0  0  0  0  0  0  0  0  0  0  0  0
 43 44  2  0  0  0
 43 47  1  0  0  0
 44 45  1  0  0  0
 44 42  1  0  0  0
 45 46  1  0  0  0
 46 47  2  0  0  0
 42 41  1  0  0  0
 41 37  1  0  0  0
 37 39  1  0  0  0
 37 38  2  0  0  0
 39 36  1  0  0  0
 36 33  1  0  0  0
 36 48  1  0  0  0
 33 32  1  0  0  0
 33 34  1  0  0  0
 32  1  1  0  0  0
  1 25  1  0  0  0
  1  2  1  0  0  0
  3  6  1  0  0  0
  3  2  1  0  0  0
  3  4  2  0  0  0
  6  7  1  0  0  0
  6 22  1  0  0  0
  7  8  1  0  0  0
  8  9  1  0  0  0
  8 10  2  0  0  0
 48 49  1  0  0  0
 49 50  2  0  0  0
 49 54  1  0  0  0
 50 51  1  0  0  0
 51 52  2  0  0  0
 52 53  1  0  0  0
 53 54  2  0  0  0
 25 26  1  0  0  0
 26 27  2  0  0  0
 26 31  1  0  0  0
 27 28  1  0  0  0
 28 29  2  0  0  0
 29 30  1  0  0  0
 30 31  2  0  0  0
 22 23  1  0  0  0
 22 24  1  0  0  0
  9 13  1  0  0  0
  9 11  1  0  0  0
 13 14  1  0  0  0
 14 15  2  0  0  0
 14 18  1  0  0  0
 15 16  1  0  0  0
 16 17  1  0  0  0
 17 18  2  0  0  0
 17 19  1  0  0  0
 19 20  1  0  0  0
 19 21  1  0  0  0
 39 40  1  0  0  0
 34 35  1  0  0  0
  2  5  1  0  0  0
  7 12  1  0  0  0
M  END
> <minimizedAffinity>
-8.29183

$$$$
