3ZDG_XRX_A_301


 13 12  0  0  0  0  0  0  0  0999 V2000
  -12.8726   60.7248  -22.3723 C   0  0  0  0  0  0  0  0  0  0  0  0
  -11.8883   60.3851  -21.3923 O   0  0  0  0  0  0  0  0  0  0  0  0
  -11.9302   60.5580  -19.0918 N   0  0  0  0  0  0  0  0  0  0  0  0
  -13.2314   58.9811  -20.2465 O   0  0  0  0  0  0  0  0  0  0  0  0
  -12.3730   59.8610  -20.2269 C   0  0  0  0  0  0  0  0  0  0  0  0
  -12.2033   59.9880  -17.7631 C   0  0  0  0  0  0  0  0  0  0  0  0
  -10.9805   61.6951  -19.1452 C   0  0  0  0  0  0  0  0  0  0  0  0
  -13.4977   62.0997  -22.0571 C   0  0  0  0  0  0  0  0  0  0  0  0
  -15.0290   62.0706  -21.8158 C   0  0  0  0  0  0  0  0  0  0  0  0
  -15.6845   60.6972  -22.1415 C   0  0  0  0  0  0  0  0  0  0  0  0
  -15.3198   62.5082  -20.4152 N   0  0  0  0  0  0  0  0  0  0  0  0
  -14.2446   63.3408  -19.7932 C   0  0  0  0  0  0  0  0  0  0  0  0
  -15.7540   61.3472  -19.5523 C   0  0  0  0  0  0  0  0  0  0  0  0
 11 12  1  0  0  0
 11  9  1  0  0  0
 11 13  1  0  0  0
  1  2  1  0  0  0
  1  8  1  0  0  0
  2  5  1  0  0  0
  3  5  1  0  0  0
  3  6  1  0  0  0
  3  7  1  0  0  0
  4  5  2  0  0  0
  9  8  1  0  0  0
  9 10  1  0  0  0
M  END
> <minimizedAffinity>
-0.00016

$$$$
3ZDG_XRX_A_301


 13 12  0  0  0  0  0  0  0  0999 V2000
  -15.2545   56.9555  -23.1755 C   0  0  0  0  0  0  0  0  0  0  0  0
  -14.7709   57.9509  -22.2699 O   0  0  0  0  0  0  0  0  0  0  0  0
  -15.6424   58.7279  -20.2797 N   0  0  0  0  0  0  0  0  0  0  0  0
  -14.7198   56.5781  -20.4809 O   0  0  0  0  0  0  0  0  0  0  0  0
  -14.9715   57.6890  -20.9438 C   0  0  0  0  0  0  0  0  0  0  0  0
  -15.7459   58.6765  -18.8129 C   0  0  0  0  0  0  0  0  0  0  0  0
  -16.0271   60.0038  -20.9293 C   0  0  0  0  0  0  0  0  0  0  0  0
  -16.7699   57.1270  -23.4088 C   0  0  0  0  0  0  0  0  0  0  0  0
  -17.6272   55.9022  -22.9975 C   0  0  0  0  0  0  0  0  0  0  0  0
  -16.7834   54.6497  -22.6218 C   0  0  0  0  0  0  0  0  0  0  0  0
  -18.5601   56.2959  -21.8964 N   0  0  0  0  0  0  0  0  0  0  0  0
  -18.8472   57.7618  -21.8256 C   0  0  0  0  0  0  0  0  0  0  0  0
  -18.1353   55.7034  -20.5737 C   0  0  0  0  0  0  0  0  0  0  0  0
 11 12  1  0  0  0
 11  9  1  0  0  0
 11 13  1  0  0  0
  1  2  1  0  0  0
  1  8  1  0  0  0
  2  5  1  0  0  0
  3  5  1  0  0  0
  3  6  1  0  0  0
  3  7  1  0  0  0
  4  5  2  0  0  0
  9  8  1  0  0  0
  9 10  1  0  0  0
M  END
> <minimizedAffinity>
0.00000

$$$$
3ZDG_XRX_A_301


 13 12  0  0  0  0  0  0  0  0999 V2000
  -14.3274   60.3064  -20.6257 C   0  0  0  0  0  0  0  0  0  0  0  0
  -14.5654   59.0363  -21.2378 O   0  0  0  0  0  0  0  0  0  0  0  0
  -15.8901   57.2682  -20.5723 N   0  0  0  0  0  0  0  0  0  0  0  0
  -16.8044   59.2881  -21.3452 O   0  0  0  0  0  0  0  0  0  0  0  0
  -15.8403   58.5573  -21.1256 C   0  0  0  0  0  0  0  0  0  0  0  0
  -17.1721   56.5462  -20.5803 C   0  0  0  0  0  0  0  0  0  0  0  0
  -14.6857   56.4808  -20.2157 C   0  0  0  0  0  0  0  0  0  0  0  0
  -14.0930   60.1409  -19.1098 C   0  0  0  0  0  0  0  0  0  0  0  0
  -15.1116   60.8931  -18.2149 C   0  0  0  0  0  0  0  0  0  0  0  0
  -16.0546   61.8433  -19.0085 C   0  0  0  0  0  0  0  0  0  0  0  0
  -15.8786   59.9042  -17.3956 N   0  0  0  0  0  0  0  0  0  0  0  0
  -15.1860   58.5928  -17.2038 C   0  0  0  0  0  0  0  0  0  0  0  0
  -17.3006   59.7655  -17.8851 C   0  0  0  0  0  0  0  0  0  0  0  0
 11 12  1  0  0  0
 11  9  1  0  0  0
 11 13  1  0  0  0
  1  2  1  0  0  0
  1  8  1  0  0  0
  2  5  1  0  0  0
  3  5  1  0  0  0
  3  6  1  0  0  0
  3  7  1  0  0  0
  4  5  2  0  0  0
  9  8  1  0  0  0
  9 10  1  0  0  0
M  END
> <minimizedAffinity>
0.00023

$$$$
3ZDG_XRX_A_301


 13 12  0  0  0  0  0  0  0  0999 V2000
  -16.2865   56.7736  -23.1412 C   0  0  0  0  0  0  0  0  0  0  0  0
  -16.2080   56.8404  -21.7150 O   0  0  0  0  0  0  0  0  0  0  0  0
  -16.2375   58.6537  -20.2884 N   0  0  0  0  0  0  0  0  0  0  0  0
  -18.1483   57.9633  -21.4653 O   0  0  0  0  0  0  0  0  0  0  0  0
  -16.9771   57.8048  -21.1267 C   0  0  0  0  0  0  0  0  0  0  0  0
  -16.9621   59.6065  -19.4328 C   0  0  0  0  0  0  0  0  0  0  0  0
  -14.7913   58.4790  -20.0127 C   0  0  0  0  0  0  0  0  0  0  0  0
  -15.3757   57.8403  -23.7837 C   0  0  0  0  0  0  0  0  0  0  0  0
  -16.1186   58.8688  -24.6750 C   0  0  0  0  0  0  0  0  0  0  0  0
  -17.6128   58.5120  -24.9242 C   0  0  0  0  0  0  0  0  0  0  0  0
  -15.9628   60.2370  -24.0906 N   0  0  0  0  0  0  0  0  0  0  0  0
  -14.7767   60.3933  -23.1935 C   0  0  0  0  0  0  0  0  0  0  0  0
  -17.2515   60.7234  -23.4711 C   0  0  0  0  0  0  0  0  0  0  0  0
 11 12  1  0  0  0
 11  9  1  0  0  0
 11 13  1  0  0  0
  1  2  1  0  0  0
  1  8  1  0  0  0
  2  5  1  0  0  0
  3  5  1  0  0  0
  3  6  1  0  0  0
  3  7  1  0  0  0
  4  5  2  0  0  0
  9  8  1  0  0  0
  9 10  1  0  0  0
M  END
> <minimizedAffinity>
0.00033

$$$$
3ZDG_XRX_A_301


 13 12  0  0  0  0  0  0  0  0999 V2000
  -12.3073   57.3898  -23.2162 C   0  0  0  0  0  0  0  0  0  0  0  0
  -12.0852   57.9841  -21.9348 O   0  0  0  0  0  0  0  0  0  0  0  0
  -10.9006   59.8712  -21.3350 N   0  0  0  0  0  0  0  0  0  0  0  0
  -12.9337   59.9954  -22.5029 O   0  0  0  0  0  0  0  0  0  0  0  0
  -12.0687   59.3504  -21.9134 C   0  0  0  0  0  0  0  0  0  0  0  0
  -10.8334   61.3148  -21.0587 C   0  0  0  0  0  0  0  0  0  0  0  0
   -9.8320   59.0306  -20.7440 C   0  0  0  0  0  0  0  0  0  0  0  0
  -10.9960   57.3483  -24.0280 C   0  0  0  0  0  0  0  0  0  0  0  0
  -11.0423   58.1301  -25.3662 C   0  0  0  0  0  0  0  0  0  0  0  0
  -12.4651   58.6360  -25.7426 C   0  0  0  0  0  0  0  0  0  0  0  0
  -10.0473   59.2463  -25.3245 N   0  0  0  0  0  0  0  0  0  0  0  0
   -8.9352   59.0451  -24.3452 C   0  0  0  0  0  0  0  0  0  0  0  0
  -10.7275   60.5883  -25.1921 C   0  0  0  0  0  0  0  0  0  0  0  0
 11 12  1  0  0  0
 11  9  1  0  0  0
 11 13  1  0  0  0
  1  2  1  0  0  0
  1  8  1  0  0  0
  2  5  1  0  0  0
  3  5  1  0  0  0
  3  6  1  0  0  0
  3  7  1  0  0  0
  4  5  2  0  0  0
  9  8  1  0  0  0
  9 10  1  0  0  0
M  END
> <minimizedAffinity>
0.00039

$$$$
3ZDG_XRX_A_301


 13 12  0  0  0  0  0  0  0  0999 V2000
  -13.5915   54.6562  -23.1199 C   0  0  0  0  0  0  0  0  0  0  0  0
  -12.9035   55.8920  -23.3300 O   0  0  0  0  0  0  0  0  0  0  0  0
  -13.6688   58.0684  -23.2930 N   0  0  0  0  0  0  0  0  0  0  0  0
  -13.4856   56.7789  -21.3394 O   0  0  0  0  0  0  0  0  0  0  0  0
  -13.3117   56.9346  -22.5466 C   0  0  0  0  0  0  0  0  0  0  0  0
  -13.9310   59.3285  -22.5801 C   0  0  0  0  0  0  0  0  0  0  0  0
  -13.5471   58.1519  -24.7682 C   0  0  0  0  0  0  0  0  0  0  0  0
  -14.9353   54.6494  -23.8777 C   0  0  0  0  0  0  0  0  0  0  0  0
  -16.1834   54.4782  -22.9737 C   0  0  0  0  0  0  0  0  0  0  0  0
  -15.8388   54.1345  -21.4955 C   0  0  0  0  0  0  0  0  0  0  0  0
  -17.0424   55.6985  -23.0761 N   0  0  0  0  0  0  0  0  0  0  0  0
  -16.8385   56.4934  -24.3262 C   0  0  0  0  0  0  0  0  0  0  0  0
  -16.9720   56.5310  -21.8179 C   0  0  0  0  0  0  0  0  0  0  0  0
 11 12  1  0  0  0
 11  9  1  0  0  0
 11 13  1  0  0  0
  1  2  1  0  0  0
  1  8  1  0  0  0
  2  5  1  0  0  0
  3  5  1  0  0  0
  3  6  1  0  0  0
  3  7  1  0  0  0
  4  5  2  0  0  0
  9  8  1  0  0  0
  9 10  1  0  0  0
M  END
> <minimizedAffinity>
0.00053

$$$$
3ZDG_XRX_A_301


 13 12  0  0  0  0  0  0  0  0999 V2000
  -15.8891   58.7679  -21.8193 C   0  0  0  0  0  0  0  0  0  0  0  0
  -17.2477   58.3295  -21.9005 O   0  0  0  0  0  0  0  0  0  0  0  0
  -18.5191   57.0818  -20.4339 N   0  0  0  0  0  0  0  0  0  0  0  0
  -17.8780   59.2902  -19.9594 O   0  0  0  0  0  0  0  0  0  0  0  0
  -17.9379   58.3268  -20.7210 C   0  0  0  0  0  0  0  0  0  0  0  0
  -19.4585   56.9852  -19.3056 C   0  0  0  0  0  0  0  0  0  0  0  0
  -18.4537   55.9153  -21.3465 C   0  0  0  0  0  0  0  0  0  0  0  0
  -14.9787   57.6209  -21.3333 C   0  0  0  0  0  0  0  0  0  0  0  0
  -14.2246   57.9139  -20.0106 C   0  0  0  0  0  0  0  0  0  0  0  0
  -14.3619   59.3874  -19.5291 C   0  0  0  0  0  0  0  0  0  0  0  0
  -14.6645   56.9421  -18.9620 N   0  0  0  0  0  0  0  0  0  0  0  0
  -15.2421   55.6724  -19.5010 C   0  0  0  0  0  0  0  0  0  0  0  0
  -15.5392   57.6061  -17.9251 C   0  0  0  0  0  0  0  0  0  0  0  0
 11 12  1  0  0  0
 11  9  1  0  0  0
 11 13  1  0  0  0
  1  2  1  0  0  0
  1  8  1  0  0  0
  2  5  1  0  0  0
  3  5  1  0  0  0
  3  6  1  0  0  0
  3  7  1  0  0  0
  4  5  2  0  0  0
  9  8  1  0  0  0
  9 10  1  0  0  0
M  END
> <minimizedAffinity>
0.00063

$$$$
3ZDG_XRX_A_301


 13 12  0  0  0  0  0  0  0  0999 V2000
  -15.2526   62.2791  -24.9922 C   0  0  0  0  0  0  0  0  0  0  0  0
  -16.5333   62.5941  -24.4397 O   0  0  0  0  0  0  0  0  0  0  0  0
  -18.4886   61.3708  -24.3739 N   0  0  0  0  0  0  0  0  0  0  0  0
  -16.6113   60.7892  -23.0891 O   0  0  0  0  0  0  0  0  0  0  0  0
  -17.1964   61.5513  -23.8563 C   0  0  0  0  0  0  0  0  0  0  0  0
  -19.3909   60.4216  -23.7032 C   0  0  0  0  0  0  0  0  0  0  0  0
  -19.0968   62.2604  -25.3920 C   0  0  0  0  0  0  0  0  0  0  0  0
  -15.4076   61.6453  -26.3903 C   0  0  0  0  0  0  0  0  0  0  0  0
  -14.8299   60.2119  -26.5150 C   0  0  0  0  0  0  0  0  0  0  0  0
  -14.0147   59.7588  -25.2692 C   0  0  0  0  0  0  0  0  0  0  0  0
  -15.9356   59.2565  -26.8347 N   0  0  0  0  0  0  0  0  0  0  0  0
  -17.1341   59.8891  -27.4668 C   0  0  0  0  0  0  0  0  0  0  0  0
  -16.2732   58.3849  -25.6483 C   0  0  0  0  0  0  0  0  0  0  0  0
 11 12  1  0  0  0
 11  9  1  0  0  0
 11 13  1  0  0  0
  1  2  1  0  0  0
  1  8  1  0  0  0
  2  5  1  0  0  0
  3  5  1  0  0  0
  3  6  1  0  0  0
  3  7  1  0  0  0
  4  5  2  0  0  0
  9  8  1  0  0  0
  9 10  1  0  0  0
M  END
> <minimizedAffinity>
0.00063

$$$$
3ZDG_XRX_A_301


 13 12  0  0  0  0  0  0  0  0999 V2000
  -14.2265   57.2690  -23.5002 C   0  0  0  0  0  0  0  0  0  0  0  0
  -13.7734   58.4690  -24.1322 O   0  0  0  0  0  0  0  0  0  0  0  0
  -14.9315   60.3486  -24.8029 N   0  0  0  0  0  0  0  0  0  0  0  0
  -14.5792   59.8450  -22.5368 O   0  0  0  0  0  0  0  0  0  0  0  0
  -14.3955   59.6177  -23.7310 C   0  0  0  0  0  0  0  0  0  0  0  0
  -15.4484   61.7019  -24.5454 C   0  0  0  0  0  0  0  0  0  0  0  0
  -14.7763   59.9552  -26.2238 C   0  0  0  0  0  0  0  0  0  0  0  0
  -15.5183   56.7584  -24.1718 C   0  0  0  0  0  0  0  0  0  0  0  0
  -16.7437   56.6691  -23.2260 C   0  0  0  0  0  0  0  0  0  0  0  0
  -16.3935   56.9107  -21.7290 C   0  0  0  0  0  0  0  0  0  0  0  0
  -17.8107   57.6013  -23.7057 N   0  0  0  0  0  0  0  0  0  0  0  0
  -17.7151   57.9545  -25.1557 C   0  0  0  0  0  0  0  0  0  0  0  0
  -17.9400   58.8049  -22.8026 C   0  0  0  0  0  0  0  0  0  0  0  0
 11 12  1  0  0  0
 11  9  1  0  0  0
 11 13  1  0  0  0
  1  2  1  0  0  0
  1  8  1  0  0  0
  2  5  1  0  0  0
  3  5  1  0  0  0
  3  6  1  0  0  0
  3  7  1  0  0  0
  4  5  2  0  0  0
  9  8  1  0  0  0
  9 10  1  0  0  0
M  END
> <minimizedAffinity>
0.00063

$$$$
3ZDG_XRX_A_301


 13 12  0  0  0  0  0  0  0  0999 V2000
  -15.2733   55.3105  -20.8063 C   0  0  0  0  0  0  0  0  0  0  0  0
  -15.0382   56.6932  -21.0846 O   0  0  0  0  0  0  0  0  0  0  0  0
  -16.4375   58.3183  -21.9361 N   0  0  0  0  0  0  0  0  0  0  0  0
  -16.7152   57.4425  -19.7753 O   0  0  0  0  0  0  0  0  0  0  0  0
  -16.0854   57.5327  -20.8274 C   0  0  0  0  0  0  0  0  0  0  0  0
  -17.4078   59.4084  -21.7486 C   0  0  0  0  0  0  0  0  0  0  0  0
  -15.7059   58.2937  -23.2253 C   0  0  0  0  0  0  0  0  0  0  0  0
  -16.0409   54.6475  -21.9690 C   0  0  0  0  0  0  0  0  0  0  0  0
  -17.4158   54.0491  -21.5743 C   0  0  0  0  0  0  0  0  0  0  0  0
  -17.6738   54.0412  -20.0396 C   0  0  0  0  0  0  0  0  0  0  0  0
  -18.5002   54.7626  -22.3176 N   0  0  0  0  0  0  0  0  0  0  0  0
  -18.0476   55.4344  -23.5746 C   0  0  0  0  0  0  0  0  0  0  0  0
  -19.2920   55.6687  -21.4049 C   0  0  0  0  0  0  0  0  0  0  0  0
 11 12  1  0  0  0
 11  9  1  0  0  0
 11 13  1  0  0  0
  1  2  1  0  0  0
  1  8  1  0  0  0
  2  5  1  0  0  0
  3  5  1  0  0  0
  3  6  1  0  0  0
  3  7  1  0  0  0
  4  5  2  0  0  0
  9  8  1  0  0  0
  9 10  1  0  0  0
M  END
> <minimizedAffinity>
0.00064

$$$$
