6CZE_ITT_A_301
  RCSB PDB11171803143D
Coordinates from PDB:6CZE:A:301 Model:1 without hydrogens
 31 33  0  0  0  0            999 V2000
   -2.6880  -36.1470   22.8410   P 0  0  0  0  0  0  0  0  0  0  0  0
   -3.7730  -37.1600   22.5930   O 0  0  0  0  0  0  0  0  0  0  0  0
   -1.3690  -36.8590   23.0860   O 0  0  0  0  0  0  0  0  0  0  0  0
   -3.0170  -35.3760   24.0890   O 0  0  0  0  0  0  0  0  0  0  0  0
   -3.6300  -33.8940   21.1390   P 0  0  0  0  0  0  0  0  0  0  0  0
   -3.7510  -33.8160   19.6480   O 0  0  0  0  0  0  0  0  0  0  0  0
   -3.2180  -32.5150   21.6270   O 0  0  0  0  0  0  0  0  0  0  0  0
   -2.5830  -35.1400   21.5300   O 0  0  0  0  0  0  0  0  0  0  0  0
   -6.4610  -33.4890   21.6450   P 0  0  0  0  0  0  0  0  0  0  0  0
   -6.8780  -33.6420   20.1930   O 0  0  0  0  0  0  0  0  0  0  0  0
   -6.2890  -32.0270   22.0290   O 0  0  0  0  0  0  0  0  0  0  0  0
   -5.0440  -34.3160   21.8680   O 0  0  0  0  0  0  0  0  0  0  0  0
   -7.5190  -34.2010   22.6600   O 0  0  0  0  0  0  0  0  0  0  0  0
   -8.1540  -35.3890   22.2770   C 0  0  0  0  0  0  0  0  0  0  0  0
   -7.2530  -36.6580   22.2330   C 0  0  0  0  0  0  0  0  0  0  0  0
   -6.7070  -36.9960   23.6550   O 0  0  0  0  0  0  0  0  0  0  0  0
   -7.9760  -37.6760   21.9540   C 0  0  0  0  0  0  0  0  0  0  0  0
   -8.0930  -37.9020   20.5020   O 0  0  0  0  0  0  0  0  0  0  0  0
   -7.2390  -38.9670   22.6860   C 0  0  0  0  0  0  0  0  0  0  0  0
   -6.6190  -39.8250   21.6950   O 0  0  0  0  0  0  0  0  0  0  0  0
   -6.3260  -38.4790   23.4520   C 0  0  0  0  0  0  0  0  0  0  0  0
   -6.2480  -39.2460   24.7330   N 0  0  0  0  0  0  0  0  0  0  0  0
   -7.3540  -39.0440   25.4690   C 0  0  0  0  0  0  0  0  0  0  0  0
   -7.2440  -39.7600   26.6000   N 0  0  0  0  0  0  0  0  0  0  0  0
   -6.0520  -40.4080   26.5520   C 0  0  0  0  0  0  0  0  0  0  0  0
   -5.4320  -41.2600   27.4270   C 0  0  0  0  0  0  0  0  0  0  0  0
   -5.8050  -41.7680   28.6810   O 0  0  0  0  0  0  0  0  0  0  0  0
   -4.2310  -41.7800   27.1520   N 0  0  0  0  0  0  0  0  0  0  0  0
   -3.6070  -41.4610   25.9810   C 0  0  0  0  0  0  0  0  0  0  0  0
   -4.2080  -40.6200   25.1120   N 0  0  0  0  0  0  0  0  0  0  0  0
   -5.4360  -40.0960   25.4070   C 0  0  0  0  0  0  0  0  0  0  0  0
  1  2  2  0  0  0  0
  1  3  1  0  0  0  0
  1  4  1  0  0  0  0
  1  8  1  0  0  0  0
  5  6  2  0  0  0  0
  5  7  1  0  0  0  0
  5  8  1  0  0  0  0
  5 12  1  0  0  0  0
  9 10  2  0  0  0  0
  9 11  1  0  0  0  0
  9 12  1  0  0  0  0
  9 13  1  0  0  0  0
 13 14  1  0  0  0  0
 14 15  1  0  0  0  0
 15 16  1  0  0  0  0
 15 17  1  0  0  0  0
 16 21  1  0  0  0  0
 17 18  1  0  0  0  0
 17 19  1  0  0  0  0
 19 20  1  0  0  0  0
 19 21  1  0  0  0  0
 21 22  1  0  0  0  0
 22 23  1  0  0  0  0
 22 31  1  0  0  0  0
 23 24  2  0  0  0  0
 24 25  1  0  0  0  0
 25 26  1  0  0  0  0
 25 31  2  0  0  0  0
 26 27  1  0  0  0  0
 26 28  2  0  0  0  0
 28 29  1  0  0  0  0
 29 30  2  0  0  0  0
 30 31  1  0  0  0  0
A    1
PG
A    2
O1G
A    3
O2G
A    4
O3G
A    5
PB
A    6
O1B
A    7
O2B
A    8
O3B
A    9
PA
A   10
O1A
A   11
O2A
A   12
O3A
A   13
O5'
A   14
C5'
A   15
C4'
A   16
O4'
A   17
C3'
A   18
O3'
A   19
C2'
A   20
O2'
A   21
C1'
A   22
N9
A   23
C8
A   24
N7
A   25
C5
A   26
C6
A   27
O6
A   28
N1
A   29
C2
A   30
N3
A   31
C4
M  END
>  <InstanceId>
6CZE_ITT_A_301

>  <ChemCompId>
ITT

>  <PdbId>
6CZE

>  <ChainId>
A

>  <ResidueNumber>
301

>  <InsertionCode>


>  <Model>
1

>  <AltIds>


>  <MissingHeavyAtoms>
0

>  <ObservedFormula>
C10 N4 O14 P3

>  <Name>
INOSINE 5'-TRIPHOSPHATE

>  <SystematicName>
[[(2R,3S,4R,5R)-3,4-dihydroxy-5-(6-hydroxypurin-9-yl)oxolan-2-yl]methoxy-hydroxy-phosphoryl] phosphono hydrogen phosphate

>  <Synonyms>
INOSINE TRIPHOSPHATE

>  <Type>
NON-POLYMER

>  <Formula>
C10 H15 N4 O14 P3

>  <MolecularWeight>
508.166

>  <ModifiedDate>
2011-06-04

>  <Parent>


>  <OneLetterCode>


>  <SubcomponentList>


>  <AmbiguousFlag>
N

>  <InChI>
InChI=1S/C10H15N4O14P3/c15-6-4(1-25-30(21,22)28-31(23,24)27-29(18,19)20)26-10(7(6)16)14-3-13-5-8(14)11-2-12-9(5)17/h2-4,6-7,10,15-16H,1H2,(H,21,22)(H,23,24)(H,11,12,17)(H2,18,19,20)/t4-,6-,7-,10-/m1/s1

>  <InChIKey>
HAEJPQIATWHALX-KQYNXXCUSA-N

>  <SMILES>
c1nc2c(c(n1)O)ncn2[C@H]3[C@@H]([C@@H]([C@H](O3)CO[P@](=O)(O)O[P@](=O)(O)OP(=O)(O)O)O)O

$$$$
