6CZE_ITT_A_301


 38 40  0  0  0  0  0  0  0  0999 V2000
   -6.2556  -35.1836   21.2632 C   0  0  0  0  0  0  0  0  0  0  0  0
   -5.4617  -36.2321   20.4236 O   0  0  0  0  0  0  0  0  0  0  0  0
   -6.5871  -35.8441   22.3076 C   0  0  0  0  0  0  0  0  0  0  0  0
   -7.8113  -35.3199   22.9397 O   0  0  0  0  0  0  0  0  0  0  0  0
   -6.8169  -37.4047   21.8003 C   0  0  0  0  0  0  0  0  0  0  0  0
   -8.2279  -37.7388   21.8131 O   0  0  0  0  0  0  0  0  0  0  0  0
   -6.3807  -37.4623   20.5900 C   0  0  0  0  0  0  0  0  0  0  0  0
   -8.5454  -35.3624   22.3072 H   0  0  0  0  0  0  0  0  0  0  0  0
   -8.7102  -37.1272   21.2349 H   0  0  0  0  0  0  0  0  0  0  0  0
   -5.6770  -38.7585   20.3449 N   0  0  0  0  0  0  0  0  0  0  0  0
   -4.6047  -38.8693   21.1472 C   0  0  0  0  0  0  0  0  0  0  0  0
   -4.0142  -40.0502   20.9006 N   0  0  0  0  0  0  0  0  0  0  0  0
   -4.7384  -40.6680   19.9326 C   0  0  0  0  0  0  0  0  0  0  0  0
   -4.5917  -41.8757   19.3034 C   0  0  0  0  0  0  0  0  0  0  0  0
   -3.6456  -42.9041   19.4335 O   0  0  0  0  0  0  0  0  0  0  0  0
   -5.4517  -42.2723   18.3591 N   0  0  0  0  0  0  0  0  0  0  0  0
   -6.4958  -41.4650   18.0120 C   0  0  0  0  0  0  0  0  0  0  0  0
   -6.6486  -40.2711   18.6242 N   0  0  0  0  0  0  0  0  0  0  0  0
   -5.7612  -39.8790   19.5877 C   0  0  0  0  0  0  0  0  0  0  0  0
   -2.9466  -42.8221   20.0520 H   0  0  0  0  0  0  0  0  0  0  0  0
   -5.3336  -34.0001   21.6793 C   0  0  0  0  0  0  0  0  0  0  0  0
   -4.2714  -33.7177   20.8114 O   0  0  0  0  0  0  0  0  0  0  0  0
   -2.7406  -33.7636   21.3690 P   0  0  0  0  0  0  0  0  0  0  0  0
   -2.3534  -32.4728   22.0686 O   0  0  0  0  0  0  0  0  0  0  0  0
   -2.5639  -34.9703   22.2785 O   0  0  0  0  0  0  0  0  0  0  0  0
   -1.6522  -34.9953   22.6090 H   0  0  0  0  0  0  0  0  0  0  0  0
   -1.8043  -33.9199   20.0124 O   0  0  0  0  0  0  0  0  0  0  0  0
   -0.1619  -34.0169   20.0573 P   0  0  0  0  0  0  0  0  0  0  0  0
    0.4456  -34.1439   18.6940 O   0  0  0  0  0  0  0  0  0  0  0  0
    0.3889  -32.7425   20.6754 O   0  0  0  0  0  0  0  0  0  0  0  0
    1.3572  -32.7903   20.7062 H   0  0  0  0  0  0  0  0  0  0  0  0
    0.1394  -35.4227   20.9144 O   0  0  0  0  0  0  0  0  0  0  0  0
   -0.1945  -36.9703   20.4270 P   0  0  0  0  0  0  0  0  0  0  0  0
   -0.9982  -37.6569   21.4982 O   0  0  0  0  0  0  0  0  0  0  0  0
   -0.9721  -36.9731   19.1224 O   0  0  0  0  0  0  0  0  0  0  0  0
    1.0710  -37.7476   20.1935 O   0  0  0  0  0  0  0  0  0  0  0  0
   -1.1557  -37.8879   18.8574 H   0  0  0  0  0  0  0  0  0  0  0  0
    0.8494  -38.6483   19.9097 H   0  0  0  0  0  0  0  0  0  0  0  0
 33 34  2  0  0  0
 33 35  1  0  0  0
 33 36  1  0  0  0
 33 32  1  0  0  0
 28 29  2  0  0  0
 28 30  1  0  0  0
 28 32  1  0  0  0
 28 27  1  0  0  0
 23 24  2  0  0  0
 23 25  1  0  0  0
 23 27  1  0  0  0
 23 22  1  0  0  0
 22 21  1  0  0  0
 21  1  1  0  0  0
  1  2  1  0  0  0
  1  3  1  0  0  0
  2  7  1  0  0  0
  3  4  1  0  0  0
  3  5  1  0  0  0
  5  6  1  0  0  0
  5  7  1  0  0  0
  7 10  1  0  0  0
 10 11  1  0  0  0
 10 19  1  0  0  0
 11 12  2  0  0  0
 12 13  1  0  0  0
 13 14  1  0  0  0
 13 19  2  0  0  0
 14 15  1  0  0  0
 14 16  2  0  0  0
 16 17  1  0  0  0
 17 18  2  0  0  0
 18 19  1  0  0  0
 35 37  1  0  0  0
 36 38  1  0  0  0
 30 31  1  0  0  0
 25 26  1  0  0  0
  4  8  1  0  0  0
  6  9  1  0  0  0
 15 20  1  0  0  0
M  END
> <minimizedAffinity>
-9.54705

$$$$
6CZE_ITT_A_301


 38 40  0  0  0  0  0  0  0  0999 V2000
   -3.5210  -37.4460   21.6392 C   0  0  0  0  0  0  0  0  0  0  0  0
   -4.6847  -37.5814   22.6696 O   0  0  0  0  0  0  0  0  0  0  0  0
   -3.8615  -36.4198   20.9553 C   0  0  0  0  0  0  0  0  0  0  0  0
   -3.3034  -36.4423   19.5911 O   0  0  0  0  0  0  0  0  0  0  0  0
   -5.5177  -36.4395   20.9064 C   0  0  0  0  0  0  0  0  0  0  0  0
   -5.9811  -36.7941   19.5790 O   0  0  0  0  0  0  0  0  0  0  0  0
   -5.8960  -37.3443   21.7411 C   0  0  0  0  0  0  0  0  0  0  0  0
   -3.6160  -37.2346   19.1269 H   0  0  0  0  0  0  0  0  0  0  0  0
   -5.6313  -37.6658   19.3366 H   0  0  0  0  0  0  0  0  0  0  0  0
   -7.1217  -36.9040   22.4754 N   0  0  0  0  0  0  0  0  0  0  0  0
   -6.9792  -35.6409   22.9113 C   0  0  0  0  0  0  0  0  0  0  0  0
   -8.1055  -35.2866   23.5516 N   0  0  0  0  0  0  0  0  0  0  0  0
   -8.9469  -36.3510   23.5051 C   0  0  0  0  0  0  0  0  0  0  0  0
  -10.2112  -36.5465   23.9943 C   0  0  0  0  0  0  0  0  0  0  0  0
  -11.0875  -35.7203   24.7147 O   0  0  0  0  0  0  0  0  0  0  0  0
  -10.8480  -37.7095   23.8197 N   0  0  0  0  0  0  0  0  0  0  0  0
  -10.2337  -38.7229   23.1429 C   0  0  0  0  0  0  0  0  0  0  0  0
   -8.9862  -38.5420   22.6583 N   0  0  0  0  0  0  0  0  0  0  0  0
   -8.3476  -37.3474   22.8448 C   0  0  0  0  0  0  0  0  0  0  0  0
  -10.8286  -34.8493   24.9433 H   0  0  0  0  0  0  0  0  0  0  0  0
   -2.1752  -37.1520   22.3647 C   0  0  0  0  0  0  0  0  0  0  0  0
   -1.0517  -37.8220   21.8647 O   0  0  0  0  0  0  0  0  0  0  0  0
    0.1505  -36.9705   21.1673 P   0  0  0  0  0  0  0  0  0  0  0  0
    1.3021  -36.7261   22.1264 O   0  0  0  0  0  0  0  0  0  0  0  0
    0.6129  -37.6801   19.9035 O   0  0  0  0  0  0  0  0  0  0  0  0
    1.3282  -37.1715   19.4905 H   0  0  0  0  0  0  0  0  0  0  0  0
   -0.5325  -35.5094   20.7931 O   0  0  0  0  0  0  0  0  0  0  0  0
   -0.3189  -34.7596   19.3436 P   0  0  0  0  0  0  0  0  0  0  0  0
    0.4375  -35.6035   18.3640 O   0  0  0  0  0  0  0  0  0  0  0  0
   -1.6808  -34.4761   18.7316 O   0  0  0  0  0  0  0  0  0  0  0  0
   -1.5651  -34.0339   17.8761 H   0  0  0  0  0  0  0  0  0  0  0  0
    0.6000  -33.4107   19.7147 O   0  0  0  0  0  0  0  0  0  0  0  0
    1.3971  -33.1162   21.1365 P   0  0  0  0  0  0  0  0  0  0  0  0
    1.8772  -31.6899   21.1408 O   0  0  0  0  0  0  0  0  0  0  0  0
    0.4868  -33.3537   22.3288 O   0  0  0  0  0  0  0  0  0  0  0  0
    2.5812  -34.0296   21.2908 O   0  0  0  0  0  0  0  0  0  0  0  0
    0.9741  -33.1754   23.1483 H   0  0  0  0  0  0  0  0  0  0  0  0
    3.0303  -33.8380   22.1290 H   0  0  0  0  0  0  0  0  0  0  0  0
 33 34  2  0  0  0
 33 35  1  0  0  0
 33 36  1  0  0  0
 33 32  1  0  0  0
 28 29  2  0  0  0
 28 30  1  0  0  0
 28 32  1  0  0  0
 28 27  1  0  0  0
 23 24  2  0  0  0
 23 25  1  0  0  0
 23 27  1  0  0  0
 23 22  1  0  0  0
 22 21  1  0  0  0
 21  1  1  0  0  0
  1  2  1  0  0  0
  1  3  1  0  0  0
  2  7  1  0  0  0
  3  4  1  0  0  0
  3  5  1  0  0  0
  5  6  1  0  0  0
  5  7  1  0  0  0
  7 10  1  0  0  0
 10 11  1  0  0  0
 10 19  1  0  0  0
 11 12  2  0  0  0
 12 13  1  0  0  0
 13 14  1  0  0  0
 13 19  2  0  0  0
 14 15  1  0  0  0
 14 16  2  0  0  0
 16 17  1  0  0  0
 17 18  2  0  0  0
 18 19  1  0  0  0
 35 37  1  0  0  0
 36 38  1  0  0  0
 30 31  1  0  0  0
 25 26  1  0  0  0
  4  8  1  0  0  0
  6  9  1  0  0  0
 15 20  1  0  0  0
M  END
> <minimizedAffinity>
-9.54379

$$$$
6CZE_ITT_A_301


 38 40  0  0  0  0  0  0  0  0999 V2000
   -7.1672  -35.3516   21.0747 C   0  0  0  0  0  0  0  0  0  0  0  0
   -6.1714  -36.2942   20.3301 O   0  0  0  0  0  0  0  0  0  0  0  0
   -7.6045  -36.0890   22.0244 C   0  0  0  0  0  0  0  0  0  0  0  0
   -8.9500  -35.6884   22.4739 O   0  0  0  0  0  0  0  0  0  0  0  0
   -7.6280  -37.6327   21.4226 C   0  0  0  0  0  0  0  0  0  0  0  0
   -8.9928  -38.0672   21.1959 O   0  0  0  0  0  0  0  0  0  0  0  0
   -7.0049  -37.5942   20.2963 C   0  0  0  0  0  0  0  0  0  0  0  0
   -9.5706  -35.7494   21.7310 H   0  0  0  0  0  0  0  0  0  0  0  0
   -9.4257  -37.4617   20.5739 H   0  0  0  0  0  0  0  0  0  0  0  0
   -6.1712  -38.8217   20.1134 N   0  0  0  0  0  0  0  0  0  0  0  0
   -5.2710  -38.9297   21.1052 C   0  0  0  0  0  0  0  0  0  0  0  0
   -4.5564  -40.0493   20.9056 N   0  0  0  0  0  0  0  0  0  0  0  0
   -5.0289  -40.6321   19.7742 C   0  0  0  0  0  0  0  0  0  0  0  0
   -4.6716  -41.7753   19.1098 C   0  0  0  0  0  0  0  0  0  0  0  0
   -3.6943  -42.7511   19.3597 O   0  0  0  0  0  0  0  0  0  0  0  0
   -5.2981  -42.1481   17.9887 N   0  0  0  0  0  0  0  0  0  0  0  0
   -6.3122  -41.3812   17.4927 C   0  0  0  0  0  0  0  0  0  0  0  0
   -6.6712  -40.2507   18.1382 N   0  0  0  0  0  0  0  0  0  0  0  0
   -6.0212  -39.8823   19.2834 C   0  0  0  0  0  0  0  0  0  0  0  0
   -3.1377  -42.6756   20.1097 H   0  0  0  0  0  0  0  0  0  0  0  0
   -6.4181  -34.1291   21.6815 C   0  0  0  0  0  0  0  0  0  0  0  0
   -5.1848  -33.8156   21.0969 O   0  0  0  0  0  0  0  0  0  0  0  0
   -3.8945  -34.7717   21.3754 P   0  0  0  0  0  0  0  0  0  0  0  0
   -4.1052  -35.6712   22.5804 O   0  0  0  0  0  0  0  0  0  0  0  0
   -3.5739  -35.5751   20.1238 O   0  0  0  0  0  0  0  0  0  0  0  0
   -2.8058  -36.1431   20.2922 H   0  0  0  0  0  0  0  0  0  0  0  0
   -2.6612  -33.7222   21.7205 O   0  0  0  0  0  0  0  0  0  0  0  0
   -1.3646  -33.4989   20.7316 P   0  0  0  0  0  0  0  0  0  0  0  0
   -1.7339  -32.8449   19.4355 O   0  0  0  0  0  0  0  0  0  0  0  0
   -0.3686  -32.5849   21.4259 O   0  0  0  0  0  0  0  0  0  0  0  0
    0.3998  -32.4473   20.8502 H   0  0  0  0  0  0  0  0  0  0  0  0
   -0.8214  -35.0505   20.4163 O   0  0  0  0  0  0  0  0  0  0  0  0
   -0.3605  -35.6586   18.9462 P   0  0  0  0  0  0  0  0  0  0  0  0
    0.6876  -34.7570   18.3516 O   0  0  0  0  0  0  0  0  0  0  0  0
    0.1954  -37.0647   19.0901 O   0  0  0  0  0  0  0  0  0  0  0  0
   -1.5290  -35.7356   18.0033 O   0  0  0  0  0  0  0  0  0  0  0  0
    0.4581  -37.3993   18.2184 H   0  0  0  0  0  0  0  0  0  0  0  0
   -1.2341  -36.0939   17.1515 H   0  0  0  0  0  0  0  0  0  0  0  0
 33 34  2  0  0  0
 33 35  1  0  0  0
 33 36  1  0  0  0
 33 32  1  0  0  0
 28 29  2  0  0  0
 28 30  1  0  0  0
 28 32  1  0  0  0
 28 27  1  0  0  0
 23 24  2  0  0  0
 23 25  1  0  0  0
 23 27  1  0  0  0
 23 22  1  0  0  0
 22 21  1  0  0  0
 21  1  1  0  0  0
  1  2  1  0  0  0
  1  3  1  0  0  0
  2  7  1  0  0  0
  3  4  1  0  0  0
  3  5  1  0  0  0
  5  6  1  0  0  0
  5  7  1  0  0  0
  7 10  1  0  0  0
 10 11  1  0  0  0
 10 19  1  0  0  0
 11 12  2  0  0  0
 12 13  1  0  0  0
 13 14  1  0  0  0
 13 19  2  0  0  0
 14 15  1  0  0  0
 14 16  2  0  0  0
 16 17  1  0  0  0
 17 18  2  0  0  0
 18 19  1  0  0  0
 35 37  1  0  0  0
 36 38  1  0  0  0
 30 31  1  0  0  0
 25 26  1  0  0  0
  4  8  1  0  0  0
  6  9  1  0  0  0
 15 20  1  0  0  0
M  END
> <minimizedAffinity>
-9.35679

$$$$
6CZE_ITT_A_301


 38 40  0  0  0  0  0  0  0  0999 V2000
   -3.7775  -37.8205   21.6661 C   0  0  0  0  0  0  0  0  0  0  0  0
   -4.9401  -37.9293   22.7010 O   0  0  0  0  0  0  0  0  0  0  0  0
   -4.0417  -36.7299   21.0516 C   0  0  0  0  0  0  0  0  0  0  0  0
   -3.4979  -36.7101   19.6816 O   0  0  0  0  0  0  0  0  0  0  0  0
   -5.6946  -36.6173   21.0229 C   0  0  0  0  0  0  0  0  0  0  0  0
   -6.1950  -36.8506   19.6820 O   0  0  0  0  0  0  0  0  0  0  0  0
   -6.1363  -37.5405   21.8046 C   0  0  0  0  0  0  0  0  0  0  0  0
   -3.8755  -37.4449   19.1732 H   0  0  0  0  0  0  0  0  0  0  0  0
   -5.9168  -37.7299   19.3816 H   0  0  0  0  0  0  0  0  0  0  0  0
   -7.3177  -37.0530   22.5805 N   0  0  0  0  0  0  0  0  0  0  0  0
   -7.1172  -35.7913   22.9973 C   0  0  0  0  0  0  0  0  0  0  0  0
   -8.2057  -35.3940   23.6763 N   0  0  0  0  0  0  0  0  0  0  0  0
   -9.0828  -36.4302   23.6732 C   0  0  0  0  0  0  0  0  0  0  0  0
  -10.3330  -36.5791   24.2123 C   0  0  0  0  0  0  0  0  0  0  0  0
  -11.1534  -35.7176   24.9569 O   0  0  0  0  0  0  0  0  0  0  0  0
  -11.0139  -37.7218   24.0743 N   0  0  0  0  0  0  0  0  0  0  0  0
  -10.4597  -38.7613   23.3853 C   0  0  0  0  0  0  0  0  0  0  0  0
   -9.2266  -38.6264   22.8516 N   0  0  0  0  0  0  0  0  0  0  0  0
   -8.5424  -37.4520   23.0011 C   0  0  0  0  0  0  0  0  0  0  0  0
  -10.8574  -34.8536   25.1663 H   0  0  0  0  0  0  0  0  0  0  0  0
   -2.4071  -37.6785   22.3912 C   0  0  0  0  0  0  0  0  0  0  0  0
   -1.7776  -36.4333   22.2709 O   0  0  0  0  0  0  0  0  0  0  0  0
   -0.3058  -36.3377   21.5773 P   0  0  0  0  0  0  0  0  0  0  0  0
    0.6431  -37.3950   22.1133 O   0  0  0  0  0  0  0  0  0  0  0  0
   -0.4468  -36.4242   20.0650 O   0  0  0  0  0  0  0  0  0  0  0  0
    0.4303  -36.3670   19.6547 H   0  0  0  0  0  0  0  0  0  0  0  0
    0.2710  -34.8501   22.0201 O   0  0  0  0  0  0  0  0  0  0  0  0
    0.1329  -33.5114   21.0726 P   0  0  0  0  0  0  0  0  0  0  0  0
    0.9255  -32.3521   21.5936 O   0  0  0  0  0  0  0  0  0  0  0  0
    0.6683  -33.8327   19.6871 O   0  0  0  0  0  0  0  0  0  0  0  0
    0.5911  -33.0490   19.1208 H   0  0  0  0  0  0  0  0  0  0  0  0
   -1.4947  -33.1275   21.1456 O   0  0  0  0  0  0  0  0  0  0  0  0
   -2.6032  -33.2773   19.9239 P   0  0  0  0  0  0  0  0  0  0  0  0
   -3.9559  -33.5532   20.5230 O   0  0  0  0  0  0  0  0  0  0  0  0
   -2.6627  -32.0117   19.0863 O   0  0  0  0  0  0  0  0  0  0  0  0
   -2.2395  -34.4065   19.0004 O   0  0  0  0  0  0  0  0  0  0  0  0
   -3.3170  -32.1227   18.3789 H   0  0  0  0  0  0  0  0  0  0  0  0
   -2.9022  -34.4736   18.2953 H   0  0  0  0  0  0  0  0  0  0  0  0
 33 34  2  0  0  0
 33 35  1  0  0  0
 33 36  1  0  0  0
 33 32  1  0  0  0
 28 29  2  0  0  0
 28 30  1  0  0  0
 28 32  1  0  0  0
 28 27  1  0  0  0
 23 24  2  0  0  0
 23 25  1  0  0  0
 23 27  1  0  0  0
 23 22  1  0  0  0
 22 21  1  0  0  0
 21  1  1  0  0  0
  1  2  1  0  0  0
  1  3  1  0  0  0
  2  7  1  0  0  0
  3  4  1  0  0  0
  3  5  1  0  0  0
  5  6  1  0  0  0
  5  7  1  0  0  0
  7 10  1  0  0  0
 10 11  1  0  0  0
 10 19  1  0  0  0
 11 12  2  0  0  0
 12 13  1  0  0  0
 13 14  1  0  0  0
 13 19  2  0  0  0
 14 15  1  0  0  0
 14 16  2  0  0  0
 16 17  1  0  0  0
 17 18  2  0  0  0
 18 19  1  0  0  0
 35 37  1  0  0  0
 36 38  1  0  0  0
 30 31  1  0  0  0
 25 26  1  0  0  0
  4  8  1  0  0  0
  6  9  1  0  0  0
 15 20  1  0  0  0
M  END
> <minimizedAffinity>
-9.32548

$$$$
6CZE_ITT_A_301


 38 40  0  0  0  0  0  0  0  0999 V2000
   -6.0620  -35.6333   21.5310 C   0  0  0  0  0  0  0  0  0  0  0  0
   -6.5922  -36.6787   22.5608 O   0  0  0  0  0  0  0  0  0  0  0  0
   -6.9172  -34.6857   21.6182 C   0  0  0  0  0  0  0  0  0  0  0  0
   -7.0127  -33.8979   20.3759 O   0  0  0  0  0  0  0  0  0  0  0  0
   -8.3659  -35.4152   21.9571 C   0  0  0  0  0  0  0  0  0  0  0  0
   -9.2428  -35.3599   20.8036 O   0  0  0  0  0  0  0  0  0  0  0  0
   -8.0997  -36.6462   22.2261 C   0  0  0  0  0  0  0  0  0  0  0  0
   -7.2753  -34.4783   19.6444 H   0  0  0  0  0  0  0  0  0  0  0  0
   -8.8167  -35.8010   20.0520 H   0  0  0  0  0  0  0  0  0  0  0  0
   -8.9605  -37.1387   23.3450 N   0  0  0  0  0  0  0  0  0  0  0  0
   -9.1822  -38.4582   23.2207 C   0  0  0  0  0  0  0  0  0  0  0  0
   -9.9467  -38.8558   24.2509 N   0  0  0  0  0  0  0  0  0  0  0  0
  -10.1946  -37.7610   25.0145 C   0  0  0  0  0  0  0  0  0  0  0  0
  -10.9131  -37.5868   26.1674 C   0  0  0  0  0  0  0  0  0  0  0  0
  -11.6465  -38.4736   26.9709 O   0  0  0  0  0  0  0  0  0  0  0  0
  -11.0155  -36.3842   26.7433 N   0  0  0  0  0  0  0  0  0  0  0  0
  -10.3955  -35.3078   26.1782 C   0  0  0  0  0  0  0  0  0  0  0  0
   -9.6865  -35.4675   25.0401 N   0  0  0  0  0  0  0  0  0  0  0  0
   -9.5909  -36.7032   24.4626 C   0  0  0  0  0  0  0  0  0  0  0  0
  -11.7020  -39.3796   26.7385 H   0  0  0  0  0  0  0  0  0  0  0  0
   -4.6636  -35.0995   21.9594 C   0  0  0  0  0  0  0  0  0  0  0  0
   -4.4019  -33.7576   21.6561 O   0  0  0  0  0  0  0  0  0  0  0  0
   -2.9018  -33.3118   21.2007 P   0  0  0  0  0  0  0  0  0  0  0  0
   -2.8602  -32.8600   19.7516 O   0  0  0  0  0  0  0  0  0  0  0  0
   -2.3814  -32.2343   22.1402 O   0  0  0  0  0  0  0  0  0  0  0  0
   -1.4887  -31.9708   21.8671 H   0  0  0  0  0  0  0  0  0  0  0  0
   -1.9938  -34.6892   21.3412 O   0  0  0  0  0  0  0  0  0  0  0  0
   -0.3616  -34.6750   21.5525 P   0  0  0  0  0  0  0  0  0  0  0  0
    0.1086  -33.4838   22.3296 O   0  0  0  0  0  0  0  0  0  0  0  0
    0.0427  -35.9105   22.3397 O   0  0  0  0  0  0  0  0  0  0  0  0
    1.0040  -35.9109   22.4694 H   0  0  0  0  0  0  0  0  0  0  0  0
    0.2492  -34.5789   19.9972 O   0  0  0  0  0  0  0  0  0  0  0  0
   -0.1938  -35.5091   18.7001 P   0  0  0  0  0  0  0  0  0  0  0  0
    0.5505  -35.0339   17.4815 O   0  0  0  0  0  0  0  0  0  0  0  0
    0.1172  -36.9744   18.9511 O   0  0  0  0  0  0  0  0  0  0  0  0
   -1.6709  -35.4049   18.4405 O   0  0  0  0  0  0  0  0  0  0  0  0
   -0.1503  -37.4984   18.1799 H   0  0  0  0  0  0  0  0  0  0  0  0
   -1.9050  -35.9572   17.6781 H   0  0  0  0  0  0  0  0  0  0  0  0
 33 34  2  0  0  0
 33 35  1  0  0  0
 33 36  1  0  0  0
 33 32  1  0  0  0
 28 29  2  0  0  0
 28 30  1  0  0  0
 28 32  1  0  0  0
 28 27  1  0  0  0
 23 24  2  0  0  0
 23 25  1  0  0  0
 23 27  1  0  0  0
 23 22  1  0  0  0
 22 21  1  0  0  0
 21  1  1  0  0  0
  1  2  1  0  0  0
  1  3  1  0  0  0
  2  7  1  0  0  0
  3  4  1  0  0  0
  3  5  1  0  0  0
  5  6  1  0  0  0
  5  7  1  0  0  0
  7 10  1  0  0  0
 10 11  1  0  0  0
 10 19  1  0  0  0
 11 12  2  0  0  0
 12 13  1  0  0  0
 13 14  1  0  0  0
 13 19  2  0  0  0
 14 15  1  0  0  0
 14 16  2  0  0  0
 16 17  1  0  0  0
 17 18  2  0  0  0
 18 19  1  0  0  0
 35 37  1  0  0  0
 36 38  1  0  0  0
 30 31  1  0  0  0
 25 26  1  0  0  0
  4  8  1  0  0  0
  6  9  1  0  0  0
 15 20  1  0  0  0
M  END
> <minimizedAffinity>
-9.19270

$$$$
6CZE_ITT_A_301


 38 40  0  0  0  0  0  0  0  0999 V2000
   -3.5575  -38.2119   20.5206 C   0  0  0  0  0  0  0  0  0  0  0  0
   -4.4988  -39.2495   21.2077 O   0  0  0  0  0  0  0  0  0  0  0  0
   -4.1199  -37.0941   20.7871 C   0  0  0  0  0  0  0  0  0  0  0  0
   -3.8140  -36.0574   19.7847 O   0  0  0  0  0  0  0  0  0  0  0  0
   -5.7470  -37.4052   20.8241 C   0  0  0  0  0  0  0  0  0  0  0  0
   -6.3993  -36.8291   19.6642 O   0  0  0  0  0  0  0  0  0  0  0  0
   -5.8739  -38.6862   20.7867 C   0  0  0  0  0  0  0  0  0  0  0  0
   -4.1194  -36.3512   18.9122 H   0  0  0  0  0  0  0  0  0  0  0  0
   -6.0088  -37.1988   18.8568 H   0  0  0  0  0  0  0  0  0  0  0  0
   -6.9888  -39.1311   21.6780 N   0  0  0  0  0  0  0  0  0  0  0  0
   -7.0839  -38.3247   22.7487 C   0  0  0  0  0  0  0  0  0  0  0  0
   -8.1028  -38.7549   23.5108 N   0  0  0  0  0  0  0  0  0  0  0  0
   -8.6362  -39.8406   22.8946 C   0  0  0  0  0  0  0  0  0  0  0  0
   -9.6773  -40.6670   23.2248 C   0  0  0  0  0  0  0  0  0  0  0  0
  -10.5634  -40.6876   24.3129 O   0  0  0  0  0  0  0  0  0  0  0  0
  -10.0194  -41.6951   22.4409 N   0  0  0  0  0  0  0  0  0  0  0  0
   -9.3239  -41.9303   21.2906 C   0  0  0  0  0  0  0  0  0  0  0  0
   -8.2940  -41.1233   20.9564 N   0  0  0  0  0  0  0  0  0  0  0  0
   -7.9558  -40.0761   21.7679 C   0  0  0  0  0  0  0  0  0  0  0  0
  -10.4925  -40.0408   24.9872 H   0  0  0  0  0  0  0  0  0  0  0  0
   -2.1425  -38.2386   21.1695 C   0  0  0  0  0  0  0  0  0  0  0  0
   -1.4738  -37.0096   21.2295 O   0  0  0  0  0  0  0  0  0  0  0  0
    0.0848  -36.9162   20.7620 P   0  0  0  0  0  0  0  0  0  0  0  0
    1.0279  -37.4548   21.8231 O   0  0  0  0  0  0  0  0  0  0  0  0
    0.2640  -37.6358   19.4336 O   0  0  0  0  0  0  0  0  0  0  0  0
    1.1922  -37.5788   19.1577 H   0  0  0  0  0  0  0  0  0  0  0  0
    0.3735  -35.2955   20.5852 O   0  0  0  0  0  0  0  0  0  0  0  0
   -0.3455  -34.3731   19.4272 P   0  0  0  0  0  0  0  0  0  0  0  0
    0.6406  -33.7793   18.4686 O   0  0  0  0  0  0  0  0  0  0  0  0
   -1.2864  -35.2483   18.6159 O   0  0  0  0  0  0  0  0  0  0  0  0
   -1.7153  -34.7129   17.9301 H   0  0  0  0  0  0  0  0  0  0  0  0
   -1.0734  -33.1351   20.2869 O   0  0  0  0  0  0  0  0  0  0  0  0
   -2.4081  -33.2571   21.2603 P   0  0  0  0  0  0  0  0  0  0  0  0
   -2.4624  -32.0574   22.1673 O   0  0  0  0  0  0  0  0  0  0  0  0
   -3.6793  -33.3310   20.4323 O   0  0  0  0  0  0  0  0  0  0  0  0
   -2.3509  -34.5019   22.1014 O   0  0  0  0  0  0  0  0  0  0  0  0
   -4.4458  -33.4019   21.0224 H   0  0  0  0  0  0  0  0  0  0  0  0
   -3.1416  -34.5504   22.6613 H   0  0  0  0  0  0  0  0  0  0  0  0
 33 34  2  0  0  0
 33 35  1  0  0  0
 33 36  1  0  0  0
 33 32  1  0  0  0
 28 29  2  0  0  0
 28 30  1  0  0  0
 28 32  1  0  0  0
 28 27  1  0  0  0
 23 24  2  0  0  0
 23 25  1  0  0  0
 23 27  1  0  0  0
 23 22  1  0  0  0
 22 21  1  0  0  0
 21  1  1  0  0  0
  1  2  1  0  0  0
  1  3  1  0  0  0
  2  7  1  0  0  0
  3  4  1  0  0  0
  3  5  1  0  0  0
  5  6  1  0  0  0
  5  7  1  0  0  0
  7 10  1  0  0  0
 10 11  1  0  0  0
 10 19  1  0  0  0
 11 12  2  0  0  0
 12 13  1  0  0  0
 13 14  1  0  0  0
 13 19  2  0  0  0
 14 15  1  0  0  0
 14 16  2  0  0  0
 16 17  1  0  0  0
 17 18  2  0  0  0
 18 19  1  0  0  0
 35 37  1  0  0  0
 36 38  1  0  0  0
 30 31  1  0  0  0
 25 26  1  0  0  0
  4  8  1  0  0  0
  6  9  1  0  0  0
 15 20  1  0  0  0
M  END
> <minimizedAffinity>
-9.17758

$$$$
6CZE_ITT_A_301


 38 40  0  0  0  0  0  0  0  0999 V2000
   -3.9568  -37.8283   20.7087 C   0  0  0  0  0  0  0  0  0  0  0  0
   -3.3763  -36.6205   21.5079 O   0  0  0  0  0  0  0  0  0  0  0  0
   -2.9171  -38.3392   20.1657 C   0  0  0  0  0  0  0  0  0  0  0  0
   -3.2310  -39.0638   18.9209 O   0  0  0  0  0  0  0  0  0  0  0  0
   -1.8984  -37.0691   19.8583 C   0  0  0  0  0  0  0  0  0  0  0  0
   -1.8363  -36.8029   18.4342 O   0  0  0  0  0  0  0  0  0  0  0  0
   -2.4009  -36.0458   20.4572 C   0  0  0  0  0  0  0  0  0  0  0  0
   -3.6374  -38.4539   18.2855 H   0  0  0  0  0  0  0  0  0  0  0  0
   -2.7259  -36.6025   18.1037 H   0  0  0  0  0  0  0  0  0  0  0  0
   -1.3209  -35.2037   21.0571 N   0  0  0  0  0  0  0  0  0  0  0  0
   -1.7016  -33.9159   21.1044 C   0  0  0  0  0  0  0  0  0  0  0  0
   -0.7080  -33.2030   21.6598 N   0  0  0  0  0  0  0  0  0  0  0  0
    0.2937  -34.0705   21.9551 C   0  0  0  0  0  0  0  0  0  0  0  0
    1.5276  -33.8926   22.5223 C   0  0  0  0  0  0  0  0  0  0  0  0
    2.1960  -32.7553   23.0012 O   0  0  0  0  0  0  0  0  0  0  0  0
    2.3564  -34.9247   22.7125 N   0  0  0  0  0  0  0  0  0  0  0  0
    1.9725  -36.1795   22.3379 C   0  0  0  0  0  0  0  0  0  0  0  0
    0.7590  -36.3661   21.7754 N   0  0  0  0  0  0  0  0  0  0  0  0
   -0.0776  -35.3012   21.5871 C   0  0  0  0  0  0  0  0  0  0  0  0
    1.7816  -31.9159   22.9595 H   0  0  0  0  0  0  0  0  0  0  0  0
   -4.5935  -38.8714   21.6734 C   0  0  0  0  0  0  0  0  0  0  0  0
   -5.9821  -38.7879   21.8343 O   0  0  0  0  0  0  0  0  0  0  0  0
   -6.6006  -37.8961   23.0504 P   0  0  0  0  0  0  0  0  0  0  0  0
   -6.9166  -38.7431   24.2704 O   0  0  0  0  0  0  0  0  0  0  0  0
   -5.6468  -36.7597   23.3872 O   0  0  0  0  0  0  0  0  0  0  0  0
   -6.0170  -36.2306   24.1110 H   0  0  0  0  0  0  0  0  0  0  0  0
   -8.0235  -37.2983   22.4508 O   0  0  0  0  0  0  0  0  0  0  0  0
   -8.0945  -36.0880   21.3376 P   0  0  0  0  0  0  0  0  0  0  0  0
   -7.1632  -36.3091   20.1855 O   0  0  0  0  0  0  0  0  0  0  0  0
   -9.5025  -36.0254   20.7690 O   0  0  0  0  0  0  0  0  0  0  0  0
   -9.5542  -35.3143   20.1113 H   0  0  0  0  0  0  0  0  0  0  0  0
   -7.5961  -34.7304   22.1803 O   0  0  0  0  0  0  0  0  0  0  0  0
   -6.4824  -33.6097   21.6828 P   0  0  0  0  0  0  0  0  0  0  0  0
   -5.1089  -34.0735   22.0869 O   0  0  0  0  0  0  0  0  0  0  0  0
   -6.5368  -33.4214   20.1767 O   0  0  0  0  0  0  0  0  0  0  0  0
   -6.7483  -32.2693   22.3096 O   0  0  0  0  0  0  0  0  0  0  0  0
   -5.8774  -32.7622   19.9093 H   0  0  0  0  0  0  0  0  0  0  0  0
   -6.0844  -31.6318   22.0034 H   0  0  0  0  0  0  0  0  0  0  0  0
 33 34  2  0  0  0
 33 35  1  0  0  0
 33 36  1  0  0  0
 33 32  1  0  0  0
 28 29  2  0  0  0
 28 30  1  0  0  0
 28 32  1  0  0  0
 28 27  1  0  0  0
 23 24  2  0  0  0
 23 25  1  0  0  0
 23 27  1  0  0  0
 23 22  1  0  0  0
 22 21  1  0  0  0
 21  1  1  0  0  0
  1  2  1  0  0  0
  1  3  1  0  0  0
  2  7  1  0  0  0
  3  4  1  0  0  0
  3  5  1  0  0  0
  5  6  1  0  0  0
  5  7  1  0  0  0
  7 10  1  0  0  0
 10 11  1  0  0  0
 10 19  1  0  0  0
 11 12  2  0  0  0
 12 13  1  0  0  0
 13 14  1  0  0  0
 13 19  2  0  0  0
 14 15  1  0  0  0
 14 16  2  0  0  0
 16 17  1  0  0  0
 17 18  2  0  0  0
 18 19  1  0  0  0
 35 37  1  0  0  0
 36 38  1  0  0  0
 30 31  1  0  0  0
 25 26  1  0  0  0
  4  8  1  0  0  0
  6  9  1  0  0  0
 15 20  1  0  0  0
M  END
> <minimizedAffinity>
-9.09199

$$$$
6CZE_ITT_A_301


 38 40  0  0  0  0  0  0  0  0999 V2000
   -4.3032  -38.1775   20.5736 C   0  0  0  0  0  0  0  0  0  0  0  0
   -4.6432  -39.6775   20.8358 O   0  0  0  0  0  0  0  0  0  0  0  0
   -5.4462  -37.6074   20.6473 C   0  0  0  0  0  0  0  0  0  0  0  0
   -5.5063  -36.3635   19.8584 O   0  0  0  0  0  0  0  0  0  0  0  0
   -6.5395  -38.7128   20.0743 C   0  0  0  0  0  0  0  0  0  0  0  0
   -7.0351  -38.3075   18.7732 O   0  0  0  0  0  0  0  0  0  0  0  0
   -5.9034  -39.8263   19.9553 C   0  0  0  0  0  0  0  0  0  0  0  0
   -5.3252  -36.5626   18.9265 H   0  0  0  0  0  0  0  0  0  0  0  0
   -6.2917  -38.2248   18.1555 H   0  0  0  0  0  0  0  0  0  0  0  0
   -6.7711  -40.9743   20.3609 N   0  0  0  0  0  0  0  0  0  0  0  0
   -7.1859  -40.8236   21.6301 C   0  0  0  0  0  0  0  0  0  0  0  0
   -7.9690  -41.8685   21.9443 N   0  0  0  0  0  0  0  0  0  0  0  0
   -8.0318  -42.6683   20.8491 C   0  0  0  0  0  0  0  0  0  0  0  0
   -8.6760  -43.8533   20.6108 C   0  0  0  0  0  0  0  0  0  0  0  0
   -9.4999  -44.6620   21.4089 O   0  0  0  0  0  0  0  0  0  0  0  0
   -8.5824  -44.4650   19.4253 N   0  0  0  0  0  0  0  0  0  0  0  0
   -7.8343  -43.9042   18.4311 C   0  0  0  0  0  0  0  0  0  0  0  0
   -7.1929  -42.7373   18.6558 N   0  0  0  0  0  0  0  0  0  0  0  0
   -7.2978  -42.1236   19.8732 C   0  0  0  0  0  0  0  0  0  0  0  0
   -9.6943  -44.4078   22.2896 H   0  0  0  0  0  0  0  0  0  0  0  0
   -3.3808  -37.6181   21.6963 C   0  0  0  0  0  0  0  0  0  0  0  0
   -2.5107  -36.5886   21.3166 O   0  0  0  0  0  0  0  0  0  0  0  0
   -0.9258  -36.6971   21.6813 P   0  0  0  0  0  0  0  0  0  0  0  0
   -0.6360  -36.2249   23.0951 O   0  0  0  0  0  0  0  0  0  0  0  0
   -0.4458  -38.1230   21.4557 O   0  0  0  0  0  0  0  0  0  0  0  0
    0.4974  -38.1848   21.6734 H   0  0  0  0  0  0  0  0  0  0  0  0
   -0.1804  -35.6622   20.6254 O   0  0  0  0  0  0  0  0  0  0  0  0
   -0.6457  -35.4859   19.0565 P   0  0  0  0  0  0  0  0  0  0  0  0
    0.4846  -35.6857   18.0941 O   0  0  0  0  0  0  0  0  0  0  0  0
   -1.6974  -36.5348   18.7351 O   0  0  0  0  0  0  0  0  0  0  0  0
   -1.9781  -36.4388   17.8116 H   0  0  0  0  0  0  0  0  0  0  0  0
   -1.1600  -33.8960   18.9608 O   0  0  0  0  0  0  0  0  0  0  0  0
   -2.4321  -33.2160   19.7752 P   0  0  0  0  0  0  0  0  0  0  0  0
   -1.9666  -32.7931   21.1424 O   0  0  0  0  0  0  0  0  0  0  0  0
   -2.9767  -32.0131   19.0248 O   0  0  0  0  0  0  0  0  0  0  0  0
   -3.5620  -34.1961   19.9265 O   0  0  0  0  0  0  0  0  0  0  0  0
   -3.7191  -31.6324   19.5195 H   0  0  0  0  0  0  0  0  0  0  0  0
   -4.2931  -33.7752   20.4054 H   0  0  0  0  0  0  0  0  0  0  0  0
 33 34  2  0  0  0
 33 35  1  0  0  0
 33 36  1  0  0  0
 33 32  1  0  0  0
 28 29  2  0  0  0
 28 30  1  0  0  0
 28 32  1  0  0  0
 28 27  1  0  0  0
 23 24  2  0  0  0
 23 25  1  0  0  0
 23 27  1  0  0  0
 23 22  1  0  0  0
 22 21  1  0  0  0
 21  1  1  0  0  0
  1  2  1  0  0  0
  1  3  1  0  0  0
  2  7  1  0  0  0
  3  4  1  0  0  0
  3  5  1  0  0  0
  5  6  1  0  0  0
  5  7  1  0  0  0
  7 10  1  0  0  0
 10 11  1  0  0  0
 10 19  1  0  0  0
 11 12  2  0  0  0
 12 13  1  0  0  0
 13 14  1  0  0  0
 13 19  2  0  0  0
 14 15  1  0  0  0
 14 16  2  0  0  0
 16 17  1  0  0  0
 17 18  2  0  0  0
 18 19  1  0  0  0
 35 37  1  0  0  0
 36 38  1  0  0  0
 30 31  1  0  0  0
 25 26  1  0  0  0
  4  8  1  0  0  0
  6  9  1  0  0  0
 15 20  1  0  0  0
M  END
> <minimizedAffinity>
-9.02856

$$$$
6CZE_ITT_A_301


 38 40  0  0  0  0  0  0  0  0999 V2000
   -6.3762  -35.7713   22.8022 C   0  0  0  0  0  0  0  0  0  0  0  0
   -5.0609  -36.6070   22.8809 O   0  0  0  0  0  0  0  0  0  0  0  0
   -6.2298  -35.1077   21.7181 C   0  0  0  0  0  0  0  0  0  0  0  0
   -6.9870  -33.8429   21.7261 O   0  0  0  0  0  0  0  0  0  0  0  0
   -4.6048  -34.8118   21.5862 C   0  0  0  0  0  0  0  0  0  0  0  0
   -4.3232  -33.4112   21.8343 O   0  0  0  0  0  0  0  0  0  0  0  0
   -4.0301  -35.5245   22.4919 C   0  0  0  0  0  0  0  0  0  0  0  0
   -6.6856  -33.2903   22.4641 H   0  0  0  0  0  0  0  0  0  0  0  0
   -4.6335  -33.1712   22.7215 H   0  0  0  0  0  0  0  0  0  0  0  0
   -2.7464  -36.0936   21.9783 N   0  0  0  0  0  0  0  0  0  0  0  0
   -2.2234  -36.9519   22.8703 C   0  0  0  0  0  0  0  0  0  0  0  0
   -1.0822  -37.4447   22.3617 N   0  0  0  0  0  0  0  0  0  0  0  0
   -0.9074  -36.8772   21.1408 C   0  0  0  0  0  0  0  0  0  0  0  0
    0.0752  -37.0111   20.1961 C   0  0  0  0  0  0  0  0  0  0  0  0
    1.2481  -37.7804   20.1504 O   0  0  0  0  0  0  0  0  0  0  0  0
    0.0268  -36.3294   19.0466 N   0  0  0  0  0  0  0  0  0  0  0  0
   -1.0171  -35.4846   18.8038 C   0  0  0  0  0  0  0  0  0  0  0  0
   -1.9903  -35.3430   19.7293 N   0  0  0  0  0  0  0  0  0  0  0  0
   -1.9271  -36.0464   20.9001 C   0  0  0  0  0  0  0  0  0  0  0  0
    1.4713  -38.3378   20.8698 H   0  0  0  0  0  0  0  0  0  0  0  0
   -7.6141  -36.7055   22.6652 C   0  0  0  0  0  0  0  0  0  0  0  0
   -7.3372  -38.0706   22.5207 O   0  0  0  0  0  0  0  0  0  0  0  0
   -7.3769  -38.7488   21.0391 P   0  0  0  0  0  0  0  0  0  0  0  0
   -8.1400  -40.0615   21.0370 O   0  0  0  0  0  0  0  0  0  0  0  0
   -7.9576  -37.7597   20.0396 O   0  0  0  0  0  0  0  0  0  0  0  0
   -7.9801  -38.1656   19.1589 H   0  0  0  0  0  0  0  0  0  0  0  0
   -5.7922  -39.0691   20.6816 O   0  0  0  0  0  0  0  0  0  0  0  0
   -4.9480  -40.3082   21.3603 P   0  0  0  0  0  0  0  0  0  0  0  0
   -3.5253  -39.9433   21.6549 O   0  0  0  0  0  0  0  0  0  0  0  0
   -5.5976  -40.6790   22.6832 O   0  0  0  0  0  0  0  0  0  0  0  0
   -5.1066  -41.4093   23.0911 H   0  0  0  0  0  0  0  0  0  0  0  0
   -4.9660  -41.5029   20.1881 O   0  0  0  0  0  0  0  0  0  0  0  0
   -5.3167  -41.3080   18.5810 P   0  0  0  0  0  0  0  0  0  0  0  0
   -4.9668  -42.5748   17.8477 O   0  0  0  0  0  0  0  0  0  0  0  0
   -6.7883  -40.9903   18.3808 O   0  0  0  0  0  0  0  0  0  0  0  0
   -4.5307  -40.1704   17.9910 O   0  0  0  0  0  0  0  0  0  0  0  0
   -6.9696  -40.8807   17.4343 H   0  0  0  0  0  0  0  0  0  0  0  0
   -4.7531  -40.0767   17.0515 H   0  0  0  0  0  0  0  0  0  0  0  0
 33 34  2  0  0  0
 33 35  1  0  0  0
 33 36  1  0  0  0
 33 32  1  0  0  0
 28 29  2  0  0  0
 28 30  1  0  0  0
 28 32  1  0  0  0
 28 27  1  0  0  0
 23 24  2  0  0  0
 23 25  1  0  0  0
 23 27  1  0  0  0
 23 22  1  0  0  0
 22 21  1  0  0  0
 21  1  1  0  0  0
  1  2  1  0  0  0
  1  3  1  0  0  0
  2  7  1  0  0  0
  3  4  1  0  0  0
  3  5  1  0  0  0
  5  6  1  0  0  0
  5  7  1  0  0  0
  7 10  1  0  0  0
 10 11  1  0  0  0
 10 19  1  0  0  0
 11 12  2  0  0  0
 12 13  1  0  0  0
 13 14  1  0  0  0
 13 19  2  0  0  0
 14 15  1  0  0  0
 14 16  2  0  0  0
 16 17  1  0  0  0
 17 18  2  0  0  0
 18 19  1  0  0  0
 35 37  1  0  0  0
 36 38  1  0  0  0
 30 31  1  0  0  0
 25 26  1  0  0  0
  4  8  1  0  0  0
  6  9  1  0  0  0
 15 20  1  0  0  0
M  END
> <minimizedAffinity>
-8.97783

$$$$
6CZE_ITT_A_301


 38 40  0  0  0  0  0  0  0  0999 V2000
   -4.2752  -35.7113   20.9221 C   0  0  0  0  0  0  0  0  0  0  0  0
   -5.5013  -36.5828   21.3362 O   0  0  0  0  0  0  0  0  0  0  0  0
   -4.4583  -34.6284   21.5785 C   0  0  0  0  0  0  0  0  0  0  0  0
   -3.8327  -33.4632   20.9273 O   0  0  0  0  0  0  0  0  0  0  0  0
   -6.1007  -34.4300   21.6723 C   0  0  0  0  0  0  0  0  0  0  0  0
   -6.5284  -33.3376   20.8199 O   0  0  0  0  0  0  0  0  0  0  0  0
   -6.6250  -35.5268   21.2473 C   0  0  0  0  0  0  0  0  0  0  0  0
   -4.2080  -33.3484   20.0402 H   0  0  0  0  0  0  0  0  0  0  0  0
   -6.2679  -33.5213   19.9038 H   0  0  0  0  0  0  0  0  0  0  0  0
   -7.8305  -35.8825   22.0570 N   0  0  0  0  0  0  0  0  0  0  0  0
   -8.9325  -35.8707   21.2879 C   0  0  0  0  0  0  0  0  0  0  0  0
   -9.9838  -36.2069   22.0531 N   0  0  0  0  0  0  0  0  0  0  0  0
   -9.5147  -36.4266   23.3080 C   0  0  0  0  0  0  0  0  0  0  0  0
  -10.1378  -36.7866   24.4733 C   0  0  0  0  0  0  0  0  0  0  0  0
  -11.4786  -37.0578   24.7872 O   0  0  0  0  0  0  0  0  0  0  0  0
   -9.4464  -36.9432   25.6073 N   0  0  0  0  0  0  0  0  0  0  0  0
   -8.0965  -36.7430   25.6105 C   0  0  0  0  0  0  0  0  0  0  0  0
   -7.4721  -36.3855   24.4677 N   0  0  0  0  0  0  0  0  0  0  0  0
   -8.1923  -36.2290   23.3160 C   0  0  0  0  0  0  0  0  0  0  0  0
  -12.1358  -37.0033   24.1216 H   0  0  0  0  0  0  0  0  0  0  0  0
   -2.9463  -36.3734   21.3907 C   0  0  0  0  0  0  0  0  0  0  0  0
   -2.0972  -35.5651   22.1569 O   0  0  0  0  0  0  0  0  0  0  0  0
   -0.7029  -36.1807   22.7345 P   0  0  0  0  0  0  0  0  0  0  0  0
   -0.8572  -36.6996   24.1531 O   0  0  0  0  0  0  0  0  0  0  0  0
   -0.1926  -37.2616   21.7934 O   0  0  0  0  0  0  0  0  0  0  0  0
    0.6370  -37.6262   22.1393 H   0  0  0  0  0  0  0  0  0  0  0  0
    0.3429  -34.8972   22.7621 O   0  0  0  0  0  0  0  0  0  0  0  0
    0.9614  -34.2094   21.4008 P   0  0  0  0  0  0  0  0  0  0  0  0
    0.5143  -32.7916   21.2170 O   0  0  0  0  0  0  0  0  0  0  0  0
    2.4774  -34.1902   21.5053 O   0  0  0  0  0  0  0  0  0  0  0  0
    2.8515  -33.7862   20.7067 H   0  0  0  0  0  0  0  0  0  0  0  0
    0.3360  -35.1371   20.1559 O   0  0  0  0  0  0  0  0  0  0  0  0
   -0.5465  -34.5944   18.8635 P   0  0  0  0  0  0  0  0  0  0  0  0
    0.3948  -34.0450   17.8257 O   0  0  0  0  0  0  0  0  0  0  0  0
   -1.3742  -35.7164   18.2613 O   0  0  0  0  0  0  0  0  0  0  0  0
   -1.5010  -33.5097   19.2788 O   0  0  0  0  0  0  0  0  0  0  0  0
   -1.8812  -35.3757   17.5078 H   0  0  0  0  0  0  0  0  0  0  0  0
   -2.0049  -33.2092   18.5063 H   0  0  0  0  0  0  0  0  0  0  0  0
 33 34  2  0  0  0
 33 35  1  0  0  0
 33 36  1  0  0  0
 33 32  1  0  0  0
 28 29  2  0  0  0
 28 30  1  0  0  0
 28 32  1  0  0  0
 28 27  1  0  0  0
 23 24  2  0  0  0
 23 25  1  0  0  0
 23 27  1  0  0  0
 23 22  1  0  0  0
 22 21  1  0  0  0
 21  1  1  0  0  0
  1  2  1  0  0  0
  1  3  1  0  0  0
  2  7  1  0  0  0
  3  4  1  0  0  0
  3  5  1  0  0  0
  5  6  1  0  0  0
  5  7  1  0  0  0
  7 10  1  0  0  0
 10 11  1  0  0  0
 10 19  1  0  0  0
 11 12  2  0  0  0
 12 13  1  0  0  0
 13 14  1  0  0  0
 13 19  2  0  0  0
 14 15  1  0  0  0
 14 16  2  0  0  0
 16 17  1  0  0  0
 17 18  2  0  0  0
 18 19  1  0  0  0
 35 37  1  0  0  0
 36 38  1  0  0  0
 30 31  1  0  0  0
 25 26  1  0  0  0
  4  8  1  0  0  0
  6  9  1  0  0  0
 15 20  1  0  0  0
M  END
> <minimizedAffinity>
-8.95175

$$$$
