6DJ2_AB1_B_201


 50 53  0  0  0  0  0  0  0  0999 V2000
   12.2755   19.0848   66.0468 C   0  0  0  0  0  0  0  0  0  0  0  0
   13.0446   18.7664   64.7813 C   0  0  0  0  0  0  0  0  0  0  0  0
   14.2313   18.0533   65.1399 O   0  0  0  0  0  0  0  0  0  0  0  0
   14.8007   18.6238   65.6796 H   0  0  0  0  0  0  0  0  0  0  0  0
   13.4524   19.9555   63.9130 C   0  0  0  0  0  0  0  0  0  0  0  0
   14.1601   20.9994   64.6834 N   0  0  0  0  0  0  0  0  0  0  0  0
   13.5335   22.1574   64.9953 C   0  0  0  0  0  0  0  0  0  0  0  0
   12.3291   22.3914   64.7880 O   0  0  0  0  0  0  0  0  0  0  0  0
   15.0901   20.8519   64.9706 H   0  0  0  0  0  0  0  0  0  0  0  0
   14.3872   23.2429   65.6460 C   0  0  0  0  0  0  0  0  0  0  0  0
   15.5956   22.6352   66.1683 O   0  0  0  0  0  0  0  0  0  0  0  0
   16.4811   23.6105   66.4898 C   0  0  0  0  0  0  0  0  0  0  0  0
   16.3690   24.2079   67.7337 C   0  0  0  0  0  0  0  0  0  0  0  0
   17.3134   25.1808   68.0294 C   0  0  0  0  0  0  0  0  0  0  0  0
   18.2835   25.5791   67.1283 C   0  0  0  0  0  0  0  0  0  0  0  0
   18.3820   24.9587   65.8742 C   0  0  0  0  0  0  0  0  0  0  0  0
   17.4614   23.9366   65.5632 C   0  0  0  0  0  0  0  0  0  0  0  0
   17.5130   23.3610   64.2975 C   0  0  0  0  0  0  0  0  0  0  0  0
   15.4471   23.8264   68.7483 C   0  0  0  0  0  0  0  0  0  0  0  0
   14.3660   19.5446   62.7742 C   0  0  0  0  0  0  0  0  0  0  0  0
   14.6498   20.5606   61.8445 C   0  0  0  0  0  0  0  0  0  0  0  0
   15.8852   21.1695   61.8233 C   0  0  0  0  0  0  0  0  0  0  0  0
   16.2712   22.1739   60.9668 C   0  0  0  0  0  0  0  0  0  0  0  0
   15.3064   22.6215   60.0294 C   0  0  0  0  0  0  0  0  0  0  0  0
   14.0973   21.9936   59.9643 C   0  0  0  0  0  0  0  0  0  0  0  0
   13.7557   20.9850   60.8610 C   0  0  0  0  0  0  0  0  0  0  0  0
   10.7613   19.2183   65.8847 C   0  0  0  0  0  0  0  0  0  0  0  0
    9.6100   18.3521   63.8965 C   0  0  0  0  0  0  0  0  0  0  0  0
   10.2466   18.1237   65.0403 N   0  0  0  0  0  0  0  0  0  0  0  0
    9.4246   19.4549   63.3675 O   0  0  0  0  0  0  0  0  0  0  0  0
   10.3791   17.1934   65.3338 H   0  0  0  0  0  0  0  0  0  0  0  0
    9.1133   17.1029   63.1824 C   0  0  0  0  0  0  0  0  0  0  0  0
    5.0043   16.2654   64.4051 C   0  0  0  0  0  0  0  0  0  0  0  0
    6.6272   17.6633   63.1466 C   0  0  0  0  0  0  0  0  0  0  0  0
    7.7395   16.8407   63.6919 N   0  0  0  0  0  0  0  0  0  0  0  0
    7.4922   15.9245   64.6243 C   0  0  0  0  0  0  0  0  0  0  0  0
    6.2063   15.6652   65.0392 N   0  0  0  0  0  0  0  0  0  0  0  0
    8.4418   15.2867   65.1172 O   0  0  0  0  0  0  0  0  0  0  0  0
    5.3557   16.8364   63.0402 C   0  0  0  0  0  0  0  0  0  0  0  0
    6.0758   15.0495   65.7962 H   0  0  0  0  0  0  0  0  0  0  0  0
    9.1252   17.2021   61.6639 C   0  0  0  0  0  0  0  0  0  0  0  0
   10.5702   17.4965   61.2410 C   0  0  0  0  0  0  0  0  0  0  0  0
    8.7078   15.8642   61.0557 C   0  0  0  0  0  0  0  0  0  0  0  0
   10.0720   19.1601   67.2430 C   0  0  0  0  0  0  0  0  0  0  0  0
    6.5036   19.8892   66.9140 C   0  0  0  0  0  0  0  0  0  0  0  0
    5.8769   18.7508   67.3926 C   0  0  0  0  0  0  0  0  0  0  0  0
    6.6876   17.6975   67.8380 C   0  0  0  0  0  0  0  0  0  0  0  0
    8.0808   17.8571   67.8141 C   0  0  0  0  0  0  0  0  0  0  0  0
    8.6974   18.9645   67.2488 C   0  0  0  0  0  0  0  0  0  0  0  0
    7.8618   20.0243   66.8462 C   0  0  0  0  0  0  0  0  0  0  0  0
 33 37  1  0  0  0
 33 39  1  0  0  0
 34 35  1  0  0  0
 34 39  1  0  0  0
 35 36  1  0  0  0
 35 32  1  0  0  0
 36 37  1  0  0  0
 36 38  2  0  0  0
 21 22  2  0  0  0
 21 26  1  0  0  0
 21 20  1  0  0  0
 22 23  1  0  0  0
 23 24  2  0  0  0
 24 25  1  0  0  0
 25 26  2  0  0  0
 32 28  1  0  0  0
 32 41  1  0  0  0
 28 29  1  0  0  0
 28 30  2  0  0  0
 29 27  1  0  0  0
 27 44  1  0  0  0
 27  1  1  0  0  0
 41 42  1  0  0  0
 41 43  1  0  0  0
 45 46  2  0  0  0
 45 50  1  0  0  0
 46 47  1  0  0  0
 47 48  2  0  0  0
 48 49  1  0  0  0
 49 50  2  0  0  0
 49 44  1  0  0  0
  1  2  1  0  0  0
  2  5  1  0  0  0
  2  3  1  0  0  0
  5  6  1  0  0  0
  5 20  1  0  0  0
  6  7  1  0  0  0
  7 10  1  0  0  0
  7  8  2  0  0  0
 10 11  1  0  0  0
 11 12  1  0  0  0
 12 13  2  0  0  0
 12 17  1  0  0  0
 13 14  1  0  0  0
 13 19  1  0  0  0
 14 15  2  0  0  0
 15 16  1  0  0  0
 16 17  2  0  0  0
 17 18  1  0  0  0
 37 40  1  0  0  0
 29 31  1  0  0  0
  6  9  1  0  0  0
  3  4  1  0  0  0
M  END
> <minimizedAffinity>
-11.28916

$$$$
6DJ2_AB1_B_201


 50 53  0  0  0  0  0  0  0  0999 V2000
   12.3995   22.2444   65.5211 C   0  0  0  0  0  0  0  0  0  0  0  0
   12.3205   20.8788   66.1718 C   0  0  0  0  0  0  0  0  0  0  0  0
   13.3788   20.0683   65.6535 O   0  0  0  0  0  0  0  0  0  0  0  0
   13.2474   19.9349   64.7017 H   0  0  0  0  0  0  0  0  0  0  0  0
   11.0100   20.1136   65.9957 C   0  0  0  0  0  0  0  0  0  0  0  0
   10.9928   19.3022   64.7606 N   0  0  0  0  0  0  0  0  0  0  0  0
   10.2690   19.7060   63.6911 C   0  0  0  0  0  0  0  0  0  0  0  0
    9.6840   20.8006   63.6017 O   0  0  0  0  0  0  0  0  0  0  0  0
   11.5095   18.4654   64.7158 H   0  0  0  0  0  0  0  0  0  0  0  0
   10.1748   18.7297   62.5213 C   0  0  0  0  0  0  0  0  0  0  0  0
   10.3543   17.3814   63.0236 O   0  0  0  0  0  0  0  0  0  0  0  0
    9.3797   16.5851   62.5190 C   0  0  0  0  0  0  0  0  0  0  0  0
    9.4872   16.1804   61.1994 C   0  0  0  0  0  0  0  0  0  0  0  0
    8.4816   15.3442   60.7350 C   0  0  0  0  0  0  0  0  0  0  0  0
    7.4022   14.9695   61.5135 C   0  0  0  0  0  0  0  0  0  0  0  0
    7.3139   15.3878   62.8494 C   0  0  0  0  0  0  0  0  0  0  0  0
    8.3442   16.2037   63.3607 C   0  0  0  0  0  0  0  0  0  0  0  0
    8.2310   16.6744   64.6652 C   0  0  0  0  0  0  0  0  0  0  0  0
   10.5862   16.4622   60.3405 C   0  0  0  0  0  0  0  0  0  0  0  0
   10.7387   19.1713   67.1528 C   0  0  0  0  0  0  0  0  0  0  0  0
    9.3836   18.8568   67.3573 C   0  0  0  0  0  0  0  0  0  0  0  0
    9.0207   17.6967   68.0052 C   0  0  0  0  0  0  0  0  0  0  0  0
    7.7324   17.2851   68.2547 C   0  0  0  0  0  0  0  0  0  0  0  0
    6.6905   18.1308   67.7972 C   0  0  0  0  0  0  0  0  0  0  0  0
    7.0055   19.3257   67.2199 C   0  0  0  0  0  0  0  0  0  0  0  0
    8.3283   19.6905   66.9854 C   0  0  0  0  0  0  0  0  0  0  0  0
   13.8051   22.7248   65.1600 C   0  0  0  0  0  0  0  0  0  0  0  0
   14.6415   21.8366   63.0293 C   0  0  0  0  0  0  0  0  0  0  0  0
   13.9624   22.7654   63.6938 N   0  0  0  0  0  0  0  0  0  0  0  0
   15.1570   20.8200   63.5099 O   0  0  0  0  0  0  0  0  0  0  0  0
   13.5506   23.5050   63.1912 H   0  0  0  0  0  0  0  0  0  0  0  0
   14.7340   22.0662   61.5273 C   0  0  0  0  0  0  0  0  0  0  0  0
   18.9373   22.7570   60.5599 C   0  0  0  0  0  0  0  0  0  0  0  0
   17.2077   21.5743   61.8947 C   0  0  0  0  0  0  0  0  0  0  0  0
   16.1564   22.3932   61.2347 N   0  0  0  0  0  0  0  0  0  0  0  0
   16.5026   23.3975   60.4338 C   0  0  0  0  0  0  0  0  0  0  0  0
   17.8233   23.6448   60.1381 N   0  0  0  0  0  0  0  0  0  0  0  0
   15.6128   24.1141   59.9377 O   0  0  0  0  0  0  0  0  0  0  0  0
   18.4012   21.3943   60.9702 C   0  0  0  0  0  0  0  0  0  0  0  0
   18.0416   24.4527   59.6197 H   0  0  0  0  0  0  0  0  0  0  0  0
   14.2561   20.8937   60.6831 C   0  0  0  0  0  0  0  0  0  0  0  0
   13.0063   20.3240   61.3662 C   0  0  0  0  0  0  0  0  0  0  0  0
   13.8628   21.3860   59.2912 C   0  0  0  0  0  0  0  0  0  0  0  0
   14.0531   24.1198   65.7221 C   0  0  0  0  0  0  0  0  0  0  0  0
   16.2278   24.3322   68.6545 C   0  0  0  0  0  0  0  0  0  0  0  0
   17.4244   24.8210   68.1576 C   0  0  0  0  0  0  0  0  0  0  0  0
   17.5016   25.0839   66.7828 C   0  0  0  0  0  0  0  0  0  0  0  0
   16.3646   24.8780   65.9880 C   0  0  0  0  0  0  0  0  0  0  0  0
   15.2015   24.3030   66.4806 C   0  0  0  0  0  0  0  0  0  0  0  0
   15.1358   24.0863   67.8706 C   0  0  0  0  0  0  0  0  0  0  0  0
 33 37  1  0  0  0
 33 39  1  0  0  0
 34 35  1  0  0  0
 34 39  1  0  0  0
 35 36  1  0  0  0
 35 32  1  0  0  0
 36 37  1  0  0  0
 36 38  2  0  0  0
 21 22  2  0  0  0
 21 26  1  0  0  0
 21 20  1  0  0  0
 22 23  1  0  0  0
 23 24  2  0  0  0
 24 25  1  0  0  0
 25 26  2  0  0  0
 32 28  1  0  0  0
 32 41  1  0  0  0
 28 29  1  0  0  0
 28 30  2  0  0  0
 29 27  1  0  0  0
 27 44  1  0  0  0
 27  1  1  0  0  0
 41 42  1  0  0  0
 41 43  1  0  0  0
 45 46  2  0  0  0
 45 50  1  0  0  0
 46 47  1  0  0  0
 47 48  2  0  0  0
 48 49  1  0  0  0
 49 50  2  0  0  0
 49 44  1  0  0  0
  1  2  1  0  0  0
  2  5  1  0  0  0
  2  3  1  0  0  0
  5  6  1  0  0  0
  5 20  1  0  0  0
  6  7  1  0  0  0
  7 10  1  0  0  0
  7  8  2  0  0  0
 10 11  1  0  0  0
 11 12  1  0  0  0
 12 13  2  0  0  0
 12 17  1  0  0  0
 13 14  1  0  0  0
 13 19  1  0  0  0
 14 15  2  0  0  0
 15 16  1  0  0  0
 16 17  2  0  0  0
 17 18  1  0  0  0
 37 40  1  0  0  0
 29 31  1  0  0  0
  6  9  1  0  0  0
  3  4  1  0  0  0
M  END
> <minimizedAffinity>
-10.37176

$$$$
6DJ2_AB1_B_201


 50 53  0  0  0  0  0  0  0  0999 V2000
   13.9209   20.0023   65.2375 C   0  0  0  0  0  0  0  0  0  0  0  0
   12.7345   20.4911   66.0425 C   0  0  0  0  0  0  0  0  0  0  0  0
   12.9348   20.1270   67.4110 O   0  0  0  0  0  0  0  0  0  0  0  0
   12.9495   19.1603   67.4896 H   0  0  0  0  0  0  0  0  0  0  0  0
   11.3608   19.9782   65.6136 C   0  0  0  0  0  0  0  0  0  0  0  0
   11.4349   19.0818   64.4408 N   0  0  0  0  0  0  0  0  0  0  0  0
   11.2646   19.5776   63.1935 C   0  0  0  0  0  0  0  0  0  0  0  0
   11.1629   20.7867   62.9175 O   0  0  0  0  0  0  0  0  0  0  0  0
   11.6086   18.1211   64.5676 H   0  0  0  0  0  0  0  0  0  0  0  0
   11.1923   18.5604   62.0575 C   0  0  0  0  0  0  0  0  0  0  0  0
    9.8704   18.6169   61.4644 O   0  0  0  0  0  0  0  0  0  0  0  0
    9.1835   17.4973   61.8008 C   0  0  0  0  0  0  0  0  0  0  0  0
    8.1935   17.6047   62.7627 C   0  0  0  0  0  0  0  0  0  0  0  0
    7.4988   16.4392   63.0544 C   0  0  0  0  0  0  0  0  0  0  0  0
    7.7984   15.2237   62.4674 C   0  0  0  0  0  0  0  0  0  0  0  0
    8.8031   15.1371   61.4925 C   0  0  0  0  0  0  0  0  0  0  0  0
    9.4968   16.3148   61.1454 C   0  0  0  0  0  0  0  0  0  0  0  0
   10.5371   16.2244   60.2258 C   0  0  0  0  0  0  0  0  0  0  0  0
    7.7725   18.8174   63.3765 C   0  0  0  0  0  0  0  0  0  0  0  0
   10.6671   19.2082   66.7209 C   0  0  0  0  0  0  0  0  0  0  0  0
    9.3085   19.5221   66.9014 C   0  0  0  0  0  0  0  0  0  0  0  0
    8.3770   18.5269   67.0998 C   0  0  0  0  0  0  0  0  0  0  0  0
    7.0266   18.7149   67.2805 C   0  0  0  0  0  0  0  0  0  0  0  0
    6.5575   20.0525   67.2534 C   0  0  0  0  0  0  0  0  0  0  0  0
    7.4553   21.0726   67.1371 C   0  0  0  0  0  0  0  0  0  0  0  0
    8.8125   20.8253   66.9502 C   0  0  0  0  0  0  0  0  0  0  0  0
   14.5820   21.0438   64.3347 C   0  0  0  0  0  0  0  0  0  0  0  0
   15.4300   23.0132   65.5309 C   0  0  0  0  0  0  0  0  0  0  0  0
   15.6195   21.7757   65.0858 N   0  0  0  0  0  0  0  0  0  0  0  0
   14.3871   23.6727   65.4434 O   0  0  0  0  0  0  0  0  0  0  0  0
   16.4806   21.3327   65.2631 H   0  0  0  0  0  0  0  0  0  0  0  0
   16.6264   23.6238   66.2471 C   0  0  0  0  0  0  0  0  0  0  0  0
   18.9925   26.0017   63.4493 C   0  0  0  0  0  0  0  0  0  0  0  0
   17.1226   25.8326   65.0763 C   0  0  0  0  0  0  0  0  0  0  0  0
   17.3962   24.3780   65.2204 N   0  0  0  0  0  0  0  0  0  0  0  0
   18.2859   23.7882   64.4264 C   0  0  0  0  0  0  0  0  0  0  0  0
   19.0221   24.5182   63.5221 N   0  0  0  0  0  0  0  0  0  0  0  0
   18.4592   22.5580   64.5157 O   0  0  0  0  0  0  0  0  0  0  0  0
   18.3975   26.5819   64.7229 C   0  0  0  0  0  0  0  0  0  0  0  0
   19.5990   24.0318   62.8898 H   0  0  0  0  0  0  0  0  0  0  0  0
   16.2636   24.5160   67.4254 C   0  0  0  0  0  0  0  0  0  0  0  0
   15.5031   23.6460   68.4344 C   0  0  0  0  0  0  0  0  0  0  0  0
   17.5370   25.0301   68.0952 C   0  0  0  0  0  0  0  0  0  0  0  0
   15.2274   20.3717   63.1284 C   0  0  0  0  0  0  0  0  0  0  0  0
   16.1939   22.7777   60.5495 C   0  0  0  0  0  0  0  0  0  0  0  0
   15.1849   22.6898   59.6051 C   0  0  0  0  0  0  0  0  0  0  0  0
   14.1434   21.7826   59.8449 C   0  0  0  0  0  0  0  0  0  0  0  0
   14.1508   21.0407   61.0350 C   0  0  0  0  0  0  0  0  0  0  0  0
   15.2119   21.0711   61.9290 C   0  0  0  0  0  0  0  0  0  0  0  0
   16.2247   22.0189   61.6857 C   0  0  0  0  0  0  0  0  0  0  0  0
 33 37  1  0  0  0
 33 39  1  0  0  0
 34 35  1  0  0  0
 34 39  1  0  0  0
 35 36  1  0  0  0
 35 32  1  0  0  0
 36 37  1  0  0  0
 36 38  2  0  0  0
 21 22  2  0  0  0
 21 26  1  0  0  0
 21 20  1  0  0  0
 22 23  1  0  0  0
 23 24  2  0  0  0
 24 25  1  0  0  0
 25 26  2  0  0  0
 32 28  1  0  0  0
 32 41  1  0  0  0
 28 29  1  0  0  0
 28 30  2  0  0  0
 29 27  1  0  0  0
 27 44  1  0  0  0
 27  1  1  0  0  0
 41 42  1  0  0  0
 41 43  1  0  0  0
 45 46  2  0  0  0
 45 50  1  0  0  0
 46 47  1  0  0  0
 47 48  2  0  0  0
 48 49  1  0  0  0
 49 50  2  0  0  0
 49 44  1  0  0  0
  1  2  1  0  0  0
  2  5  1  0  0  0
  2  3  1  0  0  0
  5  6  1  0  0  0
  5 20  1  0  0  0
  6  7  1  0  0  0
  7 10  1  0  0  0
  7  8  2  0  0  0
 10 11  1  0  0  0
 11 12  1  0  0  0
 12 13  2  0  0  0
 12 17  1  0  0  0
 13 14  1  0  0  0
 13 19  1  0  0  0
 14 15  2  0  0  0
 15 16  1  0  0  0
 16 17  2  0  0  0
 17 18  1  0  0  0
 37 40  1  0  0  0
 29 31  1  0  0  0
  6  9  1  0  0  0
  3  4  1  0  0  0
M  END
> <minimizedAffinity>
-10.29971

$$$$
6DJ2_AB1_B_201


 50 53  0  0  0  0  0  0  0  0999 V2000
   10.6146   20.0521   63.0775 C   0  0  0  0  0  0  0  0  0  0  0  0
   10.3568   21.0521   64.1856 C   0  0  0  0  0  0  0  0  0  0  0  0
   10.3117   22.3616   63.6124 O   0  0  0  0  0  0  0  0  0  0  0  0
   11.1776   22.5785   63.2330 H   0  0  0  0  0  0  0  0  0  0  0  0
   11.3647   21.0736   65.3336 C   0  0  0  0  0  0  0  0  0  0  0  0
   12.4393   22.0658   65.1216 N   0  0  0  0  0  0  0  0  0  0  0  0
   13.6433   21.9027   65.7168 C   0  0  0  0  0  0  0  0  0  0  0  0
   13.9869   20.8943   66.3599 O   0  0  0  0  0  0  0  0  0  0  0  0
   12.2785   22.8479   64.5456 H   0  0  0  0  0  0  0  0  0  0  0  0
   14.6361   23.0540   65.5782 C   0  0  0  0  0  0  0  0  0  0  0  0
   15.9629   22.5672   65.9021 O   0  0  0  0  0  0  0  0  0  0  0  0
   16.7422   23.6128   66.2737 C   0  0  0  0  0  0  0  0  0  0  0  0
   16.5266   24.1754   67.5201 C   0  0  0  0  0  0  0  0  0  0  0  0
   17.3658   25.2244   67.8682 C   0  0  0  0  0  0  0  0  0  0  0  0
   18.3306   25.7249   67.0137 C   0  0  0  0  0  0  0  0  0  0  0  0
   18.5353   25.1383   65.7562 C   0  0  0  0  0  0  0  0  0  0  0  0
   17.7248   24.0428   65.3931 C   0  0  0  0  0  0  0  0  0  0  0  0
   17.8792   23.4968   64.1226 C   0  0  0  0  0  0  0  0  0  0  0  0
   15.6037   23.6939   68.4903 C   0  0  0  0  0  0  0  0  0  0  0  0
   10.7104   21.4010   66.6622 C   0  0  0  0  0  0  0  0  0  0  0  0
    9.4844   20.7534   66.8958 C   0  0  0  0  0  0  0  0  0  0  0  0
    9.4276   19.3843   67.0360 C   0  0  0  0  0  0  0  0  0  0  0  0
    8.2889   18.6462   67.2599 C   0  0  0  0  0  0  0  0  0  0  0  0
    7.0688   19.3628   67.3475 C   0  0  0  0  0  0  0  0  0  0  0  0
    7.0893   20.7254   67.2918 C   0  0  0  0  0  0  0  0  0  0  0  0
    8.2709   21.4230   67.0570 C   0  0  0  0  0  0  0  0  0  0  0  0
   11.4368   18.8252   63.4717 C   0  0  0  0  0  0  0  0  0  0  0  0
    9.4643   17.5513   62.7539 C   0  0  0  0  0  0  0  0  0  0  0  0
   10.5810   17.6236   63.4703 N   0  0  0  0  0  0  0  0  0  0  0  0
    9.0368   18.4101   61.9729 O   0  0  0  0  0  0  0  0  0  0  0  0
   10.8461   16.8497   64.0181 H   0  0  0  0  0  0  0  0  0  0  0  0
    8.6890   16.2507   62.9104 C   0  0  0  0  0  0  0  0  0  0  0  0
    5.3312   16.9510   65.6151 C   0  0  0  0  0  0  0  0  0  0  0  0
    6.6068   17.5628   63.5729 C   0  0  0  0  0  0  0  0  0  0  0  0
    7.6106   16.5160   63.9015 N   0  0  0  0  0  0  0  0  0  0  0  0
    7.5405   15.8704   65.0626 C   0  0  0  0  0  0  0  0  0  0  0  0
    6.5031   16.0969   65.9375 N   0  0  0  0  0  0  0  0  0  0  0  0
    8.4237   15.0410   65.3515 O   0  0  0  0  0  0  0  0  0  0  0  0
    5.2392   17.1779   64.1142 C   0  0  0  0  0  0  0  0  0  0  0  0
    6.5393   15.6703   66.8241 H   0  0  0  0  0  0  0  0  0  0  0  0
    8.1170   15.7015   61.6115 C   0  0  0  0  0  0  0  0  0  0  0  0
    9.2839   15.0887   60.8265 C   0  0  0  0  0  0  0  0  0  0  0  0
    7.1086   14.5955   61.9182 C   0  0  0  0  0  0  0  0  0  0  0  0
   12.5850   18.6148   62.4916 C   0  0  0  0  0  0  0  0  0  0  0  0
   13.9940   21.5551   60.8353 C   0  0  0  0  0  0  0  0  0  0  0  0
   15.1509   21.8260   61.5465 C   0  0  0  0  0  0  0  0  0  0  0  0
   15.4644   20.9892   62.6267 C   0  0  0  0  0  0  0  0  0  0  0  0
   14.6215   19.9052   62.9117 C   0  0  0  0  0  0  0  0  0  0  0  0
   13.4193   19.6981   62.2500 C   0  0  0  0  0  0  0  0  0  0  0  0
   13.1481   20.5272   61.1443 C   0  0  0  0  0  0  0  0  0  0  0  0
 33 37  1  0  0  0
 33 39  1  0  0  0
 34 35  1  0  0  0
 34 39  1  0  0  0
 35 36  1  0  0  0
 35 32  1  0  0  0
 36 37  1  0  0  0
 36 38  2  0  0  0
 21 22  2  0  0  0
 21 26  1  0  0  0
 21 20  1  0  0  0
 22 23  1  0  0  0
 23 24  2  0  0  0
 24 25  1  0  0  0
 25 26  2  0  0  0
 32 28  1  0  0  0
 32 41  1  0  0  0
 28 29  1  0  0  0
 28 30  2  0  0  0
 29 27  1  0  0  0
 27 44  1  0  0  0
 27  1  1  0  0  0
 41 42  1  0  0  0
 41 43  1  0  0  0
 45 46  2  0  0  0
 45 50  1  0  0  0
 46 47  1  0  0  0
 47 48  2  0  0  0
 48 49  1  0  0  0
 49 50  2  0  0  0
 49 44  1  0  0  0
  1  2  1  0  0  0
  2  5  1  0  0  0
  2  3  1  0  0  0
  5  6  1  0  0  0
  5 20  1  0  0  0
  6  7  1  0  0  0
  7 10  1  0  0  0
  7  8  2  0  0  0
 10 11  1  0  0  0
 11 12  1  0  0  0
 12 13  2  0  0  0
 12 17  1  0  0  0
 13 14  1  0  0  0
 13 19  1  0  0  0
 14 15  2  0  0  0
 15 16  1  0  0  0
 16 17  2  0  0  0
 17 18  1  0  0  0
 37 40  1  0  0  0
 29 31  1  0  0  0
  6  9  1  0  0  0
  3  4  1  0  0  0
M  END
> <minimizedAffinity>
-10.23222

$$$$
6DJ2_AB1_B_201


 50 53  0  0  0  0  0  0  0  0999 V2000
   14.5654   20.1724   63.4800 C   0  0  0  0  0  0  0  0  0  0  0  0
   13.9874   19.6402   64.7750 C   0  0  0  0  0  0  0  0  0  0  0  0
   14.5743   18.3636   65.0421 O   0  0  0  0  0  0  0  0  0  0  0  0
   14.3224   17.7394   64.3436 H   0  0  0  0  0  0  0  0  0  0  0  0
   12.4688   19.4827   64.8309 C   0  0  0  0  0  0  0  0  0  0  0  0
   11.9866   18.3674   63.9896 N   0  0  0  0  0  0  0  0  0  0  0  0
   11.4416   18.6162   62.7765 C   0  0  0  0  0  0  0  0  0  0  0  0
   11.4116   19.7321   62.2267 O   0  0  0  0  0  0  0  0  0  0  0  0
   12.0621   17.4405   64.3129 H   0  0  0  0  0  0  0  0  0  0  0  0
   10.8215   17.4263   62.0484 C   0  0  0  0  0  0  0  0  0  0  0  0
    9.5409   17.8302   61.5012 O   0  0  0  0  0  0  0  0  0  0  0  0
    8.5501   17.1819   62.1620 C   0  0  0  0  0  0  0  0  0  0  0  0
    8.3103   15.8571   61.8393 C   0  0  0  0  0  0  0  0  0  0  0  0
    7.3059   15.2269   62.5604 C   0  0  0  0  0  0  0  0  0  0  0  0
    6.5452   15.8815   63.5113 C   0  0  0  0  0  0  0  0  0  0  0  0
    6.8066   17.2232   63.8259 C   0  0  0  0  0  0  0  0  0  0  0  0
    7.8503   17.8766   63.1384 C   0  0  0  0  0  0  0  0  0  0  0  0
    8.0735   19.2250   63.3998 C   0  0  0  0  0  0  0  0  0  0  0  0
    9.0759   15.0831   60.9230 C   0  0  0  0  0  0  0  0  0  0  0  0
   11.9725   19.2255   66.2408 C   0  0  0  0  0  0  0  0  0  0  0  0
   10.6455   19.6211   66.4846 C   0  0  0  0  0  0  0  0  0  0  0  0
    9.6700   18.6854   66.7499 C   0  0  0  0  0  0  0  0  0  0  0  0
    8.3440   18.9548   66.9961 C   0  0  0  0  0  0  0  0  0  0  0  0
    7.9517   20.3169   66.9671 C   0  0  0  0  0  0  0  0  0  0  0  0
    8.8994   21.2808   66.7850 C   0  0  0  0  0  0  0  0  0  0  0  0
   10.2284   20.9517   66.5335 C   0  0  0  0  0  0  0  0  0  0  0  0
   14.6199   21.6951   63.3563 C   0  0  0  0  0  0  0  0  0  0  0  0
   15.3768   23.1174   65.2090 C   0  0  0  0  0  0  0  0  0  0  0  0
   15.6572   22.2366   64.2545 N   0  0  0  0  0  0  0  0  0  0  0  0
   14.2538   23.5390   65.5114 O   0  0  0  0  0  0  0  0  0  0  0  0
   16.5879   21.9355   64.1431 H   0  0  0  0  0  0  0  0  0  0  0  0
   16.5802   23.5961   66.0088 C   0  0  0  0  0  0  0  0  0  0  0  0
   19.1010   26.1404   63.5082 C   0  0  0  0  0  0  0  0  0  0  0  0
   17.0915   25.8529   64.9404 C   0  0  0  0  0  0  0  0  0  0  0  0
   17.4124   24.4075   65.0789 N   0  0  0  0  0  0  0  0  0  0  0  0
   18.3995   23.8753   64.3632 C   0  0  0  0  0  0  0  0  0  0  0  0
   19.1876   24.6580   63.5513 N   0  0  0  0  0  0  0  0  0  0  0  0
   18.6164   22.6513   64.4423 O   0  0  0  0  0  0  0  0  0  0  0  0
   18.3610   26.6626   64.7299 C   0  0  0  0  0  0  0  0  0  0  0  0
   19.8435   24.2121   62.9680 H   0  0  0  0  0  0  0  0  0  0  0  0
   16.2271   24.3868   67.2604 C   0  0  0  0  0  0  0  0  0  0  0  0
   15.4416   23.4461   68.1832 C   0  0  0  0  0  0  0  0  0  0  0  0
   17.5058   24.8120   67.9804 C   0  0  0  0  0  0  0  0  0  0  0  0
   14.9449   22.1028   61.9240 C   0  0  0  0  0  0  0  0  0  0  0  0
   18.0483   23.4590   60.5441 C   0  0  0  0  0  0  0  0  0  0  0  0
   18.9568   22.4206   60.6621 C   0  0  0  0  0  0  0  0  0  0  0  0
   18.5074   21.2213   61.2320 C   0  0  0  0  0  0  0  0  0  0  0  0
   17.1633   21.1158   61.6181 C   0  0  0  0  0  0  0  0  0  0  0  0
   16.2869   22.1911   61.5787 C   0  0  0  0  0  0  0  0  0  0  0  0
   16.7512   23.3708   60.9653 C   0  0  0  0  0  0  0  0  0  0  0  0
 33 37  1  0  0  0
 33 39  1  0  0  0
 34 35  1  0  0  0
 34 39  1  0  0  0
 35 36  1  0  0  0
 35 32  1  0  0  0
 36 37  1  0  0  0
 36 38  2  0  0  0
 21 22  2  0  0  0
 21 26  1  0  0  0
 21 20  1  0  0  0
 22 23  1  0  0  0
 23 24  2  0  0  0
 24 25  1  0  0  0
 25 26  2  0  0  0
 32 28  1  0  0  0
 32 41  1  0  0  0
 28 29  1  0  0  0
 28 30  2  0  0  0
 29 27  1  0  0  0
 27 44  1  0  0  0
 27  1  1  0  0  0
 41 42  1  0  0  0
 41 43  1  0  0  0
 45 46  2  0  0  0
 45 50  1  0  0  0
 46 47  1  0  0  0
 47 48  2  0  0  0
 48 49  1  0  0  0
 49 50  2  0  0  0
 49 44  1  0  0  0
  1  2  1  0  0  0
  2  5  1  0  0  0
  2  3  1  0  0  0
  5  6  1  0  0  0
  5 20  1  0  0  0
  6  7  1  0  0  0
  7 10  1  0  0  0
  7  8  2  0  0  0
 10 11  1  0  0  0
 11 12  1  0  0  0
 12 13  2  0  0  0
 12 17  1  0  0  0
 13 14  1  0  0  0
 13 19  1  0  0  0
 14 15  2  0  0  0
 15 16  1  0  0  0
 16 17  2  0  0  0
 17 18  1  0  0  0
 37 40  1  0  0  0
 29 31  1  0  0  0
  6  9  1  0  0  0
  3  4  1  0  0  0
M  END
> <minimizedAffinity>
-10.22443

$$$$
6DJ2_AB1_B_201


 50 53  0  0  0  0  0  0  0  0999 V2000
   13.4536   20.2850   65.2766 C   0  0  0  0  0  0  0  0  0  0  0  0
   12.0031   20.6694   65.4836 C   0  0  0  0  0  0  0  0  0  0  0  0
   11.7344   20.6834   66.8883 O   0  0  0  0  0  0  0  0  0  0  0  0
   11.8428   19.7888   67.2472 H   0  0  0  0  0  0  0  0  0  0  0  0
   10.9586   19.7794   64.8119 C   0  0  0  0  0  0  0  0  0  0  0  0
    9.6122   19.9510   65.3966 N   0  0  0  0  0  0  0  0  0  0  0  0
    9.1940   19.1364   66.3927 C   0  0  0  0  0  0  0  0  0  0  0  0
    9.9072   18.2951   66.9689 O   0  0  0  0  0  0  0  0  0  0  0  0
    9.0177   20.6601   65.0604 H   0  0  0  0  0  0  0  0  0  0  0  0
    7.7359   19.2754   66.8230 C   0  0  0  0  0  0  0  0  0  0  0  0
    7.2544   17.9808   67.2639 O   0  0  0  0  0  0  0  0  0  0  0  0
    6.2325   17.5896   66.4629 C   0  0  0  0  0  0  0  0  0  0  0  0
    6.5045   16.6751   65.4598 C   0  0  0  0  0  0  0  0  0  0  0  0
    5.4230   16.2833   64.6833 C   0  0  0  0  0  0  0  0  0  0  0  0
    4.1534   16.8036   64.8533 C   0  0  0  0  0  0  0  0  0  0  0  0
    3.8982   17.7268   65.8779 C   0  0  0  0  0  0  0  0  0  0  0  0
    4.9703   18.1108   66.7099 C   0  0  0  0  0  0  0  0  0  0  0  0
    4.7385   19.0736   67.6873 C   0  0  0  0  0  0  0  0  0  0  0  0
    7.7594   16.0393   65.2457 C   0  0  0  0  0  0  0  0  0  0  0  0
   10.8392   20.0602   63.3262 C   0  0  0  0  0  0  0  0  0  0  0  0
   10.4234   18.9662   62.5468 C   0  0  0  0  0  0  0  0  0  0  0  0
   11.3313   18.2508   61.7976 C   0  0  0  0  0  0  0  0  0  0  0  0
   11.0390   17.1716   60.9968 C   0  0  0  0  0  0  0  0  0  0  0  0
    9.6811   16.7685   60.9368 C   0  0  0  0  0  0  0  0  0  0  0  0
    8.7619   17.4000   61.7221 C   0  0  0  0  0  0  0  0  0  0  0  0
    9.1114   18.4926   62.5107 C   0  0  0  0  0  0  0  0  0  0  0  0
   14.2580   21.2073   64.3605 C   0  0  0  0  0  0  0  0  0  0  0  0
   15.2544   23.0919   65.5786 C   0  0  0  0  0  0  0  0  0  0  0  0
   15.3474   21.8478   65.1215 N   0  0  0  0  0  0  0  0  0  0  0  0
   14.2670   23.8324   65.4952 O   0  0  0  0  0  0  0  0  0  0  0  0
   16.1704   21.3366   65.2964 H   0  0  0  0  0  0  0  0  0  0  0  0
   16.4929   23.5993   66.3039 C   0  0  0  0  0  0  0  0  0  0  0  0
   18.9598   25.9528   63.5734 C   0  0  0  0  0  0  0  0  0  0  0  0
   17.0608   25.8095   65.1686 C   0  0  0  0  0  0  0  0  0  0  0  0
   17.2969   24.3470   65.2988 N   0  0  0  0  0  0  0  0  0  0  0  0
   18.1847   23.7454   64.5116 C   0  0  0  0  0  0  0  0  0  0  0  0
   18.9526   24.4683   63.6280 N   0  0  0  0  0  0  0  0  0  0  0  0
   18.3269   22.5104   64.5882 O   0  0  0  0  0  0  0  0  0  0  0  0
   18.3588   26.5318   64.8446 C   0  0  0  0  0  0  0  0  0  0  0  0
   19.5277   23.9757   62.9988 H   0  0  0  0  0  0  0  0  0  0  0  0
   16.1968   24.4629   67.5215 C   0  0  0  0  0  0  0  0  0  0  0  0
   15.4311   23.5874   68.5218 C   0  0  0  0  0  0  0  0  0  0  0  0
   17.5067   24.9053   68.1717 C   0  0  0  0  0  0  0  0  0  0  0  0
   14.8611   20.4177   63.2046 C   0  0  0  0  0  0  0  0  0  0  0  0
   15.8891   22.6463   60.4934 C   0  0  0  0  0  0  0  0  0  0  0  0
   14.9122   22.4803   59.5260 C   0  0  0  0  0  0  0  0  0  0  0  0
   13.8718   21.5806   59.7963 C   0  0  0  0  0  0  0  0  0  0  0  0
   13.8472   20.9248   61.0358 C   0  0  0  0  0  0  0  0  0  0  0  0
   14.8783   21.0303   61.9587 C   0  0  0  0  0  0  0  0  0  0  0  0
   15.8898   21.9701   61.6810 C   0  0  0  0  0  0  0  0  0  0  0  0
 33 37  1  0  0  0
 33 39  1  0  0  0
 34 35  1  0  0  0
 34 39  1  0  0  0
 35 36  1  0  0  0
 35 32  1  0  0  0
 36 37  1  0  0  0
 36 38  2  0  0  0
 21 22  2  0  0  0
 21 26  1  0  0  0
 21 20  1  0  0  0
 22 23  1  0  0  0
 23 24  2  0  0  0
 24 25  1  0  0  0
 25 26  2  0  0  0
 32 28  1  0  0  0
 32 41  1  0  0  0
 28 29  1  0  0  0
 28 30  2  0  0  0
 29 27  1  0  0  0
 27 44  1  0  0  0
 27  1  1  0  0  0
 41 42  1  0  0  0
 41 43  1  0  0  0
 45 46  2  0  0  0
 45 50  1  0  0  0
 46 47  1  0  0  0
 47 48  2  0  0  0
 48 49  1  0  0  0
 49 50  2  0  0  0
 49 44  1  0  0  0
  1  2  1  0  0  0
  2  5  1  0  0  0
  2  3  1  0  0  0
  5  6  1  0  0  0
  5 20  1  0  0  0
  6  7  1  0  0  0
  7 10  1  0  0  0
  7  8  2  0  0  0
 10 11  1  0  0  0
 11 12  1  0  0  0
 12 13  2  0  0  0
 12 17  1  0  0  0
 13 14  1  0  0  0
 13 19  1  0  0  0
 14 15  2  0  0  0
 15 16  1  0  0  0
 16 17  2  0  0  0
 17 18  1  0  0  0
 37 40  1  0  0  0
 29 31  1  0  0  0
  6  9  1  0  0  0
  3  4  1  0  0  0
M  END
> <minimizedAffinity>
-9.42100

$$$$
6DJ2_AB1_B_201


 50 53  0  0  0  0  0  0  0  0999 V2000
   11.6521   20.9877   62.8750 C   0  0  0  0  0  0  0  0  0  0  0  0
   10.7847   20.6486   64.0696 C   0  0  0  0  0  0  0  0  0  0  0  0
    9.5352   21.3305   63.9302 O   0  0  0  0  0  0  0  0  0  0  0  0
    9.6854   22.2886   63.9540 H   0  0  0  0  0  0  0  0  0  0  0  0
   11.3560   20.9862   65.4457 C   0  0  0  0  0  0  0  0  0  0  0  0
   12.3878   22.0426   65.3838 N   0  0  0  0  0  0  0  0  0  0  0  0
   13.6549   21.7802   65.7791 C   0  0  0  0  0  0  0  0  0  0  0  0
   14.0821   20.6546   66.0938 O   0  0  0  0  0  0  0  0  0  0  0  0
   12.1524   22.9398   65.0540 H   0  0  0  0  0  0  0  0  0  0  0  0
   14.6124   22.9677   65.8382 C   0  0  0  0  0  0  0  0  0  0  0  0
   15.8786   22.5191   66.3839 O   0  0  0  0  0  0  0  0  0  0  0  0
   16.7032   23.5855   66.5297 C   0  0  0  0  0  0  0  0  0  0  0  0
   17.5448   23.9067   65.4784 C   0  0  0  0  0  0  0  0  0  0  0  0
   18.3505   25.0217   65.6619 C   0  0  0  0  0  0  0  0  0  0  0  0
   18.3628   25.7495   66.8374 C   0  0  0  0  0  0  0  0  0  0  0  0
   17.4998   25.4094   67.8895 C   0  0  0  0  0  0  0  0  0  0  0  0
   16.6392   24.3060   67.7140 C   0  0  0  0  0  0  0  0  0  0  0  0
   15.8262   23.9243   68.7768 C   0  0  0  0  0  0  0  0  0  0  0  0
   17.5615   23.2585   64.2117 C   0  0  0  0  0  0  0  0  0  0  0  0
   10.2850   21.4641   66.4074 C   0  0  0  0  0  0  0  0  0  0  0  0
    9.4063   20.4648   66.8618 C   0  0  0  0  0  0  0  0  0  0  0  0
    9.8860   19.2423   67.2774 C   0  0  0  0  0  0  0  0  0  0  0  0
    9.1231   18.1928   67.7335 C   0  0  0  0  0  0  0  0  0  0  0  0
    7.7198   18.3908   67.7715 C   0  0  0  0  0  0  0  0  0  0  0  0
    7.2088   19.6119   67.4425 C   0  0  0  0  0  0  0  0  0  0  0  0
    8.0270   20.6389   66.9804 C   0  0  0  0  0  0  0  0  0  0  0  0
   12.3063   19.7976   62.1733 C   0  0  0  0  0  0  0  0  0  0  0  0
   11.0449   17.7397   62.6234 C   0  0  0  0  0  0  0  0  0  0  0  0
   11.2857   18.7858   61.8404 N   0  0  0  0  0  0  0  0  0  0  0  0
   11.5667   17.5093   63.7211 O   0  0  0  0  0  0  0  0  0  0  0  0
   10.7660   18.8891   61.0107 H   0  0  0  0  0  0  0  0  0  0  0  0
    9.9877   16.7791   62.0975 C   0  0  0  0  0  0  0  0  0  0  0  0
    6.5976   17.2890   64.8046 C   0  0  0  0  0  0  0  0  0  0  0  0
    8.2715   15.8118   63.7147 C   0  0  0  0  0  0  0  0  0  0  0  0
    8.7772   16.9767   62.9410 N   0  0  0  0  0  0  0  0  0  0  0  0
    8.1346   18.1402   62.9971 C   0  0  0  0  0  0  0  0  0  0  0  0
    7.0496   18.3110   63.8257 N   0  0  0  0  0  0  0  0  0  0  0  0
    8.5326   19.0892   62.2954 O   0  0  0  0  0  0  0  0  0  0  0  0
    7.6966   16.2662   65.0468 C   0  0  0  0  0  0  0  0  0  0  0  0
    6.5462   19.1550   63.7669 H   0  0  0  0  0  0  0  0  0  0  0  0
    9.6614   16.9527   60.6212 C   0  0  0  0  0  0  0  0  0  0  0  0
   10.9171   16.5617   59.8313 C   0  0  0  0  0  0  0  0  0  0  0  0
    8.5295   16.0051   60.2275 C   0  0  0  0  0  0  0  0  0  0  0  0
   12.9935   20.2470   60.8891 C   0  0  0  0  0  0  0  0  0  0  0  0
   15.6902   22.6700   60.4092 C   0  0  0  0  0  0  0  0  0  0  0  0
   16.7814   22.0958   61.0396 C   0  0  0  0  0  0  0  0  0  0  0  0
   16.5994   20.8483   61.6526 C   0  0  0  0  0  0  0  0  0  0  0  0
   15.3445   20.2279   61.5683 C   0  0  0  0  0  0  0  0  0  0  0  0
   14.2366   20.8529   61.0135 C   0  0  0  0  0  0  0  0  0  0  0  0
   14.4552   22.0863   60.3697 C   0  0  0  0  0  0  0  0  0  0  0  0
 33 37  1  0  0  0
 33 39  1  0  0  0
 34 35  1  0  0  0
 34 39  1  0  0  0
 35 36  1  0  0  0
 35 32  1  0  0  0
 36 37  1  0  0  0
 36 38  2  0  0  0
 21 22  2  0  0  0
 21 26  1  0  0  0
 21 20  1  0  0  0
 22 23  1  0  0  0
 23 24  2  0  0  0
 24 25  1  0  0  0
 25 26  2  0  0  0
 32 28  1  0  0  0
 32 41  1  0  0  0
 28 29  1  0  0  0
 28 30  2  0  0  0
 29 27  1  0  0  0
 27 44  1  0  0  0
 27  1  1  0  0  0
 41 42  1  0  0  0
 41 43  1  0  0  0
 45 46  2  0  0  0
 45 50  1  0  0  0
 46 47  1  0  0  0
 47 48  2  0  0  0
 48 49  1  0  0  0
 49 50  2  0  0  0
 49 44  1  0  0  0
  1  2  1  0  0  0
  2  5  1  0  0  0
  2  3  1  0  0  0
  5  6  1  0  0  0
  5 20  1  0  0  0
  6  7  1  0  0  0
  7 10  1  0  0  0
  7  8  2  0  0  0
 10 11  1  0  0  0
 11 12  1  0  0  0
 12 13  2  0  0  0
 12 17  1  0  0  0
 13 14  1  0  0  0
 13 19  1  0  0  0
 14 15  2  0  0  0
 15 16  1  0  0  0
 16 17  2  0  0  0
 17 18  1  0  0  0
 37 40  1  0  0  0
 29 31  1  0  0  0
  6  9  1  0  0  0
  3  4  1  0  0  0
M  END
> <minimizedAffinity>
-9.39338

$$$$
6DJ2_AB1_B_201


 50 53  0  0  0  0  0  0  0  0999 V2000
   15.1743   19.9730   62.6333 C   0  0  0  0  0  0  0  0  0  0  0  0
   14.3400   19.6801   63.8631 C   0  0  0  0  0  0  0  0  0  0  0  0
   15.0792   18.7980   64.7123 O   0  0  0  0  0  0  0  0  0  0  0  0
   15.2177   17.9523   64.2578 H   0  0  0  0  0  0  0  0  0  0  0  0
   12.9639   19.0614   63.6228 C   0  0  0  0  0  0  0  0  0  0  0  0
   11.9317   19.6157   64.5236 N   0  0  0  0  0  0  0  0  0  0  0  0
   11.8159   19.1556   65.7907 C   0  0  0  0  0  0  0  0  0  0  0  0
   12.6037   18.3586   66.3316 O   0  0  0  0  0  0  0  0  0  0  0  0
   11.3265   20.3219   64.2007 H   0  0  0  0  0  0  0  0  0  0  0  0
   10.6223   19.6629   66.5959 C   0  0  0  0  0  0  0  0  0  0  0  0
    9.5426   19.9780   65.6809 O   0  0  0  0  0  0  0  0  0  0  0  0
    8.3664   19.5827   66.2275 C   0  0  0  0  0  0  0  0  0  0  0  0
    7.9124   18.3060   65.9432 C   0  0  0  0  0  0  0  0  0  0  0  0
    6.7187   17.9357   66.5466 C   0  0  0  0  0  0  0  0  0  0  0  0
    5.9868   18.7949   67.3450 C   0  0  0  0  0  0  0  0  0  0  0  0
    6.4661   20.0834   67.6233 C   0  0  0  0  0  0  0  0  0  0  0  0
    7.6982   20.4717   67.0576 C   0  0  0  0  0  0  0  0  0  0  0  0
    8.1486   21.7697   67.2776 C   0  0  0  0  0  0  0  0  0  0  0  0
    8.6210   17.3317   65.1860 C   0  0  0  0  0  0  0  0  0  0  0  0
   12.4800   19.2788   62.2019 C   0  0  0  0  0  0  0  0  0  0  0  0
   11.3559   18.5181   61.8346 C   0  0  0  0  0  0  0  0  0  0  0  0
   11.5050   17.2754   61.2596 C   0  0  0  0  0  0  0  0  0  0  0  0
   10.4824   16.4489   60.8561 C   0  0  0  0  0  0  0  0  0  0  0  0
    9.1610   16.9262   61.0463 C   0  0  0  0  0  0  0  0  0  0  0  0
    8.9664   18.1170   61.6822 C   0  0  0  0  0  0  0  0  0  0  0  0
   10.0390   18.9177   62.0647 C   0  0  0  0  0  0  0  0  0  0  0  0
   15.8387   21.3493   62.5970 C   0  0  0  0  0  0  0  0  0  0  0  0
   15.7360   22.6982   64.6460 C   0  0  0  0  0  0  0  0  0  0  0  0
   16.3027   21.7204   63.9473 N   0  0  0  0  0  0  0  0  0  0  0  0
   14.7461   23.3605   64.3117 O   0  0  0  0  0  0  0  0  0  0  0  0
   17.0570   21.2274   64.3437 H   0  0  0  0  0  0  0  0  0  0  0  0
   16.3755   22.9675   66.0009 C   0  0  0  0  0  0  0  0  0  0  0  0
   19.0773   26.3213   65.2709 C   0  0  0  0  0  0  0  0  0  0  0  0
   17.6332   24.4983   64.3974 C   0  0  0  0  0  0  0  0  0  0  0  0
   17.3690   24.0562   65.7925 N   0  0  0  0  0  0  0  0  0  0  0  0
   18.0323   24.6134   66.8022 C   0  0  0  0  0  0  0  0  0  0  0  0
   18.9059   25.6543   66.5872 N   0  0  0  0  0  0  0  0  0  0  0  0
   17.8469   24.1900   67.9588 O   0  0  0  0  0  0  0  0  0  0  0  0
   17.9082   25.9930   64.3555 C   0  0  0  0  0  0  0  0  0  0  0  0
   19.4460   25.9739   67.3457 H   0  0  0  0  0  0  0  0  0  0  0  0
   15.3872   23.3301   67.0999 C   0  0  0  0  0  0  0  0  0  0  0  0
   14.6674   24.6103   66.6568 C   0  0  0  0  0  0  0  0  0  0  0  0
   14.3486   22.2194   67.2475 C   0  0  0  0  0  0  0  0  0  0  0  0
   17.0328   21.3407   61.6496 C   0  0  0  0  0  0  0  0  0  0  0  0
   16.4382   24.2505   59.5158 C   0  0  0  0  0  0  0  0  0  0  0  0
   17.6998   24.7788   59.2995 C   0  0  0  0  0  0  0  0  0  0  0  0
   18.7899   24.1327   59.8990 C   0  0  0  0  0  0  0  0  0  0  0  0
   18.5600   22.9717   60.6514 C   0  0  0  0  0  0  0  0  0  0  0  0
   17.2844   22.5047   60.9357 C   0  0  0  0  0  0  0  0  0  0  0  0
   16.2107   23.1470   60.2891 C   0  0  0  0  0  0  0  0  0  0  0  0
 33 37  1  0  0  0
 33 39  1  0  0  0
 34 35  1  0  0  0
 34 39  1  0  0  0
 35 36  1  0  0  0
 35 32  1  0  0  0
 36 37  1  0  0  0
 36 38  2  0  0  0
 21 22  2  0  0  0
 21 26  1  0  0  0
 21 20  1  0  0  0
 22 23  1  0  0  0
 23 24  2  0  0  0
 24 25  1  0  0  0
 25 26  2  0  0  0
 32 28  1  0  0  0
 32 41  1  0  0  0
 28 29  1  0  0  0
 28 30  2  0  0  0
 29 27  1  0  0  0
 27 44  1  0  0  0
 27  1  1  0  0  0
 41 42  1  0  0  0
 41 43  1  0  0  0
 45 46  2  0  0  0
 45 50  1  0  0  0
 46 47  1  0  0  0
 47 48  2  0  0  0
 48 49  1  0  0  0
 49 50  2  0  0  0
 49 44  1  0  0  0
  1  2  1  0  0  0
  2  5  1  0  0  0
  2  3  1  0  0  0
  5  6  1  0  0  0
  5 20  1  0  0  0
  6  7  1  0  0  0
  7 10  1  0  0  0
  7  8  2  0  0  0
 10 11  1  0  0  0
 11 12  1  0  0  0
 12 13  2  0  0  0
 12 17  1  0  0  0
 13 14  1  0  0  0
 13 19  1  0  0  0
 14 15  2  0  0  0
 15 16  1  0  0  0
 16 17  2  0  0  0
 17 18  1  0  0  0
 37 40  1  0  0  0
 29 31  1  0  0  0
  6  9  1  0  0  0
  3  4  1  0  0  0
M  END
> <minimizedAffinity>
-9.03845

$$$$
6DJ2_AB1_B_201


 50 53  0  0  0  0  0  0  0  0999 V2000
   12.0673   19.9923   64.4290 C   0  0  0  0  0  0  0  0  0  0  0  0
   12.5542   20.9723   63.3817 C   0  0  0  0  0  0  0  0  0  0  0  0
   11.8895   20.6844   62.1484 O   0  0  0  0  0  0  0  0  0  0  0  0
   12.1417   19.7986   61.8442 H   0  0  0  0  0  0  0  0  0  0  0  0
   14.0581   20.9936   63.1138 C   0  0  0  0  0  0  0  0  0  0  0  0
   14.4723   22.1687   62.3188 N   0  0  0  0  0  0  0  0  0  0  0  0
   14.6479   22.0583   60.9818 C   0  0  0  0  0  0  0  0  0  0  0  0
   14.3700   21.0484   60.3100 O   0  0  0  0  0  0  0  0  0  0  0  0
   14.6208   23.0345   62.7635 H   0  0  0  0  0  0  0  0  0  0  0  0
   15.2337   23.2730   60.2665 C   0  0  0  0  0  0  0  0  0  0  0  0
   16.6581   23.0678   60.0893 O   0  0  0  0  0  0  0  0  0  0  0  0
   17.3342   24.0157   60.7842 C   0  0  0  0  0  0  0  0  0  0  0  0
   17.3225   25.3121   60.2984 C   0  0  0  0  0  0  0  0  0  0  0  0
   18.0044   26.2530   61.0572 C   0  0  0  0  0  0  0  0  0  0  0  0
   18.7027   25.9242   62.2043 C   0  0  0  0  0  0  0  0  0  0  0  0
   18.6992   24.6052   62.6814 C   0  0  0  0  0  0  0  0  0  0  0  0
   17.9787   23.6360   61.9532 C   0  0  0  0  0  0  0  0  0  0  0  0
   18.0231   22.3142   62.3853 C   0  0  0  0  0  0  0  0  0  0  0  0
   16.5858   25.7583   59.1657 C   0  0  0  0  0  0  0  0  0  0  0  0
   14.8667   21.0151   64.3968 C   0  0  0  0  0  0  0  0  0  0  0  0
   15.0623   22.2911   64.9541 C   0  0  0  0  0  0  0  0  0  0  0  0
   13.9876   23.0688   65.3253 C   0  0  0  0  0  0  0  0  0  0  0  0
   14.0585   24.3287   65.8720 C   0  0  0  0  0  0  0  0  0  0  0  0
   15.3542   24.8716   66.0626 C   0  0  0  0  0  0  0  0  0  0  0  0
   16.4470   24.1056   65.7810 C   0  0  0  0  0  0  0  0  0  0  0  0
   16.3180   22.8371   65.2224 C   0  0  0  0  0  0  0  0  0  0  0  0
   10.5796   20.0744   64.7711 C   0  0  0  0  0  0  0  0  0  0  0  0
   10.3576   17.8333   63.7931 C   0  0  0  0  0  0  0  0  0  0  0  0
    9.8364   19.0301   64.0409 N   0  0  0  0  0  0  0  0  0  0  0  0
   11.4582   17.4187   64.1764 O   0  0  0  0  0  0  0  0  0  0  0  0
    8.9242   19.2264   63.7269 H   0  0  0  0  0  0  0  0  0  0  0  0
    9.4610   16.9007   62.9908 C   0  0  0  0  0  0  0  0  0  0  0  0
    5.4458   16.8619   64.7105 C   0  0  0  0  0  0  0  0  0  0  0  0
    7.1501   17.9414   63.2607 C   0  0  0  0  0  0  0  0  0  0  0  0
    8.1343   16.9028   63.6657 N   0  0  0  0  0  0  0  0  0  0  0  0
    7.8242   16.0316   64.6222 C   0  0  0  0  0  0  0  0  0  0  0  0
    6.5721   16.0215   65.1923 N   0  0  0  0  0  0  0  0  0  0  0  0
    8.6805   15.2075   64.9950 O   0  0  0  0  0  0  0  0  0  0  0  0
    5.7363   17.3844   63.3122 C   0  0  0  0  0  0  0  0  0  0  0  0
    6.4142   15.4260   65.9602 H   0  0  0  0  0  0  0  0  0  0  0  0
    9.3287   17.2695   61.5202 C   0  0  0  0  0  0  0  0  0  0  0  0
   10.7391   17.5797   61.0028 C   0  0  0  0  0  0  0  0  0  0  0  0
    8.7785   16.0788   60.7367 C   0  0  0  0  0  0  0  0  0  0  0  0
   10.3645   19.8790   66.2673 C   0  0  0  0  0  0  0  0  0  0  0  0
    6.8264   20.2141   67.1296 C   0  0  0  0  0  0  0  0  0  0  0  0
    6.4914   18.9883   67.6798 C   0  0  0  0  0  0  0  0  0  0  0  0
    7.4943   18.0119   67.7585 C   0  0  0  0  0  0  0  0  0  0  0  0
    8.7865   18.3299   67.3158 C   0  0  0  0  0  0  0  0  0  0  0  0
    9.0872   19.5284   66.6840 C   0  0  0  0  0  0  0  0  0  0  0  0
    8.0739   20.5061   66.6542 C   0  0  0  0  0  0  0  0  0  0  0  0
 33 37  1  0  0  0
 33 39  1  0  0  0
 34 35  1  0  0  0
 34 39  1  0  0  0
 35 36  1  0  0  0
 35 32  1  0  0  0
 36 37  1  0  0  0
 36 38  2  0  0  0
 21 22  2  0  0  0
 21 26  1  0  0  0
 21 20  1  0  0  0
 22 23  1  0  0  0
 23 24  2  0  0  0
 24 25  1  0  0  0
 25 26  2  0  0  0
 32 28  1  0  0  0
 32 41  1  0  0  0
 28 29  1  0  0  0
 28 30  2  0  0  0
 29 27  1  0  0  0
 27 44  1  0  0  0
 27  1  1  0  0  0
 41 42  1  0  0  0
 41 43  1  0  0  0
 45 46  2  0  0  0
 45 50  1  0  0  0
 46 47  1  0  0  0
 47 48  2  0  0  0
 48 49  1  0  0  0
 49 50  2  0  0  0
 49 44  1  0  0  0
  1  2  1  0  0  0
  2  5  1  0  0  0
  2  3  1  0  0  0
  5  6  1  0  0  0
  5 20  1  0  0  0
  6  7  1  0  0  0
  7 10  1  0  0  0
  7  8  2  0  0  0
 10 11  1  0  0  0
 11 12  1  0  0  0
 12 13  2  0  0  0
 12 17  1  0  0  0
 13 14  1  0  0  0
 13 19  1  0  0  0
 14 15  2  0  0  0
 15 16  1  0  0  0
 16 17  2  0  0  0
 17 18  1  0  0  0
 37 40  1  0  0  0
 29 31  1  0  0  0
  6  9  1  0  0  0
  3  4  1  0  0  0
M  END
> <minimizedAffinity>
-8.85528

$$$$
6DJ2_AB1_B_201


 50 53  0  0  0  0  0  0  0  0999 V2000
   14.4014   20.6786   63.9441 C   0  0  0  0  0  0  0  0  0  0  0  0
   13.2771   21.6365   64.2798 C   0  0  0  0  0  0  0  0  0  0  0  0
   13.6160   22.9291   63.7701 O   0  0  0  0  0  0  0  0  0  0  0  0
   14.4096   23.2568   64.2215 H   0  0  0  0  0  0  0  0  0  0  0  0
   12.9293   21.7888   65.7597 C   0  0  0  0  0  0  0  0  0  0  0  0
   11.7804   20.9487   66.1579 N   0  0  0  0  0  0  0  0  0  0  0  0
   11.9465   19.6218   66.3637 C   0  0  0  0  0  0  0  0  0  0  0  0
   13.0438   19.0350   66.3635 O   0  0  0  0  0  0  0  0  0  0  0  0
   10.8916   21.3559   66.2738 H   0  0  0  0  0  0  0  0  0  0  0  0
   10.6809   18.8043   66.6094 C   0  0  0  0  0  0  0  0  0  0  0  0
    9.9380   19.4107   67.6969 O   0  0  0  0  0  0  0  0  0  0  0  0
    8.6167   19.4021   67.3925 C   0  0  0  0  0  0  0  0  0  0  0  0
    7.9610   18.1829   67.3712 C   0  0  0  0  0  0  0  0  0  0  0  0
    6.6044   18.2260   67.0820 C   0  0  0  0  0  0  0  0  0  0  0  0
    5.9416   19.4011   66.7797 C   0  0  0  0  0  0  0  0  0  0  0  0
    6.6237   20.6263   66.8100 C   0  0  0  0  0  0  0  0  0  0  0  0
    7.9941   20.6170   67.1428 C   0  0  0  0  0  0  0  0  0  0  0  0
    8.6914   21.8207   67.1128 C   0  0  0  0  0  0  0  0  0  0  0  0
    8.5399   16.9324   67.7261 C   0  0  0  0  0  0  0  0  0  0  0  0
   14.0902   21.4139   66.6609 C   0  0  0  0  0  0  0  0  0  0  0  0
   14.9050   22.4889   67.0578 C   0  0  0  0  0  0  0  0  0  0  0  0
   15.8482   23.0106   66.2001 C   0  0  0  0  0  0  0  0  0  0  0  0
   16.7010   24.0523   66.4812 C   0  0  0  0  0  0  0  0  0  0  0  0
   16.5994   24.6322   67.7709 C   0  0  0  0  0  0  0  0  0  0  0  0
   15.6273   24.1979   68.6235 C   0  0  0  0  0  0  0  0  0  0  0  0
   14.7937   23.1340   68.2899 C   0  0  0  0  0  0  0  0  0  0  0  0
   14.0164   19.4888   63.0650 C   0  0  0  0  0  0  0  0  0  0  0  0
   11.7610   18.5190   63.0313 C   0  0  0  0  0  0  0  0  0  0  0  0
   12.5740   19.5342   62.7593 N   0  0  0  0  0  0  0  0  0  0  0  0
   12.0661   17.4696   63.6109 O   0  0  0  0  0  0  0  0  0  0  0  0
   12.2014   20.3433   62.3401 H   0  0  0  0  0  0  0  0  0  0  0  0
   10.3144   18.7287   62.6066 C   0  0  0  0  0  0  0  0  0  0  0  0
    8.4481   14.8712   61.7596 C   0  0  0  0  0  0  0  0  0  0  0  0
    9.1934   16.5816   63.4000 C   0  0  0  0  0  0  0  0  0  0  0  0
    9.7667   17.3823   62.2857 N   0  0  0  0  0  0  0  0  0  0  0  0
    9.8015   16.8777   61.0553 C   0  0  0  0  0  0  0  0  0  0  0  0
    9.2405   15.6529   60.7758 N   0  0  0  0  0  0  0  0  0  0  0  0
   10.3412   17.5335   60.1441 O   0  0  0  0  0  0  0  0  0  0  0  0
    8.0099   15.7611   62.9123 C   0  0  0  0  0  0  0  0  0  0  0  0
    9.3711   15.2746   59.8763 H   0  0  0  0  0  0  0  0  0  0  0  0
    9.4535   19.4384   63.6416 C   0  0  0  0  0  0  0  0  0  0  0  0
    9.8470   20.9209   63.6177 C   0  0  0  0  0  0  0  0  0  0  0  0
    7.9801   19.3241   63.2537 C   0  0  0  0  0  0  0  0  0  0  0  0
   14.7993   19.5158   61.7574 C   0  0  0  0  0  0  0  0  0  0  0  0
   15.0071   22.7655   60.0930 C   0  0  0  0  0  0  0  0  0  0  0  0
   16.3116   23.1769   60.3089 C   0  0  0  0  0  0  0  0  0  0  0  0
   17.1499   22.3294   61.0465 C   0  0  0  0  0  0  0  0  0  0  0  0
   16.6461   21.1000   61.4954 C   0  0  0  0  0  0  0  0  0  0  0  0
   15.3136   20.7399   61.3513 C   0  0  0  0  0  0  0  0  0  0  0  0
   14.5036   21.5890   60.5725 C   0  0  0  0  0  0  0  0  0  0  0  0
 33 37  1  0  0  0
 33 39  1  0  0  0
 34 35  1  0  0  0
 34 39  1  0  0  0
 35 36  1  0  0  0
 35 32  1  0  0  0
 36 37  1  0  0  0
 36 38  2  0  0  0
 21 22  2  0  0  0
 21 26  1  0  0  0
 21 20  1  0  0  0
 22 23  1  0  0  0
 23 24  2  0  0  0
 24 25  1  0  0  0
 25 26  2  0  0  0
 32 28  1  0  0  0
 32 41  1  0  0  0
 28 29  1  0  0  0
 28 30  2  0  0  0
 29 27  1  0  0  0
 27 44  1  0  0  0
 27  1  1  0  0  0
 41 42  1  0  0  0
 41 43  1  0  0  0
 45 46  2  0  0  0
 45 50  1  0  0  0
 46 47  1  0  0  0
 47 48  2  0  0  0
 48 49  1  0  0  0
 49 50  2  0  0  0
 49 44  1  0  0  0
  1  2  1  0  0  0
  2  5  1  0  0  0
  2  3  1  0  0  0
  5  6  1  0  0  0
  5 20  1  0  0  0
  6  7  1  0  0  0
  7 10  1  0  0  0
  7  8  2  0  0  0
 10 11  1  0  0  0
 11 12  1  0  0  0
 12 13  2  0  0  0
 12 17  1  0  0  0
 13 14  1  0  0  0
 13 19  1  0  0  0
 14 15  2  0  0  0
 15 16  1  0  0  0
 16 17  2  0  0  0
 17 18  1  0  0  0
 37 40  1  0  0  0
 29 31  1  0  0  0
  6  9  1  0  0  0
  3  4  1  0  0  0
M  END
> <minimizedAffinity>
-8.82904

$$$$
