3K8C_RES_A_160


 20 19  0  0  0  0  0  0  0  0999 V2000
   36.0193   27.9475   13.1605 C   0  0  0  0  0  0  0  0  0  0  0  0
   34.7870   27.3594   13.5864 O   0  0  0  0  0  0  0  0  0  0  0  0
   34.9715   26.5513   14.0902 H   0  0  0  0  0  0  0  0  0  0  0  0
   36.8120   28.3726   14.3985 C   0  0  0  0  0  0  0  0  0  0  0  0
   37.4824   27.2572   15.0052 O   0  0  0  0  0  0  0  0  0  0  0  0
   38.0977   26.8637   14.3669 H   0  0  0  0  0  0  0  0  0  0  0  0
   37.7446   29.4919   13.9735 C   0  0  0  0  0  0  0  0  0  0  0  0
   37.4672   30.3562   13.1415 O   0  0  0  0  0  0  0  0  0  0  0  0
   38.9020   29.5434   14.6132 N   0  0  0  0  0  0  0  0  0  0  0  0
   39.7784   30.5558   14.2725 O   0  0  0  0  0  0  0  0  0  0  0  0
   39.1305   28.8836   15.3073 H   0  0  0  0  0  0  0  0  0  0  0  0
   39.3844   31.1036   13.5756 H   0  0  0  0  0  0  0  0  0  0  0  0
   36.7197   26.9969   12.1970 C   0  0  0  0  0  0  0  0  0  0  0  0
   36.6576   27.6089   10.8979 O   0  0  0  0  0  0  0  0  0  0  0  0
   37.0315   27.6104    8.4751 O   0  0  0  0  0  0  0  0  0  0  0  0
   37.7904   27.3399    9.7526 P   0  0  0  0  0  0  0  0  0  0  0  0
   38.8226   28.3778   10.0441 O   0  0  0  0  0  0  0  0  0  0  0  0
   38.1815   25.8878    9.9680 O   0  0  0  0  0  0  0  0  0  0  0  0
   39.5495   28.2989    9.4067 H   0  0  0  0  0  0  0  0  0  0  0  0
   38.8603   25.6365    9.3222 H   0  0  0  0  0  0  0  0  0  0  0  0
 15 16  2  0  0  0
 16 17  1  0  0  0
 16 18  1  0  0  0
 16 14  1  0  0  0
 14 13  1  0  0  0
 13  1  1  0  0  0
  1  2  1  0  0  0
  1  4  1  0  0  0
  4  5  1  0  0  0
  4  7  1  0  0  0
  7  8  2  0  0  0
  7  9  1  0  0  0
  9 10  1  0  0  0
 17 19  1  0  0  0
 18 20  1  0  0  0
  2  3  1  0  0  0
  5  6  1  0  0  0
  9 11  1  0  0  0
 10 12  1  0  0  0
M  END
> <minimizedAffinity>
-7.57235

$$$$
3K8C_RES_A_160


 20 19  0  0  0  0  0  0  0  0999 V2000
   38.5221   29.7399   13.4214 C   0  0  0  0  0  0  0  0  0  0  0  0
   37.3159   30.4231   13.0691 O   0  0  0  0  0  0  0  0  0  0  0  0
   37.1107   30.2564   12.1359 H   0  0  0  0  0  0  0  0  0  0  0  0
   38.2889   28.2337   13.2847 C   0  0  0  0  0  0  0  0  0  0  0  0
   38.7136   27.5247   14.4588 O   0  0  0  0  0  0  0  0  0  0  0  0
   38.2151   27.8440   15.2272 H   0  0  0  0  0  0  0  0  0  0  0  0
   36.8236   28.0341   12.9437 C   0  0  0  0  0  0  0  0  0  0  0  0
   36.3520   28.1126   11.8090 O   0  0  0  0  0  0  0  0  0  0  0  0
   36.0443   27.6902   13.9567 N   0  0  0  0  0  0  0  0  0  0  0  0
   34.7043   27.4810   13.6924 O   0  0  0  0  0  0  0  0  0  0  0  0
   36.4066   27.5872   14.8663 H   0  0  0  0  0  0  0  0  0  0  0  0
   34.5341   27.6277   12.7488 H   0  0  0  0  0  0  0  0  0  0  0  0
   39.6795   30.3250   12.6210 C   0  0  0  0  0  0  0  0  0  0  0  0
   40.8505   30.2087   13.4465 O   0  0  0  0  0  0  0  0  0  0  0  0
   42.0423   29.1695   11.5731 O   0  0  0  0  0  0  0  0  0  0  0  0
   42.0757   29.1920   13.0829 P   0  0  0  0  0  0  0  0  0  0  0  0
   43.2748   29.8959   13.6255 O   0  0  0  0  0  0  0  0  0  0  0  0
   41.6711   27.8885   13.7503 O   0  0  0  0  0  0  0  0  0  0  0  0
   44.0670   29.3625   13.4560 H   0  0  0  0  0  0  0  0  0  0  0  0
   42.3505   27.2161   13.5850 H   0  0  0  0  0  0  0  0  0  0  0  0
 15 16  2  0  0  0
 16 17  1  0  0  0
 16 18  1  0  0  0
 16 14  1  0  0  0
 14 13  1  0  0  0
 13  1  1  0  0  0
  1  2  1  0  0  0
  1  4  1  0  0  0
  4  5  1  0  0  0
  4  7  1  0  0  0
  7  8  2  0  0  0
  7  9  1  0  0  0
  9 10  1  0  0  0
 17 19  1  0  0  0
 18 20  1  0  0  0
  2  3  1  0  0  0
  5  6  1  0  0  0
  9 11  1  0  0  0
 10 12  1  0  0  0
M  END
> <minimizedAffinity>
-7.52966

$$$$
3K8C_RES_A_160


 20 19  0  0  0  0  0  0  0  0999 V2000
   37.5304   29.6398   14.2953 C   0  0  0  0  0  0  0  0  0  0  0  0
   37.3312   30.3096   13.0473 O   0  0  0  0  0  0  0  0  0  0  0  0
   37.7306   29.7884   12.3334 H   0  0  0  0  0  0  0  0  0  0  0  0
   36.7861   28.3032   14.2574 C   0  0  0  0  0  0  0  0  0  0  0  0
   35.5719   28.3528   15.0219 O   0  0  0  0  0  0  0  0  0  0  0  0
   34.9895   29.0388   14.6596 H   0  0  0  0  0  0  0  0  0  0  0  0
   36.5779   27.9452   12.7973 C   0  0  0  0  0  0  0  0  0  0  0  0
   35.5899   28.2601   12.1334 O   0  0  0  0  0  0  0  0  0  0  0  0
   37.5813   27.3049   12.2188 N   0  0  0  0  0  0  0  0  0  0  0  0
   37.4452   26.9720   10.8847 O   0  0  0  0  0  0  0  0  0  0  0  0
   38.3959   27.0739   12.7211 H   0  0  0  0  0  0  0  0  0  0  0  0
   36.5834   27.2781   10.5613 H   0  0  0  0  0  0  0  0  0  0  0  0
   39.0230   29.5796   14.5972 C   0  0  0  0  0  0  0  0  0  0  0  0
   39.6731   30.4157   13.6255 O   0  0  0  0  0  0  0  0  0  0  0  0
   41.7007   29.0668   13.3443 O   0  0  0  0  0  0  0  0  0  0  0  0
   40.6943   29.8143   12.5019 P   0  0  0  0  0  0  0  0  0  0  0  0
   39.8220   28.9068   11.6998 O   0  0  0  0  0  0  0  0  0  0  0  0
   41.2358   31.0531   11.8087 O   0  0  0  0  0  0  0  0  0  0  0  0
   40.3457   28.4947   10.9950 H   0  0  0  0  0  0  0  0  0  0  0  0
   41.8603   30.7885   11.1152 H   0  0  0  0  0  0  0  0  0  0  0  0
 15 16  2  0  0  0
 16 17  1  0  0  0
 16 18  1  0  0  0
 16 14  1  0  0  0
 14 13  1  0  0  0
 13  1  1  0  0  0
  1  2  1  0  0  0
  1  4  1  0  0  0
  4  5  1  0  0  0
  4  7  1  0  0  0
  7  8  2  0  0  0
  7  9  1  0  0  0
  9 10  1  0  0  0
 17 19  1  0  0  0
 18 20  1  0  0  0
  2  3  1  0  0  0
  5  6  1  0  0  0
  9 11  1  0  0  0
 10 12  1  0  0  0
M  END
> <minimizedAffinity>
-7.46938

$$$$
3K8C_RES_A_160


 20 19  0  0  0  0  0  0  0  0999 V2000
   39.2636   28.3266   14.9281 C   0  0  0  0  0  0  0  0  0  0  0  0
   40.3931   27.6741   14.3415 O   0  0  0  0  0  0  0  0  0  0  0  0
   40.2120   27.4928   13.4060 H   0  0  0  0  0  0  0  0  0  0  0  0
   39.0739   29.6834   14.2462 C   0  0  0  0  0  0  0  0  0  0  0  0
   39.5419   30.7601   15.0726 O   0  0  0  0  0  0  0  0  0  0  0  0
   40.4864   30.6388   15.2573 H   0  0  0  0  0  0  0  0  0  0  0  0
   39.7570   29.6066   12.8931 C   0  0  0  0  0  0  0  0  0  0  0  0
   40.8400   30.1277   12.6252 O   0  0  0  0  0  0  0  0  0  0  0  0
   39.1427   28.8645   11.9857 N   0  0  0  0  0  0  0  0  0  0  0  0
   39.7353   28.7505   10.7427 O   0  0  0  0  0  0  0  0  0  0  0  0
   38.2935   28.4098   12.1891 H   0  0  0  0  0  0  0  0  0  0  0  0
   40.5586   29.2632   10.7288 H   0  0  0  0  0  0  0  0  0  0  0  0
   38.0703   27.3790   14.9025 C   0  0  0  0  0  0  0  0  0  0  0  0
   36.9509   28.1406   14.4199 O   0  0  0  0  0  0  0  0  0  0  0  0
   36.1518   28.9758   12.2581 O   0  0  0  0  0  0  0  0  0  0  0  0
   36.1159   27.7115   13.0835 P   0  0  0  0  0  0  0  0  0  0  0  0
   36.9449   26.6156   12.5012 O   0  0  0  0  0  0  0  0  0  0  0  0
   34.7447   27.3382   13.6209 O   0  0  0  0  0  0  0  0  0  0  0  0
   36.5252   26.2888   11.6900 H   0  0  0  0  0  0  0  0  0  0  0  0
   34.1726   27.0662   12.8863 H   0  0  0  0  0  0  0  0  0  0  0  0
 15 16  2  0  0  0
 16 17  1  0  0  0
 16 18  1  0  0  0
 16 14  1  0  0  0
 14 13  1  0  0  0
 13  1  1  0  0  0
  1  2  1  0  0  0
  1  4  1  0  0  0
  4  5  1  0  0  0
  4  7  1  0  0  0
  7  8  2  0  0  0
  7  9  1  0  0  0
  9 10  1  0  0  0
 17 19  1  0  0  0
 18 20  1  0  0  0
  2  3  1  0  0  0
  5  6  1  0  0  0
  9 11  1  0  0  0
 10 12  1  0  0  0
M  END
> <minimizedAffinity>
-7.41920

$$$$
3K8C_RES_A_160


 20 19  0  0  0  0  0  0  0  0999 V2000
   36.1897   27.6163   13.0107 C   0  0  0  0  0  0  0  0  0  0  0  0
   35.8690   28.7028   12.1375 O   0  0  0  0  0  0  0  0  0  0  0  0
   36.6872   29.0889   11.7878 H   0  0  0  0  0  0  0  0  0  0  0  0
   36.8794   26.5204   12.1950 C   0  0  0  0  0  0  0  0  0  0  0  0
   36.0599   25.3464   12.0884 O   0  0  0  0  0  0  0  0  0  0  0  0
   35.2241   25.5741   11.6517 H   0  0  0  0  0  0  0  0  0  0  0  0
   37.2596   27.1271   10.8568 C   0  0  0  0  0  0  0  0  0  0  0  0
   36.6108   26.9951    9.8188 O   0  0  0  0  0  0  0  0  0  0  0  0
   38.3361   27.8970   10.8653 N   0  0  0  0  0  0  0  0  0  0  0  0
   38.7127   28.4856    9.6733 O   0  0  0  0  0  0  0  0  0  0  0  0
   38.8502   28.0452   11.6917 H   0  0  0  0  0  0  0  0  0  0  0  0
   38.0917   28.2267    8.9745 H   0  0  0  0  0  0  0  0  0  0  0  0
   36.9550   28.1523   14.2147 C   0  0  0  0  0  0  0  0  0  0  0  0
   38.3320   28.2530   13.8151 O   0  0  0  0  0  0  0  0  0  0  0  0
   40.3185   29.3073   12.8395 O   0  0  0  0  0  0  0  0  0  0  0  0
   39.0766   29.6918   13.6082 P   0  0  0  0  0  0  0  0  0  0  0  0
   38.1012   30.4646   12.7842 O   0  0  0  0  0  0  0  0  0  0  0  0
   39.3271   30.1741   15.0269 O   0  0  0  0  0  0  0  0  0  0  0  0
   38.4582   31.3486   12.6050 H   0  0  0  0  0  0  0  0  0  0  0  0
   39.7728   31.0353   15.0016 H   0  0  0  0  0  0  0  0  0  0  0  0
 15 16  2  0  0  0
 16 17  1  0  0  0
 16 18  1  0  0  0
 16 14  1  0  0  0
 14 13  1  0  0  0
 13  1  1  0  0  0
  1  2  1  0  0  0
  1  4  1  0  0  0
  4  5  1  0  0  0
  4  7  1  0  0  0
  7  8  2  0  0  0
  7  9  1  0  0  0
  9 10  1  0  0  0
 17 19  1  0  0  0
 18 20  1  0  0  0
  2  3  1  0  0  0
  5  6  1  0  0  0
  9 11  1  0  0  0
 10 12  1  0  0  0
M  END
> <minimizedAffinity>
-7.39280

$$$$
3K8C_RES_A_160


 20 19  0  0  0  0  0  0  0  0999 V2000
   38.4980   29.7265   11.9795 C   0  0  0  0  0  0  0  0  0  0  0  0
   37.7165   30.6190   12.7785 O   0  0  0  0  0  0  0  0  0  0  0  0
   37.5513   30.2164   13.6454 H   0  0  0  0  0  0  0  0  0  0  0  0
   39.8632   29.5416   12.6457 C   0  0  0  0  0  0  0  0  0  0  0  0
   40.7198   30.6709   12.4173 O   0  0  0  0  0  0  0  0  0  0  0  0
   40.3063   31.4692   12.7813 H   0  0  0  0  0  0  0  0  0  0  0  0
   39.6118   29.2489   14.1135 C   0  0  0  0  0  0  0  0  0  0  0  0
   39.3261   30.0984   14.9577 O   0  0  0  0  0  0  0  0  0  0  0  0
   39.6496   27.9706   14.4545 N   0  0  0  0  0  0  0  0  0  0  0  0
   39.4103   27.6527   15.7776 O   0  0  0  0  0  0  0  0  0  0  0  0
   39.8414   27.2710   13.7888 H   0  0  0  0  0  0  0  0  0  0  0  0
   39.2419   28.4652   16.2800 H   0  0  0  0  0  0  0  0  0  0  0  0
   37.6933   28.4599   11.7132 C   0  0  0  0  0  0  0  0  0  0  0  0
   36.4079   28.6529   12.3267 O   0  0  0  0  0  0  0  0  0  0  0  0
   36.0579   28.9922   14.7293 O   0  0  0  0  0  0  0  0  0  0  0  0
   35.9751   27.8873   13.7028 P   0  0  0  0  0  0  0  0  0  0  0  0
   34.5729   27.4569   13.4266 O   0  0  0  0  0  0  0  0  0  0  0  0
   37.0224   26.7969   13.8521 O   0  0  0  0  0  0  0  0  0  0  0  0
   34.2216   26.9851   14.1980 H   0  0  0  0  0  0  0  0  0  0  0  0
   36.8424   26.2834   14.6551 H   0  0  0  0  0  0  0  0  0  0  0  0
 15 16  2  0  0  0
 16 17  1  0  0  0
 16 18  1  0  0  0
 16 14  1  0  0  0
 14 13  1  0  0  0
 13  1  1  0  0  0
  1  2  1  0  0  0
  1  4  1  0  0  0
  4  5  1  0  0  0
  4  7  1  0  0  0
  7  8  2  0  0  0
  7  9  1  0  0  0
  9 10  1  0  0  0
 17 19  1  0  0  0
 18 20  1  0  0  0
  2  3  1  0  0  0
  5  6  1  0  0  0
  9 11  1  0  0  0
 10 12  1  0  0  0
M  END
> <minimizedAffinity>
-7.33243

$$$$
3K8C_RES_A_160


 20 19  0  0  0  0  0  0  0  0999 V2000
   38.6460   29.7145   13.4857 C   0  0  0  0  0  0  0  0  0  0  0  0
   37.5615   30.4176   12.8733 O   0  0  0  0  0  0  0  0  0  0  0  0
   37.5314   30.2050   11.9273 H   0  0  0  0  0  0  0  0  0  0  0  0
   38.3759   28.2118   13.3811 C   0  0  0  0  0  0  0  0  0  0  0  0
   38.7603   27.5213   14.5798 O   0  0  0  0  0  0  0  0  0  0  0  0
   38.2566   27.8722   15.3308 H   0  0  0  0  0  0  0  0  0  0  0  0
   36.9122   28.0418   13.0176 C   0  0  0  0  0  0  0  0  0  0  0  0
   36.4588   28.1363   11.8767 O   0  0  0  0  0  0  0  0  0  0  0  0
   36.1120   27.7061   14.0168 N   0  0  0  0  0  0  0  0  0  0  0  0
   34.7724   27.5236   13.7317 O   0  0  0  0  0  0  0  0  0  0  0  0
   36.4589   27.5905   14.9309 H   0  0  0  0  0  0  0  0  0  0  0  0
   34.6187   27.6794   12.7867 H   0  0  0  0  0  0  0  0  0  0  0  0
   39.9603   30.2124   12.8964 C   0  0  0  0  0  0  0  0  0  0  0  0
   41.0118   29.6108   13.6700 O   0  0  0  0  0  0  0  0  0  0  0  0
   42.5436   27.7226   13.3566 O   0  0  0  0  0  0  0  0  0  0  0  0
   42.4463   29.1900   13.0125 P   0  0  0  0  0  0  0  0  0  0  0  0
   42.2364   29.4305   11.5545 O   0  0  0  0  0  0  0  0  0  0  0  0
   43.4457   30.0820   13.7294 O   0  0  0  0  0  0  0  0  0  0  0  0
   43.0461   29.2060   11.0699 H   0  0  0  0  0  0  0  0  0  0  0  0
   44.3387   29.8986   13.3979 H   0  0  0  0  0  0  0  0  0  0  0  0
 15 16  2  0  0  0
 16 17  1  0  0  0
 16 18  1  0  0  0
 16 14  1  0  0  0
 14 13  1  0  0  0
 13  1  1  0  0  0
  1  2  1  0  0  0
  1  4  1  0  0  0
  4  5  1  0  0  0
  4  7  1  0  0  0
  7  8  2  0  0  0
  7  9  1  0  0  0
  9 10  1  0  0  0
 17 19  1  0  0  0
 18 20  1  0  0  0
  2  3  1  0  0  0
  5  6  1  0  0  0
  9 11  1  0  0  0
 10 12  1  0  0  0
M  END
> <minimizedAffinity>
-7.28747

$$$$
3K8C_RES_A_160


 20 19  0  0  0  0  0  0  0  0999 V2000
   38.9775   28.6711   13.0422 C   0  0  0  0  0  0  0  0  0  0  0  0
   39.5500   28.0023   14.1694 O   0  0  0  0  0  0  0  0  0  0  0  0
   39.8083   28.6569   14.8369 H   0  0  0  0  0  0  0  0  0  0  0  0
   37.6933   29.3727   13.4900 C   0  0  0  0  0  0  0  0  0  0  0  0
   37.6366   30.7256   13.0129 O   0  0  0  0  0  0  0  0  0  0  0  0
   37.6656   30.7281   12.0434 H   0  0  0  0  0  0  0  0  0  0  0  0
   36.5284   28.5124   13.0357 C   0  0  0  0  0  0  0  0  0  0  0  0
   36.3125   28.1865   11.8681 O   0  0  0  0  0  0  0  0  0  0  0  0
   35.7516   28.0486   14.0016 N   0  0  0  0  0  0  0  0  0  0  0  0
   34.6869   27.2463   13.6385 O   0  0  0  0  0  0  0  0  0  0  0  0
   35.9262   28.2675   14.9455 H   0  0  0  0  0  0  0  0  0  0  0  0
   34.6746   27.1423   12.6742 H   0  0  0  0  0  0  0  0  0  0  0  0
   40.0396   29.5473   12.3889 C   0  0  0  0  0  0  0  0  0  0  0  0
   41.1067   29.6799   13.3426 O   0  0  0  0  0  0  0  0  0  0  0  0
   42.8087   29.6063   11.5797 O   0  0  0  0  0  0  0  0  0  0  0  0
   42.6302   29.1879   13.0199 P   0  0  0  0  0  0  0  0  0  0  0  0
   43.4563   29.9959   13.9646 O   0  0  0  0  0  0  0  0  0  0  0  0
   42.5789   27.6866   13.2474 O   0  0  0  0  0  0  0  0  0  0  0  0
   44.3929   29.7719   13.8480 H   0  0  0  0  0  0  0  0  0  0  0  0
   43.4535   27.3036   13.0765 H   0  0  0  0  0  0  0  0  0  0  0  0
 15 16  2  0  0  0
 16 17  1  0  0  0
 16 18  1  0  0  0
 16 14  1  0  0  0
 14 13  1  0  0  0
 13  1  1  0  0  0
  1  2  1  0  0  0
  1  4  1  0  0  0
  4  5  1  0  0  0
  4  7  1  0  0  0
  7  8  2  0  0  0
  7  9  1  0  0  0
  9 10  1  0  0  0
 17 19  1  0  0  0
 18 20  1  0  0  0
  2  3  1  0  0  0
  5  6  1  0  0  0
  9 11  1  0  0  0
 10 12  1  0  0  0
M  END
> <minimizedAffinity>
-7.25711

$$$$
3K8C_RES_A_160


 20 19  0  0  0  0  0  0  0  0999 V2000
   38.5375   29.7396   13.1780 C   0  0  0  0  0  0  0  0  0  0  0  0
   37.2712   30.3898   13.0392 O   0  0  0  0  0  0  0  0  0  0  0  0
   36.8727   30.1437   12.1898 H   0  0  0  0  0  0  0  0  0  0  0  0
   38.3086   28.2271   13.2216 C   0  0  0  0  0  0  0  0  0  0  0  0
   38.6921   27.6710   14.4885 O   0  0  0  0  0  0  0  0  0  0  0  0
   38.1676   28.0812   15.1938 H   0  0  0  0  0  0  0  0  0  0  0  0
   36.8559   27.9810   12.8578 C   0  0  0  0  0  0  0  0  0  0  0  0
   36.4098   27.9935   11.7102 O   0  0  0  0  0  0  0  0  0  0  0  0
   36.0596   27.6720   13.8688 N   0  0  0  0  0  0  0  0  0  0  0  0
   34.7305   27.4226   13.5850 O   0  0  0  0  0  0  0  0  0  0  0  0
   36.4022   27.6216   14.7904 H   0  0  0  0  0  0  0  0  0  0  0  0
   34.5799   27.5188   12.6316 H   0  0  0  0  0  0  0  0  0  0  0  0
   39.4840   30.2541   12.1001 C   0  0  0  0  0  0  0  0  0  0  0  0
   39.9376   29.1034   11.3679 O   0  0  0  0  0  0  0  0  0  0  0  0
   39.7133   30.4422    9.3266 O   0  0  0  0  0  0  0  0  0  0  0  0
   39.7999   28.9934    9.7443 P   0  0  0  0  0  0  0  0  0  0  0  0
   41.0828   28.3486    9.3366 O   0  0  0  0  0  0  0  0  0  0  0  0
   38.5236   28.1937    9.5452 O   0  0  0  0  0  0  0  0  0  0  0  0
   41.0973   28.2382    8.3730 H   0  0  0  0  0  0  0  0  0  0  0  0
   38.3597   28.0773    8.5962 H   0  0  0  0  0  0  0  0  0  0  0  0
 15 16  2  0  0  0
 16 17  1  0  0  0
 16 18  1  0  0  0
 16 14  1  0  0  0
 14 13  1  0  0  0
 13  1  1  0  0  0
  1  2  1  0  0  0
  1  4  1  0  0  0
  4  5  1  0  0  0
  4  7  1  0  0  0
  7  8  2  0  0  0
  7  9  1  0  0  0
  9 10  1  0  0  0
 17 19  1  0  0  0
 18 20  1  0  0  0
  2  3  1  0  0  0
  5  6  1  0  0  0
  9 11  1  0  0  0
 10 12  1  0  0  0
M  END
> <minimizedAffinity>
-6.82370

$$$$
3K8C_RES_A_160


 20 19  0  0  0  0  0  0  0  0999 V2000
   39.0864   29.5576   12.2963 C   0  0  0  0  0  0  0  0  0  0  0  0
   38.4154   30.7858   12.5914 O   0  0  0  0  0  0  0  0  0  0  0  0
   37.7772   30.6416   13.3074 H   0  0  0  0  0  0  0  0  0  0  0  0
   39.8931   29.1333   13.5256 C   0  0  0  0  0  0  0  0  0  0  0  0
   39.4842   27.8438   14.0065 O   0  0  0  0  0  0  0  0  0  0  0  0
   39.6159   27.1821   13.3096 H   0  0  0  0  0  0  0  0  0  0  0  0
   41.3613   29.2106   13.1492 C   0  0  0  0  0  0  0  0  0  0  0  0
   42.2214   28.4102   13.5174 O   0  0  0  0  0  0  0  0  0  0  0  0
   41.6850   30.1846   12.3136 N   0  0  0  0  0  0  0  0  0  0  0  0
   43.0081   30.2855   11.9283 O   0  0  0  0  0  0  0  0  0  0  0  0
   41.0071   30.8149   11.9784 H   0  0  0  0  0  0  0  0  0  0  0  0
   43.5239   29.5843   12.3564 H   0  0  0  0  0  0  0  0  0  0  0  0
   38.0735   28.5500   11.7658 C   0  0  0  0  0  0  0  0  0  0  0  0
   36.8597   28.7581   12.5071 O   0  0  0  0  0  0  0  0  0  0  0  0
   34.6592   27.9628   13.2385 O   0  0  0  0  0  0  0  0  0  0  0  0
   36.1100   27.5491   13.3092 P   0  0  0  0  0  0  0  0  0  0  0  0
   36.4116   26.3487   12.4750 O   0  0  0  0  0  0  0  0  0  0  0  0
   36.7233   27.6048   14.6981 O   0  0  0  0  0  0  0  0  0  0  0  0
   36.0024   25.5656   12.8754 H   0  0  0  0  0  0  0  0  0  0  0  0
   36.3319   26.9116   15.2524 H   0  0  0  0  0  0  0  0  0  0  0  0
 15 16  2  0  0  0
 16 17  1  0  0  0
 16 18  1  0  0  0
 16 14  1  0  0  0
 14 13  1  0  0  0
 13  1  1  0  0  0
  1  2  1  0  0  0
  1  4  1  0  0  0
  4  5  1  0  0  0
  4  7  1  0  0  0
  7  8  2  0  0  0
  7  9  1  0  0  0
  9 10  1  0  0  0
 17 19  1  0  0  0
 18 20  1  0  0  0
  2  3  1  0  0  0
  5  6  1  0  0  0
  9 11  1  0  0  0
 10 12  1  0  0  0
M  END
> <minimizedAffinity>
-6.75404

$$$$
