6FE1_V14_A_302


 32 33  0  0  0  0  0  0  0  0999 V2000
   11.5617  -25.4985  -55.4046 F   0  0  0  0  0  0  0  0  0  0  0  0
   11.1819  -26.1514  -56.4988 C   0  0  0  0  0  0  0  0  0  0  0  0
    9.7987  -26.6648  -56.5688 C   0  0  0  0  0  0  0  0  0  0  0  0
    9.4551  -27.4112  -57.7956 C   0  0  0  0  0  0  0  0  0  0  0  0
    8.2697  -27.9184  -57.9940 F   0  0  0  0  0  0  0  0  0  0  0  0
   10.3753  -27.6488  -58.8946 C   0  0  0  0  0  0  0  0  0  0  0  0
    9.9577  -28.3152  -59.9864 F   0  0  0  0  0  0  0  0  0  0  0  0
   12.1432  -26.3777  -57.6340 C   0  0  0  0  0  0  0  0  0  0  0  0
   11.7384  -27.1603  -58.8229 C   0  0  0  0  0  0  0  0  0  0  0  0
    8.6610  -26.2854  -55.4582 S   0  0  0  0  0  0  0  0  0  0  0  0
    7.3048  -26.5555  -55.8538 O   0  0  0  0  0  0  0  0  0  0  0  0
    8.8919  -24.7407  -55.0430 N   0  0  0  0  0  0  0  0  0  0  0  0
    9.0635  -27.0314  -54.2871 O   0  0  0  0  0  0  0  0  0  0  0  0
    8.6296  -24.1365  -55.8217 H   0  0  0  0  0  0  0  0  0  0  0  0
    9.8751  -24.5933  -54.8146 H   0  0  0  0  0  0  0  0  0  0  0  0
   12.6835  -27.4204  -60.1274 S   0  0  0  0  0  0  0  0  0  0  0  0
   13.7095  -26.4222  -60.2050 O   0  0  0  0  0  0  0  0  0  0  0  0
   11.8152  -27.2650  -61.2541 O   0  0  0  0  0  0  0  0  0  0  0  0
   13.3365  -28.9657  -60.1303 C   0  0  0  0  0  0  0  0  0  0  0  0
   13.7747  -29.4027  -61.5169 C   0  0  0  0  0  0  0  0  0  0  0  0
   14.4959  -28.3242  -62.0851 O   0  0  0  0  0  0  0  0  0  0  0  0
   15.2567  -28.1117  -61.5222 H   0  0  0  0  0  0  0  0  0  0  0  0
   13.4521  -26.0738  -57.6723 N   0  0  0  0  0  0  0  0  0  0  0  0
   13.7575  -25.6986  -58.5297 H   0  0  0  0  0  0  0  0  0  0  0  0
   14.4828  -26.2012  -56.6796 C   0  0  0  0  0  0  0  0  0  0  0  0
   14.2596  -27.4414  -55.8013 C   0  0  0  0  0  0  0  0  0  0  0  0
   15.5463  -28.1005  -55.3030 C   0  0  0  0  0  0  0  0  0  0  0  0
   16.2343  -27.4922  -54.0778 C   0  0  0  0  0  0  0  0  0  0  0  0
   15.6252  -26.2269  -53.4477 C   0  0  0  0  0  0  0  0  0  0  0  0
   16.1765  -24.9177  -54.0011 C   0  0  0  0  0  0  0  0  0  0  0  0
   16.1632  -24.7962  -55.5078 C   0  0  0  0  0  0  0  0  0  0  0  0
   14.7208  -24.8663  -56.0037 C   0  0  0  0  0  0  0  0  0  0  0  0
 20 21  1  0  0  0
 20 19  1  0  0  0
 19 16  1  0  0  0
 18 16  2  0  0  0
 32 31  1  0  0  0
 32 25  1  0  0  0
 31 30  1  0  0  0
 23 25  1  0  0  0
 23  8  1  0  0  0
 30 29  1  0  0  0
 16  9  1  0  0  0
 16 17  2  0  0  0
 25 26  1  0  0  0
  8  9  2  0  0  0
  8  2  1  0  0  0
  9  6  1  0  0  0
  1  2  1  0  0  0
 29 28  1  0  0  0
  2  3  2  0  0  0
 28 27  1  0  0  0
 26 27  1  0  0  0
  6  7  1  0  0  0
  6  4  2  0  0  0
  3  4  1  0  0  0
  3 10  1  0  0  0
  4  5  1  0  0  0
 12 10  1  0  0  0
 10 11  2  0  0  0
 10 13  2  0  0  0
 12 14  1  0  0  0
 12 15  1  0  0  0
 21 22  1  0  0  0
 23 24  1  0  0  0
M  END
> <minimizedAffinity>
-9.30232

$$$$
6FE1_V14_A_302


 32 33  0  0  0  0  0  0  0  0999 V2000
   13.2457  -26.2314  -59.2404 F   0  0  0  0  0  0  0  0  0  0  0  0
   12.0290  -26.6753  -58.9396 C   0  0  0  0  0  0  0  0  0  0  0  0
   11.1476  -27.1162  -60.0397 C   0  0  0  0  0  0  0  0  0  0  0  0
    9.7985  -27.5625  -59.6384 C   0  0  0  0  0  0  0  0  0  0  0  0
    8.9166  -27.9812  -60.5038 F   0  0  0  0  0  0  0  0  0  0  0  0
    9.3199  -27.5925  -58.2669 C   0  0  0  0  0  0  0  0  0  0  0  0
    8.0820  -28.0461  -57.9987 F   0  0  0  0  0  0  0  0  0  0  0  0
   11.5531  -26.7124  -57.5127 C   0  0  0  0  0  0  0  0  0  0  0  0
   10.1764  -27.1455  -57.1859 C   0  0  0  0  0  0  0  0  0  0  0  0
   11.6739  -27.2793  -61.5787 S   0  0  0  0  0  0  0  0  0  0  0  0
   10.7471  -27.9111  -62.4791 O   0  0  0  0  0  0  0  0  0  0  0  0
   13.0997  -28.0379  -61.5204 N   0  0  0  0  0  0  0  0  0  0  0  0
   12.0066  -25.9286  -61.9717 O   0  0  0  0  0  0  0  0  0  0  0  0
   12.9567  -29.0102  -61.2472 H   0  0  0  0  0  0  0  0  0  0  0  0
   13.7019  -27.5780  -60.8376 H   0  0  0  0  0  0  0  0  0  0  0  0
    9.5784  -27.2707  -55.6728 S   0  0  0  0  0  0  0  0  0  0  0  0
   10.6447  -27.4345  -54.7288 O   0  0  0  0  0  0  0  0  0  0  0  0
    8.7930  -28.4668  -55.6798 O   0  0  0  0  0  0  0  0  0  0  0  0
    8.6068  -25.9630  -55.2726 C   0  0  0  0  0  0  0  0  0  0  0  0
    9.2145  -25.1095  -54.1735 C   0  0  0  0  0  0  0  0  0  0  0  0
   10.5115  -24.7371  -54.6042 O   0  0  0  0  0  0  0  0  0  0  0  0
   10.4468  -24.2481  -55.4394 H   0  0  0  0  0  0  0  0  0  0  0  0
   12.1890  -26.2451  -56.4244 N   0  0  0  0  0  0  0  0  0  0  0  0
   11.5964  -26.0308  -55.6680 H   0  0  0  0  0  0  0  0  0  0  0  0
   13.5828  -26.0041  -56.1731 C   0  0  0  0  0  0  0  0  0  0  0  0
   13.9504  -26.3290  -54.7175 C   0  0  0  0  0  0  0  0  0  0  0  0
   15.3741  -26.8544  -54.5294 C   0  0  0  0  0  0  0  0  0  0  0  0
   16.5129  -25.8326  -54.4735 C   0  0  0  0  0  0  0  0  0  0  0  0
   16.1715  -24.3433  -54.6593 C   0  0  0  0  0  0  0  0  0  0  0  0
   16.2409  -23.8547  -56.1018 C   0  0  0  0  0  0  0  0  0  0  0  0
   15.4711  -24.6850  -57.1033 C   0  0  0  0  0  0  0  0  0  0  0  0
   13.9880  -24.6593  -56.7413 C   0  0  0  0  0  0  0  0  0  0  0  0
 20 21  1  0  0  0
 20 19  1  0  0  0
 19 16  1  0  0  0
 18 16  2  0  0  0
 32 31  1  0  0  0
 32 25  1  0  0  0
 31 30  1  0  0  0
 23 25  1  0  0  0
 23  8  1  0  0  0
 30 29  1  0  0  0
 16  9  1  0  0  0
 16 17  2  0  0  0
 25 26  1  0  0  0
  8  9  2  0  0  0
  8  2  1  0  0  0
  9  6  1  0  0  0
  1  2  1  0  0  0
 29 28  1  0  0  0
  2  3  2  0  0  0
 28 27  1  0  0  0
 26 27  1  0  0  0
  6  7  1  0  0  0
  6  4  2  0  0  0
  3  4  1  0  0  0
  3 10  1  0  0  0
  4  5  1  0  0  0
 12 10  1  0  0  0
 10 11  2  0  0  0
 10 13  2  0  0  0
 12 14  1  0  0  0
 12 15  1  0  0  0
 21 22  1  0  0  0
 23 24  1  0  0  0
M  END
> <minimizedAffinity>
-8.43325

$$$$
6FE1_V14_A_302


 32 33  0  0  0  0  0  0  0  0999 V2000
   10.3609  -27.8916  -59.0732 F   0  0  0  0  0  0  0  0  0  0  0  0
   11.0905  -27.2604  -58.1584 C   0  0  0  0  0  0  0  0  0  0  0  0
   10.4388  -26.8479  -56.8988 C   0  0  0  0  0  0  0  0  0  0  0  0
   11.2974  -26.1199  -55.9432 C   0  0  0  0  0  0  0  0  0  0  0  0
   10.8558  -25.6984  -54.7903 F   0  0  0  0  0  0  0  0  0  0  0  0
   12.6980  -25.8089  -56.1729 C   0  0  0  0  0  0  0  0  0  0  0  0
   13.4062  -25.1670  -55.2260 F   0  0  0  0  0  0  0  0  0  0  0  0
   12.5434  -26.9575  -58.4062 C   0  0  0  0  0  0  0  0  0  0  0  0
   13.3371  -26.1981  -57.4147 C   0  0  0  0  0  0  0  0  0  0  0  0
    8.9256  -27.3161  -56.4954 S   0  0  0  0  0  0  0  0  0  0  0  0
    8.1013  -27.7382  -57.5960 O   0  0  0  0  0  0  0  0  0  0  0  0
    8.2610  -26.1121  -55.6465 N   0  0  0  0  0  0  0  0  0  0  0  0
    9.1391  -28.3617  -55.5204 O   0  0  0  0  0  0  0  0  0  0  0  0
    8.0747  -25.3226  -56.2649 H   0  0  0  0  0  0  0  0  0  0  0  0
    8.9025  -25.8220  -54.9085 H   0  0  0  0  0  0  0  0  0  0  0  0
   14.9270  -25.8614  -57.5616 S   0  0  0  0  0  0  0  0  0  0  0  0
   15.1980  -25.2934  -58.8496 O   0  0  0  0  0  0  0  0  0  0  0  0
   15.5860  -27.1288  -57.4786 O   0  0  0  0  0  0  0  0  0  0  0  0
   15.4728  -24.8627  -56.3291 C   0  0  0  0  0  0  0  0  0  0  0  0
   16.9193  -25.1410  -55.9607 C   0  0  0  0  0  0  0  0  0  0  0  0
   17.6692  -25.1064  -57.1618 O   0  0  0  0  0  0  0  0  0  0  0  0
   17.5698  -24.2369  -57.5801 H   0  0  0  0  0  0  0  0  0  0  0  0
   13.2429  -27.1657  -59.5350 N   0  0  0  0  0  0  0  0  0  0  0  0
   13.5221  -26.3429  -59.9980 H   0  0  0  0  0  0  0  0  0  0  0  0
   13.6541  -28.3800  -60.1834 C   0  0  0  0  0  0  0  0  0  0  0  0
   13.6108  -29.5708  -59.2141 C   0  0  0  0  0  0  0  0  0  0  0  0
   13.2619  -30.9064  -59.8721 C   0  0  0  0  0  0  0  0  0  0  0  0
   14.3829  -31.6681  -60.5845 C   0  0  0  0  0  0  0  0  0  0  0  0
   15.7816  -31.0283  -60.6436 C   0  0  0  0  0  0  0  0  0  0  0  0
   16.0295  -30.1648  -61.8753 C   0  0  0  0  0  0  0  0  0  0  0  0
   14.9755  -29.1175  -62.1534 C   0  0  0  0  0  0  0  0  0  0  0  0
   14.9190  -28.1397  -60.9820 C   0  0  0  0  0  0  0  0  0  0  0  0
 20 21  1  0  0  0
 20 19  1  0  0  0
 19 16  1  0  0  0
 18 16  2  0  0  0
 32 31  1  0  0  0
 32 25  1  0  0  0
 31 30  1  0  0  0
 23 25  1  0  0  0
 23  8  1  0  0  0
 30 29  1  0  0  0
 16  9  1  0  0  0
 16 17  2  0  0  0
 25 26  1  0  0  0
  8  9  2  0  0  0
  8  2  1  0  0  0
  9  6  1  0  0  0
  1  2  1  0  0  0
 29 28  1  0  0  0
  2  3  2  0  0  0
 28 27  1  0  0  0
 26 27  1  0  0  0
  6  7  1  0  0  0
  6  4  2  0  0  0
  3  4  1  0  0  0
  3 10  1  0  0  0
  4  5  1  0  0  0
 12 10  1  0  0  0
 10 11  2  0  0  0
 10 13  2  0  0  0
 12 14  1  0  0  0
 12 15  1  0  0  0
 21 22  1  0  0  0
 23 24  1  0  0  0
M  END
> <minimizedAffinity>
-8.03352

$$$$
6FE1_V14_A_302


 32 33  0  0  0  0  0  0  0  0999 V2000
   14.8411  -28.5916  -58.6253 F   0  0  0  0  0  0  0  0  0  0  0  0
   13.5329  -28.3581  -58.6678 C   0  0  0  0  0  0  0  0  0  0  0  0
   12.8193  -28.5745  -59.9428 C   0  0  0  0  0  0  0  0  0  0  0  0
   11.3764  -28.2614  -59.9290 C   0  0  0  0  0  0  0  0  0  0  0  0
   10.6211  -28.4080  -60.9825 F   0  0  0  0  0  0  0  0  0  0  0  0
   10.6546  -27.7761  -58.7652 C   0  0  0  0  0  0  0  0  0  0  0  0
    9.3309  -27.5483  -58.8441 F   0  0  0  0  0  0  0  0  0  0  0  0
   12.7976  -27.8684  -57.4499 C   0  0  0  0  0  0  0  0  0  0  0  0
   11.3546  -27.5473  -57.5163 C   0  0  0  0  0  0  0  0  0  0  0  0
   13.5225  -29.2842  -61.2364 S   0  0  0  0  0  0  0  0  0  0  0  0
   14.2402  -30.4983  -60.9541 O   0  0  0  0  0  0  0  0  0  0  0  0
   14.4460  -28.1681  -61.9531 N   0  0  0  0  0  0  0  0  0  0  0  0
   12.4257  -29.4814  -62.1572 O   0  0  0  0  0  0  0  0  0  0  0  0
   15.2539  -27.9661  -61.3641 H   0  0  0  0  0  0  0  0  0  0  0  0
   13.9036  -27.3153  -62.0905 H   0  0  0  0  0  0  0  0  0  0  0  0
   10.4538  -27.0598  -56.2459 S   0  0  0  0  0  0  0  0  0  0  0  0
   10.8491  -25.7456  -55.8314 O   0  0  0  0  0  0  0  0  0  0  0  0
   10.7646  -27.9784  -55.1938 O   0  0  0  0  0  0  0  0  0  0  0  0
    8.8113  -27.1239  -56.5808 C   0  0  0  0  0  0  0  0  0  0  0  0
    7.9921  -26.2989  -55.6040 C   0  0  0  0  0  0  0  0  0  0  0  0
    8.1253  -26.9065  -54.3315 O   0  0  0  0  0  0  0  0  0  0  0  0
    9.0619  -26.9285  -54.0801 H   0  0  0  0  0  0  0  0  0  0  0  0
   13.3208  -27.5202  -56.2616 N   0  0  0  0  0  0  0  0  0  0  0  0
   13.1996  -28.1913  -55.5516 H   0  0  0  0  0  0  0  0  0  0  0  0
   14.0262  -26.3391  -55.8475 C   0  0  0  0  0  0  0  0  0  0  0  0
   14.8450  -25.7456  -57.0037 C   0  0  0  0  0  0  0  0  0  0  0  0
   14.9739  -24.2223  -56.9677 C   0  0  0  0  0  0  0  0  0  0  0  0
   16.0371  -23.6152  -56.0483 C   0  0  0  0  0  0  0  0  0  0  0  0
   16.8803  -24.5628  -55.1765 C   0  0  0  0  0  0  0  0  0  0  0  0
   16.3020  -24.8285  -53.7911 C   0  0  0  0  0  0  0  0  0  0  0  0
   14.8545  -25.2634  -53.7672 C   0  0  0  0  0  0  0  0  0  0  0  0
   14.7154  -26.5841  -54.5207 C   0  0  0  0  0  0  0  0  0  0  0  0
 20 21  1  0  0  0
 20 19  1  0  0  0
 19 16  1  0  0  0
 18 16  2  0  0  0
 32 31  1  0  0  0
 32 25  1  0  0  0
 31 30  1  0  0  0
 23 25  1  0  0  0
 23  8  1  0  0  0
 30 29  1  0  0  0
 16  9  1  0  0  0
 16 17  2  0  0  0
 25 26  1  0  0  0
  8  9  2  0  0  0
  8  2  1  0  0  0
  9  6  1  0  0  0
  1  2  1  0  0  0
 29 28  1  0  0  0
  2  3  2  0  0  0
 28 27  1  0  0  0
 26 27  1  0  0  0
  6  7  1  0  0  0
  6  4  2  0  0  0
  3  4  1  0  0  0
  3 10  1  0  0  0
  4  5  1  0  0  0
 12 10  1  0  0  0
 10 11  2  0  0  0
 10 13  2  0  0  0
 12 14  1  0  0  0
 12 15  1  0  0  0
 21 22  1  0  0  0
 23 24  1  0  0  0
M  END
> <minimizedAffinity>
-7.90867

$$$$
6FE1_V14_A_302


 32 33  0  0  0  0  0  0  0  0999 V2000
   11.6588  -25.8875  -55.2743 F   0  0  0  0  0  0  0  0  0  0  0  0
   11.0738  -26.5014  -56.2983 C   0  0  0  0  0  0  0  0  0  0  0  0
    9.6128  -26.7133  -56.2517 C   0  0  0  0  0  0  0  0  0  0  0  0
    9.0341  -27.4330  -57.4038 C   0  0  0  0  0  0  0  0  0  0  0  0
    7.7580  -27.6874  -57.4974 F   0  0  0  0  0  0  0  0  0  0  0  0
    9.8031  -27.9170  -58.5376 C   0  0  0  0  0  0  0  0  0  0  0  0
    9.1787  -28.5359  -59.5561 F   0  0  0  0  0  0  0  0  0  0  0  0
   11.8827  -26.9849  -57.4712 C   0  0  0  0  0  0  0  0  0  0  0  0
   11.2395  -27.7250  -58.5795 C   0  0  0  0  0  0  0  0  0  0  0  0
    8.6618  -26.0443  -55.1029 S   0  0  0  0  0  0  0  0  0  0  0  0
    8.9614  -26.4402  -53.7530 O   0  0  0  0  0  0  0  0  0  0  0  0
    7.1282  -26.3462  -55.5138 N   0  0  0  0  0  0  0  0  0  0  0  0
    8.8133  -24.6228  -55.3181 O   0  0  0  0  0  0  0  0  0  0  0  0
    6.9325  -27.3397  -55.3907 H   0  0  0  0  0  0  0  0  0  0  0  0
    6.9807  -26.0890  -56.4898 H   0  0  0  0  0  0  0  0  0  0  0  0
   12.0134  -28.2470  -59.9179 S   0  0  0  0  0  0  0  0  0  0  0  0
   12.0489  -29.6799  -59.9448 O   0  0  0  0  0  0  0  0  0  0  0  0
   13.3539  -27.7639  -59.7861 O   0  0  0  0  0  0  0  0  0  0  0  0
   11.3287  -27.6289  -61.3191 C   0  0  0  0  0  0  0  0  0  0  0  0
   11.5168  -26.1267  -61.4374 C   0  0  0  0  0  0  0  0  0  0  0  0
   12.8806  -25.9006  -61.7457 O   0  0  0  0  0  0  0  0  0  0  0  0
   13.1043  -26.3533  -62.5739 H   0  0  0  0  0  0  0  0  0  0  0  0
   13.2199  -26.9674  -57.6074 N   0  0  0  0  0  0  0  0  0  0  0  0
   13.5507  -27.3983  -58.4284 H   0  0  0  0  0  0  0  0  0  0  0  0
   14.2504  -26.4293  -56.7631 C   0  0  0  0  0  0  0  0  0  0  0  0
   14.9346  -25.2216  -57.4208 C   0  0  0  0  0  0  0  0  0  0  0  0
   15.4203  -24.1584  -56.4347 C   0  0  0  0  0  0  0  0  0  0  0  0
   16.7590  -24.3939  -55.7298 C   0  0  0  0  0  0  0  0  0  0  0  0
   17.5155  -25.7044  -56.0116 C   0  0  0  0  0  0  0  0  0  0  0  0
   17.1829  -26.8438  -55.0547 C   0  0  0  0  0  0  0  0  0  0  0  0
   15.7092  -27.1312  -54.8791 C   0  0  0  0  0  0  0  0  0  0  0  0
   15.1163  -27.5489  -56.2227 C   0  0  0  0  0  0  0  0  0  0  0  0
 20 21  1  0  0  0
 20 19  1  0  0  0
 19 16  1  0  0  0
 18 16  2  0  0  0
 32 31  1  0  0  0
 32 25  1  0  0  0
 31 30  1  0  0  0
 23 25  1  0  0  0
 23  8  1  0  0  0
 30 29  1  0  0  0
 16  9  1  0  0  0
 16 17  2  0  0  0
 25 26  1  0  0  0
  8  9  2  0  0  0
  8  2  1  0  0  0
  9  6  1  0  0  0
  1  2  1  0  0  0
 29 28  1  0  0  0
  2  3  2  0  0  0
 28 27  1  0  0  0
 26 27  1  0  0  0
  6  7  1  0  0  0
  6  4  2  0  0  0
  3  4  1  0  0  0
  3 10  1  0  0  0
  4  5  1  0  0  0
 12 10  1  0  0  0
 10 11  2  0  0  0
 10 13  2  0  0  0
 12 14  1  0  0  0
 12 15  1  0  0  0
 21 22  1  0  0  0
 23 24  1  0  0  0
M  END
> <minimizedAffinity>
-7.79169

$$$$
6FE1_V14_A_302


 32 33  0  0  0  0  0  0  0  0999 V2000
   12.0199  -26.5685  -55.5179 F   0  0  0  0  0  0  0  0  0  0  0  0
   11.8042  -26.8508  -56.7992 C   0  0  0  0  0  0  0  0  0  0  0  0
   10.4452  -27.2549  -57.2129 C   0  0  0  0  0  0  0  0  0  0  0  0
   10.2847  -27.5890  -58.6421 C   0  0  0  0  0  0  0  0  0  0  0  0
    9.1402  -27.9586  -59.1475 F   0  0  0  0  0  0  0  0  0  0  0  0
   11.3568  -27.5349  -59.6214 C   0  0  0  0  0  0  0  0  0  0  0  0
   11.1035  -27.8289  -60.9096 F   0  0  0  0  0  0  0  0  0  0  0  0
   12.9224  -26.7771  -57.8033 C   0  0  0  0  0  0  0  0  0  0  0  0
   12.6957  -27.1541  -59.2162 C   0  0  0  0  0  0  0  0  0  0  0  0
    9.1567  -27.1670  -56.2109 S   0  0  0  0  0  0  0  0  0  0  0  0
    7.8731  -27.2227  -56.8575 O   0  0  0  0  0  0  0  0  0  0  0  0
    9.3410  -25.8396  -55.3076 N   0  0  0  0  0  0  0  0  0  0  0  0
    9.3673  -28.2576  -55.2858 O   0  0  0  0  0  0  0  0  0  0  0  0
    9.2075  -25.0118  -55.8884 H   0  0  0  0  0  0  0  0  0  0  0  0
   10.2797  -25.8273  -54.9088 H   0  0  0  0  0  0  0  0  0  0  0  0
   13.8228  -27.0619  -60.3926 S   0  0  0  0  0  0  0  0  0  0  0  0
   14.8451  -26.1248  -60.0294 O   0  0  0  0  0  0  0  0  0  0  0  0
   13.1283  -26.5531  -61.5356 O   0  0  0  0  0  0  0  0  0  0  0  0
   14.4753  -28.5644  -60.7546 C   0  0  0  0  0  0  0  0  0  0  0  0
   15.2298  -28.5619  -62.0724 C   0  0  0  0  0  0  0  0  0  0  0  0
   16.1258  -27.4654  -62.0374 O   0  0  0  0  0  0  0  0  0  0  0  0
   16.7277  -27.5637  -61.2832 H   0  0  0  0  0  0  0  0  0  0  0  0
   14.2234  -26.5375  -57.5649 N   0  0  0  0  0  0  0  0  0  0  0  0
   14.5736  -25.7260  -57.9986 H   0  0  0  0  0  0  0  0  0  0  0  0
   15.1919  -27.2596  -56.7872 C   0  0  0  0  0  0  0  0  0  0  0  0
   16.6020  -26.6812  -56.9778 C   0  0  0  0  0  0  0  0  0  0  0  0
   17.4987  -26.7877  -55.7437 C   0  0  0  0  0  0  0  0  0  0  0  0
   18.2010  -28.1229  -55.4819 C   0  0  0  0  0  0  0  0  0  0  0  0
   17.9283  -29.2952  -56.4413 C   0  0  0  0  0  0  0  0  0  0  0  0
   16.7703  -30.1953  -56.0254 C   0  0  0  0  0  0  0  0  0  0  0  0
   15.4762  -29.4801  -55.7106 C   0  0  0  0  0  0  0  0  0  0  0  0
   14.9895  -28.7511  -56.9607 C   0  0  0  0  0  0  0  0  0  0  0  0
 20 21  1  0  0  0
 20 19  1  0  0  0
 19 16  1  0  0  0
 18 16  2  0  0  0
 32 31  1  0  0  0
 32 25  1  0  0  0
 31 30  1  0  0  0
 23 25  1  0  0  0
 23  8  1  0  0  0
 30 29  1  0  0  0
 16  9  1  0  0  0
 16 17  2  0  0  0
 25 26  1  0  0  0
  8  9  2  0  0  0
  8  2  1  0  0  0
  9  6  1  0  0  0
  1  2  1  0  0  0
 29 28  1  0  0  0
  2  3  2  0  0  0
 28 27  1  0  0  0
 26 27  1  0  0  0
  6  7  1  0  0  0
  6  4  2  0  0  0
  3  4  1  0  0  0
  3 10  1  0  0  0
  4  5  1  0  0  0
 12 10  1  0  0  0
 10 11  2  0  0  0
 10 13  2  0  0  0
 12 14  1  0  0  0
 12 15  1  0  0  0
 21 22  1  0  0  0
 23 24  1  0  0  0
M  END
> <minimizedAffinity>
-7.75700

$$$$
6FE1_V14_A_302


 32 33  0  0  0  0  0  0  0  0999 V2000
   15.0625  -29.7561  -56.6782 F   0  0  0  0  0  0  0  0  0  0  0  0
   14.3465  -29.6771  -57.7957 C   0  0  0  0  0  0  0  0  0  0  0  0
   14.6198  -30.6443  -58.8779 C   0  0  0  0  0  0  0  0  0  0  0  0
   13.8141  -30.4767  -60.1038 C   0  0  0  0  0  0  0  0  0  0  0  0
   13.9470  -31.2607  -61.1380 F   0  0  0  0  0  0  0  0  0  0  0  0
   12.8020  -29.4502  -60.2849 C   0  0  0  0  0  0  0  0  0  0  0  0
   12.0971  -29.3981  -61.4297 F   0  0  0  0  0  0  0  0  0  0  0  0
   13.2926  -28.6161  -57.9623 C   0  0  0  0  0  0  0  0  0  0  0  0
   12.5417  -28.4890  -59.2311 C   0  0  0  0  0  0  0  0  0  0  0  0
   15.6106  -31.9294  -58.6812 S   0  0  0  0  0  0  0  0  0  0  0  0
   16.2604  -32.0115  -57.4007 O   0  0  0  0  0  0  0  0  0  0  0  0
   16.6589  -31.9198  -59.9112 N   0  0  0  0  0  0  0  0  0  0  0  0
   14.7571  -33.0644  -58.9517 O   0  0  0  0  0  0  0  0  0  0  0  0
   17.3073  -31.1404  -59.7992 H   0  0  0  0  0  0  0  0  0  0  0  0
   16.1513  -31.8162  -60.7898 H   0  0  0  0  0  0  0  0  0  0  0  0
   11.3470  -27.4099  -59.4972 S   0  0  0  0  0  0  0  0  0  0  0  0
   11.8819  -26.0814  -59.5602 O   0  0  0  0  0  0  0  0  0  0  0  0
   10.4985  -27.5019  -58.3487 O   0  0  0  0  0  0  0  0  0  0  0  0
   10.4664  -27.7774  -60.8770 C   0  0  0  0  0  0  0  0  0  0  0  0
    8.9892  -27.9699  -60.5827 C   0  0  0  0  0  0  0  0  0  0  0  0
    8.6011  -29.1935  -61.1815 O   0  0  0  0  0  0  0  0  0  0  0  0
    9.1339  -29.9163  -60.8147 H   0  0  0  0  0  0  0  0  0  0  0  0
   13.0075  -27.6054  -57.1232 N   0  0  0  0  0  0  0  0  0  0  0  0
   12.0624  -27.5565  -56.8518 H   0  0  0  0  0  0  0  0  0  0  0  0
   13.8420  -26.5841  -56.5535 C   0  0  0  0  0  0  0  0  0  0  0  0
   14.9449  -26.1558  -57.5330 C   0  0  0  0  0  0  0  0  0  0  0  0
   15.3520  -24.6861  -57.4201 C   0  0  0  0  0  0  0  0  0  0  0  0
   16.3368  -24.2989  -56.3135 C   0  0  0  0  0  0  0  0  0  0  0  0
   16.8224  -25.3946  -55.3478 C   0  0  0  0  0  0  0  0  0  0  0  0
   15.9748  -25.5486  -54.0899 C   0  0  0  0  0  0  0  0  0  0  0  0
   14.4889  -25.6960  -54.3256 C   0  0  0  0  0  0  0  0  0  0  0  0
   14.2337  -26.9623  -55.1396 C   0  0  0  0  0  0  0  0  0  0  0  0
 20 21  1  0  0  0
 20 19  1  0  0  0
 19 16  1  0  0  0
 18 16  2  0  0  0
 32 31  1  0  0  0
 32 25  1  0  0  0
 31 30  1  0  0  0
 23 25  1  0  0  0
 23  8  1  0  0  0
 30 29  1  0  0  0
 16  9  1  0  0  0
 16 17  2  0  0  0
 25 26  1  0  0  0
  8  9  2  0  0  0
  8  2  1  0  0  0
  9  6  1  0  0  0
  1  2  1  0  0  0
 29 28  1  0  0  0
  2  3  2  0  0  0
 28 27  1  0  0  0
 26 27  1  0  0  0
  6  7  1  0  0  0
  6  4  2  0  0  0
  3  4  1  0  0  0
  3 10  1  0  0  0
  4  5  1  0  0  0
 12 10  1  0  0  0
 10 11  2  0  0  0
 10 13  2  0  0  0
 12 14  1  0  0  0
 12 15  1  0  0  0
 21 22  1  0  0  0
 23 24  1  0  0  0
M  END
> <minimizedAffinity>
-7.57703

$$$$
6FE1_V14_A_302


 32 33  0  0  0  0  0  0  0  0999 V2000
   11.6646  -26.8463  -58.2358 F   0  0  0  0  0  0  0  0  0  0  0  0
   12.3393  -27.8317  -58.8200 C   0  0  0  0  0  0  0  0  0  0  0  0
   11.8404  -28.3627  -60.1048 C   0  0  0  0  0  0  0  0  0  0  0  0
   12.6163  -29.4797  -60.6796 C   0  0  0  0  0  0  0  0  0  0  0  0
   12.2928  -30.0441  -61.8104 F   0  0  0  0  0  0  0  0  0  0  0  0
   13.8029  -30.0530  -60.0678 C   0  0  0  0  0  0  0  0  0  0  0  0
   14.4603  -31.0510  -60.6859 F   0  0  0  0  0  0  0  0  0  0  0  0
   13.5742  -28.4056  -58.1798 C   0  0  0  0  0  0  0  0  0  0  0  0
   14.2867  -29.5452  -58.7989 C   0  0  0  0  0  0  0  0  0  0  0  0
   10.6245  -27.6555  -60.9375 S   0  0  0  0  0  0  0  0  0  0  0  0
    9.3595  -27.6107  -60.2545 O   0  0  0  0  0  0  0  0  0  0  0  0
   10.5312  -28.3952  -62.3714 N   0  0  0  0  0  0  0  0  0  0  0  0
   11.1414  -26.3420  -61.2490 O   0  0  0  0  0  0  0  0  0  0  0  0
   10.1709  -29.3408  -62.2434 H   0  0  0  0  0  0  0  0  0  0  0  0
   11.4593  -28.4390  -62.7924 H   0  0  0  0  0  0  0  0  0  0  0  0
   15.6594  -30.2076  -58.2158 S   0  0  0  0  0  0  0  0  0  0  0  0
   15.5010  -30.5414  -56.8307 O   0  0  0  0  0  0  0  0  0  0  0  0
   16.6457  -29.1764  -58.3226 O   0  0  0  0  0  0  0  0  0  0  0  0
   16.1416  -31.5412  -59.1120 C   0  0  0  0  0  0  0  0  0  0  0  0
   15.9917  -32.8392  -58.3383 C   0  0  0  0  0  0  0  0  0  0  0  0
   14.6189  -33.1865  -58.3692 O   0  0  0  0  0  0  0  0  0  0  0  0
   14.3313  -33.2863  -59.2902 H   0  0  0  0  0  0  0  0  0  0  0  0
   14.0840  -28.1095  -56.9717 N   0  0  0  0  0  0  0  0  0  0  0  0
   14.2302  -28.8899  -56.3897 H   0  0  0  0  0  0  0  0  0  0  0  0
   14.4525  -26.8522  -56.3822 C   0  0  0  0  0  0  0  0  0  0  0  0
   15.3650  -26.0449  -57.3177 C   0  0  0  0  0  0  0  0  0  0  0  0
   15.1933  -24.5291  -57.2117 C   0  0  0  0  0  0  0  0  0  0  0  0
   15.9097  -23.8056  -56.0682 C   0  0  0  0  0  0  0  0  0  0  0  0
   16.7186  -24.6444  -55.0625 C   0  0  0  0  0  0  0  0  0  0  0  0
   15.9279  -25.1025  -53.8422 C   0  0  0  0  0  0  0  0  0  0  0  0
   14.6154  -25.7896  -54.1428 C   0  0  0  0  0  0  0  0  0  0  0  0
   14.8869  -27.0597  -54.9457 C   0  0  0  0  0  0  0  0  0  0  0  0
 20 21  1  0  0  0
 20 19  1  0  0  0
 19 16  1  0  0  0
 18 16  2  0  0  0
 32 31  1  0  0  0
 32 25  1  0  0  0
 31 30  1  0  0  0
 23 25  1  0  0  0
 23  8  1  0  0  0
 30 29  1  0  0  0
 16  9  1  0  0  0
 16 17  2  0  0  0
 25 26  1  0  0  0
  8  9  2  0  0  0
  8  2  1  0  0  0
  9  6  1  0  0  0
  1  2  1  0  0  0
 29 28  1  0  0  0
  2  3  2  0  0  0
 28 27  1  0  0  0
 26 27  1  0  0  0
  6  7  1  0  0  0
  6  4  2  0  0  0
  3  4  1  0  0  0
  3 10  1  0  0  0
  4  5  1  0  0  0
 12 10  1  0  0  0
 10 11  2  0  0  0
 10 13  2  0  0  0
 12 14  1  0  0  0
 12 15  1  0  0  0
 21 22  1  0  0  0
 23 24  1  0  0  0
M  END
> <minimizedAffinity>
-7.49032

$$$$
6FE1_V14_A_302


 32 33  0  0  0  0  0  0  0  0999 V2000
   12.5386  -26.9744  -57.7466 F   0  0  0  0  0  0  0  0  0  0  0  0
   13.0768  -27.9564  -58.4634 C   0  0  0  0  0  0  0  0  0  0  0  0
   12.5001  -28.2592  -59.7890 C   0  0  0  0  0  0  0  0  0  0  0  0
   13.1221  -29.3845  -60.5150 C   0  0  0  0  0  0  0  0  0  0  0  0
   12.7170  -29.7610  -61.6965 F   0  0  0  0  0  0  0  0  0  0  0  0
   14.2338  -30.1713  -60.0089 C   0  0  0  0  0  0  0  0  0  0  0  0
   14.7529  -31.1593  -60.7604 F   0  0  0  0  0  0  0  0  0  0  0  0
   14.2366  -28.7532  -57.9305 C   0  0  0  0  0  0  0  0  0  0  0  0
   14.7924  -29.8874  -58.7014 C   0  0  0  0  0  0  0  0  0  0  0  0
   11.3737  -27.3099  -60.4973 S   0  0  0  0  0  0  0  0  0  0  0  0
   11.0099  -27.6866  -61.8369 O   0  0  0  0  0  0  0  0  0  0  0  0
   11.9020  -25.7855  -60.4017 N   0  0  0  0  0  0  0  0  0  0  0  0
   10.2589  -27.3572  -59.5782 O   0  0  0  0  0  0  0  0  0  0  0  0
   12.6986  -25.6618  -61.0266 H   0  0  0  0  0  0  0  0  0  0  0  0
   12.1873  -25.5840  -59.4433 H   0  0  0  0  0  0  0  0  0  0  0  0
   16.0771  -30.7814  -58.2397 S   0  0  0  0  0  0  0  0  0  0  0  0
   15.9114  -31.2286  -56.8878 O   0  0  0  0  0  0  0  0  0  0  0  0
   17.1914  -29.8850  -58.2861 O   0  0  0  0  0  0  0  0  0  0  0  0
   16.3494  -32.0705  -59.2781 C   0  0  0  0  0  0  0  0  0  0  0  0
   16.1039  -33.4110  -58.6082 C   0  0  0  0  0  0  0  0  0  0  0  0
   14.7125  -33.5040  -58.3600 O   0  0  0  0  0  0  0  0  0  0  0  0
   14.2291  -33.4314  -59.1978 H   0  0  0  0  0  0  0  0  0  0  0  0
   14.7935  -28.6735  -56.7096 N   0  0  0  0  0  0  0  0  0  0  0  0
   14.7149  -29.4947  -56.1724 H   0  0  0  0  0  0  0  0  0  0  0  0
   15.4835  -27.5983  -56.0524 C   0  0  0  0  0  0  0  0  0  0  0  0
   14.5443  -26.8248  -55.1149 C   0  0  0  0  0  0  0  0  0  0  0  0
   15.2269  -26.2501  -53.8730 C   0  0  0  0  0  0  0  0  0  0  0  0
   15.9880  -24.9298  -54.0206 C   0  0  0  0  0  0  0  0  0  0  0  0
   16.0677  -24.2813  -55.4142 C   0  0  0  0  0  0  0  0  0  0  0  0
   17.2830  -24.6968  -56.2355 C   0  0  0  0  0  0  0  0  0  0  0  0
   17.5061  -26.1874  -56.3513 C   0  0  0  0  0  0  0  0  0  0  0  0
   16.3090  -26.8202  -57.0568 C   0  0  0  0  0  0  0  0  0  0  0  0
 20 21  1  0  0  0
 20 19  1  0  0  0
 19 16  1  0  0  0
 18 16  2  0  0  0
 32 31  1  0  0  0
 32 25  1  0  0  0
 31 30  1  0  0  0
 23 25  1  0  0  0
 23  8  1  0  0  0
 30 29  1  0  0  0
 16  9  1  0  0  0
 16 17  2  0  0  0
 25 26  1  0  0  0
  8  9  2  0  0  0
  8  2  1  0  0  0
  9  6  1  0  0  0
  1  2  1  0  0  0
 29 28  1  0  0  0
  2  3  2  0  0  0
 28 27  1  0  0  0
 26 27  1  0  0  0
  6  7  1  0  0  0
  6  4  2  0  0  0
  3  4  1  0  0  0
  3 10  1  0  0  0
  4  5  1  0  0  0
 12 10  1  0  0  0
 10 11  2  0  0  0
 10 13  2  0  0  0
 12 14  1  0  0  0
 12 15  1  0  0  0
 21 22  1  0  0  0
 23 24  1  0  0  0
M  END
> <minimizedAffinity>
-7.45144

$$$$
6FE1_V14_A_302


 32 33  0  0  0  0  0  0  0  0999 V2000
   16.1158  -26.1155  -60.4474 F   0  0  0  0  0  0  0  0  0  0  0  0
   16.0257  -25.6242  -59.2153 C   0  0  0  0  0  0  0  0  0  0  0  0
   16.9001  -24.4942  -58.8413 C   0  0  0  0  0  0  0  0  0  0  0  0
   16.7742  -24.0222  -57.4479 C   0  0  0  0  0  0  0  0  0  0  0  0
   17.4820  -23.0307  -56.9811 F   0  0  0  0  0  0  0  0  0  0  0  0
   15.8627  -24.5907  -56.4697 C   0  0  0  0  0  0  0  0  0  0  0  0
   15.7987  -24.0698  -55.2308 F   0  0  0  0  0  0  0  0  0  0  0  0
   15.0669  -26.2159  -58.2179 C   0  0  0  0  0  0  0  0  0  0  0  0
   15.0141  -25.7103  -56.8282 C   0  0  0  0  0  0  0  0  0  0  0  0
   17.8160  -23.6909  -59.9311 S   0  0  0  0  0  0  0  0  0  0  0  0
   18.3712  -22.4479  -59.4669 O   0  0  0  0  0  0  0  0  0  0  0  0
   16.9258  -23.5136  -61.2683 N   0  0  0  0  0  0  0  0  0  0  0  0
   18.8279  -24.6536  -60.3039 O   0  0  0  0  0  0  0  0  0  0  0  0
   16.1781  -22.8424  -61.0925 H   0  0  0  0  0  0  0  0  0  0  0  0
   16.5210  -24.4128  -61.5290 H   0  0  0  0  0  0  0  0  0  0  0  0
   13.9792  -26.2453  -55.6856 S   0  0  0  0  0  0  0  0  0  0  0  0
   14.4019  -25.8075  -54.3877 O   0  0  0  0  0  0  0  0  0  0  0  0
   14.0744  -27.6722  -55.7348 O   0  0  0  0  0  0  0  0  0  0  0  0
   12.3997  -25.7765  -56.0016 C   0  0  0  0  0  0  0  0  0  0  0  0
   11.3869  -26.7882  -55.4954 C   0  0  0  0  0  0  0  0  0  0  0  0
   11.3115  -27.8213  -56.4614 O   0  0  0  0  0  0  0  0  0  0  0  0
   12.1876  -28.2218  -56.5755 H   0  0  0  0  0  0  0  0  0  0  0  0
   14.2948  -27.3056  -58.3704 N   0  0  0  0  0  0  0  0  0  0  0  0
   14.3886  -27.9740  -57.6537 H   0  0  0  0  0  0  0  0  0  0  0  0
   13.3563  -27.6645  -59.3973 C   0  0  0  0  0  0  0  0  0  0  0  0
   12.2292  -26.6270  -59.5088 C   0  0  0  0  0  0  0  0  0  0  0  0
   11.6777  -26.4452  -60.9234 C   0  0  0  0  0  0  0  0  0  0  0  0
   10.6454  -27.4586  -61.4252 C   0  0  0  0  0  0  0  0  0  0  0  0
   10.2580  -28.6284  -60.5030 C   0  0  0  0  0  0  0  0  0  0  0  0
   11.1005  -29.8853  -60.6895 C   0  0  0  0  0  0  0  0  0  0  0  0
   12.5965  -29.6732  -60.6459 C   0  0  0  0  0  0  0  0  0  0  0  0
   12.9858  -29.1284  -59.2737 C   0  0  0  0  0  0  0  0  0  0  0  0
 20 21  1  0  0  0
 20 19  1  0  0  0
 19 16  1  0  0  0
 18 16  2  0  0  0
 32 31  1  0  0  0
 32 25  1  0  0  0
 31 30  1  0  0  0
 23 25  1  0  0  0
 23  8  1  0  0  0
 30 29  1  0  0  0
 16  9  1  0  0  0
 16 17  2  0  0  0
 25 26  1  0  0  0
  8  9  2  0  0  0
  8  2  1  0  0  0
  9  6  1  0  0  0
  1  2  1  0  0  0
 29 28  1  0  0  0
  2  3  2  0  0  0
 28 27  1  0  0  0
 26 27  1  0  0  0
  6  7  1  0  0  0
  6  4  2  0  0  0
  3  4  1  0  0  0
  3 10  1  0  0  0
  4  5  1  0  0  0
 12 10  1  0  0  0
 10 11  2  0  0  0
 10 13  2  0  0  0
 12 14  1  0  0  0
 12 15  1  0  0  0
 21 22  1  0  0  0
 23 24  1  0  0  0
M  END
> <minimizedAffinity>
-7.23404

$$$$
