1SDV_MK1_B_902


 49 53  0  0  0  0  0  0  0  0999 V2000
   23.7005   15.7819    5.0193 C   0  0  0  0  0  0  0  0  0  0  0  0
   24.3459   14.6216    4.6365 O   0  0  0  0  0  0  0  0  0  0  0  0
   25.1615   14.5202    5.1517 H   0  0  0  0  0  0  0  0  0  0  0  0
   24.6964   16.9139    4.7227 C   0  0  0  0  0  0  0  0  0  0  0  0
   23.7772   20.6247    2.8592 N   0  0  0  0  0  0  0  0  0  0  0  0
   23.7663   20.4899    4.3553 C   0  0  0  0  0  0  0  0  0  0  0  0
   24.6538   19.3801    4.9339 C   0  0  0  0  0  0  0  0  0  0  0  0
   23.9806   18.1513    4.3477 N   0  0  0  0  0  0  0  0  0  0  0  0
   23.9140   18.1801    2.8655 C   0  0  0  0  0  0  0  0  0  0  0  0
   23.3046   19.4470    2.2966 C   0  0  0  0  0  0  0  0  0  0  0  0
   24.6298   19.4222    6.4258 C   0  0  0  0  0  0  0  0  0  0  0  0
   23.5827   19.2213    7.0273 O   0  0  0  0  0  0  0  0  0  0  0  0
   25.7993   19.6825    7.0038 N   0  0  0  0  0  0  0  0  0  0  0  0
   26.5657   19.8658    6.4137 H   0  0  0  0  0  0  0  0  0  0  0  0
   26.0351   19.7179    8.4364 C   0  0  0  0  0  0  0  0  0  0  0  0
   27.5022   20.0967    8.6557 C   0  0  0  0  0  0  0  0  0  0  0  0
   25.7744   18.4542    8.9869 C   0  0  0  0  0  0  0  0  0  0  0  0
   25.1765   20.7333    9.0499 C   0  0  0  0  0  0  0  0  0  0  0  0
   23.0888   21.7970    2.3389 C   0  0  0  0  0  0  0  0  0  0  0  0
   23.5340   23.1761    2.8442 C   0  0  0  0  0  0  0  0  0  0  0  0
   24.8254   23.6651    2.6062 C   0  0  0  0  0  0  0  0  0  0  0  0
   25.2815   24.9624    2.9350 N   0  0  0  0  0  0  0  0  0  0  0  0
   24.2620   25.6720    3.5466 C   0  0  0  0  0  0  0  0  0  0  0  0
   22.9740   25.2295    3.8217 C   0  0  0  0  0  0  0  0  0  0  0  0
   22.5707   23.9458    3.4840 C   0  0  0  0  0  0  0  0  0  0  0  0
   23.2922   15.6834    6.5007 C   0  0  0  0  0  0  0  0  0  0  0  0
   22.4273   14.4548    6.9041 C   0  0  0  0  0  0  0  0  0  0  0  0
   21.0670   14.5785    6.2455 C   0  0  0  0  0  0  0  0  0  0  0  0
   20.2929   15.5493    6.3455 O   0  0  0  0  0  0  0  0  0  0  0  0
   20.7450   13.4752    5.5965 N   0  0  0  0  0  0  0  0  0  0  0  0
   21.4317   12.8058    5.3738 H   0  0  0  0  0  0  0  0  0  0  0  0
   19.3557   13.2667    5.2162 C   0  0  0  0  0  0  0  0  0  0  0  0
   18.8522   11.8422    5.4007 C   0  0  0  0  0  0  0  0  0  0  0  0
   19.8480   10.8883    5.0286 O   0  0  0  0  0  0  0  0  0  0  0  0
   17.6600   11.7418    4.4779 C   0  0  0  0  0  0  0  0  0  0  0  0
   17.9947   12.5433    3.2345 C   0  0  0  0  0  0  0  0  0  0  0  0
   17.5553   12.5584    1.9381 C   0  0  0  0  0  0  0  0  0  0  0  0
   18.1283   13.4971    1.0908 C   0  0  0  0  0  0  0  0  0  0  0  0
   19.0996   14.4035    1.5133 C   0  0  0  0  0  0  0  0  0  0  0  0
   19.5464   14.4181    2.8116 C   0  0  0  0  0  0  0  0  0  0  0  0
   19.0673   13.5363    3.7213 C   0  0  0  0  0  0  0  0  0  0  0  0
   20.1068   11.0344    4.1052 H   0  0  0  0  0  0  0  0  0  0  0  0
   22.2573   14.4427    8.4369 C   0  0  0  0  0  0  0  0  0  0  0  0
   21.4454   13.3431    8.9787 C   0  0  0  0  0  0  0  0  0  0  0  0
   20.3142   13.6128    9.7533 C   0  0  0  0  0  0  0  0  0  0  0  0
   19.5514   12.5526   10.2323 C   0  0  0  0  0  0  0  0  0  0  0  0
   19.9113   11.2458    9.9410 C   0  0  0  0  0  0  0  0  0  0  0  0
   21.0279   10.9794    9.1567 C   0  0  0  0  0  0  0  0  0  0  0  0
   21.7773   12.0351    8.6858 C   0  0  0  0  0  0  0  0  0  0  0  0
  5  6  1  0  0  0
  5 10  1  0  0  0
  5 19  1  0  0  0
  6  7  1  0  0  0
  7 11  1  0  0  0
  7  8  1  0  0  0
 11 12  2  0  0  0
 11 13  1  0  0  0
 13 15  1  0  0  0
 15 16  1  0  0  0
 15 17  1  0  0  0
 15 18  1  0  0  0
  8  9  1  0  0  0
  8  4  1  0  0  0
  9 10  1  0  0  0
  4  1  1  0  0  0
  1  2  1  0  0  0
  1 26  1  0  0  0
 26 27  1  0  0  0
 27 43  1  0  0  0
 27 28  1  0  0  0
 43 44  1  0  0  0
 44 45  2  0  0  0
 44 49  1  0  0  0
 45 46  1  0  0  0
 46 47  2  0  0  0
 47 48  1  0  0  0
 48 49  2  0  0  0
 28 29  2  0  0  0
 28 30  1  0  0  0
 30 32  1  0  0  0
 32 33  1  0  0  0
 32 41  1  0  0  0
 33 34  1  0  0  0
 33 35  1  0  0  0
 35 36  1  0  0  0
 36 37  2  0  0  0
 36 41  1  0  0  0
 37 38  1  0  0  0
 38 39  2  0  0  0
 39 40  1  0  0  0
 40 41  2  0  0  0
 19 20  1  0  0  0
 20 21  1  0  0  0
 20 25  2  0  0  0
 21 22  2  0  0  0
 22 23  1  0  0  0
 23 24  2  0  0  0
 24 25  1  0  0  0
 13 14  1  0  0  0
  2  3  1  0  0  0
 30 31  1  0  0  0
 34 42  1  0  0  0
M  END
> <minimizedAffinity>
-12.25998

$$$$
1SDV_MK1_B_902


 49 53  0  0  0  0  0  0  0  0999 V2000
   23.6225   15.8856    4.9932 C   0  0  0  0  0  0  0  0  0  0  0  0
   24.9050   15.6201    4.5527 O   0  0  0  0  0  0  0  0  0  0  0  0
   24.8647   15.1304    3.7163 H   0  0  0  0  0  0  0  0  0  0  0  0
   22.9670   14.5084    5.1800 C   0  0  0  0  0  0  0  0  0  0  0  0
   21.1833   13.1664    8.8001 N   0  0  0  0  0  0  0  0  0  0  0  0
   20.3384   13.6733    7.6661 C   0  0  0  0  0  0  0  0  0  0  0  0
   20.9566   13.5567    6.2666 C   0  0  0  0  0  0  0  0  0  0  0  0
   22.1510   14.4836    6.4119 N   0  0  0  0  0  0  0  0  0  0  0  0
   23.0550   14.0923    7.5218 C   0  0  0  0  0  0  0  0  0  0  0  0
   22.3561   13.9069    8.8549 C   0  0  0  0  0  0  0  0  0  0  0  0
   19.9782   13.9981    5.2294 C   0  0  0  0  0  0  0  0  0  0  0  0
   19.6666   15.1791    5.1446 O   0  0  0  0  0  0  0  0  0  0  0  0
   19.5076   13.0309    4.4468 N   0  0  0  0  0  0  0  0  0  0  0  0
   19.8026   12.1109    4.6360 H   0  0  0  0  0  0  0  0  0  0  0  0
   18.5931   13.2245    3.3352 C   0  0  0  0  0  0  0  0  0  0  0  0
   19.1554   14.3497    2.4626 C   0  0  0  0  0  0  0  0  0  0  0  0
   17.3270   13.5786    3.8245 C   0  0  0  0  0  0  0  0  0  0  0  0
   18.5136   11.9938    2.5455 C   0  0  0  0  0  0  0  0  0  0  0  0
   20.5127   13.1032   10.0906 C   0  0  0  0  0  0  0  0  0  0  0  0
   19.2662   12.2159   10.2110 C   0  0  0  0  0  0  0  0  0  0  0  0
   19.3635   10.8233   10.3319 C   0  0  0  0  0  0  0  0  0  0  0  0
   18.2791    9.9452   10.5601 N   0  0  0  0  0  0  0  0  0  0  0  0
   17.1010   10.6695   10.6272 C   0  0  0  0  0  0  0  0  0  0  0  0
   16.9479   12.0442   10.4961 C   0  0  0  0  0  0  0  0  0  0  0  0
   18.0409   12.8678   10.2692 C   0  0  0  0  0  0  0  0  0  0  0  0
   22.9004   16.7863    3.9744 C   0  0  0  0  0  0  0  0  0  0  0  0
   23.6138   18.1148    3.5914 C   0  0  0  0  0  0  0  0  0  0  0  0
   23.8044   18.9453    4.8458 C   0  0  0  0  0  0  0  0  0  0  0  0
   22.9045   19.2986    5.6312 O   0  0  0  0  0  0  0  0  0  0  0  0
   25.0585   19.3348    4.9785 N   0  0  0  0  0  0  0  0  0  0  0  0
   25.7760   18.8991    4.4641 H   0  0  0  0  0  0  0  0  0  0  0  0
   25.3609   20.4203    5.8995 C   0  0  0  0  0  0  0  0  0  0  0  0
   26.4509   21.3714    5.4265 C   0  0  0  0  0  0  0  0  0  0  0  0
   27.5101   20.6648    4.7791 O   0  0  0  0  0  0  0  0  0  0  0  0
   26.9547   22.0260    6.6916 C   0  0  0  0  0  0  0  0  0  0  0  0
   26.9384   20.9646    7.7751 C   0  0  0  0  0  0  0  0  0  0  0  0
   27.5785   20.7847    8.9717 C   0  0  0  0  0  0  0  0  0  0  0  0
   27.2514   19.6456    9.6947 C   0  0  0  0  0  0  0  0  0  0  0  0
   26.3107   18.7154    9.2551 C   0  0  0  0  0  0  0  0  0  0  0  0
   25.6447   18.8805    8.0658 C   0  0  0  0  0  0  0  0  0  0  0  0
   25.8958   19.9484    7.2713 C   0  0  0  0  0  0  0  0  0  0  0  0
   27.8810   20.0082    5.3891 H   0  0  0  0  0  0  0  0  0  0  0  0
   22.7301   18.8884    2.5918 C   0  0  0  0  0  0  0  0  0  0  0  0
   23.2617   20.1833    2.1418 C   0  0  0  0  0  0  0  0  0  0  0  0
   22.5127   21.3516    2.3042 C   0  0  0  0  0  0  0  0  0  0  0  0
   23.0514   22.5659    1.8911 C   0  0  0  0  0  0  0  0  0  0  0  0
   24.3170   22.6125    1.3272 C   0  0  0  0  0  0  0  0  0  0  0  0
   25.0677   21.4514    1.1809 C   0  0  0  0  0  0  0  0  0  0  0  0
   24.5271   20.2533    1.5935 C   0  0  0  0  0  0  0  0  0  0  0  0
  5  6  1  0  0  0
  5 10  1  0  0  0
  5 19  1  0  0  0
  6  7  1  0  0  0
  7 11  1  0  0  0
  7  8  1  0  0  0
 11 12  2  0  0  0
 11 13  1  0  0  0
 13 15  1  0  0  0
 15 16  1  0  0  0
 15 17  1  0  0  0
 15 18  1  0  0  0
  8  9  1  0  0  0
  8  4  1  0  0  0
  9 10  1  0  0  0
  4  1  1  0  0  0
  1  2  1  0  0  0
  1 26  1  0  0  0
 26 27  1  0  0  0
 27 43  1  0  0  0
 27 28  1  0  0  0
 43 44  1  0  0  0
 44 45  2  0  0  0
 44 49  1  0  0  0
 45 46  1  0  0  0
 46 47  2  0  0  0
 47 48  1  0  0  0
 48 49  2  0  0  0
 28 29  2  0  0  0
 28 30  1  0  0  0
 30 32  1  0  0  0
 32 33  1  0  0  0
 32 41  1  0  0  0
 33 34  1  0  0  0
 33 35  1  0  0  0
 35 36  1  0  0  0
 36 37  2  0  0  0
 36 41  1  0  0  0
 37 38  1  0  0  0
 38 39  2  0  0  0
 39 40  1  0  0  0
 40 41  2  0  0  0
 19 20  1  0  0  0
 20 21  1  0  0  0
 20 25  2  0  0  0
 21 22  2  0  0  0
 22 23  1  0  0  0
 23 24  2  0  0  0
 24 25  1  0  0  0
 13 14  1  0  0  0
  2  3  1  0  0  0
 30 31  1  0  0  0
 34 42  1  0  0  0
M  END
> <minimizedAffinity>
-10.92580

$$$$
1SDV_MK1_B_902


 49 53  0  0  0  0  0  0  0  0999 V2000
   22.1908   16.0114    4.2627 C   0  0  0  0  0  0  0  0  0  0  0  0
   23.5092   16.1566    3.8755 O   0  0  0  0  0  0  0  0  0  0  0  0
   24.0855   16.0680    4.6507 H   0  0  0  0  0  0  0  0  0  0  0  0
   21.9424   17.1372    5.2785 C   0  0  0  0  0  0  0  0  0  0  0  0
   24.7373   18.8808    7.9685 N   0  0  0  0  0  0  0  0  0  0  0  0
   24.6782   19.3130    6.5310 C   0  0  0  0  0  0  0  0  0  0  0  0
   23.3299   19.1128    5.8267 C   0  0  0  0  0  0  0  0  0  0  0  0
   23.2177   17.5986    5.8657 N   0  0  0  0  0  0  0  0  0  0  0  0
   23.2836   17.0492    7.2427 C   0  0  0  0  0  0  0  0  0  0  0  0
   24.4853   17.5176    8.0405 C   0  0  0  0  0  0  0  0  0  0  0  0
   23.3786   19.6745    4.4446 C   0  0  0  0  0  0  0  0  0  0  0  0
   23.9048   19.0360    3.5422 O   0  0  0  0  0  0  0  0  0  0  0  0
   22.8194   20.8729    4.3004 N   0  0  0  0  0  0  0  0  0  0  0  0
   22.4618   21.3064    5.1087 H   0  0  0  0  0  0  0  0  0  0  0  0
   22.6947   21.5924    3.0450 C   0  0  0  0  0  0  0  0  0  0  0  0
   24.0499   21.5261    2.3358 C   0  0  0  0  0  0  0  0  0  0  0  0
   22.3474   22.9272    3.3009 C   0  0  0  0  0  0  0  0  0  0  0  0
   21.6794   20.9480    2.2091 C   0  0  0  0  0  0  0  0  0  0  0  0
   25.9535   19.2528    8.6766 C   0  0  0  0  0  0  0  0  0  0  0  0
   26.5631   20.6307    8.3848 C   0  0  0  0  0  0  0  0  0  0  0  0
   27.8379   20.7663    7.8192 C   0  0  0  0  0  0  0  0  0  0  0  0
   28.4270   21.9864    7.4150 N   0  0  0  0  0  0  0  0  0  0  0  0
   27.5590   23.0318    7.6808 C   0  0  0  0  0  0  0  0  0  0  0  0
   26.2961   22.9539    8.2549 C   0  0  0  0  0  0  0  0  0  0  0  0
   25.7588   21.7342    8.6398 C   0  0  0  0  0  0  0  0  0  0  0  0
   21.9705   14.5980    4.8327 C   0  0  0  0  0  0  0  0  0  0  0  0
   20.5545   14.2883    5.3977 C   0  0  0  0  0  0  0  0  0  0  0  0
   20.6720   14.0121    6.8841 C   0  0  0  0  0  0  0  0  0  0  0  0
   21.0338   14.8290    7.7521 O   0  0  0  0  0  0  0  0  0  0  0  0
   20.4175   12.7466    7.1595 N   0  0  0  0  0  0  0  0  0  0  0  0
   19.9591   12.1730    6.5036 H   0  0  0  0  0  0  0  0  0  0  0  0
   20.8272   12.2149    8.4509 C   0  0  0  0  0  0  0  0  0  0  0  0
   21.4106   10.8099    8.4046 C   0  0  0  0  0  0  0  0  0  0  0  0
   20.6990    9.9833    7.4823 O   0  0  0  0  0  0  0  0  0  0  0  0
   21.2448   10.2868    9.8124 C   0  0  0  0  0  0  0  0  0  0  0  0
   19.9196   10.8155   10.3272 C   0  0  0  0  0  0  0  0  0  0  0  0
   19.0378   10.4451   11.3065 C   0  0  0  0  0  0  0  0  0  0  0  0
   17.9121   11.2405   11.4726 C   0  0  0  0  0  0  0  0  0  0  0  0
   17.6686   12.3763   10.7017 C   0  0  0  0  0  0  0  0  0  0  0  0
   18.5447   12.7767    9.7233 C   0  0  0  0  0  0  0  0  0  0  0  0
   19.6689   12.0669    9.4643 C   0  0  0  0  0  0  0  0  0  0  0  0
   19.7631    9.9485    7.7349 H   0  0  0  0  0  0  0  0  0  0  0  0
   19.9924   13.0410    4.6857 C   0  0  0  0  0  0  0  0  0  0  0  0
   19.2334   13.2994    3.4532 C   0  0  0  0  0  0  0  0  0  0  0  0
   19.4030   14.4976    2.7548 C   0  0  0  0  0  0  0  0  0  0  0  0
   18.6895   14.7041    1.5785 C   0  0  0  0  0  0  0  0  0  0  0  0
   17.8230   13.7299    1.1072 C   0  0  0  0  0  0  0  0  0  0  0  0
   17.6673   12.5315    1.7947 C   0  0  0  0  0  0  0  0  0  0  0  0
   18.3782   12.3347    2.9581 C   0  0  0  0  0  0  0  0  0  0  0  0
  5  6  1  0  0  0
  5 10  1  0  0  0
  5 19  1  0  0  0
  6  7  1  0  0  0
  7 11  1  0  0  0
  7  8  1  0  0  0
 11 12  2  0  0  0
 11 13  1  0  0  0
 13 15  1  0  0  0
 15 16  1  0  0  0
 15 17  1  0  0  0
 15 18  1  0  0  0
  8  9  1  0  0  0
  8  4  1  0  0  0
  9 10  1  0  0  0
  4  1  1  0  0  0
  1  2  1  0  0  0
  1 26  1  0  0  0
 26 27  1  0  0  0
 27 43  1  0  0  0
 27 28  1  0  0  0
 43 44  1  0  0  0
 44 45  2  0  0  0
 44 49  1  0  0  0
 45 46  1  0  0  0
 46 47  2  0  0  0
 47 48  1  0  0  0
 48 49  2  0  0  0
 28 29  2  0  0  0
 28 30  1  0  0  0
 30 32  1  0  0  0
 32 33  1  0  0  0
 32 41  1  0  0  0
 33 34  1  0  0  0
 33 35  1  0  0  0
 35 36  1  0  0  0
 36 37  2  0  0  0
 36 41  1  0  0  0
 37 38  1  0  0  0
 38 39  2  0  0  0
 39 40  1  0  0  0
 40 41  2  0  0  0
 19 20  1  0  0  0
 20 21  1  0  0  0
 20 25  2  0  0  0
 21 22  2  0  0  0
 22 23  1  0  0  0
 23 24  2  0  0  0
 24 25  1  0  0  0
 13 14  1  0  0  0
  2  3  1  0  0  0
 30 31  1  0  0  0
 34 42  1  0  0  0
M  END
> <minimizedAffinity>
-10.64245

$$$$
1SDV_MK1_B_902


 49 53  0  0  0  0  0  0  0  0999 V2000
   22.6446   16.0903    5.7158 C   0  0  0  0  0  0  0  0  0  0  0  0
   21.6760   17.0507    5.9362 O   0  0  0  0  0  0  0  0  0  0  0  0
   21.3464   17.3788    5.0849 H   0  0  0  0  0  0  0  0  0  0  0  0
   23.7499   16.8064    4.9242 C   0  0  0  0  0  0  0  0  0  0  0  0
   23.5521   20.5253    2.8704 N   0  0  0  0  0  0  0  0  0  0  0  0
   23.6131   20.4755    4.3705 C   0  0  0  0  0  0  0  0  0  0  0  0
   24.2697   19.2263    4.9727 C   0  0  0  0  0  0  0  0  0  0  0  0
   23.3026   18.1518    4.5071 N   0  0  0  0  0  0  0  0  0  0  0  0
   23.1436   18.1167    3.0320 C   0  0  0  0  0  0  0  0  0  0  0  0
   22.7931   19.4565    2.4140 C   0  0  0  0  0  0  0  0  0  0  0  0
   24.3569   19.3513    6.4576 C   0  0  0  0  0  0  0  0  0  0  0  0
   23.3464   19.2490    7.1411 O   0  0  0  0  0  0  0  0  0  0  0  0
   25.5784   19.5698    6.9367 N   0  0  0  0  0  0  0  0  0  0  0  0
   26.3092   19.6726    6.2850 H   0  0  0  0  0  0  0  0  0  0  0  0
   25.9196   19.6687    8.3449 C   0  0  0  0  0  0  0  0  0  0  0  0
   27.3960   20.0631    8.4377 C   0  0  0  0  0  0  0  0  0  0  0  0
   25.7101   18.4292    8.9674 C   0  0  0  0  0  0  0  0  0  0  0  0
   25.1013   20.7062    8.9761 C   0  0  0  0  0  0  0  0  0  0  0  0
   23.1071   21.7935    2.3114 C   0  0  0  0  0  0  0  0  0  0  0  0
   23.6005   23.0857    2.9765 C   0  0  0  0  0  0  0  0  0  0  0  0
   24.9594   23.4260    3.0045 C   0  0  0  0  0  0  0  0  0  0  0  0
   25.4871   24.6435    3.4930 N   0  0  0  0  0  0  0  0  0  0  0  0
   24.4567   25.4428    3.9581 C   0  0  0  0  0  0  0  0  0  0  0  0
   23.0993   25.1465    3.9700 C   0  0  0  0  0  0  0  0  0  0  0  0
   22.6264   23.9367    3.4831 C   0  0  0  0  0  0  0  0  0  0  0  0
   22.0259   14.8901    4.9758 C   0  0  0  0  0  0  0  0  0  0  0  0
   20.6320   14.4095    5.4725 C   0  0  0  0  0  0  0  0  0  0  0  0
   20.7332   14.0581    6.9442 C   0  0  0  0  0  0  0  0  0  0  0  0
   21.0351   14.8430    7.8631 O   0  0  0  0  0  0  0  0  0  0  0  0
   20.5380   12.7682    7.1449 N   0  0  0  0  0  0  0  0  0  0  0  0
   20.1229   12.2096    6.4486 H   0  0  0  0  0  0  0  0  0  0  0  0
   20.9478   12.1873    8.4149 C   0  0  0  0  0  0  0  0  0  0  0  0
   21.4644   10.7585    8.3240 C   0  0  0  0  0  0  0  0  0  0  0  0
   20.6972    9.9880    7.3978 O   0  0  0  0  0  0  0  0  0  0  0  0
   21.3022   10.2099    9.7224 C   0  0  0  0  0  0  0  0  0  0  0  0
   20.0134   10.7863   10.2767 C   0  0  0  0  0  0  0  0  0  0  0  0
   19.1347   10.4334   11.2652 C   0  0  0  0  0  0  0  0  0  0  0  0
   18.0506   11.2754   11.4731 C   0  0  0  0  0  0  0  0  0  0  0  0
   17.8451   12.4394   10.7339 C   0  0  0  0  0  0  0  0  0  0  0  0
   18.7194   12.8226    9.7470 C   0  0  0  0  0  0  0  0  0  0  0  0
   19.8041   12.0684    9.4484 C   0  0  0  0  0  0  0  0  0  0  0  0
   19.7658    9.9901    7.6688 H   0  0  0  0  0  0  0  0  0  0  0  0
   20.2188   13.1577    4.6721 C   0  0  0  0  0  0  0  0  0  0  0  0
   19.4240   13.4101    3.4611 C   0  0  0  0  0  0  0  0  0  0  0  0
   18.4903   12.4699    3.0179 C   0  0  0  0  0  0  0  0  0  0  0  0
   17.7352   12.7467    1.8826 C   0  0  0  0  0  0  0  0  0  0  0  0
   17.9087   13.9426    1.2032 C   0  0  0  0  0  0  0  0  0  0  0  0
   18.8267   14.8841    1.6546 C   0  0  0  0  0  0  0  0  0  0  0  0
   19.5696   14.6024    2.7800 C   0  0  0  0  0  0  0  0  0  0  0  0
  5  6  1  0  0  0
  5 10  1  0  0  0
  5 19  1  0  0  0
  6  7  1  0  0  0
  7 11  1  0  0  0
  7  8  1  0  0  0
 11 12  2  0  0  0
 11 13  1  0  0  0
 13 15  1  0  0  0
 15 16  1  0  0  0
 15 17  1  0  0  0
 15 18  1  0  0  0
  8  9  1  0  0  0
  8  4  1  0  0  0
  9 10  1  0  0  0
  4  1  1  0  0  0
  1  2  1  0  0  0
  1 26  1  0  0  0
 26 27  1  0  0  0
 27 43  1  0  0  0
 27 28  1  0  0  0
 43 44  1  0  0  0
 44 45  2  0  0  0
 44 49  1  0  0  0
 45 46  1  0  0  0
 46 47  2  0  0  0
 47 48  1  0  0  0
 48 49  2  0  0  0
 28 29  2  0  0  0
 28 30  1  0  0  0
 30 32  1  0  0  0
 32 33  1  0  0  0
 32 41  1  0  0  0
 33 34  1  0  0  0
 33 35  1  0  0  0
 35 36  1  0  0  0
 36 37  2  0  0  0
 36 41  1  0  0  0
 37 38  1  0  0  0
 38 39  2  0  0  0
 39 40  1  0  0  0
 40 41  2  0  0  0
 19 20  1  0  0  0
 20 21  1  0  0  0
 20 25  2  0  0  0
 21 22  2  0  0  0
 22 23  1  0  0  0
 23 24  2  0  0  0
 24 25  1  0  0  0
 13 14  1  0  0  0
  2  3  1  0  0  0
 30 31  1  0  0  0
 34 42  1  0  0  0
M  END
> <minimizedAffinity>
-10.48194

$$$$
1SDV_MK1_B_902


 49 53  0  0  0  0  0  0  0  0999 V2000
   23.6163   19.6500    3.3054 C   0  0  0  0  0  0  0  0  0  0  0  0
   23.0396   19.2494    2.1153 O   0  0  0  0  0  0  0  0  0  0  0  0
   23.7277   18.9148    1.5191 H   0  0  0  0  0  0  0  0  0  0  0  0
   24.6110   20.7558    2.9194 C   0  0  0  0  0  0  0  0  0  0  0  0
   23.5240   24.8666    3.0029 N   0  0  0  0  0  0  0  0  0  0  0  0
   24.5348   24.3168    3.9686 C   0  0  0  0  0  0  0  0  0  0  0  0
   25.2891   23.0631    3.5067 C   0  0  0  0  0  0  0  0  0  0  0  0
   24.1445   22.0694    3.4100 N   0  0  0  0  0  0  0  0  0  0  0  0
   23.0670   22.5160    2.4925 C   0  0  0  0  0  0  0  0  0  0  0  0
   22.5432   23.9093    2.7827 C   0  0  0  0  0  0  0  0  0  0  0  0
   26.3282   22.6845    4.5092 C   0  0  0  0  0  0  0  0  0  0  0  0
   27.3311   22.0794    4.1530 O   0  0  0  0  0  0  0  0  0  0  0  0
   26.0693   23.0545    5.7604 N   0  0  0  0  0  0  0  0  0  0  0  0
   25.2097   23.5028    5.9318 H   0  0  0  0  0  0  0  0  0  0  0  0
   26.9541   22.8495    6.8937 C   0  0  0  0  0  0  0  0  0  0  0  0
   27.4555   21.4041    6.8350 C   0  0  0  0  0  0  0  0  0  0  0  0
   26.2488   23.0687    8.0862 C   0  0  0  0  0  0  0  0  0  0  0  0
   28.0956   23.7617    6.7960 C   0  0  0  0  0  0  0  0  0  0  0  0
   22.9594   26.1579    3.3672 C   0  0  0  0  0  0  0  0  0  0  0  0
   21.4398   26.2496    3.5619 C   0  0  0  0  0  0  0  0  0  0  0  0
   20.7911   25.5839    4.6105 C   0  0  0  0  0  0  0  0  0  0  0  0
   19.4188   25.7037    4.9295 N   0  0  0  0  0  0  0  0  0  0  0  0
   18.8075   26.5658    4.0351 C   0  0  0  0  0  0  0  0  0  0  0  0
   19.3990   27.2350    2.9708 C   0  0  0  0  0  0  0  0  0  0  0  0
   20.7497   27.0847    2.6924 C   0  0  0  0  0  0  0  0  0  0  0  0
   24.2682   18.4396    3.9988 C   0  0  0  0  0  0  0  0  0  0  0  0
   23.8396   18.1657    5.4691 C   0  0  0  0  0  0  0  0  0  0  0  0
   22.4345   17.5955    5.4694 C   0  0  0  0  0  0  0  0  0  0  0  0
   21.3787   18.2557    5.5050 O   0  0  0  0  0  0  0  0  0  0  0  0
   22.4509   16.2764    5.5097 N   0  0  0  0  0  0  0  0  0  0  0  0
   23.2724   15.7783    5.2942 H   0  0  0  0  0  0  0  0  0  0  0  0
   21.2321   15.5718    5.8786 C   0  0  0  0  0  0  0  0  0  0  0  0
   21.4413   14.3758    6.7964 C   0  0  0  0  0  0  0  0  0  0  0  0
   22.6112   13.6416    6.4325 O   0  0  0  0  0  0  0  0  0  0  0  0
   20.2072   13.5272    6.5963 C   0  0  0  0  0  0  0  0  0  0  0  0
   19.8378   13.6235    5.1283 C   0  0  0  0  0  0  0  0  0  0  0  0
   19.1125   12.8592    4.2546 C   0  0  0  0  0  0  0  0  0  0  0  0
   18.9956   13.3306    2.9540 C   0  0  0  0  0  0  0  0  0  0  0  0
   19.5687   14.5286    2.5299 C   0  0  0  0  0  0  0  0  0  0  0  0
   20.2885   15.3201    3.3905 C   0  0  0  0  0  0  0  0  0  0  0  0
   20.4794   14.9504    4.6795 C   0  0  0  0  0  0  0  0  0  0  0  0
   22.5346   13.3469    5.5116 H   0  0  0  0  0  0  0  0  0  0  0  0
   23.8556   19.4944    6.2519 C   0  0  0  0  0  0  0  0  0  0  0  0
   24.4846   19.4433    7.5800 C   0  0  0  0  0  0  0  0  0  0  0  0
   24.1310   20.3666    8.5672 C   0  0  0  0  0  0  0  0  0  0  0  0
   24.7249   20.2789    9.8222 C   0  0  0  0  0  0  0  0  0  0  0  0
   25.6544   19.2850   10.0868 C   0  0  0  0  0  0  0  0  0  0  0  0
   25.9934   18.3570    9.1085 C   0  0  0  0  0  0  0  0  0  0  0  0
   25.3999   18.4506    7.8688 C   0  0  0  0  0  0  0  0  0  0  0  0
  5  6  1  0  0  0
  5 10  1  0  0  0
  5 19  1  0  0  0
  6  7  1  0  0  0
  7 11  1  0  0  0
  7  8  1  0  0  0
 11 12  2  0  0  0
 11 13  1  0  0  0
 13 15  1  0  0  0
 15 16  1  0  0  0
 15 17  1  0  0  0
 15 18  1  0  0  0
  8  9  1  0  0  0
  8  4  1  0  0  0
  9 10  1  0  0  0
  4  1  1  0  0  0
  1  2  1  0  0  0
  1 26  1  0  0  0
 26 27  1  0  0  0
 27 43  1  0  0  0
 27 28  1  0  0  0
 43 44  1  0  0  0
 44 45  2  0  0  0
 44 49  1  0  0  0
 45 46  1  0  0  0
 46 47  2  0  0  0
 47 48  1  0  0  0
 48 49  2  0  0  0
 28 29  2  0  0  0
 28 30  1  0  0  0
 30 32  1  0  0  0
 32 33  1  0  0  0
 32 41  1  0  0  0
 33 34  1  0  0  0
 33 35  1  0  0  0
 35 36  1  0  0  0
 36 37  2  0  0  0
 36 41  1  0  0  0
 37 38  1  0  0  0
 38 39  2  0  0  0
 39 40  1  0  0  0
 40 41  2  0  0  0
 19 20  1  0  0  0
 20 21  1  0  0  0
 20 25  2  0  0  0
 21 22  2  0  0  0
 22 23  1  0  0  0
 23 24  2  0  0  0
 24 25  1  0  0  0
 13 14  1  0  0  0
  2  3  1  0  0  0
 30 31  1  0  0  0
 34 42  1  0  0  0
M  END
> <minimizedAffinity>
-10.30360

$$$$
1SDV_MK1_B_902


 49 53  0  0  0  0  0  0  0  0999 V2000
   22.0236   14.4195    6.6313 C   0  0  0  0  0  0  0  0  0  0  0  0
   23.1771   13.6673    6.7452 O   0  0  0  0  0  0  0  0  0  0  0  0
   23.4073   13.5682    7.6822 H   0  0  0  0  0  0  0  0  0  0  0  0
   22.3607   15.7744    7.2730 C   0  0  0  0  0  0  0  0  0  0  0  0
   23.5281   17.5399    3.5841 N   0  0  0  0  0  0  0  0  0  0  0  0
   24.1336   17.9940    4.8818 C   0  0  0  0  0  0  0  0  0  0  0  0
   24.1330   16.9628    6.0179 C   0  0  0  0  0  0  0  0  0  0  0  0
   22.6399   16.7872    6.2335 N   0  0  0  0  0  0  0  0  0  0  0  0
   21.9251   16.3559    5.0065 C   0  0  0  0  0  0  0  0  0  0  0  0
   22.1921   17.2276    3.7946 C   0  0  0  0  0  0  0  0  0  0  0  0
   24.8510   17.5038    7.2095 C   0  0  0  0  0  0  0  0  0  0  0  0
   25.5923   16.7781    7.8595 O   0  0  0  0  0  0  0  0  0  0  0  0
   24.6185   18.7860    7.4766 N   0  0  0  0  0  0  0  0  0  0  0  0
   23.9711   19.2580    6.9045 H   0  0  0  0  0  0  0  0  0  0  0  0
   25.2442   19.5449    8.5452 C   0  0  0  0  0  0  0  0  0  0  0  0
   26.5580   20.1133    8.0026 C   0  0  0  0  0  0  0  0  0  0  0  0
   25.4967   18.6999    9.6361 C   0  0  0  0  0  0  0  0  0  0  0  0
   24.3670   20.6485    8.9417 C   0  0  0  0  0  0  0  0  0  0  0  0
   23.7092   18.4524    2.4645 C   0  0  0  0  0  0  0  0  0  0  0  0
   23.5422   19.9553    2.7269 C   0  0  0  0  0  0  0  0  0  0  0  0
   24.6282   20.8384    2.6625 C   0  0  0  0  0  0  0  0  0  0  0  0
   24.5454   22.2452    2.7779 N   0  0  0  0  0  0  0  0  0  0  0  0
   23.2278   22.6177    2.9836 C   0  0  0  0  0  0  0  0  0  0  0  0
   22.1202   21.7837    3.0735 C   0  0  0  0  0  0  0  0  0  0  0  0
   22.2491   20.4074    2.9577 C   0  0  0  0  0  0  0  0  0  0  0  0
   20.8547   13.6821    7.3101 C   0  0  0  0  0  0  0  0  0  0  0  0
   21.1727   12.2870    7.9209 C   0  0  0  0  0  0  0  0  0  0  0  0
   20.1874   11.2761    7.3670 C   0  0  0  0  0  0  0  0  0  0  0  0
   20.3151   10.0374    7.4018 O   0  0  0  0  0  0  0  0  0  0  0  0
   19.1828   11.8712    6.7517 N   0  0  0  0  0  0  0  0  0  0  0  0
   19.0032   12.8285    6.8950 H   0  0  0  0  0  0  0  0  0  0  0  0
   18.3453   11.0857    5.8573 C   0  0  0  0  0  0  0  0  0  0  0  0
   18.0591   11.7412    4.5138 C   0  0  0  0  0  0  0  0  0  0  0  0
   17.8335   13.1441    4.6593 O   0  0  0  0  0  0  0  0  0  0  0  0
   16.8052   11.0575    4.0207 C   0  0  0  0  0  0  0  0  0  0  0  0
   15.9287   10.8130    5.2342 C   0  0  0  0  0  0  0  0  0  0  0  0
   14.5930   10.5982    5.4433 C   0  0  0  0  0  0  0  0  0  0  0  0
   14.1873   10.3901    6.7545 C   0  0  0  0  0  0  0  0  0  0  0  0
   15.0760   10.3828    7.8286 C   0  0  0  0  0  0  0  0  0  0  0  0
   16.4219   10.5813    7.6435 C   0  0  0  0  0  0  0  0  0  0  0  0
   16.9271   10.8090    6.4075 C   0  0  0  0  0  0  0  0  0  0  0  0
   17.0923   13.2911    5.2676 H   0  0  0  0  0  0  0  0  0  0  0  0
   21.0227   12.3647    9.4538 C   0  0  0  0  0  0  0  0  0  0  0  0
   19.6821   12.0653    9.9783 C   0  0  0  0  0  0  0  0  0  0  0  0
   19.3952   10.8065   10.5124 C   0  0  0  0  0  0  0  0  0  0  0  0
   18.1251   10.5598   11.0236 C   0  0  0  0  0  0  0  0  0  0  0  0
   17.1590   11.5539   11.0032 C   0  0  0  0  0  0  0  0  0  0  0  0
   17.4507   12.8111   10.4861 C   0  0  0  0  0  0  0  0  0  0  0  0
   18.7111   13.0472    9.9827 C   0  0  0  0  0  0  0  0  0  0  0  0
  5  6  1  0  0  0
  5 10  1  0  0  0
  5 19  1  0  0  0
  6  7  1  0  0  0
  7 11  1  0  0  0
  7  8  1  0  0  0
 11 12  2  0  0  0
 11 13  1  0  0  0
 13 15  1  0  0  0
 15 16  1  0  0  0
 15 17  1  0  0  0
 15 18  1  0  0  0
  8  9  1  0  0  0
  8  4  1  0  0  0
  9 10  1  0  0  0
  4  1  1  0  0  0
  1  2  1  0  0  0
  1 26  1  0  0  0
 26 27  1  0  0  0
 27 43  1  0  0  0
 27 28  1  0  0  0
 43 44  1  0  0  0
 44 45  2  0  0  0
 44 49  1  0  0  0
 45 46  1  0  0  0
 46 47  2  0  0  0
 47 48  1  0  0  0
 48 49  2  0  0  0
 28 29  2  0  0  0
 28 30  1  0  0  0
 30 32  1  0  0  0
 32 33  1  0  0  0
 32 41  1  0  0  0
 33 34  1  0  0  0
 33 35  1  0  0  0
 35 36  1  0  0  0
 36 37  2  0  0  0
 36 41  1  0  0  0
 37 38  1  0  0  0
 38 39  2  0  0  0
 39 40  1  0  0  0
 40 41  2  0  0  0
 19 20  1  0  0  0
 20 21  1  0  0  0
 20 25  2  0  0  0
 21 22  2  0  0  0
 22 23  1  0  0  0
 23 24  2  0  0  0
 24 25  1  0  0  0
 13 14  1  0  0  0
  2  3  1  0  0  0
 30 31  1  0  0  0
 34 42  1  0  0  0
M  END
> <minimizedAffinity>
-10.06183

$$$$
1SDV_MK1_B_902


 49 53  0  0  0  0  0  0  0  0999 V2000
   21.4323   17.2148    5.2817 C   0  0  0  0  0  0  0  0  0  0  0  0
   21.0475   17.8481    6.4479 O   0  0  0  0  0  0  0  0  0  0  0  0
   21.8303   18.0278    6.9918 H   0  0  0  0  0  0  0  0  0  0  0  0
   22.1118   15.9133    5.7349 C   0  0  0  0  0  0  0  0  0  0  0  0
   18.8976   13.5321    4.2905 N   0  0  0  0  0  0  0  0  0  0  0  0
   19.5536   13.2251    5.6066 C   0  0  0  0  0  0  0  0  0  0  0  0
   20.2315   14.4088    6.3089 C   0  0  0  0  0  0  0  0  0  0  0  0
   21.3238   14.7387    5.3065 N   0  0  0  0  0  0  0  0  0  0  0  0
   20.7947   15.0429    3.9538 C   0  0  0  0  0  0  0  0  0  0  0  0
   19.8622   13.9829    3.3998 C   0  0  0  0  0  0  0  0  0  0  0  0
   20.7504   13.9910    7.6447 C   0  0  0  0  0  0  0  0  0  0  0  0
   21.1053   14.8366    8.4557 O   0  0  0  0  0  0  0  0  0  0  0  0
   20.7829   12.6778    7.8540 N   0  0  0  0  0  0  0  0  0  0  0  0
   20.5079   12.0934    7.1109 H   0  0  0  0  0  0  0  0  0  0  0  0
   21.1920   12.0376    9.0918 C   0  0  0  0  0  0  0  0  0  0  0  0
   20.1611   12.4000   10.1640 C   0  0  0  0  0  0  0  0  0  0  0  0
   22.4616   12.5034    9.4644 C   0  0  0  0  0  0  0  0  0  0  0  0
   21.2102   10.5846    8.9098 C   0  0  0  0  0  0  0  0  0  0  0  0
   18.0961   12.4528    3.7323 C   0  0  0  0  0  0  0  0  0  0  0  0
   17.3085   11.5644    4.7049 C   0  0  0  0  0  0  0  0  0  0  0  0
   17.8908   11.0577    5.8744 C   0  0  0  0  0  0  0  0  0  0  0  0
   17.2099   10.3296    6.8770 N   0  0  0  0  0  0  0  0  0  0  0  0
   15.8814   10.1761    6.5185 C   0  0  0  0  0  0  0  0  0  0  0  0
   15.2600   10.6413    5.3661 C   0  0  0  0  0  0  0  0  0  0  0  0
   15.9690   11.3492    4.4065 C   0  0  0  0  0  0  0  0  0  0  0  0
   22.3486   18.1445    4.4650 C   0  0  0  0  0  0  0  0  0  0  0  0
   23.6186   17.4977    3.8411 C   0  0  0  0  0  0  0  0  0  0  0  0
   24.7356   17.5289    4.8662 C   0  0  0  0  0  0  0  0  0  0  0  0
   25.5163   16.5931    5.1240 O   0  0  0  0  0  0  0  0  0  0  0  0
   24.7420   18.6664    5.5357 N   0  0  0  0  0  0  0  0  0  0  0  0
   24.2511   19.4500    5.1977 H   0  0  0  0  0  0  0  0  0  0  0  0
   25.4884   18.7406    6.7829 C   0  0  0  0  0  0  0  0  0  0  0  0
   24.6455   18.5774    8.0397 C   0  0  0  0  0  0  0  0  0  0  0  0
   23.3916   19.2498    7.9137 O   0  0  0  0  0  0  0  0  0  0  0  0
   25.4727   19.2125    9.1330 C   0  0  0  0  0  0  0  0  0  0  0  0
   26.1572   20.4213    8.5239 C   0  0  0  0  0  0  0  0  0  0  0  0
   26.7044   21.5781    9.0097 C   0  0  0  0  0  0  0  0  0  0  0  0
   27.2695   22.4440    8.0833 C   0  0  0  0  0  0  0  0  0  0  0  0
   27.3039   22.1711    6.7166 C   0  0  0  0  0  0  0  0  0  0  0  0
   26.7749   21.0114    6.2062 C   0  0  0  0  0  0  0  0  0  0  0  0
   26.1848   20.1010    7.0171 C   0  0  0  0  0  0  0  0  0  0  0  0
   23.5457   20.1905    7.7344 H   0  0  0  0  0  0  0  0  0  0  0  0
   24.0371   18.3109    2.5994 C   0  0  0  0  0  0  0  0  0  0  0  0
   23.5870   19.7104    2.5736 C   0  0  0  0  0  0  0  0  0  0  0  0
   24.3991   20.7254    3.0860 C   0  0  0  0  0  0  0  0  0  0  0  0
   23.9574   22.0432    3.0259 C   0  0  0  0  0  0  0  0  0  0  0  0
   22.7267   22.3420    2.4621 C   0  0  0  0  0  0  0  0  0  0  0  0
   21.9266   21.3329    1.9381 C   0  0  0  0  0  0  0  0  0  0  0  0
   22.3720   20.0308    2.0009 C   0  0  0  0  0  0  0  0  0  0  0  0
  5  6  1  0  0  0
  5 10  1  0  0  0
  5 19  1  0  0  0
  6  7  1  0  0  0
  7 11  1  0  0  0
  7  8  1  0  0  0
 11 12  2  0  0  0
 11 13  1  0  0  0
 13 15  1  0  0  0
 15 16  1  0  0  0
 15 17  1  0  0  0
 15 18  1  0  0  0
  8  9  1  0  0  0
  8  4  1  0  0  0
  9 10  1  0  0  0
  4  1  1  0  0  0
  1  2  1  0  0  0
  1 26  1  0  0  0
 26 27  1  0  0  0
 27 43  1  0  0  0
 27 28  1  0  0  0
 43 44  1  0  0  0
 44 45  2  0  0  0
 44 49  1  0  0  0
 45 46  1  0  0  0
 46 47  2  0  0  0
 47 48  1  0  0  0
 48 49  2  0  0  0
 28 29  2  0  0  0
 28 30  1  0  0  0
 30 32  1  0  0  0
 32 33  1  0  0  0
 32 41  1  0  0  0
 33 34  1  0  0  0
 33 35  1  0  0  0
 35 36  1  0  0  0
 36 37  2  0  0  0
 36 41  1  0  0  0
 37 38  1  0  0  0
 38 39  2  0  0  0
 39 40  1  0  0  0
 40 41  2  0  0  0
 19 20  1  0  0  0
 20 21  1  0  0  0
 20 25  2  0  0  0
 21 22  2  0  0  0
 22 23  1  0  0  0
 23 24  2  0  0  0
 24 25  1  0  0  0
 13 14  1  0  0  0
  2  3  1  0  0  0
 30 31  1  0  0  0
 34 42  1  0  0  0
M  END
> <minimizedAffinity>
-9.96796

$$$$
1SDV_MK1_B_902


 49 53  0  0  0  0  0  0  0  0999 V2000
   21.4736   17.1810    4.6149 C   0  0  0  0  0  0  0  0  0  0  0  0
   21.1526   17.4823    5.9247 O   0  0  0  0  0  0  0  0  0  0  0  0
   21.9457   17.4054    6.4779 H   0  0  0  0  0  0  0  0  0  0  0  0
   21.9958   15.7363    4.6498 C   0  0  0  0  0  0  0  0  0  0  0  0
   21.9874   13.0211    7.9231 N   0  0  0  0  0  0  0  0  0  0  0  0
   20.7389   13.2714    7.1260 C   0  0  0  0  0  0  0  0  0  0  0  0
   20.9503   13.7436    5.6816 C   0  0  0  0  0  0  0  0  0  0  0  0
   21.6286   15.0811    5.9225 N   0  0  0  0  0  0  0  0  0  0  0  0
   22.8727   14.9627    6.7228 C   0  0  0  0  0  0  0  0  0  0  0  0
   22.7021   14.2066    8.0262 C   0  0  0  0  0  0  0  0  0  0  0  0
   19.6399   13.8549    4.9755 C   0  0  0  0  0  0  0  0  0  0  0  0
   18.7803   14.6182    5.3966 O   0  0  0  0  0  0  0  0  0  0  0  0
   19.5097   13.0848    3.8988 N   0  0  0  0  0  0  0  0  0  0  0  0
   20.2564   12.4817    3.6799 H   0  0  0  0  0  0  0  0  0  0  0  0
   18.3532   13.0631    3.0205 C   0  0  0  0  0  0  0  0  0  0  0  0
   17.1023   13.0182    3.9020 C   0  0  0  0  0  0  0  0  0  0  0  0
   18.4076   11.9267    2.1998 C   0  0  0  0  0  0  0  0  0  0  0  0
   18.3301   14.2824    2.2098 C   0  0  0  0  0  0  0  0  0  0  0  0
   21.7779   12.3914    9.2187 C   0  0  0  0  0  0  0  0  0  0  0  0
   20.3394   12.0444    9.6259 C   0  0  0  0  0  0  0  0  0  0  0  0
   19.9197   10.7170    9.7845 C   0  0  0  0  0  0  0  0  0  0  0  0
   18.6526   10.3124   10.2640 N   0  0  0  0  0  0  0  0  0  0  0  0
   17.8806   11.4290   10.5361 C   0  0  0  0  0  0  0  0  0  0  0  0
   18.2412   12.7617   10.3797 C   0  0  0  0  0  0  0  0  0  0  0  0
   19.4954   13.1126    9.9020 C   0  0  0  0  0  0  0  0  0  0  0  0
   22.4976   18.2012    4.0843 C   0  0  0  0  0  0  0  0  0  0  0  0
   23.8275   17.6235    3.5203 C   0  0  0  0  0  0  0  0  0  0  0  0
   24.8244   17.4962    4.6558 C   0  0  0  0  0  0  0  0  0  0  0  0
   25.4784   16.4754    4.9422 O   0  0  0  0  0  0  0  0  0  0  0  0
   24.8681   18.5969    5.3828 N   0  0  0  0  0  0  0  0  0  0  0  0
   24.4948   19.4404    5.0386 H   0  0  0  0  0  0  0  0  0  0  0  0
   25.4783   18.5404    6.7029 C   0  0  0  0  0  0  0  0  0  0  0  0
   24.5105   18.2432    7.8393 C   0  0  0  0  0  0  0  0  0  0  0  0
   23.2678   18.9223    7.6527 O   0  0  0  0  0  0  0  0  0  0  0  0
   25.2098   18.7609    9.0746 C   0  0  0  0  0  0  0  0  0  0  0  0
   25.9381   20.0289    8.6716 C   0  0  0  0  0  0  0  0  0  0  0  0
   26.4157   21.1291    9.3314 C   0  0  0  0  0  0  0  0  0  0  0  0
   27.0632   22.0894    8.5660 C   0  0  0  0  0  0  0  0  0  0  0  0
   27.2446   21.9628    7.1896 C   0  0  0  0  0  0  0  0  0  0  0  0
   26.7877   20.8624    6.5071 C   0  0  0  0  0  0  0  0  0  0  0  0
   26.1280   19.8700    7.1510 C   0  0  0  0  0  0  0  0  0  0  0  0
   23.4273   19.8771    7.5905 H   0  0  0  0  0  0  0  0  0  0  0  0
   24.3823   18.5906    2.4548 C   0  0  0  0  0  0  0  0  0  0  0  0
   23.8190   19.9487    2.4727 C   0  0  0  0  0  0  0  0  0  0  0  0
   24.5045   20.9917    3.1007 C   0  0  0  0  0  0  0  0  0  0  0  0
   23.9589   22.2713    3.0806 C   0  0  0  0  0  0  0  0  0  0  0  0
   22.7505   22.5051    2.4426 C   0  0  0  0  0  0  0  0  0  0  0  0
   22.0773   21.4695    1.8043 C   0  0  0  0  0  0  0  0  0  0  0  0
   22.6251   20.2057    1.8283 C   0  0  0  0  0  0  0  0  0  0  0  0
  5  6  1  0  0  0
  5 10  1  0  0  0
  5 19  1  0  0  0
  6  7  1  0  0  0
  7 11  1  0  0  0
  7  8  1  0  0  0
 11 12  2  0  0  0
 11 13  1  0  0  0
 13 15  1  0  0  0
 15 16  1  0  0  0
 15 17  1  0  0  0
 15 18  1  0  0  0
  8  9  1  0  0  0
  8  4  1  0  0  0
  9 10  1  0  0  0
  4  1  1  0  0  0
  1  2  1  0  0  0
  1 26  1  0  0  0
 26 27  1  0  0  0
 27 43  1  0  0  0
 27 28  1  0  0  0
 43 44  1  0  0  0
 44 45  2  0  0  0
 44 49  1  0  0  0
 45 46  1  0  0  0
 46 47  2  0  0  0
 47 48  1  0  0  0
 48 49  2  0  0  0
 28 29  2  0  0  0
 28 30  1  0  0  0
 30 32  1  0  0  0
 32 33  1  0  0  0
 32 41  1  0  0  0
 33 34  1  0  0  0
 33 35  1  0  0  0
 35 36  1  0  0  0
 36 37  2  0  0  0
 36 41  1  0  0  0
 37 38  1  0  0  0
 38 39  2  0  0  0
 39 40  1  0  0  0
 40 41  2  0  0  0
 19 20  1  0  0  0
 20 21  1  0  0  0
 20 25  2  0  0  0
 21 22  2  0  0  0
 22 23  1  0  0  0
 23 24  2  0  0  0
 24 25  1  0  0  0
 13 14  1  0  0  0
  2  3  1  0  0  0
 30 31  1  0  0  0
 34 42  1  0  0  0
M  END
> <minimizedAffinity>
-9.73156

$$$$
1SDV_MK1_B_902


 49 53  0  0  0  0  0  0  0  0999 V2000
   23.6820   19.4790    4.8421 C   0  0  0  0  0  0  0  0  0  0  0  0
   22.3579   19.4487    4.4479 O   0  0  0  0  0  0  0  0  0  0  0  0
   22.2510   18.8135    3.7227 H   0  0  0  0  0  0  0  0  0  0  0  0
   24.4645   19.9152    3.5937 C   0  0  0  0  0  0  0  0  0  0  0  0
   24.3623   23.6867    1.6308 N   0  0  0  0  0  0  0  0  0  0  0  0
   25.1833   23.4861    2.8728 C   0  0  0  0  0  0  0  0  0  0  0  0
   25.6405   22.0476    3.1479 C   0  0  0  0  0  0  0  0  0  0  0  0
   24.3000   21.3647    3.3568 N   0  0  0  0  0  0  0  0  0  0  0  0
   23.3885   21.5123    2.1951 C   0  0  0  0  0  0  0  0  0  0  0  0
   23.1938   22.9451    1.7378 C   0  0  0  0  0  0  0  0  0  0  0  0
   26.5275   22.0061    4.3477 C   0  0  0  0  0  0  0  0  0  0  0  0
   27.5314   21.3053    4.3431 O   0  0  0  0  0  0  0  0  0  0  0  0
   26.1392   22.7692    5.3657 N   0  0  0  0  0  0  0  0  0  0  0  0
   25.2911   23.2594    5.2669 H   0  0  0  0  0  0  0  0  0  0  0  0
   26.8670   22.9365    6.6113 C   0  0  0  0  0  0  0  0  0  0  0  0
   27.4991   21.5874    6.9638 C   0  0  0  0  0  0  0  0  0  0  0  0
   25.9810   23.3347    7.6234 C   0  0  0  0  0  0  0  0  0  0  0  0
   27.9242   23.9337    6.4315 C   0  0  0  0  0  0  0  0  0  0  0  0
   24.1016   25.0751    1.2795 C   0  0  0  0  0  0  0  0  0  0  0  0
   24.2553   26.1362    2.3776 C   0  0  0  0  0  0  0  0  0  0  0  0
   25.4305   26.8866    2.5161 C   0  0  0  0  0  0  0  0  0  0  0  0
   25.6150   27.9564    3.4220 N   0  0  0  0  0  0  0  0  0  0  0  0
   24.4621   28.1384    4.1668 C   0  0  0  0  0  0  0  0  0  0  0  0
   23.2803   27.4128    4.0820 C   0  0  0  0  0  0  0  0  0  0  0  0
   23.1451   26.3678    3.1797 C   0  0  0  0  0  0  0  0  0  0  0  0
   24.0932   18.0978    5.3843 C   0  0  0  0  0  0  0  0  0  0  0  0
   23.5527   17.7135    6.7917 C   0  0  0  0  0  0  0  0  0  0  0  0
   22.1593   17.1354    6.6379 C   0  0  0  0  0  0  0  0  0  0  0  0
   21.0906   17.7639    6.7588 O   0  0  0  0  0  0  0  0  0  0  0  0
   22.1994   15.8320    6.4337 N   0  0  0  0  0  0  0  0  0  0  0  0
   23.0365   15.3932    6.1581 H   0  0  0  0  0  0  0  0  0  0  0  0
   20.9830   15.0557    6.6235 C   0  0  0  0  0  0  0  0  0  0  0  0
   21.1684   13.7632    7.4054 C   0  0  0  0  0  0  0  0  0  0  0  0
   22.3867   13.1100    7.0456 O   0  0  0  0  0  0  0  0  0  0  0  0
   19.9827   12.9127    7.0135 C   0  0  0  0  0  0  0  0  0  0  0  0
   19.7158   13.1765    5.5439 C   0  0  0  0  0  0  0  0  0  0  0  0
   19.0822   12.5049    4.5333 C   0  0  0  0  0  0  0  0  0  0  0  0
   19.0418   13.1274    3.2931 C   0  0  0  0  0  0  0  0  0  0  0  0
   19.6009   14.3828    3.0590 C   0  0  0  0  0  0  0  0  0  0  0  0
   20.2290   15.0829    4.0593 C   0  0  0  0  0  0  0  0  0  0  0  0
   20.3403   14.5646    5.3058 C   0  0  0  0  0  0  0  0  0  0  0  0
   22.3864   12.9273    6.0930 H   0  0  0  0  0  0  0  0  0  0  0  0
   23.4898   18.9810    7.6680 C   0  0  0  0  0  0  0  0  0  0  0  0
   24.6717   19.2358    8.5047 C   0  0  0  0  0  0  0  0  0  0  0  0
   24.7657   20.4076    9.2599 C   0  0  0  0  0  0  0  0  0  0  0  0
   25.8848   20.6104   10.0612 C   0  0  0  0  0  0  0  0  0  0  0  0
   26.8914   19.6583   10.1085 C   0  0  0  0  0  0  0  0  0  0  0  0
   26.7890   18.4855    9.3689 C   0  0  0  0  0  0  0  0  0  0  0  0
   25.6773   18.2923    8.5788 C   0  0  0  0  0  0  0  0  0  0  0  0
  5  6  1  0  0  0
  5 10  1  0  0  0
  5 19  1  0  0  0
  6  7  1  0  0  0
  7 11  1  0  0  0
  7  8  1  0  0  0
 11 12  2  0  0  0
 11 13  1  0  0  0
 13 15  1  0  0  0
 15 16  1  0  0  0
 15 17  1  0  0  0
 15 18  1  0  0  0
  8  9  1  0  0  0
  8  4  1  0  0  0
  9 10  1  0  0  0
  4  1  1  0  0  0
  1  2  1  0  0  0
  1 26  1  0  0  0
 26 27  1  0  0  0
 27 43  1  0  0  0
 27 28  1  0  0  0
 43 44  1  0  0  0
 44 45  2  0  0  0
 44 49  1  0  0  0
 45 46  1  0  0  0
 46 47  2  0  0  0
 47 48  1  0  0  0
 48 49  2  0  0  0
 28 29  2  0  0  0
 28 30  1  0  0  0
 30 32  1  0  0  0
 32 33  1  0  0  0
 32 41  1  0  0  0
 33 34  1  0  0  0
 33 35  1  0  0  0
 35 36  1  0  0  0
 36 37  2  0  0  0
 36 41  1  0  0  0
 37 38  1  0  0  0
 38 39  2  0  0  0
 39 40  1  0  0  0
 40 41  2  0  0  0
 19 20  1  0  0  0
 20 21  1  0  0  0
 20 25  2  0  0  0
 21 22  2  0  0  0
 22 23  1  0  0  0
 23 24  2  0  0  0
 24 25  1  0  0  0
 13 14  1  0  0  0
  2  3  1  0  0  0
 30 31  1  0  0  0
 34 42  1  0  0  0
M  END
> <minimizedAffinity>
-9.70075

$$$$
1SDV_MK1_B_902


 49 53  0  0  0  0  0  0  0  0999 V2000
   23.6890   20.1508    4.1925 C   0  0  0  0  0  0  0  0  0  0  0  0
   22.3718   19.9113    3.8505 O   0  0  0  0  0  0  0  0  0  0  0  0
   22.3288   19.5850    2.9381 H   0  0  0  0  0  0  0  0  0  0  0  0
   24.1786   21.2108    3.1935 C   0  0  0  0  0  0  0  0  0  0  0  0
   23.6343   25.4260    3.3459 N   0  0  0  0  0  0  0  0  0  0  0  0
   24.6532   24.7483    4.2172 C   0  0  0  0  0  0  0  0  0  0  0  0
   25.1958   23.4109    3.6967 C   0  0  0  0  0  0  0  0  0  0  0  0
   23.9305   22.5711    3.7152 N   0  0  0  0  0  0  0  0  0  0  0  0
   22.8371   23.1546    2.8989 C   0  0  0  0  0  0  0  0  0  0  0  0
   22.5237   24.6019    3.2258 C   0  0  0  0  0  0  0  0  0  0  0  0
   26.2678   22.8993    4.6006 C   0  0  0  0  0  0  0  0  0  0  0  0
   27.2449   22.3303    4.1312 O   0  0  0  0  0  0  0  0  0  0  0  0
   26.0661   23.1159    5.8975 N   0  0  0  0  0  0  0  0  0  0  0  0
   25.2220   23.5503    6.1585 H   0  0  0  0  0  0  0  0  0  0  0  0
   26.9922   22.7625    6.9589 C   0  0  0  0  0  0  0  0  0  0  0  0
   26.3025   23.0575    8.2935 C   0  0  0  0  0  0  0  0  0  0  0  0
   28.1604   23.5297    6.8381 C   0  0  0  0  0  0  0  0  0  0  0  0
   27.3048   21.3339    6.8815 C   0  0  0  0  0  0  0  0  0  0  0  0
   23.2746   26.7771    3.7511 C   0  0  0  0  0  0  0  0  0  0  0  0
   24.3537   27.8651    3.6657 C   0  0  0  0  0  0  0  0  0  0  0  0
   24.9436   28.4079    4.8149 C   0  0  0  0  0  0  0  0  0  0  0  0
   26.0183   29.3266    4.8257 N   0  0  0  0  0  0  0  0  0  0  0  0
   26.3881   29.6241    3.5251 C   0  0  0  0  0  0  0  0  0  0  0  0
   25.8261   29.1293    2.3546 C   0  0  0  0  0  0  0  0  0  0  0  0
   24.7694   28.2314    2.3919 C   0  0  0  0  0  0  0  0  0  0  0  0
   24.4850   18.8337    4.1436 C   0  0  0  0  0  0  0  0  0  0  0  0
   24.7244   18.1143    5.5022 C   0  0  0  0  0  0  0  0  0  0  0  0
   24.2992   16.6649    5.3683 C   0  0  0  0  0  0  0  0  0  0  0  0
   24.8984   15.7850    4.7215 O   0  0  0  0  0  0  0  0  0  0  0  0
   23.1428   16.4460    5.9658 N   0  0  0  0  0  0  0  0  0  0  0  0
   22.7852   17.0912    6.6178 H   0  0  0  0  0  0  0  0  0  0  0  0
   22.4062   15.2331    5.6427 C   0  0  0  0  0  0  0  0  0  0  0  0
   20.9748   15.4622    5.1789 C   0  0  0  0  0  0  0  0  0  0  0  0
   20.3474   16.5034    5.9288 O   0  0  0  0  0  0  0  0  0  0  0  0
   20.2815   14.1438    5.4318 C   0  0  0  0  0  0  0  0  0  0  0  0
   20.8495   13.5861    6.7229 C   0  0  0  0  0  0  0  0  0  0  0  0
   20.4283   12.6845    7.6628 C   0  0  0  0  0  0  0  0  0  0  0  0
   21.2895   12.4314    8.7219 C   0  0  0  0  0  0  0  0  0  0  0  0
   22.5366   13.0422    8.8445 C   0  0  0  0  0  0  0  0  0  0  0  0
   22.9880   13.9389    7.9079 C   0  0  0  0  0  0  0  0  0  0  0  0
   22.2240   14.2721    6.8402 C   0  0  0  0  0  0  0  0  0  0  0  0
   20.3609   16.2759    6.8717 H   0  0  0  0  0  0  0  0  0  0  0  0
   23.8740   18.8013    6.5900 C   0  0  0  0  0  0  0  0  0  0  0  0
   24.5727   19.1034    7.8480 C   0  0  0  0  0  0  0  0  0  0  0  0
   24.1724   20.1833    8.6390 C   0  0  0  0  0  0  0  0  0  0  0  0
   24.8365   20.4304    9.8363 C   0  0  0  0  0  0  0  0  0  0  0  0
   25.8810   19.6117   10.2371 C   0  0  0  0  0  0  0  0  0  0  0  0
   26.2678   18.5278    9.4569 C   0  0  0  0  0  0  0  0  0  0  0  0
   25.6043   18.2899    8.2733 C   0  0  0  0  0  0  0  0  0  0  0  0
  5  6  1  0  0  0
  5 10  1  0  0  0
  5 19  1  0  0  0
  6  7  1  0  0  0
  7 11  1  0  0  0
  7  8  1  0  0  0
 11 12  2  0  0  0
 11 13  1  0  0  0
 13 15  1  0  0  0
 15 16  1  0  0  0
 15 17  1  0  0  0
 15 18  1  0  0  0
  8  9  1  0  0  0
  8  4  1  0  0  0
  9 10  1  0  0  0
  4  1  1  0  0  0
  1  2  1  0  0  0
  1 26  1  0  0  0
 26 27  1  0  0  0
 27 43  1  0  0  0
 27 28  1  0  0  0
 43 44  1  0  0  0
 44 45  2  0  0  0
 44 49  1  0  0  0
 45 46  1  0  0  0
 46 47  2  0  0  0
 47 48  1  0  0  0
 48 49  2  0  0  0
 28 29  2  0  0  0
 28 30  1  0  0  0
 30 32  1  0  0  0
 32 33  1  0  0  0
 32 41  1  0  0  0
 33 34  1  0  0  0
 33 35  1  0  0  0
 35 36  1  0  0  0
 36 37  2  0  0  0
 36 41  1  0  0  0
 37 38  1  0  0  0
 38 39  2  0  0  0
 39 40  1  0  0  0
 40 41  2  0  0  0
 19 20  1  0  0  0
 20 21  1  0  0  0
 20 25  2  0  0  0
 21 22  2  0  0  0
 22 23  1  0  0  0
 23 24  2  0  0  0
 24 25  1  0  0  0
 13 14  1  0  0  0
  2  3  1  0  0  0
 30 31  1  0  0  0
 34 42  1  0  0  0
M  END
> <minimizedAffinity>
-9.69813

$$$$
