1SDV_MK1_B_902
  RCSB PDB12061703593D
Coordinates from PDB:1SDV:B:902 Model:1 without hydrogens
 45 49  0  0  0  0            999 V2000
   23.5910   20.5680    2.9010   N 0  0  0  0  0  0  0  0  0  0  0  0
   23.5320   20.3780    4.3900   C 0  0  0  0  0  0  0  0  0  0  0  0
   24.4930   19.3320    4.9700   C 0  0  0  0  0  0  0  0  0  0  0  0
   24.4050   19.3170    6.4600   C 0  0  0  0  0  0  0  0  0  0  0  0
   23.3770   18.9420    7.0090   O 0  0  0  0  0  0  0  0  0  0  0  0
   25.4990   19.7270    7.0960   N 0  0  0  0  0  0  0  0  0  0  0  0
   25.6710   19.7460    8.5380   C 0  0  0  0  0  0  0  0  0  0  0  0
   27.0690   20.2970    8.8310   C 0  0  0  0  0  0  0  0  0  0  0  0
   25.5490   18.4430    9.0430   C 0  0  0  0  0  0  0  0  0  0  0  0
   24.6680   20.6270    9.1400   C 0  0  0  0  0  0  0  0  0  0  0  0
   23.9590   18.0700    4.3150   N 0  0  0  0  0  0  0  0  0  0  0  0
   23.9500   18.1470    2.8330   C 0  0  0  0  0  0  0  0  0  0  0  0
   23.2510   19.3740    2.2800   C 0  0  0  0  0  0  0  0  0  0  0  0
   24.7690   16.8890    4.6800   C 0  0  0  0  0  0  0  0  0  0  0  0
   23.8660   15.6730    4.9390   C 0  0  0  0  0  0  0  0  0  0  0  0
   24.6310   14.5740    4.5980   O 0  0  0  0  0  0  0  0  0  0  0  0
   23.3970   15.5450    6.4000   C 0  0  0  0  0  0  0  0  0  0  0  0
   22.5180   14.3080    6.7430   C 0  0  0  0  0  0  0  0  0  0  0  0
   22.3560   14.2170    8.2740   C 0  0  0  0  0  0  0  0  0  0  0  0
   21.4340   13.1780    8.7560   C 0  0  0  0  0  0  0  0  0  0  0  0
   21.7070   11.8270    8.5270   C 0  0  0  0  0  0  0  0  0  0  0  0
   20.8290   10.8650    9.0160   C 0  0  0  0  0  0  0  0  0  0  0  0
   19.6990   11.2460    9.7230   C 0  0  0  0  0  0  0  0  0  0  0  0
   19.4370   12.5900    9.9640   C 0  0  0  0  0  0  0  0  0  0  0  0
   20.3120   13.5360    9.4770   C 0  0  0  0  0  0  0  0  0  0  0  0
   21.1560   14.4840    6.1000   C 0  0  0  0  0  0  0  0  0  0  0  0
   20.4720   15.5250    6.1120   O 0  0  0  0  0  0  0  0  0  0  0  0
   20.7220   13.3530    5.5760   N 0  0  0  0  0  0  0  0  0  0  0  0
   19.3100   13.2310    5.2450   C 0  0  0  0  0  0  0  0  0  0  0  0
   18.6950   11.8770    5.5690   C 0  0  0  0  0  0  0  0  0  0  0  0
   19.5970   10.8120    5.2650   O 0  0  0  0  0  0  0  0  0  0  0  0
   17.4730   11.7970    4.6840   C 0  0  0  0  0  0  0  0  0  0  0  0
   17.8380   12.4530    3.3660   C 0  0  0  0  0  0  0  0  0  0  0  0
   17.3650   12.3900    2.0830   C 0  0  0  0  0  0  0  0  0  0  0  0
   17.9900   13.1970    1.1420   C 0  0  0  0  0  0  0  0  0  0  0  0
   19.0450   14.0510    1.4600   C 0  0  0  0  0  0  0  0  0  0  0  0
   19.5280   14.1430    2.7420   C 0  0  0  0  0  0  0  0  0  0  0  0
   19.0030   13.3900    3.7380   C 0  0  0  0  0  0  0  0  0  0  0  0
   22.8200   21.6920    2.3900   C 0  0  0  0  0  0  0  0  0  0  0  0
   23.0380   23.0670    3.0360   C 0  0  0  0  0  0  0  0  0  0  0  0
   24.2070   23.8070    2.8140   C 0  0  0  0  0  0  0  0  0  0  0  0
   24.4410   25.1230    3.2750   N 0  0  0  0  0  0  0  0  0  0  0  0
   23.3450   25.5640    3.9970   C 0  0  0  0  0  0  0  0  0  0  0  0
   22.1730   24.8660    4.2610   C 0  0  0  0  0  0  0  0  0  0  0  0
   21.9880   23.5740    3.7910   C 0  0  0  0  0  0  0  0  0  0  0  0
  1  2  1  0  0  0  0
  1 13  1  0  0  0  0
  1 39  1  0  0  0  0
  2  3  1  0  0  0  0
  3  4  1  0  0  0  0
  3 11  1  0  0  0  0
  4  5  2  0  0  0  0
  4  6  1  0  0  0  0
  6  7  1  0  0  0  0
  7  8  1  0  0  0  0
  7  9  1  0  0  0  0
  7 10  1  0  0  0  0
 11 12  1  0  0  0  0
 11 14  1  0  0  0  0
 12 13  1  0  0  0  0
 14 15  1  0  0  0  0
 15 16  1  0  0  0  0
 15 17  1  0  0  0  0
 17 18  1  0  0  0  0
 18 19  1  0  0  0  0
 18 26  1  0  0  0  0
 19 20  1  0  0  0  0
 20 21  2  0  0  0  0
 20 25  1  0  0  0  0
 21 22  1  0  0  0  0
 22 23  2  0  0  0  0
 23 24  1  0  0  0  0
 24 25  2  0  0  0  0
 26 27  2  0  0  0  0
 26 28  1  0  0  0  0
 28 29  1  0  0  0  0
 29 30  1  0  0  0  0
 29 38  1  0  0  0  0
 30 31  1  0  0  0  0
 30 32  1  0  0  0  0
 32 33  1  0  0  0  0
 33 34  2  0  0  0  0
 33 38  1  0  0  0  0
 34 35  1  0  0  0  0
 35 36  2  0  0  0  0
 36 37  1  0  0  0  0
 37 38  2  0  0  0  0
 39 40  1  0  0  0  0
 40 41  1  0  0  0  0
 40 45  2  0  0  0  0
 41 42  2  0  0  0  0
 42 43  1  0  0  0  0
 43 44  2  0  0  0  0
 44 45  1  0  0  0  0
A    1
N1
A    2
C1
A    3
C2
A    4
C3
A    5
O1
A    6
N2
A    7
C4
A    8
C5
A    9
C6
A   10
C7
A   11
N3
A   12
C8
A   13
C9
A   14
C10
A   15
C11
A   16
O2
A   17
C12
A   18
C13
A   19
C14
A   20
C15
A   21
C16
A   22
C17
A   23
C18
A   24
C19
A   25
C20
A   26
C21
A   27
O3
A   28
N4
A   29
C22
A   30
C23
A   31
O4
A   32
C24
A   33
C25
A   34
C26
A   35
C27
A   36
C28
A   37
C29
A   38
C30
A   39
C31
A   40
C32
A   41
C33
A   42
N5
A   43
C34
A   44
C35
A   45
C36
M  END
>  <InstanceId>
1SDV_MK1_B_902

>  <ChemCompId>
MK1

>  <PdbId>
1SDV

>  <ChainId>
B

>  <ResidueNumber>
902

>  <InsertionCode>


>  <Model>
1

>  <AltIds>


>  <MissingHeavyAtoms>
0

>  <ObservedFormula>
C36 N5 O4

>  <Name>
N-[2(R)-HYDROXY-1(S)-INDANYL]-5-[(2(S)-TERTIARY BUTYLAMINOCARBONYL)-4(3-PYRIDYLMETHYL)PIPERAZINO]-4(S)-HYDROXY-2(R)-PHENYLMETHYLPENTANAMIDE

>  <SystematicName>
(1S,2S,4R)-N-tert-butyl-1-[(2S,4R)-2-hydroxy-5-[[(1S,2R)-2-hydroxy-2,3-dihydro-1H-inden-1-yl]amino]-5-oxo-4-(phenylmethyl)pentyl]-4-(pyridin-3-ylmethyl)piperazine-2-carboxamide

>  <Synonyms>
INDINAVIR

>  <Type>
NON-POLYMER

>  <Formula>
C36 H47 N5 O4

>  <MolecularWeight>
613.789

>  <ModifiedDate>
2011-06-04

>  <Parent>


>  <OneLetterCode>


>  <SubcomponentList>


>  <AmbiguousFlag>
N

>  <InChI>
InChI=1S/C36H47N5O4/c1-36(2,3)39-35(45)31-24-40(22-26-12-9-15-37-21-26)16-17-41(31)23-29(42)19-28(18-25-10-5-4-6-11-25)34(44)38-33-30-14-8-7-13-27(30)20-32(33)43/h4-15,21,28-29,31-33,42-43H,16-20,22-24H2,1-3H3,(H,38,44)(H,39,45)/t28-,29+,31+,32-,33+/m1/s1

>  <InChIKey>
CBVCZFGXHXORBI-PXQQMZJSSA-N

>  <SMILES>
CC(C)(C)NC(=O)[C@@H]1C[N@@](CC[N@]1C[C@H](C[C@@H](Cc2ccccc2)C(=O)N[C@H]3c4ccccc4C[C@H]3O)O)Cc5cccnc5

$$$$
