4B5S_PYR_A_1256


  7  6  0  0  0  0  0  0  0  0999 V2000
  -48.4864  -31.1307  -18.0309 C   0  0  0  0  0  0  0  0  0  0  0  0
  -49.2196  -30.7121  -17.0348 O   0  0  0  0  0  0  0  0  0  0  0  0
  -48.9549  -31.0912  -19.2625 O   0  0  0  0  0  0  0  0  0  0  0  0
  -48.4260  -31.3924  -19.9748 H   0  0  0  0  0  0  0  0  0  0  0  0
  -47.2082  -31.6329  -17.7817 C   0  0  0  0  0  0  0  0  0  0  0  0
  -46.7598  -32.5944  -18.5422 O   0  0  0  0  0  0  0  0  0  0  0  0
  -46.3797  -31.1263  -16.6417 C   0  0  0  0  0  0  0  0  0  0  0  0
  1  2  2  0  0  0
  1  3  1  0  0  0
  1  5  1  0  0  0
  5  6  2  0  0  0
  5  7  1  0  0  0
  3  4  1  0  0  0
M  END
> <minimizedAffinity>
-4.93105

$$$$
4B5S_PYR_A_1256


  7  6  0  0  0  0  0  0  0  0999 V2000
  -46.6805  -30.3011  -18.5129 C   0  0  0  0  0  0  0  0  0  0  0  0
  -45.8665  -30.3843  -19.5306 O   0  0  0  0  0  0  0  0  0  0  0  0
  -47.1878  -29.1359  -18.1624 O   0  0  0  0  0  0  0  0  0  0  0  0
  -47.7715  -29.0799  -17.4315 H   0  0  0  0  0  0  0  0  0  0  0  0
  -46.9992  -31.4517  -17.7901 C   0  0  0  0  0  0  0  0  0  0  0  0
  -46.7918  -32.6131  -18.3487 O   0  0  0  0  0  0  0  0  0  0  0  0
  -47.6121  -31.3711  -16.4261 C   0  0  0  0  0  0  0  0  0  0  0  0
  1  2  2  0  0  0
  1  3  1  0  0  0
  1  5  1  0  0  0
  5  6  2  0  0  0
  5  7  1  0  0  0
  3  4  1  0  0  0
M  END
> <minimizedAffinity>
-4.90742

$$$$
4B5S_PYR_A_1256


  7  6  0  0  0  0  0  0  0  0999 V2000
  -46.3347  -30.4504  -18.2079 C   0  0  0  0  0  0  0  0  0  0  0  0
  -45.5232  -29.7445  -17.4676 O   0  0  0  0  0  0  0  0  0  0  0  0
  -46.6025  -30.0752  -19.4429 O   0  0  0  0  0  0  0  0  0  0  0  0
  -47.1854  -30.5842  -19.9713 H   0  0  0  0  0  0  0  0  0  0  0  0
  -46.9277  -31.5977  -17.6785 C   0  0  0  0  0  0  0  0  0  0  0  0
  -46.9180  -32.6887  -18.3951 O   0  0  0  0  0  0  0  0  0  0  0  0
  -47.6071  -31.5796  -16.3440 C   0  0  0  0  0  0  0  0  0  0  0  0
  1  2  2  0  0  0
  1  3  1  0  0  0
  1  5  1  0  0  0
  5  6  2  0  0  0
  5  7  1  0  0  0
  3  4  1  0  0  0
M  END
> <minimizedAffinity>
-4.81945

$$$$
4B5S_PYR_A_1256


  7  6  0  0  0  0  0  0  0  0999 V2000
  -46.8673  -31.5679  -17.6917 C   0  0  0  0  0  0  0  0  0  0  0  0
  -46.8691  -32.6762  -18.3822 O   0  0  0  0  0  0  0  0  0  0  0  0
  -47.2140  -31.5777  -16.4199 O   0  0  0  0  0  0  0  0  0  0  0  0
  -47.2115  -30.7805  -15.9274 H   0  0  0  0  0  0  0  0  0  0  0  0
  -46.5089  -30.3703  -18.3125 C   0  0  0  0  0  0  0  0  0  0  0  0
  -45.9249  -30.4260  -19.4786 O   0  0  0  0  0  0  0  0  0  0  0  0
  -46.7363  -29.0482  -17.6469 C   0  0  0  0  0  0  0  0  0  0  0  0
  1  2  2  0  0  0
  1  3  1  0  0  0
  1  5  1  0  0  0
  5  6  2  0  0  0
  5  7  1  0  0  0
  3  4  1  0  0  0
M  END
> <minimizedAffinity>
-4.68017

$$$$
4B5S_PYR_A_1256


  7  6  0  0  0  0  0  0  0  0999 V2000
  -46.5981  -31.2736  -17.9192 C   0  0  0  0  0  0  0  0  0  0  0  0
  -45.5280  -30.9481  -17.2454 O   0  0  0  0  0  0  0  0  0  0  0  0
  -46.7669  -32.5117  -18.3392 O   0  0  0  0  0  0  0  0  0  0  0  0
  -47.5360  -32.7418  -18.8224 H   0  0  0  0  0  0  0  0  0  0  0  0
  -47.5557  -30.2989  -18.2039 C   0  0  0  0  0  0  0  0  0  0  0  0
  -48.4428  -30.5512  -19.1276 O   0  0  0  0  0  0  0  0  0  0  0  0
  -47.5473  -28.9715  -17.5108 C   0  0  0  0  0  0  0  0  0  0  0  0
  1  2  2  0  0  0
  1  3  1  0  0  0
  1  5  1  0  0  0
  5  6  2  0  0  0
  5  7  1  0  0  0
  3  4  1  0  0  0
M  END
> <minimizedAffinity>
-4.52156

$$$$
4B5S_PYR_A_1256


  7  6  0  0  0  0  0  0  0  0999 V2000
  -46.3050  -30.6039  -18.4730 C   0  0  0  0  0  0  0  0  0  0  0  0
  -46.7654  -31.8056  -18.2516 O   0  0  0  0  0  0  0  0  0  0  0  0
  -45.9796  -30.2326  -19.6953 O   0  0  0  0  0  0  0  0  0  0  0  0
  -45.6495  -29.3695  -19.8505 H   0  0  0  0  0  0  0  0  0  0  0  0
  -46.1467  -29.7195  -17.4049 C   0  0  0  0  0  0  0  0  0  0  0  0
  -44.9635  -29.6018  -16.8665 O   0  0  0  0  0  0  0  0  0  0  0  0
  -47.3073  -28.9555  -16.8464 C   0  0  0  0  0  0  0  0  0  0  0  0
  1  2  2  0  0  0
  1  3  1  0  0  0
  1  5  1  0  0  0
  5  6  2  0  0  0
  5  7  1  0  0  0
  3  4  1  0  0  0
M  END
> <minimizedAffinity>
-4.40902

$$$$
4B5S_PYR_A_1256


  7  6  0  0  0  0  0  0  0  0999 V2000
  -46.3029  -30.8528  -18.4355 C   0  0  0  0  0  0  0  0  0  0  0  0
  -45.9226  -30.4324  -19.6119 O   0  0  0  0  0  0  0  0  0  0  0  0
  -46.7489  -32.0838  -18.2828 O   0  0  0  0  0  0  0  0  0  0  0  0
  -47.0210  -32.3821  -17.4373 H   0  0  0  0  0  0  0  0  0  0  0  0
  -46.2471  -29.9857  -17.3432 C   0  0  0  0  0  0  0  0  0  0  0  0
  -45.0804  -29.7158  -16.8238 O   0  0  0  0  0  0  0  0  0  0  0  0
  -47.4912  -29.4113  -16.7391 C   0  0  0  0  0  0  0  0  0  0  0  0
  1  2  2  0  0  0
  1  3  1  0  0  0
  1  5  1  0  0  0
  5  6  2  0  0  0
  5  7  1  0  0  0
  3  4  1  0  0  0
M  END
> <minimizedAffinity>
-4.32169

$$$$
4B5S_PYR_A_1256


  7  6  0  0  0  0  0  0  0  0999 V2000
  -45.7249  -29.3752  -17.1140 C   0  0  0  0  0  0  0  0  0  0  0  0
  -46.6043  -28.4123  -17.0448 O   0  0  0  0  0  0  0  0  0  0  0  0
  -44.4754  -29.1600  -16.7535 O   0  0  0  0  0  0  0  0  0  0  0  0
  -43.8470  -29.8532  -16.8045 H   0  0  0  0  0  0  0  0  0  0  0  0
  -46.1136  -30.6301  -17.5854 C   0  0  0  0  0  0  0  0  0  0  0  0
  -46.1267  -30.8322  -18.8749 O   0  0  0  0  0  0  0  0  0  0  0  0
  -46.5561  -31.7121  -16.6493 C   0  0  0  0  0  0  0  0  0  0  0  0
  1  2  2  0  0  0
  1  3  1  0  0  0
  1  5  1  0  0  0
  5  6  2  0  0  0
  5  7  1  0  0  0
  3  4  1  0  0  0
M  END
> <minimizedAffinity>
-4.18220

$$$$
4B5S_PYR_A_1256


  7  6  0  0  0  0  0  0  0  0999 V2000
  -46.3955  -30.5871  -18.4383 C   0  0  0  0  0  0  0  0  0  0  0  0
  -46.7600  -31.8258  -18.2433 O   0  0  0  0  0  0  0  0  0  0  0  0
  -45.9596  -30.2019  -19.6212 O   0  0  0  0  0  0  0  0  0  0  0  0
  -45.6989  -29.3123  -19.7575 H   0  0  0  0  0  0  0  0  0  0  0  0
  -46.4573  -29.6767  -17.3821 C   0  0  0  0  0  0  0  0  0  0  0  0
  -47.6240  -29.4071  -16.8624 O   0  0  0  0  0  0  0  0  0  0  0  0
  -45.2305  -28.9799  -16.8803 C   0  0  0  0  0  0  0  0  0  0  0  0
  1  2  2  0  0  0
  1  3  1  0  0  0
  1  5  1  0  0  0
  5  6  2  0  0  0
  5  7  1  0  0  0
  3  4  1  0  0  0
M  END
> <minimizedAffinity>
-4.14212

$$$$
4B5S_PYR_A_1256


  7  6  0  0  0  0  0  0  0  0999 V2000
  -45.7539  -28.9688  -17.7249 C   0  0  0  0  0  0  0  0  0  0  0  0
  -45.4991  -30.2491  -17.6910 O   0  0  0  0  0  0  0  0  0  0  0  0
  -46.9089  -28.5340  -18.1883 O   0  0  0  0  0  0  0  0  0  0  0  0
  -47.0883  -27.6146  -18.2112 H   0  0  0  0  0  0  0  0  0  0  0  0
  -44.7899  -28.0628  -17.2801 C   0  0  0  0  0  0  0  0  0  0  0  0
  -43.5567  -28.4750  -17.1649 O   0  0  0  0  0  0  0  0  0  0  0  0
  -45.1551  -26.6632  -16.8922 C   0  0  0  0  0  0  0  0  0  0  0  0
  1  2  2  0  0  0
  1  3  1  0  0  0
  1  5  1  0  0  0
  5  6  2  0  0  0
  5  7  1  0  0  0
  3  4  1  0  0  0
M  END
> <minimizedAffinity>
-3.98972

$$$$
