3TZ0_03H_A_389


 10  9  0  0  0  0  0  0  0  0999 V2000
   -7.6760  -28.8923   13.8283 Cl  0  0  0  0  0  0  0  0  0  0  0  0
   -7.7721  -30.5524   14.5044 C   0  0  0  0  0  0  0  0  0  0  0  0
   -7.7181  -31.5357   13.3738 C   0  0  0  0  0  0  0  0  0  0  0  0
   -8.2449  -31.2405   12.3159 O   0  0  0  0  0  0  0  0  0  0  0  0
   -6.7446  -32.4450   13.3530 O   0  0  0  0  0  0  0  0  0  0  0  0
   -8.9327  -30.6044   12.2965 H   0  0  0  0  0  0  0  0  0  0  0  0
   -9.0680  -30.7873   15.2717 C   0  0  0  0  0  0  0  0  0  0  0  0
   -9.1510  -32.1876   15.8663 C   0  0  0  0  0  0  0  0  0  0  0  0
   -8.1444  -32.3275   16.9952 C   0  0  0  0  0  0  0  0  0  0  0  0
  -10.5462  -32.5201   16.3806 C   0  0  0  0  0  0  0  0  0  0  0  0
  1  2  1  0  0  0
  5  3  2  0  0  0
  4  3  1  0  0  0
  3  2  1  0  0  0
  2  7  1  0  0  0
  7  8  1  0  0  0
  8 10  1  0  0  0
  8  9  1  0  0  0
  4  6  1  0  0  0
M  END
> <minimizedAffinity>
-5.61403

$$$$
3TZ0_03H_A_389


 10  9  0  0  0  0  0  0  0  0999 V2000
  -10.7701  -32.5252   16.2997 Cl  0  0  0  0  0  0  0  0  0  0  0  0
   -9.1160  -31.8501   16.4746 C   0  0  0  0  0  0  0  0  0  0  0  0
   -8.3538  -32.1122   15.2103 C   0  0  0  0  0  0  0  0  0  0  0  0
   -8.4739  -31.3324   14.2823 O   0  0  0  0  0  0  0  0  0  0  0  0
   -7.2472  -32.8522   15.2634 O   0  0  0  0  0  0  0  0  0  0  0  0
   -9.2403  -30.7974   14.2160 H   0  0  0  0  0  0  0  0  0  0  0  0
   -8.3516  -32.4910   17.6271 C   0  0  0  0  0  0  0  0  0  0  0  0
   -8.7193  -31.8917   18.9787 C   0  0  0  0  0  0  0  0  0  0  0  0
   -9.5828  -30.6586   18.7768 C   0  0  0  0  0  0  0  0  0  0  0  0
   -9.4467  -32.8843   19.8772 C   0  0  0  0  0  0  0  0  0  0  0  0
  1  2  1  0  0  0
  5  3  2  0  0  0
  4  3  1  0  0  0
  3  2  1  0  0  0
  2  7  1  0  0  0
  7  8  1  0  0  0
  8 10  1  0  0  0
  8  9  1  0  0  0
  4  6  1  0  0  0
M  END
> <minimizedAffinity>
-5.41564

$$$$
3TZ0_03H_A_389


 10  9  0  0  0  0  0  0  0  0999 V2000
   -9.1828  -30.5843   14.9413 Cl  0  0  0  0  0  0  0  0  0  0  0  0
   -8.5849  -31.7460   16.1723 C   0  0  0  0  0  0  0  0  0  0  0  0
   -7.7505  -32.7859   15.4863 C   0  0  0  0  0  0  0  0  0  0  0  0
   -7.9924  -33.9614   15.6950 O   0  0  0  0  0  0  0  0  0  0  0  0
   -7.1254  -32.4698   14.3530 O   0  0  0  0  0  0  0  0  0  0  0  0
   -8.4309  -34.2168   16.4827 H   0  0  0  0  0  0  0  0  0  0  0  0
   -9.7237  -32.4566   16.8943 C   0  0  0  0  0  0  0  0  0  0  0  0
   -9.7606  -32.1400   18.3841 C   0  0  0  0  0  0  0  0  0  0  0  0
   -8.6472  -32.8883   19.0966 C   0  0  0  0  0  0  0  0  0  0  0  0
   -9.6357  -30.6477   18.6655 C   0  0  0  0  0  0  0  0  0  0  0  0
  1  2  1  0  0  0
  5  3  2  0  0  0
  4  3  1  0  0  0
  3  2  1  0  0  0
  2  7  1  0  0  0
  7  8  1  0  0  0
  8 10  1  0  0  0
  8  9  1  0  0  0
  4  6  1  0  0  0
M  END
> <minimizedAffinity>
-5.27194

$$$$
3TZ0_03H_A_389


 10  9  0  0  0  0  0  0  0  0999 V2000
   -7.3304  -32.9398   15.3156 Cl  0  0  0  0  0  0  0  0  0  0  0  0
   -8.5923  -31.6777   15.1231 C   0  0  0  0  0  0  0  0  0  0  0  0
   -8.1246  -30.6819   14.1044 C   0  0  0  0  0  0  0  0  0  0  0  0
   -8.2345  -30.9578   12.9231 O   0  0  0  0  0  0  0  0  0  0  0  0
   -8.0597  -29.3943   14.4405 O   0  0  0  0  0  0  0  0  0  0  0  0
   -8.2827  -31.8539   12.6537 H   0  0  0  0  0  0  0  0  0  0  0  0
   -8.8618  -30.9301   16.4238 C   0  0  0  0  0  0  0  0  0  0  0  0
   -9.7706  -31.7067   17.3682 C   0  0  0  0  0  0  0  0  0  0  0  0
  -10.0030  -30.9025   18.6357 C   0  0  0  0  0  0  0  0  0  0  0  0
  -11.1100  -32.0563   16.7313 C   0  0  0  0  0  0  0  0  0  0  0  0
  1  2  1  0  0  0
  5  3  2  0  0  0
  4  3  1  0  0  0
  3  2  1  0  0  0
  2  7  1  0  0  0
  7  8  1  0  0  0
  8 10  1  0  0  0
  8  9  1  0  0  0
  4  6  1  0  0  0
M  END
> <minimizedAffinity>
-5.08827

$$$$
3TZ0_03H_A_389


 10  9  0  0  0  0  0  0  0  0999 V2000
   -8.3831  -29.4410   14.7821 Cl  0  0  0  0  0  0  0  0  0  0  0  0
   -7.5710  -31.0409   14.8402 C   0  0  0  0  0  0  0  0  0  0  0  0
   -7.3686  -31.5283   13.4367 C   0  0  0  0  0  0  0  0  0  0  0  0
   -6.8603  -32.6217   13.2646 O   0  0  0  0  0  0  0  0  0  0  0  0
   -8.1359  -31.0375   12.4643 O   0  0  0  0  0  0  0  0  0  0  0  0
   -6.3153  -32.9949   13.9292 H   0  0  0  0  0  0  0  0  0  0  0  0
   -8.4001  -32.0806   15.5851 C   0  0  0  0  0  0  0  0  0  0  0  0
   -9.4128  -31.4518   16.5339 C   0  0  0  0  0  0  0  0  0  0  0  0
  -10.7654  -32.1205   16.3592 C   0  0  0  0  0  0  0  0  0  0  0  0
   -8.9804  -31.5447   17.9920 C   0  0  0  0  0  0  0  0  0  0  0  0
  1  2  1  0  0  0
  5  3  2  0  0  0
  4  3  1  0  0  0
  3  2  1  0  0  0
  2  7  1  0  0  0
  7  8  1  0  0  0
  8 10  1  0  0  0
  8  9  1  0  0  0
  4  6  1  0  0  0
M  END
> <minimizedAffinity>
-5.04439

$$$$
3TZ0_03H_A_389


 10  9  0  0  0  0  0  0  0  0999 V2000
   -6.5278  -31.7736   16.9846 Cl  0  0  0  0  0  0  0  0  0  0  0  0
   -7.9166  -32.4653   16.0818 C   0  0  0  0  0  0  0  0  0  0  0  0
   -8.3804  -31.4607   15.0700 C   0  0  0  0  0  0  0  0  0  0  0  0
   -9.5632  -31.1725   15.0311 O   0  0  0  0  0  0  0  0  0  0  0  0
   -7.5073  -30.5769   14.5884 O   0  0  0  0  0  0  0  0  0  0  0  0
  -10.2027  -31.7724   15.3617 H   0  0  0  0  0  0  0  0  0  0  0  0
   -9.0923  -32.7910   16.9955 C   0  0  0  0  0  0  0  0  0  0  0  0
   -8.9414  -32.1820   18.3838 C   0  0  0  0  0  0  0  0  0  0  0  0
  -10.1412  -31.3034   18.6932 C   0  0  0  0  0  0  0  0  0  0  0  0
   -8.7878  -33.2394   19.4701 C   0  0  0  0  0  0  0  0  0  0  0  0
  1  2  1  0  0  0
  5  3  2  0  0  0
  4  3  1  0  0  0
  3  2  1  0  0  0
  2  7  1  0  0  0
  7  8  1  0  0  0
  8 10  1  0  0  0
  8  9  1  0  0  0
  4  6  1  0  0  0
M  END
> <minimizedAffinity>
-5.02467

$$$$
3TZ0_03H_A_389


 10  9  0  0  0  0  0  0  0  0999 V2000
  -10.3911  -30.8299   18.5909 Cl  0  0  0  0  0  0  0  0  0  0  0  0
   -9.2938  -31.5544   17.3688 C   0  0  0  0  0  0  0  0  0  0  0  0
  -10.0210  -31.6394   16.0603 C   0  0  0  0  0  0  0  0  0  0  0  0
   -9.3868  -31.5077   15.0288 O   0  0  0  0  0  0  0  0  0  0  0  0
  -11.1737  -32.3051   16.0027 O   0  0  0  0  0  0  0  0  0  0  0  0
   -8.5722  -31.0448   15.0355 H   0  0  0  0  0  0  0  0  0  0  0  0
   -8.8516  -32.9612   17.7543 C   0  0  0  0  0  0  0  0  0  0  0  0
   -8.3123  -33.0362   19.1773 C   0  0  0  0  0  0  0  0  0  0  0  0
   -7.4451  -31.8224   19.4633 C   0  0  0  0  0  0  0  0  0  0  0  0
   -9.4227  -33.1281   20.2167 C   0  0  0  0  0  0  0  0  0  0  0  0
  1  2  1  0  0  0
  5  3  2  0  0  0
  4  3  1  0  0  0
  3  2  1  0  0  0
  2  7  1  0  0  0
  7  8  1  0  0  0
  8 10  1  0  0  0
  8  9  1  0  0  0
  4  6  1  0  0  0
M  END
> <minimizedAffinity>
-4.53557

$$$$
3TZ0_03H_A_389


 10  9  0  0  0  0  0  0  0  0999 V2000
   -7.6477  -33.3766   15.7327 Cl  0  0  0  0  0  0  0  0  0  0  0  0
   -8.1510  -31.7100   16.1704 C   0  0  0  0  0  0  0  0  0  0  0  0
   -8.7544  -31.7350   17.5428 C   0  0  0  0  0  0  0  0  0  0  0  0
   -9.4693  -30.8099   17.8847 O   0  0  0  0  0  0  0  0  0  0  0  0
   -8.9126  -32.9057   18.1589 O   0  0  0  0  0  0  0  0  0  0  0  0
   -9.3831  -29.9736   17.4710 H   0  0  0  0  0  0  0  0  0  0  0  0
   -9.1925  -31.1517   15.2078 C   0  0  0  0  0  0  0  0  0  0  0  0
   -8.5659  -30.4396   14.0156 C   0  0  0  0  0  0  0  0  0  0  0  0
   -7.9572  -29.1225   14.4650 C   0  0  0  0  0  0  0  0  0  0  0  0
   -7.5031  -31.2853   13.3249 C   0  0  0  0  0  0  0  0  0  0  0  0
  1  2  1  0  0  0
  5  3  2  0  0  0
  4  3  1  0  0  0
  3  2  1  0  0  0
  2  7  1  0  0  0
  7  8  1  0  0  0
  8 10  1  0  0  0
  8  9  1  0  0  0
  4  6  1  0  0  0
M  END
> <minimizedAffinity>
-4.15601

$$$$
3TZ0_03H_A_389


 10  9  0  0  0  0  0  0  0  0999 V2000
   -7.2505  -31.9616   16.6292 Cl  0  0  0  0  0  0  0  0  0  0  0  0
   -8.7000  -33.0157   16.7298 C   0  0  0  0  0  0  0  0  0  0  0  0
   -9.8177  -32.3699   15.9670 C   0  0  0  0  0  0  0  0  0  0  0  0
  -10.9653  -32.6694   16.2448 O   0  0  0  0  0  0  0  0  0  0  0  0
   -9.6052  -31.1928   15.3804 O   0  0  0  0  0  0  0  0  0  0  0  0
  -11.1484  -33.4902   16.6580 H   0  0  0  0  0  0  0  0  0  0  0  0
   -9.1657  -33.2184   18.1669 C   0  0  0  0  0  0  0  0  0  0  0  0
   -8.7920  -32.0524   19.0735 C   0  0  0  0  0  0  0  0  0  0  0  0
   -7.2950  -31.8053   19.0031 C   0  0  0  0  0  0  0  0  0  0  0  0
   -9.5391  -30.7735   18.7154 C   0  0  0  0  0  0  0  0  0  0  0  0
  1  2  1  0  0  0
  5  3  2  0  0  0
  4  3  1  0  0  0
  3  2  1  0  0  0
  2  7  1  0  0  0
  7  8  1  0  0  0
  8 10  1  0  0  0
  8  9  1  0  0  0
  4  6  1  0  0  0
M  END
> <minimizedAffinity>
-3.16399

$$$$
