3B5R_B5R_A_1


 30 31  0  0  0  0  0  0  0  0999 V2000
   28.4336    1.5429    3.1454 C   0  0  0  0  0  0  0  0  0  0  0  0
   27.6200    1.2206    2.2802 O   0  0  0  0  0  0  0  0  0  0  0  0
   28.3850    2.6644    3.8614 N   0  0  0  0  0  0  0  0  0  0  0  0
   29.0898    2.7934    4.5365 H   0  0  0  0  0  0  0  0  0  0  0  0
   27.4723    3.6282    3.7502 C   0  0  0  0  0  0  0  0  0  0  0  0
   26.0979    3.4023    3.7982 C   0  0  0  0  0  0  0  0  0  0  0  0
   27.9423    4.9345    3.6732 C   0  0  0  0  0  0  0  0  0  0  0  0
   27.0380    5.9894    3.6531 C   0  0  0  0  0  0  0  0  0  0  0  0
   25.6680    5.7508    3.7079 C   0  0  0  0  0  0  0  0  0  0  0  0
   25.1702    4.4470    3.7818 C   0  0  0  0  0  0  0  0  0  0  0  0
   23.6665    4.1377    3.9169 C   0  0  0  0  0  0  0  0  0  0  0  0
   22.8969    4.8934    3.1381 F   0  0  0  0  0  0  0  0  0  0  0  0
   23.3688    2.8852    3.5833 F   0  0  0  0  0  0  0  0  0  0  0  0
   23.2722    4.3191    5.1730 F   0  0  0  0  0  0  0  0  0  0  0  0
   24.8235    6.9061    3.6850 C   0  0  0  0  0  0  0  0  0  0  0  0
   24.1548    7.8271    3.6826 N   0  0  0  0  0  0  0  0  0  0  0  0
   29.5868    0.6080    3.5160 C   0  0  0  0  0  0  0  0  0  0  0  0
   30.8272    1.3068    3.3886 O   0  0  0  0  0  0  0  0  0  0  0  0
   29.5766   -0.6290    2.6150 C   0  0  0  0  0  0  0  0  0  0  0  0
   31.5580    0.7138    3.6236 H   0  0  0  0  0  0  0  0  0  0  0  0
   29.4090    0.1937    4.9681 C   0  0  0  0  0  0  0  0  0  0  0  0
   29.9315    1.2725    5.7554 O   0  0  0  0  0  0  0  0  0  0  0  0
   30.1290   -0.2239    7.5881 C   0  0  0  0  0  0  0  0  0  0  0  0
   29.8795   -0.5218    8.9238 C   0  0  0  0  0  0  0  0  0  0  0  0
   30.1166   -1.7844    9.3375 F   0  0  0  0  0  0  0  0  0  0  0  0
   29.3968    0.4715    9.7751 C   0  0  0  0  0  0  0  0  0  0  0  0
   29.0123    0.1630   11.4343 Cl  0  0  0  0  0  0  0  0  0  0  0  0
   29.1813    1.7562    9.2828 C   0  0  0  0  0  0  0  0  0  0  0  0
   29.4295    2.0560    7.9470 C   0  0  0  0  0  0  0  0  0  0  0  0
   29.8941    1.0573    7.0963 C   0  0  0  0  0  0  0  0  0  0  0  0
 23 24  2  0  0  0
 23 30  1  0  0  0
 24 25  1  0  0  0
 24 26  1  0  0  0
 26 27  1  0  0  0
 26 28  2  0  0  0
 28 29  1  0  0  0
 29 30  2  0  0  0
 30 22  1  0  0  0
 22 21  1  0  0  0
 21 17  1  0  0  0
 17 18  1  0  0  0
 17 19  1  0  0  0
 17  1  1  0  0  0
  1  2  2  0  0  0
  1  3  1  0  0  0
  3  5  1  0  0  0
  5  6  2  0  0  0
  5  7  1  0  0  0
  6 10  1  0  0  0
  7  8  2  0  0  0
  8  9  1  0  0  0
  9 15  1  0  0  0
  9 10  2  0  0  0
 15 16  3  0  0  0
 10 11  1  0  0  0
 11 12  1  0  0  0
 11 13  1  0  0  0
 11 14  1  0  0  0
 18 20  1  0  0  0
  3  4  1  0  0  0
M  END
> <minimizedAffinity>
-11.26128

$$$$
3B5R_B5R_A_1


 30 31  0  0  0  0  0  0  0  0999 V2000
   28.5659    1.6972    3.1632 C   0  0  0  0  0  0  0  0  0  0  0  0
   27.7878    1.3698    2.2677 O   0  0  0  0  0  0  0  0  0  0  0  0
   28.4637    2.8019    3.8993 N   0  0  0  0  0  0  0  0  0  0  0  0
   29.1444    2.9370    4.5976 H   0  0  0  0  0  0  0  0  0  0  0  0
   27.5273    3.7415    3.7797 C   0  0  0  0  0  0  0  0  0  0  0  0
   26.1589    3.4806    3.8208 C   0  0  0  0  0  0  0  0  0  0  0  0
   27.9640    5.0593    3.7009 C   0  0  0  0  0  0  0  0  0  0  0  0
   27.0330    6.0905    3.6721 C   0  0  0  0  0  0  0  0  0  0  0  0
   25.6693    5.8169    3.7200 C   0  0  0  0  0  0  0  0  0  0  0  0
   25.2048    4.5010    3.7955 C   0  0  0  0  0  0  0  0  0  0  0  0
   23.7088    4.1536    3.9233 C   0  0  0  0  0  0  0  0  0  0  0  0
   22.9224    4.9020    3.1543 F   0  0  0  0  0  0  0  0  0  0  0  0
   23.4419    2.8994    3.5706 F   0  0  0  0  0  0  0  0  0  0  0  0
   23.3084    4.3068    5.1812 F   0  0  0  0  0  0  0  0  0  0  0  0
   24.7956    6.9500    3.6884 C   0  0  0  0  0  0  0  0  0  0  0  0
   24.1112    7.8593    3.6727 N   0  0  0  0  0  0  0  0  0  0  0  0
   29.7342    0.7879    3.5498 C   0  0  0  0  0  0  0  0  0  0  0  0
   30.9362    1.5585    3.6179 O   0  0  0  0  0  0  0  0  0  0  0  0
   29.8837   -0.3447    2.5315 C   0  0  0  0  0  0  0  0  0  0  0  0
   31.6766    0.9817    3.8629 H   0  0  0  0  0  0  0  0  0  0  0  0
   29.4470    0.2123    4.9275 C   0  0  0  0  0  0  0  0  0  0  0  0
   30.0227    1.1287    5.8684 O   0  0  0  0  0  0  0  0  0  0  0  0
   28.9992    1.7504    7.9185 C   0  0  0  0  0  0  0  0  0  0  0  0
   28.8898    1.5998    9.2970 C   0  0  0  0  0  0  0  0  0  0  0  0
   28.1617    2.5153    9.9701 F   0  0  0  0  0  0  0  0  0  0  0  0
   29.5275    0.5326    9.9285 C   0  0  0  0  0  0  0  0  0  0  0  0
   29.4816    0.3102   11.6445 Cl  0  0  0  0  0  0  0  0  0  0  0  0
   30.2573   -0.3801    9.1711 C   0  0  0  0  0  0  0  0  0  0  0  0
   30.3686   -0.2307    7.7923 C   0  0  0  0  0  0  0  0  0  0  0  0
   29.7456    0.8459    7.1680 C   0  0  0  0  0  0  0  0  0  0  0  0
 23 24  2  0  0  0
 23 30  1  0  0  0
 24 25  1  0  0  0
 24 26  1  0  0  0
 26 27  1  0  0  0
 26 28  2  0  0  0
 28 29  1  0  0  0
 29 30  2  0  0  0
 30 22  1  0  0  0
 22 21  1  0  0  0
 21 17  1  0  0  0
 17 18  1  0  0  0
 17 19  1  0  0  0
 17  1  1  0  0  0
  1  2  2  0  0  0
  1  3  1  0  0  0
  3  5  1  0  0  0
  5  6  2  0  0  0
  5  7  1  0  0  0
  6 10  1  0  0  0
  7  8  2  0  0  0
  8  9  1  0  0  0
  9 15  1  0  0  0
  9 10  2  0  0  0
 15 16  3  0  0  0
 10 11  1  0  0  0
 11 12  1  0  0  0
 11 13  1  0  0  0
 11 14  1  0  0  0
 18 20  1  0  0  0
  3  4  1  0  0  0
M  END
> <minimizedAffinity>
-11.02984

$$$$
3B5R_B5R_A_1


 30 31  0  0  0  0  0  0  0  0999 V2000
   28.4596    1.1321    3.3602 C   0  0  0  0  0  0  0  0  0  0  0  0
   27.9329    0.9346    2.2657 O   0  0  0  0  0  0  0  0  0  0  0  0
   27.9602    1.9069    4.3208 N   0  0  0  0  0  0  0  0  0  0  0  0
   28.4738    1.9656    5.1586 H   0  0  0  0  0  0  0  0  0  0  0  0
   26.8308    2.6101    4.2550 C   0  0  0  0  0  0  0  0  0  0  0  0
   26.7887    3.9968    4.1234 C   0  0  0  0  0  0  0  0  0  0  0  0
   25.6416    1.8901    4.2273 C   0  0  0  0  0  0  0  0  0  0  0  0
   24.4362    2.5615    4.0621 C   0  0  0  0  0  0  0  0  0  0  0  0
   24.4083    3.9462    3.9255 C   0  0  0  0  0  0  0  0  0  0  0  0
   25.5892    4.6930    3.9538 C   0  0  0  0  0  0  0  0  0  0  0  0
   25.6137    6.2183    3.7347 C   0  0  0  0  0  0  0  0  0  0  0  0
   24.6978    6.8715    4.4450 F   0  0  0  0  0  0  0  0  0  0  0  0
   26.7741    6.7674    4.0819 F   0  0  0  0  0  0  0  0  0  0  0  0
   25.4079    6.5006    2.4525 F   0  0  0  0  0  0  0  0  0  0  0  0
   23.1165    4.5390    3.7569 C   0  0  0  0  0  0  0  0  0  0  0  0
   22.0869    5.0096    3.6388 N   0  0  0  0  0  0  0  0  0  0  0  0
   29.7641    0.4254    3.7347 C   0  0  0  0  0  0  0  0  0  0  0  0
   30.8600    1.3282    3.5697 O   0  0  0  0  0  0  0  0  0  0  0  0
   29.9619   -0.8181    2.8649 C   0  0  0  0  0  0  0  0  0  0  0  0
   31.6868    0.8799    3.8072 H   0  0  0  0  0  0  0  0  0  0  0  0
   29.6795    0.0260    5.1994 C   0  0  0  0  0  0  0  0  0  0  0  0
   30.1145    1.1690    5.9482 O   0  0  0  0  0  0  0  0  0  0  0  0
   30.2160   -0.1689    7.9070 C   0  0  0  0  0  0  0  0  0  0  0  0
   29.8509   -0.3825    9.2321 C   0  0  0  0  0  0  0  0  0  0  0  0
   30.1214   -1.5913    9.7681 F   0  0  0  0  0  0  0  0  0  0  0  0
   29.2247    0.6362    9.9494 C   0  0  0  0  0  0  0  0  0  0  0  0
   28.6934    0.4270   11.5834 Cl  0  0  0  0  0  0  0  0  0  0  0  0
   28.9823    1.8626    9.3359 C   0  0  0  0  0  0  0  0  0  0  0  0
   29.3459    2.0779    8.0103 C   0  0  0  0  0  0  0  0  0  0  0  0
   29.9545    1.0527    7.2923 C   0  0  0  0  0  0  0  0  0  0  0  0
 23 24  2  0  0  0
 23 30  1  0  0  0
 24 25  1  0  0  0
 24 26  1  0  0  0
 26 27  1  0  0  0
 26 28  2  0  0  0
 28 29  1  0  0  0
 29 30  2  0  0  0
 30 22  1  0  0  0
 22 21  1  0  0  0
 21 17  1  0  0  0
 17 18  1  0  0  0
 17 19  1  0  0  0
 17  1  1  0  0  0
  1  2  2  0  0  0
  1  3  1  0  0  0
  3  5  1  0  0  0
  5  6  2  0  0  0
  5  7  1  0  0  0
  6 10  1  0  0  0
  7  8  2  0  0  0
  8  9  1  0  0  0
  9 15  1  0  0  0
  9 10  2  0  0  0
 15 16  3  0  0  0
 10 11  1  0  0  0
 11 12  1  0  0  0
 11 13  1  0  0  0
 11 14  1  0  0  0
 18 20  1  0  0  0
  3  4  1  0  0  0
M  END
> <minimizedAffinity>
-10.06539

$$$$
