5CAQ_4ZJ_A_1102


 30 33  0  0  0  0  0  0  0  0999 V2000
  -54.5029    2.0345  -23.2964 N   0  0  0  0  0  0  0  0  0  0  0  0
  -54.9534    2.9052  -23.3863 H   0  0  0  0  0  0  0  0  0  0  0  0
  -52.4871    1.5032  -19.6857 C   0  0  0  0  0  0  0  0  0  0  0  0
  -53.4935    2.4560  -19.8664 C   0  0  0  0  0  0  0  0  0  0  0  0
  -53.8233    1.8035  -22.0911 C   0  0  0  0  0  0  0  0  0  0  0  0
  -52.7965    0.8735  -22.0048 C   0  0  0  0  0  0  0  0  0  0  0  0
  -52.1319    0.6997  -20.7902 C   0  0  0  0  0  0  0  0  0  0  0  0
  -51.6724    1.1326  -18.6624 N   0  0  0  0  0  0  0  0  0  0  0  0
  -49.8444   -0.4143  -18.1064 C   0  0  0  0  0  0  0  0  0  0  0  0
  -50.8553    0.1929  -19.0487 C   0  0  0  0  0  0  0  0  0  0  0  0
  -54.1273    2.5557  -21.0303 N   0  0  0  0  0  0  0  0  0  0  0  0
  -51.1099   -0.1198  -20.3733 N   0  0  0  0  0  0  0  0  0  0  0  0
  -50.5112   -1.0888  -21.3043 C   0  0  0  0  0  0  0  0  0  0  0  0
  -50.8751   -2.5487  -21.0182 C   0  0  0  0  0  0  0  0  0  0  0  0
  -49.0880   -0.7796  -21.7531 C   0  0  0  0  0  0  0  0  0  0  0  0
  -54.6095    1.1648  -24.3803 C   0  0  0  0  0  0  0  0  0  0  0  0
  -55.7540    1.2130  -25.1965 C   0  0  0  0  0  0  0  0  0  0  0  0
  -55.8427    0.3426  -26.2740 C   0  0  0  0  0  0  0  0  0  0  0  0
  -54.8425   -0.5093  -26.4942 N   0  0  0  0  0  0  0  0  0  0  0  0
  -53.7614   -0.5616  -25.7022 C   0  0  0  0  0  0  0  0  0  0  0  0
  -53.6464    0.2856  -24.6739 N   0  0  0  0  0  0  0  0  0  0  0  0
  -52.7327   -1.4696  -25.9611 N   0  0  0  0  0  0  0  0  0  0  0  0
  -51.5283   -1.5039  -25.0868 C   0  0  0  0  0  0  0  0  0  0  0  0
  -50.2447   -1.4691  -25.9370 C   0  0  0  0  0  0  0  0  0  0  0  0
  -50.3047   -2.6015  -26.9881 C   0  0  0  0  0  0  0  0  0  0  0  0
  -51.5098   -2.3902  -27.9261 C   0  0  0  0  0  0  0  0  0  0  0  0
  -52.8172   -2.3883  -27.1290 C   0  0  0  0  0  0  0  0  0  0  0  0
  -51.4176   -1.1090  -28.4712 F   0  0  0  0  0  0  0  0  0  0  0  0
  -49.1050   -2.6078  -27.7736 O   0  0  0  0  0  0  0  0  0  0  0  0
  -48.0903   -3.5073  -27.3256 C   0  0  0  0  0  0  0  0  0  0  0  0
 28 26  1  0  0  0
 26 27  1  0  0  0
 26 25  1  0  0  0
 29 30  1  0  0  0
 29 25  1  0  0  0
 27 22  1  0  0  0
 25 24  1  0  0  0
 19 18  2  0  0  0
 19 20  1  0  0  0
 18 17  1  0  0  0
 22 20  1  0  0  0
 22 23  1  0  0  0
 24 23  1  0  0  0
 20 21  2  0  0  0
 17 16  2  0  0  0
 21 16  1  0  0  0
 16  1  1  0  0  0
  1  5  1  0  0  0
  5  6  2  0  0  0
  5 11  1  0  0  0
  6  7  1  0  0  0
 15 13  1  0  0  0
 13 14  1  0  0  0
 13 12  1  0  0  0
 11  4  2  0  0  0
  7 12  1  0  0  0
  7  3  2  0  0  0
 12 10  1  0  0  0
  4  3  1  0  0  0
  3  8  1  0  0  0
 10  8  2  0  0  0
 10  9  1  0  0  0
  1  2  1  0  0  0
M  END
> <minimizedAffinity>
-8.53828

$$$$
5CAQ_4ZJ_A_1102


 30 33  0  0  0  0  0  0  0  0999 V2000
  -52.3926    1.6269  -22.0206 N   0  0  0  0  0  0  0  0  0  0  0  0
  -52.6755    2.5597  -21.8823 H   0  0  0  0  0  0  0  0  0  0  0  0
  -53.7043   -0.1654  -25.5490 C   0  0  0  0  0  0  0  0  0  0  0  0
  -54.4772    0.7421  -24.8192 C   0  0  0  0  0  0  0  0  0  0  0  0
  -52.7843    1.0267  -23.2265 C   0  0  0  0  0  0  0  0  0  0  0  0
  -51.9809    0.0926  -23.8656 C   0  0  0  0  0  0  0  0  0  0  0  0
  -52.4271   -0.4973  -25.0489 C   0  0  0  0  0  0  0  0  0  0  0  0
  -53.8754   -0.8957  -26.6828 N   0  0  0  0  0  0  0  0  0  0  0  0
  -52.7465   -2.5501  -28.1084 C   0  0  0  0  0  0  0  0  0  0  0  0
  -52.8298   -1.6422  -26.9054 C   0  0  0  0  0  0  0  0  0  0  0  0
  -53.9925    1.3103  -23.7200 N   0  0  0  0  0  0  0  0  0  0  0  0
  -51.8896   -1.4215  -25.9131 N   0  0  0  0  0  0  0  0  0  0  0  0
  -50.5481   -1.9729  -25.6670 C   0  0  0  0  0  0  0  0  0  0  0  0
  -49.4887   -1.5364  -26.6831 C   0  0  0  0  0  0  0  0  0  0  0  0
  -50.5083   -3.4105  -25.1627 C   0  0  0  0  0  0  0  0  0  0  0  0
  -51.6464    1.0456  -20.9969 C   0  0  0  0  0  0  0  0  0  0  0  0
  -52.0338    1.2441  -19.6593 C   0  0  0  0  0  0  0  0  0  0  0  0
  -51.2819    0.6552  -18.6521 C   0  0  0  0  0  0  0  0  0  0  0  0
  -50.2189   -0.0738  -18.9883 N   0  0  0  0  0  0  0  0  0  0  0  0
  -49.8452   -0.2455  -20.2649 C   0  0  0  0  0  0  0  0  0  0  0  0
  -50.5709    0.2935  -21.2504 N   0  0  0  0  0  0  0  0  0  0  0  0
  -48.7231   -1.0141  -20.5808 N   0  0  0  0  0  0  0  0  0  0  0  0
  -48.0825   -0.8868  -21.9185 C   0  0  0  0  0  0  0  0  0  0  0  0
  -47.8662   -2.2763  -22.5462 C   0  0  0  0  0  0  0  0  0  0  0  0
  -47.0906   -3.1662  -21.5474 C   0  0  0  0  0  0  0  0  0  0  0  0
  -47.9073   -3.3444  -20.2520 C   0  0  0  0  0  0  0  0  0  0  0  0
  -48.1772   -1.9874  -19.5961 C   0  0  0  0  0  0  0  0  0  0  0  0
  -49.1672   -3.8358  -20.5961 F   0  0  0  0  0  0  0  0  0  0  0  0
  -46.8511   -4.4578  -22.1225 O   0  0  0  0  0  0  0  0  0  0  0  0
  -47.2335   -4.5936  -23.4917 C   0  0  0  0  0  0  0  0  0  0  0  0
 28 26  1  0  0  0
 26 27  1  0  0  0
 26 25  1  0  0  0
 29 30  1  0  0  0
 29 25  1  0  0  0
 27 22  1  0  0  0
 25 24  1  0  0  0
 19 18  2  0  0  0
 19 20  1  0  0  0
 18 17  1  0  0  0
 22 20  1  0  0  0
 22 23  1  0  0  0
 24 23  1  0  0  0
 20 21  2  0  0  0
 17 16  2  0  0  0
 21 16  1  0  0  0
 16  1  1  0  0  0
  1  5  1  0  0  0
  5  6  2  0  0  0
  5 11  1  0  0  0
  6  7  1  0  0  0
 15 13  1  0  0  0
 13 14  1  0  0  0
 13 12  1  0  0  0
 11  4  2  0  0  0
  7 12  1  0  0  0
  7  3  2  0  0  0
 12 10  1  0  0  0
  4  3  1  0  0  0
  3  8  1  0  0  0
 10  8  2  0  0  0
 10  9  1  0  0  0
  1  2  1  0  0  0
M  END
> <minimizedAffinity>
-7.72241

$$$$
5CAQ_4ZJ_A_1102


 30 33  0  0  0  0  0  0  0  0999 V2000
  -52.6023    0.2457  -24.8493 N   0  0  0  0  0  0  0  0  0  0  0  0
  -52.6793    1.0098  -25.4654 H   0  0  0  0  0  0  0  0  0  0  0  0
  -52.8947    1.2541  -20.8144 C   0  0  0  0  0  0  0  0  0  0  0  0
  -53.7967    1.7046  -21.7824 C   0  0  0  0  0  0  0  0  0  0  0  0
  -52.6835    0.5362  -23.4793 C   0  0  0  0  0  0  0  0  0  0  0  0
  -51.7170    0.0948  -22.5863 C   0  0  0  0  0  0  0  0  0  0  0  0
  -51.8273    0.4334  -21.2371 C   0  0  0  0  0  0  0  0  0  0  0  0
  -52.7372    1.4315  -19.4758 N   0  0  0  0  0  0  0  0  0  0  0  0
  -51.2639    0.8262  -17.6032 C   0  0  0  0  0  0  0  0  0  0  0  0
  -51.6726    0.8065  -19.0561 C   0  0  0  0  0  0  0  0  0  0  0  0
  -53.6750    1.3207  -23.0489 N   0  0  0  0  0  0  0  0  0  0  0  0
  -51.0721    0.1577  -20.1219 N   0  0  0  0  0  0  0  0  0  0  0  0
  -49.8723   -0.6865  -20.2303 C   0  0  0  0  0  0  0  0  0  0  0  0
  -48.8036   -0.1470  -21.1855 C   0  0  0  0  0  0  0  0  0  0  0  0
  -50.1195   -2.1901  -20.2070 C   0  0  0  0  0  0  0  0  0  0  0  0
  -52.4243   -1.0075  -25.4327 C   0  0  0  0  0  0  0  0  0  0  0  0
  -53.1143   -1.3240  -26.6170 C   0  0  0  0  0  0  0  0  0  0  0  0
  -52.9230   -2.5750  -27.1871 C   0  0  0  0  0  0  0  0  0  0  0  0
  -52.0958   -3.4319  -26.5903 N   0  0  0  0  0  0  0  0  0  0  0  0
  -51.4538   -3.1300  -25.4522 C   0  0  0  0  0  0  0  0  0  0  0  0
  -51.6060   -1.9210  -24.9012 N   0  0  0  0  0  0  0  0  0  0  0  0
  -50.5960   -4.0541  -24.8523 N   0  0  0  0  0  0  0  0  0  0  0  0
  -51.1364   -5.0772  -23.9157 C   0  0  0  0  0  0  0  0  0  0  0  0
  -50.3151   -5.1022  -22.6133 C   0  0  0  0  0  0  0  0  0  0  0  0
  -48.8196   -5.2813  -22.9631 C   0  0  0  0  0  0  0  0  0  0  0  0
  -48.3301   -4.0961  -23.8189 C   0  0  0  0  0  0  0  0  0  0  0  0
  -49.1327   -4.0050  -25.1196 C   0  0  0  0  0  0  0  0  0  0  0  0
  -48.6190   -2.9156  -23.1331 F   0  0  0  0  0  0  0  0  0  0  0  0
  -48.0368   -5.3373  -21.7628 O   0  0  0  0  0  0  0  0  0  0  0  0
  -46.6257   -5.4308  -21.9616 C   0  0  0  0  0  0  0  0  0  0  0  0
 28 26  1  0  0  0
 26 27  1  0  0  0
 26 25  1  0  0  0
 29 30  1  0  0  0
 29 25  1  0  0  0
 27 22  1  0  0  0
 25 24  1  0  0  0
 19 18  2  0  0  0
 19 20  1  0  0  0
 18 17  1  0  0  0
 22 20  1  0  0  0
 22 23  1  0  0  0
 24 23  1  0  0  0
 20 21  2  0  0  0
 17 16  2  0  0  0
 21 16  1  0  0  0
 16  1  1  0  0  0
  1  5  1  0  0  0
  5  6  2  0  0  0
  5 11  1  0  0  0
  6  7  1  0  0  0
 15 13  1  0  0  0
 13 14  1  0  0  0
 13 12  1  0  0  0
 11  4  2  0  0  0
  7 12  1  0  0  0
  7  3  2  0  0  0
 12 10  1  0  0  0
  4  3  1  0  0  0
  3  8  1  0  0  0
 10  8  2  0  0  0
 10  9  1  0  0  0
  1  2  1  0  0  0
M  END
> <minimizedAffinity>
-7.44655

$$$$
5CAQ_4ZJ_A_1102


 30 33  0  0  0  0  0  0  0  0999 V2000
  -52.8565   -1.9927  -26.1812 N   0  0  0  0  0  0  0  0  0  0  0  0
  -53.5297   -2.4563  -26.7300 H   0  0  0  0  0  0  0  0  0  0  0  0
  -49.0016   -3.5625  -26.4222 C   0  0  0  0  0  0  0  0  0  0  0  0
  -49.5205   -2.6627  -27.3574 C   0  0  0  0  0  0  0  0  0  0  0  0
  -51.5565   -2.5190  -26.2092 C   0  0  0  0  0  0  0  0  0  0  0  0
  -51.1315   -3.4510  -25.2725 C   0  0  0  0  0  0  0  0  0  0  0  0
  -49.8375   -3.9660  -25.3592 C   0  0  0  0  0  0  0  0  0  0  0  0
  -47.8281   -4.2305  -26.2641 N   0  0  0  0  0  0  0  0  0  0  0  0
  -46.7084   -5.8557  -24.7983 C   0  0  0  0  0  0  0  0  0  0  0  0
  -47.8826   -5.0042  -25.2160 C   0  0  0  0  0  0  0  0  0  0  0  0
  -50.7445   -2.1667  -27.2094 N   0  0  0  0  0  0  0  0  0  0  0  0
  -49.1196   -4.8671  -24.6091 N   0  0  0  0  0  0  0  0  0  0  0  0
  -49.7198   -5.4799  -23.4139 C   0  0  0  0  0  0  0  0  0  0  0  0
  -49.1916   -4.9272  -22.0869 C   0  0  0  0  0  0  0  0  0  0  0  0
  -49.9966   -6.9756  -23.5080 C   0  0  0  0  0  0  0  0  0  0  0  0
  -53.2983   -0.8846  -25.4604 C   0  0  0  0  0  0  0  0  0  0  0  0
  -54.4018   -0.1490  -25.9294 C   0  0  0  0  0  0  0  0  0  0  0  0
  -54.8313    0.9496  -25.1978 C   0  0  0  0  0  0  0  0  0  0  0  0
  -54.1811    1.2696  -24.0800 N   0  0  0  0  0  0  0  0  0  0  0  0
  -53.1193    0.5739  -23.6472 C   0  0  0  0  0  0  0  0  0  0  0  0
  -52.7057   -0.5022  -24.3250 N   0  0  0  0  0  0  0  0  0  0  0  0
  -52.4597    0.9396  -22.4721 N   0  0  0  0  0  0  0  0  0  0  0  0
  -51.1083    0.3920  -22.1721 C   0  0  0  0  0  0  0  0  0  0  0  0
  -51.0613   -0.1705  -20.7393 C   0  0  0  0  0  0  0  0  0  0  0  0
  -51.5436    0.9187  -19.7534 C   0  0  0  0  0  0  0  0  0  0  0  0
  -53.0006    1.3114  -20.0693 C   0  0  0  0  0  0  0  0  0  0  0  0
  -53.1133    1.8542  -21.4966 C   0  0  0  0  0  0  0  0  0  0  0  0
  -53.7754    0.1508  -20.0624 F   0  0  0  0  0  0  0  0  0  0  0  0
  -51.4804    0.4271  -18.4077 O   0  0  0  0  0  0  0  0  0  0  0  0
  -52.0920    1.2644  -17.4258 C   0  0  0  0  0  0  0  0  0  0  0  0
 28 26  1  0  0  0
 26 27  1  0  0  0
 26 25  1  0  0  0
 29 30  1  0  0  0
 29 25  1  0  0  0
 27 22  1  0  0  0
 25 24  1  0  0  0
 19 18  2  0  0  0
 19 20  1  0  0  0
 18 17  1  0  0  0
 22 20  1  0  0  0
 22 23  1  0  0  0
 24 23  1  0  0  0
 20 21  2  0  0  0
 17 16  2  0  0  0
 21 16  1  0  0  0
 16  1  1  0  0  0
  1  5  1  0  0  0
  5  6  2  0  0  0
  5 11  1  0  0  0
  6  7  1  0  0  0
 15 13  1  0  0  0
 13 14  1  0  0  0
 13 12  1  0  0  0
 11  4  2  0  0  0
  7 12  1  0  0  0
  7  3  2  0  0  0
 12 10  1  0  0  0
  4  3  1  0  0  0
  3  8  1  0  0  0
 10  8  2  0  0  0
 10  9  1  0  0  0
  1  2  1  0  0  0
M  END
> <minimizedAffinity>
-7.39351

$$$$
5CAQ_4ZJ_A_1102


 30 33  0  0  0  0  0  0  0  0999 V2000
  -53.5365    1.7519  -23.2615 N   0  0  0  0  0  0  0  0  0  0  0  0
  -53.9415    2.6111  -23.5206 H   0  0  0  0  0  0  0  0  0  0  0  0
  -52.4227    1.5177  -19.2506 C   0  0  0  0  0  0  0  0  0  0  0  0
  -53.4512    2.3444  -19.7115 C   0  0  0  0  0  0  0  0  0  0  0  0
  -53.1524    1.6212  -21.9187 C   0  0  0  0  0  0  0  0  0  0  0  0
  -52.0836    0.8181  -21.5454 C   0  0  0  0  0  0  0  0  0  0  0  0
  -51.7225    0.7427  -20.1996 C   0  0  0  0  0  0  0  0  0  0  0  0
  -51.8488    1.2611  -18.0452 N   0  0  0  0  0  0  0  0  0  0  0  0
  -50.0565   -0.0541  -16.9956 C   0  0  0  0  0  0  0  0  0  0  0  0
  -50.8649    0.4162  -18.1803 C   0  0  0  0  0  0  0  0  0  0  0  0
  -53.7870    2.3506  -20.9973 N   0  0  0  0  0  0  0  0  0  0  0  0
  -50.7514    0.0542  -19.5120 N   0  0  0  0  0  0  0  0  0  0  0  0
  -49.8412   -0.8542  -20.2266 C   0  0  0  0  0  0  0  0  0  0  0  0
  -48.8902   -0.1567  -21.2036 C   0  0  0  0  0  0  0  0  0  0  0  0
  -50.4373   -2.1944  -20.6401 C   0  0  0  0  0  0  0  0  0  0  0  0
  -53.4070    0.7971  -24.2686 C   0  0  0  0  0  0  0  0  0  0  0  0
  -54.5116    0.5007  -25.0876 C   0  0  0  0  0  0  0  0  0  0  0  0
  -54.3646   -0.4499  -26.0882 C   0  0  0  0  0  0  0  0  0  0  0  0
  -53.1842   -1.0496  -26.2346 N   0  0  0  0  0  0  0  0  0  0  0  0
  -52.1397   -0.7744  -25.4396 C   0  0  0  0  0  0  0  0  0  0  0  0
  -52.2544    0.1561  -24.4860 N   0  0  0  0  0  0  0  0  0  0  0  0
  -50.9172   -1.4246  -25.6199 N   0  0  0  0  0  0  0  0  0  0  0  0
  -50.2415   -1.3915  -26.9459 C   0  0  0  0  0  0  0  0  0  0  0  0
  -49.8252   -2.8111  -27.3737 C   0  0  0  0  0  0  0  0  0  0  0  0
  -48.9869   -3.4532  -26.2442 C   0  0  0  0  0  0  0  0  0  0  0  0
  -49.8290   -3.5650  -24.9576 C   0  0  0  0  0  0  0  0  0  0  0  0
  -50.2954   -2.1807  -24.4988 C   0  0  0  0  0  0  0  0  0  0  0  0
  -51.0012   -4.2576  -25.2636 F   0  0  0  0  0  0  0  0  0  0  0  0
  -48.5623   -4.7667  -26.6325 O   0  0  0  0  0  0  0  0  0  0  0  0
  -47.6938   -4.8143  -27.7652 C   0  0  0  0  0  0  0  0  0  0  0  0
 28 26  1  0  0  0
 26 27  1  0  0  0
 26 25  1  0  0  0
 29 30  1  0  0  0
 29 25  1  0  0  0
 27 22  1  0  0  0
 25 24  1  0  0  0
 19 18  2  0  0  0
 19 20  1  0  0  0
 18 17  1  0  0  0
 22 20  1  0  0  0
 22 23  1  0  0  0
 24 23  1  0  0  0
 20 21  2  0  0  0
 17 16  2  0  0  0
 21 16  1  0  0  0
 16  1  1  0  0  0
  1  5  1  0  0  0
  5  6  2  0  0  0
  5 11  1  0  0  0
  6  7  1  0  0  0
 15 13  1  0  0  0
 13 14  1  0  0  0
 13 12  1  0  0  0
 11  4  2  0  0  0
  7 12  1  0  0  0
  7  3  2  0  0  0
 12 10  1  0  0  0
  4  3  1  0  0  0
  3  8  1  0  0  0
 10  8  2  0  0  0
 10  9  1  0  0  0
  1  2  1  0  0  0
M  END
> <minimizedAffinity>
-7.35634

$$$$
5CAQ_4ZJ_A_1102


 30 33  0  0  0  0  0  0  0  0999 V2000
  -52.7341    0.1933  -24.8667 N   0  0  0  0  0  0  0  0  0  0  0  0
  -53.0724    0.8738  -25.4926 H   0  0  0  0  0  0  0  0  0  0  0  0
  -52.9396    1.2995  -20.8521 C   0  0  0  0  0  0  0  0  0  0  0  0
  -53.8394    1.7577  -21.8184 C   0  0  0  0  0  0  0  0  0  0  0  0
  -52.7875    0.5165  -23.5027 C   0  0  0  0  0  0  0  0  0  0  0  0
  -51.8238    0.0635  -22.6123 C   0  0  0  0  0  0  0  0  0  0  0  0
  -51.9050    0.4353  -21.2697 C   0  0  0  0  0  0  0  0  0  0  0  0
  -52.7585    1.5011  -19.5200 N   0  0  0  0  0  0  0  0  0  0  0  0
  -51.2805    0.8895  -17.6531 C   0  0  0  0  0  0  0  0  0  0  0  0
  -51.7091    0.8511  -19.0999 C   0  0  0  0  0  0  0  0  0  0  0  0
  -53.7472    1.3422  -23.0774 N   0  0  0  0  0  0  0  0  0  0  0  0
  -51.1443    0.1598  -20.1583 N   0  0  0  0  0  0  0  0  0  0  0  0
  -49.9739   -0.7254  -20.2629 C   0  0  0  0  0  0  0  0  0  0  0  0
  -48.8489   -0.1841  -21.1500 C   0  0  0  0  0  0  0  0  0  0  0  0
  -50.2786   -2.2174  -20.3224 C   0  0  0  0  0  0  0  0  0  0  0  0
  -52.2539   -0.9868  -25.4318 C   0  0  0  0  0  0  0  0  0  0  0  0
  -53.0632   -1.7021  -26.3329 C   0  0  0  0  0  0  0  0  0  0  0  0
  -52.5685   -2.8735  -26.8895 C   0  0  0  0  0  0  0  0  0  0  0  0
  -51.3467   -3.2797  -26.5477 N   0  0  0  0  0  0  0  0  0  0  0  0
  -50.5867   -2.6018  -25.6751 C   0  0  0  0  0  0  0  0  0  0  0  0
  -51.0360   -1.4582  -25.1471 N   0  0  0  0  0  0  0  0  0  0  0  0
  -49.3111   -3.0587  -25.3373 N   0  0  0  0  0  0  0  0  0  0  0  0
  -48.6510   -4.1087  -26.1605 C   0  0  0  0  0  0  0  0  0  0  0  0
  -48.1097   -5.2361  -25.2620 C   0  0  0  0  0  0  0  0  0  0  0  0
  -47.2078   -4.6202  -24.1674 C   0  0  0  0  0  0  0  0  0  0  0  0
  -48.0266   -3.6542  -23.2880 C   0  0  0  0  0  0  0  0  0  0  0  0
  -48.6145   -2.5230  -24.1361 C   0  0  0  0  0  0  0  0  0  0  0  0
  -49.1326   -4.3470  -22.7940 F   0  0  0  0  0  0  0  0  0  0  0  0
  -46.6675   -5.6553  -23.3350 O   0  0  0  0  0  0  0  0  0  0  0  0
  -46.8373   -6.9839  -23.8305 C   0  0  0  0  0  0  0  0  0  0  0  0
 28 26  1  0  0  0
 26 27  1  0  0  0
 26 25  1  0  0  0
 29 30  1  0  0  0
 29 25  1  0  0  0
 27 22  1  0  0  0
 25 24  1  0  0  0
 19 18  2  0  0  0
 19 20  1  0  0  0
 18 17  1  0  0  0
 22 20  1  0  0  0
 22 23  1  0  0  0
 24 23  1  0  0  0
 20 21  2  0  0  0
 17 16  2  0  0  0
 21 16  1  0  0  0
 16  1  1  0  0  0
  1  5  1  0  0  0
  5  6  2  0  0  0
  5 11  1  0  0  0
  6  7  1  0  0  0
 15 13  1  0  0  0
 13 14  1  0  0  0
 13 12  1  0  0  0
 11  4  2  0  0  0
  7 12  1  0  0  0
  7  3  2  0  0  0
 12 10  1  0  0  0
  4  3  1  0  0  0
  3  8  1  0  0  0
 10  8  2  0  0  0
 10  9  1  0  0  0
  1  2  1  0  0  0
M  END
> <minimizedAffinity>
-7.26017

$$$$
5CAQ_4ZJ_A_1102


 30 33  0  0  0  0  0  0  0  0999 V2000
  -51.1877   -0.4266  -19.4791 N   0  0  0  0  0  0  0  0  0  0  0  0
  -50.9445   -0.0142  -18.6189 H   0  0  0  0  0  0  0  0  0  0  0  0
  -49.7613   -4.3100  -19.9968 C   0  0  0  0  0  0  0  0  0  0  0  0
  -50.5928   -3.9357  -18.9375 C   0  0  0  0  0  0  0  0  0  0  0  0
  -50.7124   -1.7268  -19.7059 C   0  0  0  0  0  0  0  0  0  0  0  0
  -49.8452   -2.0093  -20.7522 C   0  0  0  0  0  0  0  0  0  0  0  0
  -49.3780   -3.3135  -20.9197 C   0  0  0  0  0  0  0  0  0  0  0  0
  -49.1488   -5.4573  -20.3926 N   0  0  0  0  0  0  0  0  0  0  0  0
  -47.6432   -6.3518  -22.1179 C   0  0  0  0  0  0  0  0  0  0  0  0
  -48.4261   -5.2436  -21.4566 C   0  0  0  0  0  0  0  0  0  0  0  0
  -51.0468   -2.6903  -18.8435 N   0  0  0  0  0  0  0  0  0  0  0  0
  -48.5440   -3.9159  -21.8315 N   0  0  0  0  0  0  0  0  0  0  0  0
  -47.9676   -3.1346  -22.9367 C   0  0  0  0  0  0  0  0  0  0  0  0
  -46.9802   -2.0498  -22.4967 C   0  0  0  0  0  0  0  0  0  0  0  0
  -48.9177   -2.8159  -24.0848 C   0  0  0  0  0  0  0  0  0  0  0  0
  -51.9669    0.3445  -20.3398 C   0  0  0  0  0  0  0  0  0  0  0  0
  -52.7408    1.3966  -19.8175 C   0  0  0  0  0  0  0  0  0  0  0  0
  -53.5082    2.1572  -20.6888 C   0  0  0  0  0  0  0  0  0  0  0  0
  -53.4869    1.8612  -21.9874 N   0  0  0  0  0  0  0  0  0  0  0  0
  -52.7597    0.8462  -22.4768 C   0  0  0  0  0  0  0  0  0  0  0  0
  -51.9948    0.1176  -21.6568 N   0  0  0  0  0  0  0  0  0  0  0  0
  -52.7633    0.5624  -23.8440 N   0  0  0  0  0  0  0  0  0  0  0  0
  -53.9218    0.9649  -24.6879 C   0  0  0  0  0  0  0  0  0  0  0  0
  -54.4021   -0.2216  -25.5441 C   0  0  0  0  0  0  0  0  0  0  0  0
  -53.2020   -0.7919  -26.3349 C   0  0  0  0  0  0  0  0  0  0  0  0
  -52.1225   -1.3059  -25.3616 C   0  0  0  0  0  0  0  0  0  0  0  0
  -51.6252   -0.1705  -24.4626 C   0  0  0  0  0  0  0  0  0  0  0  0
  -52.7198   -2.2193  -24.4921 F   0  0  0  0  0  0  0  0  0  0  0  0
  -53.6314   -1.8808  -27.1634 O   0  0  0  0  0  0  0  0  0  0  0  0
  -53.1121   -1.8734  -28.4937 C   0  0  0  0  0  0  0  0  0  0  0  0
 28 26  1  0  0  0
 26 27  1  0  0  0
 26 25  1  0  0  0
 29 30  1  0  0  0
 29 25  1  0  0  0
 27 22  1  0  0  0
 25 24  1  0  0  0
 19 18  2  0  0  0
 19 20  1  0  0  0
 18 17  1  0  0  0
 22 20  1  0  0  0
 22 23  1  0  0  0
 24 23  1  0  0  0
 20 21  2  0  0  0
 17 16  2  0  0  0
 21 16  1  0  0  0
 16  1  1  0  0  0
  1  5  1  0  0  0
  5  6  2  0  0  0
  5 11  1  0  0  0
  6  7  1  0  0  0
 15 13  1  0  0  0
 13 14  1  0  0  0
 13 12  1  0  0  0
 11  4  2  0  0  0
  7 12  1  0  0  0
  7  3  2  0  0  0
 12 10  1  0  0  0
  4  3  1  0  0  0
  3  8  1  0  0  0
 10  8  2  0  0  0
 10  9  1  0  0  0
  1  2  1  0  0  0
M  END
> <minimizedAffinity>
-7.25361

$$$$
5CAQ_4ZJ_A_1102


 30 33  0  0  0  0  0  0  0  0999 V2000
  -48.7248   -3.1715  -27.4994 N   0  0  0  0  0  0  0  0  0  0  0  0
  -48.1204   -2.6721  -28.0949 H   0  0  0  0  0  0  0  0  0  0  0  0
  -52.6760   -1.8409  -27.5056 C   0  0  0  0  0  0  0  0  0  0  0  0
  -52.1137   -2.5715  -28.5560 C   0  0  0  0  0  0  0  0  0  0  0  0
  -50.0563   -2.7330  -27.4492 C   0  0  0  0  0  0  0  0  0  0  0  0
  -50.5270   -1.9646  -26.3934 C   0  0  0  0  0  0  0  0  0  0  0  0
  -51.8526   -1.5289  -26.4027 C   0  0  0  0  0  0  0  0  0  0  0  0
  -53.8877   -1.2789  -27.2525 N   0  0  0  0  0  0  0  0  0  0  0  0
  -55.0886    0.0586  -25.5753 C   0  0  0  0  0  0  0  0  0  0  0  0
  -53.8681   -0.6502  -26.1103 C   0  0  0  0  0  0  0  0  0  0  0  0
  -50.8582   -3.0012  -28.4830 N   0  0  0  0  0  0  0  0  0  0  0  0
  -52.6161   -0.7854  -25.5343 N   0  0  0  0  0  0  0  0  0  0  0  0
  -52.0395   -0.2996  -24.2711 C   0  0  0  0  0  0  0  0  0  0  0  0
  -51.8460   -1.3832  -23.2063 C   0  0  0  0  0  0  0  0  0  0  0  0
  -52.5122    1.0759  -23.8163 C   0  0  0  0  0  0  0  0  0  0  0  0
  -48.1649   -4.2376  -26.7977 C   0  0  0  0  0  0  0  0  0  0  0  0
  -47.2759   -5.1078  -27.4543 C   0  0  0  0  0  0  0  0  0  0  0  0
  -46.7242   -6.1623  -26.7400 C   0  0  0  0  0  0  0  0  0  0  0  0
  -47.0592   -6.3143  -25.4596 N   0  0  0  0  0  0  0  0  0  0  0  0
  -47.9204   -5.4908  -24.8440 C   0  0  0  0  0  0  0  0  0  0  0  0
  -48.4432   -4.4547  -25.5085 N   0  0  0  0  0  0  0  0  0  0  0  0
  -48.2512   -5.6817  -23.5010 N   0  0  0  0  0  0  0  0  0  0  0  0
  -49.5903   -6.2155  -23.1296 C   0  0  0  0  0  0  0  0  0  0  0  0
  -50.2363   -5.3390  -22.0406 C   0  0  0  0  0  0  0  0  0  0  0  0
  -49.2524   -5.1988  -20.8560 C   0  0  0  0  0  0  0  0  0  0  0  0
  -47.9554   -4.5088  -21.3236 C   0  0  0  0  0  0  0  0  0  0  0  0
  -47.2814   -5.3251  -22.4299 C   0  0  0  0  0  0  0  0  0  0  0  0
  -48.2995   -3.2985  -21.9268 F   0  0  0  0  0  0  0  0  0  0  0  0
  -49.8446   -4.4098  -19.8152 O   0  0  0  0  0  0  0  0  0  0  0  0
  -51.0265   -3.7004  -20.1885 C   0  0  0  0  0  0  0  0  0  0  0  0
 28 26  1  0  0  0
 26 27  1  0  0  0
 26 25  1  0  0  0
 29 30  1  0  0  0
 29 25  1  0  0  0
 27 22  1  0  0  0
 25 24  1  0  0  0
 19 18  2  0  0  0
 19 20  1  0  0  0
 18 17  1  0  0  0
 22 20  1  0  0  0
 22 23  1  0  0  0
 24 23  1  0  0  0
 20 21  2  0  0  0
 17 16  2  0  0  0
 21 16  1  0  0  0
 16  1  1  0  0  0
  1  5  1  0  0  0
  5  6  2  0  0  0
  5 11  1  0  0  0
  6  7  1  0  0  0
 15 13  1  0  0  0
 13 14  1  0  0  0
 13 12  1  0  0  0
 11  4  2  0  0  0
  7 12  1  0  0  0
  7  3  2  0  0  0
 12 10  1  0  0  0
  4  3  1  0  0  0
  3  8  1  0  0  0
 10  8  2  0  0  0
 10  9  1  0  0  0
  1  2  1  0  0  0
M  END
> <minimizedAffinity>
-7.18490

$$$$
5CAQ_4ZJ_A_1102


 30 33  0  0  0  0  0  0  0  0999 V2000
  -50.4697   -5.6878  -21.1971 N   0  0  0  0  0  0  0  0  0  0  0  0
  -50.8041   -6.5449  -20.8465 H   0  0  0  0  0  0  0  0  0  0  0  0
  -49.9154   -2.7429  -18.2983 C   0  0  0  0  0  0  0  0  0  0  0  0
  -49.4319   -4.0475  -18.1651 C   0  0  0  0  0  0  0  0  0  0  0  0
  -50.2780   -4.6611  -20.2607 C   0  0  0  0  0  0  0  0  0  0  0  0
  -50.8361   -3.4029  -20.4401 C   0  0  0  0  0  0  0  0  0  0  0  0
  -50.6399   -2.4229  -19.4663 C   0  0  0  0  0  0  0  0  0  0  0  0
  -49.9021   -1.6190  -17.5336 N   0  0  0  0  0  0  0  0  0  0  0  0
  -50.6932    0.7084  -17.4994 C   0  0  0  0  0  0  0  0  0  0  0  0
  -50.5581   -0.6592  -18.1239 C   0  0  0  0  0  0  0  0  0  0  0  0
  -49.6072   -4.9349  -19.1387 N   0  0  0  0  0  0  0  0  0  0  0  0
  -51.0326   -1.1112  -19.3436 N   0  0  0  0  0  0  0  0  0  0  0  0
  -51.8157   -0.4698  -20.4112 C   0  0  0  0  0  0  0  0  0  0  0  0
  -51.0279    0.5352  -21.2567 C   0  0  0  0  0  0  0  0  0  0  0  0
  -53.2597   -0.1336  -20.0588 C   0  0  0  0  0  0  0  0  0  0  0  0
  -50.2381   -5.6259  -22.5701 C   0  0  0  0  0  0  0  0  0  0  0  0
  -49.5668   -6.6853  -23.2072 C   0  0  0  0  0  0  0  0  0  0  0  0
  -49.3475   -6.6096  -24.5757 C   0  0  0  0  0  0  0  0  0  0  0  0
  -49.7773   -5.5353  -25.2356 N   0  0  0  0  0  0  0  0  0  0  0  0
  -50.4020   -4.5210  -24.6194 C   0  0  0  0  0  0  0  0  0  0  0  0
  -50.6445   -4.5866  -23.3058 N   0  0  0  0  0  0  0  0  0  0  0  0
  -50.8368   -3.4084  -25.3423 N   0  0  0  0  0  0  0  0  0  0  0  0
  -52.2928   -3.1376  -25.4935 C   0  0  0  0  0  0  0  0  0  0  0  0
  -52.6416   -2.8775  -26.9708 C   0  0  0  0  0  0  0  0  0  0  0  0
  -51.7228   -1.7603  -27.5171 C   0  0  0  0  0  0  0  0  0  0  0  0
  -50.2479   -2.2027  -27.4408 C   0  0  0  0  0  0  0  0  0  0  0  0
  -49.8512   -2.5024  -25.9926 C   0  0  0  0  0  0  0  0  0  0  0  0
  -50.1242   -3.4217  -28.1086 F   0  0  0  0  0  0  0  0  0  0  0  0
  -52.0495   -1.4796  -28.8849 O   0  0  0  0  0  0  0  0  0  0  0  0
  -53.4214   -1.6696  -29.2332 C   0  0  0  0  0  0  0  0  0  0  0  0
 28 26  1  0  0  0
 26 27  1  0  0  0
 26 25  1  0  0  0
 29 30  1  0  0  0
 29 25  1  0  0  0
 27 22  1  0  0  0
 25 24  1  0  0  0
 19 18  2  0  0  0
 19 20  1  0  0  0
 18 17  1  0  0  0
 22 20  1  0  0  0
 22 23  1  0  0  0
 24 23  1  0  0  0
 20 21  2  0  0  0
 17 16  2  0  0  0
 21 16  1  0  0  0
 16  1  1  0  0  0
  1  5  1  0  0  0
  5  6  2  0  0  0
  5 11  1  0  0  0
  6  7  1  0  0  0
 15 13  1  0  0  0
 13 14  1  0  0  0
 13 12  1  0  0  0
 11  4  2  0  0  0
  7 12  1  0  0  0
  7  3  2  0  0  0
 12 10  1  0  0  0
  4  3  1  0  0  0
  3  8  1  0  0  0
 10  8  2  0  0  0
 10  9  1  0  0  0
  1  2  1  0  0  0
M  END
> <minimizedAffinity>
-7.03215

$$$$
5CAQ_4ZJ_A_1102


 30 33  0  0  0  0  0  0  0  0999 V2000
  -51.7227   -3.7537  -24.9534 N   0  0  0  0  0  0  0  0  0  0  0  0
  -52.4093   -4.3816  -25.2754 H   0  0  0  0  0  0  0  0  0  0  0  0
  -47.9395   -5.4085  -24.3773 C   0  0  0  0  0  0  0  0  0  0  0  0
  -48.3677   -4.8873  -25.6015 C   0  0  0  0  0  0  0  0  0  0  0  0
  -50.4494   -4.2899  -24.7106 C   0  0  0  0  0  0  0  0  0  0  0  0
  -50.1165   -4.8380  -23.4796 C   0  0  0  0  0  0  0  0  0  0  0  0
  -48.8457   -5.3844  -23.2958 C   0  0  0  0  0  0  0  0  0  0  0  0
  -46.8085   -6.0073  -23.9186 N   0  0  0  0  0  0  0  0  0  0  0  0
  -45.8419   -7.0330  -21.9043 C   0  0  0  0  0  0  0  0  0  0  0  0
  -46.9520   -6.3552  -22.6703 C   0  0  0  0  0  0  0  0  0  0  0  0
  -49.5726   -4.3387  -25.7169 N   0  0  0  0  0  0  0  0  0  0  0  0
  -48.2099   -5.9780  -22.2312 N   0  0  0  0  0  0  0  0  0  0  0  0
  -48.8975   -6.1086  -20.9372 C   0  0  0  0  0  0  0  0  0  0  0  0
  -48.3530   -5.1936  -19.8365 C   0  0  0  0  0  0  0  0  0  0  0  0
  -49.3154   -7.5227  -20.5522 C   0  0  0  0  0  0  0  0  0  0  0  0
  -52.1211   -2.4284  -24.7883 C   0  0  0  0  0  0  0  0  0  0  0  0
  -52.8491   -1.7919  -25.8099 C   0  0  0  0  0  0  0  0  0  0  0  0
  -53.2413   -0.4730  -25.6279 C   0  0  0  0  0  0  0  0  0  0  0  0
  -52.9114    0.1435  -24.4941 N   0  0  0  0  0  0  0  0  0  0  0  0
  -52.2028   -0.4638  -23.5309 C   0  0  0  0  0  0  0  0  0  0  0  0
  -51.8370   -1.7418  -23.6771 N   0  0  0  0  0  0  0  0  0  0  0  0
  -51.8720    0.2141  -22.3558 N   0  0  0  0  0  0  0  0  0  0  0  0
  -50.5737   -0.0538  -21.6786 C   0  0  0  0  0  0  0  0  0  0  0  0
  -50.7942   -0.3212  -20.1781 C   0  0  0  0  0  0  0  0  0  0  0  0
  -51.6035    0.8481  -19.5707 C   0  0  0  0  0  0  0  0  0  0  0  0
  -52.9836    0.9465  -20.2506 C   0  0  0  0  0  0  0  0  0  0  0  0
  -52.8257    1.1858  -21.7547 C   0  0  0  0  0  0  0  0  0  0  0  0
  -53.6096   -0.2963  -20.1466 F   0  0  0  0  0  0  0  0  0  0  0  0
  -51.7961    0.6355  -18.1656 O   0  0  0  0  0  0  0  0  0  0  0  0
  -52.5158    1.6665  -17.4883 C   0  0  0  0  0  0  0  0  0  0  0  0
 28 26  1  0  0  0
 26 27  1  0  0  0
 26 25  1  0  0  0
 29 30  1  0  0  0
 29 25  1  0  0  0
 27 22  1  0  0  0
 25 24  1  0  0  0
 19 18  2  0  0  0
 19 20  1  0  0  0
 18 17  1  0  0  0
 22 20  1  0  0  0
 22 23  1  0  0  0
 24 23  1  0  0  0
 20 21  2  0  0  0
 17 16  2  0  0  0
 21 16  1  0  0  0
 16  1  1  0  0  0
  1  5  1  0  0  0
  5  6  2  0  0  0
  5 11  1  0  0  0
  6  7  1  0  0  0
 15 13  1  0  0  0
 13 14  1  0  0  0
 13 12  1  0  0  0
 11  4  2  0  0  0
  7 12  1  0  0  0
  7  3  2  0  0  0
 12 10  1  0  0  0
  4  3  1  0  0  0
  3  8  1  0  0  0
 10  8  2  0  0  0
 10  9  1  0  0  0
  1  2  1  0  0  0
M  END
> <minimizedAffinity>
-6.92542

$$$$
