2C92_TP6_A_701


 39 40  0  0  0  0  0  0  0  0999 V2000
  -22.7503    0.7800    4.4571 N   0  0  0  0  0  0  0  0  0  0  0  0
  -23.1222   -0.4197    4.9245 C   0  0  0  0  0  0  0  0  0  0  0  0
  -22.7151   -1.7949    4.5892 C   0  0  0  0  0  0  0  0  0  0  0  0
  -21.8707   -2.0295    3.7098 O   0  0  0  0  0  0  0  0  0  0  0  0
  -23.3130   -2.8014    5.2694 N   0  0  0  0  0  0  0  0  0  0  0  0
  -23.4780    1.6151    5.1837 C   0  0  0  0  0  0  0  0  0  0  0  0
  -23.4324    2.8864    5.0561 O   0  0  0  0  0  0  0  0  0  0  0  0
  -24.2843    1.0735    6.0921 N   0  0  0  0  0  0  0  0  0  0  0  0
  -24.1331   -0.2367    5.9758 C   0  0  0  0  0  0  0  0  0  0  0  0
  -24.6544   -1.3326    6.5754 N   0  0  0  0  0  0  0  0  0  0  0  0
  -24.2414   -2.5691    6.2393 C   0  0  0  0  0  0  0  0  0  0  0  0
  -24.7484   -3.5368    6.8173 O   0  0  0  0  0  0  0  0  0  0  0  0
  -23.0691   -3.7311    5.0563 H   0  0  0  0  0  0  0  0  0  0  0  0
  -25.3459   -1.2238    7.2677 H   0  0  0  0  0  0  0  0  0  0  0  0
  -21.7596    1.1168    3.4387 C   0  0  0  0  0  0  0  0  0  0  0  0
  -20.4838    1.2095    4.2310 C   0  0  0  0  0  0  0  0  0  0  0  0
  -19.3642    0.5853    3.8817 C   0  0  0  0  0  0  0  0  0  0  0  0
  -18.5944    0.9513    2.7002 C   0  0  0  0  0  0  0  0  0  0  0  0
  -18.4659    2.2449    2.4287 C   0  0  0  0  0  0  0  0  0  0  0  0
  -19.3038    2.8038    1.3824 O   0  0  0  0  0  0  0  0  0  0  0  0
  -17.3428    3.9181    0.4938 O   0  0  0  0  0  0  0  0  0  0  0  0
  -18.8300    4.1777    0.6963 P   0  0  0  0  0  0  0  0  0  0  0  0
  -19.0937    5.2987    1.6788 O   0  0  0  0  0  0  0  0  0  0  0  0
  -19.6374    4.3219   -0.5593 O   0  0  0  0  0  0  0  0  0  0  0  0
  -16.9332    4.6924    0.0771 H   0  0  0  0  0  0  0  0  0  0  0  0
  -18.8160    6.1424    1.2889 H   0  0  0  0  0  0  0  0  0  0  0  0
  -25.1631    1.8669    6.9280 C   0  0  0  0  0  0  0  0  0  0  0  0
  -24.5748    2.4015    8.2094 C   0  0  0  0  0  0  0  0  0  0  0  0
  -23.3463    3.1666    8.1552 O   0  0  0  0  0  0  0  0  0  0  0  0
  -23.5307    4.0494    7.7981 H   0  0  0  0  0  0  0  0  0  0  0  0
  -25.5956    2.8798    9.2229 C   0  0  0  0  0  0  0  0  0  0  0  0
  -26.0097    1.5716    9.5726 O   0  0  0  0  0  0  0  0  0  0  0  0
  -26.3379    1.1144    8.7826 H   0  0  0  0  0  0  0  0  0  0  0  0
  -26.8060    3.6916    8.7523 C   0  0  0  0  0  0  0  0  0  0  0  0
  -26.3771    4.8464    8.0130 O   0  0  0  0  0  0  0  0  0  0  0  0
  -25.8301    5.4100    8.5822 H   0  0  0  0  0  0  0  0  0  0  0  0
  -27.5876    4.1989    9.9666 C   0  0  0  0  0  0  0  0  0  0  0  0
  -26.8361    3.9248   11.1620 O   0  0  0  0  0  0  0  0  0  0  0  0
  -26.6928    2.9688   11.2418 H   0  0  0  0  0  0  0  0  0  0  0  0
 21 22  1  0  0  0
 22 23  1  0  0  0
 22 24  2  0  0  0
 22 20  1  0  0  0
 20 19  1  0  0  0
 19 18  1  0  0  0
 18 17  1  0  0  0
 17 16  1  0  0  0
 16 15  1  0  0  0
 15  1  1  0  0  0
  1  2  1  0  0  0
  1  6  1  0  0  0
  2  3  1  0  0  0
  2  9  2  0  0  0
  3  4  2  0  0  0
  3  5  1  0  0  0
  5 11  1  0  0  0
  6  7  2  0  0  0
  6  8  1  0  0  0
  8  9  1  0  0  0
  8 27  1  0  0  0
  9 10  1  0  0  0
 10 11  1  0  0  0
 11 12  2  0  0  0
 27 28  1  0  0  0
 28 29  1  0  0  0
 28 31  1  0  0  0
 31 32  1  0  0  0
 31 34  1  0  0  0
 34 35  1  0  0  0
 34 37  1  0  0  0
 37 38  1  0  0  0
 21 25  1  0  0  0
 23 26  1  0  0  0
  5 13  1  0  0  0
 10 14  1  0  0  0
 29 30  1  0  0  0
 32 33  1  0  0  0
 35 36  1  0  0  0
 38 39  1  0  0  0
M  END
> <minimizedAffinity>
-10.53695

$$$$
2C92_TP6_A_701


 39 40  0  0  0  0  0  0  0  0999 V2000
  -22.3540    0.0706    4.9535 N   0  0  0  0  0  0  0  0  0  0  0  0
  -22.0356   -0.1519    3.6709 C   0  0  0  0  0  0  0  0  0  0  0  0
  -21.8586   -1.3832    2.8824 C   0  0  0  0  0  0  0  0  0  0  0  0
  -21.9964   -2.5083    3.3893 O   0  0  0  0  0  0  0  0  0  0  0  0
  -21.5210   -1.2412    1.5789 N   0  0  0  0  0  0  0  0  0  0  0  0
  -22.3646    1.3933    5.0267 C   0  0  0  0  0  0  0  0  0  0  0  0
  -22.6253    2.0394    6.0988 O   0  0  0  0  0  0  0  0  0  0  0  0
  -22.0935    2.0581    3.9074 N   0  0  0  0  0  0  0  0  0  0  0  0
  -21.8471    1.1366    2.9891 C   0  0  0  0  0  0  0  0  0  0  0  0
  -21.5059    1.1362    1.6792 N   0  0  0  0  0  0  0  0  0  0  0  0
  -21.3652   -0.0177    1.0000 C   0  0  0  0  0  0  0  0  0  0  0  0
  -21.0532    0.0364   -0.1947 O   0  0  0  0  0  0  0  0  0  0  0  0
  -21.3837   -2.0481    1.0317 H   0  0  0  0  0  0  0  0  0  0  0  0
  -21.3583    1.9924    1.2163 H   0  0  0  0  0  0  0  0  0  0  0  0
  -22.6649   -0.8825    6.0151 C   0  0  0  0  0  0  0  0  0  0  0  0
  -24.1562   -1.0422    5.8950 C   0  0  0  0  0  0  0  0  0  0  0  0
  -25.0107   -0.6016    6.8119 C   0  0  0  0  0  0  0  0  0  0  0  0
  -24.5799    0.0566    8.0381 C   0  0  0  0  0  0  0  0  0  0  0  0
  -25.4651    0.8208    8.6673 C   0  0  0  0  0  0  0  0  0  0  0  0
  -25.0598    2.1668    9.0324 O   0  0  0  0  0  0  0  0  0  0  0  0
  -27.4683    2.3912    9.1922 O   0  0  0  0  0  0  0  0  0  0  0  0
  -26.2092    3.2070    9.4559 P   0  0  0  0  0  0  0  0  0  0  0  0
  -26.0987    4.4119    8.5462 O   0  0  0  0  0  0  0  0  0  0  0  0
  -25.9541    3.5550   10.8922 O   0  0  0  0  0  0  0  0  0  0  0  0
  -28.2496    2.9215    9.4142 H   0  0  0  0  0  0  0  0  0  0  0  0
  -26.7832    5.0580    8.7807 H   0  0  0  0  0  0  0  0  0  0  0  0
  -22.0335    3.5053    3.8539 C   0  0  0  0  0  0  0  0  0  0  0  0
  -22.5031    4.1534    2.5758 C   0  0  0  0  0  0  0  0  0  0  0  0
  -23.7752    4.8455    2.5631 O   0  0  0  0  0  0  0  0  0  0  0  0
  -23.6888    5.6896    3.0331 H   0  0  0  0  0  0  0  0  0  0  0  0
  -21.4045    4.7947    1.7512 C   0  0  0  0  0  0  0  0  0  0  0  0
  -21.6464    3.9843    0.6154 O   0  0  0  0  0  0  0  0  0  0  0  0
  -21.5431    3.0505    0.8566 H   0  0  0  0  0  0  0  0  0  0  0  0
  -19.9443    4.6428    2.1873 C   0  0  0  0  0  0  0  0  0  0  0  0
  -19.3039    5.9275    2.2473 O   0  0  0  0  0  0  0  0  0  0  0  0
  -19.3225    6.3393    1.3692 H   0  0  0  0  0  0  0  0  0  0  0  0
  -19.1839    3.8082    1.1540 C   0  0  0  0  0  0  0  0  0  0  0  0
  -18.6301    4.6817    0.1543 O   0  0  0  0  0  0  0  0  0  0  0  0
  -19.3464    5.1686   -0.2823 H   0  0  0  0  0  0  0  0  0  0  0  0
 21 22  1  0  0  0
 22 23  1  0  0  0
 22 24  2  0  0  0
 22 20  1  0  0  0
 20 19  1  0  0  0
 19 18  1  0  0  0
 18 17  1  0  0  0
 17 16  1  0  0  0
 16 15  1  0  0  0
 15  1  1  0  0  0
  1  2  1  0  0  0
  1  6  1  0  0  0
  2  3  1  0  0  0
  2  9  2  0  0  0
  3  4  2  0  0  0
  3  5  1  0  0  0
  5 11  1  0  0  0
  6  7  2  0  0  0
  6  8  1  0  0  0
  8  9  1  0  0  0
  8 27  1  0  0  0
  9 10  1  0  0  0
 10 11  1  0  0  0
 11 12  2  0  0  0
 27 28  1  0  0  0
 28 29  1  0  0  0
 28 31  1  0  0  0
 31 32  1  0  0  0
 31 34  1  0  0  0
 34 35  1  0  0  0
 34 37  1  0  0  0
 37 38  1  0  0  0
 21 25  1  0  0  0
 23 26  1  0  0  0
  5 13  1  0  0  0
 10 14  1  0  0  0
 29 30  1  0  0  0
 32 33  1  0  0  0
 35 36  1  0  0  0
 38 39  1  0  0  0
M  END
> <minimizedAffinity>
-9.59525

$$$$
2C92_TP6_A_701


 39 40  0  0  0  0  0  0  0  0999 V2000
  -22.5510    0.8117    5.1116 N   0  0  0  0  0  0  0  0  0  0  0  0
  -22.9651   -0.4381    5.3616 C   0  0  0  0  0  0  0  0  0  0  0  0
  -22.8502   -1.6999    4.6108 C   0  0  0  0  0  0  0  0  0  0  0  0
  -22.2853   -1.7530    3.5064 O   0  0  0  0  0  0  0  0  0  0  0  0
  -23.4025   -2.8042    5.1664 N   0  0  0  0  0  0  0  0  0  0  0  0
  -22.9557    1.4739    6.1853 C   0  0  0  0  0  0  0  0  0  0  0  0
  -22.7626    2.7260    6.3574 O   0  0  0  0  0  0  0  0  0  0  0  0
  -23.5870    0.7709    7.1210 N   0  0  0  0  0  0  0  0  0  0  0  0
  -23.6556   -0.4681    6.6589 C   0  0  0  0  0  0  0  0  0  0  0  0
  -24.1665   -1.6424    7.0974 N   0  0  0  0  0  0  0  0  0  0  0  0
  -24.0265   -2.7712    6.3772 C   0  0  0  0  0  0  0  0  0  0  0  0
  -24.5107   -3.8176    6.8222 O   0  0  0  0  0  0  0  0  0  0  0  0
  -23.3517   -3.6585    4.6799 H   0  0  0  0  0  0  0  0  0  0  0  0
  -24.6477   -1.6714    7.9558 H   0  0  0  0  0  0  0  0  0  0  0  0
  -21.7983    1.3338    3.9746 C   0  0  0  0  0  0  0  0  0  0  0  0
  -20.3714    1.0533    4.3610 C   0  0  0  0  0  0  0  0  0  0  0  0
  -19.3310    1.6262    3.7657 C   0  0  0  0  0  0  0  0  0  0  0  0
  -18.7597    1.1238    2.5233 C   0  0  0  0  0  0  0  0  0  0  0  0
  -19.3197    1.5207    1.3864 C   0  0  0  0  0  0  0  0  0  0  0  0
  -19.8056    2.8873    1.3117 O   0  0  0  0  0  0  0  0  0  0  0  0
  -22.0188    3.6396    0.6692 O   0  0  0  0  0  0  0  0  0  0  0  0
  -20.6785    3.3035    0.0281 P   0  0  0  0  0  0  0  0  0  0  0  0
  -20.7592    2.0987   -0.8850 O   0  0  0  0  0  0  0  0  0  0  0  0
  -19.9624    4.4546   -0.6132 O   0  0  0  0  0  0  0  0  0  0  0  0
  -22.6468    3.9116   -0.0182 H   0  0  0  0  0  0  0  0  0  0  0  0
  -21.2824    2.3228   -1.6704 H   0  0  0  0  0  0  0  0  0  0  0  0
  -24.1163    1.3750    8.3274 C   0  0  0  0  0  0  0  0  0  0  0  0
  -25.6142    1.3413    8.4979 C   0  0  0  0  0  0  0  0  0  0  0  0
  -26.1738    0.7469    9.6941 O   0  0  0  0  0  0  0  0  0  0  0  0
  -26.0389    1.3448   10.4459 H   0  0  0  0  0  0  0  0  0  0  0  0
  -26.3373    2.5696    7.9816 C   0  0  0  0  0  0  0  0  0  0  0  0
  -25.2392    3.4344    8.2080 O   0  0  0  0  0  0  0  0  0  0  0  0
  -24.9995    3.4135    9.1477 H   0  0  0  0  0  0  0  0  0  0  0  0
  -27.5659    3.0949    8.7301 C   0  0  0  0  0  0  0  0  0  0  0  0
  -28.5129    3.6549    7.8061 O   0  0  0  0  0  0  0  0  0  0  0  0
  -28.1024    4.3937    7.3303 H   0  0  0  0  0  0  0  0  0  0  0  0
  -27.1463    4.2182    9.6812 C   0  0  0  0  0  0  0  0  0  0  0  0
  -26.5003    3.6474   10.8327 O   0  0  0  0  0  0  0  0  0  0  0  0
  -27.1153    3.0490   11.2850 H   0  0  0  0  0  0  0  0  0  0  0  0
 21 22  1  0  0  0
 22 23  1  0  0  0
 22 24  2  0  0  0
 22 20  1  0  0  0
 20 19  1  0  0  0
 19 18  1  0  0  0
 18 17  1  0  0  0
 17 16  1  0  0  0
 16 15  1  0  0  0
 15  1  1  0  0  0
  1  2  1  0  0  0
  1  6  1  0  0  0
  2  3  1  0  0  0
  2  9  2  0  0  0
  3  4  2  0  0  0
  3  5  1  0  0  0
  5 11  1  0  0  0
  6  7  2  0  0  0
  6  8  1  0  0  0
  8  9  1  0  0  0
  8 27  1  0  0  0
  9 10  1  0  0  0
 10 11  1  0  0  0
 11 12  2  0  0  0
 27 28  1  0  0  0
 28 29  1  0  0  0
 28 31  1  0  0  0
 31 32  1  0  0  0
 31 34  1  0  0  0
 34 35  1  0  0  0
 34 37  1  0  0  0
 37 38  1  0  0  0
 21 25  1  0  0  0
 23 26  1  0  0  0
  5 13  1  0  0  0
 10 14  1  0  0  0
 29 30  1  0  0  0
 32 33  1  0  0  0
 35 36  1  0  0  0
 38 39  1  0  0  0
M  END
> <minimizedAffinity>
-9.46130

$$$$
2C92_TP6_A_701


 39 40  0  0  0  0  0  0  0  0999 V2000
  -22.5656    0.9855    4.9540 N   0  0  0  0  0  0  0  0  0  0  0  0
  -22.9350   -0.2720    5.2337 C   0  0  0  0  0  0  0  0  0  0  0  0
  -22.8093   -1.5402    4.4952 C   0  0  0  0  0  0  0  0  0  0  0  0
  -22.2807   -1.5921    3.3729 O   0  0  0  0  0  0  0  0  0  0  0  0
  -23.3106   -2.6520    5.0832 N   0  0  0  0  0  0  0  0  0  0  0  0
  -22.9527    1.6504    6.0325 C   0  0  0  0  0  0  0  0  0  0  0  0
  -22.7900    2.9097    6.1823 O   0  0  0  0  0  0  0  0  0  0  0  0
  -23.5316    0.9425    6.9979 N   0  0  0  0  0  0  0  0  0  0  0  0
  -23.5802   -0.3040    6.5541 C   0  0  0  0  0  0  0  0  0  0  0  0
  -24.0420   -1.4863    7.0244 N   0  0  0  0  0  0  0  0  0  0  0  0
  -23.8940   -2.6203    6.3141 C   0  0  0  0  0  0  0  0  0  0  0  0
  -24.3326   -3.6740    6.7885 O   0  0  0  0  0  0  0  0  0  0  0  0
  -23.2516   -3.5111    4.6059 H   0  0  0  0  0  0  0  0  0  0  0  0
  -24.4928   -1.5174    7.8991 H   0  0  0  0  0  0  0  0  0  0  0  0
  -21.8671    1.5133    3.7855 C   0  0  0  0  0  0  0  0  0  0  0  0
  -22.7575    2.6436    3.3459 C   0  0  0  0  0  0  0  0  0  0  0  0
  -22.5348    3.3605    2.2498 C   0  0  0  0  0  0  0  0  0  0  0  0
  -21.7565    4.5920    2.2589 C   0  0  0  0  0  0  0  0  0  0  0  0
  -20.4333    4.4811    2.2419 C   0  0  0  0  0  0  0  0  0  0  0  0
  -19.7371    4.8643    1.0262 O   0  0  0  0  0  0  0  0  0  0  0  0
  -19.4573    2.4617    0.8638 O   0  0  0  0  0  0  0  0  0  0  0  0
  -18.8774    3.7380    0.2679 P   0  0  0  0  0  0  0  0  0  0  0  0
  -17.4235    3.9411    0.6373 O   0  0  0  0  0  0  0  0  0  0  0  0
  -19.1234    3.9362   -1.1982 O   0  0  0  0  0  0  0  0  0  0  0  0
  -19.0106    1.6924    0.4774 H   0  0  0  0  0  0  0  0  0  0  0  0
  -16.8802    3.2723    0.1918 H   0  0  0  0  0  0  0  0  0  0  0  0
  -24.0370    1.5476    8.2141 C   0  0  0  0  0  0  0  0  0  0  0  0
  -25.5347    1.6795    8.3304 C   0  0  0  0  0  0  0  0  0  0  0  0
  -26.2151    1.0334    9.4336 O   0  0  0  0  0  0  0  0  0  0  0  0
  -26.0454    1.5264   10.2515 H   0  0  0  0  0  0  0  0  0  0  0  0
  -26.0831    3.0352    7.9312 C   0  0  0  0  0  0  0  0  0  0  0  0
  -25.2561    3.7471    8.8336 O   0  0  0  0  0  0  0  0  0  0  0  0
  -25.4253    3.4403    9.7381 H   0  0  0  0  0  0  0  0  0  0  0  0
  -27.5515    3.3693    8.2096 C   0  0  0  0  0  0  0  0  0  0  0  0
  -27.8700    3.1147    9.5873 O   0  0  0  0  0  0  0  0  0  0  0  0
  -27.7243    2.1763    9.7847 H   0  0  0  0  0  0  0  0  0  0  0  0
  -28.4528    2.4659    7.3645 C   0  0  0  0  0  0  0  0  0  0  0  0
  -28.8303    1.3146    8.1397 O   0  0  0  0  0  0  0  0  0  0  0  0
  -28.0342    0.8272    8.4034 H   0  0  0  0  0  0  0  0  0  0  0  0
 21 22  1  0  0  0
 22 23  1  0  0  0
 22 24  2  0  0  0
 22 20  1  0  0  0
 20 19  1  0  0  0
 19 18  1  0  0  0
 18 17  1  0  0  0
 17 16  1  0  0  0
 16 15  1  0  0  0
 15  1  1  0  0  0
  1  2  1  0  0  0
  1  6  1  0  0  0
  2  3  1  0  0  0
  2  9  2  0  0  0
  3  4  2  0  0  0
  3  5  1  0  0  0
  5 11  1  0  0  0
  6  7  2  0  0  0
  6  8  1  0  0  0
  8  9  1  0  0  0
  8 27  1  0  0  0
  9 10  1  0  0  0
 10 11  1  0  0  0
 11 12  2  0  0  0
 27 28  1  0  0  0
 28 29  1  0  0  0
 28 31  1  0  0  0
 31 32  1  0  0  0
 31 34  1  0  0  0
 34 35  1  0  0  0
 34 37  1  0  0  0
 37 38  1  0  0  0
 21 25  1  0  0  0
 23 26  1  0  0  0
  5 13  1  0  0  0
 10 14  1  0  0  0
 29 30  1  0  0  0
 32 33  1  0  0  0
 35 36  1  0  0  0
 38 39  1  0  0  0
M  END
> <minimizedAffinity>
-9.13798

$$$$
2C92_TP6_A_701


 39 40  0  0  0  0  0  0  0  0999 V2000
  -23.5727    1.7932    4.9853 N   0  0  0  0  0  0  0  0  0  0  0  0
  -23.1263    0.6125    4.5351 C   0  0  0  0  0  0  0  0  0  0  0  0
  -23.3219   -0.7731    4.9946 C   0  0  0  0  0  0  0  0  0  0  0  0
  -24.0114   -1.0385    5.9924 O   0  0  0  0  0  0  0  0  0  0  0  0
  -22.7033   -1.7519    4.2929 N   0  0  0  0  0  0  0  0  0  0  0  0
  -23.0487    2.6517    4.1231 C   0  0  0  0  0  0  0  0  0  0  0  0
  -23.2264    3.9162    4.1888 O   0  0  0  0  0  0  0  0  0  0  0  0
  -22.3093    2.1414    3.1427 N   0  0  0  0  0  0  0  0  0  0  0  0
  -22.2891    0.8334    3.3472 C   0  0  0  0  0  0  0  0  0  0  0  0
  -21.7249   -0.2370    2.7403 N   0  0  0  0  0  0  0  0  0  0  0  0
  -21.9426   -1.4857    3.1943 C   0  0  0  0  0  0  0  0  0  0  0  0
  -21.4048   -2.4290    2.6040 O   0  0  0  0  0  0  0  0  0  0  0  0
  -22.8065   -2.6861    4.5858 H   0  0  0  0  0  0  0  0  0  0  0  0
  -21.1469   -0.1004    1.9552 H   0  0  0  0  0  0  0  0  0  0  0  0
  -24.4553    2.0879    6.1105 C   0  0  0  0  0  0  0  0  0  0  0  0
  -23.5219    2.0386    7.2895 C   0  0  0  0  0  0  0  0  0  0  0  0
  -23.7837    1.3511    8.3958 C   0  0  0  0  0  0  0  0  0  0  0  0
  -25.0505    0.6663    8.6161 C   0  0  0  0  0  0  0  0  0  0  0  0
  -25.9195    1.2357    9.4433 C   0  0  0  0  0  0  0  0  0  0  0  0
  -25.7592    2.6514    9.7246 O   0  0  0  0  0  0  0  0  0  0  0  0
  -27.9634    2.6611    8.7154 O   0  0  0  0  0  0  0  0  0  0  0  0
  -26.9593    3.6381    9.3134 P   0  0  0  0  0  0  0  0  0  0  0  0
  -26.4223    4.6157    8.2898 O   0  0  0  0  0  0  0  0  0  0  0  0
  -27.3950    4.3205   10.5758 O   0  0  0  0  0  0  0  0  0  0  0  0
  -28.7510    3.1457    8.4226 H   0  0  0  0  0  0  0  0  0  0  0  0
  -27.1284    5.2251    8.0233 H   0  0  0  0  0  0  0  0  0  0  0  0
  -21.6458    2.9677    2.1539 C   0  0  0  0  0  0  0  0  0  0  0  0
  -20.2293    3.3829    2.4621 C   0  0  0  0  0  0  0  0  0  0  0  0
  -19.3350    2.4286    3.0841 O   0  0  0  0  0  0  0  0  0  0  0  0
  -19.0646    1.7651    2.4302 H   0  0  0  0  0  0  0  0  0  0  0  0
  -19.5959    4.2887    1.4246 C   0  0  0  0  0  0  0  0  0  0  0  0
  -20.8374    4.7399    0.9147 O   0  0  0  0  0  0  0  0  0  0  0  0
  -21.3518    3.9811    0.5976 H   0  0  0  0  0  0  0  0  0  0  0  0
  -18.7681    3.6771    0.2905 C   0  0  0  0  0  0  0  0  0  0  0  0
  -17.6327    4.5068   -0.0038 O   0  0  0  0  0  0  0  0  0  0  0  0
  -17.9373    5.3845   -0.2828 H   0  0  0  0  0  0  0  0  0  0  0  0
  -19.6152    3.6048   -0.9822 C   0  0  0  0  0  0  0  0  0  0  0  0
  -18.7464    3.5216   -2.1255 O   0  0  0  0  0  0  0  0  0  0  0  0
  -18.1767    4.3061   -2.1565 H   0  0  0  0  0  0  0  0  0  0  0  0
 21 22  1  0  0  0
 22 23  1  0  0  0
 22 24  2  0  0  0
 22 20  1  0  0  0
 20 19  1  0  0  0
 19 18  1  0  0  0
 18 17  1  0  0  0
 17 16  1  0  0  0
 16 15  1  0  0  0
 15  1  1  0  0  0
  1  2  1  0  0  0
  1  6  1  0  0  0
  2  3  1  0  0  0
  2  9  2  0  0  0
  3  4  2  0  0  0
  3  5  1  0  0  0
  5 11  1  0  0  0
  6  7  2  0  0  0
  6  8  1  0  0  0
  8  9  1  0  0  0
  8 27  1  0  0  0
  9 10  1  0  0  0
 10 11  1  0  0  0
 11 12  2  0  0  0
 27 28  1  0  0  0
 28 29  1  0  0  0
 28 31  1  0  0  0
 31 32  1  0  0  0
 31 34  1  0  0  0
 34 35  1  0  0  0
 34 37  1  0  0  0
 37 38  1  0  0  0
 21 25  1  0  0  0
 23 26  1  0  0  0
  5 13  1  0  0  0
 10 14  1  0  0  0
 29 30  1  0  0  0
 32 33  1  0  0  0
 35 36  1  0  0  0
 38 39  1  0  0  0
M  END
> <minimizedAffinity>
-9.08416

$$$$
2C92_TP6_A_701


 39 40  0  0  0  0  0  0  0  0999 V2000
  -22.3953    0.7041    4.9436 N   0  0  0  0  0  0  0  0  0  0  0  0
  -22.8348   -0.5307    5.2232 C   0  0  0  0  0  0  0  0  0  0  0  0
  -22.7112   -1.8201    4.5223 C   0  0  0  0  0  0  0  0  0  0  0  0
  -22.1091   -1.9200    3.4410 O   0  0  0  0  0  0  0  0  0  0  0  0
  -23.2974   -2.8967    5.0972 N   0  0  0  0  0  0  0  0  0  0  0  0
  -22.8280    1.4095    5.9781 C   0  0  0  0  0  0  0  0  0  0  0  0
  -22.6239    2.6646    6.1122 O   0  0  0  0  0  0  0  0  0  0  0  0
  -23.5008    0.7485    6.9155 N   0  0  0  0  0  0  0  0  0  0  0  0
  -23.5702   -0.5053    6.4958 C   0  0  0  0  0  0  0  0  0  0  0  0
  -24.1119   -1.6566    6.9576 N   0  0  0  0  0  0  0  0  0  0  0  0
  -23.9624   -2.8123    6.2834 C   0  0  0  0  0  0  0  0  0  0  0  0
  -24.4759   -3.8360    6.7481 O   0  0  0  0  0  0  0  0  0  0  0  0
  -23.2413   -3.7686    4.6435 H   0  0  0  0  0  0  0  0  0  0  0  0
  -24.6229   -1.6488    7.7991 H   0  0  0  0  0  0  0  0  0  0  0  0
  -21.5966    1.1755    3.8158 C   0  0  0  0  0  0  0  0  0  0  0  0
  -22.6316    1.7642    2.8960 C   0  0  0  0  0  0  0  0  0  0  0  0
  -22.4636    2.9155    2.2546 C   0  0  0  0  0  0  0  0  0  0  0  0
  -22.3471    2.9995    0.8049 C   0  0  0  0  0  0  0  0  0  0  0  0
  -21.3529    2.3327    0.2301 C   0  0  0  0  0  0  0  0  0  0  0  0
  -21.6325    0.9982   -0.2702 O   0  0  0  0  0  0  0  0  0  0  0  0
  -21.3928   -1.2347    0.6427 O   0  0  0  0  0  0  0  0  0  0  0  0
  -20.5395   -0.1484    0.0007 P   0  0  0  0  0  0  0  0  0  0  0  0
  -19.5065    0.4151    0.9531 O   0  0  0  0  0  0  0  0  0  0  0  0
  -19.9514   -0.4939   -1.3349 O   0  0  0  0  0  0  0  0  0  0  0  0
  -20.8353   -1.9987    0.8581 H   0  0  0  0  0  0  0  0  0  0  0  0
  -18.8325   -0.2584    1.1344 H   0  0  0  0  0  0  0  0  0  0  0  0
  -24.0633    1.4023    8.0803 C   0  0  0  0  0  0  0  0  0  0  0  0
  -25.0185    2.5398    7.8204 C   0  0  0  0  0  0  0  0  0  0  0  0
  -25.6430    2.6517    6.5185 O   0  0  0  0  0  0  0  0  0  0  0  0
  -26.3295    1.9722    6.4297 H   0  0  0  0  0  0  0  0  0  0  0  0
  -25.8983    2.9087    8.9985 C   0  0  0  0  0  0  0  0  0  0  0  0
  -26.4060    1.5966    9.1586 O   0  0  0  0  0  0  0  0  0  0  0  0
  -26.8431    1.3168    8.3391 H   0  0  0  0  0  0  0  0  0  0  0  0
  -27.0598    3.8866    8.7986 C   0  0  0  0  0  0  0  0  0  0  0  0
  -26.6171    5.0490    8.0795 O   0  0  0  0  0  0  0  0  0  0  0  0
  -25.9207    5.4963    8.5852 H   0  0  0  0  0  0  0  0  0  0  0  0
  -27.5677    4.3660   10.1606 C   0  0  0  0  0  0  0  0  0  0  0  0
  -26.7040    3.8596   11.1933 O   0  0  0  0  0  0  0  0  0  0  0  0
  -26.7034    2.8899   11.1677 H   0  0  0  0  0  0  0  0  0  0  0  0
 21 22  1  0  0  0
 22 23  1  0  0  0
 22 24  2  0  0  0
 22 20  1  0  0  0
 20 19  1  0  0  0
 19 18  1  0  0  0
 18 17  1  0  0  0
 17 16  1  0  0  0
 16 15  1  0  0  0
 15  1  1  0  0  0
  1  2  1  0  0  0
  1  6  1  0  0  0
  2  3  1  0  0  0
  2  9  2  0  0  0
  3  4  2  0  0  0
  3  5  1  0  0  0
  5 11  1  0  0  0
  6  7  2  0  0  0
  6  8  1  0  0  0
  8  9  1  0  0  0
  8 27  1  0  0  0
  9 10  1  0  0  0
 10 11  1  0  0  0
 11 12  2  0  0  0
 27 28  1  0  0  0
 28 29  1  0  0  0
 28 31  1  0  0  0
 31 32  1  0  0  0
 31 34  1  0  0  0
 34 35  1  0  0  0
 34 37  1  0  0  0
 37 38  1  0  0  0
 21 25  1  0  0  0
 23 26  1  0  0  0
  5 13  1  0  0  0
 10 14  1  0  0  0
 29 30  1  0  0  0
 32 33  1  0  0  0
 35 36  1  0  0  0
 38 39  1  0  0  0
M  END
> <minimizedAffinity>
-8.66620

$$$$
2C92_TP6_A_701


 39 40  0  0  0  0  0  0  0  0999 V2000
  -22.0325    0.3634    4.0255 N   0  0  0  0  0  0  0  0  0  0  0  0
  -22.6044   -0.7080    4.5921 C   0  0  0  0  0  0  0  0  0  0  0  0
  -22.6279   -2.1367    4.2350 C   0  0  0  0  0  0  0  0  0  0  0  0
  -22.0463   -2.5667    3.2257 O   0  0  0  0  0  0  0  0  0  0  0  0
  -23.3265   -2.9666    5.0451 N   0  0  0  0  0  0  0  0  0  0  0  0
  -22.3789    1.3463    4.8434 C   0  0  0  0  0  0  0  0  0  0  0  0
  -22.0365    2.5655    4.6673 O   0  0  0  0  0  0  0  0  0  0  0  0
  -23.1157    1.0159    5.8999 N   0  0  0  0  0  0  0  0  0  0  0  0
  -23.3257   -0.2878    5.8020 C   0  0  0  0  0  0  0  0  0  0  0  0
  -23.9889   -1.2225    6.5221 N   0  0  0  0  0  0  0  0  0  0  0  0
  -23.9718   -2.5186    6.1584 C   0  0  0  0  0  0  0  0  0  0  0  0
  -24.5929   -3.3329    6.8504 O   0  0  0  0  0  0  0  0  0  0  0  0
  -23.3696   -3.9247    4.8226 H   0  0  0  0  0  0  0  0  0  0  0  0
  -24.4914   -0.9505    7.3239 H   0  0  0  0  0  0  0  0  0  0  0  0
  -21.1926    0.4504    2.8343 C   0  0  0  0  0  0  0  0  0  0  0  0
  -19.8026    0.3180    3.3949 C   0  0  0  0  0  0  0  0  0  0  0  0
  -18.7639    1.0060    2.9333 C   0  0  0  0  0  0  0  0  0  0  0  0
  -18.8216    1.7913    1.7077 C   0  0  0  0  0  0  0  0  0  0  0  0
  -18.7469    3.1123    1.8219 C   0  0  0  0  0  0  0  0  0  0  0  0
  -19.6774    3.7678    2.7239 O   0  0  0  0  0  0  0  0  0  0  0  0
  -21.4554    5.3303    3.2478 O   0  0  0  0  0  0  0  0  0  0  0  0
  -20.3039    5.1741    2.2629 P   0  0  0  0  0  0  0  0  0  0  0  0
  -20.7806    5.0203    0.8343 O   0  0  0  0  0  0  0  0  0  0  0  0
  -19.2046    6.1865    2.3884 O   0  0  0  0  0  0  0  0  0  0  0  0
  -21.9232    6.1610    3.0691 H   0  0  0  0  0  0  0  0  0  0  0  0
  -21.1646    5.8574    0.5297 H   0  0  0  0  0  0  0  0  0  0  0  0
  -23.5962    1.9955    6.8539 C   0  0  0  0  0  0  0  0  0  0  0  0
  -24.7505    2.8590    6.4112 C   0  0  0  0  0  0  0  0  0  0  0  0
  -24.8505    3.2410    5.0178 O   0  0  0  0  0  0  0  0  0  0  0  0
  -25.1388    2.4777    4.4932 H   0  0  0  0  0  0  0  0  0  0  0  0
  -26.0668    2.5571    7.0998 C   0  0  0  0  0  0  0  0  0  0  0  0
  -25.8298    3.4569    8.1671 O   0  0  0  0  0  0  0  0  0  0  0  0
  -25.0126    3.2065    8.6258 H   0  0  0  0  0  0  0  0  0  0  0  0
  -26.3238    1.1549    7.6594 C   0  0  0  0  0  0  0  0  0  0  0  0
  -27.7317    0.9436    7.8527 O   0  0  0  0  0  0  0  0  0  0  0  0
  -28.0727    1.5954    8.4849 H   0  0  0  0  0  0  0  0  0  0  0  0
  -25.6556    1.0184    9.0296 C   0  0  0  0  0  0  0  0  0  0  0  0
  -24.8420   -0.1677    9.0440 O   0  0  0  0  0  0  0  0  0  0  0  0
  -25.3984   -0.9436    8.8732 H   0  0  0  0  0  0  0  0  0  0  0  0
 21 22  1  0  0  0
 22 23  1  0  0  0
 22 24  2  0  0  0
 22 20  1  0  0  0
 20 19  1  0  0  0
 19 18  1  0  0  0
 18 17  1  0  0  0
 17 16  1  0  0  0
 16 15  1  0  0  0
 15  1  1  0  0  0
  1  2  1  0  0  0
  1  6  1  0  0  0
  2  3  1  0  0  0
  2  9  2  0  0  0
  3  4  2  0  0  0
  3  5  1  0  0  0
  5 11  1  0  0  0
  6  7  2  0  0  0
  6  8  1  0  0  0
  8  9  1  0  0  0
  8 27  1  0  0  0
  9 10  1  0  0  0
 10 11  1  0  0  0
 11 12  2  0  0  0
 27 28  1  0  0  0
 28 29  1  0  0  0
 28 31  1  0  0  0
 31 32  1  0  0  0
 31 34  1  0  0  0
 34 35  1  0  0  0
 34 37  1  0  0  0
 37 38  1  0  0  0
 21 25  1  0  0  0
 23 26  1  0  0  0
  5 13  1  0  0  0
 10 14  1  0  0  0
 29 30  1  0  0  0
 32 33  1  0  0  0
 35 36  1  0  0  0
 38 39  1  0  0  0
M  END
> <minimizedAffinity>
-8.63811

$$$$
2C92_TP6_A_701


 39 40  0  0  0  0  0  0  0  0999 V2000
  -20.6025    0.1613    3.5169 N   0  0  0  0  0  0  0  0  0  0  0  0
  -20.8340   -0.1174    2.2267 C   0  0  0  0  0  0  0  0  0  0  0  0
  -21.6143   -1.1701    1.5542 C   0  0  0  0  0  0  0  0  0  0  0  0
  -22.2230   -2.0418    2.1956 O   0  0  0  0  0  0  0  0  0  0  0  0
  -21.6291   -1.1613    0.2003 N   0  0  0  0  0  0  0  0  0  0  0  0
  -19.8372    1.2406    3.4499 C   0  0  0  0  0  0  0  0  0  0  0  0
  -19.3774    1.8455    4.4782 O   0  0  0  0  0  0  0  0  0  0  0  0
  -19.5553    1.7014    2.2348 N   0  0  0  0  0  0  0  0  0  0  0  0
  -20.1409    0.8700    1.3869 C   0  0  0  0  0  0  0  0  0  0  0  0
  -20.2357    0.7610    0.0410 N   0  0  0  0  0  0  0  0  0  0  0  0
  -20.9701   -0.2149   -0.5253 C   0  0  0  0  0  0  0  0  0  0  0  0
  -21.0249   -0.2704   -1.7588 O   0  0  0  0  0  0  0  0  0  0  0  0
  -22.1322   -1.8614   -0.2751 H   0  0  0  0  0  0  0  0  0  0  0  0
  -19.7606    1.4051   -0.5323 H   0  0  0  0  0  0  0  0  0  0  0  0
  -21.0953   -0.5078    4.7175 C   0  0  0  0  0  0  0  0  0  0  0  0
  -22.4129    0.1756    4.9642 C   0  0  0  0  0  0  0  0  0  0  0  0
  -23.1736   -0.0732    6.0246 C   0  0  0  0  0  0  0  0  0  0  0  0
  -24.5404    0.4161    6.1455 C   0  0  0  0  0  0  0  0  0  0  0  0
  -24.7101    1.6616    6.5741 C   0  0  0  0  0  0  0  0  0  0  0  0
  -24.6958    1.8923    8.0079 O   0  0  0  0  0  0  0  0  0  0  0  0
  -24.8446    3.8815    9.3855 O   0  0  0  0  0  0  0  0  0  0  0  0
  -25.7560    2.9395    8.6094 P   0  0  0  0  0  0  0  0  0  0  0  0
  -26.7001    2.1734    9.5113 O   0  0  0  0  0  0  0  0  0  0  0  0
  -26.4619    3.5466    7.4337 O   0  0  0  0  0  0  0  0  0  0  0  0
  -25.3778    4.5748    9.8049 H   0  0  0  0  0  0  0  0  0  0  0  0
  -27.3527    2.7835    9.8891 H   0  0  0  0  0  0  0  0  0  0  0  0
  -18.6992    2.8501    2.0146 C   0  0  0  0  0  0  0  0  0  0  0  0
  -19.3879    4.1763    1.8126 C   0  0  0  0  0  0  0  0  0  0  0  0
  -18.6746    5.2462    1.1463 O   0  0  0  0  0  0  0  0  0  0  0  0
  -18.6226    5.0575    0.1962 H   0  0  0  0  0  0  0  0  0  0  0  0
  -20.8658    4.0787    1.4894 C   0  0  0  0  0  0  0  0  0  0  0  0
  -20.8288    5.1255    0.5365 O   0  0  0  0  0  0  0  0  0  0  0  0
  -20.5123    5.9382    0.9610 H   0  0  0  0  0  0  0  0  0  0  0  0
  -21.9000    4.4063    2.5703 C   0  0  0  0  0  0  0  0  0  0  0  0
  -23.2297    4.3200    2.0330 O   0  0  0  0  0  0  0  0  0  0  0  0
  -23.3278    4.9578    1.3087 H   0  0  0  0  0  0  0  0  0  0  0  0
  -21.7013    5.8454    3.0519 C   0  0  0  0  0  0  0  0  0  0  0  0
  -22.4927    6.7304    2.2399 O   0  0  0  0  0  0  0  0  0  0  0  0
  -22.2147    6.6545    1.3136 H   0  0  0  0  0  0  0  0  0  0  0  0
 21 22  1  0  0  0
 22 23  1  0  0  0
 22 24  2  0  0  0
 22 20  1  0  0  0
 20 19  1  0  0  0
 19 18  1  0  0  0
 18 17  1  0  0  0
 17 16  1  0  0  0
 16 15  1  0  0  0
 15  1  1  0  0  0
  1  2  1  0  0  0
  1  6  1  0  0  0
  2  3  1  0  0  0
  2  9  2  0  0  0
  3  4  2  0  0  0
  3  5  1  0  0  0
  5 11  1  0  0  0
  6  7  2  0  0  0
  6  8  1  0  0  0
  8  9  1  0  0  0
  8 27  1  0  0  0
  9 10  1  0  0  0
 10 11  1  0  0  0
 11 12  2  0  0  0
 27 28  1  0  0  0
 28 29  1  0  0  0
 28 31  1  0  0  0
 31 32  1  0  0  0
 31 34  1  0  0  0
 34 35  1  0  0  0
 34 37  1  0  0  0
 37 38  1  0  0  0
 21 25  1  0  0  0
 23 26  1  0  0  0
  5 13  1  0  0  0
 10 14  1  0  0  0
 29 30  1  0  0  0
 32 33  1  0  0  0
 35 36  1  0  0  0
 38 39  1  0  0  0
M  END
> <minimizedAffinity>
-8.58233

$$$$
2C92_TP6_A_701


 39 40  0  0  0  0  0  0  0  0999 V2000
  -21.1381    0.0643    2.5134 N   0  0  0  0  0  0  0  0  0  0  0  0
  -20.2000    0.9997    2.3111 C   0  0  0  0  0  0  0  0  0  0  0  0
  -19.2334    1.6584    3.2062 C   0  0  0  0  0  0  0  0  0  0  0  0
  -19.1765    1.3888    4.4168 O   0  0  0  0  0  0  0  0  0  0  0  0
  -18.4149    2.5875    2.6584 N   0  0  0  0  0  0  0  0  0  0  0  0
  -21.6508   -0.1018    1.3032 C   0  0  0  0  0  0  0  0  0  0  0  0
  -22.5976   -0.9209    1.0435 O   0  0  0  0  0  0  0  0  0  0  0  0
  -21.1274    0.6304    0.3244 N   0  0  0  0  0  0  0  0  0  0  0  0
  -20.2000    1.3854    0.8926 C   0  0  0  0  0  0  0  0  0  0  0  0
  -19.3287    2.3339    0.4760 N   0  0  0  0  0  0  0  0  0  0  0  0
  -18.4578    2.8995    1.3328 C   0  0  0  0  0  0  0  0  0  0  0  0
  -17.6825    3.7603    0.9020 O   0  0  0  0  0  0  0  0  0  0  0  0
  -17.7680    3.0526    3.2366 H   0  0  0  0  0  0  0  0  0  0  0  0
  -19.3320    2.6143   -0.4677 H   0  0  0  0  0  0  0  0  0  0  0  0
  -21.4956   -0.6471    3.7374 C   0  0  0  0  0  0  0  0  0  0  0  0
  -22.6794    0.1318    4.2431 C   0  0  0  0  0  0  0  0  0  0  0  0
  -22.6014    1.0087    5.2381 C   0  0  0  0  0  0  0  0  0  0  0  0
  -23.0214    2.3967    5.0992 C   0  0  0  0  0  0  0  0  0  0  0  0
  -22.8378    2.9776    3.9191 C   0  0  0  0  0  0  0  0  0  0  0  0
  -22.7072    4.4238    3.8891 O   0  0  0  0  0  0  0  0  0  0  0  0
  -22.3790    4.1696    1.5007 O   0  0  0  0  0  0  0  0  0  0  0  0
  -21.9404    5.0815    2.6393 P   0  0  0  0  0  0  0  0  0  0  0  0
  -20.4539    4.9934    2.9120 O   0  0  0  0  0  0  0  0  0  0  0  0
  -22.4180    6.5004    2.5512 O   0  0  0  0  0  0  0  0  0  0  0  0
  -21.9733    4.4691    0.6720 H   0  0  0  0  0  0  0  0  0  0  0  0
  -19.9655    5.3845    2.1708 H   0  0  0  0  0  0  0  0  0  0  0  0
  -21.6178    0.5771   -1.0385 C   0  0  0  0  0  0  0  0  0  0  0  0
  -22.6052    1.6427   -1.4427 C   0  0  0  0  0  0  0  0  0  0  0  0
  -23.3595    2.3303   -0.4152 O   0  0  0  0  0  0  0  0  0  0  0  0
  -22.7798    2.9549    0.0482 H   0  0  0  0  0  0  0  0  0  0  0  0
  -22.1658    2.5011   -2.6124 C   0  0  0  0  0  0  0  0  0  0  0  0
  -21.8024    1.3942   -3.4174 O   0  0  0  0  0  0  0  0  0  0  0  0
  -21.1244    0.8715   -2.9614 H   0  0  0  0  0  0  0  0  0  0  0  0
  -20.9636    3.4366   -2.4550 C   0  0  0  0  0  0  0  0  0  0  0  0
  -21.0648    4.1795   -1.2294 O   0  0  0  0  0  0  0  0  0  0  0  0
  -21.8733    4.7154   -1.2420 H   0  0  0  0  0  0  0  0  0  0  0  0
  -20.9513    4.4538   -3.5985 C   0  0  0  0  0  0  0  0  0  0  0  0
  -21.4874    5.7027   -3.1276 O   0  0  0  0  0  0  0  0  0  0  0  0
  -22.3973    5.5684   -2.8196 H   0  0  0  0  0  0  0  0  0  0  0  0
 21 22  1  0  0  0
 22 23  1  0  0  0
 22 24  2  0  0  0
 22 20  1  0  0  0
 20 19  1  0  0  0
 19 18  1  0  0  0
 18 17  1  0  0  0
 17 16  1  0  0  0
 16 15  1  0  0  0
 15  1  1  0  0  0
  1  2  1  0  0  0
  1  6  1  0  0  0
  2  3  1  0  0  0
  2  9  2  0  0  0
  3  4  2  0  0  0
  3  5  1  0  0  0
  5 11  1  0  0  0
  6  7  2  0  0  0
  6  8  1  0  0  0
  8  9  1  0  0  0
  8 27  1  0  0  0
  9 10  1  0  0  0
 10 11  1  0  0  0
 11 12  2  0  0  0
 27 28  1  0  0  0
 28 29  1  0  0  0
 28 31  1  0  0  0
 31 32  1  0  0  0
 31 34  1  0  0  0
 34 35  1  0  0  0
 34 37  1  0  0  0
 37 38  1  0  0  0
 21 25  1  0  0  0
 23 26  1  0  0  0
  5 13  1  0  0  0
 10 14  1  0  0  0
 29 30  1  0  0  0
 32 33  1  0  0  0
 35 36  1  0  0  0
 38 39  1  0  0  0
M  END
> <minimizedAffinity>
-8.52764

$$$$
2C92_TP6_A_701


 39 40  0  0  0  0  0  0  0  0999 V2000
  -21.2231    0.5662    2.1960 N   0  0  0  0  0  0  0  0  0  0  0  0
  -20.2196    1.4231    1.9617 C   0  0  0  0  0  0  0  0  0  0  0  0
  -19.1341    1.9488    2.8069 C   0  0  0  0  0  0  0  0  0  0  0  0
  -19.0149    1.6169    3.9974 O   0  0  0  0  0  0  0  0  0  0  0  0
  -18.2751    2.8269    2.2374 N   0  0  0  0  0  0  0  0  0  0  0  0
  -21.8352    0.5053    1.0226 C   0  0  0  0  0  0  0  0  0  0  0  0
  -22.8699   -0.2127    0.8022 O   0  0  0  0  0  0  0  0  0  0  0  0
  -21.3185    1.2346    0.0380 N   0  0  0  0  0  0  0  0  0  0  0  0
  -20.2866    1.8755    0.5647 C   0  0  0  0  0  0  0  0  0  0  0  0
  -19.3639    2.7617    0.1226 N   0  0  0  0  0  0  0  0  0  0  0  0
  -18.3847    3.2054    0.9331 C   0  0  0  0  0  0  0  0  0  0  0  0
  -17.5664    4.0136    0.4806 O   0  0  0  0  0  0  0  0  0  0  0  0
  -17.5478    3.2040    2.7833 H   0  0  0  0  0  0  0  0  0  0  0  0
  -19.4095    3.0868   -0.8056 H   0  0  0  0  0  0  0  0  0  0  0  0
  -21.5553   -0.1690    3.4129 C   0  0  0  0  0  0  0  0  0  0  0  0
  -22.3478    0.8355    4.2046 C   0  0  0  0  0  0  0  0  0  0  0  0
  -23.4231    0.5152    4.9162 C   0  0  0  0  0  0  0  0  0  0  0  0
  -23.6113   -0.8020    5.5092 C   0  0  0  0  0  0  0  0  0  0  0  0
  -24.5921   -0.9418    6.3936 C   0  0  0  0  0  0  0  0  0  0  0  0
  -25.2315    0.2631    6.8920 O   0  0  0  0  0  0  0  0  0  0  0  0
  -24.3363   -0.5797    8.9813 O   0  0  0  0  0  0  0  0  0  0  0  0
  -24.9255    0.7024    8.4073 P   0  0  0  0  0  0  0  0  0  0  0  0
  -26.2424    1.0749    9.0543 O   0  0  0  0  0  0  0  0  0  0  0  0
  -23.9836    1.8666    8.3264 O   0  0  0  0  0  0  0  0  0  0  0  0
  -24.1053   -0.4406    9.9130 H   0  0  0  0  0  0  0  0  0  0  0  0
  -26.0864    1.3449    9.9728 H   0  0  0  0  0  0  0  0  0  0  0  0
  -21.9091    1.2912   -1.2844 C   0  0  0  0  0  0  0  0  0  0  0  0
  -21.0820    0.7376   -2.4172 C   0  0  0  0  0  0  0  0  0  0  0  0
  -19.7045    1.1625   -2.5568 O   0  0  0  0  0  0  0  0  0  0  0  0
  -19.1643    0.7383   -1.8720 H   0  0  0  0  0  0  0  0  0  0  0  0
  -21.3507   -0.7181   -2.7438 C   0  0  0  0  0  0  0  0  0  0  0  0
  -22.6054   -0.7377   -2.0877 O   0  0  0  0  0  0  0  0  0  0  0  0
  -22.4863   -0.4989   -1.1551 H   0  0  0  0  0  0  0  0  0  0  0  0
  -20.4473   -1.8052   -2.1543 C   0  0  0  0  0  0  0  0  0  0  0  0
  -19.6127   -1.2563   -1.1216 O   0  0  0  0  0  0  0  0  0  0  0  0
  -19.0522   -0.5586   -1.4955 H   0  0  0  0  0  0  0  0  0  0  0  0
  -19.5185   -2.3475   -3.2433 C   0  0  0  0  0  0  0  0  0  0  0  0
  -18.4008   -1.4559   -3.3999 O   0  0  0  0  0  0  0  0  0  0  0  0
  -18.7218   -0.5761   -3.6526 H   0  0  0  0  0  0  0  0  0  0  0  0
 21 22  1  0  0  0
 22 23  1  0  0  0
 22 24  2  0  0  0
 22 20  1  0  0  0
 20 19  1  0  0  0
 19 18  1  0  0  0
 18 17  1  0  0  0
 17 16  1  0  0  0
 16 15  1  0  0  0
 15  1  1  0  0  0
  1  2  1  0  0  0
  1  6  1  0  0  0
  2  3  1  0  0  0
  2  9  2  0  0  0
  3  4  2  0  0  0
  3  5  1  0  0  0
  5 11  1  0  0  0
  6  7  2  0  0  0
  6  8  1  0  0  0
  8  9  1  0  0  0
  8 27  1  0  0  0
  9 10  1  0  0  0
 10 11  1  0  0  0
 11 12  2  0  0  0
 27 28  1  0  0  0
 28 29  1  0  0  0
 28 31  1  0  0  0
 31 32  1  0  0  0
 31 34  1  0  0  0
 34 35  1  0  0  0
 34 37  1  0  0  0
 37 38  1  0  0  0
 21 25  1  0  0  0
 23 26  1  0  0  0
  5 13  1  0  0  0
 10 14  1  0  0  0
 29 30  1  0  0  0
 32 33  1  0  0  0
 35 36  1  0  0  0
 38 39  1  0  0  0
M  END
> <minimizedAffinity>
-8.39535

$$$$
