1DAR_GDP_A_692
  RCSB PDB12061702153D
Coordinates from PDB:1DAR:A:692 Model:1 without hydrogens
 28 30  0  0  0  0            999 V2000
   35.7410   31.4950  -20.3320   P 0  0  0  0  0  0  0  0  0  0  0  0
   35.3560   30.9410  -19.0810   O 0  0  0  0  0  0  0  0  0  0  0  0
   34.9090   32.8600  -20.2240   O 0  0  0  0  0  0  0  0  0  0  0  0
   37.2680   32.1210  -20.2260   O 0  0  0  0  0  0  0  0  0  0  0  0
   35.7000   30.2100  -21.1350   O 0  0  0  0  0  0  0  0  0  0  0  0
   34.8250   29.0000  -20.7480   P 0  0  0  0  0  0  0  0  0  0  0  0
   35.1090   27.8550  -21.6280   O 0  0  0  0  0  0  0  0  0  0  0  0
   33.3410   29.4680  -21.1300   O 0  0  0  0  0  0  0  0  0  0  0  0
   35.0240   28.4330  -19.3460   O 0  0  0  0  0  0  0  0  0  0  0  0
   36.2230   27.7480  -19.0200   C 0  0  0  0  0  0  0  0  0  0  0  0
   36.0010   26.3540  -18.3910   C 0  0  0  0  0  0  0  0  0  0  0  0
   34.8460   26.4250  -17.4920   O 0  0  0  0  0  0  0  0  0  0  0  0
   35.5630   25.2440  -19.3540   C 0  0  0  0  0  0  0  0  0  0  0  0
   36.1290   24.0060  -18.9520   O 0  0  0  0  0  0  0  0  0  0  0  0
   34.0860   25.0510  -19.2280   C 0  0  0  0  0  0  0  0  0  0  0  0
   33.9030   23.6980  -19.7550   O 0  0  0  0  0  0  0  0  0  0  0  0
   33.8870   25.3170  -17.6850   C 0  0  0  0  0  0  0  0  0  0  0  0
   32.4850   25.7790  -17.3580   N 0  0  0  0  0  0  0  0  0  0  0  0
   31.7450   26.8440  -17.8090   C 0  0  0  0  0  0  0  0  0  0  0  0
   30.5160   26.8870  -17.4130   N 0  0  0  0  0  0  0  0  0  0  0  0
   30.4760   25.7440  -16.6330   C 0  0  0  0  0  0  0  0  0  0  0  0
   29.4180   25.2200  -15.8950   C 0  0  0  0  0  0  0  0  0  0  0  0
   28.2430   25.5910  -15.8340   O 0  0  0  0  0  0  0  0  0  0  0  0
   29.8050   24.1250  -15.2310   N 0  0  0  0  0  0  0  0  0  0  0  0
   31.0300   23.5810  -15.2490   C 0  0  0  0  0  0  0  0  0  0  0  0
   31.2110   22.5370  -14.4460   N 0  0  0  0  0  0  0  0  0  0  0  0
   32.0300   24.0360  -15.9430   N 0  0  0  0  0  0  0  0  0  0  0  0
   31.6650   25.1070  -16.5990   C 0  0  0  0  0  0  0  0  0  0  0  0
  1  2  2  0  0  0  0
  1  3  1  0  0  0  0
  1  4  1  0  0  0  0
  1  5  1  0  0  0  0
  5  6  1  0  0  0  0
  6  7  2  0  0  0  0
  6  8  1  0  0  0  0
  6  9  1  0  0  0  0
  9 10  1  0  0  0  0
 10 11  1  0  0  0  0
 11 12  1  0  0  0  0
 11 13  1  0  0  0  0
 12 17  1  0  0  0  0
 13 14  1  0  0  0  0
 13 15  1  0  0  0  0
 15 16  1  0  0  0  0
 15 17  1  0  0  0  0
 17 18  1  0  0  0  0
 18 19  1  0  0  0  0
 18 28  1  0  0  0  0
 19 20  2  0  0  0  0
 20 21  1  0  0  0  0
 21 22  1  0  0  0  0
 21 28  2  0  0  0  0
 22 23  2  0  0  0  0
 22 24  1  0  0  0  0
 24 25  1  0  0  0  0
 25 26  1  0  0  0  0
 25 27  2  0  0  0  0
 27 28  1  0  0  0  0
A    1
PB
A    2
O1B
A    3
O2B
A    4
O3B
A    5
O3A
A    6
PA
A    7
O1A
A    8
O2A
A    9
O5'
A   10
C5'
A   11
C4'
A   12
O4'
A   13
C3'
A   14
O3'
A   15
C2'
A   16
O2'
A   17
C1'
A   18
N9
A   19
C8
A   20
N7
A   21
C5
A   22
C6
A   23
O6
A   24
N1
A   25
C2
A   26
N2
A   27
N3
A   28
C4
M  END
>  <InstanceId>
1DAR_GDP_A_692

>  <ChemCompId>
GDP

>  <PdbId>
1DAR

>  <ChainId>
A

>  <ResidueNumber>
692

>  <InsertionCode>


>  <Model>
1

>  <AltIds>


>  <MissingHeavyAtoms>
0

>  <ObservedFormula>
C10 N5 O11 P2

>  <Name>
GUANOSINE-5'-DIPHOSPHATE

>  <SystematicName>
[(2R,3S,4R,5R)-5-(2-azanyl-6-oxidanylidene-1H-purin-9-yl)-3,4-bis(oxidanyl)oxolan-2-yl]methyl phosphono hydrogen phosphate

>  <Synonyms>


>  <Type>
RNA LINKING

>  <Formula>
C10 H15 N5 O11 P2

>  <MolecularWeight>
443.201

>  <ModifiedDate>
2014-05-12

>  <Parent>
G

>  <OneLetterCode>
G

>  <SubcomponentList>


>  <AmbiguousFlag>
N

>  <InChI>
InChI=1S/C10H15N5O11P2/c11-10-13-7-4(8(18)14-10)12-2-15(7)9-6(17)5(16)3(25-9)1-24-28(22,23)26-27(19,20)21/h2-3,5-6,9,16-17H,1H2,(H,22,23)(H2,19,20,21)(H3,11,13,14,18)/t3-,5-,6-,9-/m1/s1

>  <InChIKey>
QGWNDRXFNXRZMB-UUOKFMHZSA-N

>  <SMILES>
c1nc2c(n1[C@H]3[C@@H]([C@@H]([C@H](O3)CO[P@](=O)(O)OP(=O)(O)O)O)O)N=C(NC2=O)N

$$$$
