2X2R_X2O_A_1367


 27 28  0  0  0  0  0  0  0  0999 V2000
   54.9234   11.7642    1.1891 C   0  0  0  0  0  0  0  0  0  0  0  0
   54.6933   10.5757   -1.0292 C   0  0  0  0  0  0  0  0  0  0  0  0
   54.5546    9.4280   -1.7973 C   0  0  0  0  0  0  0  0  0  0  0  0
   54.5037    8.1888   -1.1605 C   0  0  0  0  0  0  0  0  0  0  0  0
   54.6027    8.0968    0.2281 C   0  0  0  0  0  0  0  0  0  0  0  0
   54.7385    9.2477    0.9961 C   0  0  0  0  0  0  0  0  0  0  0  0
   54.8023   10.4878    0.3558 C   0  0  0  0  0  0  0  0  0  0  0  0
   55.8069   11.5683    2.4363 C   0  0  0  0  0  0  0  0  0  0  0  0
   55.2815   11.8482    3.7001 C   0  0  0  0  0  0  0  0  0  0  0  0
   56.0584   11.6939    4.8428 C   0  0  0  0  0  0  0  0  0  0  0  0
   57.3743   11.2529    4.7307 C   0  0  0  0  0  0  0  0  0  0  0  0
   57.9035   10.9743    3.4721 C   0  0  0  0  0  0  0  0  0  0  0  0
   57.1256   11.1285    2.3263 C   0  0  0  0  0  0  0  0  0  0  0  0
   55.4640   12.9499    0.3498 C   0  0  0  0  0  0  0  0  0  0  0  0
   56.9475   12.8095   -0.0319 C   0  0  0  0  0  0  0  0  0  0  0  0
   55.3075   14.2759    1.0653 C   0  0  0  0  0  0  0  0  0  0  0  0
   55.6015   15.4072    0.0801 C   0  0  0  0  0  0  0  0  0  0  0  0
   53.2147   12.1048    1.7501 S   0  0  0  0  0  0  0  0  0  0  0  0
   52.3880   12.5318    0.1728 C   0  0  0  0  0  0  0  0  0  0  0  0
   50.9912   13.1275    0.4203 C   0  0  0  0  0  0  0  0  0  0  0  0
   50.8580   13.5446    1.8329 N   0  0  0  0  0  0  0  0  0  0  0  0
   50.9802   12.7340    2.4398 H   0  0  0  0  0  0  0  0  0  0  0  0
   49.9322   13.9454    1.9832 H   0  0  0  0  0  0  0  0  0  0  0  0
   49.9178   12.0984    0.0413 C   0  0  0  0  0  0  0  0  0  0  0  0
   49.6527   11.2302    0.8960 O   0  0  0  0  0  0  0  0  0  0  0  0
   49.3824   12.2071   -1.0840 O   0  0  0  0  0  0  0  0  0  0  0  0
   50.1066   11.2258    1.7157 H   0  0  0  0  0  0  0  0  0  0  0  0
  2  3  1  0  0  0
  2  7  2  0  0  0
  3  4  2  0  0  0
  4  5  1  0  0  0
  5  6  2  0  0  0
  6  7  1  0  0  0
  7  1  1  0  0  0
  1 18  1  0  0  0
  1 14  1  0  0  0
  1  8  1  0  0  0
 18 19  1  0  0  0
 19 20  1  0  0  0
 20 24  1  0  0  0
 20 21  1  0  0  0
 24 25  1  0  0  0
 24 26  2  0  0  0
 14 15  1  0  0  0
 14 16  1  0  0  0
 16 17  1  0  0  0
  8  9  1  0  0  0
  8 13  2  0  0  0
  9 10  2  0  0  0
 10 11  1  0  0  0
 11 12  2  0  0  0
 12 13  1  0  0  0
 25 27  1  0  0  0
 21 22  1  0  0  0
 21 23  1  0  0  0
M  END
> <minimizedAffinity>
-9.60972

$$$$
2X2R_X2O_A_1367


 27 28  0  0  0  0  0  0  0  0999 V2000
   54.7653   11.2745    1.4720 C   0  0  0  0  0  0  0  0  0  0  0  0
   54.6339   13.7954    1.3529 C   0  0  0  0  0  0  0  0  0  0  0  0
   55.0698   15.0255    0.8804 C   0  0  0  0  0  0  0  0  0  0  0  0
   56.1469   15.0684   -0.0037 C   0  0  0  0  0  0  0  0  0  0  0  0
   56.7893   13.8955   -0.4015 C   0  0  0  0  0  0  0  0  0  0  0  0
   56.3494   12.6640    0.0704 C   0  0  0  0  0  0  0  0  0  0  0  0
   55.2781   12.6234    0.9663 C   0  0  0  0  0  0  0  0  0  0  0  0
   54.6454   10.2325    0.3431 C   0  0  0  0  0  0  0  0  0  0  0  0
   54.6478    8.8724    0.6617 C   0  0  0  0  0  0  0  0  0  0  0  0
   54.5546    7.9086   -0.3361 C   0  0  0  0  0  0  0  0  0  0  0  0
   54.4547    8.2994   -1.6687 C   0  0  0  0  0  0  0  0  0  0  0  0
   54.4538    9.6550   -1.9917 C   0  0  0  0  0  0  0  0  0  0  0  0
   54.5471   10.6216   -0.9924 C   0  0  0  0  0  0  0  0  0  0  0  0
   55.6555   10.7101    2.6084 C   0  0  0  0  0  0  0  0  0  0  0  0
   55.2059   11.1402    4.0153 C   0  0  0  0  0  0  0  0  0  0  0  0
   57.1061   11.1187    2.4555 C   0  0  0  0  0  0  0  0  0  0  0  0
   57.7521   11.1765    3.8399 C   0  0  0  0  0  0  0  0  0  0  0  0
   53.0825   11.6329    2.0964 S   0  0  0  0  0  0  0  0  0  0  0  0
   52.1131   11.6655    0.5429 C   0  0  0  0  0  0  0  0  0  0  0  0
   51.0697   12.7960    0.5619 C   0  0  0  0  0  0  0  0  0  0  0  0
   51.1114   13.5063    1.8584 N   0  0  0  0  0  0  0  0  0  0  0  0
   50.8987   12.8520    2.6115 H   0  0  0  0  0  0  0  0  0  0  0  0
   50.4222   14.2582    1.8565 H   0  0  0  0  0  0  0  0  0  0  0  0
   49.6755   12.2149    0.2914 C   0  0  0  0  0  0  0  0  0  0  0  0
   48.9225   12.0927    1.2776 O   0  0  0  0  0  0  0  0  0  0  0  0
   49.3914   11.9158   -0.8896 O   0  0  0  0  0  0  0  0  0  0  0  0
   49.2215   12.3438    2.1293 H   0  0  0  0  0  0  0  0  0  0  0  0
  2  3  1  0  0  0
  2  7  2  0  0  0
  3  4  2  0  0  0
  4  5  1  0  0  0
  5  6  2  0  0  0
  6  7  1  0  0  0
  7  1  1  0  0  0
  1 18  1  0  0  0
  1 14  1  0  0  0
  1  8  1  0  0  0
 18 19  1  0  0  0
 19 20  1  0  0  0
 20 24  1  0  0  0
 20 21  1  0  0  0
 24 25  1  0  0  0
 24 26  2  0  0  0
 14 15  1  0  0  0
 14 16  1  0  0  0
 16 17  1  0  0  0
  8  9  1  0  0  0
  8 13  2  0  0  0
  9 10  2  0  0  0
 10 11  1  0  0  0
 11 12  2  0  0  0
 12 13  1  0  0  0
 25 27  1  0  0  0
 21 22  1  0  0  0
 21 23  1  0  0  0
M  END
> <minimizedAffinity>
-8.73926

$$$$
2X2R_X2O_A_1367


 27 28  0  0  0  0  0  0  0  0999 V2000
   54.7466   11.7702    0.5930 C   0  0  0  0  0  0  0  0  0  0  0  0
   56.8917   11.2137    1.8075 C   0  0  0  0  0  0  0  0  0  0  0  0
   57.6461   11.0759    2.9644 C   0  0  0  0  0  0  0  0  0  0  0  0
   57.0572   11.3626    4.1951 C   0  0  0  0  0  0  0  0  0  0  0  0
   55.7325   11.7945    4.2677 C   0  0  0  0  0  0  0  0  0  0  0  0
   54.9775   11.9290    3.1081 C   0  0  0  0  0  0  0  0  0  0  0  0
   55.5727   11.6536    1.8745 C   0  0  0  0  0  0  0  0  0  0  0  0
   54.6492   10.4322   -0.1652 C   0  0  0  0  0  0  0  0  0  0  0  0
   54.6726    9.2338    0.5521 C   0  0  0  0  0  0  0  0  0  0  0  0
   54.6000    8.0106   -0.1049 C   0  0  0  0  0  0  0  0  0  0  0  0
   54.4997    7.9757   -1.4932 C   0  0  0  0  0  0  0  0  0  0  0  0
   54.4779    9.1685   -2.2134 C   0  0  0  0  0  0  0  0  0  0  0  0
   54.5506   10.3948   -1.5557 C   0  0  0  0  0  0  0  0  0  0  0  0
   53.3226   12.3137    0.8741 C   0  0  0  0  0  0  0  0  0  0  0  0
   52.3139   11.2230    1.2733 C   0  0  0  0  0  0  0  0  0  0  0  0
   52.7438   13.0463   -0.3188 C   0  0  0  0  0  0  0  0  0  0  0  0
   51.2643   12.6847   -0.4510 C   0  0  0  0  0  0  0  0  0  0  0  0
   55.6859   12.9468   -0.4480 S   0  0  0  0  0  0  0  0  0  0  0  0
   55.7132   14.4377    0.6152 C   0  0  0  0  0  0  0  0  0  0  0  0
   55.3666   15.7018   -0.1904 C   0  0  0  0  0  0  0  0  0  0  0  0
   56.4722   16.6804   -0.1038 N   0  0  0  0  0  0  0  0  0  0  0  0
   56.6180   16.9433    0.8709 H   0  0  0  0  0  0  0  0  0  0  0  0
   56.2353   17.5100   -0.6480 H   0  0  0  0  0  0  0  0  0  0  0  0
   54.0530   16.3003    0.3299 C   0  0  0  0  0  0  0  0  0  0  0  0
   53.4840   17.1244   -0.4128 O   0  0  0  0  0  0  0  0  0  0  0  0
   53.6440   15.9164    1.4481 O   0  0  0  0  0  0  0  0  0  0  0  0
   53.8656   17.3534   -1.2374 H   0  0  0  0  0  0  0  0  0  0  0  0
  2  3  1  0  0  0
  2  7  2  0  0  0
  3  4  2  0  0  0
  4  5  1  0  0  0
  5  6  2  0  0  0
  6  7  1  0  0  0
  7  1  1  0  0  0
  1 18  1  0  0  0
  1 14  1  0  0  0
  1  8  1  0  0  0
 18 19  1  0  0  0
 19 20  1  0  0  0
 20 24  1  0  0  0
 20 21  1  0  0  0
 24 25  1  0  0  0
 24 26  2  0  0  0
 14 15  1  0  0  0
 14 16  1  0  0  0
 16 17  1  0  0  0
  8  9  1  0  0  0
  8 13  2  0  0  0
  9 10  2  0  0  0
 10 11  1  0  0  0
 11 12  2  0  0  0
 12 13  1  0  0  0
 25 27  1  0  0  0
 21 22  1  0  0  0
 21 23  1  0  0  0
M  END
> <minimizedAffinity>
-8.63530

$$$$
2X2R_X2O_A_1367


 27 28  0  0  0  0  0  0  0  0999 V2000
   55.0014   11.8994    1.5386 C   0  0  0  0  0  0  0  0  0  0  0  0
   57.1196   11.2523    2.7555 C   0  0  0  0  0  0  0  0  0  0  0  0
   57.8554   11.0510    3.9150 C   0  0  0  0  0  0  0  0  0  0  0  0
   57.2548   11.2948    5.1493 C   0  0  0  0  0  0  0  0  0  0  0  0
   55.9370   11.7468    5.2234 C   0  0  0  0  0  0  0  0  0  0  0  0
   55.2004   11.9451    4.0611 C   0  0  0  0  0  0  0  0  0  0  0  0
   55.8076   11.7126    2.8245 C   0  0  0  0  0  0  0  0  0  0  0  0
   55.2244   13.2855    0.9033 C   0  0  0  0  0  0  0  0  0  0  0  0
   56.3319   13.4915    0.0773 C   0  0  0  0  0  0  0  0  0  0  0  0
   56.5670   14.7346   -0.4995 C   0  0  0  0  0  0  0  0  0  0  0  0
   55.6894   15.7876   -0.2558 C   0  0  0  0  0  0  0  0  0  0  0  0
   54.5842   15.5876    0.5690 C   0  0  0  0  0  0  0  0  0  0  0  0
   54.3477   14.3421    1.1474 C   0  0  0  0  0  0  0  0  0  0  0  0
   55.3138   10.7939    0.4981 C   0  0  0  0  0  0  0  0  0  0  0  0
   54.7005   11.0600   -0.8873 C   0  0  0  0  0  0  0  0  0  0  0  0
   54.8313    9.4307    0.9491 C   0  0  0  0  0  0  0  0  0  0  0  0
   54.6675    8.5333   -0.2777 C   0  0  0  0  0  0  0  0  0  0  0  0
   53.2553   11.7949    2.0776 S   0  0  0  0  0  0  0  0  0  0  0  0
   52.3730   11.8216    0.4729 C   0  0  0  0  0  0  0  0  0  0  0  0
   51.1627   12.7703    0.5193 C   0  0  0  0  0  0  0  0  0  0  0  0
   51.0212   13.3502    1.8724 N   0  0  0  0  0  0  0  0  0  0  0  0
   50.8761   12.6014    2.5497 H   0  0  0  0  0  0  0  0  0  0  0  0
   50.2217   13.9833    1.8891 H   0  0  0  0  0  0  0  0  0  0  0  0
   49.8958   12.0097    0.1055 C   0  0  0  0  0  0  0  0  0  0  0  0
   49.4373   11.1994    0.9348 O   0  0  0  0  0  0  0  0  0  0  0  0
   49.4112   12.2602   -1.0202 O   0  0  0  0  0  0  0  0  0  0  0  0
   49.8689   11.0760    1.7572 H   0  0  0  0  0  0  0  0  0  0  0  0
  2  3  1  0  0  0
  2  7  2  0  0  0
  3  4  2  0  0  0
  4  5  1  0  0  0
  5  6  2  0  0  0
  6  7  1  0  0  0
  7  1  1  0  0  0
  1 18  1  0  0  0
  1 14  1  0  0  0
  1  8  1  0  0  0
 18 19  1  0  0  0
 19 20  1  0  0  0
 20 24  1  0  0  0
 20 21  1  0  0  0
 24 25  1  0  0  0
 24 26  2  0  0  0
 14 15  1  0  0  0
 14 16  1  0  0  0
 16 17  1  0  0  0
  8  9  1  0  0  0
  8 13  2  0  0  0
  9 10  2  0  0  0
 10 11  1  0  0  0
 11 12  2  0  0  0
 12 13  1  0  0  0
 25 27  1  0  0  0
 21 22  1  0  0  0
 21 23  1  0  0  0
M  END
> <minimizedAffinity>
-8.33351

$$$$
2X2R_X2O_A_1367


 27 28  0  0  0  0  0  0  0  0999 V2000
   54.6892   11.8777    0.6400 C   0  0  0  0  0  0  0  0  0  0  0  0
   54.6582   10.3643   -1.3836 C   0  0  0  0  0  0  0  0  0  0  0  0
   54.5947    9.1114   -1.9775 C   0  0  0  0  0  0  0  0  0  0  0  0
   54.4997    7.9814   -1.1665 C   0  0  0  0  0  0  0  0  0  0  0  0
   54.4811    8.1015    0.2233 C   0  0  0  0  0  0  0  0  0  0  0  0
   54.5417    9.3575    0.8165 C   0  0  0  0  0  0  0  0  0  0  0  0
   54.6498   10.4881    0.0029 C   0  0  0  0  0  0  0  0  0  0  0  0
   53.2819   12.4773    0.8259 C   0  0  0  0  0  0  0  0  0  0  0  0
   52.2931   12.2146   -0.1251 C   0  0  0  0  0  0  0  0  0  0  0  0
   51.0179   12.7525    0.0083 C   0  0  0  0  0  0  0  0  0  0  0  0
   50.7184   13.5600    1.1023 C   0  0  0  0  0  0  0  0  0  0  0  0
   51.7021   13.8266    2.0526 C   0  0  0  0  0  0  0  0  0  0  0  0
   52.9803   13.2879    1.9198 C   0  0  0  0  0  0  0  0  0  0  0  0
   55.4335   11.8662    1.9994 C   0  0  0  0  0  0  0  0  0  0  0  0
   56.8620   11.3017    1.9157 C   0  0  0  0  0  0  0  0  0  0  0  0
   54.6939   11.0639    3.0501 C   0  0  0  0  0  0  0  0  0  0  0  0
   55.4521   11.1646    4.3738 C   0  0  0  0  0  0  0  0  0  0  0  0
   55.5911   12.9089   -0.5739 S   0  0  0  0  0  0  0  0  0  0  0  0
   55.8880   14.4372    0.3906 C   0  0  0  0  0  0  0  0  0  0  0  0
   55.4461   15.6847   -0.3940 C   0  0  0  0  0  0  0  0  0  0  0  0
   56.3754   16.8056   -0.1344 N   0  0  0  0  0  0  0  0  0  0  0  0
   56.3714   17.0269    0.8612 H   0  0  0  0  0  0  0  0  0  0  0  0
   56.0779   17.6239   -0.6658 H   0  0  0  0  0  0  0  0  0  0  0  0
   54.0080   16.0543   -0.0068 C   0  0  0  0  0  0  0  0  0  0  0  0
   53.8551   16.6141    1.0967 O   0  0  0  0  0  0  0  0  0  0  0  0
   53.0995   15.7790   -0.8215 O   0  0  0  0  0  0  0  0  0  0  0  0
   54.5970   16.7813    1.6441 H   0  0  0  0  0  0  0  0  0  0  0  0
  2  3  1  0  0  0
  2  7  2  0  0  0
  3  4  2  0  0  0
  4  5  1  0  0  0
  5  6  2  0  0  0
  6  7  1  0  0  0
  7  1  1  0  0  0
  1 18  1  0  0  0
  1 14  1  0  0  0
  1  8  1  0  0  0
 18 19  1  0  0  0
 19 20  1  0  0  0
 20 24  1  0  0  0
 20 21  1  0  0  0
 24 25  1  0  0  0
 24 26  2  0  0  0
 14 15  1  0  0  0
 14 16  1  0  0  0
 16 17  1  0  0  0
  8  9  1  0  0  0
  8 13  2  0  0  0
  9 10  2  0  0  0
 10 11  1  0  0  0
 11 12  2  0  0  0
 12 13  1  0  0  0
 25 27  1  0  0  0
 21 22  1  0  0  0
 21 23  1  0  0  0
M  END
> <minimizedAffinity>
-7.79403

$$$$
2X2R_X2O_A_1367


 27 28  0  0  0  0  0  0  0  0999 V2000
   54.8052   11.6663    1.0318 C   0  0  0  0  0  0  0  0  0  0  0  0
   54.6560    9.1463    0.9166 C   0  0  0  0  0  0  0  0  0  0  0  0
   54.5717    7.9534    0.2120 C   0  0  0  0  0  0  0  0  0  0  0  0
   54.5350    7.9908   -1.1812 C   0  0  0  0  0  0  0  0  0  0  0  0
   54.5697    9.2078   -1.8624 C   0  0  0  0  0  0  0  0  0  0  0  0
   54.6572   10.4016   -1.1551 C   0  0  0  0  0  0  0  0  0  0  0  0
   54.6810   10.3634    0.2413 C   0  0  0  0  0  0  0  0  0  0  0  0
   55.6439   11.4966    2.3134 C   0  0  0  0  0  0  0  0  0  0  0  0
   57.0042   11.1968    2.2085 C   0  0  0  0  0  0  0  0  0  0  0  0
   57.7839   11.0245    3.3467 C   0  0  0  0  0  0  0  0  0  0  0  0
   57.2067   11.1543    4.6071 C   0  0  0  0  0  0  0  0  0  0  0  0
   55.8497   11.4514    4.7169 C   0  0  0  0  0  0  0  0  0  0  0  0
   55.0675   11.6243    3.5768 C   0  0  0  0  0  0  0  0  0  0  0  0
   55.3996   12.8083    0.1688 C   0  0  0  0  0  0  0  0  0  0  0  0
   56.1343   13.8827    0.9888 C   0  0  0  0  0  0  0  0  0  0  0  0
   54.3411   13.5154   -0.6524 C   0  0  0  0  0  0  0  0  0  0  0  0
   54.8205   14.9337   -0.9614 C   0  0  0  0  0  0  0  0  0  0  0  0
   53.0880   12.0648    1.5245 S   0  0  0  0  0  0  0  0  0  0  0  0
   53.2904   13.7367    2.2440 C   0  0  0  0  0  0  0  0  0  0  0  0
   51.9667   14.5202    2.2117 C   0  0  0  0  0  0  0  0  0  0  0  0
   50.8705   13.6492    1.7354 N   0  0  0  0  0  0  0  0  0  0  0  0
   51.0807   13.3231    0.7921 H   0  0  0  0  0  0  0  0  0  0  0  0
   49.9971   14.1762    1.7262 H   0  0  0  0  0  0  0  0  0  0  0  0
   52.1220   15.7573    1.3172 C   0  0  0  0  0  0  0  0  0  0  0  0
   51.5568   15.7157    0.2067 O   0  0  0  0  0  0  0  0  0  0  0  0
   52.7907   16.7154    1.7642 O   0  0  0  0  0  0  0  0  0  0  0  0
   51.0752   14.9525   -0.0456 H   0  0  0  0  0  0  0  0  0  0  0  0
  2  3  1  0  0  0
  2  7  2  0  0  0
  3  4  2  0  0  0
  4  5  1  0  0  0
  5  6  2  0  0  0
  6  7  1  0  0  0
  7  1  1  0  0  0
  1 18  1  0  0  0
  1 14  1  0  0  0
  1  8  1  0  0  0
 18 19  1  0  0  0
 19 20  1  0  0  0
 20 24  1  0  0  0
 20 21  1  0  0  0
 24 25  1  0  0  0
 24 26  2  0  0  0
 14 15  1  0  0  0
 14 16  1  0  0  0
 16 17  1  0  0  0
  8  9  1  0  0  0
  8 13  2  0  0  0
  9 10  2  0  0  0
 10 11  1  0  0  0
 11 12  2  0  0  0
 12 13  1  0  0  0
 25 27  1  0  0  0
 21 22  1  0  0  0
 21 23  1  0  0  0
M  END
> <minimizedAffinity>
-7.79012

$$$$
2X2R_X2O_A_1367


 27 28  0  0  0  0  0  0  0  0999 V2000
   53.9296   12.4790    0.6702 C   0  0  0  0  0  0  0  0  0  0  0  0
   51.7498   13.4265    1.5286 C   0  0  0  0  0  0  0  0  0  0  0  0
   50.4354   13.8353    1.3508 C   0  0  0  0  0  0  0  0  0  0  0  0
   49.8637   13.7451    0.0824 C   0  0  0  0  0  0  0  0  0  0  0  0
   50.6017   13.2632   -0.9991 C   0  0  0  0  0  0  0  0  0  0  0  0
   51.9172   12.8513   -0.8185 C   0  0  0  0  0  0  0  0  0  0  0  0
   52.4929   12.9542    0.4504 C   0  0  0  0  0  0  0  0  0  0  0  0
   54.1580   11.0450    0.1544 C   0  0  0  0  0  0  0  0  0  0  0  0
   54.3532   10.8303   -1.2121 C   0  0  0  0  0  0  0  0  0  0  0  0
   54.5483    9.5466   -1.7091 C   0  0  0  0  0  0  0  0  0  0  0  0
   54.5529    8.4605   -0.8379 C   0  0  0  0  0  0  0  0  0  0  0  0
   54.3567    8.6693    0.5258 C   0  0  0  0  0  0  0  0  0  0  0  0
   54.1612    9.9555    1.0248 C   0  0  0  0  0  0  0  0  0  0  0  0
   54.9585   13.4367    0.0171 C   0  0  0  0  0  0  0  0  0  0  0  0
   56.3962   12.8894    0.0158 C   0  0  0  0  0  0  0  0  0  0  0  0
   54.9932   14.7896    0.6976 C   0  0  0  0  0  0  0  0  0  0  0  0
   54.8180   15.8797   -0.3599 C   0  0  0  0  0  0  0  0  0  0  0  0
   54.1316   12.4680    2.4894 S   0  0  0  0  0  0  0  0  0  0  0  0
   55.7781   11.6873    2.6718 C   0  0  0  0  0  0  0  0  0  0  0  0
   55.9227   11.0083    4.0449 C   0  0  0  0  0  0  0  0  0  0  0  0
   54.8575   11.4746    4.9587 N   0  0  0  0  0  0  0  0  0  0  0  0
   54.9341   12.4841    5.0832 H   0  0  0  0  0  0  0  0  0  0  0  0
   54.9581   11.0120    5.8622 H   0  0  0  0  0  0  0  0  0  0  0  0
   57.3151   11.3003    4.6199 C   0  0  0  0  0  0  0  0  0  0  0  0
   57.3549   11.7392    5.7862 O   0  0  0  0  0  0  0  0  0  0  0  0
   58.3039   11.0711    3.8886 O   0  0  0  0  0  0  0  0  0  0  0  0
   56.5595   11.8810    6.2608 H   0  0  0  0  0  0  0  0  0  0  0  0
  2  3  1  0  0  0
  2  7  2  0  0  0
  3  4  2  0  0  0
  4  5  1  0  0  0
  5  6  2  0  0  0
  6  7  1  0  0  0
  7  1  1  0  0  0
  1 18  1  0  0  0
  1 14  1  0  0  0
  1  8  1  0  0  0
 18 19  1  0  0  0
 19 20  1  0  0  0
 20 24  1  0  0  0
 20 21  1  0  0  0
 24 25  1  0  0  0
 24 26  2  0  0  0
 14 15  1  0  0  0
 14 16  1  0  0  0
 16 17  1  0  0  0
  8  9  1  0  0  0
  8 13  2  0  0  0
  9 10  2  0  0  0
 10 11  1  0  0  0
 11 12  2  0  0  0
 12 13  1  0  0  0
 25 27  1  0  0  0
 21 22  1  0  0  0
 21 23  1  0  0  0
M  END
> <minimizedAffinity>
-7.63046

$$$$
2X2R_X2O_A_1367


 27 28  0  0  0  0  0  0  0  0999 V2000
   54.3095   11.5968    0.6914 C   0  0  0  0  0  0  0  0  0  0  0  0
   52.7838   13.1831    1.9331 C   0  0  0  0  0  0  0  0  0  0  0  0
   51.6098   13.9136    2.0537 C   0  0  0  0  0  0  0  0  0  0  0  0
   50.6666   13.8540    1.0287 C   0  0  0  0  0  0  0  0  0  0  0  0
   50.8998   13.0825   -0.1101 C   0  0  0  0  0  0  0  0  0  0  0  0
   52.0749   12.3491   -0.2279 C   0  0  0  0  0  0  0  0  0  0  0  0
   53.0249   12.4198    0.7942 C   0  0  0  0  0  0  0  0  0  0  0  0
   55.0161   11.4409    2.0520 C   0  0  0  0  0  0  0  0  0  0  0  0
   56.4120   11.4428    2.1044 C   0  0  0  0  0  0  0  0  0  0  0  0
   57.0780   11.2906    3.3153 C   0  0  0  0  0  0  0  0  0  0  0  0
   56.3489   11.1373    4.4916 C   0  0  0  0  0  0  0  0  0  0  0  0
   54.9562   11.1328    4.4442 C   0  0  0  0  0  0  0  0  0  0  0  0
   54.2879   11.2853    3.2311 C   0  0  0  0  0  0  0  0  0  0  0  0
   54.0488   10.1977    0.0774 C   0  0  0  0  0  0  0  0  0  0  0  0
   54.6525    9.0431    0.8951 C   0  0  0  0  0  0  0  0  0  0  0  0
   54.5906   10.0815   -1.3324 C   0  0  0  0  0  0  0  0  0  0  0  0
   54.4602    8.6299   -1.7942 C   0  0  0  0  0  0  0  0  0  0  0  0
   55.3951   12.5832   -0.4035 S   0  0  0  0  0  0  0  0  0  0  0  0
   55.5371   14.1499    0.5341 C   0  0  0  0  0  0  0  0  0  0  0  0
   55.2848   15.3663   -0.3736 C   0  0  0  0  0  0  0  0  0  0  0  0
   56.3525   16.3723   -0.1861 N   0  0  0  0  0  0  0  0  0  0  0  0
   56.3589   16.6844    0.7849 H   0  0  0  0  0  0  0  0  0  0  0  0
   56.1797   17.1696   -0.7984 H   0  0  0  0  0  0  0  0  0  0  0  0
   53.9029   15.9593   -0.0680 C   0  0  0  0  0  0  0  0  0  0  0  0
   53.0238   15.7988   -0.9374 O   0  0  0  0  0  0  0  0  0  0  0  0
   53.7540   16.5485    1.0254 O   0  0  0  0  0  0  0  0  0  0  0  0
   53.2266   15.3423   -1.7302 H   0  0  0  0  0  0  0  0  0  0  0  0
  2  3  1  0  0  0
  2  7  2  0  0  0
  3  4  2  0  0  0
  4  5  1  0  0  0
  5  6  2  0  0  0
  6  7  1  0  0  0
  7  1  1  0  0  0
  1 18  1  0  0  0
  1 14  1  0  0  0
  1  8  1  0  0  0
 18 19  1  0  0  0
 19 20  1  0  0  0
 20 24  1  0  0  0
 20 21  1  0  0  0
 24 25  1  0  0  0
 24 26  2  0  0  0
 14 15  1  0  0  0
 14 16  1  0  0  0
 16 17  1  0  0  0
  8  9  1  0  0  0
  8 13  2  0  0  0
  9 10  2  0  0  0
 10 11  1  0  0  0
 11 12  2  0  0  0
 12 13  1  0  0  0
 25 27  1  0  0  0
 21 22  1  0  0  0
 21 23  1  0  0  0
M  END
> <minimizedAffinity>
-7.53991

$$$$
2X2R_X2O_A_1367


 27 28  0  0  0  0  0  0  0  0999 V2000
   53.6008   11.7119    0.1273 C   0  0  0  0  0  0  0  0  0  0  0  0
   54.3435   14.0970   -0.2545 C   0  0  0  0  0  0  0  0  0  0  0  0
   55.3248   15.0669   -0.4059 C   0  0  0  0  0  0  0  0  0  0  0  0
   56.6654   14.6920   -0.3281 C   0  0  0  0  0  0  0  0  0  0  0  0
   57.0212   13.3643   -0.0892 C   0  0  0  0  0  0  0  0  0  0  0  0
   56.0370   12.3936    0.0593 C   0  0  0  0  0  0  0  0  0  0  0  0
   54.6939   12.7728   -0.0062 C   0  0  0  0  0  0  0  0  0  0  0  0
   53.9033   10.4509   -0.7052 C   0  0  0  0  0  0  0  0  0  0  0  0
   53.8546   10.5212   -2.0995 C   0  0  0  0  0  0  0  0  0  0  0  0
   54.1095    9.3971   -2.8771 C   0  0  0  0  0  0  0  0  0  0  0  0
   54.4200    8.1867   -2.2630 C   0  0  0  0  0  0  0  0  0  0  0  0
   54.4678    8.1111   -0.8724 C   0  0  0  0  0  0  0  0  0  0  0  0
   54.2126    9.2371   -0.0923 C   0  0  0  0  0  0  0  0  0  0  0  0
   53.3628   11.3141    1.6062 C   0  0  0  0  0  0  0  0  0  0  0  0
   53.2710   12.5166    2.5612 C   0  0  0  0  0  0  0  0  0  0  0  0
   54.4500   10.4017    2.1356 C   0  0  0  0  0  0  0  0  0  0  0  0
   55.0110   10.9981    3.4265 C   0  0  0  0  0  0  0  0  0  0  0  0
   52.1069   12.5082   -0.5689 S   0  0  0  0  0  0  0  0  0  0  0  0
   50.7911   11.8245    0.5059 C   0  0  0  0  0  0  0  0  0  0  0  0
   49.5719   12.7615    0.5571 C   0  0  0  0  0  0  0  0  0  0  0  0
   48.6568   12.3481    1.6429 N   0  0  0  0  0  0  0  0  0  0  0  0
   48.3314   11.3971    1.4698 H   0  0  0  0  0  0  0  0  0  0  0  0
   47.8572   12.9808    1.6730 H   0  0  0  0  0  0  0  0  0  0  0  0
   48.8598   12.7552   -0.8021 C   0  0  0  0  0  0  0  0  0  0  0  0
   48.6253   11.6375   -1.3025 O   0  0  0  0  0  0  0  0  0  0  0  0
   48.5591   13.8609   -1.3040 O   0  0  0  0  0  0  0  0  0  0  0  0
   48.8884   10.8585   -0.8531 H   0  0  0  0  0  0  0  0  0  0  0  0
  2  3  1  0  0  0
  2  7  2  0  0  0
  3  4  2  0  0  0
  4  5  1  0  0  0
  5  6  2  0  0  0
  6  7  1  0  0  0
  7  1  1  0  0  0
  1 18  1  0  0  0
  1 14  1  0  0  0
  1  8  1  0  0  0
 18 19  1  0  0  0
 19 20  1  0  0  0
 20 24  1  0  0  0
 20 21  1  0  0  0
 24 25  1  0  0  0
 24 26  2  0  0  0
 14 15  1  0  0  0
 14 16  1  0  0  0
 16 17  1  0  0  0
  8  9  1  0  0  0
  8 13  2  0  0  0
  9 10  2  0  0  0
 10 11  1  0  0  0
 11 12  2  0  0  0
 12 13  1  0  0  0
 25 27  1  0  0  0
 21 22  1  0  0  0
 21 23  1  0  0  0
M  END
> <minimizedAffinity>
-7.45105

$$$$
2X2R_X2O_A_1367


 27 28  0  0  0  0  0  0  0  0999 V2000
   54.9650   12.0820    1.1658 C   0  0  0  0  0  0  0  0  0  0  0  0
   56.9764   11.3786    2.5243 C   0  0  0  0  0  0  0  0  0  0  0  0
   57.6276   11.1649    3.7312 C   0  0  0  0  0  0  0  0  0  0  0  0
   56.9557   11.4400    4.9214 C   0  0  0  0  0  0  0  0  0  0  0  0
   55.6515   11.9352    4.9052 C   0  0  0  0  0  0  0  0  0  0  0  0
   54.9997   12.1458    3.6955 C   0  0  0  0  0  0  0  0  0  0  0  0
   55.6786   11.8818    2.5033 C   0  0  0  0  0  0  0  0  0  0  0  0
   53.5851   12.7477    1.3317 C   0  0  0  0  0  0  0  0  0  0  0  0
   52.4665   12.1674    0.7290 C   0  0  0  0  0  0  0  0  0  0  0  0
   51.2107   12.7520    0.8496 C   0  0  0  0  0  0  0  0  0  0  0  0
   51.0619   13.9275    1.5809 C   0  0  0  0  0  0  0  0  0  0  0  0
   52.1752   14.5112    2.1823 C   0  0  0  0  0  0  0  0  0  0  0  0
   53.4341   13.9260    2.0621 C   0  0  0  0  0  0  0  0  0  0  0  0
   55.8241   12.9060    0.1732 C   0  0  0  0  0  0  0  0  0  0  0  0
   57.2818   12.4251    0.0725 C   0  0  0  0  0  0  0  0  0  0  0  0
   55.8599   14.3773    0.5319 C   0  0  0  0  0  0  0  0  0  0  0  0
   55.4768   15.1964   -0.7008 C   0  0  0  0  0  0  0  0  0  0  0  0
   54.7052   10.3852    0.5305 S   0  0  0  0  0  0  0  0  0  0  0  0
   54.5523   10.6859   -1.2695 C   0  0  0  0  0  0  0  0  0  0  0  0
   54.0393    9.4334   -2.0011 C   0  0  0  0  0  0  0  0  0  0  0  0
   54.5758    8.2133   -1.3603 N   0  0  0  0  0  0  0  0  0  0  0  0
   55.5947    8.2249   -1.4066 H   0  0  0  0  0  0  0  0  0  0  0  0
   54.2227    7.3898   -1.8478 H   0  0  0  0  0  0  0  0  0  0  0  0
   54.4355    9.5033   -3.4819 C   0  0  0  0  0  0  0  0  0  0  0  0
   53.8615   10.3692   -4.1714 O   0  0  0  0  0  0  0  0  0  0  0  0
   55.3047    8.7005   -3.8878 O   0  0  0  0  0  0  0  0  0  0  0  0
   53.2201   10.9296   -3.7809 H   0  0  0  0  0  0  0  0  0  0  0  0
  2  3  1  0  0  0
  2  7  2  0  0  0
  3  4  2  0  0  0
  4  5  1  0  0  0
  5  6  2  0  0  0
  6  7  1  0  0  0
  7  1  1  0  0  0
  1 18  1  0  0  0
  1 14  1  0  0  0
  1  8  1  0  0  0
 18 19  1  0  0  0
 19 20  1  0  0  0
 20 24  1  0  0  0
 20 21  1  0  0  0
 24 25  1  0  0  0
 24 26  2  0  0  0
 14 15  1  0  0  0
 14 16  1  0  0  0
 16 17  1  0  0  0
  8  9  1  0  0  0
  8 13  2  0  0  0
  9 10  2  0  0  0
 10 11  1  0  0  0
 11 12  2  0  0  0
 12 13  1  0  0  0
 25 27  1  0  0  0
 21 22  1  0  0  0
 21 23  1  0  0  0
M  END
> <minimizedAffinity>
-7.24459

$$$$
