5JXQ_6OK_A_405


 33 36  0  0  0  0  0  0  0  0999 V2000
  108.6313   19.5396   20.4365 C   0  0  0  0  0  0  0  0  0  0  0  0
  107.0492   19.0252   18.6783 C   0  0  0  0  0  0  0  0  0  0  0  0
  106.0778   18.6914   19.6183 C   0  0  0  0  0  0  0  0  0  0  0  0
  106.3905   18.7977   20.9712 C   0  0  0  0  0  0  0  0  0  0  0  0
  107.6571   19.2195   21.3669 C   0  0  0  0  0  0  0  0  0  0  0  0
  108.3229   19.4494   19.0859 C   0  0  0  0  0  0  0  0  0  0  0  0
  107.9355   19.3372   22.8177 C   0  0  0  0  0  0  0  0  0  0  0  0
  105.4705   18.4840   21.9160 N   0  0  0  0  0  0  0  0  0  0  0  0
  105.7345   18.6188   23.2321 C   0  0  0  0  0  0  0  0  0  0  0  0
  104.7666   18.3241   24.1255 N   0  0  0  0  0  0  0  0  0  0  0  0
  106.9394   19.0434   23.6692 N   0  0  0  0  0  0  0  0  0  0  0  0
  109.0679   19.7120   17.9810 N   0  0  0  0  0  0  0  0  0  0  0  0
  107.0140   19.0457   17.3236 N   0  0  0  0  0  0  0  0  0  0  0  0
  108.2422   19.4583   16.9574 C   0  0  0  0  0  0  0  0  0  0  0  0
  109.0456   19.7177   23.2581 O   0  0  0  0  0  0  0  0  0  0  0  0
  103.8861   18.0140   23.8129 H   0  0  0  0  0  0  0  0  0  0  0  0
  104.9412   18.4191   25.0897 H   0  0  0  0  0  0  0  0  0  0  0  0
  107.0917   19.1401   24.6370 H   0  0  0  0  0  0  0  0  0  0  0  0
  110.0025   20.0191   17.9415 H   0  0  0  0  0  0  0  0  0  0  0  0
  108.6381   19.6144   15.6708 N   0  0  0  0  0  0  0  0  0  0  0  0
  109.3550   19.0404   15.3162 H   0  0  0  0  0  0  0  0  0  0  0  0
  108.0259   20.6157   14.7947 C   0  0  0  0  0  0  0  0  0  0  0  0
  107.2529   19.9531   13.6489 C   0  0  0  0  0  0  0  0  0  0  0  0
  103.3725   18.2614   14.6526 C   0  0  0  0  0  0  0  0  0  0  0  0
  104.3659   17.4669   14.0780 C   0  0  0  0  0  0  0  0  0  0  0  0
  105.6139   18.0123   13.7571 C   0  0  0  0  0  0  0  0  0  0  0  0
  105.8870   19.3618   13.9792 C   0  0  0  0  0  0  0  0  0  0  0  0
  104.8944   20.1520   14.5495 C   0  0  0  0  0  0  0  0  0  0  0  0
  103.6507   19.6084   14.8666 C   0  0  0  0  0  0  0  0  0  0  0  0
  101.9824   17.7351   15.0100 C   0  0  0  0  0  0  0  0  0  0  0  0
  101.8471   16.8750   16.2674 C   0  0  0  0  0  0  0  0  0  0  0  0
  102.1591   17.6536   17.4515 O   0  0  0  0  0  0  0  0  0  0  0  0
  101.5428   18.3996   17.5196 H   0  0  0  0  0  0  0  0  0  0  0  0
 32 31  1  0  0  0
 31 30  1  0  0  0
 30 24  1  0  0  0
 24 29  2  0  0  0
 24 25  1  0  0  0
 29 28  1  0  0  0
 25 26  2  0  0  0
 28 27  2  0  0  0
 26 27  1  0  0  0
 27 23  1  0  0  0
 23 22  1  0  0  0
 22 20  1  0  0  0
 20 14  1  0  0  0
 14 13  2  0  0  0
 14 12  1  0  0  0
 13  2  1  0  0  0
 12  6  1  0  0  0
  2  6  2  0  0  0
  2  3  1  0  0  0
  6  1  1  0  0  0
  3  4  2  0  0  0
  1  5  2  0  0  0
  4  5  1  0  0  0
  4  8  1  0  0  0
  5  7  1  0  0  0
  8  9  2  0  0  0
  7 15  2  0  0  0
  7 11  1  0  0  0
  9 11  1  0  0  0
  9 10  1  0  0  0
 10 16  1  0  0  0
 10 17  1  0  0  0
 11 18  1  0  0  0
 12 19  1  0  0  0
 20 21  1  0  0  0
 32 33  1  0  0  0
M  END
> <minimizedAffinity>
-10.47424

$$$$
5JXQ_6OK_A_405


 33 36  0  0  0  0  0  0  0  0999 V2000
  108.6401   19.5303   20.4618 C   0  0  0  0  0  0  0  0  0  0  0  0
  107.0689   19.0110   18.6952 C   0  0  0  0  0  0  0  0  0  0  0  0
  106.0928   18.6766   19.6300 C   0  0  0  0  0  0  0  0  0  0  0  0
  106.3975   18.7851   20.9846 C   0  0  0  0  0  0  0  0  0  0  0  0
  107.6611   19.2096   21.3870 C   0  0  0  0  0  0  0  0  0  0  0  0
  108.3396   19.4378   19.1096 C   0  0  0  0  0  0  0  0  0  0  0  0
  107.9311   19.3297   22.8392 C   0  0  0  0  0  0  0  0  0  0  0  0
  105.4727   18.4711   21.9246 N   0  0  0  0  0  0  0  0  0  0  0  0
  105.7290   18.6079   23.2420 C   0  0  0  0  0  0  0  0  0  0  0  0
  104.7565   18.3127   24.1302 N   0  0  0  0  0  0  0  0  0  0  0  0
  106.9306   19.0352   23.6854 N   0  0  0  0  0  0  0  0  0  0  0  0
  109.0905   19.7004   18.0086 N   0  0  0  0  0  0  0  0  0  0  0  0
  107.0415   19.0297   17.3403 N   0  0  0  0  0  0  0  0  0  0  0  0
  108.2710   19.4440   16.9806 C   0  0  0  0  0  0  0  0  0  0  0  0
  109.0379   19.7126   23.2855 O   0  0  0  0  0  0  0  0  0  0  0  0
  103.8783   18.0007   23.8129 H   0  0  0  0  0  0  0  0  0  0  0  0
  104.9254   18.4092   25.0952 H   0  0  0  0  0  0  0  0  0  0  0  0
  107.0771   19.1333   24.6539 H   0  0  0  0  0  0  0  0  0  0  0  0
  110.0247   20.0090   17.9741 H   0  0  0  0  0  0  0  0  0  0  0  0
  108.6740   19.5991   15.6961 N   0  0  0  0  0  0  0  0  0  0  0  0
  109.4590   19.0988   15.3755 H   0  0  0  0  0  0  0  0  0  0  0  0
  107.9708   20.4924   14.7728 C   0  0  0  0  0  0  0  0  0  0  0  0
  106.9388   19.7270   13.9369 C   0  0  0  0  0  0  0  0  0  0  0  0
  102.8837   21.2928   13.7606 C   0  0  0  0  0  0  0  0  0  0  0  0
  103.8080   21.6022   12.7615 C   0  0  0  0  0  0  0  0  0  0  0  0
  105.1114   21.0965   12.8190 C   0  0  0  0  0  0  0  0  0  0  0  0
  105.5251   20.2953   13.8829 C   0  0  0  0  0  0  0  0  0  0  0  0
  104.6029   19.9907   14.8788 C   0  0  0  0  0  0  0  0  0  0  0  0
  103.3054   20.4968   14.8219 C   0  0  0  0  0  0  0  0  0  0  0  0
  101.4510   21.8262   13.7696 C   0  0  0  0  0  0  0  0  0  0  0  0
  101.2513   23.3303   13.9612 C   0  0  0  0  0  0  0  0  0  0  0  0
  101.9271   23.7835   15.1627 O   0  0  0  0  0  0  0  0  0  0  0  0
  102.8775   23.6053   15.0859 H   0  0  0  0  0  0  0  0  0  0  0  0
 32 31  1  0  0  0
 31 30  1  0  0  0
 30 24  1  0  0  0
 24 29  2  0  0  0
 24 25  1  0  0  0
 29 28  1  0  0  0
 25 26  2  0  0  0
 28 27  2  0  0  0
 26 27  1  0  0  0
 27 23  1  0  0  0
 23 22  1  0  0  0
 22 20  1  0  0  0
 20 14  1  0  0  0
 14 13  2  0  0  0
 14 12  1  0  0  0
 13  2  1  0  0  0
 12  6  1  0  0  0
  2  6  2  0  0  0
  2  3  1  0  0  0
  6  1  1  0  0  0
  3  4  2  0  0  0
  1  5  2  0  0  0
  4  5  1  0  0  0
  4  8  1  0  0  0
  5  7  1  0  0  0
  8  9  2  0  0  0
  7 15  2  0  0  0
  7 11  1  0  0  0
  9 11  1  0  0  0
  9 10  1  0  0  0
 10 16  1  0  0  0
 10 17  1  0  0  0
 11 18  1  0  0  0
 12 19  1  0  0  0
 20 21  1  0  0  0
 32 33  1  0  0  0
M  END
> <minimizedAffinity>
-9.42288

$$$$
5JXQ_6OK_A_405


 33 36  0  0  0  0  0  0  0  0999 V2000
  108.6554   19.5454   20.4743 C   0  0  0  0  0  0  0  0  0  0  0  0
  107.0570   19.0337   18.7302 C   0  0  0  0  0  0  0  0  0  0  0  0
  106.0992   18.6843   19.6785 C   0  0  0  0  0  0  0  0  0  0  0  0
  106.4268   18.7815   21.0285 C   0  0  0  0  0  0  0  0  0  0  0  0
  107.6946   19.2097   21.4132 C   0  0  0  0  0  0  0  0  0  0  0  0
  108.3320   19.4643   19.1267 C   0  0  0  0  0  0  0  0  0  0  0  0
  107.9890   19.3173   22.8616 C   0  0  0  0  0  0  0  0  0  0  0  0
  105.5203   18.4527   21.9813 N   0  0  0  0  0  0  0  0  0  0  0  0
  105.7986   18.5783   23.2953 C   0  0  0  0  0  0  0  0  0  0  0  0
  104.8435   18.2684   24.1973 N   0  0  0  0  0  0  0  0  0  0  0  0
  107.0052   19.0085   23.7220 N   0  0  0  0  0  0  0  0  0  0  0  0
  109.0621   19.7421   18.0156 N   0  0  0  0  0  0  0  0  0  0  0  0
  107.0058   19.0655   17.3763 N   0  0  0  0  0  0  0  0  0  0  0  0
  108.2264   19.4907   16.9994 C   0  0  0  0  0  0  0  0  0  0  0  0
  109.1012   19.7027   23.2924 O   0  0  0  0  0  0  0  0  0  0  0  0
  103.9617   17.9542   23.8922 H   0  0  0  0  0  0  0  0  0  0  0  0
  105.0285   18.3566   25.1602 H   0  0  0  0  0  0  0  0  0  0  0  0
  107.1680   19.0981   24.6888 H   0  0  0  0  0  0  0  0  0  0  0  0
  109.9938   20.0568   17.9679 H   0  0  0  0  0  0  0  0  0  0  0  0
  108.6061   19.6608   15.7097 N   0  0  0  0  0  0  0  0  0  0  0  0
  109.5609   19.5978   15.4781 H   0  0  0  0  0  0  0  0  0  0  0  0
  107.6314   19.9362   14.6518 C   0  0  0  0  0  0  0  0  0  0  0  0
  108.1951   20.9185   13.6190 C   0  0  0  0  0  0  0  0  0  0  0  0
  109.7049   19.3050    9.8715 C   0  0  0  0  0  0  0  0  0  0  0  0
  108.3454   19.5789   10.0298 C   0  0  0  0  0  0  0  0  0  0  0  0
  107.8617   20.0992   11.2353 C   0  0  0  0  0  0  0  0  0  0  0  0
  108.7171   20.3329   12.3118 C   0  0  0  0  0  0  0  0  0  0  0  0
  110.0711   20.0565   12.1524 C   0  0  0  0  0  0  0  0  0  0  0  0
  110.5516   19.5360   10.9520 C   0  0  0  0  0  0  0  0  0  0  0  0
  110.2969   18.7187    8.5897 C   0  0  0  0  0  0  0  0  0  0  0  0
  110.9194   19.6878    7.5835 C   0  0  0  0  0  0  0  0  0  0  0  0
  110.4367   21.0370    7.8122 O   0  0  0  0  0  0  0  0  0  0  0  0
  110.6818   21.3208    8.7068 H   0  0  0  0  0  0  0  0  0  0  0  0
 32 31  1  0  0  0
 31 30  1  0  0  0
 30 24  1  0  0  0
 24 29  2  0  0  0
 24 25  1  0  0  0
 29 28  1  0  0  0
 25 26  2  0  0  0
 28 27  2  0  0  0
 26 27  1  0  0  0
 27 23  1  0  0  0
 23 22  1  0  0  0
 22 20  1  0  0  0
 20 14  1  0  0  0
 14 13  2  0  0  0
 14 12  1  0  0  0
 13  2  1  0  0  0
 12  6  1  0  0  0
  2  6  2  0  0  0
  2  3  1  0  0  0
  6  1  1  0  0  0
  3  4  2  0  0  0
  1  5  2  0  0  0
  4  5  1  0  0  0
  4  8  1  0  0  0
  5  7  1  0  0  0
  8  9  2  0  0  0
  7 15  2  0  0  0
  7 11  1  0  0  0
  9 11  1  0  0  0
  9 10  1  0  0  0
 10 16  1  0  0  0
 10 17  1  0  0  0
 11 18  1  0  0  0
 12 19  1  0  0  0
 20 21  1  0  0  0
 32 33  1  0  0  0
M  END
> <minimizedAffinity>
-8.97805

$$$$
5JXQ_6OK_A_405


 33 36  0  0  0  0  0  0  0  0999 V2000
  108.3494   20.7531   13.3617 C   0  0  0  0  0  0  0  0  0  0  0  0
  106.2805   19.6109   12.8384 C   0  0  0  0  0  0  0  0  0  0  0  0
  106.7640   19.2628   11.5799 C   0  0  0  0  0  0  0  0  0  0  0  0
  108.0521   19.6556   11.2252 C   0  0  0  0  0  0  0  0  0  0  0  0
  108.8302   20.3924   12.1143 C   0  0  0  0  0  0  0  0  0  0  0  0
  107.0714   20.3535   13.7280 C   0  0  0  0  0  0  0  0  0  0  0  0
  110.2023   20.7688   11.6998 C   0  0  0  0  0  0  0  0  0  0  0  0
  108.5589   19.3335   10.0099 N   0  0  0  0  0  0  0  0  0  0  0  0
  109.8183   19.6654    9.6585 C   0  0  0  0  0  0  0  0  0  0  0  0
  110.2794   19.2867    8.4477 N   0  0  0  0  0  0  0  0  0  0  0  0
  110.6219   20.3615   10.4908 N   0  0  0  0  0  0  0  0  0  0  0  0
  106.3685   20.5513   14.8733 N   0  0  0  0  0  0  0  0  0  0  0  0
  105.1011   19.3424   13.4496 N   0  0  0  0  0  0  0  0  0  0  0  0
  105.2029   19.9277   14.6578 C   0  0  0  0  0  0  0  0  0  0  0  0
  110.9707   21.4234   12.4428 O   0  0  0  0  0  0  0  0  0  0  0  0
  109.6983   18.7790    7.8364 H   0  0  0  0  0  0  0  0  0  0  0  0
  111.1969   19.5183    8.1760 H   0  0  0  0  0  0  0  0  0  0  0  0
  111.5389   20.5760   10.2041 H   0  0  0  0  0  0  0  0  0  0  0  0
  106.6515   21.0417   15.6787 H   0  0  0  0  0  0  0  0  0  0  0  0
  104.2265   19.9038   15.5973 N   0  0  0  0  0  0  0  0  0  0  0  0
  103.7185   20.7265   15.7827 H   0  0  0  0  0  0  0  0  0  0  0  0
  103.9083   18.6847   16.3439 C   0  0  0  0  0  0  0  0  0  0  0  0
  105.1737   17.8778   16.6554 C   0  0  0  0  0  0  0  0  0  0  0  0
  107.4582   19.1313   20.1391 C   0  0  0  0  0  0  0  0  0  0  0  0
  107.9585   19.3338   18.8519 C   0  0  0  0  0  0  0  0  0  0  0  0
  107.2217   18.9314   17.7325 C   0  0  0  0  0  0  0  0  0  0  0  0
  105.9869   18.2988   17.8743 C   0  0  0  0  0  0  0  0  0  0  0  0
  105.4918   18.0956   19.1583 C   0  0  0  0  0  0  0  0  0  0  0  0
  106.2275   18.4947   20.2729 C   0  0  0  0  0  0  0  0  0  0  0  0
  108.2182   19.5288   21.4046 C   0  0  0  0  0  0  0  0  0  0  0  0
  107.5679   19.2192   22.7539 C   0  0  0  0  0  0  0  0  0  0  0  0
  108.5242   19.3956   23.8310 O   0  0  0  0  0  0  0  0  0  0  0  0
  108.8341   20.3147   23.8410 H   0  0  0  0  0  0  0  0  0  0  0  0
 32 31  1  0  0  0
 31 30  1  0  0  0
 30 24  1  0  0  0
 24 29  2  0  0  0
 24 25  1  0  0  0
 29 28  1  0  0  0
 25 26  2  0  0  0
 28 27  2  0  0  0
 26 27  1  0  0  0
 27 23  1  0  0  0
 23 22  1  0  0  0
 22 20  1  0  0  0
 20 14  1  0  0  0
 14 13  2  0  0  0
 14 12  1  0  0  0
 13  2  1  0  0  0
 12  6  1  0  0  0
  2  6  2  0  0  0
  2  3  1  0  0  0
  6  1  1  0  0  0
  3  4  2  0  0  0
  1  5  2  0  0  0
  4  5  1  0  0  0
  4  8  1  0  0  0
  5  7  1  0  0  0
  8  9  2  0  0  0
  7 15  2  0  0  0
  7 11  1  0  0  0
  9 11  1  0  0  0
  9 10  1  0  0  0
 10 16  1  0  0  0
 10 17  1  0  0  0
 11 18  1  0  0  0
 12 19  1  0  0  0
 20 21  1  0  0  0
 32 33  1  0  0  0
M  END
> <minimizedAffinity>
-8.52208

$$$$
5JXQ_6OK_A_405


 33 36  0  0  0  0  0  0  0  0999 V2000
  107.0745   19.3515   11.7542 C   0  0  0  0  0  0  0  0  0  0  0  0
  107.0460   20.3932   13.9389 C   0  0  0  0  0  0  0  0  0  0  0  0
  108.3306   20.8931   13.7428 C   0  0  0  0  0  0  0  0  0  0  0  0
  108.9766   20.6260   12.5383 C   0  0  0  0  0  0  0  0  0  0  0  0
  108.3464   19.8626   11.5591 C   0  0  0  0  0  0  0  0  0  0  0  0
  106.4185   19.6248   12.9468 C   0  0  0  0  0  0  0  0  0  0  0  0
  109.0656   19.6233   10.2856 C   0  0  0  0  0  0  0  0  0  0  0  0
  110.2267   21.0976   12.3094 N   0  0  0  0  0  0  0  0  0  0  0  0
  110.8571   20.8886   11.1351 C   0  0  0  0  0  0  0  0  0  0  0  0
  112.0874   21.4128   10.9525 N   0  0  0  0  0  0  0  0  0  0  0  0
  110.2829   20.1729   10.1447 N   0  0  0  0  0  0  0  0  0  0  0  0
  105.1838   19.2699   13.3877 N   0  0  0  0  0  0  0  0  0  0  0  0
  106.1854   20.5197   14.9782 N   0  0  0  0  0  0  0  0  0  0  0  0
  105.0926   19.8294   14.6013 C   0  0  0  0  0  0  0  0  0  0  0  0
  108.5669   18.9549    9.3500 O   0  0  0  0  0  0  0  0  0  0  0  0
  112.5114   21.9356   11.6710 H   0  0  0  0  0  0  0  0  0  0  0  0
  112.5609   21.2723   10.1009 H   0  0  0  0  0  0  0  0  0  0  0  0
  110.7690   20.0507    9.2974 H   0  0  0  0  0  0  0  0  0  0  0  0
  104.5093   18.7251   12.9214 H   0  0  0  0  0  0  0  0  0  0  0  0
  103.9796   19.6955   15.3627 N   0  0  0  0  0  0  0  0  0  0  0  0
  103.2283   20.3174   15.2282 H   0  0  0  0  0  0  0  0  0  0  0  0
  103.8665   18.6486   16.3806 C   0  0  0  0  0  0  0  0  0  0  0  0
  105.2170   17.9678   16.6298 C   0  0  0  0  0  0  0  0  0  0  0  0
  107.4043   19.0258   20.2386 C   0  0  0  0  0  0  0  0  0  0  0  0
  106.1494   18.4204   20.3211 C   0  0  0  0  0  0  0  0  0  0  0  0
  105.4479   18.0794   19.1594 C   0  0  0  0  0  0  0  0  0  0  0  0
  105.9709   18.3568   17.8966 C   0  0  0  0  0  0  0  0  0  0  0  0
  107.2205   18.9626   17.8171 C   0  0  0  0  0  0  0  0  0  0  0  0
  107.9175   19.3041   18.9749 C   0  0  0  0  0  0  0  0  0  0  0  0
  108.2156   19.4412   21.4660 C   0  0  0  0  0  0  0  0  0  0  0  0
  107.5134   19.4225   22.8246 C   0  0  0  0  0  0  0  0  0  0  0  0
  108.4879   19.4094   23.8997 O   0  0  0  0  0  0  0  0  0  0  0  0
  109.0380   20.2066   23.8472 H   0  0  0  0  0  0  0  0  0  0  0  0
 32 31  1  0  0  0
 31 30  1  0  0  0
 30 24  1  0  0  0
 24 29  2  0  0  0
 24 25  1  0  0  0
 29 28  1  0  0  0
 25 26  2  0  0  0
 28 27  2  0  0  0
 26 27  1  0  0  0
 27 23  1  0  0  0
 23 22  1  0  0  0
 22 20  1  0  0  0
 20 14  1  0  0  0
 14 13  2  0  0  0
 14 12  1  0  0  0
 13  2  1  0  0  0
 12  6  1  0  0  0
  2  6  2  0  0  0
  2  3  1  0  0  0
  6  1  1  0  0  0
  3  4  2  0  0  0
  1  5  2  0  0  0
  4  5  1  0  0  0
  4  8  1  0  0  0
  5  7  1  0  0  0
  8  9  2  0  0  0
  7 15  2  0  0  0
  7 11  1  0  0  0
  9 11  1  0  0  0
  9 10  1  0  0  0
 10 16  1  0  0  0
 10 17  1  0  0  0
 11 18  1  0  0  0
 12 19  1  0  0  0
 20 21  1  0  0  0
 32 33  1  0  0  0
M  END
> <minimizedAffinity>
-8.52179

$$$$
5JXQ_6OK_A_405


 33 36  0  0  0  0  0  0  0  0999 V2000
  109.3248   20.1866   12.7449 C   0  0  0  0  0  0  0  0  0  0  0  0
  107.4373   21.4172   13.6289 C   0  0  0  0  0  0  0  0  0  0  0  0
  108.0976   22.6252   13.4204 C   0  0  0  0  0  0  0  0  0  0  0  0
  109.3720   22.6036   12.8592 C   0  0  0  0  0  0  0  0  0  0  0  0
  109.9713   21.3915   12.5271 C   0  0  0  0  0  0  0  0  0  0  0  0
  108.0487   20.2004   13.2913 C   0  0  0  0  0  0  0  0  0  0  0  0
  111.3196   21.4209   11.9128 C   0  0  0  0  0  0  0  0  0  0  0  0
  110.0455   23.7591   12.6386 N   0  0  0  0  0  0  0  0  0  0  0  0
  111.2631   23.7678   12.0577 C   0  0  0  0  0  0  0  0  0  0  0  0
  111.8700   24.9521   11.8318 N   0  0  0  0  0  0  0  0  0  0  0  0
  111.8801   22.6222   11.6975 N   0  0  0  0  0  0  0  0  0  0  0  0
  107.1954   19.1871   13.5912 N   0  0  0  0  0  0  0  0  0  0  0  0
  106.2037   21.1447   14.1196 N   0  0  0  0  0  0  0  0  0  0  0  0
  106.1103   19.8022   14.0794 C   0  0  0  0  0  0  0  0  0  0  0  0
  111.9254   20.3766   11.5762 O   0  0  0  0  0  0  0  0  0  0  0  0
  111.4251   25.7908   12.0923 H   0  0  0  0  0  0  0  0  0  0  0  0
  112.7575   24.9772   11.4066 H   0  0  0  0  0  0  0  0  0  0  0  0
  112.7637   22.6687   11.2658 H   0  0  0  0  0  0  0  0  0  0  0  0
  107.3413   18.2203   13.4759 H   0  0  0  0  0  0  0  0  0  0  0  0
  105.0234   19.1044   14.4897 N   0  0  0  0  0  0  0  0  0  0  0  0
  104.6223   18.4405   13.8834 H   0  0  0  0  0  0  0  0  0  0  0  0
  104.4306   19.3134   15.8125 C   0  0  0  0  0  0  0  0  0  0  0  0
  104.7637   18.1553   16.7598 C   0  0  0  0  0  0  0  0  0  0  0  0
  107.4499   19.0475   20.0635 C   0  0  0  0  0  0  0  0  0  0  0  0
  107.8219   19.3341   18.7491 C   0  0  0  0  0  0  0  0  0  0  0  0
  106.9561   19.0479   17.6879 C   0  0  0  0  0  0  0  0  0  0  0  0
  105.7166   18.4495   17.9130 C   0  0  0  0  0  0  0  0  0  0  0  0
  105.3494   18.1624   19.2236 C   0  0  0  0  0  0  0  0  0  0  0  0
  106.2135   18.4457   20.2799 C   0  0  0  0  0  0  0  0  0  0  0  0
  108.3538   19.3164   21.2668 C   0  0  0  0  0  0  0  0  0  0  0  0
  107.7803   19.0592   22.6611 C   0  0  0  0  0  0  0  0  0  0  0  0
  108.6773   19.5695   23.6813 O   0  0  0  0  0  0  0  0  0  0  0  0
  108.7888   20.5260   23.5646 H   0  0  0  0  0  0  0  0  0  0  0  0
 32 31  1  0  0  0
 31 30  1  0  0  0
 30 24  1  0  0  0
 24 29  2  0  0  0
 24 25  1  0  0  0
 29 28  1  0  0  0
 25 26  2  0  0  0
 28 27  2  0  0  0
 26 27  1  0  0  0
 27 23  1  0  0  0
 23 22  1  0  0  0
 22 20  1  0  0  0
 20 14  1  0  0  0
 14 13  2  0  0  0
 14 12  1  0  0  0
 13  2  1  0  0  0
 12  6  1  0  0  0
  2  6  2  0  0  0
  2  3  1  0  0  0
  6  1  1  0  0  0
  3  4  2  0  0  0
  1  5  2  0  0  0
  4  5  1  0  0  0
  4  8  1  0  0  0
  5  7  1  0  0  0
  8  9  2  0  0  0
  7 15  2  0  0  0
  7 11  1  0  0  0
  9 11  1  0  0  0
  9 10  1  0  0  0
 10 16  1  0  0  0
 10 17  1  0  0  0
 11 18  1  0  0  0
 12 19  1  0  0  0
 20 21  1  0  0  0
 32 33  1  0  0  0
M  END
> <minimizedAffinity>
-8.45363

$$$$
5JXQ_6OK_A_405


 33 36  0  0  0  0  0  0  0  0999 V2000
  105.5546   20.9405   13.6925 C   0  0  0  0  0  0  0  0  0  0  0  0
  105.3293   18.5405   13.4723 C   0  0  0  0  0  0  0  0  0  0  0  0
  106.4154   18.4951   12.6024 C   0  0  0  0  0  0  0  0  0  0  0  0
  107.0753   19.6816   12.2923 C   0  0  0  0  0  0  0  0  0  0  0  0
  106.6426   20.8876   12.8376 C   0  0  0  0  0  0  0  0  0  0  0  0
  104.9000   19.7601   14.0172 C   0  0  0  0  0  0  0  0  0  0  0  0
  107.3900   22.1205   12.4948 C   0  0  0  0  0  0  0  0  0  0  0  0
  108.1383   19.6775   11.4513 N   0  0  0  0  0  0  0  0  0  0  0  0
  108.8204   20.8065   11.1683 C   0  0  0  0  0  0  0  0  0  0  0  0
  109.8922   20.7341   10.3511 N   0  0  0  0  0  0  0  0  0  0  0  0
  108.4555   21.9987   11.6865 N   0  0  0  0  0  0  0  0  0  0  0  0
  103.8355   19.5237   14.8270 N   0  0  0  0  0  0  0  0  0  0  0  0
  104.5351   17.5587   13.9643 N   0  0  0  0  0  0  0  0  0  0  0  0
  103.6595   18.1974   14.7631 C   0  0  0  0  0  0  0  0  0  0  0  0
  107.0724   23.2446   12.9492 O   0  0  0  0  0  0  0  0  0  0  0  0
  110.1631   19.8677    9.9702 H   0  0  0  0  0  0  0  0  0  0  0  0
  110.4030   21.5478   10.1360 H   0  0  0  0  0  0  0  0  0  0  0  0
  108.9843   22.7994   11.4662 H   0  0  0  0  0  0  0  0  0  0  0  0
  103.3122   20.1784   15.3435 H   0  0  0  0  0  0  0  0  0  0  0  0
  102.6740   17.5781   15.4572 N   0  0  0  0  0  0  0  0  0  0  0  0
  102.0257   17.0171   14.9733 H   0  0  0  0  0  0  0  0  0  0  0  0
  102.5493   17.7227   16.9093 C   0  0  0  0  0  0  0  0  0  0  0  0
  103.6078   16.8918   17.6432 C   0  0  0  0  0  0  0  0  0  0  0  0
  107.1069   18.9622   19.1914 C   0  0  0  0  0  0  0  0  0  0  0  0
  106.2128   18.3330   20.0592 C   0  0  0  0  0  0  0  0  0  0  0  0
  105.0887   17.6663   19.5594 C   0  0  0  0  0  0  0  0  0  0  0  0
  104.8212   17.6348   18.1910 C   0  0  0  0  0  0  0  0  0  0  0  0
  105.7124   18.2649   17.3285 C   0  0  0  0  0  0  0  0  0  0  0  0
  106.8306   18.9308   17.8274 C   0  0  0  0  0  0  0  0  0  0  0  0
  108.3429   19.7235   19.6707 C   0  0  0  0  0  0  0  0  0  0  0  0
  109.1773   19.0969   20.7889 C   0  0  0  0  0  0  0  0  0  0  0  0
  110.5142   18.7910   20.3146 O   0  0  0  0  0  0  0  0  0  0  0  0
  110.9494   19.6082   20.0251 H   0  0  0  0  0  0  0  0  0  0  0  0
 32 31  1  0  0  0
 31 30  1  0  0  0
 30 24  1  0  0  0
 24 29  2  0  0  0
 24 25  1  0  0  0
 29 28  1  0  0  0
 25 26  2  0  0  0
 28 27  2  0  0  0
 26 27  1  0  0  0
 27 23  1  0  0  0
 23 22  1  0  0  0
 22 20  1  0  0  0
 20 14  1  0  0  0
 14 13  2  0  0  0
 14 12  1  0  0  0
 13  2  1  0  0  0
 12  6  1  0  0  0
  2  6  2  0  0  0
  2  3  1  0  0  0
  6  1  1  0  0  0
  3  4  2  0  0  0
  1  5  2  0  0  0
  4  5  1  0  0  0
  4  8  1  0  0  0
  5  7  1  0  0  0
  8  9  2  0  0  0
  7 15  2  0  0  0
  7 11  1  0  0  0
  9 11  1  0  0  0
  9 10  1  0  0  0
 10 16  1  0  0  0
 10 17  1  0  0  0
 11 18  1  0  0  0
 12 19  1  0  0  0
 20 21  1  0  0  0
 32 33  1  0  0  0
M  END
> <minimizedAffinity>
-8.06647

$$$$
5JXQ_6OK_A_405


 33 36  0  0  0  0  0  0  0  0999 V2000
  107.4417   22.5533   13.3844 C   0  0  0  0  0  0  0  0  0  0  0  0
  107.4789   20.1370   13.5225 C   0  0  0  0  0  0  0  0  0  0  0  0
  108.7984   20.1088   13.0790 C   0  0  0  0  0  0  0  0  0  0  0  0
  109.4376   21.3146   12.8017 C   0  0  0  0  0  0  0  0  0  0  0  0
  108.7582   22.5201   12.9568 C   0  0  0  0  0  0  0  0  0  0  0  0
  106.8019   21.3562   13.6759 C   0  0  0  0  0  0  0  0  0  0  0  0
  109.4873   23.7780   12.6699 C   0  0  0  0  0  0  0  0  0  0  0  0
  110.7226   21.3282   12.3703 N   0  0  0  0  0  0  0  0  0  0  0  0
  111.3774   22.4841   12.1355 C   0  0  0  0  0  0  0  0  0  0  0  0
  112.6673   22.4350   11.7410 N   0  0  0  0  0  0  0  0  0  0  0  0
  110.7719   23.6809   12.2901 N   0  0  0  0  0  0  0  0  0  0  0  0
  105.5435   21.1019   14.1195 N   0  0  0  0  0  0  0  0  0  0  0  0
  106.6366   19.1406   13.8890 N   0  0  0  0  0  0  0  0  0  0  0  0
  105.4960   19.7681   14.2326 C   0  0  0  0  0  0  0  0  0  0  0  0
  108.9529   24.9050   12.7925 O   0  0  0  0  0  0  0  0  0  0  0  0
  113.1143   21.5653   11.6265 H   0  0  0  0  0  0  0  0  0  0  0  0
  113.1611   23.2688   11.5677 H   0  0  0  0  0  0  0  0  0  0  0  0
  111.2852   24.5036   12.1201 H   0  0  0  0  0  0  0  0  0  0  0  0
  104.8288   21.7506   14.3138 H   0  0  0  0  0  0  0  0  0  0  0  0
  104.3790   19.1316   14.6611 N   0  0  0  0  0  0  0  0  0  0  0  0
  103.7578   18.7531   13.9977 H   0  0  0  0  0  0  0  0  0  0  0  0
  104.0729   18.9929   16.0866 C   0  0  0  0  0  0  0  0  0  0  0  0
  104.9276   17.8977   16.7343 C   0  0  0  0  0  0  0  0  0  0  0  0
  107.3382   18.9659   20.1946 C   0  0  0  0  0  0  0  0  0  0  0  0
  106.1100   18.3230   20.3565 C   0  0  0  0  0  0  0  0  0  0  0  0
  105.3366   17.9787   19.2424 C   0  0  0  0  0  0  0  0  0  0  0  0
  105.7594   18.2898   17.9503 C   0  0  0  0  0  0  0  0  0  0  0  0
  106.9825   18.9331   17.7918 C   0  0  0  0  0  0  0  0  0  0  0  0
  107.7511   19.2777   18.9023 C   0  0  0  0  0  0  0  0  0  0  0  0
  108.2237   19.3868   21.3677 C   0  0  0  0  0  0  0  0  0  0  0  0
  107.5915   19.4269   22.7598 C   0  0  0  0  0  0  0  0  0  0  0  0
  108.6176   19.5292   23.7808 O   0  0  0  0  0  0  0  0  0  0  0  0
  109.1253   20.3450   23.6483 H   0  0  0  0  0  0  0  0  0  0  0  0
 32 31  1  0  0  0
 31 30  1  0  0  0
 30 24  1  0  0  0
 24 29  2  0  0  0
 24 25  1  0  0  0
 29 28  1  0  0  0
 25 26  2  0  0  0
 28 27  2  0  0  0
 26 27  1  0  0  0
 27 23  1  0  0  0
 23 22  1  0  0  0
 22 20  1  0  0  0
 20 14  1  0  0  0
 14 13  2  0  0  0
 14 12  1  0  0  0
 13  2  1  0  0  0
 12  6  1  0  0  0
  2  6  2  0  0  0
  2  3  1  0  0  0
  6  1  1  0  0  0
  3  4  2  0  0  0
  1  5  2  0  0  0
  4  5  1  0  0  0
  4  8  1  0  0  0
  5  7  1  0  0  0
  8  9  2  0  0  0
  7 15  2  0  0  0
  7 11  1  0  0  0
  9 11  1  0  0  0
  9 10  1  0  0  0
 10 16  1  0  0  0
 10 17  1  0  0  0
 11 18  1  0  0  0
 12 19  1  0  0  0
 20 21  1  0  0  0
 32 33  1  0  0  0
M  END
> <minimizedAffinity>
-7.91590

$$$$
5JXQ_6OK_A_405


 33 36  0  0  0  0  0  0  0  0999 V2000
  108.4399   19.4057   11.0330 C   0  0  0  0  0  0  0  0  0  0  0  0
  107.0720   21.1931   11.9234 C   0  0  0  0  0  0  0  0  0  0  0  0
  107.1944   21.9096   10.7358 C   0  0  0  0  0  0  0  0  0  0  0  0
  107.9346   21.3571    9.6936 C   0  0  0  0  0  0  0  0  0  0  0  0
  108.5470   20.1163    9.8494 C   0  0  0  0  0  0  0  0  0  0  0  0
  107.6924   19.9435   12.0719 C   0  0  0  0  0  0  0  0  0  0  0  0
  109.3061   19.5601    8.7047 C   0  0  0  0  0  0  0  0  0  0  0  0
  108.0745   22.0232    8.5213 N   0  0  0  0  0  0  0  0  0  0  0  0
  108.7505   21.4912    7.4821 C   0  0  0  0  0  0  0  0  0  0  0  0
  108.8264   22.1869    6.3280 N   0  0  0  0  0  0  0  0  0  0  0  0
  109.3457   20.2827    7.5733 N   0  0  0  0  0  0  0  0  0  0  0  0
  107.4135   19.4642   13.3117 N   0  0  0  0  0  0  0  0  0  0  0  0
  106.4011   21.4669   13.0686 N   0  0  0  0  0  0  0  0  0  0  0  0
  106.6396   20.4074   13.8645 C   0  0  0  0  0  0  0  0  0  0  0  0
  109.8794   18.4469    8.7584 O   0  0  0  0  0  0  0  0  0  0  0  0
  108.3944   23.0687    6.2554 H   0  0  0  0  0  0  0  0  0  0  0  0
  109.3136   21.8127    5.5587 H   0  0  0  0  0  0  0  0  0  0  0  0
  109.8210   19.9219    6.7902 H   0  0  0  0  0  0  0  0  0  0  0  0
  107.7122   18.6162   13.7129 H   0  0  0  0  0  0  0  0  0  0  0  0
  106.1511   20.2775   15.1219 N   0  0  0  0  0  0  0  0  0  0  0  0
  105.5379   20.9636   15.4719 H   0  0  0  0  0  0  0  0  0  0  0  0
  106.5127   19.1418   15.9730 C   0  0  0  0  0  0  0  0  0  0  0  0
  107.6900   19.4884   16.8913 C   0  0  0  0  0  0  0  0  0  0  0  0
  107.1365   18.8932   21.1652 C   0  0  0  0  0  0  0  0  0  0  0  0
  106.1073   18.6009   20.2688 C   0  0  0  0  0  0  0  0  0  0  0  0
  106.2876   18.7915   18.8943 C   0  0  0  0  0  0  0  0  0  0  0  0
  107.4848   19.2990   18.3901 C   0  0  0  0  0  0  0  0  0  0  0  0
  108.5079   19.5921   19.2858 C   0  0  0  0  0  0  0  0  0  0  0  0
  108.3266   19.4041   20.6549 C   0  0  0  0  0  0  0  0  0  0  0  0
  107.0006   18.7266   22.6788 C   0  0  0  0  0  0  0  0  0  0  0  0
  105.6478   19.0526   23.3134 C   0  0  0  0  0  0  0  0  0  0  0  0
  105.2715   18.0230   24.2642 O   0  0  0  0  0  0  0  0  0  0  0  0
  105.9383   17.9724   24.9669 H   0  0  0  0  0  0  0  0  0  0  0  0
 32 31  1  0  0  0
 31 30  1  0  0  0
 30 24  1  0  0  0
 24 29  2  0  0  0
 24 25  1  0  0  0
 29 28  1  0  0  0
 25 26  2  0  0  0
 28 27  2  0  0  0
 26 27  1  0  0  0
 27 23  1  0  0  0
 23 22  1  0  0  0
 22 20  1  0  0  0
 20 14  1  0  0  0
 14 13  2  0  0  0
 14 12  1  0  0  0
 13  2  1  0  0  0
 12  6  1  0  0  0
  2  6  2  0  0  0
  2  3  1  0  0  0
  6  1  1  0  0  0
  3  4  2  0  0  0
  1  5  2  0  0  0
  4  5  1  0  0  0
  4  8  1  0  0  0
  5  7  1  0  0  0
  8  9  2  0  0  0
  7 15  2  0  0  0
  7 11  1  0  0  0
  9 11  1  0  0  0
  9 10  1  0  0  0
 10 16  1  0  0  0
 10 17  1  0  0  0
 11 18  1  0  0  0
 12 19  1  0  0  0
 20 21  1  0  0  0
 32 33  1  0  0  0
M  END
> <minimizedAffinity>
-7.81579

$$$$
5JXQ_6OK_A_405


 33 36  0  0  0  0  0  0  0  0999 V2000
  105.4620   18.8913   15.8303 C   0  0  0  0  0  0  0  0  0  0  0  0
  107.6698   19.7769   15.3833 C   0  0  0  0  0  0  0  0  0  0  0  0
  107.9889   19.7281   16.7377 C   0  0  0  0  0  0  0  0  0  0  0  0
  107.0377   19.2451   17.6329 C   0  0  0  0  0  0  0  0  0  0  0  0
  105.7895   18.8321   17.1743 C   0  0  0  0  0  0  0  0  0  0  0  0
  106.4097   19.3587   14.9299 C   0  0  0  0  0  0  0  0  0  0  0  0
  104.8184   18.3057   18.1622 C   0  0  0  0  0  0  0  0  0  0  0  0
  107.3121   19.1799   18.9587 N   0  0  0  0  0  0  0  0  0  0  0  0
  106.4238   18.6768   19.8407 C   0  0  0  0  0  0  0  0  0  0  0  0
  106.7672   18.6052   21.1440 N   0  0  0  0  0  0  0  0  0  0  0  0
  105.2074   18.2435   19.4461 N   0  0  0  0  0  0  0  0  0  0  0  0
  106.3623   19.5059   13.5805 N   0  0  0  0  0  0  0  0  0  0  0  0
  108.3959   20.1636   14.3062 N   0  0  0  0  0  0  0  0  0  0  0  0
  107.5702   19.9861   13.2576 C   0  0  0  0  0  0  0  0  0  0  0  0
  103.6775   17.9052   17.8323 O   0  0  0  0  0  0  0  0  0  0  0  0
  107.6527   18.9196   21.4378 H   0  0  0  0  0  0  0  0  0  0  0  0
  106.1322   18.2385   21.8010 H   0  0  0  0  0  0  0  0  0  0  0  0
  104.5898   17.8723   20.1169 H   0  0  0  0  0  0  0  0  0  0  0  0
  105.6108   19.3052   12.9769 H   0  0  0  0  0  0  0  0  0  0  0  0
  107.9050   20.2598   11.9733 N   0  0  0  0  0  0  0  0  0  0  0  0
  108.8528   20.3912   11.7418 H   0  0  0  0  0  0  0  0  0  0  0  0
  106.8918   20.3652   10.9210 C   0  0  0  0  0  0  0  0  0  0  0  0
  107.1984   19.4156    9.7575 C   0  0  0  0  0  0  0  0  0  0  0  0
  110.6815   20.2693    7.2945 C   0  0  0  0  0  0  0  0  0  0  0  0
  110.6542   19.1436    8.1193 C   0  0  0  0  0  0  0  0  0  0  0  0
  109.5325   18.8697    8.9097 C   0  0  0  0  0  0  0  0  0  0  0  0
  108.4294   19.7231    8.9122 C   0  0  0  0  0  0  0  0  0  0  0  0
  108.4603   20.8457    8.0913 C   0  0  0  0  0  0  0  0  0  0  0  0
  109.5790   21.1190    7.3061 C   0  0  0  0  0  0  0  0  0  0  0  0
  111.8806   20.6378    6.4208 C   0  0  0  0  0  0  0  0  0  0  0  0
  111.7276   20.5006    4.9052 C   0  0  0  0  0  0  0  0  0  0  0  0
  111.2945   19.1599    4.5577 O   0  0  0  0  0  0  0  0  0  0  0  0
  110.4364   18.9797    4.9725 H   0  0  0  0  0  0  0  0  0  0  0  0
 32 31  1  0  0  0
 31 30  1  0  0  0
 30 24  1  0  0  0
 24 29  2  0  0  0
 24 25  1  0  0  0
 29 28  1  0  0  0
 25 26  2  0  0  0
 28 27  2  0  0  0
 26 27  1  0  0  0
 27 23  1  0  0  0
 23 22  1  0  0  0
 22 20  1  0  0  0
 20 14  1  0  0  0
 14 13  2  0  0  0
 14 12  1  0  0  0
 13  2  1  0  0  0
 12  6  1  0  0  0
  2  6  2  0  0  0
  2  3  1  0  0  0
  6  1  1  0  0  0
  3  4  2  0  0  0
  1  5  2  0  0  0
  4  5  1  0  0  0
  4  8  1  0  0  0
  5  7  1  0  0  0
  8  9  2  0  0  0
  7 15  2  0  0  0
  7 11  1  0  0  0
  9 11  1  0  0  0
  9 10  1  0  0  0
 10 16  1  0  0  0
 10 17  1  0  0  0
 11 18  1  0  0  0
 12 19  1  0  0  0
 20 21  1  0  0  0
 32 33  1  0  0  0
M  END
> <minimizedAffinity>
-7.78789

$$$$
