4F0C_GDS_A_301
  RCSB PDB12061712283D
Coordinates from PDB:4F0C:A:301 Model:1 without hydrogens
 40 39  0  0  0  0            999 V2000
    6.2020   19.7360    3.7790   N 0  0  0  0  0  0  0  0  0  0  0  0
    5.3000   20.2360    4.8850   C 0  0  0  0  0  0  0  0  0  0  0  0
    6.1280   20.9870    6.0020   C 0  0  0  0  0  0  0  0  0  0  0  0
    7.3010   20.5890    6.2710   O 0  0  0  0  0  0  0  0  0  0  0  0
    5.5860   22.0060    6.5180   O 0  0  0  0  0  0  0  0  0  0  0  0
    4.4940   19.0680    5.5560   C 0  0  0  0  0  0  0  0  0  0  0  0
    3.5730   19.5990    6.6790   C 0  0  0  0  0  0  0  0  0  0  0  0
    2.7080   18.4800    7.1660   C 0  0  0  0  0  0  0  0  0  0  0  0
    2.7560   17.3310    6.7600   O 0  0  0  0  0  0  0  0  0  0  0  0
    1.8190   18.8530    8.1540   N 0  0  0  0  0  0  0  0  0  0  0  0
    0.8640   17.8900    8.7370   C 0  0  0  0  0  0  0  0  0  0  0  0
   -0.5520   18.3570    8.5020   C 0  0  0  0  0  0  0  0  0  0  0  0
   -0.8390   19.5480    8.6540   O 0  0  0  0  0  0  0  0  0  0  0  0
    1.0140   17.8260   10.2750   C 0  0  0  0  0  0  0  0  0  0  0  0
    2.5490   16.9770   10.7080   S 0  0  0  0  0  0  0  0  0  0  0  0
   -1.4670   17.4090    8.2110   N 0  0  0  0  0  0  0  0  0  0  0  0
   -2.8390   17.7910    8.0220   C 0  0  0  0  0  0  0  0  0  0  0  0
   -3.4190   17.1310    6.7760   C 0  0  0  0  0  0  0  0  0  0  0  0
   -4.6580   17.1720    6.6150   O 0  0  0  0  0  0  0  0  0  0  0  0
   -2.5850   16.6600    5.9810   O 0  0  0  0  0  0  0  0  0  0  0  0
    4.0120   14.7950    6.3520   N 0  0  0  0  0  0  0  0  0  0  0  0
    5.0160   14.5110    5.3170   C 0  0  0  0  0  0  0  0  0  0  0  0
    6.2020   15.5030    5.5010   C 0  0  0  0  0  0  0  0  0  0  0  0
    6.4760   15.9030    6.6620   O 0  0  0  0  0  0  0  0  0  0  0  0
    6.8080   15.8160    4.4560   O 0  0  0  0  0  0  0  0  0  0  0  0
    3.2630   13.7850    6.9030   C 0  0  0  0  0  0  0  0  0  0  0  0
    3.3770   12.6000    6.5860   O 0  0  0  0  0  0  0  0  0  0  0  0
    2.2550   14.1560    7.9830   C 0  0  0  0  0  0  0  0  0  0  0  0
    1.1180   13.1930    7.9890   N 0  0  0  0  0  0  0  0  0  0  0  0
    2.9890   14.1350    9.3280   C 0  0  0  0  0  0  0  0  0  0  0  0
    1.9640   14.9140   10.6340   S 0  0  0  0  0  0  0  0  0  0  0  0
   -2.2180   13.3090    5.5530   C 0  0  0  0  0  0  0  0  0  0  0  0
   -1.9910   11.9340    4.8050   C 0  0  0  0  0  0  0  0  0  0  0  0
   -2.9140   11.4870    4.0900   O 0  0  0  0  0  0  0  0  0  0  0  0
   -0.8820   11.3820    4.9690   O 0  0  0  0  0  0  0  0  0  0  0  0
   -3.2960   14.0600    4.9100   N 0  0  0  0  0  0  0  0  0  0  0  0
   -2.5190   12.9780    7.0450   C 0  0  0  0  0  0  0  0  0  0  0  0
   -1.2650   12.5630    7.8300   C 0  0  0  0  0  0  0  0  0  0  0  0
   -0.2040   13.6550    7.7830   C 0  0  0  0  0  0  0  0  0  0  0  0
   -0.4200   14.8610    7.6150   O 0  0  0  0  0  0  0  0  0  0  0  0
  1  2  1  0  0  0  0
  2  3  1  0  0  0  0
  2  6  1  0  0  0  0
  3  4  2  0  0  0  0
  3  5  1  0  0  0  0
  6  7  1  0  0  0  0
  7  8  1  0  0  0  0
  8  9  2  0  0  0  0
  8 10  1  0  0  0  0
 10 11  1  0  0  0  0
 11 12  1  0  0  0  0
 11 14  1  0  0  0  0
 12 13  2  0  0  0  0
 12 16  1  0  0  0  0
 14 15  1  0  0  0  0
 15 31  1  0  0  0  0
 16 17  1  0  0  0  0
 17 18  1  0  0  0  0
 18 19  2  0  0  0  0
 18 20  1  0  0  0  0
 21 22  1  0  0  0  0
 21 26  1  0  0  0  0
 22 23  1  0  0  0  0
 23 24  2  0  0  0  0
 23 25  1  0  0  0  0
 26 27  2  0  0  0  0
 26 28  1  0  0  0  0
 28 29  1  0  0  0  0
 28 30  1  0  0  0  0
 29 39  1  0  0  0  0
 30 31  1  0  0  0  0
 32 33  1  0  0  0  0
 32 36  1  0  0  0  0
 32 37  1  0  0  0  0
 33 34  2  0  0  0  0
 33 35  1  0  0  0  0
 37 38  1  0  0  0  0
 38 39  1  0  0  0  0
 39 40  2  0  0  0  0
A    1
N1
A    2
CA1
A    3
C1
A    4
OE1
A    5
OE2
A    6
CB1
A    7
CG1
A    8
CD1
A    9
O1
A   10
N2
A   11
CA2
A   12
C2
A   13
O2
A   14
CB2
A   15
SG2
A   16
N3
A   17
CA3
A   18
C3
A   19
OE3
A   20
OE4
A   21
N4
A   22
CA4
A   23
C4
A   24
OE5
A   25
OE6
A   26
C5
A   27
O5
A   28
CA5
A   29
N5
A   30
CB5
A   31
SG5
A   32
CA6
A   33
C6
A   34
OE7
A   35
OE8
A   36
N6
A   37
CB6
A   38
CG6
A   39
CD6
A   40
O6
M  END
>  <InstanceId>
4F0C_GDS_A_301

>  <ChemCompId>
GDS

>  <PdbId>
4F0C

>  <ChainId>
A

>  <ResidueNumber>
301

>  <InsertionCode>


>  <Model>
1

>  <AltIds>


>  <MissingHeavyAtoms>
0

>  <ObservedFormula>
C20 N6 O12 S2

>  <Name>
OXIDIZED GLUTATHIONE DISULFIDE

>  <SystematicName>
(2S)-2-amino-5-[[(2R)-3-[(2R)-2-[[(4S)-4-amino-5-hydroxy-5-oxo-pentanoyl]amino]-3-(carboxymethylamino)-3-oxo-propyl]disulfanyl-1-(carboxymethylamino)-1-oxo-propan-2-yl]amino]-5-oxo-pentanoic acid

>  <Synonyms>


>  <Type>
NON-POLYMER

>  <Formula>
C20 H32 N6 O12 S2

>  <MolecularWeight>
612.631

>  <ModifiedDate>
2011-06-04

>  <Parent>


>  <OneLetterCode>


>  <SubcomponentList>


>  <AmbiguousFlag>
N

>  <InChI>
InChI=1S/C20H32N6O12S2/c21-9(19(35)36)1-3-13(27)25-11(17(33)23-5-15(29)30)7-39-40-8-12(18(34)24-6-16(31)32)26-14(28)4-2-10(22)20(37)38/h9-12H,1-8,21-22H2,(H,23,33)(H,24,34)(H,25,27)(H,26,28)(H,29,30)(H,31,32)(H,35,36)(H,37,38)/t9-,10-,11-,12-/m0/s1

>  <InChIKey>
YPZRWBKMTBYPTK-BJDJZHNGSA-N

>  <SMILES>
C(CC(=O)N[C@@H](CSSC[C@@H](C(=O)NCC(=O)O)NC(=O)CC[C@@H](C(=O)O)N)C(=O)NCC(=O)O)[C@@H](C(=O)O)N

$$$$
