4F0C_GDS_A_301


 52 51  0  0  0  0  0  0  0  0999 V2000
    0.4846   15.4342   10.0688 S   0  0  0  0  0  0  0  0  0  0  0  0
    1.5546   16.8881    9.9933 C   0  0  0  0  0  0  0  0  0  0  0  0
    1.0169   17.8828    8.9380 C   0  0  0  0  0  0  0  0  0  0  0  0
    1.9907   17.7961    7.7880 C   0  0  0  0  0  0  0  0  0  0  0  0
    2.4565   16.7012    7.4591 O   0  0  0  0  0  0  0  0  0  0  0  0
    2.3710   18.9600    7.2212 N   0  0  0  0  0  0  0  0  0  0  0  0
    1.9950   19.8134    7.5368 H   0  0  0  0  0  0  0  0  0  0  0  0
    3.3306   18.9405    6.1521 C   0  0  0  0  0  0  0  0  0  0  0  0
    3.3508   20.2761    5.4171 C   0  0  0  0  0  0  0  0  0  0  0  0
    3.3040   20.2574    4.1680 O   0  0  0  0  0  0  0  0  0  0  0  0
    3.3437   21.2877    6.1425 O   0  0  0  0  0  0  0  0  0  0  0  0
    3.3822   21.1963    7.0743 H   0  0  0  0  0  0  0  0  0  0  0  0
   -1.4009   18.3677    8.5697 C   0  0  0  0  0  0  0  0  0  0  0  0
   -1.2696   19.4832    9.0447 O   0  0  0  0  0  0  0  0  0  0  0  0
   -0.3347   17.4947    8.4885 N   0  0  0  0  0  0  0  0  0  0  0  0
   -0.4789   16.5923    8.1224 H   0  0  0  0  0  0  0  0  0  0  0  0
   -2.6816   17.8068    8.0378 C   0  0  0  0  0  0  0  0  0  0  0  0
   -2.4305   17.2416    6.6205 C   0  0  0  0  0  0  0  0  0  0  0  0
   -4.8916   16.8275    6.0791 N   0  0  0  0  0  0  0  0  0  0  0  0
   -3.6341   17.5575    5.6635 C   0  0  0  0  0  0  0  0  0  0  0  0
   -5.6476   17.0585    5.4345 H   0  0  0  0  0  0  0  0  0  0  0  0
   -5.1521   17.1099    7.0239 H   0  0  0  0  0  0  0  0  0  0  0  0
   -3.2179   17.1830    4.1857 C   0  0  0  0  0  0  0  0  0  0  0  0
   -2.5815   16.1064    3.9795 O   0  0  0  0  0  0  0  0  0  0  0  0
   -3.6180   17.9599    3.2720 O   0  0  0  0  0  0  0  0  0  0  0  0
   -4.0843   18.7420    3.4929 H   0  0  0  0  0  0  0  0  0  0  0  0
    1.8927   13.8504   10.4042 S   0  0  0  0  0  0  0  0  0  0  0  0
    1.5012   12.5453    9.1767 C   0  0  0  0  0  0  0  0  0  0  0  0
    1.1324   13.1690    7.8264 C   0  0  0  0  0  0  0  0  0  0  0  0
   -0.1257   12.5715    7.2970 N   0  0  0  0  0  0  0  0  0  0  0  0
   -1.1873   13.4089    6.8782 C   0  0  0  0  0  0  0  0  0  0  0  0
   -1.0796   14.6376    6.9672 O   0  0  0  0  0  0  0  0  0  0  0  0
   -0.2187   11.5932    7.2383 H   0  0  0  0  0  0  0  0  0  0  0  0
   -2.4152   12.6613    6.3744 C   0  0  0  0  0  0  0  0  0  0  0  0
   -2.0629   11.7660    5.1764 C   0  0  0  0  0  0  0  0  0  0  0  0
   -2.0445   12.5410    3.8254 C   0  0  0  0  0  0  0  0  0  0  0  0
   -2.5746   11.7536    2.7125 N   0  0  0  0  0  0  0  0  0  0  0  0
   -2.0055   10.9164    2.5868 H   0  0  0  0  0  0  0  0  0  0  0  0
   -2.5509   12.3120    1.8592 H   0  0  0  0  0  0  0  0  0  0  0  0
   -0.5428   12.9465    3.5387 C   0  0  0  0  0  0  0  0  0  0  0  0
   -0.3233   13.9877    2.8824 O   0  0  0  0  0  0  0  0  0  0  0  0
    0.3404   12.1957    4.0054 O   0  0  0  0  0  0  0  0  0  0  0  0
    0.0975   11.4304    4.4884 H   0  0  0  0  0  0  0  0  0  0  0  0
    3.3510   13.7818    6.9003 N   0  0  0  0  0  0  0  0  0  0  0  0
    2.2893   12.9120    6.8696 C   0  0  0  0  0  0  0  0  0  0  0  0
    2.2330   11.9299    6.1279 O   0  0  0  0  0  0  0  0  0  0  0  0
    3.3355   14.5454    7.5214 H   0  0  0  0  0  0  0  0  0  0  0  0
    4.5105   13.5881    6.0182 C   0  0  0  0  0  0  0  0  0  0  0  0
    4.8944   14.9670    5.4053 C   0  0  0  0  0  0  0  0  0  0  0  0
    5.0093   15.0580    4.1557 O   0  0  0  0  0  0  0  0  0  0  0  0
    5.0457   15.8960    6.2247 O   0  0  0  0  0  0  0  0  0  0  0  0
    4.9395   15.7340    7.1415 H   0  0  0  0  0  0  0  0  0  0  0  0
 19 20  1  0  0  0
 20 23  1  0  0  0
 20 18  1  0  0  0
 23 24  2  0  0  0
 23 25  1  0  0  0
 18 17  1  0  0  0
 17 13  1  0  0  0
 13 14  2  0  0  0
 13 15  1  0  0  0
 15  3  1  0  0  0
  3  4  1  0  0  0
  3  2  1  0  0  0
  4  5  2  0  0  0
  4  6  1  0  0  0
  2  1  1  0  0  0
  1 27  1  0  0  0
  6  8  1  0  0  0
  8  9  1  0  0  0
  9 10  2  0  0  0
  9 11  1  0  0  0
 44 48  1  0  0  0
 44 45  1  0  0  0
 48 49  1  0  0  0
 49 50  2  0  0  0
 49 51  1  0  0  0
 45 46  2  0  0  0
 45 29  1  0  0  0
 29 30  1  0  0  0
 29 28  1  0  0  0
 30 31  1  0  0  0
 28 27  1  0  0  0
 36 40  1  0  0  0
 36 37  1  0  0  0
 36 35  1  0  0  0
 40 41  2  0  0  0
 40 42  1  0  0  0
 35 34  1  0  0  0
 34 31  1  0  0  0
 31 32  2  0  0  0
 19 21  1  0  0  0
 19 22  1  0  0  0
 25 26  1  0  0  0
 15 16  1  0  0  0
  6  7  1  0  0  0
 11 12  1  0  0  0
 44 47  1  0  0  0
 51 52  1  0  0  0
 30 33  1  0  0  0
 42 43  1  0  0  0
 37 38  1  0  0  0
 37 39  1  0  0  0
M  END
> <minimizedAffinity>
-8.08132

$$$$
4F0C_GDS_A_301


 52 51  0  0  0  0  0  0  0  0999 V2000
   -1.6038   12.4325    5.0934 S   0  0  0  0  0  0  0  0  0  0  0  0
   -0.5755   12.8948    3.6815 C   0  0  0  0  0  0  0  0  0  0  0  0
   -1.4542   13.5204    2.5731 C   0  0  0  0  0  0  0  0  0  0  0  0
   -2.0140   12.3452    1.8090 C   0  0  0  0  0  0  0  0  0  0  0  0
   -1.2721   11.4127    1.4866 O   0  0  0  0  0  0  0  0  0  0  0  0
   -3.3097   12.4185    1.4397 N   0  0  0  0  0  0  0  0  0  0  0  0
   -3.8563   13.1969    1.6941 H   0  0  0  0  0  0  0  0  0  0  0  0
   -3.8832   11.3486    0.6714 C   0  0  0  0  0  0  0  0  0  0  0  0
   -5.0766   10.7383    1.3979 C   0  0  0  0  0  0  0  0  0  0  0  0
   -5.2791    9.5121    1.2632 O   0  0  0  0  0  0  0  0  0  0  0  0
   -5.7155   11.5176    2.1286 O   0  0  0  0  0  0  0  0  0  0  0  0
   -5.4848   12.4252    2.1604 H   0  0  0  0  0  0  0  0  0  0  0  0
   -2.6162   15.6850    2.9979 C   0  0  0  0  0  0  0  0  0  0  0  0
   -1.7486   16.2919    2.3927 O   0  0  0  0  0  0  0  0  0  0  0  0
   -2.5525   14.3153    3.1571 N   0  0  0  0  0  0  0  0  0  0  0  0
   -3.2559   13.8579    3.6721 H   0  0  0  0  0  0  0  0  0  0  0  0
   -3.8167   16.3111    3.6338 C   0  0  0  0  0  0  0  0  0  0  0  0
   -3.4133   16.8799    5.0140 C   0  0  0  0  0  0  0  0  0  0  0  0
   -4.9366   16.3323    6.9891 N   0  0  0  0  0  0  0  0  0  0  0  0
   -3.7561   15.8692    6.1652 C   0  0  0  0  0  0  0  0  0  0  0  0
   -5.1266   15.6507    7.7239 H   0  0  0  0  0  0  0  0  0  0  0  0
   -5.7561   16.4222    6.3885 H   0  0  0  0  0  0  0  0  0  0  0  0
   -2.4725   15.6729    7.0658 C   0  0  0  0  0  0  0  0  0  0  0  0
   -2.4436   14.7157    7.8961 O   0  0  0  0  0  0  0  0  0  0  0  0
   -1.5034   16.4547    6.8463 O   0  0  0  0  0  0  0  0  0  0  0  0
   -1.5907   17.1440    6.2177 H   0  0  0  0  0  0  0  0  0  0  0  0
   -0.1400   12.0293    6.6094 S   0  0  0  0  0  0  0  0  0  0  0  0
    1.4954   12.1317    5.7858 C   0  0  0  0  0  0  0  0  0  0  0  0
    2.5921   12.4590    6.8048 C   0  0  0  0  0  0  0  0  0  0  0  0
    2.0679   13.3574    7.8717 N   0  0  0  0  0  0  0  0  0  0  0  0
    2.1823   12.9847    9.2325 C   0  0  0  0  0  0  0  0  0  0  0  0
    2.7019   11.9048    9.5377 O   0  0  0  0  0  0  0  0  0  0  0  0
    1.6414   14.2111    7.6300 H   0  0  0  0  0  0  0  0  0  0  0  0
    1.5904   13.9911   10.2108 C   0  0  0  0  0  0  0  0  0  0  0  0
    2.2456   15.3712   10.0465 C   0  0  0  0  0  0  0  0  0  0  0  0
    1.2261   16.4839    9.6607 C   0  0  0  0  0  0  0  0  0  0  0  0
   -0.1598   16.0167    9.6855 N   0  0  0  0  0  0  0  0  0  0  0  0
   -0.2747   15.2575    9.0141 H   0  0  0  0  0  0  0  0  0  0  0  0
   -0.7824   16.7860    9.4387 H   0  0  0  0  0  0  0  0  0  0  0  0
    1.6061   16.9842    8.2092 C   0  0  0  0  0  0  0  0  0  0  0  0
    0.9426   17.9188    7.7100 O   0  0  0  0  0  0  0  0  0  0  0  0
    2.5682   16.4132    7.6525 O   0  0  0  0  0  0  0  0  0  0  0  0
    3.0181   15.7182    8.0912 H   0  0  0  0  0  0  0  0  0  0  0  0
    4.2373   14.3008    6.5674 N   0  0  0  0  0  0  0  0  0  0  0  0
    3.7327   13.1324    6.0527 C   0  0  0  0  0  0  0  0  0  0  0  0
    4.1645   12.5936    5.0325 O   0  0  0  0  0  0  0  0  0  0  0  0
    3.8495   14.6764    7.3907 H   0  0  0  0  0  0  0  0  0  0  0  0
    5.3489   14.9984    5.9058 C   0  0  0  0  0  0  0  0  0  0  0  0
    4.7536   16.1043    4.9855 C   0  0  0  0  0  0  0  0  0  0  0  0
    4.6971   15.8891    3.7471 O   0  0  0  0  0  0  0  0  0  0  0  0
    4.3578   17.1338    5.5692 O   0  0  0  0  0  0  0  0  0  0  0  0
    4.4410   17.2061    6.4997 H   0  0  0  0  0  0  0  0  0  0  0  0
 19 20  1  0  0  0
 20 23  1  0  0  0
 20 18  1  0  0  0
 23 24  2  0  0  0
 23 25  1  0  0  0
 18 17  1  0  0  0
 17 13  1  0  0  0
 13 14  2  0  0  0
 13 15  1  0  0  0
 15  3  1  0  0  0
  3  4  1  0  0  0
  3  2  1  0  0  0
  4  5  2  0  0  0
  4  6  1  0  0  0
  2  1  1  0  0  0
  1 27  1  0  0  0
  6  8  1  0  0  0
  8  9  1  0  0  0
  9 10  2  0  0  0
  9 11  1  0  0  0
 44 48  1  0  0  0
 44 45  1  0  0  0
 48 49  1  0  0  0
 49 50  2  0  0  0
 49 51  1  0  0  0
 45 46  2  0  0  0
 45 29  1  0  0  0
 29 30  1  0  0  0
 29 28  1  0  0  0
 30 31  1  0  0  0
 28 27  1  0  0  0
 36 40  1  0  0  0
 36 37  1  0  0  0
 36 35  1  0  0  0
 40 41  2  0  0  0
 40 42  1  0  0  0
 35 34  1  0  0  0
 34 31  1  0  0  0
 31 32  2  0  0  0
 19 21  1  0  0  0
 19 22  1  0  0  0
 25 26  1  0  0  0
 15 16  1  0  0  0
  6  7  1  0  0  0
 11 12  1  0  0  0
 44 47  1  0  0  0
 51 52  1  0  0  0
 30 33  1  0  0  0
 42 43  1  0  0  0
 37 38  1  0  0  0
 37 39  1  0  0  0
M  END
> <minimizedAffinity>
-8.04176

$$$$
4F0C_GDS_A_301


 52 51  0  0  0  0  0  0  0  0999 V2000
    2.6447   17.2498   10.5137 S   0  0  0  0  0  0  0  0  0  0  0  0
    1.2568   18.2969   10.0221 C   0  0  0  0  0  0  0  0  0  0  0  0
    0.9521   18.0953    8.5192 C   0  0  0  0  0  0  0  0  0  0  0  0
   -0.5188   18.4014    8.3746 C   0  0  0  0  0  0  0  0  0  0  0  0
   -0.9964   19.3961    8.9281 O   0  0  0  0  0  0  0  0  0  0  0  0
   -1.2656   17.5033    7.6990 N   0  0  0  0  0  0  0  0  0  0  0  0
   -0.8459   16.7075    7.2992 H   0  0  0  0  0  0  0  0  0  0  0  0
   -2.6798   17.7209    7.5693 C   0  0  0  0  0  0  0  0  0  0  0  0
   -3.2371   16.9638    6.3691 C   0  0  0  0  0  0  0  0  0  0  0  0
   -2.4332   16.5921    5.4868 O   0  0  0  0  0  0  0  0  0  0  0  0
   -4.4571   16.7196    6.4083 O   0  0  0  0  0  0  0  0  0  0  0  0
   -4.9775   17.0452    7.1162 H   0  0  0  0  0  0  0  0  0  0  0  0
    2.7505   18.5700    6.8588 C   0  0  0  0  0  0  0  0  0  0  0  0
    3.0361   17.3858    6.8005 O   0  0  0  0  0  0  0  0  0  0  0  0
    1.7471   19.0236    7.6913 N   0  0  0  0  0  0  0  0  0  0  0  0
    1.5573   19.9887    7.7338 H   0  0  0  0  0  0  0  0  0  0  0  0
    3.4223   19.6542    6.0773 C   0  0  0  0  0  0  0  0  0  0  0  0
    4.8175   19.1590    5.6308 C   0  0  0  0  0  0  0  0  0  0  0  0
    5.6768   21.5558    5.8265 N   0  0  0  0  0  0  0  0  0  0  0  0
    5.9511   20.1068    6.1609 C   0  0  0  0  0  0  0  0  0  0  0  0
    6.4336   22.1370    6.1867 H   0  0  0  0  0  0  0  0  0  0  0  0
    4.7956   21.8423    6.2530 H   0  0  0  0  0  0  0  0  0  0  0  0
    7.3319   19.6323    5.5562 C   0  0  0  0  0  0  0  0  0  0  0  0
    7.5567   19.8099    4.3214 O   0  0  0  0  0  0  0  0  0  0  0  0
    8.1745   19.1618    6.3729 O   0  0  0  0  0  0  0  0  0  0  0  0
    7.9439   19.0557    7.2749 H   0  0  0  0  0  0  0  0  0  0  0  0
    1.7601   15.2950   10.5185 S   0  0  0  0  0  0  0  0  0  0  0  0
    2.7503   14.2793    9.3562 C   0  0  0  0  0  0  0  0  0  0  0  0
    2.0381   14.1589    8.0047 C   0  0  0  0  0  0  0  0  0  0  0  0
    0.9173   13.1803    8.0860 N   0  0  0  0  0  0  0  0  0  0  0  0
   -0.3890   13.5643    7.6993 C   0  0  0  0  0  0  0  0  0  0  0  0
   -0.6063   14.7177    7.3098 O   0  0  0  0  0  0  0  0  0  0  0  0
    1.0857   12.2657    8.4090 H   0  0  0  0  0  0  0  0  0  0  0  0
   -1.4357   12.4677    7.8491 C   0  0  0  0  0  0  0  0  0  0  0  0
   -2.4312   12.8046    8.9700 C   0  0  0  0  0  0  0  0  0  0  0  0
   -3.3625   14.0012    8.6140 C   0  0  0  0  0  0  0  0  0  0  0  0
   -3.4998   14.9590    9.7110 N   0  0  0  0  0  0  0  0  0  0  0  0
   -3.9067   14.4918   10.5213 H   0  0  0  0  0  0  0  0  0  0  0  0
   -4.1072   15.7249    9.4196 H   0  0  0  0  0  0  0  0  0  0  0  0
   -4.7756   13.3987    8.2372 C   0  0  0  0  0  0  0  0  0  0  0  0
   -5.1169   12.3142    8.7570 O   0  0  0  0  0  0  0  0  0  0  0  0
   -5.4753   14.0626    7.4428 O   0  0  0  0  0  0  0  0  0  0  0  0
   -5.1503   14.8691    7.0936 H   0  0  0  0  0  0  0  0  0  0  0  0
    4.0129   14.6163    6.5742 N   0  0  0  0  0  0  0  0  0  0  0  0
    3.0696   13.7051    6.9799 C   0  0  0  0  0  0  0  0  0  0  0  0
    3.0264   12.5420    6.5762 O   0  0  0  0  0  0  0  0  0  0  0  0
    3.9945   15.5301    6.9401 H   0  0  0  0  0  0  0  0  0  0  0  0
    5.0499   14.2457    5.6010 C   0  0  0  0  0  0  0  0  0  0  0  0
    5.3834   15.4999    4.7405 C   0  0  0  0  0  0  0  0  0  0  0  0
    6.5147   16.0347    4.8713 O   0  0  0  0  0  0  0  0  0  0  0  0
    4.4827   15.8718    3.9609 O   0  0  0  0  0  0  0  0  0  0  0  0
    3.6681   15.4098    3.9317 H   0  0  0  0  0  0  0  0  0  0  0  0
 19 20  1  0  0  0
 20 23  1  0  0  0
 20 18  1  0  0  0
 23 24  2  0  0  0
 23 25  1  0  0  0
 18 17  1  0  0  0
 17 13  1  0  0  0
 13 14  2  0  0  0
 13 15  1  0  0  0
 15  3  1  0  0  0
  3  4  1  0  0  0
  3  2  1  0  0  0
  4  5  2  0  0  0
  4  6  1  0  0  0
  2  1  1  0  0  0
  1 27  1  0  0  0
  6  8  1  0  0  0
  8  9  1  0  0  0
  9 10  2  0  0  0
  9 11  1  0  0  0
 44 48  1  0  0  0
 44 45  1  0  0  0
 48 49  1  0  0  0
 49 50  2  0  0  0
 49 51  1  0  0  0
 45 46  2  0  0  0
 45 29  1  0  0  0
 29 30  1  0  0  0
 29 28  1  0  0  0
 30 31  1  0  0  0
 28 27  1  0  0  0
 36 40  1  0  0  0
 36 37  1  0  0  0
 36 35  1  0  0  0
 40 41  2  0  0  0
 40 42  1  0  0  0
 35 34  1  0  0  0
 34 31  1  0  0  0
 31 32  2  0  0  0
 19 21  1  0  0  0
 19 22  1  0  0  0
 25 26  1  0  0  0
 15 16  1  0  0  0
  6  7  1  0  0  0
 11 12  1  0  0  0
 44 47  1  0  0  0
 51 52  1  0  0  0
 30 33  1  0  0  0
 42 43  1  0  0  0
 37 38  1  0  0  0
 37 39  1  0  0  0
M  END
> <minimizedAffinity>
-7.85289

$$$$
4F0C_GDS_A_301


 52 51  0  0  0  0  0  0  0  0999 V2000
   -0.6347   12.5066    7.0903 S   0  0  0  0  0  0  0  0  0  0  0  0
    0.7631   11.4015    6.7914 C   0  0  0  0  0  0  0  0  0  0  0  0
    2.0215   11.9381    7.5129 C   0  0  0  0  0  0  0  0  0  0  0  0
    2.8441   12.5916    6.4291 C   0  0  0  0  0  0  0  0  0  0  0  0
    2.7120   12.2306    5.2560 O   0  0  0  0  0  0  0  0  0  0  0  0
    3.7607   13.5002    6.8226 N   0  0  0  0  0  0  0  0  0  0  0  0
    3.8515   13.7354    7.7742 H   0  0  0  0  0  0  0  0  0  0  0  0
    4.6028   14.1208    5.8378 C   0  0  0  0  0  0  0  0  0  0  0  0
    4.2661   15.6005    5.6911 C   0  0  0  0  0  0  0  0  0  0  0  0
    4.6156   16.1787    4.6393 O   0  0  0  0  0  0  0  0  0  0  0  0
    3.6010   16.0939    6.6204 O   0  0  0  0  0  0  0  0  0  0  0  0
    3.3890   15.5753    7.3715 H   0  0  0  0  0  0  0  0  0  0  0  0
    2.0292   12.7766    9.8610 C   0  0  0  0  0  0  0  0  0  0  0  0
    2.6506   11.7944   10.2303 O   0  0  0  0  0  0  0  0  0  0  0  0
    1.6558   12.9322    8.5411 N   0  0  0  0  0  0  0  0  0  0  0  0
    1.1335   13.7246    8.2795 H   0  0  0  0  0  0  0  0  0  0  0  0
    1.5944   13.9003   10.7474 C   0  0  0  0  0  0  0  0  0  0  0  0
    2.0091   15.2406   10.0971 C   0  0  0  0  0  0  0  0  0  0  0  0
   -0.4595   15.4377    9.4737 N   0  0  0  0  0  0  0  0  0  0  0  0
    0.7725   16.1916    9.9219 C   0  0  0  0  0  0  0  0  0  0  0  0
   -1.2381   16.0887    9.3718 H   0  0  0  0  0  0  0  0  0  0  0  0
   -0.6967   14.7300   10.1689 H   0  0  0  0  0  0  0  0  0  0  0  0
    1.1510   17.3305    8.8939 C   0  0  0  0  0  0  0  0  0  0  0  0
    1.0133   17.1105    7.6532 O   0  0  0  0  0  0  0  0  0  0  0  0
    1.5055   18.4401    9.3853 O   0  0  0  0  0  0  0  0  0  0  0  0
    1.5884   18.5363   10.3136 H   0  0  0  0  0  0  0  0  0  0  0  0
   -1.7526   12.3288    5.2675 S   0  0  0  0  0  0  0  0  0  0  0  0
   -0.6196   12.8354    3.9175 C   0  0  0  0  0  0  0  0  0  0  0  0
   -1.4014   13.4975    2.7780 C   0  0  0  0  0  0  0  0  0  0  0  0
   -2.4872   14.3631    3.3184 N   0  0  0  0  0  0  0  0  0  0  0  0
   -2.5086   15.7458    3.0165 C   0  0  0  0  0  0  0  0  0  0  0  0
   -1.6167   16.2416    2.3180 O   0  0  0  0  0  0  0  0  0  0  0  0
   -3.1905   13.9728    3.8861 H   0  0  0  0  0  0  0  0  0  0  0  0
   -3.6663   16.5083    3.6480 C   0  0  0  0  0  0  0  0  0  0  0  0
   -4.2266   15.7532    4.8633 C   0  0  0  0  0  0  0  0  0  0  0  0
   -3.9944   16.5083    6.2057 C   0  0  0  0  0  0  0  0  0  0  0  0
   -3.6639   17.9200    6.0126 N   0  0  0  0  0  0  0  0  0  0  0  0
   -2.8027   17.9966    5.4715 H   0  0  0  0  0  0  0  0  0  0  0  0
   -3.5357   18.3665    6.9207 H   0  0  0  0  0  0  0  0  0  0  0  0
   -2.8153   15.7713    6.9595 C   0  0  0  0  0  0  0  0  0  0  0  0
   -3.1046   14.9589    7.8647 O   0  0  0  0  0  0  0  0  0  0  0  0
   -1.6540   16.0429    6.5866 O   0  0  0  0  0  0  0  0  0  0  0  0
   -1.5160   16.6647    5.8994 H   0  0  0  0  0  0  0  0  0  0  0  0
   -3.3110   12.4718    1.5710 N   0  0  0  0  0  0  0  0  0  0  0  0
   -1.9844   12.3868    1.9140 C   0  0  0  0  0  0  0  0  0  0  0  0
   -1.2413   11.4760    1.5453 O   0  0  0  0  0  0  0  0  0  0  0  0
   -3.8490   13.2299    1.8953 H   0  0  0  0  0  0  0  0  0  0  0  0
   -3.9388   11.4462    0.7261 C   0  0  0  0  0  0  0  0  0  0  0  0
   -5.1595   10.8597    1.4945 C   0  0  0  0  0  0  0  0  0  0  0  0
   -6.0046   11.6567    1.9777 O   0  0  0  0  0  0  0  0  0  0  0  0
   -5.2076    9.6142    1.5565 O   0  0  0  0  0  0  0  0  0  0  0  0
   -4.5296    9.0991    1.1656 H   0  0  0  0  0  0  0  0  0  0  0  0
 19 20  1  0  0  0
 20 23  1  0  0  0
 20 18  1  0  0  0
 23 24  2  0  0  0
 23 25  1  0  0  0
 18 17  1  0  0  0
 17 13  1  0  0  0
 13 14  2  0  0  0
 13 15  1  0  0  0
 15  3  1  0  0  0
  3  4  1  0  0  0
  3  2  1  0  0  0
  4  5  2  0  0  0
  4  6  1  0  0  0
  2  1  1  0  0  0
  1 27  1  0  0  0
  6  8  1  0  0  0
  8  9  1  0  0  0
  9 10  2  0  0  0
  9 11  1  0  0  0
 44 48  1  0  0  0
 44 45  1  0  0  0
 48 49  1  0  0  0
 49 50  2  0  0  0
 49 51  1  0  0  0
 45 46  2  0  0  0
 45 29  1  0  0  0
 29 30  1  0  0  0
 29 28  1  0  0  0
 30 31  1  0  0  0
 28 27  1  0  0  0
 36 40  1  0  0  0
 36 37  1  0  0  0
 36 35  1  0  0  0
 40 41  2  0  0  0
 40 42  1  0  0  0
 35 34  1  0  0  0
 34 31  1  0  0  0
 31 32  2  0  0  0
 19 21  1  0  0  0
 19 22  1  0  0  0
 25 26  1  0  0  0
 15 16  1  0  0  0
  6  7  1  0  0  0
 11 12  1  0  0  0
 44 47  1  0  0  0
 51 52  1  0  0  0
 30 33  1  0  0  0
 42 43  1  0  0  0
 37 38  1  0  0  0
 37 39  1  0  0  0
M  END
> <minimizedAffinity>
-7.74383

$$$$
4F0C_GDS_A_301


 52 51  0  0  0  0  0  0  0  0999 V2000
    2.1884   16.5005   10.0765 S   0  0  0  0  0  0  0  0  0  0  0  0
    0.5889   15.7386   10.4306 C   0  0  0  0  0  0  0  0  0  0  0  0
    0.3373   14.5656    9.4544 C   0  0  0  0  0  0  0  0  0  0  0  0
    0.4001   13.3244   10.3110 C   0  0  0  0  0  0  0  0  0  0  0  0
   -0.5947   12.9676   10.9489 O   0  0  0  0  0  0  0  0  0  0  0  0
    1.5948   12.7034   10.3990 N   0  0  0  0  0  0  0  0  0  0  0  0
    2.3698   13.0418    9.8949 H   0  0  0  0  0  0  0  0  0  0  0  0
    1.7236   11.5431   11.2364 C   0  0  0  0  0  0  0  0  0  0  0  0
    2.6038   10.4901   10.5723 C   0  0  0  0  0  0  0  0  0  0  0  0
    3.6277   10.1136   11.1828 O   0  0  0  0  0  0  0  0  0  0  0  0
    2.1803   10.0414    9.4912 O   0  0  0  0  0  0  0  0  0  0  0  0
    1.3986   10.3925    9.1123 H   0  0  0  0  0  0  0  0  0  0  0  0
   -1.2062   14.3024    7.5141 C   0  0  0  0  0  0  0  0  0  0  0  0
   -0.2938   13.8872    6.8196 O   0  0  0  0  0  0  0  0  0  0  0  0
   -0.9929   14.6804    8.8245 N   0  0  0  0  0  0  0  0  0  0  0  0
   -1.7454   15.0347    9.3513 H   0  0  0  0  0  0  0  0  0  0  0  0
   -2.6235   14.4625    7.0631 C   0  0  0  0  0  0  0  0  0  0  0  0
   -2.6860   15.5780    5.9939 C   0  0  0  0  0  0  0  0  0  0  0  0
   -1.7149   14.0465    4.1959 N   0  0  0  0  0  0  0  0  0  0  0  0
   -2.8541   14.9740    4.5547 C   0  0  0  0  0  0  0  0  0  0  0  0
   -1.8609   13.6762    3.2568 H   0  0  0  0  0  0  0  0  0  0  0  0
   -1.6805   13.2761    4.8635 H   0  0  0  0  0  0  0  0  0  0  0  0
   -2.9728   16.1609    3.5181 C   0  0  0  0  0  0  0  0  0  0  0  0
   -2.1129   16.2574    2.5918 O   0  0  0  0  0  0  0  0  0  0  0  0
   -3.9813   16.9142    3.6348 O   0  0  0  0  0  0  0  0  0  0  0  0
   -4.5800   16.7891    4.3447 H   0  0  0  0  0  0  0  0  0  0  0  0
    2.4800   16.0058    8.0092 S   0  0  0  0  0  0  0  0  0  0  0  0
    3.3411   14.3868    7.9840 C   0  0  0  0  0  0  0  0  0  0  0  0
    4.1853   14.2454    6.7130 C   0  0  0  0  0  0  0  0  0  0  0  0
    4.1150   15.4879    5.8937 N   0  0  0  0  0  0  0  0  0  0  0  0
    5.2977   16.2012    5.5838 C   0  0  0  0  0  0  0  0  0  0  0  0
    6.3898   15.8042    6.0069 O   0  0  0  0  0  0  0  0  0  0  0  0
    3.2449   15.8132    5.5675 H   0  0  0  0  0  0  0  0  0  0  0  0
    5.0732   17.4581    4.7530 C   0  0  0  0  0  0  0  0  0  0  0  0
    4.5268   18.6025    5.6206 C   0  0  0  0  0  0  0  0  0  0  0  0
    4.8075   20.0097    5.0144 C   0  0  0  0  0  0  0  0  0  0  0  0
    4.9826   19.9772    3.5626 N   0  0  0  0  0  0  0  0  0  0  0  0
    5.7795   19.3848    3.3294 H   0  0  0  0  0  0  0  0  0  0  0  0
    5.1499   20.9229    3.2190 H   0  0  0  0  0  0  0  0  0  0  0  0
    6.1155   20.5659    5.7083 C   0  0  0  0  0  0  0  0  0  0  0  0
    5.9954   21.2099    6.7730 O   0  0  0  0  0  0  0  0  0  0  0  0
    7.2016   20.3102    5.1457 O   0  0  0  0  0  0  0  0  0  0  0  0
    7.2116   19.8204    4.3470 H   0  0  0  0  0  0  0  0  0  0  0  0
    2.4273   12.5419    6.3090 N   0  0  0  0  0  0  0  0  0  0  0  0
    3.6415   13.0578    5.9293 C   0  0  0  0  0  0  0  0  0  0  0  0
    4.3002   12.6261    4.9819 O   0  0  0  0  0  0  0  0  0  0  0  0
    1.9492   12.9373    7.0734 H   0  0  0  0  0  0  0  0  0  0  0  0
    1.8317   11.4072    5.5895 C   0  0  0  0  0  0  0  0  0  0  0  0
    0.4789   11.0506    6.2732 C   0  0  0  0  0  0  0  0  0  0  0  0
    0.4945   10.6632    7.4701 O   0  0  0  0  0  0  0  0  0  0  0  0
   -0.5370   11.1965    5.5633 O   0  0  0  0  0  0  0  0  0  0  0  0
   -0.4515   11.4911    4.6779 H   0  0  0  0  0  0  0  0  0  0  0  0
 19 20  1  0  0  0
 20 23  1  0  0  0
 20 18  1  0  0  0
 23 24  2  0  0  0
 23 25  1  0  0  0
 18 17  1  0  0  0
 17 13  1  0  0  0
 13 14  2  0  0  0
 13 15  1  0  0  0
 15  3  1  0  0  0
  3  4  1  0  0  0
  3  2  1  0  0  0
  4  5  2  0  0  0
  4  6  1  0  0  0
  2  1  1  0  0  0
  1 27  1  0  0  0
  6  8  1  0  0  0
  8  9  1  0  0  0
  9 10  2  0  0  0
  9 11  1  0  0  0
 44 48  1  0  0  0
 44 45  1  0  0  0
 48 49  1  0  0  0
 49 50  2  0  0  0
 49 51  1  0  0  0
 45 46  2  0  0  0
 45 29  1  0  0  0
 29 30  1  0  0  0
 29 28  1  0  0  0
 30 31  1  0  0  0
 28 27  1  0  0  0
 36 40  1  0  0  0
 36 37  1  0  0  0
 36 35  1  0  0  0
 40 41  2  0  0  0
 40 42  1  0  0  0
 35 34  1  0  0  0
 34 31  1  0  0  0
 31 32  2  0  0  0
 19 21  1  0  0  0
 19 22  1  0  0  0
 25 26  1  0  0  0
 15 16  1  0  0  0
  6  7  1  0  0  0
 11 12  1  0  0  0
 44 47  1  0  0  0
 51 52  1  0  0  0
 30 33  1  0  0  0
 42 43  1  0  0  0
 37 38  1  0  0  0
 37 39  1  0  0  0
M  END
> <minimizedAffinity>
-7.66764

$$$$
4F0C_GDS_A_301


 52 51  0  0  0  0  0  0  0  0999 V2000
    2.2211   15.9463    9.8559 S   0  0  0  0  0  0  0  0  0  0  0  0
    1.8782   17.6936    9.5496 C   0  0  0  0  0  0  0  0  0  0  0  0
    1.3582   17.8823    8.1053 C   0  0  0  0  0  0  0  0  0  0  0  0
   -0.0859   18.2932    8.2609 C   0  0  0  0  0  0  0  0  0  0  0  0
   -0.3654   19.3471    8.8399 O   0  0  0  0  0  0  0  0  0  0  0  0
   -1.0188   17.4239    7.8198 N   0  0  0  0  0  0  0  0  0  0  0  0
   -0.7490   16.5801    7.3904 H   0  0  0  0  0  0  0  0  0  0  0  0
   -2.4100   17.7431    7.9833 C   0  0  0  0  0  0  0  0  0  0  0  0
   -3.2355   17.1747    6.8344 C   0  0  0  0  0  0  0  0  0  0  0  0
   -2.7965   17.3159    5.6725 O   0  0  0  0  0  0  0  0  0  0  0  0
   -4.2591   16.5496    7.1675 O   0  0  0  0  0  0  0  0  0  0  0  0
   -4.5057   16.5014    8.0702 H   0  0  0  0  0  0  0  0  0  0  0  0
    3.1039   18.6380    6.4935 C   0  0  0  0  0  0  0  0  0  0  0  0
    3.4095   17.4822    6.2526 O   0  0  0  0  0  0  0  0  0  0  0  0
    2.1143   18.9407    7.4071 N   0  0  0  0  0  0  0  0  0  0  0  0
    1.9079   19.8843    7.5974 H   0  0  0  0  0  0  0  0  0  0  0  0
    3.7351   19.8409    5.8672 C   0  0  0  0  0  0  0  0  0  0  0  0
    5.0838   19.4266    5.2343 C   0  0  0  0  0  0  0  0  0  0  0  0
    6.2765   21.5803    5.9127 N   0  0  0  0  0  0  0  0  0  0  0  0
    6.2916   20.0708    6.0027 C   0  0  0  0  0  0  0  0  0  0  0  0
    7.0744   21.9592    6.4228 H   0  0  0  0  0  0  0  0  0  0  0  0
    5.4120   21.9365    6.3203 H   0  0  0  0  0  0  0  0  0  0  0  0
    7.6360   19.4772    5.4218 C   0  0  0  0  0  0  0  0  0  0  0  0
    8.0233   19.8414    4.2711 O   0  0  0  0  0  0  0  0  0  0  0  0
    8.2945   18.7160    6.1868 O   0  0  0  0  0  0  0  0  0  0  0  0
    7.9505   18.4847    7.0272 H   0  0  0  0  0  0  0  0  0  0  0  0
    0.4320   15.2989   10.8477 S   0  0  0  0  0  0  0  0  0  0  0  0
    0.3424   13.4822   10.6136 C   0  0  0  0  0  0  0  0  0  0  0  0
    0.8489   13.0930    9.2207 C   0  0  0  0  0  0  0  0  0  0  0  0
   -0.2692   12.5838    8.3776 N   0  0  0  0  0  0  0  0  0  0  0  0
   -0.9079   13.4432    7.4519 C   0  0  0  0  0  0  0  0  0  0  0  0
   -0.5510   14.6231    7.3533 O   0  0  0  0  0  0  0  0  0  0  0  0
   -0.5640   11.6485    8.4645 H   0  0  0  0  0  0  0  0  0  0  0  0
   -2.0419   12.7923    6.6703 C   0  0  0  0  0  0  0  0  0  0  0  0
   -1.8287   12.9476    5.1565 C   0  0  0  0  0  0  0  0  0  0  0  0
   -2.4044   14.2825    4.5972 C   0  0  0  0  0  0  0  0  0  0  0  0
   -3.8559   14.3815    4.7483 N   0  0  0  0  0  0  0  0  0  0  0  0
   -4.3038   13.6223    4.2350 H   0  0  0  0  0  0  0  0  0  0  0  0
   -4.1759   15.2768    4.3788 H   0  0  0  0  0  0  0  0  0  0  0  0
   -2.0098   14.3579    3.0674 C   0  0  0  0  0  0  0  0  0  0  0  0
   -1.7140   13.2964    2.4769 O   0  0  0  0  0  0  0  0  0  0  0  0
   -2.0326   15.4890    2.5368 O   0  0  0  0  0  0  0  0  0  0  0  0
   -2.2649   16.2407    3.0458 H   0  0  0  0  0  0  0  0  0  0  0  0
    1.9633   11.3637   10.6075 N   0  0  0  0  0  0  0  0  0  0  0  0
    1.9130   12.0183    9.4018 C   0  0  0  0  0  0  0  0  0  0  0  0
    2.6654   11.7698    8.4585 O   0  0  0  0  0  0  0  0  0  0  0  0
    1.3285   11.6076   11.3194 H   0  0  0  0  0  0  0  0  0  0  0  0
    2.9520   10.3036   10.8495 C   0  0  0  0  0  0  0  0  0  0  0  0
    3.5550   10.5125   12.2698 C   0  0  0  0  0  0  0  0  0  0  0  0
    4.4195    9.6962   12.6814 O   0  0  0  0  0  0  0  0  0  0  0  0
    3.1307   11.5069   12.8930 O   0  0  0  0  0  0  0  0  0  0  0  0
    2.4828   12.0615   12.5050 H   0  0  0  0  0  0  0  0  0  0  0  0
 19 20  1  0  0  0
 20 23  1  0  0  0
 20 18  1  0  0  0
 23 24  2  0  0  0
 23 25  1  0  0  0
 18 17  1  0  0  0
 17 13  1  0  0  0
 13 14  2  0  0  0
 13 15  1  0  0  0
 15  3  1  0  0  0
  3  4  1  0  0  0
  3  2  1  0  0  0
  4  5  2  0  0  0
  4  6  1  0  0  0
  2  1  1  0  0  0
  1 27  1  0  0  0
  6  8  1  0  0  0
  8  9  1  0  0  0
  9 10  2  0  0  0
  9 11  1  0  0  0
 44 48  1  0  0  0
 44 45  1  0  0  0
 48 49  1  0  0  0
 49 50  2  0  0  0
 49 51  1  0  0  0
 45 46  2  0  0  0
 45 29  1  0  0  0
 29 30  1  0  0  0
 29 28  1  0  0  0
 30 31  1  0  0  0
 28 27  1  0  0  0
 36 40  1  0  0  0
 36 37  1  0  0  0
 36 35  1  0  0  0
 40 41  2  0  0  0
 40 42  1  0  0  0
 35 34  1  0  0  0
 34 31  1  0  0  0
 31 32  2  0  0  0
 19 21  1  0  0  0
 19 22  1  0  0  0
 25 26  1  0  0  0
 15 16  1  0  0  0
  6  7  1  0  0  0
 11 12  1  0  0  0
 44 47  1  0  0  0
 51 52  1  0  0  0
 30 33  1  0  0  0
 42 43  1  0  0  0
 37 38  1  0  0  0
 37 39  1  0  0  0
M  END
> <minimizedAffinity>
-7.65242

$$$$
4F0C_GDS_A_301


 52 51  0  0  0  0  0  0  0  0999 V2000
    0.7482   16.1981   10.9463 S   0  0  0  0  0  0  0  0  0  0  0  0
    0.8830   17.8404   10.2053 C   0  0  0  0  0  0  0  0  0  0  0  0
    0.5617   17.7639    8.6944 C   0  0  0  0  0  0  0  0  0  0  0  0
   -0.9036   18.1101    8.5888 C   0  0  0  0  0  0  0  0  0  0  0  0
   -1.2683   19.2826    8.7159 O   0  0  0  0  0  0  0  0  0  0  0  0
   -1.7645   17.0819    8.4392 N   0  0  0  0  0  0  0  0  0  0  0  0
   -1.4298   16.1584    8.3723 H   0  0  0  0  0  0  0  0  0  0  0  0
   -3.1748   17.3492    8.3786 C   0  0  0  0  0  0  0  0  0  0  0  0
   -3.9784   16.1095    8.7551 C   0  0  0  0  0  0  0  0  0  0  0  0
   -3.4108   15.2291    9.4375 O   0  0  0  0  0  0  0  0  0  0  0  0
   -5.1714   16.1154    8.4000 O   0  0  0  0  0  0  0  0  0  0  0  0
   -5.5039   16.8252    7.8867 H   0  0  0  0  0  0  0  0  0  0  0  0
    2.4596   18.3439    7.1850 C   0  0  0  0  0  0  0  0  0  0  0  0
    2.8132   17.1773    7.1492 O   0  0  0  0  0  0  0  0  0  0  0  0
    1.3691   18.7382    7.9339 N   0  0  0  0  0  0  0  0  0  0  0  0
    1.1241   19.6913    7.9616 H   0  0  0  0  0  0  0  0  0  0  0  0
    3.1321   19.4669    6.4610 C   0  0  0  0  0  0  0  0  0  0  0  0
    4.0335   18.8787    5.3508 C   0  0  0  0  0  0  0  0  0  0  0  0
    5.2762   19.7098    3.2804 N   0  0  0  0  0  0  0  0  0  0  0  0
    4.9665   19.9810    4.7356 C   0  0  0  0  0  0  0  0  0  0  0  0
    5.8826   20.4459    2.9189 H   0  0  0  0  0  0  0  0  0  0  0  0
    4.4078   19.6915    2.7457 H   0  0  0  0  0  0  0  0  0  0  0  0
    6.2897   20.0625    5.5957 C   0  0  0  0  0  0  0  0  0  0  0  0
    6.8443   21.1893    5.7668 O   0  0  0  0  0  0  0  0  0  0  0  0
    6.6813   18.9872    6.1331 O   0  0  0  0  0  0  0  0  0  0  0  0
    6.2254   18.1861    5.9647 H   0  0  0  0  0  0  0  0  0  0  0  0
    2.4999   15.2143   10.1930 S   0  0  0  0  0  0  0  0  0  0  0  0
    1.9372   13.6022    9.5239 C   0  0  0  0  0  0  0  0  0  0  0  0
    1.4161   13.7656    8.0921 C   0  0  0  0  0  0  0  0  0  0  0  0
    0.1901   12.9455    7.8816 N   0  0  0  0  0  0  0  0  0  0  0  0
   -0.9827   13.5435    7.3615 C   0  0  0  0  0  0  0  0  0  0  0  0
   -0.9977   14.7515    7.0973 O   0  0  0  0  0  0  0  0  0  0  0  0
    0.1958   11.9865    8.1044 H   0  0  0  0  0  0  0  0  0  0  0  0
   -2.1611   12.5895    7.2137 C   0  0  0  0  0  0  0  0  0  0  0  0
   -2.9874   12.9233    5.9620 C   0  0  0  0  0  0  0  0  0  0  0  0
   -2.8797   11.8318    4.8559 C   0  0  0  0  0  0  0  0  0  0  0  0
   -1.5323   11.7213    4.2974 N   0  0  0  0  0  0  0  0  0  0  0  0
   -1.2673   12.6091    3.8707 H   0  0  0  0  0  0  0  0  0  0  0  0
   -1.5165   10.9862    3.5904 H   0  0  0  0  0  0  0  0  0  0  0  0
   -3.9107   12.2139    3.7190 C   0  0  0  0  0  0  0  0  0  0  0  0
   -4.4869   11.2903    3.1043 O   0  0  0  0  0  0  0  0  0  0  0  0
   -4.0954   13.4329    3.5151 O   0  0  0  0  0  0  0  0  0  0  0  0
   -3.6248   14.0685    4.0176 H   0  0  0  0  0  0  0  0  0  0  0  0
    3.5424   14.2071    6.8921 N   0  0  0  0  0  0  0  0  0  0  0  0
    2.5242   13.3218    7.1459 C   0  0  0  0  0  0  0  0  0  0  0  0
    2.4708   12.1878    6.6674 O   0  0  0  0  0  0  0  0  0  0  0  0
    3.5274   15.0977    7.3114 H   0  0  0  0  0  0  0  0  0  0  0  0
    4.6544   13.8429    6.0029 C   0  0  0  0  0  0  0  0  0  0  0  0
    5.1788   15.1399    5.3195 C   0  0  0  0  0  0  0  0  0  0  0  0
    5.1040   15.2313    4.0668 O   0  0  0  0  0  0  0  0  0  0  0  0
    5.6281   16.0107    6.0922 O   0  0  0  0  0  0  0  0  0  0  0  0
    5.6444   15.8540    7.0159 H   0  0  0  0  0  0  0  0  0  0  0  0
 19 20  1  0  0  0
 20 23  1  0  0  0
 20 18  1  0  0  0
 23 24  2  0  0  0
 23 25  1  0  0  0
 18 17  1  0  0  0
 17 13  1  0  0  0
 13 14  2  0  0  0
 13 15  1  0  0  0
 15  3  1  0  0  0
  3  4  1  0  0  0
  3  2  1  0  0  0
  4  5  2  0  0  0
  4  6  1  0  0  0
  2  1  1  0  0  0
  1 27  1  0  0  0
  6  8  1  0  0  0
  8  9  1  0  0  0
  9 10  2  0  0  0
  9 11  1  0  0  0
 44 48  1  0  0  0
 44 45  1  0  0  0
 48 49  1  0  0  0
 49 50  2  0  0  0
 49 51  1  0  0  0
 45 46  2  0  0  0
 45 29  1  0  0  0
 29 30  1  0  0  0
 29 28  1  0  0  0
 30 31  1  0  0  0
 28 27  1  0  0  0
 36 40  1  0  0  0
 36 37  1  0  0  0
 36 35  1  0  0  0
 40 41  2  0  0  0
 40 42  1  0  0  0
 35 34  1  0  0  0
 34 31  1  0  0  0
 31 32  2  0  0  0
 19 21  1  0  0  0
 19 22  1  0  0  0
 25 26  1  0  0  0
 15 16  1  0  0  0
  6  7  1  0  0  0
 11 12  1  0  0  0
 44 47  1  0  0  0
 51 52  1  0  0  0
 30 33  1  0  0  0
 42 43  1  0  0  0
 37 38  1  0  0  0
 37 39  1  0  0  0
M  END
> <minimizedAffinity>
-7.61556

$$$$
4F0C_GDS_A_301


 52 51  0  0  0  0  0  0  0  0999 V2000
   -0.3014   11.9948    6.8842 S   0  0  0  0  0  0  0  0  0  0  0  0
   -0.2512   13.6941    7.4959 C   0  0  0  0  0  0  0  0  0  0  0  0
    0.6639   13.7786    8.7399 C   0  0  0  0  0  0  0  0  0  0  0  0
    2.0097   13.2834    8.2688 C   0  0  0  0  0  0  0  0  0  0  0  0
    2.5379   12.3168    8.8262 O   0  0  0  0  0  0  0  0  0  0  0  0
    2.6140   13.9933    7.2934 N   0  0  0  0  0  0  0  0  0  0  0  0
    2.1671   14.7764    6.8982 H   0  0  0  0  0  0  0  0  0  0  0  0
    3.9167   13.5939    6.8376 C   0  0  0  0  0  0  0  0  0  0  0  0
    4.5888   14.7210    6.0614 C   0  0  0  0  0  0  0  0  0  0  0  0
    3.8874   15.3831    5.2662 O   0  0  0  0  0  0  0  0  0  0  0  0
    5.7830   14.9290    6.3440 O   0  0  0  0  0  0  0  0  0  0  0  0
    6.2234   14.3727    6.9561 H   0  0  0  0  0  0  0  0  0  0  0  0
   -0.1085   15.6879   10.1450 C   0  0  0  0  0  0  0  0  0  0  0  0
   -1.0324   15.0203   10.5788 O   0  0  0  0  0  0  0  0  0  0  0  0
    0.7749   15.1705    9.2190 N   0  0  0  0  0  0  0  0  0  0  0  0
    1.4956   15.7431    8.8699 H   0  0  0  0  0  0  0  0  0  0  0  0
    0.1825   17.1035   10.5310 C   0  0  0  0  0  0  0  0  0  0  0  0
    1.5947   17.4802   10.0259 C   0  0  0  0  0  0  0  0  0  0  0  0
    0.1148   19.1355    8.7645 N   0  0  0  0  0  0  0  0  0  0  0  0
    1.5265   18.6294    8.9586 C   0  0  0  0  0  0  0  0  0  0  0  0
    0.1131   19.8787    8.0658 H   0  0  0  0  0  0  0  0  0  0  0  0
   -0.2406   19.4993    9.6487 H   0  0  0  0  0  0  0  0  0  0  0  0
    2.1341   18.0962    7.6008 C   0  0  0  0  0  0  0  0  0  0  0  0
    2.3556   18.9174    6.6610 O   0  0  0  0  0  0  0  0  0  0  0  0
    2.4371   16.8694    7.5605 O   0  0  0  0  0  0  0  0  0  0  0  0
    2.2452   16.3152    8.2913 H   0  0  0  0  0  0  0  0  0  0  0  0
   -1.5694   12.1688    5.1621 S   0  0  0  0  0  0  0  0  0  0  0  0
   -0.5088   12.7947    3.8032 C   0  0  0  0  0  0  0  0  0  0  0  0
   -1.3579   13.4894    2.7334 C   0  0  0  0  0  0  0  0  0  0  0  0
   -2.4474   14.2875    3.3628 N   0  0  0  0  0  0  0  0  0  0  0  0
   -2.5512   15.6750    3.1030 C   0  0  0  0  0  0  0  0  0  0  0  0
   -1.7275   16.2311    2.3671 O   0  0  0  0  0  0  0  0  0  0  0  0
   -3.0959   13.8492    3.9600 H   0  0  0  0  0  0  0  0  0  0  0  0
   -3.7020   16.3644    3.8246 C   0  0  0  0  0  0  0  0  0  0  0  0
   -3.2065   17.0932    5.0833 C   0  0  0  0  0  0  0  0  0  0  0  0
   -3.4442   16.2777    6.3889 C   0  0  0  0  0  0  0  0  0  0  0  0
   -4.8228   16.3659    6.8697 N   0  0  0  0  0  0  0  0  0  0  0  0
   -5.0489   17.3386    7.0773 H   0  0  0  0  0  0  0  0  0  0  0  0
   -4.9243   15.8052    7.7157 H   0  0  0  0  0  0  0  0  0  0  0  0
   -2.4494   16.8424    7.4813 C   0  0  0  0  0  0  0  0  0  0  0  0
   -2.8994   17.0982    8.6193 O   0  0  0  0  0  0  0  0  0  0  0  0
   -1.2575   16.9858    7.1347 O   0  0  0  0  0  0  0  0  0  0  0  0
   -0.9946   16.7721    6.2610 H   0  0  0  0  0  0  0  0  0  0  0  0
   -3.2951   12.4199    1.6113 N   0  0  0  0  0  0  0  0  0  0  0  0
   -1.9405   12.4069    1.8340 C   0  0  0  0  0  0  0  0  0  0  0  0
   -1.1743   11.5833    1.3317 O   0  0  0  0  0  0  0  0  0  0  0  0
   -3.8512   13.1100    2.0400 H   0  0  0  0  0  0  0  0  0  0  0  0
   -3.9261   11.4173    0.7415 C   0  0  0  0  0  0  0  0  0  0  0  0
   -5.1018   10.7617    1.5240 C   0  0  0  0  0  0  0  0  0  0  0  0
   -5.8369   11.4978    2.2316 O   0  0  0  0  0  0  0  0  0  0  0  0
   -5.2302    9.5301    1.3688 O   0  0  0  0  0  0  0  0  0  0  0  0
   -4.6321    9.0622    0.8199 H   0  0  0  0  0  0  0  0  0  0  0  0
 19 20  1  0  0  0
 20 23  1  0  0  0
 20 18  1  0  0  0
 23 24  2  0  0  0
 23 25  1  0  0  0
 18 17  1  0  0  0
 17 13  1  0  0  0
 13 14  2  0  0  0
 13 15  1  0  0  0
 15  3  1  0  0  0
  3  4  1  0  0  0
  3  2  1  0  0  0
  4  5  2  0  0  0
  4  6  1  0  0  0
  2  1  1  0  0  0
  1 27  1  0  0  0
  6  8  1  0  0  0
  8  9  1  0  0  0
  9 10  2  0  0  0
  9 11  1  0  0  0
 44 48  1  0  0  0
 44 45  1  0  0  0
 48 49  1  0  0  0
 49 50  2  0  0  0
 49 51  1  0  0  0
 45 46  2  0  0  0
 45 29  1  0  0  0
 29 30  1  0  0  0
 29 28  1  0  0  0
 30 31  1  0  0  0
 28 27  1  0  0  0
 36 40  1  0  0  0
 36 37  1  0  0  0
 36 35  1  0  0  0
 40 41  2  0  0  0
 40 42  1  0  0  0
 35 34  1  0  0  0
 34 31  1  0  0  0
 31 32  2  0  0  0
 19 21  1  0  0  0
 19 22  1  0  0  0
 25 26  1  0  0  0
 15 16  1  0  0  0
  6  7  1  0  0  0
 11 12  1  0  0  0
 44 47  1  0  0  0
 51 52  1  0  0  0
 30 33  1  0  0  0
 42 43  1  0  0  0
 37 38  1  0  0  0
 37 39  1  0  0  0
M  END
> <minimizedAffinity>
-7.60705

$$$$
4F0C_GDS_A_301


 52 51  0  0  0  0  0  0  0  0999 V2000
    2.5742   17.7112   10.7766 S   0  0  0  0  0  0  0  0  0  0  0  0
    1.1551   18.5333   10.0184 C   0  0  0  0  0  0  0  0  0  0  0  0
    0.9853   18.0505    8.5590 C   0  0  0  0  0  0  0  0  0  0  0  0
   -0.4622   18.3180    8.2252 C   0  0  0  0  0  0  0  0  0  0  0  0
   -1.0037   19.3525    8.6257 O   0  0  0  0  0  0  0  0  0  0  0  0
   -1.1245   17.3485    7.5602 N   0  0  0  0  0  0  0  0  0  0  0  0
   -0.6587   16.5255    7.2865 H   0  0  0  0  0  0  0  0  0  0  0  0
   -2.5168   17.5303    7.2559 C   0  0  0  0  0  0  0  0  0  0  0  0
   -2.9536   16.5938    6.1349 C   0  0  0  0  0  0  0  0  0  0  0  0
   -4.0256   16.8482    5.5442 O   0  0  0  0  0  0  0  0  0  0  0  0
   -2.1549   15.6803    5.8573 O   0  0  0  0  0  0  0  0  0  0  0  0
   -1.3738   15.5711    6.3633 H   0  0  0  0  0  0  0  0  0  0  0  0
    2.8406   18.1826    6.8986 C   0  0  0  0  0  0  0  0  0  0  0  0
    3.0312   16.9812    6.9868 O   0  0  0  0  0  0  0  0  0  0  0  0
    1.8645   18.8088    7.6473 N   0  0  0  0  0  0  0  0  0  0  0  0
    1.7521   19.7840    7.5715 H   0  0  0  0  0  0  0  0  0  0  0  0
    3.6088   19.1104    6.0117 C   0  0  0  0  0  0  0  0  0  0  0  0
    2.9825   20.5215    6.1005 C   0  0  0  0  0  0  0  0  0  0  0  0
    5.0702   21.9778    6.3051 N   0  0  0  0  0  0  0  0  0  0  0  0
    3.9050   21.5943    5.4207 C   0  0  0  0  0  0  0  0  0  0  0  0
    5.6435   22.6743    5.8291 H   0  0  0  0  0  0  0  0  0  0  0  0
    5.6338   21.1509    6.5025 H   0  0  0  0  0  0  0  0  0  0  0  0
    3.0279   22.8561    5.0522 C   0  0  0  0  0  0  0  0  0  0  0  0
    3.1407   23.9090    5.7490 O   0  0  0  0  0  0  0  0  0  0  0  0
    2.3066   22.7603    4.0184 O   0  0  0  0  0  0  0  0  0  0  0  0
    2.2675   21.9511    3.5477 H   0  0  0  0  0  0  0  0  0  0  0  0
    2.2165   15.6510   10.2957 S   0  0  0  0  0  0  0  0  0  0  0  0
    0.4793   15.3058   10.7711 C   0  0  0  0  0  0  0  0  0  0  0  0
    0.0627   13.9052   10.3096 C   0  0  0  0  0  0  0  0  0  0  0  0
    0.9977   13.3947    9.2678 N   0  0  0  0  0  0  0  0  0  0  0  0
    1.6488   12.1507    9.4472 C   0  0  0  0  0  0  0  0  0  0  0  0
    1.4563   11.4932   10.4767 O   0  0  0  0  0  0  0  0  0  0  0  0
    1.1629   13.9232    8.4538 H   0  0  0  0  0  0  0  0  0  0  0  0
    2.5858   11.7630    8.3105 C   0  0  0  0  0  0  0  0  0  0  0  0
    1.9945   12.1591    6.9487 C   0  0  0  0  0  0  0  0  0  0  0  0
    0.9527   11.1299    6.4179 C   0  0  0  0  0  0  0  0  0  0  0  0
    1.4548   10.3447    5.2906 N   0  0  0  0  0  0  0  0  0  0  0  0
    1.6828   10.9685    4.5165 H   0  0  0  0  0  0  0  0  0  0  0  0
    0.7396    9.6810    4.9932 H   0  0  0  0  0  0  0  0  0  0  0  0
   -0.3316   11.9450    5.9846 C   0  0  0  0  0  0  0  0  0  0  0  0
   -1.1658   11.3873    5.2389 O   0  0  0  0  0  0  0  0  0  0  0  0
   -0.4374   13.1064    6.4334 O   0  0  0  0  0  0  0  0  0  0  0  0
    0.2312   13.4569    6.9884 H   0  0  0  0  0  0  0  0  0  0  0  0
   -2.3889   13.6260   10.5696 N   0  0  0  0  0  0  0  0  0  0  0  0
   -1.3520   14.0058    9.7539 C   0  0  0  0  0  0  0  0  0  0  0  0
   -1.5063   14.4395    8.6112 O   0  0  0  0  0  0  0  0  0  0  0  0
   -2.1969   13.2922   11.4757 H   0  0  0  0  0  0  0  0  0  0  0  0
   -3.7816   13.7113   10.1082 C   0  0  0  0  0  0  0  0  0  0  0  0
   -4.6898   13.9859   11.3429 C   0  0  0  0  0  0  0  0  0  0  0  0
   -5.9085   14.2312   11.1495 O   0  0  0  0  0  0  0  0  0  0  0  0
   -4.1218   13.9237   12.4523 O   0  0  0  0  0  0  0  0  0  0  0  0
   -3.2054   13.7343   12.4995 H   0  0  0  0  0  0  0  0  0  0  0  0
 19 20  1  0  0  0
 20 23  1  0  0  0
 20 18  1  0  0  0
 23 24  2  0  0  0
 23 25  1  0  0  0
 18 17  1  0  0  0
 17 13  1  0  0  0
 13 14  2  0  0  0
 13 15  1  0  0  0
 15  3  1  0  0  0
  3  4  1  0  0  0
  3  2  1  0  0  0
  4  5  2  0  0  0
  4  6  1  0  0  0
  2  1  1  0  0  0
  1 27  1  0  0  0
  6  8  1  0  0  0
  8  9  1  0  0  0
  9 10  2  0  0  0
  9 11  1  0  0  0
 44 48  1  0  0  0
 44 45  1  0  0  0
 48 49  1  0  0  0
 49 50  2  0  0  0
 49 51  1  0  0  0
 45 46  2  0  0  0
 45 29  1  0  0  0
 29 30  1  0  0  0
 29 28  1  0  0  0
 30 31  1  0  0  0
 28 27  1  0  0  0
 36 40  1  0  0  0
 36 37  1  0  0  0
 36 35  1  0  0  0
 40 41  2  0  0  0
 40 42  1  0  0  0
 35 34  1  0  0  0
 34 31  1  0  0  0
 31 32  2  0  0  0
 19 21  1  0  0  0
 19 22  1  0  0  0
 25 26  1  0  0  0
 15 16  1  0  0  0
  6  7  1  0  0  0
 11 12  1  0  0  0
 44 47  1  0  0  0
 51 52  1  0  0  0
 30 33  1  0  0  0
 42 43  1  0  0  0
 37 38  1  0  0  0
 37 39  1  0  0  0
M  END
> <minimizedAffinity>
-7.59532

$$$$
4F0C_GDS_A_301


 52 51  0  0  0  0  0  0  0  0999 V2000
    2.4275   11.0336    9.4677 S   0  0  0  0  0  0  0  0  0  0  0  0
    1.0539   10.9320    8.2984 C   0  0  0  0  0  0  0  0  0  0  0  0
    1.4291   11.6522    6.9821 C   0  0  0  0  0  0  0  0  0  0  0  0
    0.1295   12.2172    6.4622 C   0  0  0  0  0  0  0  0  0  0  0  0
   -0.2126   13.3607    6.7771 O   0  0  0  0  0  0  0  0  0  0  0  0
   -0.6457   11.3906    5.7298 N   0  0  0  0  0  0  0  0  0  0  0  0
   -0.3451   10.4750    5.5283 H   0  0  0  0  0  0  0  0  0  0  0  0
   -1.9145   11.8610    5.2471 C   0  0  0  0  0  0  0  0  0  0  0  0
   -1.7539   12.5820    3.9134 C   0  0  0  0  0  0  0  0  0  0  0  0
   -1.9373   11.9237    2.8666 O   0  0  0  0  0  0  0  0  0  0  0  0
   -1.5161   13.8015    3.9882 O   0  0  0  0  0  0  0  0  0  0  0  0
   -1.3931   14.2044    4.8251 H   0  0  0  0  0  0  0  0  0  0  0  0
    3.3223   13.1177    6.2861 C   0  0  0  0  0  0  0  0  0  0  0  0
    3.4020   12.5393    5.2154 O   0  0  0  0  0  0  0  0  0  0  0  0
    2.3915   12.7429    7.2341 N   0  0  0  0  0  0  0  0  0  0  0  0
    2.3689   13.2139    8.0983 H   0  0  0  0  0  0  0  0  0  0  0  0
    4.1889   14.2607    6.7105 C   0  0  0  0  0  0  0  0  0  0  0  0
    5.2993   14.4667    5.6541 C   0  0  0  0  0  0  0  0  0  0  0  0
    4.7562   15.9208    3.6264 N   0  0  0  0  0  0  0  0  0  0  0  0
    5.2496   15.9171    5.0558 C   0  0  0  0  0  0  0  0  0  0  0  0
    4.7386   16.8783    3.2753 H   0  0  0  0  0  0  0  0  0  0  0  0
    3.8156   15.5281    3.5903 H   0  0  0  0  0  0  0  0  0  0  0  0
    6.6893   16.5596    5.1651 C   0  0  0  0  0  0  0  0  0  0  0  0
    7.2030   17.0972    4.1385 O   0  0  0  0  0  0  0  0  0  0  0  0
    7.2208   16.5632    6.3122 O   0  0  0  0  0  0  0  0  0  0  0  0
    6.7873   16.1464    7.0307 H   0  0  0  0  0  0  0  0  0  0  0  0
    1.5910   12.2170   11.0500 S   0  0  0  0  0  0  0  0  0  0  0  0
    1.8325   13.9690   10.5651 C   0  0  0  0  0  0  0  0  0  0  0  0
    0.4820   14.6536   10.3290 C   0  0  0  0  0  0  0  0  0  0  0  0
   -0.5157   13.6810    9.8011 N   0  0  0  0  0  0  0  0  0  0  0  0
   -1.8133   13.6202   10.3634 C   0  0  0  0  0  0  0  0  0  0  0  0
   -2.1160   14.3621   11.3054 O   0  0  0  0  0  0  0  0  0  0  0  0
   -0.2722   13.0800    9.0603 H   0  0  0  0  0  0  0  0  0  0  0  0
   -2.7210   12.5706    9.7352 C   0  0  0  0  0  0  0  0  0  0  0  0
   -3.2106   13.0220    8.3504 C   0  0  0  0  0  0  0  0  0  0  0  0
   -3.5363   14.5440    8.2893 C   0  0  0  0  0  0  0  0  0  0  0  0
   -4.9275   14.8404    8.6305 N   0  0  0  0  0  0  0  0  0  0  0  0
   -5.5469   14.3734    7.9683 H   0  0  0  0  0  0  0  0  0  0  0  0
   -5.0809   15.8479    8.5872 H   0  0  0  0  0  0  0  0  0  0  0  0
   -3.2208   15.0316    6.8181 C   0  0  0  0  0  0  0  0  0  0  0  0
   -4.1610   15.0871    5.9960 O   0  0  0  0  0  0  0  0  0  0  0  0
   -2.0369   15.3473    6.5730 O   0  0  0  0  0  0  0  0  0  0  0  0
   -1.3854   15.2786    7.2430 H   0  0  0  0  0  0  0  0  0  0  0  0
    0.1083   16.9913    9.5864 N   0  0  0  0  0  0  0  0  0  0  0  0
    0.7068   15.7824    9.3312 C   0  0  0  0  0  0  0  0  0  0  0  0
    1.4272   15.5703    8.3546 O   0  0  0  0  0  0  0  0  0  0  0  0
   -0.4522   17.0959   10.3890 H   0  0  0  0  0  0  0  0  0  0  0  0
    0.2934   18.1313    8.6776 C   0  0  0  0  0  0  0  0  0  0  0  0
   -1.1100   18.6992    8.3136 C   0  0  0  0  0  0  0  0  0  0  0  0
   -1.5613   19.6621    8.9861 O   0  0  0  0  0  0  0  0  0  0  0  0
   -1.6797   18.1476    7.3501 O   0  0  0  0  0  0  0  0  0  0  0  0
   -1.2652   17.4335    6.9071 H   0  0  0  0  0  0  0  0  0  0  0  0
 19 20  1  0  0  0
 20 23  1  0  0  0
 20 18  1  0  0  0
 23 24  2  0  0  0
 23 25  1  0  0  0
 18 17  1  0  0  0
 17 13  1  0  0  0
 13 14  2  0  0  0
 13 15  1  0  0  0
 15  3  1  0  0  0
  3  4  1  0  0  0
  3  2  1  0  0  0
  4  5  2  0  0  0
  4  6  1  0  0  0
  2  1  1  0  0  0
  1 27  1  0  0  0
  6  8  1  0  0  0
  8  9  1  0  0  0
  9 10  2  0  0  0
  9 11  1  0  0  0
 44 48  1  0  0  0
 44 45  1  0  0  0
 48 49  1  0  0  0
 49 50  2  0  0  0
 49 51  1  0  0  0
 45 46  2  0  0  0
 45 29  1  0  0  0
 29 30  1  0  0  0
 29 28  1  0  0  0
 30 31  1  0  0  0
 28 27  1  0  0  0
 36 40  1  0  0  0
 36 37  1  0  0  0
 36 35  1  0  0  0
 40 41  2  0  0  0
 40 42  1  0  0  0
 35 34  1  0  0  0
 34 31  1  0  0  0
 31 32  2  0  0  0
 19 21  1  0  0  0
 19 22  1  0  0  0
 25 26  1  0  0  0
 15 16  1  0  0  0
  6  7  1  0  0  0
 11 12  1  0  0  0
 44 47  1  0  0  0
 51 52  1  0  0  0
 30 33  1  0  0  0
 42 43  1  0  0  0
 37 38  1  0  0  0
 37 39  1  0  0  0
M  END
> <minimizedAffinity>
-7.56761

$$$$
