1ATR_ADP_A_486
  RCSB PDB12061702013D
Coordinates from PDB:1ATR:A:486 Model:1 without hydrogens
 27 29  0  0  0  0            999 V2000
   17.6640   29.5160   16.4650   P 0  0  0  0  0  0  0  0  0  0  0  0
   17.3040   29.9120   17.8520   O 0  0  0  0  0  0  0  0  0  0  0  0
   18.7360   28.5200   16.4050   O 0  0  0  0  0  0  0  0  0  0  0  0
   16.4940   29.1230   15.6610   O 0  0  0  0  0  0  0  0  0  0  0  0
   19.5220   31.4600   15.1380   P 0  0  0  0  0  0  0  0  0  0  0  0
   20.5160   30.3580   15.2030   O 0  0  0  0  0  0  0  0  0  0  0  0
   19.3000   32.1620   13.8450   O 0  0  0  0  0  0  0  0  0  0  0  0
   18.1510   30.9090   15.8280   O 0  0  0  0  0  0  0  0  0  0  0  0
   19.7630   32.5300   16.2290   O 0  0  0  0  0  0  0  0  0  0  0  0
   18.9980   33.6940   16.2380   C 0  0  0  0  0  0  0  0  0  0  0  0
   19.3640   34.5520   17.4210   C 0  0  0  0  0  0  0  0  0  0  0  0
   20.5810   35.1190   16.9730   O 0  0  0  0  0  0  0  0  0  0  0  0
   18.4780   35.7970   17.7970   C 0  0  0  0  0  0  0  0  0  0  0  0
   18.6370   35.9420   19.1990   O 0  0  0  0  0  0  0  0  0  0  0  0
   19.1400   36.9210   17.0330   C 0  0  0  0  0  0  0  0  0  0  0  0
   18.9060   38.1850   17.6830   O 0  0  0  0  0  0  0  0  0  0  0  0
   20.5930   36.4980   17.2240   C 0  0  0  0  0  0  0  0  0  0  0  0
   21.4930   37.1880   16.2800   N 0  0  0  0  0  0  0  0  0  0  0  0
   21.5360   37.3100   14.9100   C 0  0  0  0  0  0  0  0  0  0  0  0
   22.4270   38.1730   14.4750   N 0  0  0  0  0  0  0  0  0  0  0  0
   23.0070   38.6320   15.6660   C 0  0  0  0  0  0  0  0  0  0  0  0
   24.0140   39.5520   15.8950   C 0  0  0  0  0  0  0  0  0  0  0  0
   24.5300   40.1990   14.8540   N 0  0  0  0  0  0  0  0  0  0  0  0
   24.3810   39.7860   17.1730   N 0  0  0  0  0  0  0  0  0  0  0  0
   23.7640   39.1250   18.1310   C 0  0  0  0  0  0  0  0  0  0  0  0
   22.7920   38.2290   18.0420   N 0  0  0  0  0  0  0  0  0  0  0  0
   22.4540   38.0330   16.7390   C 0  0  0  0  0  0  0  0  0  0  0  0
  1  2  2  0  0  0  0
  1  3  1  0  0  0  0
  1  4  1  0  0  0  0
  1  8  1  0  0  0  0
  5  6  2  0  0  0  0
  5  7  1  0  0  0  0
  5  8  1  0  0  0  0
  5  9  1  0  0  0  0
  9 10  1  0  0  0  0
 10 11  1  0  0  0  0
 11 12  1  0  0  0  0
 11 13  1  0  0  0  0
 12 17  1  0  0  0  0
 13 14  1  0  0  0  0
 13 15  1  0  0  0  0
 15 16  1  0  0  0  0
 15 17  1  0  0  0  0
 17 18  1  0  0  0  0
 18 19  1  0  0  0  0
 18 27  1  0  0  0  0
 19 20  2  0  0  0  0
 20 21  1  0  0  0  0
 21 22  1  0  0  0  0
 21 27  2  0  0  0  0
 22 23  1  0  0  0  0
 22 24  2  0  0  0  0
 24 25  1  0  0  0  0
 25 26  2  0  0  0  0
 26 27  1  0  0  0  0
A    1
PB
A    2
O1B
A    3
O2B
A    4
O3B
A    5
PA
A    6
O1A
A    7
O2A
A    8
O3A
A    9
O5'
A   10
C5'
A   11
C4'
A   12
O4'
A   13
C3'
A   14
O3'
A   15
C2'
A   16
O2'
A   17
C1'
A   18
N9
A   19
C8
A   20
N7
A   21
C5
A   22
C6
A   23
N6
A   24
N1
A   25
C2
A   26
N3
A   27
C4
M  END
>  <InstanceId>
1ATR_ADP_A_486

>  <ChemCompId>
ADP

>  <PdbId>
1ATR

>  <ChainId>
A

>  <ResidueNumber>
486

>  <InsertionCode>


>  <Model>
1

>  <AltIds>


>  <MissingHeavyAtoms>
0

>  <ObservedFormula>
C10 N5 O10 P2

>  <Name>
ADENOSINE-5'-DIPHOSPHATE

>  <SystematicName>
[(2R,3S,4R,5R)-5-(6-aminopurin-9-yl)-3,4-dihydroxy-oxolan-2-yl]methyl phosphono hydrogen phosphate

>  <Synonyms>


>  <Type>
NON-POLYMER

>  <Formula>
C10 H15 N5 O10 P2

>  <MolecularWeight>
427.201

>  <ModifiedDate>
2011-06-04

>  <Parent>
A

>  <OneLetterCode>


>  <SubcomponentList>


>  <AmbiguousFlag>
N

>  <InChI>
InChI=1S/C10H15N5O10P2/c11-8-5-9(13-2-12-8)15(3-14-5)10-7(17)6(16)4(24-10)1-23-27(21,22)25-26(18,19)20/h2-4,6-7,10,16-17H,1H2,(H,21,22)(H2,11,12,13)(H2,18,19,20)/t4-,6-,7-,10-/m1/s1

>  <InChIKey>
XTWYTFMLZFPYCI-KQYNXXCUSA-N

>  <SMILES>
c1nc(c2c(n1)n(cn2)[C@H]3[C@@H]([C@@H]([C@H](O3)CO[P@](=O)(O)OP(=O)(O)O)O)O)N

$$$$
