3DA9_44U_B_1
  RCSB PDB12061708173D
Coordinates from PDB:3DA9:B:1 Model:1 without hydrogens
 28 30  0  0  0  0            999 V2000
   12.3680   -9.6120   20.9670   C 0  0  0  0  0  0  0  0  0  0  0  0
   13.8190   -9.7540   21.4300   C 0  0  0  0  0  0  0  0  0  0  0  0
   14.6080  -10.5260   20.3690   C 0  0  0  0  0  0  0  0  0  0  0  0
   18.0940  -11.9150   21.1850   C 0  0  0  0  0  0  0  0  0  0  0  0
   19.1180  -11.9150   20.0260   C 0  0  0  0  0  0  0  0  0  0  0  0
   20.2430  -12.8380   20.5760   C 0  0  0  0  0  0  0  0  0  0  0  0
   19.4040  -13.9100   21.3130   C 0  0  0  0  0  0  0  0  0  0  0  0
   17.4560  -13.6380   22.9020   C 0  0  0  0  0  0  0  0  0  0  0  0
   17.7290  -14.9700   23.5520   C 0  0  0  0  0  0  0  0  0  0  0  0
   18.6010  -17.2540   25.3790   C 0  0  0  0  0  0  0  0  0  0  0  0
   18.5180  -18.3870   26.1880   C 0  0  0  0  0  0  0  0  0  0  0  0
   17.9700  -18.2900   27.4660   C 0  0  0  0  0  0  0  0  0  0  0  0
   17.5220  -17.0590   27.9360   C 0  0  0  0  0  0  0  0  0  0  0  0
   19.6440  -14.1980   25.0770   C 0  0  0  0  0  0  0  0  0  0  0  0
   22.2420  -13.1420   25.2250   C 0  0  0  0  0  0  0  0  0  0  0  0
   15.9920  -10.6640   20.8190   N 0  0  0  0  0  0  0  0  0  0  0  0
   16.6700  -11.8280   20.6760   C 0  0  0  0  0  0  0  0  0  0  0  0
   16.1580  -12.8160   20.1620   O 0  0  0  0  0  0  0  0  0  0  0  0
   18.2500  -13.1920   21.9080   N 0  0  0  0  0  0  0  0  0  0  0  0
   16.5110  -12.9810   23.3160   O 0  0  0  0  0  0  0  0  0  0  0  0
   18.2290  -14.7630   25.0000   C 0  0  0  0  0  0  0  0  0  0  0  0
   18.1420  -16.0200   25.8480   C 0  0  0  0  0  0  0  0  0  0  0  0
   17.6130  -15.9280   27.1250   C 0  0  0  0  0  0  0  0  0  0  0  0
   20.6890  -14.7470   24.3330   C 0  0  0  0  0  0  0  0  0  0  0  0
   21.9760  -14.2260   24.4040   C 0  0  0  0  0  0  0  0  0  0  0  0
   21.2100  -12.5910   25.9820   C 0  0  0  0  0  0  0  0  0  0  0  0
   19.9220  -13.1170   25.9120   C 0  0  0  0  0  0  0  0  0  0  0  0
   16.4940  -15.7640   23.4780   N 0  0  0  0  0  0  0  0  0  0  0  0
  1  2  1  0  0  0  0
  2  3  1  0  0  0  0
  3 16  1  0  0  0  0
  5  4  1  0  0  0  0
 17  4  1  0  0  0  0
  4 19  1  0  0  0  0
  5  6  1  0  0  0  0
  6  7  1  0  0  0  0
  7 19  1  0  0  0  0
 19  8  1  0  0  0  0
  8 20  2  0  0  0  0
  8  9  1  0  0  0  0
 28  9  1  0  0  0  0
  9 21  1  0  0  0  0
 10 22  2  0  0  0  0
 10 11  1  0  0  0  0
 11 12  2  0  0  0  0
 12 13  1  0  0  0  0
 23 13  2  0  0  0  0
 24 14  2  0  0  0  0
 21 14  1  0  0  0  0
 14 27  1  0  0  0  0
 25 15  2  0  0  0  0
 15 26  1  0  0  0  0
 17 16  1  0  0  0  0
 18 17  2  0  0  0  0
 21 22  1  0  0  0  0
 22 23  1  0  0  0  0
 24 25  1  0  0  0  0
 27 26  2  0  0  0  0
A    1
C1
A    2
C2
A    3
C3
A    4
C7
A    5
C9
A    6
C10
A    7
C11
A    8
C13
A    9
C15
A   10
C19
A   11
C20
A   12
C21
A   13
C22
A   14
C24
A   15
C27
A   16
N4
A   17
C5
A   18
O6
A   19
N12
A   20
O14
A   21
C17
A   22
C18
A   23
C23
A   24
C25
A   25
C26
A   26
C28
A   27
C29
A   28
N30
M  END
>  <InstanceId>
3DA9_44U_B_1

>  <ChemCompId>
44U

>  <PdbId>
3DA9

>  <ChainId>
B

>  <ResidueNumber>
1

>  <InsertionCode>


>  <Model>
1

>  <AltIds>


>  <MissingHeavyAtoms>
0

>  <ObservedFormula>
C23 N3 O2

>  <Name>
beta-phenyl-D-phenylalanyl-N-propyl-L-prolinamide

>  <SystematicName>
(2S)-1-[(2R)-2-amino-3,3-diphenyl-propanoyl]-N-propyl-pyrrolidine-2-carboxamide

>  <Synonyms>


>  <Type>
NON-POLYMER

>  <Formula>
C23 H29 N3 O2

>  <MolecularWeight>
379.495

>  <ModifiedDate>
2011-06-04

>  <Parent>


>  <OneLetterCode>


>  <SubcomponentList>


>  <AmbiguousFlag>
N

>  <InChI>
InChI=1S/C23H29N3O2/c1-2-15-25-22(27)19-14-9-16-26(19)23(28)21(24)20(17-10-5-3-6-11-17)18-12-7-4-8-13-18/h3-8,10-13,19-21H,2,9,14-16,24H2,1H3,(H,25,27)/t19-,21+/m0/s1

>  <InChIKey>
HZKKJPDVZGOOPU-PZJWPPBQSA-N

>  <SMILES>
CCCNC(=O)[C@@H]1CCCN1C(=O)[C@@H](C(c2ccccc2)c3ccccc3)N

$$$$
