6MA3_JAJ_A_1101


 46 49  0  0  0  0  0  0  0  0999 V2000
   -0.9110  -42.7817   14.7949 C   0  0  0  0  0  0  0  0  0  0  0  0
   -1.2457  -45.2230   15.2958 C   0  0  0  0  0  0  0  0  0  0  0  0
   -0.8802  -46.1131   17.4943 C   0  0  0  0  0  0  0  0  0  0  0  0
   -0.5382  -43.7781   17.0786 C   0  0  0  0  0  0  0  0  0  0  0  0
   -0.8903  -43.9672   15.7549 C   0  0  0  0  0  0  0  0  0  0  0  0
   -1.2380  -46.2991   16.1706 C   0  0  0  0  0  0  0  0  0  0  0  0
   -0.5335  -44.8569   17.9524 C   0  0  0  0  0  0  0  0  0  0  0  0
   -1.6056  -45.3689   13.9499 O   0  0  0  0  0  0  0  0  0  0  0  0
   -1.6659  -46.6755   13.4562 C   0  0  0  0  0  0  0  0  0  0  0  0
   -1.0471  -46.6821   12.0644 C   0  0  0  0  0  0  0  0  0  0  0  0
   -0.5286  -48.0546   11.6417 C   0  0  0  0  0  0  0  0  0  0  0  0
   -0.5512  -48.1779   10.1211 C   0  0  0  0  0  0  0  0  0  0  0  0
   -1.4017  -47.5128    9.4682 O   0  0  0  0  0  0  0  0  0  0  0  0
    0.2743  -48.9193    9.5212 O   0  0  0  0  0  0  0  0  0  0  0  0
   -2.0128  -46.9635    9.9186 H   0  0  0  0  0  0  0  0  0  0  0  0
   -2.3336  -42.2277   14.6284 C   0  0  0  0  0  0  0  0  0  0  0  0
   -2.6748  -40.8757   15.0687 N   0  0  0  0  0  0  0  0  0  0  0  0
   -3.1659  -42.9070   14.1294 O   0  0  0  0  0  0  0  0  0  0  0  0
   -4.0311  -40.3838   14.8825 C   0  0  0  0  0  0  0  0  0  0  0  0
   -4.3732  -40.2693   13.3981 C   0  0  0  0  0  0  0  0  0  0  0  0
   -5.2721  -40.9946   12.8983 O   0  0  0  0  0  0  0  0  0  0  0  0
   -3.7427  -39.4509   12.6782 O   0  0  0  0  0  0  0  0  0  0  0  0
   -5.7383  -41.6020   13.4384 H   0  0  0  0  0  0  0  0  0  0  0  0
   -1.6838  -40.0064   15.6822 C   0  0  0  0  0  0  0  0  0  0  0  0
   -2.0071  -39.7253   17.1468 C   0  0  0  0  0  0  0  0  0  0  0  0
   -1.9824  -40.6462   18.2044 C   0  0  0  0  0  0  0  0  0  0  0  0
   -2.3502  -40.0692   19.4646 C   0  0  0  0  0  0  0  0  0  0  0  0
   -2.6723  -38.7066   19.4167 C   0  0  0  0  0  0  0  0  0  0  0  0
   -2.4930  -38.2443   17.8033 S   0  0  0  0  0  0  0  0  0  0  0  0
   -0.4344  -43.2512   13.5158 N   0  0  0  0  0  0  0  0  0  0  0  0
   -0.6574  -44.2445   13.4523 H   0  0  0  0  0  0  0  0  0  0  0  0
    1.2224  -43.0796   13.1868 S   0  0  0  0  0  0  0  0  0  0  0  0
    1.4331  -42.5567   11.8353 O   0  0  0  0  0  0  0  0  0  0  0  0
    1.8602  -42.0933   14.0573 O   0  0  0  0  0  0  0  0  0  0  0  0
    4.5317  -50.2335   15.0979 O   0  0  0  0  0  0  0  0  0  0  0  0
    4.0281  -49.1690   15.0291 C   0  0  0  0  0  0  0  0  0  0  0  0
    3.8001  -48.5853   13.7165 N   0  0  0  0  0  0  0  0  0  0  0  0
    3.1521  -47.2155   13.5978 C   0  0  0  0  0  0  0  0  0  0  0  0
    2.7667  -46.5102   14.7543 C   0  0  0  0  0  0  0  0  0  0  0  0
    3.0037  -47.1149   16.1418 C   0  0  0  0  0  0  0  0  0  0  0  0
    3.6321  -48.4338   16.2575 C   0  0  0  0  0  0  0  0  0  0  0  0
    2.1796  -45.2517   14.6274 C   0  0  0  0  0  0  0  0  0  0  0  0
    1.9696  -44.7169   13.3576 C   0  0  0  0  0  0  0  0  0  0  0  0
    2.3516  -45.4203   12.2021 C   0  0  0  0  0  0  0  0  0  0  0  0
    2.9461  -46.6723   12.3288 C   0  0  0  0  0  0  0  0  0  0  0  0
    4.0651  -49.0770   12.9058 H   0  0  0  0  0  0  0  0  0  0  0  0
 35 36  2  0  0  0
 36 41  1  0  0  0
 36 37  1  0  0  0
 41 40  2  0  0  0
 37 38  1  0  0  0
 40 39  1  0  0  0
 38 39  2  0  0  0
 38 45  1  0  0  0
 39 42  1  0  0  0
 45 44  2  0  0  0
 42 43  2  0  0  0
 28 27  2  0  0  0
 28 29  1  0  0  0
 44 43  1  0  0  0
 43 32  1  0  0  0
 27 26  1  0  0  0
 29 25  1  0  0  0
 34 32  2  0  0  0
 33 32  2  0  0  0
 32 30  1  0  0  0
 26 25  2  0  0  0
 14 12  2  0  0  0
 25 24  1  0  0  0
 13 12  1  0  0  0
 12 11  1  0  0  0
 19 17  1  0  0  0
 19 20  1  0  0  0
 18 16  2  0  0  0
 30  1  1  0  0  0
 17 16  1  0  0  0
 17 24  1  0  0  0
 16  1  1  0  0  0
  1  5  1  0  0  0
 11 10  1  0  0  0
 22 20  2  0  0  0
 20 21  1  0  0  0
 10  9  1  0  0  0
  8  9  1  0  0  0
  8  2  1  0  0  0
  5  2  2  0  0  0
  5  4  1  0  0  0
  2  6  1  0  0  0
  4  7  2  0  0  0
  6  3  2  0  0  0
  7  3  1  0  0  0
 30 31  1  0  0  0
 37 46  1  0  0  0
 13 15  1  0  0  0
 21 23  1  0  0  0
M  END
> <minimizedAffinity>
-9.17816

$$$$
6MA3_JAJ_A_1101


 46 49  0  0  0  0  0  0  0  0999 V2000
   -1.0670  -43.5880   14.1440 C   0  0  0  0  0  0  0  0  0  0  0  0
   -1.0241  -45.7010   15.5064 C   0  0  0  0  0  0  0  0  0  0  0  0
   -1.5090  -47.8361   14.5237 C   0  0  0  0  0  0  0  0  0  0  0  0
   -1.5723  -45.8574   13.1736 C   0  0  0  0  0  0  0  0  0  0  0  0
   -1.2340  -45.0984   14.2788 C   0  0  0  0  0  0  0  0  0  0  0  0
   -1.1647  -47.0755   15.6272 C   0  0  0  0  0  0  0  0  0  0  0  0
   -1.7101  -47.2333   13.2972 C   0  0  0  0  0  0  0  0  0  0  0  0
   -0.6728  -44.8966   16.5980 O   0  0  0  0  0  0  0  0  0  0  0  0
   -1.1940  -45.2665   17.8414 C   0  0  0  0  0  0  0  0  0  0  0  0
   -2.6529  -44.8312   17.8891 C   0  0  0  0  0  0  0  0  0  0  0  0
   -3.2657  -44.9280   19.2841 C   0  0  0  0  0  0  0  0  0  0  0  0
   -4.5292  -44.0761   19.3619 C   0  0  0  0  0  0  0  0  0  0  0  0
   -4.4150  -42.8213   19.4291 O   0  0  0  0  0  0  0  0  0  0  0  0
   -5.6710  -44.6117   19.3444 O   0  0  0  0  0  0  0  0  0  0  0  0
   -3.5645  -42.4283   19.4418 H   0  0  0  0  0  0  0  0  0  0  0  0
   -2.4243  -42.8722   14.2072 C   0  0  0  0  0  0  0  0  0  0  0  0
   -2.5395  -41.5156   14.7407 N   0  0  0  0  0  0  0  0  0  0  0  0
   -3.3923  -43.4284   13.8114 O   0  0  0  0  0  0  0  0  0  0  0  0
   -3.8416  -40.8678   14.7725 C   0  0  0  0  0  0  0  0  0  0  0  0
   -4.2861  -40.4622   13.3683 C   0  0  0  0  0  0  0  0  0  0  0  0
   -5.2603  -41.0412   12.8212 O   0  0  0  0  0  0  0  0  0  0  0  0
   -3.6643  -39.5515   12.7605 O   0  0  0  0  0  0  0  0  0  0  0  0
   -5.7196  -41.7183   13.2779 H   0  0  0  0  0  0  0  0  0  0  0  0
   -1.3771  -40.7944   15.2332 C   0  0  0  0  0  0  0  0  0  0  0  0
   -1.5917  -40.2776   16.6529 C   0  0  0  0  0  0  0  0  0  0  0  0
   -1.7711  -41.0497   17.8100 C   0  0  0  0  0  0  0  0  0  0  0  0
   -1.9608  -40.2603   18.9920 C   0  0  0  0  0  0  0  0  0  0  0  0
   -1.9412  -38.8750   18.7844 C   0  0  0  0  0  0  0  0  0  0  0  0
   -1.6876  -38.6577   17.1299 S   0  0  0  0  0  0  0  0  0  0  0  0
   -0.4575  -43.3319   12.8608 N   0  0  0  0  0  0  0  0  0  0  0  0
   -0.6011  -44.1604   12.2834 H   0  0  0  0  0  0  0  0  0  0  0  0
    1.2030  -42.9785   12.8396 S   0  0  0  0  0  0  0  0  0  0  0  0
    1.5867  -42.3575   11.5702 O   0  0  0  0  0  0  0  0  0  0  0  0
    1.5709  -41.9879   13.8499 O   0  0  0  0  0  0  0  0  0  0  0  0
    5.7213  -49.4430   14.7308 O   0  0  0  0  0  0  0  0  0  0  0  0
    5.1591  -48.4117   14.6217 C   0  0  0  0  0  0  0  0  0  0  0  0
    4.1851  -48.2545   13.5530 N   0  0  0  0  0  0  0  0  0  0  0  0
    3.4449  -46.9370   13.3893 C   0  0  0  0  0  0  0  0  0  0  0  0
    3.6948  -45.8683   14.2717 C   0  0  0  0  0  0  0  0  0  0  0  0
    4.7197  -46.0226   15.3998 C   0  0  0  0  0  0  0  0  0  0  0  0
    5.4369  -47.2910   15.5561 C   0  0  0  0  0  0  0  0  0  0  0  0
    3.0117  -44.6643   14.1030 C   0  0  0  0  0  0  0  0  0  0  0  0
    2.0812  -44.5414   13.0727 C   0  0  0  0  0  0  0  0  0  0  0  0
    1.8288  -45.6076   12.1922 C   0  0  0  0  0  0  0  0  0  0  0  0
    2.5173  -46.8062   12.3546 C   0  0  0  0  0  0  0  0  0  0  0  0
    4.0055  -49.0006   12.9362 H   0  0  0  0  0  0  0  0  0  0  0  0
 35 36  2  0  0  0
 36 41  1  0  0  0
 36 37  1  0  0  0
 41 40  2  0  0  0
 37 38  1  0  0  0
 40 39  1  0  0  0
 38 39  2  0  0  0
 38 45  1  0  0  0
 39 42  1  0  0  0
 45 44  2  0  0  0
 42 43  2  0  0  0
 28 27  2  0  0  0
 28 29  1  0  0  0
 44 43  1  0  0  0
 43 32  1  0  0  0
 27 26  1  0  0  0
 29 25  1  0  0  0
 34 32  2  0  0  0
 33 32  2  0  0  0
 32 30  1  0  0  0
 26 25  2  0  0  0
 14 12  2  0  0  0
 25 24  1  0  0  0
 13 12  1  0  0  0
 12 11  1  0  0  0
 19 17  1  0  0  0
 19 20  1  0  0  0
 18 16  2  0  0  0
 30  1  1  0  0  0
 17 16  1  0  0  0
 17 24  1  0  0  0
 16  1  1  0  0  0
  1  5  1  0  0  0
 11 10  1  0  0  0
 22 20  2  0  0  0
 20 21  1  0  0  0
 10  9  1  0  0  0
  8  9  1  0  0  0
  8  2  1  0  0  0
  5  2  2  0  0  0
  5  4  1  0  0  0
  2  6  1  0  0  0
  4  7  2  0  0  0
  6  3  2  0  0  0
  7  3  1  0  0  0
 30 31  1  0  0  0
 37 46  1  0  0  0
 13 15  1  0  0  0
 21 23  1  0  0  0
M  END
> <minimizedAffinity>
-8.97182

$$$$
6MA3_JAJ_A_1101


 46 49  0  0  0  0  0  0  0  0999 V2000
   -1.1318  -43.5361   14.1626 C   0  0  0  0  0  0  0  0  0  0  0  0
   -1.3538  -45.6270   15.5416 C   0  0  0  0  0  0  0  0  0  0  0  0
   -1.6151  -47.7818   14.5179 C   0  0  0  0  0  0  0  0  0  0  0  0
   -1.4147  -45.8252   13.1491 C   0  0  0  0  0  0  0  0  0  0  0  0
   -1.3132  -45.0457   14.2868 C   0  0  0  0  0  0  0  0  0  0  0  0
   -1.5074  -47.0007   15.6550 C   0  0  0  0  0  0  0  0  0  0  0  0
   -1.5662  -47.2003   13.2659 C   0  0  0  0  0  0  0  0  0  0  0  0
   -1.2370  -44.8022   16.6678 O   0  0  0  0  0  0  0  0  0  0  0  0
   -0.4897  -45.3050   17.7370 C   0  0  0  0  0  0  0  0  0  0  0  0
    0.7860  -44.4802   17.8490 C   0  0  0  0  0  0  0  0  0  0  0  0
    1.4909  -44.6396   19.1940 C   0  0  0  0  0  0  0  0  0  0  0  0
    0.6711  -43.9770   20.2972 C   0  0  0  0  0  0  0  0  0  0  0  0
    0.5154  -42.7252   20.2725 O   0  0  0  0  0  0  0  0  0  0  0  0
    0.1434  -44.6666   21.2121 O   0  0  0  0  0  0  0  0  0  0  0  0
    0.9095  -42.2174   19.5907 H   0  0  0  0  0  0  0  0  0  0  0  0
   -2.4844  -42.8099   14.2022 C   0  0  0  0  0  0  0  0  0  0  0  0
   -2.5991  -41.4536   14.7366 N   0  0  0  0  0  0  0  0  0  0  0  0
   -3.4492  -43.3577   13.7872 O   0  0  0  0  0  0  0  0  0  0  0  0
   -3.8965  -40.7957   14.7457 C   0  0  0  0  0  0  0  0  0  0  0  0
   -4.3271  -40.4143   13.3304 C   0  0  0  0  0  0  0  0  0  0  0  0
   -5.2891  -41.0100   12.7797 O   0  0  0  0  0  0  0  0  0  0  0  0
   -3.7061  -39.5066   12.7173 O   0  0  0  0  0  0  0  0  0  0  0  0
   -5.7479  -41.6848   13.2404 H   0  0  0  0  0  0  0  0  0  0  0  0
   -1.4405  -40.7425   15.2523 C   0  0  0  0  0  0  0  0  0  0  0  0
   -1.6257  -40.3439   16.7136 C   0  0  0  0  0  0  0  0  0  0  0  0
   -1.7794  -41.2085   17.8074 C   0  0  0  0  0  0  0  0  0  0  0  0
   -1.9452  -40.5187   19.0536 C   0  0  0  0  0  0  0  0  0  0  0  0
   -1.9320  -39.1211   18.9594 C   0  0  0  0  0  0  0  0  0  0  0  0
   -1.7138  -38.7687   17.3232 S   0  0  0  0  0  0  0  0  0  0  0  0
   -0.4947  -43.2788   12.8931 N   0  0  0  0  0  0  0  0  0  0  0  0
   -0.6733  -44.0839   12.2928 H   0  0  0  0  0  0  0  0  0  0  0  0
    1.1817  -43.0103   12.8988 S   0  0  0  0  0  0  0  0  0  0  0  0
    1.6203  -42.4316   11.6272 O   0  0  0  0  0  0  0  0  0  0  0  0
    1.5805  -42.0222   13.8999 O   0  0  0  0  0  0  0  0  0  0  0  0
    4.8163  -49.8695   15.2490 O   0  0  0  0  0  0  0  0  0  0  0  0
    4.2877  -48.8237   15.1133 C   0  0  0  0  0  0  0  0  0  0  0  0
    3.9077  -48.3990   13.7751 N   0  0  0  0  0  0  0  0  0  0  0  0
    3.2243  -47.0569   13.5707 C   0  0  0  0  0  0  0  0  0  0  0  0
    2.9527  -46.2237   14.6732 C   0  0  0  0  0  0  0  0  0  0  0  0
    3.3501  -46.6604   16.0868 C   0  0  0  0  0  0  0  0  0  0  0  0
    4.0127  -47.9525   16.2845 C   0  0  0  0  0  0  0  0  0  0  0  0
    2.3311  -44.9925   14.4670 C   0  0  0  0  0  0  0  0  0  0  0  0
    1.9746  -44.6114   13.1746 C   0  0  0  0  0  0  0  0  0  0  0  0
    2.2429  -45.4425   12.0732 C   0  0  0  0  0  0  0  0  0  0  0  0
    2.8718  -46.6671   12.2777 C   0  0  0  0  0  0  0  0  0  0  0  0
    4.0931  -48.9804   13.0024 H   0  0  0  0  0  0  0  0  0  0  0  0
 35 36  2  0  0  0
 36 41  1  0  0  0
 36 37  1  0  0  0
 41 40  2  0  0  0
 37 38  1  0  0  0
 40 39  1  0  0  0
 38 39  2  0  0  0
 38 45  1  0  0  0
 39 42  1  0  0  0
 45 44  2  0  0  0
 42 43  2  0  0  0
 28 27  2  0  0  0
 28 29  1  0  0  0
 44 43  1  0  0  0
 43 32  1  0  0  0
 27 26  1  0  0  0
 29 25  1  0  0  0
 34 32  2  0  0  0
 33 32  2  0  0  0
 32 30  1  0  0  0
 26 25  2  0  0  0
 14 12  2  0  0  0
 25 24  1  0  0  0
 13 12  1  0  0  0
 12 11  1  0  0  0
 19 17  1  0  0  0
 19 20  1  0  0  0
 18 16  2  0  0  0
 30  1  1  0  0  0
 17 16  1  0  0  0
 17 24  1  0  0  0
 16  1  1  0  0  0
  1  5  1  0  0  0
 11 10  1  0  0  0
 22 20  2  0  0  0
 20 21  1  0  0  0
 10  9  1  0  0  0
  8  9  1  0  0  0
  8  2  1  0  0  0
  5  2  2  0  0  0
  5  4  1  0  0  0
  2  6  1  0  0  0
  4  7  2  0  0  0
  6  3  2  0  0  0
  7  3  1  0  0  0
 30 31  1  0  0  0
 37 46  1  0  0  0
 13 15  1  0  0  0
 21 23  1  0  0  0
M  END
> <minimizedAffinity>
-8.92257

$$$$
6MA3_JAJ_A_1101


 46 49  0  0  0  0  0  0  0  0999 V2000
   -2.5928  -39.2095   17.1903 C   0  0  0  0  0  0  0  0  0  0  0  0
   -3.6959  -37.0618   17.8930 C   0  0  0  0  0  0  0  0  0  0  0  0
   -2.8132  -34.9276   17.2411 C   0  0  0  0  0  0  0  0  0  0  0  0
   -1.7126  -36.9389   16.5445 C   0  0  0  0  0  0  0  0  0  0  0  0
   -2.6639  -37.6858   17.2148 C   0  0  0  0  0  0  0  0  0  0  0  0
   -3.7675  -35.6769   17.9063 C   0  0  0  0  0  0  0  0  0  0  0  0
   -1.7883  -35.5527   16.5578 C   0  0  0  0  0  0  0  0  0  0  0  0
   -4.6443  -37.8560   18.5503 O   0  0  0  0  0  0  0  0  0  0  0  0
   -5.9542  -37.7971   18.0653 C   0  0  0  0  0  0  0  0  0  0  0  0
   -6.6407  -39.1145   18.4020 C   0  0  0  0  0  0  0  0  0  0  0  0
   -5.6665  -40.2799   18.5565 C   0  0  0  0  0  0  0  0  0  0  0  0
   -5.4790  -40.6141   20.0334 C   0  0  0  0  0  0  0  0  0  0  0  0
   -4.5890  -40.0048   20.6880 O   0  0  0  0  0  0  0  0  0  0  0  0
   -6.2092  -41.4735   20.5985 O   0  0  0  0  0  0  0  0  0  0  0  0
   -4.0492  -39.3673   20.2636 H   0  0  0  0  0  0  0  0  0  0  0  0
   -1.7113  -39.7419   18.3296 C   0  0  0  0  0  0  0  0  0  0  0  0
   -1.7653  -41.1460   18.7344 N   0  0  0  0  0  0  0  0  0  0  0  0
   -0.9717  -39.0019   18.8850 O   0  0  0  0  0  0  0  0  0  0  0  0
   -0.9054  -41.6137   19.8106 C   0  0  0  0  0  0  0  0  0  0  0  0
   -1.5216  -41.3101   21.1751 C   0  0  0  0  0  0  0  0  0  0  0  0
   -1.1323  -40.3133   21.8374 O   0  0  0  0  0  0  0  0  0  0  0  0
   -2.4143  -42.0699   21.6347 O   0  0  0  0  0  0  0  0  0  0  0  0
   -0.4676  -39.7511   21.4908 H   0  0  0  0  0  0  0  0  0  0  0  0
   -2.6552  -42.0897   18.0776 C   0  0  0  0  0  0  0  0  0  0  0  0
   -1.9022  -43.3130   17.5628 C   0  0  0  0  0  0  0  0  0  0  0  0
   -0.6303  -43.3295   16.9718 C   0  0  0  0  0  0  0  0  0  0  0  0
   -0.2051  -44.6426   16.5829 C   0  0  0  0  0  0  0  0  0  0  0  0
   -1.1260  -45.6635   16.8517 C   0  0  0  0  0  0  0  0  0  0  0  0
   -2.4555  -44.9113   17.5699 S   0  0  0  0  0  0  0  0  0  0  0  0
   -2.0145  -39.5963   15.9256 N   0  0  0  0  0  0  0  0  0  0  0  0
   -1.5718  -38.7688   15.5260 H   0  0  0  0  0  0  0  0  0  0  0  0
   -3.0600  -40.2323   14.7487 S   0  0  0  0  0  0  0  0  0  0  0  0
   -4.3763  -40.5194   15.3224 O   0  0  0  0  0  0  0  0  0  0  0  0
   -3.3355  -39.2757   13.6781 O   0  0  0  0  0  0  0  0  0  0  0  0
    1.3172  -46.3796   11.7765 O   0  0  0  0  0  0  0  0  0  0  0  0
    0.8605  -45.3750   12.1935 C   0  0  0  0  0  0  0  0  0  0  0  0
   -0.5390  -45.3527   12.5890 N   0  0  0  0  0  0  0  0  0  0  0  0
   -1.1537  -44.0725   13.1307 C   0  0  0  0  0  0  0  0  0  0  0  0
   -0.3720  -42.9077   13.2559 C   0  0  0  0  0  0  0  0  0  0  0  0
    1.1026  -42.9196   12.8408 C   0  0  0  0  0  0  0  0  0  0  0  0
    1.6952  -44.1523   12.3147 C   0  0  0  0  0  0  0  0  0  0  0  0
   -0.9537  -41.7399   13.7485 C   0  0  0  0  0  0  0  0  0  0  0  0
   -2.2961  -41.7468   14.1233 C   0  0  0  0  0  0  0  0  0  0  0  0
   -3.0773  -42.9089   14.0010 C   0  0  0  0  0  0  0  0  0  0  0  0
   -2.4995  -44.0719   13.5006 C   0  0  0  0  0  0  0  0  0  0  0  0
   -1.0875  -46.1660   12.5060 H   0  0  0  0  0  0  0  0  0  0  0  0
 35 36  2  0  0  0
 36 41  1  0  0  0
 36 37  1  0  0  0
 41 40  2  0  0  0
 37 38  1  0  0  0
 40 39  1  0  0  0
 38 39  2  0  0  0
 38 45  1  0  0  0
 39 42  1  0  0  0
 45 44  2  0  0  0
 42 43  2  0  0  0
 28 27  2  0  0  0
 28 29  1  0  0  0
 44 43  1  0  0  0
 43 32  1  0  0  0
 27 26  1  0  0  0
 29 25  1  0  0  0
 34 32  2  0  0  0
 33 32  2  0  0  0
 32 30  1  0  0  0
 26 25  2  0  0  0
 14 12  2  0  0  0
 25 24  1  0  0  0
 13 12  1  0  0  0
 12 11  1  0  0  0
 19 17  1  0  0  0
 19 20  1  0  0  0
 18 16  2  0  0  0
 30  1  1  0  0  0
 17 16  1  0  0  0
 17 24  1  0  0  0
 16  1  1  0  0  0
  1  5  1  0  0  0
 11 10  1  0  0  0
 22 20  2  0  0  0
 20 21  1  0  0  0
 10  9  1  0  0  0
  8  9  1  0  0  0
  8  2  1  0  0  0
  5  2  2  0  0  0
  5  4  1  0  0  0
  2  6  1  0  0  0
  4  7  2  0  0  0
  6  3  2  0  0  0
  7  3  1  0  0  0
 30 31  1  0  0  0
 37 46  1  0  0  0
 13 15  1  0  0  0
 21 23  1  0  0  0
M  END
> <minimizedAffinity>
-8.64018

$$$$
6MA3_JAJ_A_1101


 46 49  0  0  0  0  0  0  0  0999 V2000
   -0.9997  -43.3881   14.3875 C   0  0  0  0  0  0  0  0  0  0  0  0
   -1.2649  -45.8079   15.0178 C   0  0  0  0  0  0  0  0  0  0  0  0
   -3.2130  -47.0605   14.3896 C   0  0  0  0  0  0  0  0  0  0  0  0
   -3.0219  -44.7553   13.7641 C   0  0  0  0  0  0  0  0  0  0  0  0
   -1.7931  -44.6910   14.3950 C   0  0  0  0  0  0  0  0  0  0  0  0
   -1.9806  -46.9958   15.0153 C   0  0  0  0  0  0  0  0  0  0  0  0
   -3.7350  -45.9465   13.7615 C   0  0  0  0  0  0  0  0  0  0  0  0
   -0.0124  -45.7024   15.6362 O   0  0  0  0  0  0  0  0  0  0  0  0
    0.6454  -46.9015   15.9262 C   0  0  0  0  0  0  0  0  0  0  0  0
    1.3728  -46.7306   17.2535 C   0  0  0  0  0  0  0  0  0  0  0  0
    2.0575  -45.3732   17.3954 C   0  0  0  0  0  0  0  0  0  0  0  0
    3.1846  -45.4593   18.4202 C   0  0  0  0  0  0  0  0  0  0  0  0
    2.9934  -46.1115   19.4832 O   0  0  0  0  0  0  0  0  0  0  0  0
    4.2959  -44.9023   18.2059 O   0  0  0  0  0  0  0  0  0  0  0  0
    2.1661  -46.5235   19.6377 H   0  0  0  0  0  0  0  0  0  0  0  0
   -1.8998  -42.1887   14.7184 C   0  0  0  0  0  0  0  0  0  0  0  0
   -2.0386  -41.7033   16.0907 N   0  0  0  0  0  0  0  0  0  0  0  0
   -2.4867  -41.6454   13.8445 O   0  0  0  0  0  0  0  0  0  0  0  0
   -2.8921  -40.5567   16.3610 C   0  0  0  0  0  0  0  0  0  0  0  0
   -2.2360  -39.2615   15.8861 C   0  0  0  0  0  0  0  0  0  0  0  0
   -2.6845  -38.6582   14.8768 O   0  0  0  0  0  0  0  0  0  0  0  0
   -1.2385  -38.8084   16.5068 O   0  0  0  0  0  0  0  0  0  0  0  0
   -3.4270  -38.9997   14.4185 H   0  0  0  0  0  0  0  0  0  0  0  0
   -1.3336  -42.3373   17.1930 C   0  0  0  0  0  0  0  0  0  0  0  0
   -2.2761  -43.1542   18.0721 C   0  0  0  0  0  0  0  0  0  0  0  0
   -2.6008  -44.5105   17.9221 C   0  0  0  0  0  0  0  0  0  0  0  0
   -3.5294  -44.9813   18.9082 C   0  0  0  0  0  0  0  0  0  0  0  0
   -3.9489  -44.0146   19.8313 C   0  0  0  0  0  0  0  0  0  0  0  0
   -3.1546  -42.5884   19.4021 S   0  0  0  0  0  0  0  0  0  0  0  0
   -0.4563  -43.2190   13.0609 N   0  0  0  0  0  0  0  0  0  0  0  0
   -0.6594  -44.0700   12.5366 H   0  0  0  0  0  0  0  0  0  0  0  0
    1.2108  -42.9258   12.9293 S   0  0  0  0  0  0  0  0  0  0  0  0
    1.5345  -42.3372   11.6281 O   0  0  0  0  0  0  0  0  0  0  0  0
    1.6765  -41.9347   13.8979 O   0  0  0  0  0  0  0  0  0  0  0  0
    5.7372  -49.4753   14.4778 O   0  0  0  0  0  0  0  0  0  0  0  0
    5.2122  -48.4231   14.3834 C   0  0  0  0  0  0  0  0  0  0  0  0
    4.0336  -48.3013   13.5398 N   0  0  0  0  0  0  0  0  0  0  0  0
    3.3363  -46.9580   13.4004 C   0  0  0  0  0  0  0  0  0  0  0  0
    3.8240  -45.8304   14.0890 C   0  0  0  0  0  0  0  0  0  0  0  0
    5.0656  -45.9471   14.9789 C   0  0  0  0  0  0  0  0  0  0  0  0
    5.7411  -47.2409   15.1108 C   0  0  0  0  0  0  0  0  0  0  0  0
    3.1760  -44.6041   13.9445 C   0  0  0  0  0  0  0  0  0  0  0  0
    2.0467  -44.5158   13.1324 C   0  0  0  0  0  0  0  0  0  0  0  0
    1.5572  -45.6405   12.4460 C   0  0  0  0  0  0  0  0  0  0  0  0
    2.2093  -46.8624   12.5826 C   0  0  0  0  0  0  0  0  0  0  0  0
    3.6880  -49.0882   13.0596 H   0  0  0  0  0  0  0  0  0  0  0  0
 35 36  2  0  0  0
 36 41  1  0  0  0
 36 37  1  0  0  0
 41 40  2  0  0  0
 37 38  1  0  0  0
 40 39  1  0  0  0
 38 39  2  0  0  0
 38 45  1  0  0  0
 39 42  1  0  0  0
 45 44  2  0  0  0
 42 43  2  0  0  0
 28 27  2  0  0  0
 28 29  1  0  0  0
 44 43  1  0  0  0
 43 32  1  0  0  0
 27 26  1  0  0  0
 29 25  1  0  0  0
 34 32  2  0  0  0
 33 32  2  0  0  0
 32 30  1  0  0  0
 26 25  2  0  0  0
 14 12  2  0  0  0
 25 24  1  0  0  0
 13 12  1  0  0  0
 12 11  1  0  0  0
 19 17  1  0  0  0
 19 20  1  0  0  0
 18 16  2  0  0  0
 30  1  1  0  0  0
 17 16  1  0  0  0
 17 24  1  0  0  0
 16  1  1  0  0  0
  1  5  1  0  0  0
 11 10  1  0  0  0
 22 20  2  0  0  0
 20 21  1  0  0  0
 10  9  1  0  0  0
  8  9  1  0  0  0
  8  2  1  0  0  0
  5  2  2  0  0  0
  5  4  1  0  0  0
  2  6  1  0  0  0
  4  7  2  0  0  0
  6  3  2  0  0  0
  7  3  1  0  0  0
 30 31  1  0  0  0
 37 46  1  0  0  0
 13 15  1  0  0  0
 21 23  1  0  0  0
M  END
> <minimizedAffinity>
-8.20909

$$$$
6MA3_JAJ_A_1101


 46 49  0  0  0  0  0  0  0  0999 V2000
   -1.3788  -44.6756   17.0036 C   0  0  0  0  0  0  0  0  0  0  0  0
   -2.2791  -43.8402   14.8094 C   0  0  0  0  0  0  0  0  0  0  0  0
   -3.6445  -45.2269   13.4053 C   0  0  0  0  0  0  0  0  0  0  0  0
   -2.8115  -46.0831   15.4825 C   0  0  0  0  0  0  0  0  0  0  0  0
   -2.1777  -44.8772   15.7197 C   0  0  0  0  0  0  0  0  0  0  0  0
   -3.0145  -44.0190   13.6473 C   0  0  0  0  0  0  0  0  0  0  0  0
   -3.5488  -46.2582   14.3193 C   0  0  0  0  0  0  0  0  0  0  0  0
   -1.6301  -42.6317   15.0932 O   0  0  0  0  0  0  0  0  0  0  0  0
   -1.7202  -41.6298   14.1224 C   0  0  0  0  0  0  0  0  0  0  0  0
   -2.3665  -40.4089   14.7642 C   0  0  0  0  0  0  0  0  0  0  0  0
   -3.8922  -40.4664   14.7683 C   0  0  0  0  0  0  0  0  0  0  0  0
   -4.4257  -40.3305   13.3452 C   0  0  0  0  0  0  0  0  0  0  0  0
   -5.4213  -41.0237   12.9988 O   0  0  0  0  0  0  0  0  0  0  0  0
   -3.8931  -39.5287   12.5300 O   0  0  0  0  0  0  0  0  0  0  0  0
   -5.8134  -41.6179   13.6081 H   0  0  0  0  0  0  0  0  0  0  0  0
   -0.7459  -45.9928   17.4755 C   0  0  0  0  0  0  0  0  0  0  0  0
    0.6079  -46.3689   17.0704 N   0  0  0  0  0  0  0  0  0  0  0  0
   -1.3647  -46.7125   18.1843 O   0  0  0  0  0  0  0  0  0  0  0  0
    1.1760  -47.6199   17.5486 C   0  0  0  0  0  0  0  0  0  0  0  0
    1.8349  -47.4355   18.9144 C   0  0  0  0  0  0  0  0  0  0  0  0
    2.8233  -46.6669   19.0414 O   0  0  0  0  0  0  0  0  0  0  0  0
    1.3871  -48.0654   19.9085 O   0  0  0  0  0  0  0  0  0  0  0  0
    3.1526  -46.2005   18.2984 H   0  0  0  0  0  0  0  0  0  0  0  0
    1.4044  -45.5140   16.2052 C   0  0  0  0  0  0  0  0  0  0  0  0
    1.0637  -45.7248   14.7327 C   0  0  0  0  0  0  0  0  0  0  0  0
    0.9310  -44.7323   13.7506 C   0  0  0  0  0  0  0  0  0  0  0  0
    0.5915  -45.2567   12.4598 C   0  0  0  0  0  0  0  0  0  0  0  0
    0.4469  -46.6493   12.4094 C   0  0  0  0  0  0  0  0  0  0  0  0
    0.7448  -47.2033   13.9757 S   0  0  0  0  0  0  0  0  0  0  0  0
   -2.2946  -44.2029   18.0144 N   0  0  0  0  0  0  0  0  0  0  0  0
   -3.0679  -43.7422   17.5349 H   0  0  0  0  0  0  0  0  0  0  0  0
   -1.6915  -43.1148   19.1698 S   0  0  0  0  0  0  0  0  0  0  0  0
   -2.0754  -43.5257   20.5218 O   0  0  0  0  0  0  0  0  0  0  0  0
   -0.2301  -43.0949   19.2015 O   0  0  0  0  0  0  0  0  0  0  0  0
   -3.6920  -35.4946   17.2427 O   0  0  0  0  0  0  0  0  0  0  0  0
   -3.2040  -36.5437   17.4728 C   0  0  0  0  0  0  0  0  0  0  0  0
   -4.0599  -37.6314   17.9200 N   0  0  0  0  0  0  0  0  0  0  0  0
   -3.4585  -38.9942   18.2228 C   0  0  0  0  0  0  0  0  0  0  0  0
   -2.0755  -39.2098   18.0675 C   0  0  0  0  0  0  0  0  0  0  0  0
   -1.1647  -38.0707   17.5987 C   0  0  0  0  0  0  0  0  0  0  0  0
   -1.7428  -36.7553   17.3104 C   0  0  0  0  0  0  0  0  0  0  0  0
   -1.5394  -40.4644   18.3562 C   0  0  0  0  0  0  0  0  0  0  0  0
   -2.3823  -41.4903   18.7799 C   0  0  0  0  0  0  0  0  0  0  0  0
   -3.7633  -41.2775   18.9334 C   0  0  0  0  0  0  0  0  0  0  0  0
   -4.2972  -40.0229   18.6545 C   0  0  0  0  0  0  0  0  0  0  0  0
   -5.0276  -37.4852   18.0265 H   0  0  0  0  0  0  0  0  0  0  0  0
 35 36  2  0  0  0
 36 41  1  0  0  0
 36 37  1  0  0  0
 41 40  2  0  0  0
 37 38  1  0  0  0
 40 39  1  0  0  0
 38 39  2  0  0  0
 38 45  1  0  0  0
 39 42  1  0  0  0
 45 44  2  0  0  0
 42 43  2  0  0  0
 28 27  2  0  0  0
 28 29  1  0  0  0
 44 43  1  0  0  0
 43 32  1  0  0  0
 27 26  1  0  0  0
 29 25  1  0  0  0
 34 32  2  0  0  0
 33 32  2  0  0  0
 32 30  1  0  0  0
 26 25  2  0  0  0
 14 12  2  0  0  0
 25 24  1  0  0  0
 13 12  1  0  0  0
 12 11  1  0  0  0
 19 17  1  0  0  0
 19 20  1  0  0  0
 18 16  2  0  0  0
 30  1  1  0  0  0
 17 16  1  0  0  0
 17 24  1  0  0  0
 16  1  1  0  0  0
  1  5  1  0  0  0
 11 10  1  0  0  0
 22 20  2  0  0  0
 20 21  1  0  0  0
 10  9  1  0  0  0
  8  9  1  0  0  0
  8  2  1  0  0  0
  5  2  2  0  0  0
  5  4  1  0  0  0
  2  6  1  0  0  0
  4  7  2  0  0  0
  6  3  2  0  0  0
  7  3  1  0  0  0
 30 31  1  0  0  0
 37 46  1  0  0  0
 13 15  1  0  0  0
 21 23  1  0  0  0
M  END
> <minimizedAffinity>
-8.08058

$$$$
6MA3_JAJ_A_1101


 46 49  0  0  0  0  0  0  0  0999 V2000
   -1.7237  -41.9357   17.6911 C   0  0  0  0  0  0  0  0  0  0  0  0
   -0.2434  -43.8946   18.2337 C   0  0  0  0  0  0  0  0  0  0  0  0
   -0.2126  -44.8735   20.4246 C   0  0  0  0  0  0  0  0  0  0  0  0
   -1.6409  -43.0036   19.9715 C   0  0  0  0  0  0  0  0  0  0  0  0
   -1.1806  -42.9741   18.6679 C   0  0  0  0  0  0  0  0  0  0  0  0
    0.2424  -44.8460   19.1181 C   0  0  0  0  0  0  0  0  0  0  0  0
   -1.1542  -43.9586   20.8538 C   0  0  0  0  0  0  0  0  0  0  0  0
    0.1885  -43.8361   16.9024 O   0  0  0  0  0  0  0  0  0  0  0  0
    1.0308  -44.8656   16.4719 C   0  0  0  0  0  0  0  0  0  0  0  0
    1.8410  -44.3481   15.2904 C   0  0  0  0  0  0  0  0  0  0  0  0
    3.0575  -45.2129   14.9686 C   0  0  0  0  0  0  0  0  0  0  0  0
    2.7171  -46.2049   13.8604 C   0  0  0  0  0  0  0  0  0  0  0  0
    3.0534  -45.9335   12.6750 O   0  0  0  0  0  0  0  0  0  0  0  0
    2.1230  -47.2864   14.1221 O   0  0  0  0  0  0  0  0  0  0  0  0
    3.4946  -45.1288   12.4857 H   0  0  0  0  0  0  0  0  0  0  0  0
   -2.7897  -41.0528   18.3563 C   0  0  0  0  0  0  0  0  0  0  0  0
   -2.4777  -39.6947   18.7993 N   0  0  0  0  0  0  0  0  0  0  0  0
   -3.8844  -41.4794   18.5071 O   0  0  0  0  0  0  0  0  0  0  0  0
   -3.5188  -38.8861   19.4146 C   0  0  0  0  0  0  0  0  0  0  0  0
   -3.1900  -38.5898   20.8767 C   0  0  0  0  0  0  0  0  0  0  0  0
   -2.6966  -37.4785   21.2015 O   0  0  0  0  0  0  0  0  0  0  0  0
   -3.4078  -39.4691   21.7513 O   0  0  0  0  0  0  0  0  0  0  0  0
   -2.5364  -36.8277   20.5467 H   0  0  0  0  0  0  0  0  0  0  0  0
   -1.1488  -39.1296   18.6302 C   0  0  0  0  0  0  0  0  0  0  0  0
   -1.1949  -37.7757   17.9279 C   0  0  0  0  0  0  0  0  0  0  0  0
   -1.7471  -37.5010   16.6681 C   0  0  0  0  0  0  0  0  0  0  0  0
   -1.6203  -36.1254   16.2835 C   0  0  0  0  0  0  0  0  0  0  0  0
   -0.9692  -35.3102   17.2184 C   0  0  0  0  0  0  0  0  0  0  0  0
   -0.5625  -36.3187   18.5093 S   0  0  0  0  0  0  0  0  0  0  0  0
   -2.3224  -42.6492   16.5883 N   0  0  0  0  0  0  0  0  0  0  0  0
   -1.8584  -43.5552   16.5225 H   0  0  0  0  0  0  0  0  0  0  0  0
   -2.2461  -41.9258   15.0543 S   0  0  0  0  0  0  0  0  0  0  0  0
   -3.5813  -41.5376   14.5950 O   0  0  0  0  0  0  0  0  0  0  0  0
   -1.4931  -40.6727   15.0701 O   0  0  0  0  0  0  0  0  0  0  0  0
    0.4432  -48.1671   10.6276 O   0  0  0  0  0  0  0  0  0  0  0  0
   -0.0664  -47.4047   11.3696 C   0  0  0  0  0  0  0  0  0  0  0  0
    0.2858  -45.9965   11.2784 N   0  0  0  0  0  0  0  0  0  0  0  0
   -0.3561  -44.9916   12.2211 C   0  0  0  0  0  0  0  0  0  0  0  0
   -1.2950  -45.4179   13.1804 C   0  0  0  0  0  0  0  0  0  0  0  0
   -1.6719  -46.8990   13.2862 C   0  0  0  0  0  0  0  0  0  0  0  0
   -1.0507  -47.8692   12.3805 C   0  0  0  0  0  0  0  0  0  0  0  0
   -1.8692  -44.4836   14.0418 C   0  0  0  0  0  0  0  0  0  0  0  0
   -1.5164  -43.1398   13.9309 C   0  0  0  0  0  0  0  0  0  0  0  0
   -0.5811  -42.7121   12.9727 C   0  0  0  0  0  0  0  0  0  0  0  0
   -0.0009  -43.6457   12.1191 C   0  0  0  0  0  0  0  0  0  0  0  0
    0.9392  -45.6945   10.6069 H   0  0  0  0  0  0  0  0  0  0  0  0
 35 36  2  0  0  0
 36 41  1  0  0  0
 36 37  1  0  0  0
 41 40  2  0  0  0
 37 38  1  0  0  0
 40 39  1  0  0  0
 38 39  2  0  0  0
 38 45  1  0  0  0
 39 42  1  0  0  0
 45 44  2  0  0  0
 42 43  2  0  0  0
 28 27  2  0  0  0
 28 29  1  0  0  0
 44 43  1  0  0  0
 43 32  1  0  0  0
 27 26  1  0  0  0
 29 25  1  0  0  0
 34 32  2  0  0  0
 33 32  2  0  0  0
 32 30  1  0  0  0
 26 25  2  0  0  0
 14 12  2  0  0  0
 25 24  1  0  0  0
 13 12  1  0  0  0
 12 11  1  0  0  0
 19 17  1  0  0  0
 19 20  1  0  0  0
 18 16  2  0  0  0
 30  1  1  0  0  0
 17 16  1  0  0  0
 17 24  1  0  0  0
 16  1  1  0  0  0
  1  5  1  0  0  0
 11 10  1  0  0  0
 22 20  2  0  0  0
 20 21  1  0  0  0
 10  9  1  0  0  0
  8  9  1  0  0  0
  8  2  1  0  0  0
  5  2  2  0  0  0
  5  4  1  0  0  0
  2  6  1  0  0  0
  4  7  2  0  0  0
  6  3  2  0  0  0
  7  3  1  0  0  0
 30 31  1  0  0  0
 37 46  1  0  0  0
 13 15  1  0  0  0
 21 23  1  0  0  0
M  END
> <minimizedAffinity>
-7.96811

$$$$
6MA3_JAJ_A_1101


 46 49  0  0  0  0  0  0  0  0999 V2000
   -2.4333  -41.1650   17.2817 C   0  0  0  0  0  0  0  0  0  0  0  0
   -1.7670  -41.5489   19.6757 C   0  0  0  0  0  0  0  0  0  0  0  0
   -1.7131  -43.7528   20.6238 C   0  0  0  0  0  0  0  0  0  0  0  0
   -2.3628  -43.4515   18.3371 C   0  0  0  0  0  0  0  0  0  0  0  0
   -2.1867  -42.0866   18.4720 C   0  0  0  0  0  0  0  0  0  0  0  0
   -1.5317  -42.3873   20.7551 C   0  0  0  0  0  0  0  0  0  0  0  0
   -2.1244  -44.2884   19.4189 C   0  0  0  0  0  0  0  0  0  0  0  0
   -1.5911  -40.1621   19.7666 O   0  0  0  0  0  0  0  0  0  0  0  0
   -2.1987  -39.5240   20.8520 C   0  0  0  0  0  0  0  0  0  0  0  0
   -1.4702  -38.2082   21.0929 C   0  0  0  0  0  0  0  0  0  0  0  0
   -0.8540  -38.1064   22.4861 C   0  0  0  0  0  0  0  0  0  0  0  0
   -0.0998  -36.7879   22.6307 C   0  0  0  0  0  0  0  0  0  0  0  0
    0.0382  -36.2877   23.7808 O   0  0  0  0  0  0  0  0  0  0  0  0
    0.3923  -36.2118   21.6223 O   0  0  0  0  0  0  0  0  0  0  0  0
   -0.3292  -36.7196   24.5267 H   0  0  0  0  0  0  0  0  0  0  0  0
   -3.6518  -40.2619   17.5227 C   0  0  0  0  0  0  0  0  0  0  0  0
   -3.7778  -38.9677   16.8537 N   0  0  0  0  0  0  0  0  0  0  0  0
   -4.5057  -40.6243   18.2593 O   0  0  0  0  0  0  0  0  0  0  0  0
   -4.9534  -38.1468   17.0998 C   0  0  0  0  0  0  0  0  0  0  0  0
   -4.7425  -37.2365   18.3083 C   0  0  0  0  0  0  0  0  0  0  0  0
   -4.7370  -37.7191   19.4706 O   0  0  0  0  0  0  0  0  0  0  0  0
   -4.5838  -35.9998   18.1323 O   0  0  0  0  0  0  0  0  0  0  0  0
   -4.8555  -38.6401   19.5960 H   0  0  0  0  0  0  0  0  0  0  0  0
   -2.7559  -38.4856   15.9388 C   0  0  0  0  0  0  0  0  0  0  0  0
   -1.9034  -37.3886   16.5701 C   0  0  0  0  0  0  0  0  0  0  0  0
   -1.8910  -36.0297   16.2230 C   0  0  0  0  0  0  0  0  0  0  0  0
   -0.9664  -35.2566   17.0000 C   0  0  0  0  0  0  0  0  0  0  0  0
   -0.2425  -35.9866   17.9516 C   0  0  0  0  0  0  0  0  0  0  0  0
   -0.7677  -37.5843   17.8080 S   0  0  0  0  0  0  0  0  0  0  0  0
   -2.6847  -42.0001   16.1314 N   0  0  0  0  0  0  0  0  0  0  0  0
   -2.4981  -42.9643   16.4071 H   0  0  0  0  0  0  0  0  0  0  0  0
   -1.7836  -41.6892   14.7264 S   0  0  0  0  0  0  0  0  0  0  0  0
   -2.4736  -40.7234   13.8689 O   0  0  0  0  0  0  0  0  0  0  0  0
   -0.4998  -41.0550   15.0214 O   0  0  0  0  0  0  0  0  0  0  0  0
    0.2597  -48.4758   10.7831 O   0  0  0  0  0  0  0  0  0  0  0  0
    0.1700  -47.4470   11.3534 C   0  0  0  0  0  0  0  0  0  0  0  0
   -1.1447  -46.9955   11.7814 N   0  0  0  0  0  0  0  0  0  0  0  0
   -1.2898  -45.6744   12.5191 C   0  0  0  0  0  0  0  0  0  0  0  0
   -0.1551  -44.8871   12.7945 C   0  0  0  0  0  0  0  0  0  0  0  0
    1.2341  -45.3524   12.3468 C   0  0  0  0  0  0  0  0  0  0  0  0
    1.3747  -46.6240   11.6320 C   0  0  0  0  0  0  0  0  0  0  0  0
   -0.3071  -43.6745   13.4663 C   0  0  0  0  0  0  0  0  0  0  0  0
   -1.5779  -43.2669   13.8681 C   0  0  0  0  0  0  0  0  0  0  0  0
   -2.7114  -44.0524   13.5960 C   0  0  0  0  0  0  0  0  0  0  0  0
   -2.5611  -45.2580   12.9172 C   0  0  0  0  0  0  0  0  0  0  0  0
   -1.9397  -47.5449   11.5935 H   0  0  0  0  0  0  0  0  0  0  0  0
 35 36  2  0  0  0
 36 41  1  0  0  0
 36 37  1  0  0  0
 41 40  2  0  0  0
 37 38  1  0  0  0
 40 39  1  0  0  0
 38 39  2  0  0  0
 38 45  1  0  0  0
 39 42  1  0  0  0
 45 44  2  0  0  0
 42 43  2  0  0  0
 28 27  2  0  0  0
 28 29  1  0  0  0
 44 43  1  0  0  0
 43 32  1  0  0  0
 27 26  1  0  0  0
 29 25  1  0  0  0
 34 32  2  0  0  0
 33 32  2  0  0  0
 32 30  1  0  0  0
 26 25  2  0  0  0
 14 12  2  0  0  0
 25 24  1  0  0  0
 13 12  1  0  0  0
 12 11  1  0  0  0
 19 17  1  0  0  0
 19 20  1  0  0  0
 18 16  2  0  0  0
 30  1  1  0  0  0
 17 16  1  0  0  0
 17 24  1  0  0  0
 16  1  1  0  0  0
  1  5  1  0  0  0
 11 10  1  0  0  0
 22 20  2  0  0  0
 20 21  1  0  0  0
 10  9  1  0  0  0
  8  9  1  0  0  0
  8  2  1  0  0  0
  5  2  2  0  0  0
  5  4  1  0  0  0
  2  6  1  0  0  0
  4  7  2  0  0  0
  6  3  2  0  0  0
  7  3  1  0  0  0
 30 31  1  0  0  0
 37 46  1  0  0  0
 13 15  1  0  0  0
 21 23  1  0  0  0
M  END
> <minimizedAffinity>
-7.92267

$$$$
6MA3_JAJ_A_1101


 46 49  0  0  0  0  0  0  0  0999 V2000
   -1.0876  -43.0533   14.1972 C   0  0  0  0  0  0  0  0  0  0  0  0
   -2.0039  -45.1279   15.2830 C   0  0  0  0  0  0  0  0  0  0  0  0
   -3.8655  -46.3163   14.3444 C   0  0  0  0  0  0  0  0  0  0  0  0
   -3.0421  -44.3415   13.2655 C   0  0  0  0  0  0  0  0  0  0  0  0
   -2.0829  -44.2081   14.2526 C   0  0  0  0  0  0  0  0  0  0  0  0
   -2.9012  -46.1844   15.3280 C   0  0  0  0  0  0  0  0  0  0  0  0
   -3.9375  -45.4014   13.3120 C   0  0  0  0  0  0  0  0  0  0  0  0
   -1.0108  -44.9616   16.2569 O   0  0  0  0  0  0  0  0  0  0  0  0
   -0.8961  -45.9747   17.2133 C   0  0  0  0  0  0  0  0  0  0  0  0
   -0.6006  -45.3222   18.5576 C   0  0  0  0  0  0  0  0  0  0  0  0
   -1.7559  -44.4730   19.0825 C   0  0  0  0  0  0  0  0  0  0  0  0
   -3.0249  -45.3149   19.1763 C   0  0  0  0  0  0  0  0  0  0  0  0
   -4.0133  -45.0102   18.4536 O   0  0  0  0  0  0  0  0  0  0  0  0
   -3.0845  -46.3087   19.9508 O   0  0  0  0  0  0  0  0  0  0  0  0
   -3.9640  -44.2710   17.8799 H   0  0  0  0  0  0  0  0  0  0  0  0
   -1.8049  -41.6982   14.2862 C   0  0  0  0  0  0  0  0  0  0  0  0
   -2.0133  -41.0362   15.5732 N   0  0  0  0  0  0  0  0  0  0  0  0
   -2.1902  -41.1796   13.2933 O   0  0  0  0  0  0  0  0  0  0  0  0
   -2.6870  -39.7475   15.6138 C   0  0  0  0  0  0  0  0  0  0  0  0
   -4.1039  -39.8522   15.0524 C   0  0  0  0  0  0  0  0  0  0  0  0
   -4.3875  -39.3204   13.9476 O   0  0  0  0  0  0  0  0  0  0  0  0
   -4.9863  -40.4663   15.7080 O   0  0  0  0  0  0  0  0  0  0  0  0
   -3.7271  -38.8646   13.4638 H   0  0  0  0  0  0  0  0  0  0  0  0
   -1.5533  -41.6347   16.8158 C   0  0  0  0  0  0  0  0  0  0  0  0
   -2.0407  -40.8551   18.0337 C   0  0  0  0  0  0  0  0  0  0  0  0
   -1.3658  -39.8165   18.6918 C   0  0  0  0  0  0  0  0  0  0  0  0
   -2.0889  -39.2956   19.8152 C   0  0  0  0  0  0  0  0  0  0  0  0
   -3.3228  -39.9127   20.0588 C   0  0  0  0  0  0  0  0  0  0  0  0
   -3.4913  -41.0979   18.8689 S   0  0  0  0  0  0  0  0  0  0  0  0
   -0.3944  -43.1385   12.9339 N   0  0  0  0  0  0  0  0  0  0  0  0
   -0.6556  -44.0245   12.5011 H   0  0  0  0  0  0  0  0  0  0  0  0
    1.3016  -43.0681   12.9653 S   0  0  0  0  0  0  0  0  0  0  0  0
    1.8240  -42.5410   11.7030 O   0  0  0  0  0  0  0  0  0  0  0  0
    1.7981  -42.1364   13.9766 O   0  0  0  0  0  0  0  0  0  0  0  0
    4.9943  -50.1288   14.4796 O   0  0  0  0  0  0  0  0  0  0  0  0
    4.6391  -49.0147   14.3238 C   0  0  0  0  0  0  0  0  0  0  0  0
    3.2887  -48.7709   13.8415 N   0  0  0  0  0  0  0  0  0  0  0  0
    2.8039  -47.3455   13.6326 C   0  0  0  0  0  0  0  0  0  0  0  0
    3.6557  -46.2585   13.9088 C   0  0  0  0  0  0  0  0  0  0  0  0
    5.0804  -46.5041   14.4156 C   0  0  0  0  0  0  0  0  0  0  0  0
    5.5502  -47.8780   14.6135 C   0  0  0  0  0  0  0  0  0  0  0  0
    3.1970  -44.9575   13.7052 C   0  0  0  0  0  0  0  0  0  0  0  0
    1.8975  -44.7518   13.2454 C   0  0  0  0  0  0  0  0  0  0  0  0
    1.0450  -45.8353   12.9711 C   0  0  0  0  0  0  0  0  0  0  0  0
    1.5058  -47.1341   13.1653 C   0  0  0  0  0  0  0  0  0  0  0  0
    2.6894  -49.5282   13.6505 H   0  0  0  0  0  0  0  0  0  0  0  0
 35 36  2  0  0  0
 36 41  1  0  0  0
 36 37  1  0  0  0
 41 40  2  0  0  0
 37 38  1  0  0  0
 40 39  1  0  0  0
 38 39  2  0  0  0
 38 45  1  0  0  0
 39 42  1  0  0  0
 45 44  2  0  0  0
 42 43  2  0  0  0
 28 27  2  0  0  0
 28 29  1  0  0  0
 44 43  1  0  0  0
 43 32  1  0  0  0
 27 26  1  0  0  0
 29 25  1  0  0  0
 34 32  2  0  0  0
 33 32  2  0  0  0
 32 30  1  0  0  0
 26 25  2  0  0  0
 14 12  2  0  0  0
 25 24  1  0  0  0
 13 12  1  0  0  0
 12 11  1  0  0  0
 19 17  1  0  0  0
 19 20  1  0  0  0
 18 16  2  0  0  0
 30  1  1  0  0  0
 17 16  1  0  0  0
 17 24  1  0  0  0
 16  1  1  0  0  0
  1  5  1  0  0  0
 11 10  1  0  0  0
 22 20  2  0  0  0
 20 21  1  0  0  0
 10  9  1  0  0  0
  8  9  1  0  0  0
  8  2  1  0  0  0
  5  2  2  0  0  0
  5  4  1  0  0  0
  2  6  1  0  0  0
  4  7  2  0  0  0
  6  3  2  0  0  0
  7  3  1  0  0  0
 30 31  1  0  0  0
 37 46  1  0  0  0
 13 15  1  0  0  0
 21 23  1  0  0  0
M  END
> <minimizedAffinity>
-7.82527

$$$$
6MA3_JAJ_A_1101


 46 49  0  0  0  0  0  0  0  0999 V2000
   -2.4612  -42.5684   18.2005 C   0  0  0  0  0  0  0  0  0  0  0  0
   -2.3543  -40.9842   16.2507 C   0  0  0  0  0  0  0  0  0  0  0  0
   -1.4429  -38.7759   16.4785 C   0  0  0  0  0  0  0  0  0  0  0  0
   -1.5227  -40.2370   18.3761 C   0  0  0  0  0  0  0  0  0  0  0  0
   -2.1067  -41.2151   17.5922 C   0  0  0  0  0  0  0  0  0  0  0  0
   -2.0220  -39.7580   15.6944 C   0  0  0  0  0  0  0  0  0  0  0  0
   -1.1891  -39.0114   17.8157 C   0  0  0  0  0  0  0  0  0  0  0  0
   -2.9379  -42.0056   15.4901 O   0  0  0  0  0  0  0  0  0  0  0  0
   -2.7060  -41.9701   14.1119 C   0  0  0  0  0  0  0  0  0  0  0  0
   -1.6279  -42.9966   13.7892 C   0  0  0  0  0  0  0  0  0  0  0  0
   -0.2706  -42.3689   13.4810 C   0  0  0  0  0  0  0  0  0  0  0  0
    0.3435  -43.0268   12.2489 C   0  0  0  0  0  0  0  0  0  0  0  0
   -0.2871  -43.9580   11.6770 O   0  0  0  0  0  0  0  0  0  0  0  0
    1.4556  -42.6395   11.7969 O   0  0  0  0  0  0  0  0  0  0  0  0
   -1.1129  -44.2421   12.0166 H   0  0  0  0  0  0  0  0  0  0  0  0
   -2.1070  -42.6151   19.6940 C   0  0  0  0  0  0  0  0  0  0  0  0
   -3.1120  -42.3346   20.7186 N   0  0  0  0  0  0  0  0  0  0  0  0
   -1.0014  -42.8884   20.0197 O   0  0  0  0  0  0  0  0  0  0  0  0
   -2.7392  -42.4006   22.1232 C   0  0  0  0  0  0  0  0  0  0  0  0
   -2.0888  -41.0957   22.5791 C   0  0  0  0  0  0  0  0  0  0  0  0
   -1.0717  -40.6541   21.9839 O   0  0  0  0  0  0  0  0  0  0  0  0
   -2.5729  -40.4717   23.5598 O   0  0  0  0  0  0  0  0  0  0  0  0
   -0.7155  -41.1224   21.2547 H   0  0  0  0  0  0  0  0  0  0  0  0
   -4.4815  -41.9990   20.3640 C   0  0  0  0  0  0  0  0  0  0  0  0
   -4.5986  -40.5660   19.8528 C   0  0  0  0  0  0  0  0  0  0  0  0
   -3.9866  -39.4272   20.3968 C   0  0  0  0  0  0  0  0  0  0  0  0
   -4.3063  -38.2216   19.6892 C   0  0  0  0  0  0  0  0  0  0  0  0
   -5.1683  -38.3903   18.5978 C   0  0  0  0  0  0  0  0  0  0  0  0
   -5.5173  -40.0405   18.5335 S   0  0  0  0  0  0  0  0  0  0  0  0
   -1.6944  -43.5722   17.5018 N   0  0  0  0  0  0  0  0  0  0  0  0
   -1.6565  -43.2992   16.5197 H   0  0  0  0  0  0  0  0  0  0  0  0
   -2.2588  -45.1722   17.5637 S   0  0  0  0  0  0  0  0  0  0  0  0
   -1.6015  -45.9145   18.6413 O   0  0  0  0  0  0  0  0  0  0  0  0
   -3.6814  -45.2449   17.8929 O   0  0  0  0  0  0  0  0  0  0  0  0
    0.4571  -48.1746   10.5358 O   0  0  0  0  0  0  0  0  0  0  0  0
    0.2646  -47.6864   11.5923 C   0  0  0  0  0  0  0  0  0  0  0  0
   -1.0899  -47.6747   12.1223 N   0  0  0  0  0  0  0  0  0  0  0  0
   -1.3670  -47.0533   13.4814 C   0  0  0  0  0  0  0  0  0  0  0  0
   -0.3163  -46.4923   14.2328 C   0  0  0  0  0  0  0  0  0  0  0  0
    1.1138  -46.4977   13.6833 C   0  0  0  0  0  0  0  0  0  0  0  0
    1.3815  -47.0930   12.3712 C   0  0  0  0  0  0  0  0  0  0  0  0
   -0.5894  -45.9202   15.4749 C   0  0  0  0  0  0  0  0  0  0  0  0
   -1.8957  -45.9253   15.9608 C   0  0  0  0  0  0  0  0  0  0  0  0
   -2.9454  -46.4866   15.2133 C   0  0  0  0  0  0  0  0  0  0  0  0
   -2.6746  -47.0491   13.9694 C   0  0  0  0  0  0  0  0  0  0  0  0
   -1.8263  -48.0690   11.6013 H   0  0  0  0  0  0  0  0  0  0  0  0
 35 36  2  0  0  0
 36 41  1  0  0  0
 36 37  1  0  0  0
 41 40  2  0  0  0
 37 38  1  0  0  0
 40 39  1  0  0  0
 38 39  2  0  0  0
 38 45  1  0  0  0
 39 42  1  0  0  0
 45 44  2  0  0  0
 42 43  2  0  0  0
 28 27  2  0  0  0
 28 29  1  0  0  0
 44 43  1  0  0  0
 43 32  1  0  0  0
 27 26  1  0  0  0
 29 25  1  0  0  0
 34 32  2  0  0  0
 33 32  2  0  0  0
 32 30  1  0  0  0
 26 25  2  0  0  0
 14 12  2  0  0  0
 25 24  1  0  0  0
 13 12  1  0  0  0
 12 11  1  0  0  0
 19 17  1  0  0  0
 19 20  1  0  0  0
 18 16  2  0  0  0
 30  1  1  0  0  0
 17 16  1  0  0  0
 17 24  1  0  0  0
 16  1  1  0  0  0
  1  5  1  0  0  0
 11 10  1  0  0  0
 22 20  2  0  0  0
 20 21  1  0  0  0
 10  9  1  0  0  0
  8  9  1  0  0  0
  8  2  1  0  0  0
  5  2  2  0  0  0
  5  4  1  0  0  0
  2  6  1  0  0  0
  4  7  2  0  0  0
  6  3  2  0  0  0
  7  3  1  0  0  0
 30 31  1  0  0  0
 37 46  1  0  0  0
 13 15  1  0  0  0
 21 23  1  0  0  0
M  END
> <minimizedAffinity>
-7.76260

$$$$
