3T8V_BTJ_A_1092


 46 47  0  0  0  0  0  0  0  0999 V2000
   15.3761   11.2617   11.3839 N   0  0  0  0  0  0  0  0  0  0  0  0
   13.5919   10.4359   10.7315 O   0  0  0  0  0  0  0  0  0  0  0  0
   14.2375   11.2952   11.3383 C   0  0  0  0  0  0  0  0  0  0  0  0
   15.9107   12.0279   11.6944 H   0  0  0  0  0  0  0  0  0  0  0  0
   13.3894   13.4803   11.6232 O   0  0  0  0  0  0  0  0  0  0  0  0
   13.8876   12.4455   12.1618 C   0  0  0  0  0  0  0  0  0  0  0  0
   14.0166   13.8429   10.9781 H   0  0  0  0  0  0  0  0  0  0  0  0
   11.7178   11.6824   12.8398 N   0  0  0  0  0  0  0  0  0  0  0  0
   13.0105   11.8776   13.1124 C   0  0  0  0  0  0  0  0  0  0  0  0
   11.6275   11.2127   11.9388 H   0  0  0  0  0  0  0  0  0  0  0  0
   11.2383   12.5819   12.8039 H   0  0  0  0  0  0  0  0  0  0  0  0
   13.0914   12.5614   14.4284 C   0  0  0  0  0  0  0  0  0  0  0  0
   13.0147   11.6160   15.6531 C   0  0  0  0  0  0  0  0  0  0  0  0
   13.6119   10.4602   15.6757 C   0  0  0  0  0  0  0  0  0  0  0  0
   13.4488    9.7436   16.8261 C   0  0  0  0  0  0  0  0  0  0  0  0
   12.7454    9.9600   17.9361 C   0  0  0  0  0  0  0  0  0  0  0  0
   12.1873   11.0382   17.9896 C   0  0  0  0  0  0  0  0  0  0  0  0
   12.3308   11.8328   16.9145 C   0  0  0  0  0  0  0  0  0  0  0  0
   12.8242    9.1095   18.8194 O   0  0  0  0  0  0  0  0  0  0  0  0
   13.1575    9.1308   20.1620 C   0  0  0  0  0  0  0  0  0  0  0  0
   14.0300    7.9159   20.4105 C   0  0  0  0  0  0  0  0  0  0  0  0
   14.8752    7.3015   19.3743 C   0  0  0  0  0  0  0  0  0  0  0  0
   15.5073    6.1013   19.6593 C   0  0  0  0  0  0  0  0  0  0  0  0
   15.3822    5.4964   20.9327 C   0  0  0  0  0  0  0  0  0  0  0  0
   14.5707    6.0835   21.9076 C   0  0  0  0  0  0  0  0  0  0  0  0
   13.9541    7.2441   21.7233 C   0  0  0  0  0  0  0  0  0  0  0  0
   16.6926   10.0470    9.6426 C   0  0  0  0  0  0  0  0  0  0  0  0
   15.9912   10.0080   10.9516 C   0  0  0  0  0  0  0  0  0  0  0  0
   16.3756    7.6785   11.6966 N   0  0  0  0  0  0  0  0  0  0  0  0
   17.2338    9.3512   12.8328 O   0  0  0  0  0  0  0  0  0  0  0  0
   16.6406    8.9947   11.9655 C   0  0  0  0  0  0  0  0  0  0  0  0
   15.6775    7.5235   11.0199 H   0  0  0  0  0  0  0  0  0  0  0  0
   16.9637    6.4821   12.2541 C   0  0  0  0  0  0  0  0  0  0  0  0
   15.8533    5.4989   12.3295 C   0  0  0  0  0  0  0  0  0  0  0  0
   15.1396    5.5761   13.5456 O   0  0  0  0  0  0  0  0  0  0  0  0
   14.8598    4.3526   14.0904 C   0  0  0  0  0  0  0  0  0  0  0  0
   15.8410    3.2912   13.6466 C   0  0  0  0  0  0  0  0  0  0  0  0
   15.5730    2.1053   14.2831 O   0  0  0  0  0  0  0  0  0  0  0  0
   15.9655    1.6453   15.6131 C   0  0  0  0  0  0  0  0  0  0  0  0
   14.5826    2.0003   17.7472 N   0  0  0  0  0  0  0  0  0  0  0  0
   14.7470   -0.0519   16.5535 O   0  0  0  0  0  0  0  0  0  0  0  0
   15.0345    1.1130   16.6711 C   0  0  0  0  0  0  0  0  0  0  0  0
   13.7697    2.5205   17.5528 H   0  0  0  0  0  0  0  0  0  0  0  0
   15.1931    2.2309   19.1233 C   0  0  0  0  0  0  0  0  0  0  0  0
   16.6523    2.3101   19.2225 C   0  0  0  0  0  0  0  0  0  0  0  0
   14.7662    1.7221   20.4847 C   0  0  0  0  0  0  0  0  0  0  0  0
 27 28  1  0  0  0
 29 33  1  0  0  0
 28  1  1  0  0  0
 28 31  1  0  0  0
 40 44  1  0  0  0
 35 34  1  0  0  0
 35 36  1  0  0  0
 31 29  1  0  0  0
 31 30  2  0  0  0
 38 39  1  0  0  0
 33 34  1  0  0  0
  1  3  1  0  0  0
 36 37  1  0  0  0
  8  9  1  0  0  0
 37 38  1  0  0  0
 39 42  1  0  0  0
 42 40  1  0  0  0
 42 41  2  0  0  0
 44 46  1  0  0  0
 44 45  1  0  0  0
 19 20  1  0  0  0
  5  6  1  0  0  0
  3  2  2  0  0  0
  3  6  1  0  0  0
  6  9  1  0  0  0
  9 12  1  0  0  0
 12 13  1  0  0  0
 13 18  2  0  0  0
 13 14  1  0  0  0
 14 15  2  0  0  0
 15 16  1  0  0  0
 16 19  1  0  0  0
 17 16  2  0  0  0
 18 17  1  0  0  0
 20 21  1  0  0  0
 21 22  2  0  0  0
 21 26  1  0  0  0
 22 23  1  0  0  0
 23 24  2  0  0  0
 25 24  1  0  0  0
 26 25  2  0  0  0
 29 32  1  0  0  0
 40 43  1  0  0  0
  1  4  1  0  0  0
  8 10  1  0  0  0
  8 11  1  0  0  0
  5  7  1  0  0  0
M  END
> <minimizedAffinity>
-9.96602

$$$$
3T8V_BTJ_A_1092


 46 47  0  0  0  0  0  0  0  0999 V2000
   15.1413   11.7476   11.6318 N   0  0  0  0  0  0  0  0  0  0  0  0
   14.0878   10.1572   10.8247 O   0  0  0  0  0  0  0  0  0  0  0  0
   14.1444   11.2751   11.3448 C   0  0  0  0  0  0  0  0  0  0  0  0
   15.2211   12.7001   11.8674 H   0  0  0  0  0  0  0  0  0  0  0  0
   12.2134   12.5959   11.0256 O   0  0  0  0  0  0  0  0  0  0  0  0
   13.1542   12.2428   11.7997 C   0  0  0  0  0  0  0  0  0  0  0  0
   12.5863   13.0068   10.2300 H   0  0  0  0  0  0  0  0  0  0  0  0
   11.3574   11.4159   13.1553 N   0  0  0  0  0  0  0  0  0  0  0  0
   12.6624   11.6369   12.9771 C   0  0  0  0  0  0  0  0  0  0  0  0
   10.9734   10.9608   12.3272 H   0  0  0  0  0  0  0  0  0  0  0  0
   10.8798   12.3042   13.3074 H   0  0  0  0  0  0  0  0  0  0  0  0
   13.1752   12.2982   14.2041 C   0  0  0  0  0  0  0  0  0  0  0  0
   13.1664   11.4059   15.4704 C   0  0  0  0  0  0  0  0  0  0  0  0
   13.6413   10.1946   15.4687 C   0  0  0  0  0  0  0  0  0  0  0  0
   13.5606    9.5364   16.6620 C   0  0  0  0  0  0  0  0  0  0  0  0
   13.0362    9.8617   17.8422 C   0  0  0  0  0  0  0  0  0  0  0  0
   12.6021   10.9943   17.9178 C   0  0  0  0  0  0  0  0  0  0  0  0
   12.6813   11.7344   16.7980 C   0  0  0  0  0  0  0  0  0  0  0  0
   13.1450    9.0363   18.7458 O   0  0  0  0  0  0  0  0  0  0  0  0
   13.8039    9.0082   19.9621 C   0  0  0  0  0  0  0  0  0  0  0  0
   14.2433    7.5739   20.1830 C   0  0  0  0  0  0  0  0  0  0  0  0
   14.3705    6.9631   21.5158 C   0  0  0  0  0  0  0  0  0  0  0  0
   14.9336    5.7006   21.6159 C   0  0  0  0  0  0  0  0  0  0  0  0
   15.3395    4.9901   20.4611 C   0  0  0  0  0  0  0  0  0  0  0  0
   15.2220    5.5820   19.2003 C   0  0  0  0  0  0  0  0  0  0  0  0
   14.6696    6.7746   19.0169 C   0  0  0  0  0  0  0  0  0  0  0  0
   16.1980    9.6668   12.5233 C   0  0  0  0  0  0  0  0  0  0  0  0
   16.2937   10.8481   11.6276 C   0  0  0  0  0  0  0  0  0  0  0  0
   16.7118    9.4894    9.6007 N   0  0  0  0  0  0  0  0  0  0  0  0
   18.0185   11.1912   10.0714 O   0  0  0  0  0  0  0  0  0  0  0  0
   17.1383   10.5670   10.3299 C   0  0  0  0  0  0  0  0  0  0  0  0
   16.0511    8.9157   10.0520 H   0  0  0  0  0  0  0  0  0  0  0  0
   17.0830    9.0652    8.2702 C   0  0  0  0  0  0  0  0  0  0  0  0
   17.7988    7.7774    8.4555 C   0  0  0  0  0  0  0  0  0  0  0  0
   17.3649    6.7792    7.5558 O   0  0  0  0  0  0  0  0  0  0  0  0
   16.2163    6.1509    7.9532 C   0  0  0  0  0  0  0  0  0  0  0  0
   16.4170    4.6656    8.1534 C   0  0  0  0  0  0  0  0  0  0  0  0
   17.2126    4.4405    9.2487 O   0  0  0  0  0  0  0  0  0  0  0  0
   16.9619    4.7137   10.6618 C   0  0  0  0  0  0  0  0  0  0  0  0
   15.1759    4.8177   12.5036 N   0  0  0  0  0  0  0  0  0  0  0  0
   15.8207    2.8456   11.3380 O   0  0  0  0  0  0  0  0  0  0  0  0
   15.9288    4.0323   11.5208 C   0  0  0  0  0  0  0  0  0  0  0  0
   14.3524    5.2390   12.1666 H   0  0  0  0  0  0  0  0  0  0  0  0
   15.4878    5.0736   13.9722 C   0  0  0  0  0  0  0  0  0  0  0  0
   15.6835    3.9136   14.8448 C   0  0  0  0  0  0  0  0  0  0  0  0
   14.9810    6.1493   14.9106 C   0  0  0  0  0  0  0  0  0  0  0  0
 27 28  1  0  0  0
 29 33  1  0  0  0
 28  1  1  0  0  0
 28 31  1  0  0  0
 40 44  1  0  0  0
 35 34  1  0  0  0
 35 36  1  0  0  0
 31 29  1  0  0  0
 31 30  2  0  0  0
 38 39  1  0  0  0
 33 34  1  0  0  0
  1  3  1  0  0  0
 36 37  1  0  0  0
  8  9  1  0  0  0
 37 38  1  0  0  0
 39 42  1  0  0  0
 42 40  1  0  0  0
 42 41  2  0  0  0
 44 46  1  0  0  0
 44 45  1  0  0  0
 19 20  1  0  0  0
  5  6  1  0  0  0
  3  2  2  0  0  0
  3  6  1  0  0  0
  6  9  1  0  0  0
  9 12  1  0  0  0
 12 13  1  0  0  0
 13 18  2  0  0  0
 13 14  1  0  0  0
 14 15  2  0  0  0
 15 16  1  0  0  0
 16 19  1  0  0  0
 17 16  2  0  0  0
 18 17  1  0  0  0
 20 21  1  0  0  0
 21 22  2  0  0  0
 21 26  1  0  0  0
 22 23  1  0  0  0
 23 24  2  0  0  0
 25 24  1  0  0  0
 26 25  2  0  0  0
 29 32  1  0  0  0
 40 43  1  0  0  0
  1  4  1  0  0  0
  8 10  1  0  0  0
  8 11  1  0  0  0
  5  7  1  0  0  0
M  END
> <minimizedAffinity>
-9.56815

$$$$
3T8V_BTJ_A_1092


 46 47  0  0  0  0  0  0  0  0999 V2000
   14.9993    5.7681   17.4330 N   0  0  0  0  0  0  0  0  0  0  0  0
   16.9686    6.3888   17.5986 O   0  0  0  0  0  0  0  0  0  0  0  0
   16.0638    5.7760   17.0250 C   0  0  0  0  0  0  0  0  0  0  0  0
   14.2358    5.4508   16.8987 H   0  0  0  0  0  0  0  0  0  0  0  0
   15.6805    3.6852   15.9967 O   0  0  0  0  0  0  0  0  0  0  0  0
   15.9980    4.9055   15.8580 C   0  0  0  0  0  0  0  0  0  0  0  0
   16.3258    3.2468   16.5733 H   0  0  0  0  0  0  0  0  0  0  0  0
   14.2726    4.9352   14.1930 N   0  0  0  0  0  0  0  0  0  0  0  0
   15.0867    5.5909   15.0242 C   0  0  0  0  0  0  0  0  0  0  0  0
   13.8047    4.1829   14.6984 H   0  0  0  0  0  0  0  0  0  0  0  0
   14.8162    4.5419   13.4247 H   0  0  0  0  0  0  0  0  0  0  0  0
   15.7431    6.6725   14.2463 C   0  0  0  0  0  0  0  0  0  0  0  0
   15.0620    8.0586   14.3660 C   0  0  0  0  0  0  0  0  0  0  0  0
   15.3051    9.0255   13.5299 C   0  0  0  0  0  0  0  0  0  0  0  0
   14.6272   10.1860   13.7695 C   0  0  0  0  0  0  0  0  0  0  0  0
   13.7900   10.5634   14.7341 C   0  0  0  0  0  0  0  0  0  0  0  0
   13.4985    9.6940   15.5317 C   0  0  0  0  0  0  0  0  0  0  0  0
   14.0868    8.4993   15.3461 C   0  0  0  0  0  0  0  0  0  0  0  0
   13.3229   11.6970   14.6534 O   0  0  0  0  0  0  0  0  0  0  0  0
   13.4430   12.8531   15.4038 C   0  0  0  0  0  0  0  0  0  0  0  0
   13.0618   12.4879   16.8251 C   0  0  0  0  0  0  0  0  0  0  0  0
   14.0218   12.4682   17.9403 C   0  0  0  0  0  0  0  0  0  0  0  0
   13.6075   11.9651   19.1636 C   0  0  0  0  0  0  0  0  0  0  0  0
   12.2781   11.5189   19.3554 C   0  0  0  0  0  0  0  0  0  0  0  0
   11.3759   11.5341   18.2878 C   0  0  0  0  0  0  0  0  0  0  0  0
   11.6859   12.0244   17.0942 C   0  0  0  0  0  0  0  0  0  0  0  0
   14.1298    7.5557   18.9461 C   0  0  0  0  0  0  0  0  0  0  0  0
   14.8411    6.2596   18.8007 C   0  0  0  0  0  0  0  0  0  0  0  0
   13.5859    4.4028   19.8524 N   0  0  0  0  0  0  0  0  0  0  0  0
   15.2285    5.3737   20.9406 O   0  0  0  0  0  0  0  0  0  0  0  0
   14.6118    5.2937   20.0217 C   0  0  0  0  0  0  0  0  0  0  0  0
   13.0039    4.5793   19.0781 H   0  0  0  0  0  0  0  0  0  0  0  0
   13.2266    3.2433   20.6362 C   0  0  0  0  0  0  0  0  0  0  0  0
   14.1481    2.1680   20.1892 C   0  0  0  0  0  0  0  0  0  0  0  0
   14.1209    1.9744   18.7906 O   0  0  0  0  0  0  0  0  0  0  0  0
   15.0475    1.0700   18.3487 C   0  0  0  0  0  0  0  0  0  0  0  0
   14.6231    0.3992   17.0617 C   0  0  0  0  0  0  0  0  0  0  0  0
   15.4667   -0.6440   16.7730 O   0  0  0  0  0  0  0  0  0  0  0  0
   16.6987   -0.6640   15.9878 C   0  0  0  0  0  0  0  0  0  0  0  0
   18.8325    0.7095   16.3792 N   0  0  0  0  0  0  0  0  0  0  0  0
   17.1032    1.2817   14.8475 O   0  0  0  0  0  0  0  0  0  0  0  0
   17.5610    0.5301   15.6716 C   0  0  0  0  0  0  0  0  0  0  0  0
   19.6108    0.2683   15.9684 H   0  0  0  0  0  0  0  0  0  0  0  0
   19.1193    1.4821   17.6599 C   0  0  0  0  0  0  0  0  0  0  0  0
   18.6607    2.8708   17.7412 C   0  0  0  0  0  0  0  0  0  0  0  0
   20.3214    1.4448   18.5809 C   0  0  0  0  0  0  0  0  0  0  0  0
 27 28  1  0  0  0
 29 33  1  0  0  0
 28  1  1  0  0  0
 28 31  1  0  0  0
 40 44  1  0  0  0
 35 34  1  0  0  0
 35 36  1  0  0  0
 31 29  1  0  0  0
 31 30  2  0  0  0
 38 39  1  0  0  0
 33 34  1  0  0  0
  1  3  1  0  0  0
 36 37  1  0  0  0
  8  9  1  0  0  0
 37 38  1  0  0  0
 39 42  1  0  0  0
 42 40  1  0  0  0
 42 41  2  0  0  0
 44 46  1  0  0  0
 44 45  1  0  0  0
 19 20  1  0  0  0
  5  6  1  0  0  0
  3  2  2  0  0  0
  3  6  1  0  0  0
  6  9  1  0  0  0
  9 12  1  0  0  0
 12 13  1  0  0  0
 13 18  2  0  0  0
 13 14  1  0  0  0
 14 15  2  0  0  0
 15 16  1  0  0  0
 16 19  1  0  0  0
 17 16  2  0  0  0
 18 17  1  0  0  0
 20 21  1  0  0  0
 21 22  2  0  0  0
 21 26  1  0  0  0
 22 23  1  0  0  0
 23 24  2  0  0  0
 25 24  1  0  0  0
 26 25  2  0  0  0
 29 32  1  0  0  0
 40 43  1  0  0  0
  1  4  1  0  0  0
  8 10  1  0  0  0
  8 11  1  0  0  0
  5  7  1  0  0  0
M  END
> <minimizedAffinity>
-9.20273

$$$$
3T8V_BTJ_A_1092


 46 47  0  0  0  0  0  0  0  0999 V2000
   14.5630    2.1712   18.8941 N   0  0  0  0  0  0  0  0  0  0  0  0
   13.8209    0.5474   19.9446 O   0  0  0  0  0  0  0  0  0  0  0  0
   14.0516    1.7539   19.8236 C   0  0  0  0  0  0  0  0  0  0  0  0
   14.5836    3.1353   18.6958 H   0  0  0  0  0  0  0  0  0  0  0  0
   13.2228    2.8167   21.7624 O   0  0  0  0  0  0  0  0  0  0  0  0
   13.8782    2.9194   20.6811 C   0  0  0  0  0  0  0  0  0  0  0  0
   12.3142    2.5408   21.5647 H   0  0  0  0  0  0  0  0  0  0  0  0
   16.1258    2.4656   21.3828 N   0  0  0  0  0  0  0  0  0  0  0  0
   15.2124    3.3202   20.9149 C   0  0  0  0  0  0  0  0  0  0  0  0
   16.0975    1.6048   20.8363 H   0  0  0  0  0  0  0  0  0  0  0  0
   15.9248    2.2545   22.3602 H   0  0  0  0  0  0  0  0  0  0  0  0
   15.2910    4.5535   21.7388 C   0  0  0  0  0  0  0  0  0  0  0  0
   14.8924    5.8529   20.9956 C   0  0  0  0  0  0  0  0  0  0  0  0
   14.3454    6.8623   21.6079 C   0  0  0  0  0  0  0  0  0  0  0  0
   14.0518    7.9340   20.8150 C   0  0  0  0  0  0  0  0  0  0  0  0
   14.1603    8.1484   19.5050 C   0  0  0  0  0  0  0  0  0  0  0  0
   14.6928    7.2529   18.8795 C   0  0  0  0  0  0  0  0  0  0  0  0
   15.0582    6.1712   19.5895 C   0  0  0  0  0  0  0  0  0  0  0  0
   13.8184    9.2539   19.0920 O   0  0  0  0  0  0  0  0  0  0  0  0
   12.6071    9.8374   18.7655 C   0  0  0  0  0  0  0  0  0  0  0  0
   12.8474   10.6636   17.5171 C   0  0  0  0  0  0  0  0  0  0  0  0
   12.4737   12.0823   17.4019 C   0  0  0  0  0  0  0  0  0  0  0  0
   12.5883   12.7003   16.1665 C   0  0  0  0  0  0  0  0  0  0  0  0
   13.0946   12.0000   15.0456 C   0  0  0  0  0  0  0  0  0  0  0  0
   13.4392   10.6504   15.1632 C   0  0  0  0  0  0  0  0  0  0  0  0
   13.3843    9.9943   16.3154 C   0  0  0  0  0  0  0  0  0  0  0  0
   14.9418    1.3616   16.5613 C   0  0  0  0  0  0  0  0  0  0  0  0
   15.1861    1.1827   18.0157 C   0  0  0  0  0  0  0  0  0  0  0  0
   17.5871    1.4558   18.5543 N   0  0  0  0  0  0  0  0  0  0  0  0
   16.7338   -0.5556   18.3275 O   0  0  0  0  0  0  0  0  0  0  0  0
   16.5904    0.5447   18.3278 C   0  0  0  0  0  0  0  0  0  0  0  0
   17.3611    2.3864   18.3259 H   0  0  0  0  0  0  0  0  0  0  0  0
   18.9199    1.2605   19.0773 C   0  0  0  0  0  0  0  0  0  0  0  0
   19.8268    1.4460   17.9161 C   0  0  0  0  0  0  0  0  0  0  0  0
   19.7920    2.7611   17.4029 O   0  0  0  0  0  0  0  0  0  0  0  0
   20.2948    2.8634   16.1346 C   0  0  0  0  0  0  0  0  0  0  0  0
   19.2031    2.9312   15.0905 C   0  0  0  0  0  0  0  0  0  0  0  0
   19.0503    4.2222   14.6508 O   0  0  0  0  0  0  0  0  0  0  0  0
   18.7194    5.4339   15.3969 C   0  0  0  0  0  0  0  0  0  0  0  0
   16.2310    5.0014   15.8591 N   0  0  0  0  0  0  0  0  0  0  0  0
   17.6541    6.3527   17.2054 O   0  0  0  0  0  0  0  0  0  0  0  0
   17.4937    5.6364   16.2490 C   0  0  0  0  0  0  0  0  0  0  0  0
   16.0939    4.0883   16.2006 H   0  0  0  0  0  0  0  0  0  0  0  0
   15.1015    5.5548   15.0004 C   0  0  0  0  0  0  0  0  0  0  0  0
   14.6088    4.7268   13.8972 C   0  0  0  0  0  0  0  0  0  0  0  0
   14.8198    6.9709   14.5421 C   0  0  0  0  0  0  0  0  0  0  0  0
 27 28  1  0  0  0
 29 33  1  0  0  0
 28  1  1  0  0  0
 28 31  1  0  0  0
 40 44  1  0  0  0
 35 34  1  0  0  0
 35 36  1  0  0  0
 31 29  1  0  0  0
 31 30  2  0  0  0
 38 39  1  0  0  0
 33 34  1  0  0  0
  1  3  1  0  0  0
 36 37  1  0  0  0
  8  9  1  0  0  0
 37 38  1  0  0  0
 39 42  1  0  0  0
 42 40  1  0  0  0
 42 41  2  0  0  0
 44 46  1  0  0  0
 44 45  1  0  0  0
 19 20  1  0  0  0
  5  6  1  0  0  0
  3  2  2  0  0  0
  3  6  1  0  0  0
  6  9  1  0  0  0
  9 12  1  0  0  0
 12 13  1  0  0  0
 13 18  2  0  0  0
 13 14  1  0  0  0
 14 15  2  0  0  0
 15 16  1  0  0  0
 16 19  1  0  0  0
 17 16  2  0  0  0
 18 17  1  0  0  0
 20 21  1  0  0  0
 21 22  2  0  0  0
 21 26  1  0  0  0
 22 23  1  0  0  0
 23 24  2  0  0  0
 25 24  1  0  0  0
 26 25  2  0  0  0
 29 32  1  0  0  0
 40 43  1  0  0  0
  1  4  1  0  0  0
  8 10  1  0  0  0
  8 11  1  0  0  0
  5  7  1  0  0  0
M  END
> <minimizedAffinity>
-9.18528

$$$$
3T8V_BTJ_A_1092


 46 47  0  0  0  0  0  0  0  0999 V2000
   14.9572    1.7040   18.7078 N   0  0  0  0  0  0  0  0  0  0  0  0
   14.2875    0.1412   19.8911 O   0  0  0  0  0  0  0  0  0  0  0  0
   14.4649    1.3426   19.6704 C   0  0  0  0  0  0  0  0  0  0  0  0
   14.9354    2.6485   18.4308 H   0  0  0  0  0  0  0  0  0  0  0  0
   13.4961    2.5451   21.4567 O   0  0  0  0  0  0  0  0  0  0  0  0
   14.2407    2.5660   20.4299 C   0  0  0  0  0  0  0  0  0  0  0  0
   12.6025    2.2665   21.2024 H   0  0  0  0  0  0  0  0  0  0  0  0
   16.4739    2.0875   21.1606 N   0  0  0  0  0  0  0  0  0  0  0  0
   15.5575    2.9667   20.7475 C   0  0  0  0  0  0  0  0  0  0  0  0
   16.4823    1.2844   20.5318 H   0  0  0  0  0  0  0  0  0  0  0  0
   16.2461    1.7773   22.1052 H   0  0  0  0  0  0  0  0  0  0  0  0
   15.5822    4.1141   21.6903 C   0  0  0  0  0  0  0  0  0  0  0  0
   15.0766    5.4512   21.0935 C   0  0  0  0  0  0  0  0  0  0  0  0
   14.5001    6.3621   21.8222 C   0  0  0  0  0  0  0  0  0  0  0  0
   14.1101    7.4843   21.1496 C   0  0  0  0  0  0  0  0  0  0  0  0
   14.1476    7.8285   19.8637 C   0  0  0  0  0  0  0  0  0  0  0  0
   14.7024    7.0311   19.1335 C   0  0  0  0  0  0  0  0  0  0  0  0
   15.1609    5.9113   19.7198 C   0  0  0  0  0  0  0  0  0  0  0  0
   13.7244    8.9451   19.5740 O   0  0  0  0  0  0  0  0  0  0  0  0
   12.4671    9.4844   19.3679 C   0  0  0  0  0  0  0  0  0  0  0  0
   12.5775   10.3882   18.1555 C   0  0  0  0  0  0  0  0  0  0  0  0
   11.8596   11.6669   18.0318 C   0  0  0  0  0  0  0  0  0  0  0  0
   11.9018   12.3368   16.8191 C   0  0  0  0  0  0  0  0  0  0  0  0
   12.6535   11.8298   15.7324 C   0  0  0  0  0  0  0  0  0  0  0  0
   13.3254   10.6105   15.8571 C   0  0  0  0  0  0  0  0  0  0  0  0
   13.3568    9.9219   16.9912 C   0  0  0  0  0  0  0  0  0  0  0  0
   14.9689    0.3269   16.6235 C   0  0  0  0  0  0  0  0  0  0  0  0
   15.6230    0.6748   17.9111 C   0  0  0  0  0  0  0  0  0  0  0  0
   17.7211    0.5635   16.6016 N   0  0  0  0  0  0  0  0  0  0  0  0
   17.7807    0.3813   18.7899 O   0  0  0  0  0  0  0  0  0  0  0  0
   17.1891    0.5286   17.8628 C   0  0  0  0  0  0  0  0  0  0  0  0
   17.0651    0.4977   15.8704 H   0  0  0  0  0  0  0  0  0  0  0  0
   19.0980    0.6820   16.1796 C   0  0  0  0  0  0  0  0  0  0  0  0
   19.1592    0.0172   14.8531 C   0  0  0  0  0  0  0  0  0  0  0  0
   19.0813    0.9331   13.7811 O   0  0  0  0  0  0  0  0  0  0  0  0
   18.0472    0.6783   12.9222 C   0  0  0  0  0  0  0  0  0  0  0  0
   17.9493    1.7117   11.8227 C   0  0  0  0  0  0  0  0  0  0  0  0
   16.9227    2.5838   12.0849 O   0  0  0  0  0  0  0  0  0  0  0  0
   15.8748    2.5203   13.1010 C   0  0  0  0  0  0  0  0  0  0  0  0
   14.7557    4.3712   14.4847 N   0  0  0  0  0  0  0  0  0  0  0  0
   16.6748    3.1354   15.1580 O   0  0  0  0  0  0  0  0  0  0  0  0
   15.8078    3.3589   14.3507 C   0  0  0  0  0  0  0  0  0  0  0  0
   13.9090    4.0522   14.8727 H   0  0  0  0  0  0  0  0  0  0  0  0
   14.7876    5.8466   14.1083 C   0  0  0  0  0  0  0  0  0  0  0  0
   15.9612    6.3462   13.3883 C   0  0  0  0  0  0  0  0  0  0  0  0
   14.2788    7.0619   14.8557 C   0  0  0  0  0  0  0  0  0  0  0  0
 27 28  1  0  0  0
 29 33  1  0  0  0
 28  1  1  0  0  0
 28 31  1  0  0  0
 40 44  1  0  0  0
 35 34  1  0  0  0
 35 36  1  0  0  0
 31 29  1  0  0  0
 31 30  2  0  0  0
 38 39  1  0  0  0
 33 34  1  0  0  0
  1  3  1  0  0  0
 36 37  1  0  0  0
  8  9  1  0  0  0
 37 38  1  0  0  0
 39 42  1  0  0  0
 42 40  1  0  0  0
 42 41  2  0  0  0
 44 46  1  0  0  0
 44 45  1  0  0  0
 19 20  1  0  0  0
  5  6  1  0  0  0
  3  2  2  0  0  0
  3  6  1  0  0  0
  6  9  1  0  0  0
  9 12  1  0  0  0
 12 13  1  0  0  0
 13 18  2  0  0  0
 13 14  1  0  0  0
 14 15  2  0  0  0
 15 16  1  0  0  0
 16 19  1  0  0  0
 17 16  2  0  0  0
 18 17  1  0  0  0
 20 21  1  0  0  0
 21 22  2  0  0  0
 21 26  1  0  0  0
 22 23  1  0  0  0
 23 24  2  0  0  0
 25 24  1  0  0  0
 26 25  2  0  0  0
 29 32  1  0  0  0
 40 43  1  0  0  0
  1  4  1  0  0  0
  8 10  1  0  0  0
  8 11  1  0  0  0
  5  7  1  0  0  0
M  END
> <minimizedAffinity>
-9.17206

$$$$
3T8V_BTJ_A_1092


 46 47  0  0  0  0  0  0  0  0999 V2000
   12.8563    9.3479   19.1567 N   0  0  0  0  0  0  0  0  0  0  0  0
   14.3081   10.8041   19.4067 O   0  0  0  0  0  0  0  0  0  0  0  0
   13.2205   10.4126   18.9741 C   0  0  0  0  0  0  0  0  0  0  0  0
   11.9250    9.0766   18.9885 H   0  0  0  0  0  0  0  0  0  0  0  0
   11.1984   11.5959   18.6807 O   0  0  0  0  0  0  0  0  0  0  0  0
   12.1797   11.0006   18.1405 C   0  0  0  0  0  0  0  0  0  0  0  0
   10.7145   10.9740   19.2464 H   0  0  0  0  0  0  0  0  0  0  0  0
   13.0514   13.1644   17.5856 N   0  0  0  0  0  0  0  0  0  0  0  0
   12.9193   11.8657   17.3039 C   0  0  0  0  0  0  0  0  0  0  0  0
   13.3346   13.2740   18.5593 H   0  0  0  0  0  0  0  0  0  0  0  0
   12.1602   13.6373   17.4353 H   0  0  0  0  0  0  0  0  0  0  0  0
   12.5076   11.7567   15.8810 C   0  0  0  0  0  0  0  0  0  0  0  0
   13.4246   10.8620   15.0102 C   0  0  0  0  0  0  0  0  0  0  0  0
   13.7710    9.6618   15.3740 C   0  0  0  0  0  0  0  0  0  0  0  0
   14.5835    9.0003   14.4988 C   0  0  0  0  0  0  0  0  0  0  0  0
   15.1541    9.3537   13.3485 C   0  0  0  0  0  0  0  0  0  0  0  0
   14.8457   10.4553   12.9383 C   0  0  0  0  0  0  0  0  0  0  0  0
   14.0095   11.1640   13.7169 C   0  0  0  0  0  0  0  0  0  0  0  0
   15.8316    8.5017   12.7787 O   0  0  0  0  0  0  0  0  0  0  0  0
   16.6952    7.5059   13.1991 C   0  0  0  0  0  0  0  0  0  0  0  0
   15.9673    6.1905   13.0026 C   0  0  0  0  0  0  0  0  0  0  0  0
   14.9801    5.6618   13.9575 C   0  0  0  0  0  0  0  0  0  0  0  0
   14.4936    4.3781   13.7663 C   0  0  0  0  0  0  0  0  0  0  0  0
   14.9000    3.6030   12.6541 C   0  0  0  0  0  0  0  0  0  0  0  0
   15.8442    4.1108   11.7571 C   0  0  0  0  0  0  0  0  0  0  0  0
   16.3374    5.3390   11.8544 C   0  0  0  0  0  0  0  0  0  0  0  0
   13.7546    8.0515   21.0941 C   0  0  0  0  0  0  0  0  0  0  0  0
   13.8613    8.4112   19.6567 C   0  0  0  0  0  0  0  0  0  0  0  0
   14.9456    6.1920   19.4885 N   0  0  0  0  0  0  0  0  0  0  0  0
   14.4445    7.3110   17.6658 O   0  0  0  0  0  0  0  0  0  0  0  0
   14.4379    7.2436   18.7734 C   0  0  0  0  0  0  0  0  0  0  0  0
   15.0542    6.3573   20.4529 H   0  0  0  0  0  0  0  0  0  0  0  0
   15.3464    4.8767   19.0442 C   0  0  0  0  0  0  0  0  0  0  0  0
   15.4678    4.0656   20.2822 C   0  0  0  0  0  0  0  0  0  0  0  0
   14.2138    3.7248   20.8348 O   0  0  0  0  0  0  0  0  0  0  0  0
   13.3962    3.0623   19.9603 C   0  0  0  0  0  0  0  0  0  0  0  0
   13.7301    1.5903   19.8688 C   0  0  0  0  0  0  0  0  0  0  0  0
   14.1202    1.2736   18.5918 O   0  0  0  0  0  0  0  0  0  0  0  0
   15.3371    0.6181   18.1185 C   0  0  0  0  0  0  0  0  0  0  0  0
   17.6174    1.4001   19.0026 N   0  0  0  0  0  0  0  0  0  0  0  0
   16.6251   -0.7124   19.4678 O   0  0  0  0  0  0  0  0  0  0  0  0
   16.5778    0.3684   18.9356 C   0  0  0  0  0  0  0  0  0  0  0  0
   17.5035    2.0694   19.7155 H   0  0  0  0  0  0  0  0  0  0  0  0
   18.8486    1.5826   18.1249 C   0  0  0  0  0  0  0  0  0  0  0  0
   18.7771    1.1199   16.7371 C   0  0  0  0  0  0  0  0  0  0  0  0
   20.3210    1.4773   18.4647 C   0  0  0  0  0  0  0  0  0  0  0  0
 27 28  1  0  0  0
 29 33  1  0  0  0
 28  1  1  0  0  0
 28 31  1  0  0  0
 40 44  1  0  0  0
 35 34  1  0  0  0
 35 36  1  0  0  0
 31 29  1  0  0  0
 31 30  2  0  0  0
 38 39  1  0  0  0
 33 34  1  0  0  0
  1  3  1  0  0  0
 36 37  1  0  0  0
  8  9  1  0  0  0
 37 38  1  0  0  0
 39 42  1  0  0  0
 42 40  1  0  0  0
 42 41  2  0  0  0
 44 46  1  0  0  0
 44 45  1  0  0  0
 19 20  1  0  0  0
  5  6  1  0  0  0
  3  2  2  0  0  0
  3  6  1  0  0  0
  6  9  1  0  0  0
  9 12  1  0  0  0
 12 13  1  0  0  0
 13 18  2  0  0  0
 13 14  1  0  0  0
 14 15  2  0  0  0
 15 16  1  0  0  0
 16 19  1  0  0  0
 17 16  2  0  0  0
 18 17  1  0  0  0
 20 21  1  0  0  0
 21 22  2  0  0  0
 21 26  1  0  0  0
 22 23  1  0  0  0
 23 24  2  0  0  0
 25 24  1  0  0  0
 26 25  2  0  0  0
 29 32  1  0  0  0
 40 43  1  0  0  0
  1  4  1  0  0  0
  8 10  1  0  0  0
  8 11  1  0  0  0
  5  7  1  0  0  0
M  END
> <minimizedAffinity>
-8.99310

$$$$
3T8V_BTJ_A_1092


 46 47  0  0  0  0  0  0  0  0999 V2000
   17.6345    6.4810    7.2881 N   0  0  0  0  0  0  0  0  0  0  0  0
   15.8888    7.2586    8.0872 O   0  0  0  0  0  0  0  0  0  0  0  0
   17.0502    7.3753    7.6862 C   0  0  0  0  0  0  0  0  0  0  0  0
   18.4797    6.5853    6.7942 H   0  0  0  0  0  0  0  0  0  0  0  0
   18.3028    9.0041    6.5229 O   0  0  0  0  0  0  0  0  0  0  0  0
   18.0097    8.4710    7.6361 C   0  0  0  0  0  0  0  0  0  0  0  0
   18.6883    8.3352    5.9356 H   0  0  0  0  0  0  0  0  0  0  0  0
   17.3801   10.7067    8.2323 N   0  0  0  0  0  0  0  0  0  0  0  0
   17.4430    9.4063    8.5302 C   0  0  0  0  0  0  0  0  0  0  0  0
   16.9939   10.8225    7.2953 H   0  0  0  0  0  0  0  0  0  0  0  0
   18.3168   11.1089    8.2661 H   0  0  0  0  0  0  0  0  0  0  0  0
   18.0093    9.2882    9.8981 C   0  0  0  0  0  0  0  0  0  0  0  0
   16.9806    9.4755   11.0411 C   0  0  0  0  0  0  0  0  0  0  0  0
   16.4576   10.6336   11.3209 C   0  0  0  0  0  0  0  0  0  0  0  0
   15.5678   10.6352   12.3562 C   0  0  0  0  0  0  0  0  0  0  0  0
   15.1532    9.6881   13.1957 C   0  0  0  0  0  0  0  0  0  0  0  0
   15.5832    8.5745   12.9681 C   0  0  0  0  0  0  0  0  0  0  0  0
   16.4355    8.4693   11.9335 C   0  0  0  0  0  0  0  0  0  0  0  0
   14.3090   10.0127   14.0274 O   0  0  0  0  0  0  0  0  0  0  0  0
   13.7577   11.2146   14.4346 C   0  0  0  0  0  0  0  0  0  0  0  0
   13.1159   10.9609   15.7846 C   0  0  0  0  0  0  0  0  0  0  0  0
   12.1190   11.8598   16.3879 C   0  0  0  0  0  0  0  0  0  0  0  0
   11.7160   11.6231   17.6928 C   0  0  0  0  0  0  0  0  0  0  0  0
   12.2155   10.5167   18.4204 C   0  0  0  0  0  0  0  0  0  0  0  0
   13.1682    9.6734   17.8415 C   0  0  0  0  0  0  0  0  0  0  0  0
   13.5853    9.8156   16.5897 C   0  0  0  0  0  0  0  0  0  0  0  0
   16.9048    4.2688    6.3855 C   0  0  0  0  0  0  0  0  0  0  0  0
   17.0480    5.1694    7.5582 C   0  0  0  0  0  0  0  0  0  0  0  0
   17.2664    5.1736   10.0243 N   0  0  0  0  0  0  0  0  0  0  0  0
   17.5301    3.3043    8.9011 O   0  0  0  0  0  0  0  0  0  0  0  0
   17.3069    4.3913    8.9013 C   0  0  0  0  0  0  0  0  0  0  0  0
   17.2578    6.1437    9.8566 H   0  0  0  0  0  0  0  0  0  0  0  0
   17.2343    4.7933   11.4180 C   0  0  0  0  0  0  0  0  0  0  0  0
   15.8418    4.3422   11.6685 C   0  0  0  0  0  0  0  0  0  0  0  0
   15.4856    4.4079   13.0334 O   0  0  0  0  0  0  0  0  0  0  0  0
   15.2476    3.1822   13.5928 C   0  0  0  0  0  0  0  0  0  0  0  0
   15.5326    3.1664   15.0777 C   0  0  0  0  0  0  0  0  0  0  0  0
   15.2894    1.9173   15.5915 O   0  0  0  0  0  0  0  0  0  0  0  0
   16.2065    0.9628   16.2099 C   0  0  0  0  0  0  0  0  0  0  0  0
   15.1226    0.9106   18.5370 N   0  0  0  0  0  0  0  0  0  0  0  0
   16.6575   -0.7092   17.7100 O   0  0  0  0  0  0  0  0  0  0  0  0
   16.0154    0.2982   17.5483 C   0  0  0  0  0  0  0  0  0  0  0  0
   14.1768    0.6445   18.4746 H   0  0  0  0  0  0  0  0  0  0  0  0
   15.4518    1.9002   19.6469 C   0  0  0  0  0  0  0  0  0  0  0  0
   16.2139    3.0999   19.2932 C   0  0  0  0  0  0  0  0  0  0  0  0
   15.8064    1.6632   21.1004 C   0  0  0  0  0  0  0  0  0  0  0  0
 27 28  1  0  0  0
 29 33  1  0  0  0
 28  1  1  0  0  0
 28 31  1  0  0  0
 40 44  1  0  0  0
 35 34  1  0  0  0
 35 36  1  0  0  0
 31 29  1  0  0  0
 31 30  2  0  0  0
 38 39  1  0  0  0
 33 34  1  0  0  0
  1  3  1  0  0  0
 36 37  1  0  0  0
  8  9  1  0  0  0
 37 38  1  0  0  0
 39 42  1  0  0  0
 42 40  1  0  0  0
 42 41  2  0  0  0
 44 46  1  0  0  0
 44 45  1  0  0  0
 19 20  1  0  0  0
  5  6  1  0  0  0
  3  2  2  0  0  0
  3  6  1  0  0  0
  6  9  1  0  0  0
  9 12  1  0  0  0
 12 13  1  0  0  0
 13 18  2  0  0  0
 13 14  1  0  0  0
 14 15  2  0  0  0
 15 16  1  0  0  0
 16 19  1  0  0  0
 17 16  2  0  0  0
 18 17  1  0  0  0
 20 21  1  0  0  0
 21 22  2  0  0  0
 21 26  1  0  0  0
 22 23  1  0  0  0
 23 24  2  0  0  0
 25 24  1  0  0  0
 26 25  2  0  0  0
 29 32  1  0  0  0
 40 43  1  0  0  0
  1  4  1  0  0  0
  8 10  1  0  0  0
  8 11  1  0  0  0
  5  7  1  0  0  0
M  END
> <minimizedAffinity>
-8.93345

$$$$
3T8V_BTJ_A_1092


 46 47  0  0  0  0  0  0  0  0999 V2000
   14.7296   10.2367   11.5455 N   0  0  0  0  0  0  0  0  0  0  0  0
   16.3068   11.3920   12.2301 O   0  0  0  0  0  0  0  0  0  0  0  0
   15.1336   11.2510   11.8736 C   0  0  0  0  0  0  0  0  0  0  0  0
   13.7657   10.0652   11.4422 H   0  0  0  0  0  0  0  0  0  0  0  0
   13.4304   12.2132   10.5513 O   0  0  0  0  0  0  0  0  0  0  0  0
   14.0079   12.1559   11.6793 C   0  0  0  0  0  0  0  0  0  0  0  0
   14.0678   12.4924    9.8755 H   0  0  0  0  0  0  0  0  0  0  0  0
   11.7968   11.7598   12.5186 N   0  0  0  0  0  0  0  0  0  0  0  0
   13.1198   11.7526   12.7011 C   0  0  0  0  0  0  0  0  0  0  0  0
   11.5724   11.2933   11.6397 H   0  0  0  0  0  0  0  0  0  0  0  0
   11.4632   12.7232   12.4871 H   0  0  0  0  0  0  0  0  0  0  0  0
   13.3970   12.4400   13.9882 C   0  0  0  0  0  0  0  0  0  0  0  0
   13.2554   11.5428   15.2430 C   0  0  0  0  0  0  0  0  0  0  0  0
   13.7043   10.3220   15.2771 C   0  0  0  0  0  0  0  0  0  0  0  0
   13.5023    9.6606   16.4542 C   0  0  0  0  0  0  0  0  0  0  0  0
   12.8793    9.9915   17.5838 C   0  0  0  0  0  0  0  0  0  0  0  0
   12.4627   11.1323   17.6265 C   0  0  0  0  0  0  0  0  0  0  0  0
   12.6581   11.8754   16.5230 C   0  0  0  0  0  0  0  0  0  0  0  0
   12.8890    9.1603   18.4886 O   0  0  0  0  0  0  0  0  0  0  0  0
   13.2945    9.1684   19.8113 C   0  0  0  0  0  0  0  0  0  0  0  0
   14.0795    7.8900   20.0311 C   0  0  0  0  0  0  0  0  0  0  0  0
   14.5752    7.0462   18.9319 C   0  0  0  0  0  0  0  0  0  0  0  0
   15.1392    5.8183   19.2407 C   0  0  0  0  0  0  0  0  0  0  0  0
   15.2784    5.3978   20.5848 C   0  0  0  0  0  0  0  0  0  0  0  0
   14.7972    6.2026   21.6214 C   0  0  0  0  0  0  0  0  0  0  0  0
   14.2696    7.4021   21.4117 C   0  0  0  0  0  0  0  0  0  0  0  0
   15.8545    8.1448   12.3196 C   0  0  0  0  0  0  0  0  0  0  0  0
   15.7350    9.2071   11.2881 C   0  0  0  0  0  0  0  0  0  0  0  0
   16.2487    7.3394    9.7463 N   0  0  0  0  0  0  0  0  0  0  0  0
   16.1550    9.3980    8.9856 O   0  0  0  0  0  0  0  0  0  0  0  0
   16.0617    8.6928    9.8372 C   0  0  0  0  0  0  0  0  0  0  0  0
   16.3331    6.8713   10.6084 H   0  0  0  0  0  0  0  0  0  0  0  0
   16.3411    6.4929    8.5788 C   0  0  0  0  0  0  0  0  0  0  0  0
   16.4172    5.1066    9.1057 C   0  0  0  0  0  0  0  0  0  0  0  0
   16.8523    5.0577   10.4483 O   0  0  0  0  0  0  0  0  0  0  0  0
   17.6663    3.9914   10.7176 C   0  0  0  0  0  0  0  0  0  0  0  0
   17.6149    3.5864   12.1735 C   0  0  0  0  0  0  0  0  0  0  0  0
   16.4299    2.9495   12.4445 O   0  0  0  0  0  0  0  0  0  0  0  0
   15.9885    2.2666   13.6583 C   0  0  0  0  0  0  0  0  0  0  0  0
   15.4218    3.8687   15.5832 N   0  0  0  0  0  0  0  0  0  0  0  0
   17.0734    2.1576   15.6734 O   0  0  0  0  0  0  0  0  0  0  0  0
   16.2118    2.7457   15.0690 C   0  0  0  0  0  0  0  0  0  0  0  0
   14.5615    3.6264   15.9960 H   0  0  0  0  0  0  0  0  0  0  0  0
   15.7442    5.3571   15.5690 C   0  0  0  0  0  0  0  0  0  0  0  0
   14.6828    6.2856   15.1734 C   0  0  0  0  0  0  0  0  0  0  0  0
   17.0183    6.0822   15.1876 C   0  0  0  0  0  0  0  0  0  0  0  0
 27 28  1  0  0  0
 29 33  1  0  0  0
 28  1  1  0  0  0
 28 31  1  0  0  0
 40 44  1  0  0  0
 35 34  1  0  0  0
 35 36  1  0  0  0
 31 29  1  0  0  0
 31 30  2  0  0  0
 38 39  1  0  0  0
 33 34  1  0  0  0
  1  3  1  0  0  0
 36 37  1  0  0  0
  8  9  1  0  0  0
 37 38  1  0  0  0
 39 42  1  0  0  0
 42 40  1  0  0  0
 42 41  2  0  0  0
 44 46  1  0  0  0
 44 45  1  0  0  0
 19 20  1  0  0  0
  5  6  1  0  0  0
  3  2  2  0  0  0
  3  6  1  0  0  0
  6  9  1  0  0  0
  9 12  1  0  0  0
 12 13  1  0  0  0
 13 18  2  0  0  0
 13 14  1  0  0  0
 14 15  2  0  0  0
 15 16  1  0  0  0
 16 19  1  0  0  0
 17 16  2  0  0  0
 18 17  1  0  0  0
 20 21  1  0  0  0
 21 22  2  0  0  0
 21 26  1  0  0  0
 22 23  1  0  0  0
 23 24  2  0  0  0
 25 24  1  0  0  0
 26 25  2  0  0  0
 29 32  1  0  0  0
 40 43  1  0  0  0
  1  4  1  0  0  0
  8 10  1  0  0  0
  8 11  1  0  0  0
  5  7  1  0  0  0
M  END
> <minimizedAffinity>
-8.90314

$$$$
3T8V_BTJ_A_1092


 46 47  0  0  0  0  0  0  0  0999 V2000
   12.9338    9.2411   19.3629 N   0  0  0  0  0  0  0  0  0  0  0  0
   14.3879   10.7075   19.5233 O   0  0  0  0  0  0  0  0  0  0  0  0
   13.2677   10.3162   19.1836 C   0  0  0  0  0  0  0  0  0  0  0  0
   11.9934    8.9631   19.2754 H   0  0  0  0  0  0  0  0  0  0  0  0
   11.1909   11.4383   19.1283 O   0  0  0  0  0  0  0  0  0  0  0  0
   12.1455   10.9179   18.4747 C   0  0  0  0  0  0  0  0  0  0  0  0
   10.7740   10.7624   19.6851 H   0  0  0  0  0  0  0  0  0  0  0  0
   13.1053   13.0818   18.0923 N   0  0  0  0  0  0  0  0  0  0  0  0
   12.7878   11.8640   17.6454 C   0  0  0  0  0  0  0  0  0  0  0  0
   13.5865   13.0006   18.9879 H   0  0  0  0  0  0  0  0  0  0  0  0
   12.2551   13.6325   18.2118 H   0  0  0  0  0  0  0  0  0  0  0  0
   12.0919   12.0328   16.3443 C   0  0  0  0  0  0  0  0  0  0  0  0
   12.9009   11.5553   15.1126 C   0  0  0  0  0  0  0  0  0  0  0  0
   13.6583   10.4979   15.1475 C   0  0  0  0  0  0  0  0  0  0  0  0
   14.3068   10.2081   13.9817 C   0  0  0  0  0  0  0  0  0  0  0  0
   14.3715   10.8255   12.8035 C   0  0  0  0  0  0  0  0  0  0  0  0
   13.6612   11.8058   12.6966 C   0  0  0  0  0  0  0  0  0  0  0  0
   12.9481   12.1415   13.7859 C   0  0  0  0  0  0  0  0  0  0  0  0
   15.0444   10.2856   11.9286 O   0  0  0  0  0  0  0  0  0  0  0  0
   16.3624    9.8763   11.8302 C   0  0  0  0  0  0  0  0  0  0  0  0
   16.5790    9.4579   10.3891 C   0  0  0  0  0  0  0  0  0  0  0  0
   16.1808    8.1436    9.8599 C   0  0  0  0  0  0  0  0  0  0  0  0
   16.5690    7.8008    8.5742 C   0  0  0  0  0  0  0  0  0  0  0  0
   17.2952    8.7079    7.7661 C   0  0  0  0  0  0  0  0  0  0  0  0
   17.6757    9.9506    8.2805 C   0  0  0  0  0  0  0  0  0  0  0  0
   17.3210   10.3647    9.4905 C   0  0  0  0  0  0  0  0  0  0  0  0
   13.9633    7.8096   21.1325 C   0  0  0  0  0  0  0  0  0  0  0  0
   13.9917    8.3017   19.7312 C   0  0  0  0  0  0  0  0  0  0  0  0
   15.1100    6.1330   19.3123 N   0  0  0  0  0  0  0  0  0  0  0  0
   14.5440    7.4213   17.6255 O   0  0  0  0  0  0  0  0  0  0  0  0
   14.5664    7.2415   18.7202 C   0  0  0  0  0  0  0  0  0  0  0  0
   15.2397    6.2017   20.2858 H   0  0  0  0  0  0  0  0  0  0  0  0
   15.5224    4.8779   18.7270 C   0  0  0  0  0  0  0  0  0  0  0  0
   15.5897    3.9210   19.8606 C   0  0  0  0  0  0  0  0  0  0  0  0
   14.3476    3.7621   20.5133 O   0  0  0  0  0  0  0  0  0  0  0  0
   14.0553    2.4603   20.8166 C   0  0  0  0  0  0  0  0  0  0  0  0
   15.2457    1.5477   20.6259 C   0  0  0  0  0  0  0  0  0  0  0  0
   14.8827    0.4456   19.8932 O   0  0  0  0  0  0  0  0  0  0  0  0
   14.5239    0.3348   18.4813 C   0  0  0  0  0  0  0  0  0  0  0  0
   16.9270    0.0983   17.6083 N   0  0  0  0  0  0  0  0  0  0  0  0
   14.9881    0.2675   16.2387 O   0  0  0  0  0  0  0  0  0  0  0  0
   15.4922    0.2212   17.3329 C   0  0  0  0  0  0  0  0  0  0  0  0
   17.2554   -0.8208   17.7374 H   0  0  0  0  0  0  0  0  0  0  0  0
   17.9810    1.1916   17.7230 C   0  0  0  0  0  0  0  0  0  0  0  0
   18.6765    1.3431   19.0031 C   0  0  0  0  0  0  0  0  0  0  0  0
   18.0231    2.5818   17.1230 C   0  0  0  0  0  0  0  0  0  0  0  0
 27 28  1  0  0  0
 29 33  1  0  0  0
 28  1  1  0  0  0
 28 31  1  0  0  0
 40 44  1  0  0  0
 35 34  1  0  0  0
 35 36  1  0  0  0
 31 29  1  0  0  0
 31 30  2  0  0  0
 38 39  1  0  0  0
 33 34  1  0  0  0
  1  3  1  0  0  0
 36 37  1  0  0  0
  8  9  1  0  0  0
 37 38  1  0  0  0
 39 42  1  0  0  0
 42 40  1  0  0  0
 42 41  2  0  0  0
 44 46  1  0  0  0
 44 45  1  0  0  0
 19 20  1  0  0  0
  5  6  1  0  0  0
  3  2  2  0  0  0
  3  6  1  0  0  0
  6  9  1  0  0  0
  9 12  1  0  0  0
 12 13  1  0  0  0
 13 18  2  0  0  0
 13 14  1  0  0  0
 14 15  2  0  0  0
 15 16  1  0  0  0
 16 19  1  0  0  0
 17 16  2  0  0  0
 18 17  1  0  0  0
 20 21  1  0  0  0
 21 22  2  0  0  0
 21 26  1  0  0  0
 22 23  1  0  0  0
 23 24  2  0  0  0
 25 24  1  0  0  0
 26 25  2  0  0  0
 29 32  1  0  0  0
 40 43  1  0  0  0
  1  4  1  0  0  0
  8 10  1  0  0  0
  8 11  1  0  0  0
  5  7  1  0  0  0
M  END
> <minimizedAffinity>
-8.81378

$$$$
3T8V_BTJ_A_1092


 46 47  0  0  0  0  0  0  0  0999 V2000
   17.6906    6.4442    7.2087 N   0  0  0  0  0  0  0  0  0  0  0  0
   18.7574    6.1963    8.9669 O   0  0  0  0  0  0  0  0  0  0  0  0
   18.1601    6.8960    8.1442 C   0  0  0  0  0  0  0  0  0  0  0  0
   17.0563    6.9451    6.6466 H   0  0  0  0  0  0  0  0  0  0  0  0
   17.6368    8.8093    6.8632 O   0  0  0  0  0  0  0  0  0  0  0  0
   17.9178    8.3260    8.0019 C   0  0  0  0  0  0  0  0  0  0  0  0
   18.3689    8.6390    6.2501 H   0  0  0  0  0  0  0  0  0  0  0  0
   15.6419    8.0954    8.7210 N   0  0  0  0  0  0  0  0  0  0  0  0
   16.8801    8.5481    8.9342 C   0  0  0  0  0  0  0  0  0  0  0  0
   15.6811    7.1125    8.4512 H   0  0  0  0  0  0  0  0  0  0  0  0
   15.2062    8.6361    7.9739 H   0  0  0  0  0  0  0  0  0  0  0  0
   16.7725    9.9775    9.3231 C   0  0  0  0  0  0  0  0  0  0  0  0
   15.9605   10.2353   10.6169 C   0  0  0  0  0  0  0  0  0  0  0  0
   16.3339    9.7720   11.7741 C   0  0  0  0  0  0  0  0  0  0  0  0
   15.5119   10.0843   12.8184 C   0  0  0  0  0  0  0  0  0  0  0  0
   14.3515   10.7333   12.8951 C   0  0  0  0  0  0  0  0  0  0  0  0
   13.9627   11.2175   11.8505 C   0  0  0  0  0  0  0  0  0  0  0  0
   14.7359   10.9981   10.7726 C   0  0  0  0  0  0  0  0  0  0  0  0
   13.8616   10.8667   14.0140 O   0  0  0  0  0  0  0  0  0  0  0  0
   13.0507   11.8142   14.6131 C   0  0  0  0  0  0  0  0  0  0  0  0
   12.8250   11.3512   16.0390 C   0  0  0  0  0  0  0  0  0  0  0  0
   13.5027   10.1849   16.6276 C   0  0  0  0  0  0  0  0  0  0  0  0
   13.1059    9.7505   17.8826 C   0  0  0  0  0  0  0  0  0  0  0  0
   12.1014   10.4357   18.6069 C   0  0  0  0  0  0  0  0  0  0  0  0
   11.4579   11.5375   18.0360 C   0  0  0  0  0  0  0  0  0  0  0  0
   11.7974   12.0319   16.8522 C   0  0  0  0  0  0  0  0  0  0  0  0
   16.9841    4.1181    6.6332 C   0  0  0  0  0  0  0  0  0  0  0  0
   18.0910    5.0731    6.8975 C   0  0  0  0  0  0  0  0  0  0  0  0
   20.5052    5.4348    6.4850 N   0  0  0  0  0  0  0  0  0  0  0  0
   19.3773    4.0208    5.2385 O   0  0  0  0  0  0  0  0  0  0  0  0
   19.3955    4.7407    6.0826 C   0  0  0  0  0  0  0  0  0  0  0  0
   20.3294    6.1782    7.1061 H   0  0  0  0  0  0  0  0  0  0  0  0
   21.8946    5.2431    6.1376 C   0  0  0  0  0  0  0  0  0  0  0  0
   22.5343    4.7054    7.3652 C   0  0  0  0  0  0  0  0  0  0  0  0
   21.6700    4.7234    8.4818 O   0  0  0  0  0  0  0  0  0  0  0  0
   21.7314    3.5831    9.2354 C   0  0  0  0  0  0  0  0  0  0  0  0
   20.4601    2.7693    9.1455 C   0  0  0  0  0  0  0  0  0  0  0  0
   20.0835    2.3432   10.3944 O   0  0  0  0  0  0  0  0  0  0  0  0
   18.8471    2.5848   11.1344 C   0  0  0  0  0  0  0  0  0  0  0  0
   17.2664    4.6065   11.2182 N   0  0  0  0  0  0  0  0  0  0  0  0
   17.0452    2.7623    9.7303 O   0  0  0  0  0  0  0  0  0  0  0  0
   17.6405    3.3231   10.6161 C   0  0  0  0  0  0  0  0  0  0  0  0
   17.6945    5.3999   10.8226 H   0  0  0  0  0  0  0  0  0  0  0  0
   16.3089    4.8857   12.3692 C   0  0  0  0  0  0  0  0  0  0  0  0
   15.2587    3.9020   12.6425 C   0  0  0  0  0  0  0  0  0  0  0  0
   15.7167    6.1909   12.8593 C   0  0  0  0  0  0  0  0  0  0  0  0
 27 28  1  0  0  0
 29 33  1  0  0  0
 28  1  1  0  0  0
 28 31  1  0  0  0
 40 44  1  0  0  0
 35 34  1  0  0  0
 35 36  1  0  0  0
 31 29  1  0  0  0
 31 30  2  0  0  0
 38 39  1  0  0  0
 33 34  1  0  0  0
  1  3  1  0  0  0
 36 37  1  0  0  0
  8  9  1  0  0  0
 37 38  1  0  0  0
 39 42  1  0  0  0
 42 40  1  0  0  0
 42 41  2  0  0  0
 44 46  1  0  0  0
 44 45  1  0  0  0
 19 20  1  0  0  0
  5  6  1  0  0  0
  3  2  2  0  0  0
  3  6  1  0  0  0
  6  9  1  0  0  0
  9 12  1  0  0  0
 12 13  1  0  0  0
 13 18  2  0  0  0
 13 14  1  0  0  0
 14 15  2  0  0  0
 15 16  1  0  0  0
 16 19  1  0  0  0
 17 16  2  0  0  0
 18 17  1  0  0  0
 20 21  1  0  0  0
 21 22  2  0  0  0
 21 26  1  0  0  0
 22 23  1  0  0  0
 23 24  2  0  0  0
 25 24  1  0  0  0
 26 25  2  0  0  0
 29 32  1  0  0  0
 40 43  1  0  0  0
  1  4  1  0  0  0
  8 10  1  0  0  0
  8 11  1  0  0  0
  5  7  1  0  0  0
M  END
> <minimizedAffinity>
-8.79621

$$$$
