6CKW_F6D_A_201


 38 41  0  0  0  0  0  0  0  0999 V2000
   30.5609   -9.8959   32.0651 C   0  0  0  0  0  0  0  0  0  0  0  0
   31.9538  -10.1453   32.5559 C   0  0  0  0  0  0  0  0  0  0  0  0
   28.6197   -8.7125   32.2351 C   0  0  0  0  0  0  0  0  0  0  0  0
   26.6006   -8.1626   32.0031 C   0  0  0  0  0  0  0  0  0  0  0  0
   27.7490   -7.7821   32.6245 N   0  0  0  0  0  0  0  0  0  0  0  0
   26.6674   -9.2278   31.2215 N   0  0  0  0  0  0  0  0  0  0  0  0
   27.9879   -9.5785   31.3727 N   0  0  0  0  0  0  0  0  0  0  0  0
   29.9150   -8.8581   32.5988 N   0  0  0  0  0  0  0  0  0  0  0  0
   29.9650  -10.7772   31.1277 C   0  0  0  0  0  0  0  0  0  0  0  0
   28.6314  -10.6230   30.7623 C   0  0  0  0  0  0  0  0  0  0  0  0
   25.4449   -7.4313   32.2170 N   0  0  0  0  0  0  0  0  0  0  0  0
   25.4879   -6.6028   32.7470 H   0  0  0  0  0  0  0  0  0  0  0  0
   24.1623   -7.8678   31.6700 C   0  0  0  0  0  0  0  0  0  0  0  0
   23.7587   -9.2246   32.2357 C   0  0  0  0  0  0  0  0  0  0  0  0
   23.1753  -10.1979   31.4282 C   0  0  0  0  0  0  0  0  0  0  0  0
   22.8153  -11.4319   31.9514 C   0  0  0  0  0  0  0  0  0  0  0  0
   23.0324  -11.7136   33.2942 C   0  0  0  0  0  0  0  0  0  0  0  0
   23.6208  -10.7438   34.0873 C   0  0  0  0  0  0  0  0  0  0  0  0
   23.9884   -9.5119   33.5796 C   0  0  0  0  0  0  0  0  0  0  0  0
   23.8575  -11.0581   35.7845 Cl  0  0  0  0  0  0  0  0  0  0  0  0
   23.1115   -6.7875   32.0008 C   0  0  0  0  0  0  0  0  0  0  0  0
   22.0182   -6.7182   31.0409 C   0  0  0  0  0  0  0  0  0  0  0  0
   21.1971   -6.6810   30.2736 N   0  0  0  0  0  0  0  0  0  0  0  0
   27.8711  -11.3607   29.9202 N   0  0  0  0  0  0  0  0  0  0  0  0
   27.3415  -10.9103   29.2231 H   0  0  0  0  0  0  0  0  0  0  0  0
   27.8260  -12.8081   30.0311 C   0  0  0  0  0  0  0  0  0  0  0  0
   28.3796  -13.5398   28.7943 C   0  0  0  0  0  0  0  0  0  0  0  0
   29.1052  -12.5656   27.9674 N   0  0  0  0  0  0  0  0  0  0  0  0
   29.8359  -12.1236   28.5251 H   0  0  0  0  0  0  0  0  0  0  0  0
   28.4560  -11.8539   27.6319 H   0  0  0  0  0  0  0  0  0  0  0  0
   29.8875  -15.5519   28.4973 C   0  0  0  0  0  0  0  0  0  0  0  0
   30.7437  -16.5386   28.9837 C   0  0  0  0  0  0  0  0  0  0  0  0
   31.0184  -16.5921   30.3444 C   0  0  0  0  0  0  0  0  0  0  0  0
   29.3082  -14.6184   29.3543 C   0  0  0  0  0  0  0  0  0  0  0  0
   29.5979  -14.6991   30.7162 C   0  0  0  0  0  0  0  0  0  0  0  0
   30.4447  -15.6763   31.2081 C   0  0  0  0  0  0  0  0  0  0  0  0
   29.5563  -15.4152   27.1747 O   0  0  0  0  0  0  0  0  0  0  0  0
   30.0907  -16.3708   26.2607 C   0  0  0  0  0  0  0  0  0  0  0  0
 36 33  2  0  0  0
 36 35  1  0  0  0
 33 32  1  0  0  0
 35 34  2  0  0  0
 32 31  2  0  0  0
 34 31  1  0  0  0
 34 27  1  0  0  0
 26 27  1  0  0  0
 26 24  1  0  0  0
 31 37  1  0  0  0
 27 28  1  0  0  0
 24 10  1  0  0  0
 37 38  1  0  0  0
 10  9  2  0  0  0
 10  7  1  0  0  0
 23 22  3  0  0  0
  9  1  1  0  0  0
  6  7  1  0  0  0
  6  4  2  0  0  0
 22 21  1  0  0  0
  7  3  1  0  0  0
 15 16  2  0  0  0
 15 14  1  0  0  0
 13 21  1  0  0  0
 13 14  1  0  0  0
 13 11  1  0  0  0
 16 17  1  0  0  0
  4 11  1  0  0  0
  4  5  1  0  0  0
  1  2  1  0  0  0
  1  8  2  0  0  0
 14 19  2  0  0  0
  3  8  1  0  0  0
  3  5  2  0  0  0
 17 18  2  0  0  0
 19 18  1  0  0  0
 18 20  1  0  0  0
 11 12  1  0  0  0
 24 25  1  0  0  0
 28 29  1  0  0  0
 28 30  1  0  0  0
M  END
> <minimizedAffinity>
-10.05300

$$$$
6CKW_F6D_A_201


 38 41  0  0  0  0  0  0  0  0999 V2000
   30.4584   -9.8770   31.9759 C   0  0  0  0  0  0  0  0  0  0  0  0
   31.8342  -10.1986   32.4725 C   0  0  0  0  0  0  0  0  0  0  0  0
   28.5378   -8.6707   32.2073 C   0  0  0  0  0  0  0  0  0  0  0  0
   26.5359   -8.0587   31.9813 C   0  0  0  0  0  0  0  0  0  0  0  0
   27.6770   -7.7590   32.6580 N   0  0  0  0  0  0  0  0  0  0  0  0
   26.5996   -9.0530   31.1110 N   0  0  0  0  0  0  0  0  0  0  0  0
   27.9089   -9.4443   31.2591 N   0  0  0  0  0  0  0  0  0  0  0  0
   29.8210   -8.8757   32.5845 N   0  0  0  0  0  0  0  0  0  0  0  0
   29.8669  -10.6601   30.9524 C   0  0  0  0  0  0  0  0  0  0  0  0
   28.5455  -10.4455   30.5735 C   0  0  0  0  0  0  0  0  0  0  0  0
   25.3903   -7.3237   32.2337 N   0  0  0  0  0  0  0  0  0  0  0  0
   25.4534   -6.4964   32.7636 H   0  0  0  0  0  0  0  0  0  0  0  0
   24.0893   -7.7545   31.7274 C   0  0  0  0  0  0  0  0  0  0  0  0
   23.7236   -9.1350   32.2607 C   0  0  0  0  0  0  0  0  0  0  0  0
   23.1482  -10.0977   31.4350 C   0  0  0  0  0  0  0  0  0  0  0  0
   22.8228  -11.3534   31.9286 C   0  0  0  0  0  0  0  0  0  0  0  0
   23.0673  -11.6677   33.2594 C   0  0  0  0  0  0  0  0  0  0  0  0
   23.6477  -10.7079   34.0704 C   0  0  0  0  0  0  0  0  0  0  0  0
   23.9809   -9.4547   33.5923 C   0  0  0  0  0  0  0  0  0  0  0  0
   23.9182  -11.0643   35.7543 Cl  0  0  0  0  0  0  0  0  0  0  0  0
   23.0437   -6.6984   32.1423 C   0  0  0  0  0  0  0  0  0  0  0  0
   21.8514   -6.6920   31.3058 C   0  0  0  0  0  0  0  0  0  0  0  0
   20.9528   -6.6764   30.6301 N   0  0  0  0  0  0  0  0  0  0  0  0
   27.7903  -11.0903   29.6540 N   0  0  0  0  0  0  0  0  0  0  0  0
   26.8461  -10.8373   29.5372 H   0  0  0  0  0  0  0  0  0  0  0  0
   28.3543  -12.1506   28.8374 C   0  0  0  0  0  0  0  0  0  0  0  0
   27.9817  -13.5653   29.3185 C   0  0  0  0  0  0  0  0  0  0  0  0
   26.5408  -13.7608   29.1069 N   0  0  0  0  0  0  0  0  0  0  0  0
   26.3174  -13.6060   28.1238 H   0  0  0  0  0  0  0  0  0  0  0  0
   26.0198  -13.0991   29.6823 H   0  0  0  0  0  0  0  0  0  0  0  0
   29.7450  -15.3632   29.0552 C   0  0  0  0  0  0  0  0  0  0  0  0
   30.5136  -16.2394   28.2905 C   0  0  0  0  0  0  0  0  0  0  0  0
   30.3553  -16.2580   26.9105 C   0  0  0  0  0  0  0  0  0  0  0  0
   28.8196  -14.5108   28.4563 C   0  0  0  0  0  0  0  0  0  0  0  0
   28.6854  -14.5475   27.0685 C   0  0  0  0  0  0  0  0  0  0  0  0
   29.4455  -15.4123   26.3015 C   0  0  0  0  0  0  0  0  0  0  0  0
   29.8263  -15.2710   30.4199 O   0  0  0  0  0  0  0  0  0  0  0  0
   30.8388  -16.0353   31.0716 C   0  0  0  0  0  0  0  0  0  0  0  0
 36 33  2  0  0  0
 36 35  1  0  0  0
 33 32  1  0  0  0
 35 34  2  0  0  0
 32 31  2  0  0  0
 34 31  1  0  0  0
 34 27  1  0  0  0
 26 27  1  0  0  0
 26 24  1  0  0  0
 31 37  1  0  0  0
 27 28  1  0  0  0
 24 10  1  0  0  0
 37 38  1  0  0  0
 10  9  2  0  0  0
 10  7  1  0  0  0
 23 22  3  0  0  0
  9  1  1  0  0  0
  6  7  1  0  0  0
  6  4  2  0  0  0
 22 21  1  0  0  0
  7  3  1  0  0  0
 15 16  2  0  0  0
 15 14  1  0  0  0
 13 21  1  0  0  0
 13 14  1  0  0  0
 13 11  1  0  0  0
 16 17  1  0  0  0
  4 11  1  0  0  0
  4  5  1  0  0  0
  1  2  1  0  0  0
  1  8  2  0  0  0
 14 19  2  0  0  0
  3  8  1  0  0  0
  3  5  2  0  0  0
 17 18  2  0  0  0
 19 18  1  0  0  0
 18 20  1  0  0  0
 11 12  1  0  0  0
 24 25  1  0  0  0
 28 29  1  0  0  0
 28 30  1  0  0  0
M  END
> <minimizedAffinity>
-9.75774

$$$$
6CKW_F6D_A_201


 38 41  0  0  0  0  0  0  0  0999 V2000
   23.2796  -11.6723   33.2835 C   0  0  0  0  0  0  0  0  0  0  0  0
   22.7684  -11.2083   34.6126 C   0  0  0  0  0  0  0  0  0  0  0  0
   25.0284  -12.4075   32.0192 C   0  0  0  0  0  0  0  0  0  0  0  0
   26.1908  -12.9153   30.3387 C   0  0  0  0  0  0  0  0  0  0  0  0
   26.2462  -12.8408   31.6956 N   0  0  0  0  0  0  0  0  0  0  0  0
   25.0375  -12.6070   29.7688 N   0  0  0  0  0  0  0  0  0  0  0  0
   24.2821  -12.2821   30.8702 N   0  0  0  0  0  0  0  0  0  0  0  0
   24.5418  -12.1016   33.2443 N   0  0  0  0  0  0  0  0  0  0  0  0
   22.4576  -11.5846   32.1315 C   0  0  0  0  0  0  0  0  0  0  0  0
   22.9670  -11.8970   30.8750 C   0  0  0  0  0  0  0  0  0  0  0  0
   27.3211  -13.3007   29.6386 N   0  0  0  0  0  0  0  0  0  0  0  0
   27.2295  -13.6284   28.7148 H   0  0  0  0  0  0  0  0  0  0  0  0
   28.6476  -13.2296   30.2469 C   0  0  0  0  0  0  0  0  0  0  0  0
   29.4528  -14.4905   29.9541 C   0  0  0  0  0  0  0  0  0  0  0  0
   30.1361  -15.1607   30.9658 C   0  0  0  0  0  0  0  0  0  0  0  0
   30.8630  -16.3105   30.6903 C   0  0  0  0  0  0  0  0  0  0  0  0
   30.9195  -16.8099   29.3952 C   0  0  0  0  0  0  0  0  0  0  0  0
   30.2300  -16.1424   28.3978 C   0  0  0  0  0  0  0  0  0  0  0  0
   29.4987  -14.9987   28.6576 C   0  0  0  0  0  0  0  0  0  0  0  0
   30.3271  -16.7236   26.7582 Cl  0  0  0  0  0  0  0  0  0  0  0  0
   29.3554  -11.9727   29.6993 C   0  0  0  0  0  0  0  0  0  0  0  0
   29.6326  -10.9656   30.7143 C   0  0  0  0  0  0  0  0  0  0  0  0
   29.8753  -10.1748   31.4760 N   0  0  0  0  0  0  0  0  0  0  0  0
   22.3709  -11.8525   29.6609 N   0  0  0  0  0  0  0  0  0  0  0  0
   22.0554  -12.6866   29.2438 H   0  0  0  0  0  0  0  0  0  0  0  0
   22.1904  -10.5906   28.9650 C   0  0  0  0  0  0  0  0  0  0  0  0
   23.4560   -9.7137   28.9378 C   0  0  0  0  0  0  0  0  0  0  0  0
   23.5555   -9.0869   27.6125 N   0  0  0  0  0  0  0  0  0  0  0  0
   22.7042   -8.5584   27.4216 H   0  0  0  0  0  0  0  0  0  0  0  0
   23.6734   -9.8096   26.9025 H   0  0  0  0  0  0  0  0  0  0  0  0
   24.2372   -8.4729   31.0020 C   0  0  0  0  0  0  0  0  0  0  0  0
   24.0714   -7.5299   32.0152 C   0  0  0  0  0  0  0  0  0  0  0  0
   22.8973   -6.7896   32.0715 C   0  0  0  0  0  0  0  0  0  0  0  0
   23.2458   -8.6796   30.0450 C   0  0  0  0  0  0  0  0  0  0  0  0
   22.0755   -7.9256   30.1290 C   0  0  0  0  0  0  0  0  0  0  0  0
   21.9013   -6.9892   31.1324 C   0  0  0  0  0  0  0  0  0  0  0  0
   25.3569   -9.2500   30.8604 O   0  0  0  0  0  0  0  0  0  0  0  0
   26.4796   -8.9421   31.6844 C   0  0  0  0  0  0  0  0  0  0  0  0
 36 33  2  0  0  0
 36 35  1  0  0  0
 33 32  1  0  0  0
 35 34  2  0  0  0
 32 31  2  0  0  0
 34 31  1  0  0  0
 34 27  1  0  0  0
 26 27  1  0  0  0
 26 24  1  0  0  0
 31 37  1  0  0  0
 27 28  1  0  0  0
 24 10  1  0  0  0
 37 38  1  0  0  0
 10  9  2  0  0  0
 10  7  1  0  0  0
 23 22  3  0  0  0
  9  1  1  0  0  0
  6  7  1  0  0  0
  6  4  2  0  0  0
 22 21  1  0  0  0
  7  3  1  0  0  0
 15 16  2  0  0  0
 15 14  1  0  0  0
 13 21  1  0  0  0
 13 14  1  0  0  0
 13 11  1  0  0  0
 16 17  1  0  0  0
  4 11  1  0  0  0
  4  5  1  0  0  0
  1  2  1  0  0  0
  1  8  2  0  0  0
 14 19  2  0  0  0
  3  8  1  0  0  0
  3  5  2  0  0  0
 17 18  2  0  0  0
 19 18  1  0  0  0
 18 20  1  0  0  0
 11 12  1  0  0  0
 24 25  1  0  0  0
 28 29  1  0  0  0
 28 30  1  0  0  0
M  END
> <minimizedAffinity>
-9.25515

$$$$
6CKW_F6D_A_201


 38 41  0  0  0  0  0  0  0  0999 V2000
   30.4791   -9.8875   32.0064 C   0  0  0  0  0  0  0  0  0  0  0  0
   31.8558  -10.1902   32.5126 C   0  0  0  0  0  0  0  0  0  0  0  0
   28.5415   -8.7060   32.2233 C   0  0  0  0  0  0  0  0  0  0  0  0
   26.5333   -8.1205   31.9832 C   0  0  0  0  0  0  0  0  0  0  0  0
   27.6659   -7.8048   32.6669 N   0  0  0  0  0  0  0  0  0  0  0  0
   26.6157   -9.1152   31.1150 N   0  0  0  0  0  0  0  0  0  0  0  0
   27.9290   -9.4892   31.2723 N   0  0  0  0  0  0  0  0  0  0  0  0
   29.8248   -8.8936   32.6092 N   0  0  0  0  0  0  0  0  0  0  0  0
   29.9047  -10.6797   30.9804 C   0  0  0  0  0  0  0  0  0  0  0  0
   28.5831  -10.4831   30.5925 C   0  0  0  0  0  0  0  0  0  0  0  0
   25.3766   -7.4001   32.2270 N   0  0  0  0  0  0  0  0  0  0  0  0
   25.4271   -6.5652   32.7461 H   0  0  0  0  0  0  0  0  0  0  0  0
   24.0821   -7.8575   31.7271 C   0  0  0  0  0  0  0  0  0  0  0  0
   23.7070   -9.2059   32.3312 C   0  0  0  0  0  0  0  0  0  0  0  0
   23.0802  -10.1884   31.5685 C   0  0  0  0  0  0  0  0  0  0  0  0
   22.7465  -11.4146   32.1262 C   0  0  0  0  0  0  0  0  0  0  0  0
   23.0340  -11.6793   33.4592 C   0  0  0  0  0  0  0  0  0  0  0  0
   23.6651  -10.7006   34.2072 C   0  0  0  0  0  0  0  0  0  0  0  0
   24.0071   -9.4762   33.6647 C   0  0  0  0  0  0  0  0  0  0  0  0
   23.9909  -10.9932   35.8935 Cl  0  0  0  0  0  0  0  0  0  0  0  0
   23.0325   -6.7792   32.0679 C   0  0  0  0  0  0  0  0  0  0  0  0
   21.9470   -6.6898   31.1008 C   0  0  0  0  0  0  0  0  0  0  0  0
   21.1069   -6.5830   30.3611 N   0  0  0  0  0  0  0  0  0  0  0  0
   27.8424  -11.1391   29.6692 N   0  0  0  0  0  0  0  0  0  0  0  0
   27.6838  -10.7250   28.7903 H   0  0  0  0  0  0  0  0  0  0  0  0
   27.2785  -12.4460   29.9577 C   0  0  0  0  0  0  0  0  0  0  0  0
   26.7854  -13.1958   28.7063 C   0  0  0  0  0  0  0  0  0  0  0  0
   27.4203  -14.5208   28.6814 N   0  0  0  0  0  0  0  0  0  0  0  0
   27.2085  -15.0156   29.5478 H   0  0  0  0  0  0  0  0  0  0  0  0
   28.4304  -14.4122   28.5901 H   0  0  0  0  0  0  0  0  0  0  0  0
   24.4524  -12.2479   28.4426 C   0  0  0  0  0  0  0  0  0  0  0  0
   23.0667  -12.3170   28.5771 C   0  0  0  0  0  0  0  0  0  0  0  0
   22.4934  -13.4432   29.1538 C   0  0  0  0  0  0  0  0  0  0  0  0
   25.2681  -13.2920   28.8738 C   0  0  0  0  0  0  0  0  0  0  0  0
   24.6655  -14.4083   29.4535 C   0  0  0  0  0  0  0  0  0  0  0  0
   23.2913  -14.4845   29.5931 C   0  0  0  0  0  0  0  0  0  0  0  0
   25.1117  -11.1829   27.8868 O   0  0  0  0  0  0  0  0  0  0  0  0
   24.7466   -9.8782   28.3324 C   0  0  0  0  0  0  0  0  0  0  0  0
 36 33  2  0  0  0
 36 35  1  0  0  0
 33 32  1  0  0  0
 35 34  2  0  0  0
 32 31  2  0  0  0
 34 31  1  0  0  0
 34 27  1  0  0  0
 26 27  1  0  0  0
 26 24  1  0  0  0
 31 37  1  0  0  0
 27 28  1  0  0  0
 24 10  1  0  0  0
 37 38  1  0  0  0
 10  9  2  0  0  0
 10  7  1  0  0  0
 23 22  3  0  0  0
  9  1  1  0  0  0
  6  7  1  0  0  0
  6  4  2  0  0  0
 22 21  1  0  0  0
  7  3  1  0  0  0
 15 16  2  0  0  0
 15 14  1  0  0  0
 13 21  1  0  0  0
 13 14  1  0  0  0
 13 11  1  0  0  0
 16 17  1  0  0  0
  4 11  1  0  0  0
  4  5  1  0  0  0
  1  2  1  0  0  0
  1  8  2  0  0  0
 14 19  2  0  0  0
  3  8  1  0  0  0
  3  5  2  0  0  0
 17 18  2  0  0  0
 19 18  1  0  0  0
 18 20  1  0  0  0
 11 12  1  0  0  0
 24 25  1  0  0  0
 28 29  1  0  0  0
 28 30  1  0  0  0
M  END
> <minimizedAffinity>
-9.08754

$$$$
6CKW_F6D_A_201


 38 41  0  0  0  0  0  0  0  0999 V2000
   28.7093   -9.1345   32.1921 C   0  0  0  0  0  0  0  0  0  0  0  0
   29.6879   -8.3171   32.9776 C   0  0  0  0  0  0  0  0  0  0  0  0
   28.2346  -11.0719   31.0881 C   0  0  0  0  0  0  0  0  0  0  0  0
   27.2745  -12.4546   29.8234 C   0  0  0  0  0  0  0  0  0  0  0  0
   28.3613  -12.3165   30.6295 N   0  0  0  0  0  0  0  0  0  0  0  0
   26.4447  -11.4266   29.7557 N   0  0  0  0  0  0  0  0  0  0  0  0
   27.0734  -10.5302   30.5869 N   0  0  0  0  0  0  0  0  0  0  0  0
   29.0738  -10.3829   31.8956 N   0  0  0  0  0  0  0  0  0  0  0  0
   27.4932   -8.5585   31.7452 C   0  0  0  0  0  0  0  0  0  0  0  0
   26.6379   -9.2722   30.9116 C   0  0  0  0  0  0  0  0  0  0  0  0
   27.0973  -13.6389   29.1289 N   0  0  0  0  0  0  0  0  0  0  0  0
   26.6163  -14.3835   29.5572 H   0  0  0  0  0  0  0  0  0  0  0  0
   27.6116  -13.8030   27.7712 C   0  0  0  0  0  0  0  0  0  0  0  0
   28.7521  -14.8139   27.7358 C   0  0  0  0  0  0  0  0  0  0  0  0
   29.2148  -15.3369   26.5308 C   0  0  0  0  0  0  0  0  0  0  0  0
   30.2567  -16.2534   26.5084 C   0  0  0  0  0  0  0  0  0  0  0  0
   30.8542  -16.6638   27.6934 C   0  0  0  0  0  0  0  0  0  0  0  0
   30.3939  -16.1320   28.8855 C   0  0  0  0  0  0  0  0  0  0  0  0
   29.3600  -15.2155   28.9234 C   0  0  0  0  0  0  0  0  0  0  0  0
   31.0962  -16.6695   30.3867 Cl  0  0  0  0  0  0  0  0  0  0  0  0
   26.4410  -14.2469   26.8693 C   0  0  0  0  0  0  0  0  0  0  0  0
   25.3775  -13.2580   26.7581 C   0  0  0  0  0  0  0  0  0  0  0  0
   24.5659  -12.4894   26.6353 N   0  0  0  0  0  0  0  0  0  0  0  0
   25.4607   -8.9039   30.3549 N   0  0  0  0  0  0  0  0  0  0  0  0
   25.4003   -8.7869   29.3793 H   0  0  0  0  0  0  0  0  0  0  0  0
   24.2853   -8.6788   31.1776 C   0  0  0  0  0  0  0  0  0  0  0  0
   23.2532   -9.8194   31.1054 C   0  0  0  0  0  0  0  0  0  0  0  0
   23.6576  -10.7414   30.0350 N   0  0  0  0  0  0  0  0  0  0  0  0
   24.6045  -11.0758   30.2140 H   0  0  0  0  0  0  0  0  0  0  0  0
   23.6327  -10.2543   29.1392 H   0  0  0  0  0  0  0  0  0  0  0  0
   22.6895  -11.7217   32.6785 C   0  0  0  0  0  0  0  0  0  0  0  0
   22.7274  -12.3513   33.9217 C   0  0  0  0  0  0  0  0  0  0  0  0
   23.3817  -11.7324   34.9793 C   0  0  0  0  0  0  0  0  0  0  0  0
   23.3009  -10.4852   32.4817 C   0  0  0  0  0  0  0  0  0  0  0  0
   23.9463   -9.8849   33.5625 C   0  0  0  0  0  0  0  0  0  0  0  0
   23.9870  -10.5013   34.8004 C   0  0  0  0  0  0  0  0  0  0  0  0
   22.0720  -12.2503   31.5754 O   0  0  0  0  0  0  0  0  0  0  0  0
   22.4033  -13.5899   31.2150 C   0  0  0  0  0  0  0  0  0  0  0  0
 36 33  2  0  0  0
 36 35  1  0  0  0
 33 32  1  0  0  0
 35 34  2  0  0  0
 32 31  2  0  0  0
 34 31  1  0  0  0
 34 27  1  0  0  0
 26 27  1  0  0  0
 26 24  1  0  0  0
 31 37  1  0  0  0
 27 28  1  0  0  0
 24 10  1  0  0  0
 37 38  1  0  0  0
 10  9  2  0  0  0
 10  7  1  0  0  0
 23 22  3  0  0  0
  9  1  1  0  0  0
  6  7  1  0  0  0
  6  4  2  0  0  0
 22 21  1  0  0  0
  7  3  1  0  0  0
 15 16  2  0  0  0
 15 14  1  0  0  0
 13 21  1  0  0  0
 13 14  1  0  0  0
 13 11  1  0  0  0
 16 17  1  0  0  0
  4 11  1  0  0  0
  4  5  1  0  0  0
  1  2  1  0  0  0
  1  8  2  0  0  0
 14 19  2  0  0  0
  3  8  1  0  0  0
  3  5  2  0  0  0
 17 18  2  0  0  0
 19 18  1  0  0  0
 18 20  1  0  0  0
 11 12  1  0  0  0
 24 25  1  0  0  0
 28 29  1  0  0  0
 28 30  1  0  0  0
M  END
> <minimizedAffinity>
-9.06121

$$$$
6CKW_F6D_A_201


 38 41  0  0  0  0  0  0  0  0999 V2000
   30.3697   -9.2983   32.1170 C   0  0  0  0  0  0  0  0  0  0  0  0
   31.7603   -9.3210   32.6727 C   0  0  0  0  0  0  0  0  0  0  0  0
   28.1985   -8.6366   32.3308 C   0  0  0  0  0  0  0  0  0  0  0  0
   26.1182   -8.5181   32.0291 C   0  0  0  0  0  0  0  0  0  0  0  0
   27.1172   -8.0199   32.8060 N   0  0  0  0  0  0  0  0  0  0  0  0
   26.4673   -9.3663   31.0759 N   0  0  0  0  0  0  0  0  0  0  0  0
   27.8257   -9.4352   31.2743 N   0  0  0  0  0  0  0  0  0  0  0  0
   29.4752   -8.5571   32.7725 N   0  0  0  0  0  0  0  0  0  0  0  0
   30.0385  -10.0887   30.9874 C   0  0  0  0  0  0  0  0  0  0  0  0
   28.7227  -10.1682   30.5423 C   0  0  0  0  0  0  0  0  0  0  0  0
   24.8145   -8.1208   32.2717 N   0  0  0  0  0  0  0  0  0  0  0  0
   24.6087   -7.1617   32.3557 H   0  0  0  0  0  0  0  0  0  0  0  0
   23.7385   -9.1002   32.4054 C   0  0  0  0  0  0  0  0  0  0  0  0
   23.1888   -9.4997   31.0408 C   0  0  0  0  0  0  0  0  0  0  0  0
   22.7723   -8.5396   30.1219 C   0  0  0  0  0  0  0  0  0  0  0  0
   22.2774   -8.9130   28.8802 C   0  0  0  0  0  0  0  0  0  0  0  0
   22.1898  -10.2560   28.5362 C   0  0  0  0  0  0  0  0  0  0  0  0
   22.6145  -11.2029   29.4520 C   0  0  0  0  0  0  0  0  0  0  0  0
   23.1132  -10.8463   30.6906 C   0  0  0  0  0  0  0  0  0  0  0  0
   22.4680  -12.8942   29.0601 Cl  0  0  0  0  0  0  0  0  0  0  0  0
   24.2984  -10.3217   33.1637 C   0  0  0  0  0  0  0  0  0  0  0  0
   23.6633  -10.5539   34.4537 C   0  0  0  0  0  0  0  0  0  0  0  0
   23.1608  -10.7673   35.4367 N   0  0  0  0  0  0  0  0  0  0  0  0
   28.1940  -10.8771   29.5179 N   0  0  0  0  0  0  0  0  0  0  0  0
   27.4309  -10.5098   29.0159 H   0  0  0  0  0  0  0  0  0  0  0  0
   28.7374  -12.1725   29.1492 C   0  0  0  0  0  0  0  0  0  0  0  0
   28.1483  -13.3425   29.9588 C   0  0  0  0  0  0  0  0  0  0  0  0
   26.8700  -13.7305   29.3468 N   0  0  0  0  0  0  0  0  0  0  0  0
   27.0201  -13.9648   28.3655 H   0  0  0  0  0  0  0  0  0  0  0  0
   26.2113  -12.9546   29.4141 H   0  0  0  0  0  0  0  0  0  0  0  0
   29.4846  -15.0290   28.6243 C   0  0  0  0  0  0  0  0  0  0  0  0
   30.4371  -16.0403   28.5093 C   0  0  0  0  0  0  0  0  0  0  0  0
   31.0988  -16.4858   29.6466 C   0  0  0  0  0  0  0  0  0  0  0  0
   29.1909  -14.4573   29.8606 C   0  0  0  0  0  0  0  0  0  0  0  0
   29.8670  -14.9276   30.9862 C   0  0  0  0  0  0  0  0  0  0  0  0
   30.8122  -15.9325   30.8817 C   0  0  0  0  0  0  0  0  0  0  0  0
   28.7808  -14.5212   27.5639 O   0  0  0  0  0  0  0  0  0  0  0  0
   28.3329  -15.4415   26.5707 C   0  0  0  0  0  0  0  0  0  0  0  0
 36 33  2  0  0  0
 36 35  1  0  0  0
 33 32  1  0  0  0
 35 34  2  0  0  0
 32 31  2  0  0  0
 34 31  1  0  0  0
 34 27  1  0  0  0
 26 27  1  0  0  0
 26 24  1  0  0  0
 31 37  1  0  0  0
 27 28  1  0  0  0
 24 10  1  0  0  0
 37 38  1  0  0  0
 10  9  2  0  0  0
 10  7  1  0  0  0
 23 22  3  0  0  0
  9  1  1  0  0  0
  6  7  1  0  0  0
  6  4  2  0  0  0
 22 21  1  0  0  0
  7  3  1  0  0  0
 15 16  2  0  0  0
 15 14  1  0  0  0
 13 21  1  0  0  0
 13 14  1  0  0  0
 13 11  1  0  0  0
 16 17  1  0  0  0
  4 11  1  0  0  0
  4  5  1  0  0  0
  1  2  1  0  0  0
  1  8  2  0  0  0
 14 19  2  0  0  0
  3  8  1  0  0  0
  3  5  2  0  0  0
 17 18  2  0  0  0
 19 18  1  0  0  0
 18 20  1  0  0  0
 11 12  1  0  0  0
 24 25  1  0  0  0
 28 29  1  0  0  0
 28 30  1  0  0  0
M  END
> <minimizedAffinity>
-9.02479

$$$$
6CKW_F6D_A_201


 38 41  0  0  0  0  0  0  0  0999 V2000
   24.4062  -15.6393   28.5144 C   0  0  0  0  0  0  0  0  0  0  0  0
   23.8619  -17.0317   28.6030 C   0  0  0  0  0  0  0  0  0  0  0  0
   24.0434  -13.3939   28.6694 C   0  0  0  0  0  0  0  0  0  0  0  0
   24.3254  -11.3168   28.4711 C   0  0  0  0  0  0  0  0  0  0  0  0
   23.4288  -12.2376   28.9160 N   0  0  0  0  0  0  0  0  0  0  0  0
   25.4723  -11.7772   27.9992 N   0  0  0  0  0  0  0  0  0  0  0  0
   25.2844  -13.1320   28.1363 N   0  0  0  0  0  0  0  0  0  0  0  0
   23.5816  -14.6508   28.8641 N   0  0  0  0  0  0  0  0  0  0  0  0
   25.7147  -15.4137   28.0170 C   0  0  0  0  0  0  0  0  0  0  0  0
   26.1802  -14.1181   27.8158 C   0  0  0  0  0  0  0  0  0  0  0  0
   23.9978   -9.9732   28.5327 N   0  0  0  0  0  0  0  0  0  0  0  0
   24.6507   -9.3017   28.2294 H   0  0  0  0  0  0  0  0  0  0  0  0
   22.6999   -9.5344   29.0402 C   0  0  0  0  0  0  0  0  0  0  0  0
   22.8660   -8.5837   30.2202 C   0  0  0  0  0  0  0  0  0  0  0  0
   21.9739   -7.5354   30.4327 C   0  0  0  0  0  0  0  0  0  0  0  0
   22.1309   -6.6777   31.5124 C   0  0  0  0  0  0  0  0  0  0  0  0
   23.1854   -6.8538   32.3994 C   0  0  0  0  0  0  0  0  0  0  0  0
   24.0617   -7.9036   32.1856 C   0  0  0  0  0  0  0  0  0  0  0  0
   23.9160   -8.7683   31.1173 C   0  0  0  0  0  0  0  0  0  0  0  0
   25.4190   -8.1134   33.2577 Cl  0  0  0  0  0  0  0  0  0  0  0  0
   21.9385   -8.8600   27.8800 C   0  0  0  0  0  0  0  0  0  0  0  0
   22.6531   -8.8922   26.6113 C   0  0  0  0  0  0  0  0  0  0  0  0
   23.1840   -8.8869   25.6200 N   0  0  0  0  0  0  0  0  0  0  0  0
   27.3674  -13.6879   27.3290 N   0  0  0  0  0  0  0  0  0  0  0  0
   27.4047  -13.2714   26.4377 H   0  0  0  0  0  0  0  0  0  0  0  0
   28.5871  -13.8325   28.1039 C   0  0  0  0  0  0  0  0  0  0  0  0
   28.3630  -13.7685   29.6261 C   0  0  0  0  0  0  0  0  0  0  0  0
   29.4689  -14.4760   30.2862 N   0  0  0  0  0  0  0  0  0  0  0  0
   30.3562  -14.0626   29.9995 H   0  0  0  0  0  0  0  0  0  0  0  0
   29.4503  -15.4603   30.0192 H   0  0  0  0  0  0  0  0  0  0  0  0
   27.3716  -11.7565   30.8009 C   0  0  0  0  0  0  0  0  0  0  0  0
   27.3505  -10.4019   31.1292 C   0  0  0  0  0  0  0  0  0  0  0  0
   28.3249   -9.5595   30.6090 C   0  0  0  0  0  0  0  0  0  0  0  0
   28.3564  -12.2766   29.9636 C   0  0  0  0  0  0  0  0  0  0  0  0
   29.3191  -11.4067   29.4519 C   0  0  0  0  0  0  0  0  0  0  0  0
   29.3046  -10.0606   29.7705 C   0  0  0  0  0  0  0  0  0  0  0  0
   26.4576  -12.6667   31.2633 O   0  0  0  0  0  0  0  0  0  0  0  0
   25.3350  -12.1630   31.9846 C   0  0  0  0  0  0  0  0  0  0  0  0
 36 33  2  0  0  0
 36 35  1  0  0  0
 33 32  1  0  0  0
 35 34  2  0  0  0
 32 31  2  0  0  0
 34 31  1  0  0  0
 34 27  1  0  0  0
 26 27  1  0  0  0
 26 24  1  0  0  0
 31 37  1  0  0  0
 27 28  1  0  0  0
 24 10  1  0  0  0
 37 38  1  0  0  0
 10  9  2  0  0  0
 10  7  1  0  0  0
 23 22  3  0  0  0
  9  1  1  0  0  0
  6  7  1  0  0  0
  6  4  2  0  0  0
 22 21  1  0  0  0
  7  3  1  0  0  0
 15 16  2  0  0  0
 15 14  1  0  0  0
 13 21  1  0  0  0
 13 14  1  0  0  0
 13 11  1  0  0  0
 16 17  1  0  0  0
  4 11  1  0  0  0
  4  5  1  0  0  0
  1  2  1  0  0  0
  1  8  2  0  0  0
 14 19  2  0  0  0
  3  8  1  0  0  0
  3  5  2  0  0  0
 17 18  2  0  0  0
 19 18  1  0  0  0
 18 20  1  0  0  0
 11 12  1  0  0  0
 24 25  1  0  0  0
 28 29  1  0  0  0
 28 30  1  0  0  0
M  END
> <minimizedAffinity>
-8.98921

$$$$
6CKW_F6D_A_201


 38 41  0  0  0  0  0  0  0  0999 V2000
   29.4814   -9.0615   32.4420 C   0  0  0  0  0  0  0  0  0  0  0  0
   30.6188   -8.3477   33.1053 C   0  0  0  0  0  0  0  0  0  0  0  0
   28.7206  -10.9009   31.3305 C   0  0  0  0  0  0  0  0  0  0  0  0
   27.4923  -12.1509   30.1635 C   0  0  0  0  0  0  0  0  0  0  0  0
   28.6958  -12.1214   30.7965 N   0  0  0  0  0  0  0  0  0  0  0  0
   26.7296  -11.0759   30.2770 N   0  0  0  0  0  0  0  0  0  0  0  0
   27.5338  -10.2666   31.0436 N   0  0  0  0  0  0  0  0  0  0  0  0
   29.7155  -10.3086   32.0308 N   0  0  0  0  0  0  0  0  0  0  0  0
   28.2509   -8.3931   32.2190 C   0  0  0  0  0  0  0  0  0  0  0  0
   27.2346   -9.0077   31.4943 C   0  0  0  0  0  0  0  0  0  0  0  0
   27.1356  -13.2804   29.4470 N   0  0  0  0  0  0  0  0  0  0  0  0
   26.6034  -13.9831   29.8853 H   0  0  0  0  0  0  0  0  0  0  0  0
   27.5353  -13.4476   28.0517 C   0  0  0  0  0  0  0  0  0  0  0  0
   28.6227  -14.5075   27.9166 C   0  0  0  0  0  0  0  0  0  0  0  0
   29.0172  -14.9806   26.6675 C   0  0  0  0  0  0  0  0  0  0  0  0
   30.0113  -15.9424   26.5543 C   0  0  0  0  0  0  0  0  0  0  0  0
   30.6284  -16.4490   27.6911 C   0  0  0  0  0  0  0  0  0  0  0  0
   30.2364  -15.9665   28.9278 C   0  0  0  0  0  0  0  0  0  0  0  0
   29.2508  -15.0060   29.0561 C   0  0  0  0  0  0  0  0  0  0  0  0
   30.9627  -16.6232   30.3688 Cl  0  0  0  0  0  0  0  0  0  0  0  0
   26.2795  -13.8263   27.2391 C   0  0  0  0  0  0  0  0  0  0  0  0
   25.2650  -12.7819   27.2051 C   0  0  0  0  0  0  0  0  0  0  0  0
   24.4563  -12.0007   27.1933 N   0  0  0  0  0  0  0  0  0  0  0  0
   26.0124   -8.5420   31.1466 N   0  0  0  0  0  0  0  0  0  0  0  0
   25.5087   -8.9888   30.4283 H   0  0  0  0  0  0  0  0  0  0  0  0
   25.4340   -7.3919   31.8189 C   0  0  0  0  0  0  0  0  0  0  0  0
   24.0193   -7.6465   32.3714 C   0  0  0  0  0  0  0  0  0  0  0  0
   23.1958   -6.4609   32.0970 N   0  0  0  0  0  0  0  0  0  0  0  0
   23.2003   -6.2682   31.0954 H   0  0  0  0  0  0  0  0  0  0  0  0
   23.5765   -5.6589   32.5993 H   0  0  0  0  0  0  0  0  0  0  0  0
   23.6194  -10.1409   32.2006 C   0  0  0  0  0  0  0  0  0  0  0  0
   23.1594  -11.2773   31.5371 C   0  0  0  0  0  0  0  0  0  0  0  0
   22.5931  -11.1473   30.2753 C   0  0  0  0  0  0  0  0  0  0  0  0
   23.5155   -8.8791   31.6187 C   0  0  0  0  0  0  0  0  0  0  0  0
   22.9472   -8.7791   30.3489 C   0  0  0  0  0  0  0  0  0  0  0  0
   22.4901   -9.9018   29.6822 C   0  0  0  0  0  0  0  0  0  0  0  0
   24.1904  -10.1647   33.4459 O   0  0  0  0  0  0  0  0  0  0  0  0
   23.5208  -10.9080   34.4624 C   0  0  0  0  0  0  0  0  0  0  0  0
 36 33  2  0  0  0
 36 35  1  0  0  0
 33 32  1  0  0  0
 35 34  2  0  0  0
 32 31  2  0  0  0
 34 31  1  0  0  0
 34 27  1  0  0  0
 26 27  1  0  0  0
 26 24  1  0  0  0
 31 37  1  0  0  0
 27 28  1  0  0  0
 24 10  1  0  0  0
 37 38  1  0  0  0
 10  9  2  0  0  0
 10  7  1  0  0  0
 23 22  3  0  0  0
  9  1  1  0  0  0
  6  7  1  0  0  0
  6  4  2  0  0  0
 22 21  1  0  0  0
  7  3  1  0  0  0
 15 16  2  0  0  0
 15 14  1  0  0  0
 13 21  1  0  0  0
 13 14  1  0  0  0
 13 11  1  0  0  0
 16 17  1  0  0  0
  4 11  1  0  0  0
  4  5  1  0  0  0
  1  2  1  0  0  0
  1  8  2  0  0  0
 14 19  2  0  0  0
  3  8  1  0  0  0
  3  5  2  0  0  0
 17 18  2  0  0  0
 19 18  1  0  0  0
 18 20  1  0  0  0
 11 12  1  0  0  0
 24 25  1  0  0  0
 28 29  1  0  0  0
 28 30  1  0  0  0
M  END
> <minimizedAffinity>
-8.84801

$$$$
6CKW_F6D_A_201


 38 41  0  0  0  0  0  0  0  0999 V2000
   23.9528  -15.9898   28.2845 C   0  0  0  0  0  0  0  0  0  0  0  0
   23.3821  -17.3643   28.4516 C   0  0  0  0  0  0  0  0  0  0  0  0
   23.7161  -13.7380   28.5514 C   0  0  0  0  0  0  0  0  0  0  0  0
   24.0353  -11.6675   28.3416 C   0  0  0  0  0  0  0  0  0  0  0  0
   23.2076  -12.5681   28.9363 N   0  0  0  0  0  0  0  0  0  0  0  0
   25.0485  -12.1548   27.6445 N   0  0  0  0  0  0  0  0  0  0  0  0
   24.8380  -13.5053   27.7896 N   0  0  0  0  0  0  0  0  0  0  0  0
   23.2523  -14.9830   28.8087 N   0  0  0  0  0  0  0  0  0  0  0  0
   25.1464  -15.7967   27.5439 C   0  0  0  0  0  0  0  0  0  0  0  0
   25.6141  -14.5132   27.2801 C   0  0  0  0  0  0  0  0  0  0  0  0
   23.7792  -10.3155   28.4925 N   0  0  0  0  0  0  0  0  0  0  0  0
   24.3075   -9.6628   27.9785 H   0  0  0  0  0  0  0  0  0  0  0  0
   22.7386   -9.8403   29.4013 C   0  0  0  0  0  0  0  0  0  0  0  0
   23.3118   -9.5408   30.7818 C   0  0  0  0  0  0  0  0  0  0  0  0
   23.9346   -8.3256   31.0559 C   0  0  0  0  0  0  0  0  0  0  0  0
   24.4494   -8.0604   32.3171 C   0  0  0  0  0  0  0  0  0  0  0  0
   24.3506   -9.0086   33.3275 C   0  0  0  0  0  0  0  0  0  0  0  0
   23.7222  -10.2099   33.0487 C   0  0  0  0  0  0  0  0  0  0  0  0
   23.2011  -10.4867   31.7989 C   0  0  0  0  0  0  0  0  0  0  0  0
   23.6305  -11.4320   34.2871 Cl  0  0  0  0  0  0  0  0  0  0  0  0
   22.0980   -8.5836   28.7758 C   0  0  0  0  0  0  0  0  0  0  0  0
   22.2356   -8.5132   27.3276 C   0  0  0  0  0  0  0  0  0  0  0  0
   22.3751   -8.4401   26.2142 N   0  0  0  0  0  0  0  0  0  0  0  0
   26.6989  -14.1117   26.5776 N   0  0  0  0  0  0  0  0  0  0  0  0
   26.5951  -13.8391   25.6373 H   0  0  0  0  0  0  0  0  0  0  0  0
   28.0142  -14.0776   27.1924 C   0  0  0  0  0  0  0  0  0  0  0  0
   28.7713  -15.4158   27.1058 C   0  0  0  0  0  0  0  0  0  0  0  0
   29.7445  -15.3259   26.0084 N   0  0  0  0  0  0  0  0  0  0  0  0
   30.3636  -14.5309   26.1673 H   0  0  0  0  0  0  0  0  0  0  0  0
   29.2502  -15.2007   25.1250 H   0  0  0  0  0  0  0  0  0  0  0  0
   30.3382  -16.6290   28.6818 C   0  0  0  0  0  0  0  0  0  0  0  0
   30.9795  -16.7877   29.9093 C   0  0  0  0  0  0  0  0  0  0  0  0
   30.7294  -15.8804   30.9311 C   0  0  0  0  0  0  0  0  0  0  0  0
   29.4552  -15.5732   28.4649 C   0  0  0  0  0  0  0  0  0  0  0  0
   29.2193  -14.6805   29.5101 C   0  0  0  0  0  0  0  0  0  0  0  0
   29.8495  -14.8315   30.7324 C   0  0  0  0  0  0  0  0  0  0  0  0
   30.5193  -17.4679   27.6136 O   0  0  0  0  0  0  0  0  0  0  0  0
   30.0053  -18.7937   27.7241 C   0  0  0  0  0  0  0  0  0  0  0  0
 36 33  2  0  0  0
 36 35  1  0  0  0
 33 32  1  0  0  0
 35 34  2  0  0  0
 32 31  2  0  0  0
 34 31  1  0  0  0
 34 27  1  0  0  0
 26 27  1  0  0  0
 26 24  1  0  0  0
 31 37  1  0  0  0
 27 28  1  0  0  0
 24 10  1  0  0  0
 37 38  1  0  0  0
 10  9  2  0  0  0
 10  7  1  0  0  0
 23 22  3  0  0  0
  9  1  1  0  0  0
  6  7  1  0  0  0
  6  4  2  0  0  0
 22 21  1  0  0  0
  7  3  1  0  0  0
 15 16  2  0  0  0
 15 14  1  0  0  0
 13 21  1  0  0  0
 13 14  1  0  0  0
 13 11  1  0  0  0
 16 17  1  0  0  0
  4 11  1  0  0  0
  4  5  1  0  0  0
  1  2  1  0  0  0
  1  8  2  0  0  0
 14 19  2  0  0  0
  3  8  1  0  0  0
  3  5  2  0  0  0
 17 18  2  0  0  0
 19 18  1  0  0  0
 18 20  1  0  0  0
 11 12  1  0  0  0
 24 25  1  0  0  0
 28 29  1  0  0  0
 28 30  1  0  0  0
M  END
> <minimizedAffinity>
-8.69987

$$$$
6CKW_F6D_A_201


 38 41  0  0  0  0  0  0  0  0999 V2000
   23.3696  -15.0061   26.5754 C   0  0  0  0  0  0  0  0  0  0  0  0
   22.6294  -15.6140   25.4241 C   0  0  0  0  0  0  0  0  0  0  0  0
   25.2490  -13.9795   27.3574 C   0  0  0  0  0  0  0  0  0  0  0  0
   26.6924  -13.2248   28.6916 C   0  0  0  0  0  0  0  0  0  0  0  0
   26.4380  -13.3781   27.3643 N   0  0  0  0  0  0  0  0  0  0  0  0
   25.7578  -13.6375   29.5319 N   0  0  0  0  0  0  0  0  0  0  0  0
   24.8169  -14.1236   28.6557 N   0  0  0  0  0  0  0  0  0  0  0  0
   24.5353  -14.4212   26.2959 N   0  0  0  0  0  0  0  0  0  0  0  0
   22.8603  -15.1219   27.8936 C   0  0  0  0  0  0  0  0  0  0  0  0
   23.6024  -14.6691   28.9799 C   0  0  0  0  0  0  0  0  0  0  0  0
   27.8919  -12.6576   29.0863 N   0  0  0  0  0  0  0  0  0  0  0  0
   28.2863  -11.9352   28.5461 H   0  0  0  0  0  0  0  0  0  0  0  0
   28.5828  -13.1126   30.2906 C   0  0  0  0  0  0  0  0  0  0  0  0
   29.4127  -14.3597   30.0081 C   0  0  0  0  0  0  0  0  0  0  0  0
   30.0213  -15.0699   31.0401 C   0  0  0  0  0  0  0  0  0  0  0  0
   30.7712  -16.2068   30.7734 C   0  0  0  0  0  0  0  0  0  0  0  0
   30.9261  -16.6531   29.4670 C   0  0  0  0  0  0  0  0  0  0  0  0
   30.3104  -15.9463   28.4487 C   0  0  0  0  0  0  0  0  0  0  0  0
   29.5572  -14.8148   28.6991 C   0  0  0  0  0  0  0  0  0  0  0  0
   30.5318  -16.4604   26.7988 Cl  0  0  0  0  0  0  0  0  0  0  0  0
   29.4667  -11.9543   30.7984 C   0  0  0  0  0  0  0  0  0  0  0  0
   29.4306  -10.7719   29.9488 C   0  0  0  0  0  0  0  0  0  0  0  0
   29.3723   -9.8739   29.2745 N   0  0  0  0  0  0  0  0  0  0  0  0
   23.3191  -14.7100   30.3026 N   0  0  0  0  0  0  0  0  0  0  0  0
   23.6612  -15.4535   30.8498 H   0  0  0  0  0  0  0  0  0  0  0  0
   22.5171  -13.6718   30.9255 C   0  0  0  0  0  0  0  0  0  0  0  0
   23.1001  -13.1545   32.2537 C   0  0  0  0  0  0  0  0  0  0  0  0
   24.3899  -13.8203   32.4826 N   0  0  0  0  0  0  0  0  0  0  0  0
   25.0060  -13.6505   31.6877 H   0  0  0  0  0  0  0  0  0  0  0  0
   24.2404  -14.8237   32.5888 H   0  0  0  0  0  0  0  0  0  0  0  0
   23.7446  -10.8551   33.0953 C   0  0  0  0  0  0  0  0  0  0  0  0
   23.9089   -9.4802   32.9345 C   0  0  0  0  0  0  0  0  0  0  0  0
   23.5824   -8.8925   31.7188 C   0  0  0  0  0  0  0  0  0  0  0  0
   23.2624  -11.6466   32.0549 C   0  0  0  0  0  0  0  0  0  0  0  0
   22.9380  -11.0290   30.8472 C   0  0  0  0  0  0  0  0  0  0  0  0
   23.0957   -9.6648   30.6794 C   0  0  0  0  0  0  0  0  0  0  0  0
   24.0392  -11.5273   34.2525 O   0  0  0  0  0  0  0  0  0  0  0  0
   23.6118  -10.9413   35.4805 C   0  0  0  0  0  0  0  0  0  0  0  0
 36 33  2  0  0  0
 36 35  1  0  0  0
 33 32  1  0  0  0
 35 34  2  0  0  0
 32 31  2  0  0  0
 34 31  1  0  0  0
 34 27  1  0  0  0
 26 27  1  0  0  0
 26 24  1  0  0  0
 31 37  1  0  0  0
 27 28  1  0  0  0
 24 10  1  0  0  0
 37 38  1  0  0  0
 10  9  2  0  0  0
 10  7  1  0  0  0
 23 22  3  0  0  0
  9  1  1  0  0  0
  6  7  1  0  0  0
  6  4  2  0  0  0
 22 21  1  0  0  0
  7  3  1  0  0  0
 15 16  2  0  0  0
 15 14  1  0  0  0
 13 21  1  0  0  0
 13 14  1  0  0  0
 13 11  1  0  0  0
 16 17  1  0  0  0
  4 11  1  0  0  0
  4  5  1  0  0  0
  1  2  1  0  0  0
  1  8  2  0  0  0
 14 19  2  0  0  0
  3  8  1  0  0  0
  3  5  2  0  0  0
 17 18  2  0  0  0
 19 18  1  0  0  0
 18 20  1  0  0  0
 11 12  1  0  0  0
 24 25  1  0  0  0
 28 29  1  0  0  0
 28 30  1  0  0  0
M  END
> <minimizedAffinity>
-8.65167

$$$$
