3RV4_ADP_A_1000
  RCSB PDB12061710383D
Coordinates from PDB:3RV4:A:1000 Model:1 without hydrogens
 27 29  0  0  0  0            999 V2000
  -25.8210  -17.1690   16.6290   P 0  0  0  0  0  0  0  0  0  0  0  0
  -26.2940  -18.5550   16.3250   O 0  0  0  0  0  0  0  0  0  0  0  0
  -25.5960  -16.9540   18.0990   O 0  0  0  0  0  0  0  0  0  0  0  0
  -24.7550  -16.6770   15.6670   O 0  0  0  0  0  0  0  0  0  0  0  0
  -27.2110  -14.7160   15.9790   P 0  0  0  0  0  0  0  0  0  0  0  0
  -28.1620  -14.1030   16.9750   O 0  0  0  0  0  0  0  0  0  0  0  0
  -25.8670  -14.0610   15.7880   O 0  0  0  0  0  0  0  0  0  0  0  0
  -27.1350  -16.2750   16.3450   O 0  0  0  0  0  0  0  0  0  0  0  0
  -27.9360  -14.7840   14.5520   O 0  0  0  0  0  0  0  0  0  0  0  0
  -27.2840  -15.4650   13.4850   C 0  0  0  0  0  0  0  0  0  0  0  0
  -27.9410  -15.1000   12.1690   C 0  0  0  0  0  0  0  0  0  0  0  0
  -29.3320  -15.4300   12.2290   O 0  0  0  0  0  0  0  0  0  0  0  0
  -27.8880  -13.6110   11.8620   C 0  0  0  0  0  0  0  0  0  0  0  0
  -26.6900  -13.2580   11.1790   O 0  0  0  0  0  0  0  0  0  0  0  0
  -29.1040  -13.4400   10.9840   C 0  0  0  0  0  0  0  0  0  0  0  0
  -28.8070  -13.7880    9.6120   O 0  0  0  0  0  0  0  0  0  0  0  0
  -30.1040  -14.4330   11.5530   C 0  0  0  0  0  0  0  0  0  0  0  0
  -30.9360  -13.6530   12.5070   N 0  0  0  0  0  0  0  0  0  0  0  0
  -30.7600  -13.5570   13.8340   C 0  0  0  0  0  0  0  0  0  0  0  0
  -31.6700  -12.7450   14.4060   N 0  0  0  0  0  0  0  0  0  0  0  0
  -32.4450  -12.2800   13.4170   C 0  0  0  0  0  0  0  0  0  0  0  0
  -33.5970  -11.3620   13.3300   C 0  0  0  0  0  0  0  0  0  0  0  0
  -34.0910  -10.7560   14.4460   N 0  0  0  0  0  0  0  0  0  0  0  0
  -34.1230  -11.1390   12.1050   N 0  0  0  0  0  0  0  0  0  0  0  0
  -33.6310  -11.7320   10.9940   C 0  0  0  0  0  0  0  0  0  0  0  0
  -32.5810  -12.5760   11.0060   N 0  0  0  0  0  0  0  0  0  0  0  0
  -31.9540  -12.8740   12.1680   C 0  0  0  0  0  0  0  0  0  0  0  0
  1  2  2  0  0  0  0
  1  3  1  0  0  0  0
  1  4  1  0  0  0  0
  1  8  1  0  0  0  0
  5  6  2  0  0  0  0
  5  7  1  0  0  0  0
  5  8  1  0  0  0  0
  5  9  1  0  0  0  0
  9 10  1  0  0  0  0
 10 11  1  0  0  0  0
 11 12  1  0  0  0  0
 11 13  1  0  0  0  0
 12 17  1  0  0  0  0
 13 14  1  0  0  0  0
 13 15  1  0  0  0  0
 15 16  1  0  0  0  0
 15 17  1  0  0  0  0
 17 18  1  0  0  0  0
 18 19  1  0  0  0  0
 18 27  1  0  0  0  0
 19 20  2  0  0  0  0
 20 21  1  0  0  0  0
 21 22  1  0  0  0  0
 21 27  2  0  0  0  0
 22 23  1  0  0  0  0
 22 24  2  0  0  0  0
 24 25  1  0  0  0  0
 25 26  2  0  0  0  0
 26 27  1  0  0  0  0
A    1
PB
A    2
O1B
A    3
O2B
A    4
O3B
A    5
PA
A    6
O1A
A    7
O2A
A    8
O3A
A    9
O5'
A   10
C5'
A   11
C4'
A   12
O4'
A   13
C3'
A   14
O3'
A   15
C2'
A   16
O2'
A   17
C1'
A   18
N9
A   19
C8
A   20
N7
A   21
C5
A   22
C6
A   23
N6
A   24
N1
A   25
C2
A   26
N3
A   27
C4
M  END
>  <InstanceId>
3RV4_ADP_A_1000

>  <ChemCompId>
ADP

>  <PdbId>
3RV4

>  <ChainId>
A

>  <ResidueNumber>
1000

>  <InsertionCode>


>  <Model>
1

>  <AltIds>


>  <MissingHeavyAtoms>
0

>  <ObservedFormula>
C10 N5 O10 P2

>  <Name>
ADENOSINE-5'-DIPHOSPHATE

>  <SystematicName>
[(2R,3S,4R,5R)-5-(6-aminopurin-9-yl)-3,4-dihydroxy-oxolan-2-yl]methyl phosphono hydrogen phosphate

>  <Synonyms>


>  <Type>
NON-POLYMER

>  <Formula>
C10 H15 N5 O10 P2

>  <MolecularWeight>
427.201

>  <ModifiedDate>
2011-06-04

>  <Parent>
A

>  <OneLetterCode>


>  <SubcomponentList>


>  <AmbiguousFlag>
N

>  <InChI>
InChI=1S/C10H15N5O10P2/c11-8-5-9(13-2-12-8)15(3-14-5)10-7(17)6(16)4(24-10)1-23-27(21,22)25-26(18,19)20/h2-4,6-7,10,16-17H,1H2,(H,21,22)(H2,11,12,13)(H2,18,19,20)/t4-,6-,7-,10-/m1/s1

>  <InChIKey>
XTWYTFMLZFPYCI-KQYNXXCUSA-N

>  <SMILES>
c1nc(c2c(n1)n(cn2)[C@H]3[C@@H]([C@@H]([C@H](O3)CO[P@](=O)(O)OP(=O)(O)O)O)O)N

$$$$
