5ORH_A4N_A_401
  RCSB PDB02231823433D
Coordinates from PDB:5ORH:A:401 Model:1 without hydrogens
 16 17  0  0  0  0            999 V2000
   15.9240  155.8100  380.2020  Cl 0  0  0  0  0  0  0  0  0  0  0  0
   17.3930  155.3050  379.4320   C 0  0  0  0  0  0  0  0  0  0  0  0
   18.0460  156.2080  378.6180   C 0  0  0  0  0  0  0  0  0  0  0  0
   19.2230  155.8510  377.9750   C 0  0  0  0  0  0  0  0  0  0  0  0
   19.9280  156.8240  377.0630   C 0  0  0  0  0  0  0  0  0  0  0  0
   20.4500  158.0050  377.7410   N 0  0  0  0  0  0  0  0  0  0  0  0
   19.7250  154.5770  378.1810   C 0  0  0  0  0  0  0  0  0  0  0  0
   19.0710  153.6720  378.9980   C 0  0  0  0  0  0  0  0  0  0  0  0
   17.8830  154.0170  379.6380   C 0  0  0  0  0  0  0  0  0  0  0  0
   17.1800  153.0040  380.4810   C 0  0  0  0  0  0  0  0  0  0  0  0
   17.6310  152.6680  381.7710   C 0  0  0  0  0  0  0  0  0  0  0  0
   18.8440  153.3120  382.3870   C 0  0  0  0  0  0  0  0  0  0  0  0
   16.0460  152.3810  379.9620   C 0  0  0  0  0  0  0  0  0  0  0  0
   15.3610  151.4340  380.7010   C 0  0  0  0  0  0  0  0  0  0  0  0
   15.7950  151.1000  381.9580   C 0  0  0  0  0  0  0  0  0  0  0  0
   16.9170  151.7090  382.4870   C 0  0  0  0  0  0  0  0  0  0  0  0
 16 15  2  0  0  0  0
 16 11  1  0  0  0  0
 12 11  1  0  0  0  0
 15 14  1  0  0  0  0
 11 10  2  0  0  0  0
 14 13  2  0  0  0  0
 10 13  1  0  0  0  0
 10  9  1  0  0  0  0
  1  2  1  0  0  0  0
  9  2  2  0  0  0  0
  9  8  1  0  0  0  0
  2  3  1  0  0  0  0
  8  7  2  0  0  0  0
  3  4  2  0  0  0  0
  7  4  1  0  0  0  0
  4  5  1  0  0  0  0
  6  5  1  0  0  0  0
A    1
CL
A    2
C13
A    3
C12
A    4
C10
A    5
C11
A    6
N
A    7
C9
A    8
C8
A    9
C7
A   10
C6
A   11
C1
A   12
C
A   13
C5
A   14
C4
A   15
C3
A   16
C2
M  END
>  <InstanceId>
5ORH_A4N_A_401

>  <ChemCompId>
A4N

>  <PdbId>
5ORH

>  <ChainId>
A

>  <ResidueNumber>
401

>  <InsertionCode>


>  <Model>
1

>  <AltIds>


>  <MissingHeavyAtoms>
0

>  <ObservedFormula>
C14 N Cl

>  <Name>
[3-chloranyl-4-(2-methylphenyl)phenyl]methanamine

>  <SystematicName>
[3-chloranyl-4-(2-methylphenyl)phenyl]methanamine

>  <Synonyms>


>  <Type>
NON-POLYMER

>  <Formula>
C14 H14 Cl N

>  <MolecularWeight>
231.721

>  <ModifiedDate>
2018-02-23

>  <Parent>


>  <OneLetterCode>


>  <SubcomponentList>


>  <AmbiguousFlag>
N

>  <InChI>
InChI=1S/C14H14ClN/c1-10-4-2-3-5-12(10)13-7-6-11(9-16)8-14(13)15/h2-8H,9,16H2,1H3

>  <InChIKey>
KEDHDUMTTSHKCU-UHFFFAOYSA-N

>  <SMILES>
Cc1ccccc1c2ccc(cc2Cl)CN

$$$$
