4BR3_U85_A_1458


 35 39  0  0  0  0  0  0  0  0999 V2000
  -11.3395  -17.0079    7.2056 C   0  0  0  0  0  0  0  0  0  0  0  0
  -10.3378  -17.5166    8.0503 C   0  0  0  0  0  0  0  0  0  0  0  0
  -10.6424  -18.1683    9.2433 C   0  0  0  0  0  0  0  0  0  0  0  0
  -12.6747  -17.1841    7.5914 C   0  0  0  0  0  0  0  0  0  0  0  0
  -12.9782  -17.8421    8.7884 C   0  0  0  0  0  0  0  0  0  0  0  0
  -11.9703  -18.3386    9.6237 C   0  0  0  0  0  0  0  0  0  0  0  0
  -10.2726  -14.9600    3.6389 C   0  0  0  0  0  0  0  0  0  0  0  0
  -11.2347  -14.4464    4.5082 C   0  0  0  0  0  0  0  0  0  0  0  0
  -11.5576  -15.1300    5.6684 C   0  0  0  0  0  0  0  0  0  0  0  0
   -9.6467  -16.1618    3.9703 C   0  0  0  0  0  0  0  0  0  0  0  0
   -9.9918  -16.8599    5.1382 C   0  0  0  0  0  0  0  0  0  0  0  0
  -10.9625  -16.3546    6.0085 C   0  0  0  0  0  0  0  0  0  0  0  0
   -9.9149  -14.2411    2.4678 C   0  0  0  0  0  0  0  0  0  0  0  0
   -7.7961  -10.8765    4.0422 C   0  0  0  0  0  0  0  0  0  0  0  0
   -8.8875  -10.6702    3.1905 C   0  0  0  0  0  0  0  0  0  0  0  0
   -9.5943  -11.7517    2.6469 C   0  0  0  0  0  0  0  0  0  0  0  0
   -7.4114  -12.1724    4.3496 C   0  0  0  0  0  0  0  0  0  0  0  0
   -8.0892  -13.2751    3.8328 C   0  0  0  0  0  0  0  0  0  0  0  0
   -9.1747  -13.0647    2.9561 N   0  0  0  0  0  0  0  0  0  0  0  0
   -6.0032  -10.1368    5.5105 C   0  0  0  0  0  0  0  0  0  0  0  0
   -7.1143   -9.8522    4.5790 N   0  0  0  0  0  0  0  0  0  0  0  0
   -7.5448   -8.4718    4.3265 C   0  0  0  0  0  0  0  0  0  0  0  0
  -12.2663  -18.9914   10.8409 C   0  0  0  0  0  0  0  0  0  0  0  0
  -13.6446  -19.5677   10.8553 N   0  0  0  0  0  0  0  0  0  0  0  0
  -14.6621  -18.8831   11.4258 C   0  0  0  0  0  0  0  0  0  0  0  0
  -14.7009  -17.6989   12.0440 N   0  0  0  0  0  0  0  0  0  0  0  0
  -15.9494  -17.4703   12.4356 C   0  0  0  0  0  0  0  0  0  0  0  0
  -16.6909  -18.5094   12.0607 N   0  0  0  0  0  0  0  0  0  0  0  0
  -15.9065  -19.3929   11.4371 C   0  0  0  0  0  0  0  0  0  0  0  0
  -16.1673  -20.5980   10.8844 C   0  0  0  0  0  0  0  0  0  0  0  0
  -17.4311  -21.0226   10.9447 N   0  0  0  0  0  0  0  0  0  0  0  0
  -15.2091  -21.3443   10.2961 N   0  0  0  0  0  0  0  0  0  0  0  0
  -13.8962  -20.8381   10.2693 C   0  0  0  0  0  0  0  0  0  0  0  0
  -17.6768  -21.8938   10.5576 H   0  0  0  0  0  0  0  0  0  0  0  0
  -18.1178  -20.4646   11.3765 H   0  0  0  0  0  0  0  0  0  0  0  0
 13 19  1  0  0  0
 13  7  1  0  0  0
 16 19  1  0  0  0
 16 15  2  0  0  0
 19 18  2  0  0  0
 15 14  1  0  0  0
  7  8  2  0  0  0
  7 10  1  0  0  0
 18 17  1  0  0  0
 14 17  2  0  0  0
 14 21  1  0  0  0
  8  9  1  0  0  0
 10 11  2  0  0  0
 22 21  1  0  0  0
 21 20  1  0  0  0
  9 12  2  0  0  0
 11 12  1  0  0  0
 12  1  1  0  0  0
  1  2  2  0  0  0
  1  4  1  0  0  0
  2  3  1  0  0  0
  4  5  2  0  0  0
  3  6  2  0  0  0
  5  6  1  0  0  0
  6 23  1  0  0  0
 23 24  1  0  0  0
 24 33  1  0  0  0
 24 25  1  0  0  0
 33 32  2  0  0  0
 26 25  2  0  0  0
 26 27  1  0  0  0
 25 29  1  0  0  0
 27 28  2  0  0  0
 32 30  1  0  0  0
 29 30  2  0  0  0
 29 28  1  0  0  0
 30 31  1  0  0  0
 31 34  1  0  0  0
 31 35  1  0  0  0
M  CHG 1  19   1
M  END
> <minimizedAffinity>
-10.88270

$$$$
4BR3_U85_A_1458


 35 39  0  0  0  0  0  0  0  0999 V2000
  -11.3121  -17.0506    7.2310 C   0  0  0  0  0  0  0  0  0  0  0  0
  -10.2949  -17.4865    8.0976 C   0  0  0  0  0  0  0  0  0  0  0  0
  -10.5780  -18.1479    9.2906 C   0  0  0  0  0  0  0  0  0  0  0  0
  -12.6398  -17.3108    7.5946 C   0  0  0  0  0  0  0  0  0  0  0  0
  -12.9215  -17.9785    8.7917 C   0  0  0  0  0  0  0  0  0  0  0  0
  -11.8987  -18.4018    9.6489 C   0  0  0  0  0  0  0  0  0  0  0  0
  -10.3108  -14.9602    3.6700 C   0  0  0  0  0  0  0  0  0  0  0  0
  -11.2669  -14.4641    4.5559 C   0  0  0  0  0  0  0  0  0  0  0  0
  -11.5683  -15.1612    5.7139 C   0  0  0  0  0  0  0  0  0  0  0  0
   -9.6689  -16.1586    3.9825 C   0  0  0  0  0  0  0  0  0  0  0  0
   -9.9922  -16.8705    5.1484 C   0  0  0  0  0  0  0  0  0  0  0  0
  -10.9568  -16.3828    6.0353 C   0  0  0  0  0  0  0  0  0  0  0  0
   -9.9751  -14.2273    2.5010 C   0  0  0  0  0  0  0  0  0  0  0  0
   -7.8246  -10.8829    4.0754 C   0  0  0  0  0  0  0  0  0  0  0  0
   -8.9354  -10.6658    3.2518 C   0  0  0  0  0  0  0  0  0  0  0  0
   -9.6532  -11.7403    2.7088 C   0  0  0  0  0  0  0  0  0  0  0  0
   -7.4316  -12.1825    4.3551 C   0  0  0  0  0  0  0  0  0  0  0  0
   -8.1198  -13.2785    3.8380 C   0  0  0  0  0  0  0  0  0  0  0  0
   -9.2252  -13.0570    2.9894 N   0  0  0  0  0  0  0  0  0  0  0  0
   -7.5275   -8.4782    4.2914 C   0  0  0  0  0  0  0  0  0  0  0  0
   -7.1319   -9.8654    4.6112 N   0  0  0  0  0  0  0  0  0  0  0  0
   -5.9318  -10.1361    5.4120 C   0  0  0  0  0  0  0  0  0  0  0  0
  -12.1736  -19.0637   10.8661 C   0  0  0  0  0  0  0  0  0  0  0  0
  -13.5855  -18.8664   11.3132 N   0  0  0  0  0  0  0  0  0  0  0  0
  -14.5105  -19.8274   11.0889 C   0  0  0  0  0  0  0  0  0  0  0  0
  -14.4274  -21.0194   10.4903 N   0  0  0  0  0  0  0  0  0  0  0  0
  -15.6269  -21.5891   10.5204 C   0  0  0  0  0  0  0  0  0  0  0  0
  -16.4587  -20.7551   11.1392 N   0  0  0  0  0  0  0  0  0  0  0  0
  -15.7818  -19.6593   11.4939 C   0  0  0  0  0  0  0  0  0  0  0  0
  -16.1639  -18.5291   12.1283 C   0  0  0  0  0  0  0  0  0  0  0  0
  -17.4458  -18.4514   12.4913 N   0  0  0  0  0  0  0  0  0  0  0  0
  -15.3035  -17.5229   12.3900 N   0  0  0  0  0  0  0  0  0  0  0  0
  -13.9659  -17.6688   11.9775 C   0  0  0  0  0  0  0  0  0  0  0  0
  -17.7779  -17.6500   12.9567 H   0  0  0  0  0  0  0  0  0  0  0  0
  -18.0594  -19.1955   12.2936 H   0  0  0  0  0  0  0  0  0  0  0  0
 13 19  1  0  0  0
 13  7  1  0  0  0
 16 19  1  0  0  0
 16 15  2  0  0  0
 19 18  2  0  0  0
 15 14  1  0  0  0
  7  8  2  0  0  0
  7 10  1  0  0  0
 18 17  1  0  0  0
 14 17  2  0  0  0
 14 21  1  0  0  0
  8  9  1  0  0  0
 10 11  2  0  0  0
 22 21  1  0  0  0
 21 20  1  0  0  0
  9 12  2  0  0  0
 11 12  1  0  0  0
 12  1  1  0  0  0
  1  2  2  0  0  0
  1  4  1  0  0  0
  2  3  1  0  0  0
  4  5  2  0  0  0
  3  6  2  0  0  0
  5  6  1  0  0  0
  6 23  1  0  0  0
 23 24  1  0  0  0
 24 33  1  0  0  0
 24 25  1  0  0  0
 33 32  2  0  0  0
 26 25  2  0  0  0
 26 27  1  0  0  0
 25 29  1  0  0  0
 27 28  2  0  0  0
 32 30  1  0  0  0
 29 30  2  0  0  0
 29 28  1  0  0  0
 30 31  1  0  0  0
 31 34  1  0  0  0
 31 35  1  0  0  0
M  CHG 1  19   1
M  END
> <minimizedAffinity>
-10.71098

$$$$
4BR3_U85_A_1458


 35 39  0  0  0  0  0  0  0  0999 V2000
  -11.4859  -17.1403    7.5242 C   0  0  0  0  0  0  0  0  0  0  0  0
  -10.4435  -17.5254    8.3847 C   0  0  0  0  0  0  0  0  0  0  0  0
  -10.6813  -18.2508    9.5501 C   0  0  0  0  0  0  0  0  0  0  0  0
  -12.7912  -17.5186    7.8648 C   0  0  0  0  0  0  0  0  0  0  0  0
  -13.0272  -18.2502    9.0339 C   0  0  0  0  0  0  0  0  0  0  0  0
  -11.9800  -18.6221    9.8856 C   0  0  0  0  0  0  0  0  0  0  0  0
  -10.4927  -15.0096    3.9849 C   0  0  0  0  0  0  0  0  0  0  0  0
   -9.8961  -16.2343    4.2839 C   0  0  0  0  0  0  0  0  0  0  0  0
  -10.2442  -16.9122    5.4402 C   0  0  0  0  0  0  0  0  0  0  0  0
  -11.4436  -14.4969    4.8673 C   0  0  0  0  0  0  0  0  0  0  0  0
  -11.7786  -15.1793    6.0474 C   0  0  0  0  0  0  0  0  0  0  0  0
  -11.1766  -16.4027    6.3571 C   0  0  0  0  0  0  0  0  0  0  0  0
  -10.1630  -14.3321    2.7813 C   0  0  0  0  0  0  0  0  0  0  0  0
   -7.9113  -10.9738    4.1740 C   0  0  0  0  0  0  0  0  0  0  0  0
   -8.8570  -10.7991    3.1570 C   0  0  0  0  0  0  0  0  0  0  0  0
   -9.6014  -11.8819    2.6688 C   0  0  0  0  0  0  0  0  0  0  0  0
   -7.7107  -12.2392    4.7033 C   0  0  0  0  0  0  0  0  0  0  0  0
   -8.4322  -13.3415    4.2485 C   0  0  0  0  0  0  0  0  0  0  0  0
   -9.3685  -13.1670    3.2072 N   0  0  0  0  0  0  0  0  0  0  0  0
   -7.5823   -8.5667    4.2964 C   0  0  0  0  0  0  0  0  0  0  0  0
   -7.1970   -9.9461    4.6596 N   0  0  0  0  0  0  0  0  0  0  0  0
   -5.9853  -10.2022    5.4477 C   0  0  0  0  0  0  0  0  0  0  0  0
  -12.2099  -19.3481   11.0753 C   0  0  0  0  0  0  0  0  0  0  0  0
  -13.1127  -18.6215   12.0182 N   0  0  0  0  0  0  0  0  0  0  0  0
  -12.6112  -17.6816   12.8517 C   0  0  0  0  0  0  0  0  0  0  0  0
  -11.3674  -17.2293   13.0365 N   0  0  0  0  0  0  0  0  0  0  0  0
  -11.3953  -16.2982   13.9834 C   0  0  0  0  0  0  0  0  0  0  0  0
  -12.6557  -16.1670   14.3888 N   0  0  0  0  0  0  0  0  0  0  0  0
  -13.4189  -17.0193   13.6988 C   0  0  0  0  0  0  0  0  0  0  0  0
  -14.7443  -17.2792   13.7395 C   0  0  0  0  0  0  0  0  0  0  0  0
  -15.4654  -16.5733   14.6129 N   0  0  0  0  0  0  0  0  0  0  0  0
  -15.3231  -18.2013   12.9422 N   0  0  0  0  0  0  0  0  0  0  0  0
  -14.5038  -18.9120   12.0454 C   0  0  0  0  0  0  0  0  0  0  0  0
  -16.4360  -16.7224   14.6841 H   0  0  0  0  0  0  0  0  0  0  0  0
  -15.0269  -15.9036   15.1859 H   0  0  0  0  0  0  0  0  0  0  0  0
 13 19  1  0  0  0
 13  7  1  0  0  0
 16 19  1  0  0  0
 16 15  2  0  0  0
 19 18  2  0  0  0
 15 14  1  0  0  0
  7  8  2  0  0  0
  7 10  1  0  0  0
 18 17  1  0  0  0
 14 17  2  0  0  0
 14 21  1  0  0  0
  8  9  1  0  0  0
 10 11  2  0  0  0
 22 21  1  0  0  0
 21 20  1  0  0  0
  9 12  2  0  0  0
 11 12  1  0  0  0
 12  1  1  0  0  0
  1  2  2  0  0  0
  1  4  1  0  0  0
  2  3  1  0  0  0
  4  5  2  0  0  0
  3  6  2  0  0  0
  5  6  1  0  0  0
  6 23  1  0  0  0
 23 24  1  0  0  0
 24 33  1  0  0  0
 24 25  1  0  0  0
 33 32  2  0  0  0
 26 25  2  0  0  0
 26 27  1  0  0  0
 25 29  1  0  0  0
 27 28  2  0  0  0
 32 30  1  0  0  0
 29 30  2  0  0  0
 29 28  1  0  0  0
 30 31  1  0  0  0
 31 34  1  0  0  0
 31 35  1  0  0  0
M  CHG 1  19   1
M  END
> <minimizedAffinity>
-10.18921

$$$$
4BR3_U85_A_1458


 35 39  0  0  0  0  0  0  0  0999 V2000
  -12.4149  -16.2151    6.9415 C   0  0  0  0  0  0  0  0  0  0  0  0
  -12.1228  -17.4709    7.5012 C   0  0  0  0  0  0  0  0  0  0  0  0
  -12.8119  -17.9613    8.6082 C   0  0  0  0  0  0  0  0  0  0  0  0
  -13.4402  -15.4594    7.5250 C   0  0  0  0  0  0  0  0  0  0  0  0
  -14.1332  -15.9556    8.6347 C   0  0  0  0  0  0  0  0  0  0  0  0
  -13.8278  -17.2057    9.1861 C   0  0  0  0  0  0  0  0  0  0  0  0
  -10.2470  -14.7940    3.5750 C   0  0  0  0  0  0  0  0  0  0  0  0
  -11.2411  -14.0211    4.1745 C   0  0  0  0  0  0  0  0  0  0  0  0
  -11.9268  -14.5048    5.2761 C   0  0  0  0  0  0  0  0  0  0  0  0
   -9.9605  -16.0484    4.1137 C   0  0  0  0  0  0  0  0  0  0  0  0
  -10.6720  -16.5414    5.2189 C   0  0  0  0  0  0  0  0  0  0  0  0
  -11.6762  -15.7748    5.8180 C   0  0  0  0  0  0  0  0  0  0  0  0
   -9.5186  -14.2833    2.4682 C   0  0  0  0  0  0  0  0  0  0  0  0
   -7.7057  -10.7586    4.0737 C   0  0  0  0  0  0  0  0  0  0  0  0
   -8.8013  -10.6414    3.2105 C   0  0  0  0  0  0  0  0  0  0  0  0
   -9.4092  -11.7765    2.6566 C   0  0  0  0  0  0  0  0  0  0  0  0
   -7.2173  -12.0187    4.3824 C   0  0  0  0  0  0  0  0  0  0  0  0
   -7.7949  -13.1725    3.8556 C   0  0  0  0  0  0  0  0  0  0  0  0
   -8.8847  -13.0508    2.9674 N   0  0  0  0  0  0  0  0  0  0  0  0
   -7.6017   -8.3350    4.2553 C   0  0  0  0  0  0  0  0  0  0  0  0
   -7.1179   -9.6826    4.6204 N   0  0  0  0  0  0  0  0  0  0  0  0
   -5.9398   -9.8476    5.4803 C   0  0  0  0  0  0  0  0  0  0  0  0
  -14.5121  -17.7089   10.3149 C   0  0  0  0  0  0  0  0  0  0  0  0
  -13.6468  -17.7481   11.5322 N   0  0  0  0  0  0  0  0  0  0  0  0
  -13.4725  -18.9081   12.2056 C   0  0  0  0  0  0  0  0  0  0  0  0
  -13.9600  -20.1358   12.0033 N   0  0  0  0  0  0  0  0  0  0  0  0
  -13.4903  -20.9362   12.9536 C   0  0  0  0  0  0  0  0  0  0  0  0
  -12.7081  -20.2101   13.7481 N   0  0  0  0  0  0  0  0  0  0  0  0
  -12.6903  -18.9521   13.2987 C   0  0  0  0  0  0  0  0  0  0  0  0
  -12.0659  -17.8420   13.7500 C   0  0  0  0  0  0  0  0  0  0  0  0
  -11.3120  -17.9823   14.8422 N   0  0  0  0  0  0  0  0  0  0  0  0
  -12.1878  -16.6463   13.1365 N   0  0  0  0  0  0  0  0  0  0  0  0
  -13.0007  -16.5678   11.9903 C   0  0  0  0  0  0  0  0  0  0  0  0
  -10.8346  -17.2056   15.2139 H   0  0  0  0  0  0  0  0  0  0  0  0
  -11.2332  -18.8624   15.2763 H   0  0  0  0  0  0  0  0  0  0  0  0
 13 19  1  0  0  0
 13  7  1  0  0  0
 16 19  1  0  0  0
 16 15  2  0  0  0
 19 18  2  0  0  0
 15 14  1  0  0  0
  7  8  2  0  0  0
  7 10  1  0  0  0
 18 17  1  0  0  0
 14 17  2  0  0  0
 14 21  1  0  0  0
  8  9  1  0  0  0
 10 11  2  0  0  0
 22 21  1  0  0  0
 21 20  1  0  0  0
  9 12  2  0  0  0
 11 12  1  0  0  0
 12  1  1  0  0  0
  1  2  2  0  0  0
  1  4  1  0  0  0
  2  3  1  0  0  0
  4  5  2  0  0  0
  3  6  2  0  0  0
  5  6  1  0  0  0
  6 23  1  0  0  0
 23 24  1  0  0  0
 24 33  1  0  0  0
 24 25  1  0  0  0
 33 32  2  0  0  0
 26 25  2  0  0  0
 26 27  1  0  0  0
 25 29  1  0  0  0
 27 28  2  0  0  0
 32 30  1  0  0  0
 29 30  2  0  0  0
 29 28  1  0  0  0
 30 31  1  0  0  0
 31 34  1  0  0  0
 31 35  1  0  0  0
M  CHG 1  19   1
M  END
> <minimizedAffinity>
-9.98336

$$$$
4BR3_U85_A_1458


 35 39  0  0  0  0  0  0  0  0999 V2000
  -11.7537  -16.8132    7.3281 C   0  0  0  0  0  0  0  0  0  0  0  0
  -12.6506  -15.8021    6.9424 C   0  0  0  0  0  0  0  0  0  0  0  0
  -12.3846  -14.9519    5.8713 C   0  0  0  0  0  0  0  0  0  0  0  0
  -10.5709  -16.9568    6.5913 C   0  0  0  0  0  0  0  0  0  0  0  0
  -10.3076  -16.1040    5.5137 C   0  0  0  0  0  0  0  0  0  0  0  0
  -11.2069  -15.0967    5.1439 C   0  0  0  0  0  0  0  0  0  0  0  0
  -12.8453  -19.3152   10.5841 C   0  0  0  0  0  0  0  0  0  0  0  0
  -13.7756  -18.9424    9.6143 C   0  0  0  0  0  0  0  0  0  0  0  0
  -13.3913  -18.1328    8.5585 C   0  0  0  0  0  0  0  0  0  0  0  0
  -11.5319  -18.8626   10.4585 C   0  0  0  0  0  0  0  0  0  0  0  0
  -11.1526  -18.0266    9.3965 C   0  0  0  0  0  0  0  0  0  0  0  0
  -12.0833  -17.6418    8.4267 C   0  0  0  0  0  0  0  0  0  0  0  0
  -13.2301  -20.1752   11.6465 C   0  0  0  0  0  0  0  0  0  0  0  0
  -13.1651  -17.8497   15.2348 C   0  0  0  0  0  0  0  0  0  0  0  0
  -14.1418  -17.5976   14.2644 C   0  0  0  0  0  0  0  0  0  0  0  0
  -14.1819  -18.3327   13.0717 C   0  0  0  0  0  0  0  0  0  0  0  0
  -12.2244  -18.8424   15.0081 C   0  0  0  0  0  0  0  0  0  0  0  0
  -12.2312  -19.5982   13.8372 C   0  0  0  0  0  0  0  0  0  0  0  0
  -13.2027  -19.3266   12.8504 N   0  0  0  0  0  0  0  0  0  0  0  0
  -12.0667  -16.1405   16.5726 C   0  0  0  0  0  0  0  0  0  0  0  0
  -13.1183  -17.1617   16.3866 N   0  0  0  0  0  0  0  0  0  0  0  0
  -14.0324  -17.5034   17.4831 C   0  0  0  0  0  0  0  0  0  0  0  0
  -10.9433  -14.2218    4.0667 C   0  0  0  0  0  0  0  0  0  0  0  0
   -9.7304  -13.3817    4.3016 N   0  0  0  0  0  0  0  0  0  0  0  0
   -9.7072  -12.4900    5.3184 C   0  0  0  0  0  0  0  0  0  0  0  0
  -10.6228  -12.1623    6.2350 N   0  0  0  0  0  0  0  0  0  0  0  0
  -10.1139  -11.2178    7.0181 C   0  0  0  0  0  0  0  0  0  0  0  0
   -8.8806  -10.9566    6.5929 N   0  0  0  0  0  0  0  0  0  0  0  0
   -8.6166  -11.7348    5.5394 C   0  0  0  0  0  0  0  0  0  0  0  0
   -7.5244  -11.8461    4.7517 C   0  0  0  0  0  0  0  0  0  0  0  0
   -6.4911  -11.0548    5.0467 N   0  0  0  0  0  0  0  0  0  0  0  0
   -7.4667  -12.7106    3.7170 N   0  0  0  0  0  0  0  0  0  0  0  0
   -8.5930  -13.5142    3.4595 C   0  0  0  0  0  0  0  0  0  0  0  0
   -5.6700  -11.0948    4.5051 H   0  0  0  0  0  0  0  0  0  0  0  0
   -6.5500  -10.4309    5.8060 H   0  0  0  0  0  0  0  0  0  0  0  0
 13 19  1  0  0  0
 13  7  1  0  0  0
 16 19  1  0  0  0
 16 15  2  0  0  0
 19 18  2  0  0  0
 15 14  1  0  0  0
  7  8  2  0  0  0
  7 10  1  0  0  0
 18 17  1  0  0  0
 14 17  2  0  0  0
 14 21  1  0  0  0
  8  9  1  0  0  0
 10 11  2  0  0  0
 22 21  1  0  0  0
 21 20  1  0  0  0
  9 12  2  0  0  0
 11 12  1  0  0  0
 12  1  1  0  0  0
  1  2  2  0  0  0
  1  4  1  0  0  0
  2  3  1  0  0  0
  4  5  2  0  0  0
  3  6  2  0  0  0
  5  6  1  0  0  0
  6 23  1  0  0  0
 23 24  1  0  0  0
 24 33  1  0  0  0
 24 25  1  0  0  0
 33 32  2  0  0  0
 26 25  2  0  0  0
 26 27  1  0  0  0
 25 29  1  0  0  0
 27 28  2  0  0  0
 32 30  1  0  0  0
 29 30  2  0  0  0
 29 28  1  0  0  0
 30 31  1  0  0  0
 31 34  1  0  0  0
 31 35  1  0  0  0
M  CHG 1  19   1
M  END
> <minimizedAffinity>
-9.72858

$$$$
4BR3_U85_A_1458


 35 39  0  0  0  0  0  0  0  0999 V2000
  -11.5130  -17.8804    9.0238 C   0  0  0  0  0  0  0  0  0  0  0  0
  -12.4171  -17.3746    8.0738 C   0  0  0  0  0  0  0  0  0  0  0  0
  -11.9933  -16.9007    6.8342 C   0  0  0  0  0  0  0  0  0  0  0  0
  -10.1537  -17.9085    8.6857 C   0  0  0  0  0  0  0  0  0  0  0  0
   -9.7309  -17.4352    7.4387 C   0  0  0  0  0  0  0  0  0  0  0  0
  -10.6416  -16.9281    6.5039 C   0  0  0  0  0  0  0  0  0  0  0  0
  -13.0481  -19.1745   12.7684 C   0  0  0  0  0  0  0  0  0  0  0  0
  -13.1906  -17.8532   12.3454 C   0  0  0  0  0  0  0  0  0  0  0  0
  -12.6882  -17.4597   11.1164 C   0  0  0  0  0  0  0  0  0  0  0  0
  -12.4012  -20.0791   11.9264 C   0  0  0  0  0  0  0  0  0  0  0  0
  -11.8773  -19.6702   10.6900 C   0  0  0  0  0  0  0  0  0  0  0  0
  -12.0086  -18.3446   10.2651 C   0  0  0  0  0  0  0  0  0  0  0  0
  -13.5953  -19.5869   14.0121 C   0  0  0  0  0  0  0  0  0  0  0  0
  -10.1106  -20.4174   16.3478 C   0  0  0  0  0  0  0  0  0  0  0  0
  -10.8992  -21.4755   15.8811 C   0  0  0  0  0  0  0  0  0  0  0  0
  -12.0549  -21.2363   15.1250 C   0  0  0  0  0  0  0  0  0  0  0  0
  -10.4826  -19.1143   16.0556 C   0  0  0  0  0  0  0  0  0  0  0  0
  -11.6223  -18.8336   15.3042 C   0  0  0  0  0  0  0  0  0  0  0  0
  -12.4282  -19.9010   14.8545 N   0  0  0  0  0  0  0  0  0  0  0  0
   -8.5544  -22.0167   17.3163 C   0  0  0  0  0  0  0  0  0  0  0  0
   -8.9957  -20.6291   17.0650 N   0  0  0  0  0  0  0  0  0  0  0  0
   -8.2937  -19.4969   17.6814 C   0  0  0  0  0  0  0  0  0  0  0  0
  -10.2228  -16.4349    5.2483 C   0  0  0  0  0  0  0  0  0  0  0  0
   -9.9577  -14.9648    5.2756 N   0  0  0  0  0  0  0  0  0  0  0  0
   -9.8038  -14.2799    4.1194 C   0  0  0  0  0  0  0  0  0  0  0  0
   -9.8305  -14.6731    2.8425 N   0  0  0  0  0  0  0  0  0  0  0  0
   -9.6187  -13.6123    2.0718 C   0  0  0  0  0  0  0  0  0  0  0  0
   -9.4618  -12.5564    2.8659 N   0  0  0  0  0  0  0  0  0  0  0  0
   -9.5710  -12.9555    4.1362 C   0  0  0  0  0  0  0  0  0  0  0  0
   -9.4819  -12.2816    5.3040 C   0  0  0  0  0  0  0  0  0  0  0  0
   -9.2473  -10.9705    5.2214 N   0  0  0  0  0  0  0  0  0  0  0  0
   -9.6229  -12.8902    6.5003 N   0  0  0  0  0  0  0  0  0  0  0  0
   -9.8664  -14.2762    6.5157 C   0  0  0  0  0  0  0  0  0  0  0  0
   -9.1731  -10.4311    6.0417 H   0  0  0  0  0  0  0  0  0  0  0  0
   -9.1485  -10.5426    4.3403 H   0  0  0  0  0  0  0  0  0  0  0  0
 13 19  1  0  0  0
 13  7  1  0  0  0
 16 19  1  0  0  0
 16 15  2  0  0  0
 19 18  2  0  0  0
 15 14  1  0  0  0
  7  8  2  0  0  0
  7 10  1  0  0  0
 18 17  1  0  0  0
 14 17  2  0  0  0
 14 21  1  0  0  0
  8  9  1  0  0  0
 10 11  2  0  0  0
 22 21  1  0  0  0
 21 20  1  0  0  0
  9 12  2  0  0  0
 11 12  1  0  0  0
 12  1  1  0  0  0
  1  2  2  0  0  0
  1  4  1  0  0  0
  2  3  1  0  0  0
  4  5  2  0  0  0
  3  6  2  0  0  0
  5  6  1  0  0  0
  6 23  1  0  0  0
 23 24  1  0  0  0
 24 33  1  0  0  0
 24 25  1  0  0  0
 33 32  2  0  0  0
 26 25  2  0  0  0
 26 27  1  0  0  0
 25 29  1  0  0  0
 27 28  2  0  0  0
 32 30  1  0  0  0
 29 30  2  0  0  0
 29 28  1  0  0  0
 30 31  1  0  0  0
 31 34  1  0  0  0
 31 35  1  0  0  0
M  CHG 1  19   1
M  END
> <minimizedAffinity>
-9.67069

$$$$
4BR3_U85_A_1458


 35 39  0  0  0  0  0  0  0  0999 V2000
  -11.6561  -17.6223    8.8253 C   0  0  0  0  0  0  0  0  0  0  0  0
  -12.9313  -18.1904    8.9886 C   0  0  0  0  0  0  0  0  0  0  0  0
  -13.3357  -18.7562   10.1956 C   0  0  0  0  0  0  0  0  0  0  0  0
  -10.7898  -17.6276    9.9264 C   0  0  0  0  0  0  0  0  0  0  0  0
  -11.1996  -18.1933   11.1388 C   0  0  0  0  0  0  0  0  0  0  0  0
  -12.4707  -18.7615   11.2859 C   0  0  0  0  0  0  0  0  0  0  0  0
  -10.7004  -15.8892    5.0655 C   0  0  0  0  0  0  0  0  0  0  0  0
  -11.9081  -15.6104    5.7049 C   0  0  0  0  0  0  0  0  0  0  0  0
  -12.1910  -16.1822    6.9341 C   0  0  0  0  0  0  0  0  0  0  0  0
   -9.7934  -16.7423    5.6941 C   0  0  0  0  0  0  0  0  0  0  0  0
  -10.0937  -17.3339    6.9312 C   0  0  0  0  0  0  0  0  0  0  0  0
  -11.3070  -17.0657    7.5722 C   0  0  0  0  0  0  0  0  0  0  0  0
  -10.3943  -15.2743    3.8227 C   0  0  0  0  0  0  0  0  0  0  0  0
   -8.1943  -11.7632    4.8811 C   0  0  0  0  0  0  0  0  0  0  0  0
   -9.3554  -12.0923    5.5902 C   0  0  0  0  0  0  0  0  0  0  0  0
  -10.1065  -13.2285    5.2592 C   0  0  0  0  0  0  0  0  0  0  0  0
   -7.7849  -12.5764    3.8356 C   0  0  0  0  0  0  0  0  0  0  0  0
   -8.5012  -13.7167    3.4766 C   0  0  0  0  0  0  0  0  0  0  0  0
   -9.6840  -14.0336    4.1780 N   0  0  0  0  0  0  0  0  0  0  0  0
   -7.7223   -9.4085    4.4939 C   0  0  0  0  0  0  0  0  0  0  0  0
   -7.4582  -10.6842    5.1911 N   0  0  0  0  0  0  0  0  0  0  0  0
   -6.3355  -10.8066    6.1288 C   0  0  0  0  0  0  0  0  0  0  0  0
  -12.8881  -19.3477   12.5015 C   0  0  0  0  0  0  0  0  0  0  0  0
  -12.7165  -18.4258   13.6646 N   0  0  0  0  0  0  0  0  0  0  0  0
  -12.1220  -18.8640   14.7977 C   0  0  0  0  0  0  0  0  0  0  0  0
  -11.6184  -20.0552   15.1345 N   0  0  0  0  0  0  0  0  0  0  0  0
  -11.1465  -19.9767   16.3736 C   0  0  0  0  0  0  0  0  0  0  0  0
  -11.3529  -18.7371   16.8105 N   0  0  0  0  0  0  0  0  0  0  0  0
  -11.9587  -18.0381   15.8465 C   0  0  0  0  0  0  0  0  0  0  0  0
  -12.3865  -16.7575   15.7940 C   0  0  0  0  0  0  0  0  0  0  0  0
  -12.1824  -16.0138   16.8832 N   0  0  0  0  0  0  0  0  0  0  0  0
  -12.9893  -16.2427   14.7019 N   0  0  0  0  0  0  0  0  0  0  0  0
  -13.1755  -17.0828   13.5882 C   0  0  0  0  0  0  0  0  0  0  0  0
  -12.4744  -15.0738   16.8992 H   0  0  0  0  0  0  0  0  0  0  0  0
  -11.7398  -16.4053   17.6707 H   0  0  0  0  0  0  0  0  0  0  0  0
 13 19  1  0  0  0
 13  7  1  0  0  0
 16 19  1  0  0  0
 16 15  2  0  0  0
 19 18  2  0  0  0
 15 14  1  0  0  0
  7  8  2  0  0  0
  7 10  1  0  0  0
 18 17  1  0  0  0
 14 17  2  0  0  0
 14 21  1  0  0  0
  8  9  1  0  0  0
 10 11  2  0  0  0
 22 21  1  0  0  0
 21 20  1  0  0  0
  9 12  2  0  0  0
 11 12  1  0  0  0
 12  1  1  0  0  0
  1  2  2  0  0  0
  1  4  1  0  0  0
  2  3  1  0  0  0
  4  5  2  0  0  0
  3  6  2  0  0  0
  5  6  1  0  0  0
  6 23  1  0  0  0
 23 24  1  0  0  0
 24 33  1  0  0  0
 24 25  1  0  0  0
 33 32  2  0  0  0
 26 25  2  0  0  0
 26 27  1  0  0  0
 25 29  1  0  0  0
 27 28  2  0  0  0
 32 30  1  0  0  0
 29 30  2  0  0  0
 29 28  1  0  0  0
 30 31  1  0  0  0
 31 34  1  0  0  0
 31 35  1  0  0  0
M  CHG 1  19   1
M  END
> <minimizedAffinity>
-9.31852

$$$$
4BR3_U85_A_1458


 35 39  0  0  0  0  0  0  0  0999 V2000
  -13.0295  -16.8014    8.0430 C   0  0  0  0  0  0  0  0  0  0  0  0
  -13.3587  -18.1576    8.2104 C   0  0  0  0  0  0  0  0  0  0  0  0
  -14.1281  -18.6009    9.2837 C   0  0  0  0  0  0  0  0  0  0  0  0
  -13.5106  -15.8880    8.9902 C   0  0  0  0  0  0  0  0  0  0  0  0
  -14.2862  -16.3353   10.0655 C   0  0  0  0  0  0  0  0  0  0  0  0
  -14.6015  -17.6901   10.2236 C   0  0  0  0  0  0  0  0  0  0  0  0
  -10.7246  -15.5529    4.6991 C   0  0  0  0  0  0  0  0  0  0  0  0
  -11.8141  -14.8061    5.1465 C   0  0  0  0  0  0  0  0  0  0  0  0
  -12.5434  -15.2313    6.2443 C   0  0  0  0  0  0  0  0  0  0  0  0
  -10.3890  -16.7208    5.3842 C   0  0  0  0  0  0  0  0  0  0  0  0
  -11.1435  -17.1569    6.4847 C   0  0  0  0  0  0  0  0  0  0  0  0
  -12.2426  -16.4172    6.9316 C   0  0  0  0  0  0  0  0  0  0  0  0
   -9.9543  -15.0981    3.5963 C   0  0  0  0  0  0  0  0  0  0  0  0
   -7.8546  -11.6341    4.9673 C   0  0  0  0  0  0  0  0  0  0  0  0
   -8.7389  -12.2934    5.8290 C   0  0  0  0  0  0  0  0  0  0  0  0
   -9.4526  -13.4231    5.4058 C   0  0  0  0  0  0  0  0  0  0  0  0
   -7.6856  -12.1090    3.6759 C   0  0  0  0  0  0  0  0  0  0  0  0
   -8.3735  -13.2308    3.2169 C   0  0  0  0  0  0  0  0  0  0  0  0
   -9.2817  -13.8800    4.0800 N   0  0  0  0  0  0  0  0  0  0  0  0
   -7.4493   -9.2459    4.7438 C   0  0  0  0  0  0  0  0  0  0  0  0
   -7.1562  -10.5568    5.3595 N   0  0  0  0  0  0  0  0  0  0  0  0
   -6.0435  -10.7079    6.3049 C   0  0  0  0  0  0  0  0  0  0  0  0
  -15.3717  -18.1531   11.3135 C   0  0  0  0  0  0  0  0  0  0  0  0
  -14.6994  -19.2643   12.0521 N   0  0  0  0  0  0  0  0  0  0  0  0
  -15.1935  -20.5216   11.9858 C   0  0  0  0  0  0  0  0  0  0  0  0
  -16.2556  -21.0276   11.3519 N   0  0  0  0  0  0  0  0  0  0  0  0
  -16.3163  -22.3297   11.6074 C   0  0  0  0  0  0  0  0  0  0  0  0
  -15.2919  -22.6380   12.3984 N   0  0  0  0  0  0  0  0  0  0  0  0
  -14.5901  -21.5278   12.6432 C   0  0  0  0  0  0  0  0  0  0  0  0
  -13.4830  -21.3062   13.3854 C   0  0  0  0  0  0  0  0  0  0  0  0
  -12.9550  -22.3650   14.0026 N   0  0  0  0  0  0  0  0  0  0  0  0
  -12.9274  -20.0820   13.5039 N   0  0  0  0  0  0  0  0  0  0  0  0
  -13.5366  -19.0081   12.8284 C   0  0  0  0  0  0  0  0  0  0  0  0
  -12.1478  -22.2601   14.5565 H   0  0  0  0  0  0  0  0  0  0  0  0
  -13.3726  -23.2511   13.9041 H   0  0  0  0  0  0  0  0  0  0  0  0
 13 19  1  0  0  0
 13  7  1  0  0  0
 16 19  1  0  0  0
 16 15  2  0  0  0
 19 18  2  0  0  0
 15 14  1  0  0  0
  7  8  2  0  0  0
  7 10  1  0  0  0
 18 17  1  0  0  0
 14 17  2  0  0  0
 14 21  1  0  0  0
  8  9  1  0  0  0
 10 11  2  0  0  0
 22 21  1  0  0  0
 21 20  1  0  0  0
  9 12  2  0  0  0
 11 12  1  0  0  0
 12  1  1  0  0  0
  1  2  2  0  0  0
  1  4  1  0  0  0
  2  3  1  0  0  0
  4  5  2  0  0  0
  3  6  2  0  0  0
  5  6  1  0  0  0
  6 23  1  0  0  0
 23 24  1  0  0  0
 24 33  1  0  0  0
 24 25  1  0  0  0
 33 32  2  0  0  0
 26 25  2  0  0  0
 26 27  1  0  0  0
 25 29  1  0  0  0
 27 28  2  0  0  0
 32 30  1  0  0  0
 29 30  2  0  0  0
 29 28  1  0  0  0
 30 31  1  0  0  0
 31 34  1  0  0  0
 31 35  1  0  0  0
M  CHG 1  19   1
M  END
> <minimizedAffinity>
-9.30568

$$$$
4BR3_U85_A_1458


 35 39  0  0  0  0  0  0  0  0999 V2000
  -12.0102  -16.0917    6.4798 C   0  0  0  0  0  0  0  0  0  0  0  0
  -10.8882  -16.8829    6.1786 C   0  0  0  0  0  0  0  0  0  0  0  0
   -9.9809  -16.5246    5.1840 C   0  0  0  0  0  0  0  0  0  0  0  0
  -12.1926  -14.9082    5.7527 C   0  0  0  0  0  0  0  0  0  0  0  0
  -11.2780  -14.5487    4.7566 C   0  0  0  0  0  0  0  0  0  0  0  0
  -10.1677  -15.3493    4.4624 C   0  0  0  0  0  0  0  0  0  0  0  0
  -14.6216  -17.4605    9.5392 C   0  0  0  0  0  0  0  0  0  0  0  0
  -13.7728  -18.3386    8.8658 C   0  0  0  0  0  0  0  0  0  0  0  0
  -12.9254  -17.8647    7.8784 C   0  0  0  0  0  0  0  0  0  0  0  0
  -14.5879  -16.1077    9.2008 C   0  0  0  0  0  0  0  0  0  0  0  0
  -13.7405  -15.6362    8.1859 C   0  0  0  0  0  0  0  0  0  0  0  0
  -12.8944  -16.5135    7.5007 C   0  0  0  0  0  0  0  0  0  0  0  0
  -15.4641  -17.9399   10.5769 C   0  0  0  0  0  0  0  0  0  0  0  0
  -12.9239  -19.5198   13.6330 C   0  0  0  0  0  0  0  0  0  0  0  0
  -12.9319  -18.1425   13.3833 C   0  0  0  0  0  0  0  0  0  0  0  0
  -13.7427  -17.5950   12.3795 C   0  0  0  0  0  0  0  0  0  0  0  0
  -13.7316  -20.3514   12.8728 C   0  0  0  0  0  0  0  0  0  0  0  0
  -14.5548  -19.8469   11.8677 C   0  0  0  0  0  0  0  0  0  0  0  0
  -14.5438  -18.4610   11.6025 N   0  0  0  0  0  0  0  0  0  0  0  0
  -11.9989  -21.5272   14.6490 C   0  0  0  0  0  0  0  0  0  0  0  0
  -12.1607  -20.0594   14.5966 N   0  0  0  0  0  0  0  0  0  0  0  0
  -11.5903  -19.2053   15.6453 C   0  0  0  0  0  0  0  0  0  0  0  0
   -9.2469  -15.0021    3.4491 C   0  0  0  0  0  0  0  0  0  0  0  0
   -9.3294  -13.5572    3.0780 N   0  0  0  0  0  0  0  0  0  0  0  0
   -8.7015  -12.6249    3.8304 C   0  0  0  0  0  0  0  0  0  0  0  0
   -7.9646  -12.7268    4.9406 N   0  0  0  0  0  0  0  0  0  0  0  0
   -7.5735  -11.5089    5.2984 C   0  0  0  0  0  0  0  0  0  0  0  0
   -8.0636  -10.6465    4.4117 N   0  0  0  0  0  0  0  0  0  0  0  0
   -8.7664  -11.3232    3.4990 C   0  0  0  0  0  0  0  0  0  0  0  0
   -9.4609  -10.9177    2.4131 C   0  0  0  0  0  0  0  0  0  0  0  0
   -9.4698   -9.6065    2.1644 N   0  0  0  0  0  0  0  0  0  0  0  0
  -10.1152  -11.7834    1.6110 N   0  0  0  0  0  0  0  0  0  0  0  0
  -10.0669  -13.1527    1.9323 C   0  0  0  0  0  0  0  0  0  0  0  0
   -9.9604   -9.2565    1.3859 H   0  0  0  0  0  0  0  0  0  0  0  0
   -8.9858   -8.9893    2.7593 H   0  0  0  0  0  0  0  0  0  0  0  0
 13 19  1  0  0  0
 13  7  1  0  0  0
 16 19  1  0  0  0
 16 15  2  0  0  0
 19 18  2  0  0  0
 15 14  1  0  0  0
  7  8  2  0  0  0
  7 10  1  0  0  0
 18 17  1  0  0  0
 14 17  2  0  0  0
 14 21  1  0  0  0
  8  9  1  0  0  0
 10 11  2  0  0  0
 22 21  1  0  0  0
 21 20  1  0  0  0
  9 12  2  0  0  0
 11 12  1  0  0  0
 12  1  1  0  0  0
  1  2  2  0  0  0
  1  4  1  0  0  0
  2  3  1  0  0  0
  4  5  2  0  0  0
  3  6  2  0  0  0
  5  6  1  0  0  0
  6 23  1  0  0  0
 23 24  1  0  0  0
 24 33  1  0  0  0
 24 25  1  0  0  0
 33 32  2  0  0  0
 26 25  2  0  0  0
 26 27  1  0  0  0
 25 29  1  0  0  0
 27 28  2  0  0  0
 32 30  1  0  0  0
 29 30  2  0  0  0
 29 28  1  0  0  0
 30 31  1  0  0  0
 31 34  1  0  0  0
 31 35  1  0  0  0
M  CHG 1  19   1
M  END
> <minimizedAffinity>
-9.29313

$$$$
4BR3_U85_A_1458


 35 39  0  0  0  0  0  0  0  0999 V2000
  -11.4790  -16.4325    6.5227 C   0  0  0  0  0  0  0  0  0  0  0  0
  -10.3738  -16.9255    5.8078 C   0  0  0  0  0  0  0  0  0  0  0  0
   -9.8479  -16.2502    4.7087 C   0  0  0  0  0  0  0  0  0  0  0  0
  -12.0425  -15.2198    6.1049 C   0  0  0  0  0  0  0  0  0  0  0  0
  -11.5102  -14.5416    5.0028 C   0  0  0  0  0  0  0  0  0  0  0  0
  -10.4127  -15.0471    4.2957 C   0  0  0  0  0  0  0  0  0  0  0  0
  -12.8361  -18.6508    9.8829 C   0  0  0  0  0  0  0  0  0  0  0  0
  -11.4759  -18.4485    9.6506 C   0  0  0  0  0  0  0  0  0  0  0  0
  -11.0608  -17.7143    8.5523 C   0  0  0  0  0  0  0  0  0  0  0  0
  -13.7554  -18.0933    8.9942 C   0  0  0  0  0  0  0  0  0  0  0  0
  -13.3283  -17.3660    7.8721 C   0  0  0  0  0  0  0  0  0  0  0  0
  -11.9657  -17.1683    7.6289 C   0  0  0  0  0  0  0  0  0  0  0  0
  -13.2631  -19.3723   11.0290 C   0  0  0  0  0  0  0  0  0  0  0  0
  -11.6178  -17.3817   14.4376 C   0  0  0  0  0  0  0  0  0  0  0  0
  -11.9389  -16.6428   13.2929 C   0  0  0  0  0  0  0  0  0  0  0  0
  -12.4667  -17.2673   12.1544 C   0  0  0  0  0  0  0  0  0  0  0  0
  -11.8262  -18.7522   14.4405 C   0  0  0  0  0  0  0  0  0  0  0  0
  -12.3520  -19.4111   13.3307 C   0  0  0  0  0  0  0  0  0  0  0  0
  -12.6533  -18.6675   12.1699 N   0  0  0  0  0  0  0  0  0  0  0  0
   -9.7852  -17.2012   16.0270 C   0  0  0  0  0  0  0  0  0  0  0  0
  -11.1205  -16.7981   15.5395 N   0  0  0  0  0  0  0  0  0  0  0  0
  -11.9446  -15.8559   16.3063 C   0  0  0  0  0  0  0  0  0  0  0  0
   -9.8774  -14.3771    3.1733 C   0  0  0  0  0  0  0  0  0  0  0  0
   -9.2024  -13.0971    3.5450 N   0  0  0  0  0  0  0  0  0  0  0  0
   -9.4711  -11.9625    2.8593 C   0  0  0  0  0  0  0  0  0  0  0  0
  -10.2762  -11.7207    1.8205 N   0  0  0  0  0  0  0  0  0  0  0  0
  -10.1834  -10.4330    1.5080 C   0  0  0  0  0  0  0  0  0  0  0  0
   -9.3229   -9.8698    2.3520 N   0  0  0  0  0  0  0  0  0  0  0  0
   -8.8718  -10.8055    3.1922 C   0  0  0  0  0  0  0  0  0  0  0  0
   -7.9880  -10.7507    4.2128 C   0  0  0  0  0  0  0  0  0  0  0  0
   -7.4430   -9.5596    4.4685 N   0  0  0  0  0  0  0  0  0  0  0  0
   -7.6648  -11.8365    4.9460 N   0  0  0  0  0  0  0  0  0  0  0  0
   -8.2747  -13.0626    4.6213 C   0  0  0  0  0  0  0  0  0  0  0  0
   -6.7927   -9.4629    5.2013 H   0  0  0  0  0  0  0  0  0  0  0  0
   -7.6913   -8.7776    3.9244 H   0  0  0  0  0  0  0  0  0  0  0  0
 13 19  1  0  0  0
 13  7  1  0  0  0
 16 19  1  0  0  0
 16 15  2  0  0  0
 19 18  2  0  0  0
 15 14  1  0  0  0
  7  8  2  0  0  0
  7 10  1  0  0  0
 18 17  1  0  0  0
 14 17  2  0  0  0
 14 21  1  0  0  0
  8  9  1  0  0  0
 10 11  2  0  0  0
 22 21  1  0  0  0
 21 20  1  0  0  0
  9 12  2  0  0  0
 11 12  1  0  0  0
 12  1  1  0  0  0
  1  2  2  0  0  0
  1  4  1  0  0  0
  2  3  1  0  0  0
  4  5  2  0  0  0
  3  6  2  0  0  0
  5  6  1  0  0  0
  6 23  1  0  0  0
 23 24  1  0  0  0
 24 33  1  0  0  0
 24 25  1  0  0  0
 33 32  2  0  0  0
 26 25  2  0  0  0
 26 27  1  0  0  0
 25 29  1  0  0  0
 27 28  2  0  0  0
 32 30  1  0  0  0
 29 30  2  0  0  0
 29 28  1  0  0  0
 30 31  1  0  0  0
 31 34  1  0  0  0
 31 35  1  0  0  0
M  CHG 1  19   1
M  END
> <minimizedAffinity>
-9.24346

$$$$
