4XK9_41J_A_301
  RCSB PDB12061716143D
Coordinates from PDB:4XK9:A:301 Model:1 without hydrogens
 50 57  0  0  0  0            999 V2000
   64.4370   -5.6010   25.5190   C 0  0  0  0  0  0  0  0  0  0  0  0
   64.9850   -6.5800   24.8190   C 0  0  0  0  0  0  0  0  0  0  0  0
   72.2060   -5.5210   20.6020   C 0  0  0  0  0  0  0  0  0  0  0  0
   65.8260   -6.3650   23.6210   C 0  0  0  0  0  0  0  0  0  0  0  0
   66.8210   -4.9650   21.7530   C 0  0  0  0  0  0  0  0  0  0  0  0
   66.2730   -7.4560   22.9880   C 0  0  0  0  0  0  0  0  0  0  0  0
   68.0320   -8.6820   21.7200   C 0  0  0  0  0  0  0  0  0  0  0  0
   68.6960  -10.3300   20.2360   C 0  0  0  0  0  0  0  0  0  0  0  0
   69.9900  -10.9880   19.7600   C 0  0  0  0  0  0  0  0  0  0  0  0
   71.2980  -10.3630   20.2430   C 0  0  0  0  0  0  0  0  0  0  0  0
   71.2150   -6.8240   23.3320   C 0  0  0  0  0  0  0  0  0  0  0  0
   76.4270   -8.4050   18.6110   O 0  0  0  0  0  0  0  0  0  0  0  0
   75.3780   -8.4150   17.6360   C 0  0  0  0  0  0  0  0  0  0  0  0
   75.9630   -8.5050   16.2180   C 0  0  0  0  0  0  0  0  0  0  0  0
   74.5950   -7.1160   17.8250   C 0  0  0  0  0  0  0  0  0  0  0  0
   73.2670   -7.0910   17.0670   C 0  0  0  0  0  0  0  0  0  0  0  0
   72.4720   -8.3900   17.2200   C 0  0  0  0  0  0  0  0  0  0  0  0
   73.3190   -9.5350   17.0930   O 0  0  0  0  0  0  0  0  0  0  0  0
   74.4550   -9.5840   17.9620   C 0  0  0  0  0  0  0  0  0  0  0  0
   74.0240   -9.5070   19.3130   O 0  0  0  0  0  0  0  0  0  0  0  0
   75.0910  -10.9680   17.8650   C 0  0  0  0  0  0  0  0  0  0  0  0
   74.6160  -11.7270   19.0960   C 0  0  0  0  0  0  0  0  0  0  0  0
   73.6990  -10.7720   19.8550   C 0  0  0  0  0  0  0  0  0  0  0  0
   72.3260  -11.0650   19.5320   O 0  0  0  0  0  0  0  0  0  0  0  0
   73.9290  -10.8140   21.3580   C 0  0  0  0  0  0  0  0  0  0  0  0
   72.8800   -9.9980   22.0990   C 0  0  0  0  0  0  0  0  0  0  0  0
   71.4880  -10.5130   21.7460   C 0  0  0  0  0  0  0  0  0  0  0  0
   68.3150  -10.9220   21.4630   O 0  0  0  0  0  0  0  0  0  0  0  0
   68.7620   -8.9220   20.5060   O 0  0  0  0  0  0  0  0  0  0  0  0
   67.5880  -10.6360   19.2370   C 0  0  0  0  0  0  0  0  0  0  0  0
   66.2210  -10.1390   19.7030   C 0  0  0  0  0  0  0  0  0  0  0  0
   65.0780  -10.7920   18.9330   C 0  0  0  0  0  0  0  0  0  0  0  0
   66.0370  -10.2860   21.2130   C 0  0  0  0  0  0  0  0  0  0  0  0
   65.5970  -11.6070   21.5100   O 0  0  0  0  0  0  0  0  0  0  0  0
   71.3680   -8.5090   16.1600   C 0  0  0  0  0  0  0  0  0  0  0  0
   70.3410   -7.3990   16.2610   C 0  0  0  0  0  0  0  0  0  0  0  0
   70.0900   -6.6750   15.1890   C 0  0  0  0  0  0  0  0  0  0  0  0
   69.6600   -7.1870   17.5990   C 0  0  0  0  0  0  0  0  0  0  0  0
   68.4240   -6.2970   17.5740   C 0  0  0  0  0  0  0  0  0  0  0  0
   67.6640   -6.3920   18.8930   C 0  0  0  0  0  0  0  0  0  0  0  0
   68.3270   -5.7830   20.1220   C 0  0  0  0  0  0  0  0  0  0  0  0
   69.2540   -4.9570   19.8930   N 0  0  0  0  0  0  0  0  0  0  0  0
   70.1200   -4.1620   20.7530   C 0  0  0  0  0  0  0  0  0  0  0  0
   71.0670   -5.0830   21.5220   C 0  0  0  0  0  0  0  0  0  0  0  0
   70.3800   -6.2820   22.1690   C 0  0  0  0  0  0  0  0  0  0  0  0
   68.9540   -5.9440   22.6250   C 0  0  0  0  0  0  0  0  0  0  0  0
   67.8520   -6.0740   21.5480   C 0  0  0  0  0  0  0  0  0  0  0  0
   66.1580   -4.9730   23.1260   C 0  0  0  0  0  0  0  0  0  0  0  0
   67.1150   -7.4310   21.7180   C 0  0  0  0  0  0  0  0  0  0  0  0
   67.3440  -10.0300   21.9710   C 0  0  0  0  0  0  0  0  0  0  0  0
 37 36  1  0  0  0  0
 35 36  1  0  0  0  0
 35 17  1  0  0  0  0
 14 13  1  0  0  0  0
 36 38  2  0  0  0  0
 16 17  1  0  0  0  0
 16 15  1  0  0  0  0
 18 17  1  0  0  0  0
 18 19  1  0  0  0  0
 39 38  1  0  0  0  0
 39 40  1  0  0  0  0
 13 15  1  0  0  0  0
 13 19  1  0  0  0  0
 13 12  1  0  0  0  0
 21 19  1  0  0  0  0
 21 22  1  0  0  0  0
 19 20  1  0  0  0  0
 40 41  1  0  0  0  0
 32 31  1  0  0  0  0
 22 23  1  0  0  0  0
 30 31  1  0  0  0  0
 30  8  1  0  0  0  0
 20 23  1  0  0  0  0
 24 23  1  0  0  0  0
 24 10  1  0  0  0  0
 31 33  1  0  0  0  0
  9  8  1  0  0  0  0
  9 10  1  0  0  0  0
 23 25  1  0  0  0  0
 42 41  2  0  0  0  0
 42 43  1  0  0  0  0
 41 47  1  0  0  0  0
  8 29  1  0  0  0  0
  8 28  1  0  0  0  0
 10 27  1  0  0  0  0
 29  7  1  0  0  0  0
  3 44  1  0  0  0  0
 43 44  1  0  0  0  0
 33 34  1  0  0  0  0
 33 50  1  0  0  0  0
 25 26  1  0  0  0  0
 28 50  1  0  0  0  0
 44 45  1  0  0  0  0
 47 49  1  0  0  0  0
 47  5  1  0  0  0  0
 47 46  1  0  0  0  0
 49  7  1  0  0  0  0
 49  6  1  0  0  0  0
  7 50  1  0  0  0  0
 27 26  1  0  0  0  0
  5 48  1  0  0  0  0
 45 46  1  0  0  0  0
 45 11  1  0  0  0  0
  6  4  2  0  0  0  0
 48  4  1  0  0  0  0
  4  2  1  0  0  0  0
  2  1  2  0  0  0  0
A    1
C1
A    2
C2
A    3
C6
A    4
C8
A    5
C10
A    6
C13
A    7
C15
A    8
C17
A    9
C18
A   10
C21
A   11
C22
A   12
O52
A   13
C51
A   14
C53
A   15
C50
A   16
C49
A   17
C48
A   18
O47
A   19
C43
A   20
O44
A   21
C42
A   22
C55
A   23
C23
A   24
O48
A   25
C80
A   26
C60
A   27
C81
A   28
O65
A   29
O16
A   30
C64
A   31
C63
A   32
C67
A   33
C62
A   34
O66
A   35
C37
A   36
C36
A   37
C38
A   38
C35
A   39
C34
A   40
C33
A   41
C32
A   42
N31
A   43
C30
A   44
C29
A   45
C46
A   46
C28
A   47
C27
A   48
C9
A   49
C12
A   50
C61
M  END
>  <InstanceId>
4XK9_41J_A_301

>  <ChemCompId>
41J

>  <PdbId>
4XK9

>  <ChainId>
A

>  <ResidueNumber>
301

>  <InsertionCode>


>  <Model>
1

>  <AltIds>


>  <MissingHeavyAtoms>
0

>  <ObservedFormula>
C42 N O7

>  <Name>
Pinnatoxin G

>  <SystematicName>


>  <Synonyms>


>  <Type>
NON-POLYMER

>  <Formula>
C42 H63 N O7

>  <MolecularWeight>
693.952

>  <ModifiedDate>
2015-05-29

>  <Parent>


>  <OneLetterCode>


>  <SubcomponentList>


>  <AmbiguousFlag>
N

>  <InChI>
InChI=1S/C42H63NO7/c1-7-30-13-17-39-22-27(3)29(5)25-43-34(39)12-8-10-26(2)20-31-14-16-38(6,45)42(47-31)19-18-40(50-42)15-9-11-32(46-40)24-41-23-28(4)35(44)37(49-41)36(48-41)33(39)21-30/h7,10,21,27-29,31-33,35-37,44-45H,1,8-9,11-20,22-25H2,2-6H3/b26-10+/t27-,28+,29-,31-,32+,33+,35+,36-,37+,38+,39+,40+,41+,42+/m0/s1

>  <InChIKey>
KOWHOZGQQMALMV-WVYVHXBHSA-N

>  <SMILES>
C[C@H]1C[C@]23CCC(=C[C@@H]2[C@H]4[C@H]5[C@@H]([C@@H](C[C@@](O4)(O5)C[C@H]6CCC[C@]7(O6)CC[C@@]8(O7)[C@](CC[C@H](O8)C/C(=C/CCC3=NC[C@@H]1C)/C)(C)O)C)O)C=C

$$$$
