4XK9_41J_A_301


 52 59  0  0  0  0  0  0  0  0999 V2000
   72.0874   -5.4326   20.6110 C   0  0  0  0  0  0  0  0  0  0  0  0
   65.7523   -6.4123   23.6833 C   0  0  0  0  0  0  0  0  0  0  0  0
   66.7048   -4.9800   21.8176 C   0  0  0  0  0  0  0  0  0  0  0  0
   66.2121   -7.4901   23.0371 C   0  0  0  0  0  0  0  0  0  0  0  0
   67.9798   -8.6749   21.7423 C   0  0  0  0  0  0  0  0  0  0  0  0
   68.6580  -10.2990   20.2385 C   0  0  0  0  0  0  0  0  0  0  0  0
   69.9586  -10.9304   19.7448 C   0  0  0  0  0  0  0  0  0  0  0  0
   71.2602  -10.2866   20.2205 C   0  0  0  0  0  0  0  0  0  0  0  0
   71.1455   -6.7748   23.3394 C   0  0  0  0  0  0  0  0  0  0  0  0
   76.3384   -8.2263   18.5562 O   0  0  0  0  0  0  0  0  0  0  0  0
   75.2804   -8.2467   17.5912 C   0  0  0  0  0  0  0  0  0  0  0  0
   75.8532   -8.3149   16.1670 C   0  0  0  0  0  0  0  0  0  0  0  0
   74.4768   -6.9631   17.7983 C   0  0  0  0  0  0  0  0  0  0  0  0
   73.1414   -6.9551   17.0532 C   0  0  0  0  0  0  0  0  0  0  0  0
   72.3705   -8.2690   17.2030 C   0  0  0  0  0  0  0  0  0  0  0  0
   73.2360   -9.3980   17.0585 O   0  0  0  0  0  0  0  0  0  0  0  0
   74.3810   -9.4342   17.9162 C   0  0  0  0  0  0  0  0  0  0  0  0
   73.9618   -9.3757   19.2718 O   0  0  0  0  0  0  0  0  0  0  0  0
   75.0400  -10.8061   17.8017 C   0  0  0  0  0  0  0  0  0  0  0  0
   74.5901  -11.5832   19.0309 C   0  0  0  0  0  0  0  0  0  0  0  0
   73.6640  -10.6505   19.8064 C   0  0  0  0  0  0  0  0  0  0  0  0
   72.2933  -10.9648   19.4940 O   0  0  0  0  0  0  0  0  0  0  0  0
   73.9092  -10.7007   21.3068 C   0  0  0  0  0  0  0  0  0  0  0  0
   72.8534   -9.9092   22.0644 C   0  0  0  0  0  0  0  0  0  0  0  0
   71.4672  -10.4455   21.7204 C   0  0  0  0  0  0  0  0  0  0  0  0
   68.2992  -10.9075   21.4641 O   0  0  0  0  0  0  0  0  0  0  0  0
   68.7022   -8.8923   20.5195 O   0  0  0  0  0  0  0  0  0  0  0  0
   67.5459  -10.6161   19.2476 C   0  0  0  0  0  0  0  0  0  0  0  0
   66.1751  -10.1469   19.7306 C   0  0  0  0  0  0  0  0  0  0  0  0
   65.0362  -10.8134   18.9661 C   0  0  0  0  0  0  0  0  0  0  0  0
   66.0082  -10.3093   21.2410 C   0  0  0  0  0  0  0  0  0  0  0  0
   65.5941  -11.6401   21.5312 O   0  0  0  0  0  0  0  0  0  0  0  0
   71.2586   -8.3986   16.1526 C   0  0  0  0  0  0  0  0  0  0  0  0
   70.2135   -7.3076   16.2725 C   0  0  0  0  0  0  0  0  0  0  0  0
   69.9397   -6.5794   15.2090 C   0  0  0  0  0  0  0  0  0  0  0  0
   69.5419   -7.1183   17.6186 C   0  0  0  0  0  0  0  0  0  0  0  0
   68.2904   -6.2499   17.6127 C   0  0  0  0  0  0  0  0  0  0  0  0
   67.5449   -6.3688   18.9380 C   0  0  0  0  0  0  0  0  0  0  0  0
   68.2090   -5.7583   20.1657 C   0  0  0  0  0  0  0  0  0  0  0  0
   69.1193   -4.9145   19.9347 N   0  0  0  0  0  0  0  0  0  0  0  0
   69.9796   -4.1115   20.7930 C   0  0  0  0  0  0  0  0  0  0  0  0
   70.9498   -5.0220   21.5454 C   0  0  0  0  0  0  0  0  0  0  0  0
   70.2900   -6.2380   22.1889 C   0  0  0  0  0  0  0  0  0  0  0  0
   68.8628   -5.9287   22.6612 C   0  0  0  0  0  0  0  0  0  0  0  0
   67.7529   -6.0691   21.5937 C   0  0  0  0  0  0  0  0  0  0  0  0
   66.0553   -5.0107   23.1967 C   0  0  0  0  0  0  0  0  0  0  0  0
   67.0413   -7.4401   21.7594 C   0  0  0  0  0  0  0  0  0  0  0  0
   67.3178  -10.0367   21.9887 C   0  0  0  0  0  0  0  0  0  0  0  0
   76.9284   -7.4784   18.3734 H   0  0  0  0  0  0  0  0  0  0  0  0
   66.2736  -12.2632   21.2296 H   0  0  0  0  0  0  0  0  0  0  0  0
   63.9934   -5.8193   25.3173 C   0  0  0  0  0  0  0  0  0  0  0  0
   64.9268   -6.6516   24.8874 C   0  0  0  0  0  0  0  0  0  0  0  0
 35 34  1  0  0  0
 33 34  1  0  0  0
 33 15  1  0  0  0
 12 11  1  0  0  0
 34 36  2  0  0  0
 14 15  1  0  0  0
 14 13  1  0  0  0
 16 15  1  0  0  0
 16 17  1  0  0  0
 37 36  1  0  0  0
 37 38  1  0  0  0
 11 13  1  0  0  0
 11 17  1  0  0  0
 11 10  1  0  0  0
 19 17  1  0  0  0
 19 20  1  0  0  0
 17 18  1  0  0  0
 38 39  1  0  0  0
 30 29  1  0  0  0
 20 21  1  0  0  0
 28 29  1  0  0  0
 28  6  1  0  0  0
 18 21  1  0  0  0
 22 21  1  0  0  0
 22  8  1  0  0  0
 29 31  1  0  0  0
  7  6  1  0  0  0
  7  8  1  0  0  0
 21 23  1  0  0  0
 40 39  2  0  0  0
 40 41  1  0  0  0
 39 45  1  0  0  0
  6 27  1  0  0  0
  6 26  1  0  0  0
  8 25  1  0  0  0
 27  5  1  0  0  0
  1 42  1  0  0  0
 41 42  1  0  0  0
 31 32  1  0  0  0
 31 48  1  0  0  0
 23 24  1  0  0  0
 26 48  1  0  0  0
 42 43  1  0  0  0
 45 47  1  0  0  0
 45  3  1  0  0  0
 45 44  1  0  0  0
 47  5  1  0  0  0
 47  4  1  0  0  0
  5 48  1  0  0  0
 25 24  1  0  0  0
  3 46  1  0  0  0
 43 44  1  0  0  0
 43  9  1  0  0  0
  4  2  2  0  0  0
 46  2  1  0  0  0
  2 52  1  0  0  0
 52 51  2  0  0  0
 10 49  1  0  0  0
 32 50  1  0  0  0
M  END
> <minimizedAffinity>
-17.40339

$$$$
