1OLU_TDP_A_601
  RCSB PDB12061703343D
Coordinates from PDB:1OLU:A:601 Model:1 without hydrogens
 26 27  0  0  0  0            999 V2000
   77.0790    0.5310   11.4280   N 0  0  0  0  0  0  0  0  0  0  0  0
   77.3800    1.7710   11.9270   C 0  0  0  0  0  0  0  0  0  0  0  0
   77.5030    1.8960   13.4600   C 0  0  0  0  0  0  0  0  0  0  0  0
   77.5600    2.8440   11.1510   N 0  0  0  0  0  0  0  0  0  0  0  0
   77.4350    2.6700    9.7750   C 0  0  0  0  0  0  0  0  0  0  0  0
   77.6240    3.8330    9.0130   N 0  0  0  0  0  0  0  0  0  0  0  0
   77.1310    1.3890    9.1570   C 0  0  0  0  0  0  0  0  0  0  0  0
   76.9590    0.3330   10.0860   C 0  0  0  0  0  0  0  0  0  0  0  0
   77.0060    1.1980    7.6330   C 0  0  0  0  0  0  0  0  0  0  0  0
   75.7670    1.7700    7.1130   N 0  3  0  0  0  0  0  0  0  0  0  0
   75.7300    3.0240    6.5200   C 0  0  0  0  0  0  0  0  0  0  0  0
   74.0750    3.4240    6.0280   S 0  0  0  0  0  0  0  0  0  0  0  0
   73.4920    1.8830    6.6380   C 0  0  0  0  0  0  0  0  0  0  0  0
   74.4460    1.0630    7.1880   C 0  0  0  0  0  0  0  0  0  0  0  0
   74.2670   -0.3480    7.7960   C 0  0  0  0  0  0  0  0  0  0  0  0
   72.0000    1.7180    6.4750   C 0  0  0  0  0  0  0  0  0  0  0  0
   71.2530    2.7750    7.3400   C 0  0  0  0  0  0  0  0  0  0  0  0
   69.8500    2.4930    7.2950   O 0  0  0  0  0  0  0  0  0  0  0  0
   68.8300    3.5820    7.7370   P 0  0  0  0  0  0  0  0  0  0  0  0
   68.8400    4.7800    6.7130   O 0  0  0  0  0  0  0  0  0  0  0  0
   69.1910    4.0700    9.1150   O 0  0  0  0  0  0  0  0  0  0  0  0
   67.4920    2.9380    7.7290   O 0  0  0  0  0  0  0  0  0  0  0  0
   68.5510    4.9380    5.1320   P 0  0  0  0  0  0  0  0  0  0  0  0
   67.9730    6.3530    4.9750   O 0  0  0  0  0  0  0  0  0  0  0  0
   69.9150    4.8070    4.5000   O 0  5  0  0  0  0  0  0  0  0  0  0
   67.5900    3.9370    4.6300   O 0  0  0  0  0  0  0  0  0  0  0  0
  1  2  2  0  0  0  0
  1  8  1  0  0  0  0
  2  3  1  0  0  0  0
  2  4  1  0  0  0  0
  4  5  2  0  0  0  0
  5  6  1  0  0  0  0
  5  7  1  0  0  0  0
  7  8  2  0  0  0  0
  7  9  1  0  0  0  0
  9 10  1  0  0  0  0
 10 11  2  0  0  0  0
 10 14  1  0  0  0  0
 11 12  1  0  0  0  0
 12 13  1  0  0  0  0
 13 14  2  0  0  0  0
 13 16  1  0  0  0  0
 14 15  1  0  0  0  0
 16 17  1  0  0  0  0
 17 18  1  0  0  0  0
 18 19  1  0  0  0  0
 19 20  1  0  0  0  0
 19 21  2  0  0  0  0
 19 22  1  0  0  0  0
 20 23  1  0  0  0  0
 23 24  2  0  0  0  0
 23 25  1  0  0  0  0
 23 26  1  0  0  0  0
M  CHG  2  10   1  25  -1
A    1
N1'
A    2
C2'
A    3
C2A
A    4
N3'
A    5
C4'
A    6
N4'
A    7
C5'
A    8
C6'
A    9
C35
A   10
N3
A   11
C2
A   12
S1
A   13
C5
A   14
C4
A   15
C4A
A   16
C5A
A   17
C5B
A   18
O5G
A   19
P1
A   20
O11
A   21
O12
A   22
O13
A   23
P2
A   24
O21
A   25
O22
A   26
O23
M  END
>  <InstanceId>
1OLU_TDP_A_601

>  <ChemCompId>
TDP

>  <PdbId>
1OLU

>  <ChainId>
A

>  <ResidueNumber>
601

>  <InsertionCode>


>  <Model>
1

>  <AltIds>


>  <MissingHeavyAtoms>
0

>  <ObservedFormula>
C12 N4 O7 P2 S

>  <Name>
THIAMIN DIPHOSPHATE

>  <SystematicName>
[2-[3-[(4-amino-2-methyl-pyrimidin-5-yl)methyl]-4-methyl-1,3-thiazol-3-ium-5-yl]ethoxy-hydroxy-phosphoryl] hydrogen phosphate

>  <Synonyms>


>  <Type>
NON-POLYMER

>  <Formula>
C12 H18 N4 O7 P2 S

>  <MolecularWeight>
424.306

>  <ModifiedDate>
2011-06-04

>  <Parent>


>  <OneLetterCode>


>  <SubcomponentList>


>  <AmbiguousFlag>
N

>  <InChI>
InChI=1S/C12H18N4O7P2S/c1-8-11(3-4-22-25(20,21)23-24(17,18)19)26-7-16(8)6-10-5-14-9(2)15-12(10)13/h5,7H,3-4,6H2,1-2H3,(H4-,13,14,15,17,18,19,20,21)

>  <InChIKey>
AYEKOFBPNLCAJY-UHFFFAOYSA-N

>  <SMILES>
Cc1c(sc[n+]1Cc2cnc(nc2N)C)CCO[P@@](=O)(O)O[P@](=O)(O)[O-]

$$$$
