2OC2_RX3_A_680


 49 53  0  0  0  0  0  0  0  0999 V2000
   42.7201   34.5390   45.3469 C   0  0  0  0  0  0  0  0  0  0  0  0
   43.4272   33.2132   45.0826 C   0  0  0  0  0  0  0  0  0  0  0  0
   43.1530   32.2954   46.2755 C   0  0  0  0  0  0  0  0  0  0  0  0
   42.4396   33.0968   47.3676 C   0  0  0  0  0  0  0  0  0  0  0  0
   42.4520   34.4966   46.8231 C   0  0  0  0  0  0  0  0  0  0  0  0
   41.8682   37.0415   46.8709 O   0  0  0  0  0  0  0  0  0  0  0  0
   42.3457   35.9223   47.7781 P   0  0  0  0  0  0  0  0  0  0  0  0
   43.7465   36.1252   48.2766 O   0  0  0  0  0  0  0  0  0  0  0  0
   44.3644   36.0849   47.5300 H   0  0  0  0  0  0  0  0  0  0  0  0
   41.2259   35.9915   49.1029 C   0  0  0  0  0  0  0  0  0  0  0  0
   41.7744   37.9282   50.4296 C   0  0  0  0  0  0  0  0  0  0  0  0
   41.5468   38.8063   49.6179 O   0  0  0  0  0  0  0  0  0  0  0  0
   41.6501   36.6193   50.2039 N   0  0  0  0  0  0  0  0  0  0  0  0
   41.9066   36.0341   50.9529 H   0  0  0  0  0  0  0  0  0  0  0  0
   42.2273   38.3365   51.7409 O   0  0  0  0  0  0  0  0  0  0  0  0
   43.3675   39.1756   51.9106 C   0  0  0  0  0  0  0  0  0  0  0  0
   42.9368   40.5408   52.4129 C   0  0  0  0  0  0  0  0  0  0  0  0
   42.3254   40.6719   53.6595 C   0  0  0  0  0  0  0  0  0  0  0  0
   41.9273   41.9336   54.1087 C   0  0  0  0  0  0  0  0  0  0  0  0
   42.1416   43.0709   53.3201 C   0  0  0  0  0  0  0  0  0  0  0  0
   42.7520   42.9418   52.0761 C   0  0  0  0  0  0  0  0  0  0  0  0
   43.1500   41.6796   51.6252 C   0  0  0  0  0  0  0  0  0  0  0  0
   39.7712   35.5416   49.0282 C   0  0  0  0  0  0  0  0  0  0  0  0
   38.9582   35.7123   50.3079 C   0  0  0  0  0  0  0  0  0  0  0  0
   38.3253   36.9217   50.6303 C   0  0  0  0  0  0  0  0  0  0  0  0
   37.5919   37.0598   51.8142 C   0  0  0  0  0  0  0  0  0  0  0  0
   37.4660   35.9761   52.6881 C   0  0  0  0  0  0  0  0  0  0  0  0
   38.0870   34.7613   52.3745 C   0  0  0  0  0  0  0  0  0  0  0  0
   38.8249   34.6334   51.1902 C   0  0  0  0  0  0  0  0  0  0  0  0
   41.4980   34.6811   44.4737 C   0  0  0  0  0  0  0  0  0  0  0  0
   40.3592   34.7619   44.9434 O   0  0  0  0  0  0  0  0  0  0  0  0
   41.7790   34.7068   43.1702 N   0  0  0  0  0  0  0  0  0  0  0  0
   42.7242   34.6525   42.9002 H   0  0  0  0  0  0  0  0  0  0  0  0
   40.7730   34.8105   42.1207 C   0  0  0  0  0  0  0  0  0  0  0  0
   40.2458   33.4615   41.6723 C   0  0  0  0  0  0  0  0  0  0  0  0
   41.0551   32.5764   41.3139 O   0  0  0  0  0  0  0  0  0  0  0  0
   39.0135   33.2569   41.6611 O   0  0  0  0  0  0  0  0  0  0  0  0
   38.4240   33.9325   41.9332 H   0  0  0  0  0  0  0  0  0  0  0  0
   41.4325   35.5850   40.9675 C   0  0  0  0  0  0  0  0  0  0  0  0
   42.9475   35.5580   40.9454 C   0  0  0  0  0  0  0  0  0  0  0  0
   43.7983   36.2889   41.7672 C   0  0  0  0  0  0  0  0  0  0  0  0
   43.7681   34.7828   40.1311 C   0  0  0  0  0  0  0  0  0  0  0  0
   45.0866   35.9835   41.4601 N   0  0  0  0  0  0  0  0  0  0  0  0
   45.0976   35.0636   40.4614 C   0  0  0  0  0  0  0  0  0  0  0  0
   43.4484   33.8610   39.1275 C   0  0  0  0  0  0  0  0  0  0  0  0
   46.1330   34.4107   39.7656 C   0  0  0  0  0  0  0  0  0  0  0  0
   44.4851   33.2169   38.4460 C   0  0  0  0  0  0  0  0  0  0  0  0
   45.8185   33.4876   38.7608 C   0  0  0  0  0  0  0  0  0  0  0  0
   45.8836   36.3674   41.8922 H   0  0  0  0  0  0  0  0  0  0  0  0
 37 35  1  0  0  0
 35 36  2  0  0  0
 35 34  1  0  0  0
 34 39  1  0  0  0
 34 32  1  0  0  0
 39 40  1  0  0  0
 40 41  2  0  0  0
 40 42  1  0  0  0
 42 44  1  0  0  0
 42 45  2  0  0  0
 45 47  1  0  0  0
 47 48  2  0  0  0
 48 46  1  0  0  0
 46 44  2  0  0  0
 44 43  1  0  0  0
 43 41  1  0  0  0
 32 30  1  0  0  0
 30 31  2  0  0  0
 30  1  1  0  0  0
  1  2  1  0  0  0
  1  5  1  0  0  0
  2  3  1  0  0  0
  3  4  1  0  0  0
  4  5  1  0  0  0
  5  7  1  0  0  0
  7  6  2  0  0  0
  7  8  1  0  0  0
  7 10  1  0  0  0
 10 23  1  0  0  0
 10 13  1  0  0  0
 23 24  1  0  0  0
 24 25  2  0  0  0
 24 29  1  0  0  0
 29 28  2  0  0  0
 28 27  1  0  0  0
 27 26  2  0  0  0
 26 25  1  0  0  0
 13 11  1  0  0  0
 11 12  2  0  0  0
 11 15  1  0  0  0
 15 16  1  0  0  0
 16 17  1  0  0  0
 17 18  1  0  0  0
 17 22  2  0  0  0
 18 19  2  0  0  0
 22 21  1  0  0  0
 21 20  2  0  0  0
 20 19  1  0  0  0
  8  9  1  0  0  0
 13 14  1  0  0  0
 32 33  1  0  0  0
 43 49  1  0  0  0
 37 38  1  0  0  0
M  END
> <minimizedAffinity>
-11.96965

$$$$
2OC2_RX3_A_680


 49 53  0  0  0  0  0  0  0  0999 V2000
   42.6779   34.6833   45.5245 C   0  0  0  0  0  0  0  0  0  0  0  0
   43.4667   33.4151   45.2126 C   0  0  0  0  0  0  0  0  0  0  0  0
   43.2973   32.4607   46.3962 C   0  0  0  0  0  0  0  0  0  0  0  0
   42.5665   33.1916   47.5256 C   0  0  0  0  0  0  0  0  0  0  0  0
   42.4628   34.5977   47.0075 C   0  0  0  0  0  0  0  0  0  0  0  0
   41.7714   37.1140   47.1054 O   0  0  0  0  0  0  0  0  0  0  0  0
   42.2892   35.9963   47.9922 P   0  0  0  0  0  0  0  0  0  0  0  0
   43.6764   36.2471   48.5066 O   0  0  0  0  0  0  0  0  0  0  0  0
   44.3010   36.2493   47.7644 H   0  0  0  0  0  0  0  0  0  0  0  0
   41.1577   35.9891   49.3088 C   0  0  0  0  0  0  0  0  0  0  0  0
   41.5727   37.8678   50.7614 C   0  0  0  0  0  0  0  0  0  0  0  0
   41.2325   38.7767   50.0266 O   0  0  0  0  0  0  0  0  0  0  0  0
   41.5632   36.5730   50.4406 N   0  0  0  0  0  0  0  0  0  0  0  0
   41.9022   35.9622   51.1343 H   0  0  0  0  0  0  0  0  0  0  0  0
   42.0356   38.2212   52.0851 O   0  0  0  0  0  0  0  0  0  0  0  0
   41.3462   39.1767   52.8881 C   0  0  0  0  0  0  0  0  0  0  0  0
   40.5121   38.4669   53.9379 C   0  0  0  0  0  0  0  0  0  0  0  0
   40.9116   37.2264   54.4343 C   0  0  0  0  0  0  0  0  0  0  0  0
   40.1319   36.5793   55.3963 C   0  0  0  0  0  0  0  0  0  0  0  0
   38.9535   37.1680   55.8719 C   0  0  0  0  0  0  0  0  0  0  0  0
   38.5537   38.4061   55.3778 C   0  0  0  0  0  0  0  0  0  0  0  0
   39.3328   39.0541   54.4145 C   0  0  0  0  0  0  0  0  0  0  0  0
   39.7107   35.5215   49.2010 C   0  0  0  0  0  0  0  0  0  0  0  0
   38.8768   35.6485   50.4723 C   0  0  0  0  0  0  0  0  0  0  0  0
   38.7450   34.5904   51.3834 C   0  0  0  0  0  0  0  0  0  0  0  0
   37.9675   34.7249   52.5392 C   0  0  0  0  0  0  0  0  0  0  0  0
   37.3219   35.9350   52.8094 C   0  0  0  0  0  0  0  0  0  0  0  0
   37.4511   37.0013   51.9116 C   0  0  0  0  0  0  0  0  0  0  0  0
   38.2263   36.8560   50.7534 C   0  0  0  0  0  0  0  0  0  0  0  0
   41.4203   34.7533   44.6939 C   0  0  0  0  0  0  0  0  0  0  0  0
   40.3016   34.8736   45.2021 O   0  0  0  0  0  0  0  0  0  0  0  0
   41.6471   34.6707   43.3822 N   0  0  0  0  0  0  0  0  0  0  0  0
   42.5805   34.5935   43.0788 H   0  0  0  0  0  0  0  0  0  0  0  0
   40.5982   34.6877   42.3704 C   0  0  0  0  0  0  0  0  0  0  0  0
   40.0693   33.3047   42.0444 C   0  0  0  0  0  0  0  0  0  0  0  0
   38.9325   33.1889   41.5332 O   0  0  0  0  0  0  0  0  0  0  0  0
   40.7723   32.3034   42.2969 O   0  0  0  0  0  0  0  0  0  0  0  0
   41.6207   32.4112   42.6797 H   0  0  0  0  0  0  0  0  0  0  0  0
   41.2014   35.3807   41.1372 C   0  0  0  0  0  0  0  0  0  0  0  0
   42.2807   34.6015   40.4132 C   0  0  0  0  0  0  0  0  0  0  0  0
   42.0879   33.6781   39.3916 C   0  0  0  0  0  0  0  0  0  0  0  0
   43.6567   34.6824   40.6064 C   0  0  0  0  0  0  0  0  0  0  0  0
   43.2950   33.2038   38.9849 N   0  0  0  0  0  0  0  0  0  0  0  0
   44.2733   33.8019   39.7120 C   0  0  0  0  0  0  0  0  0  0  0  0
   44.4084   35.4555   41.4988 C   0  0  0  0  0  0  0  0  0  0  0  0
   45.6767   33.6871   39.7154 C   0  0  0  0  0  0  0  0  0  0  0  0
   45.8010   35.3351   41.4905 C   0  0  0  0  0  0  0  0  0  0  0  0
   46.4333   34.4583   40.6062 C   0  0  0  0  0  0  0  0  0  0  0  0
   43.4370   32.5345   38.2771 H   0  0  0  0  0  0  0  0  0  0  0  0
 37 35  1  0  0  0
 35 36  2  0  0  0
 35 34  1  0  0  0
 34 39  1  0  0  0
 34 32  1  0  0  0
 39 40  1  0  0  0
 40 41  2  0  0  0
 40 42  1  0  0  0
 42 44  1  0  0  0
 42 45  2  0  0  0
 45 47  1  0  0  0
 47 48  2  0  0  0
 48 46  1  0  0  0
 46 44  2  0  0  0
 44 43  1  0  0  0
 43 41  1  0  0  0
 32 30  1  0  0  0
 30 31  2  0  0  0
 30  1  1  0  0  0
  1  2  1  0  0  0
  1  5  1  0  0  0
  2  3  1  0  0  0
  3  4  1  0  0  0
  4  5  1  0  0  0
  5  7  1  0  0  0
  7  6  2  0  0  0
  7  8  1  0  0  0
  7 10  1  0  0  0
 10 23  1  0  0  0
 10 13  1  0  0  0
 23 24  1  0  0  0
 24 25  2  0  0  0
 24 29  1  0  0  0
 29 28  2  0  0  0
 28 27  1  0  0  0
 27 26  2  0  0  0
 26 25  1  0  0  0
 13 11  1  0  0  0
 11 12  2  0  0  0
 11 15  1  0  0  0
 15 16  1  0  0  0
 16 17  1  0  0  0
 17 18  1  0  0  0
 17 22  2  0  0  0
 18 19  2  0  0  0
 22 21  1  0  0  0
 21 20  2  0  0  0
 20 19  1  0  0  0
  8  9  1  0  0  0
 13 14  1  0  0  0
 32 33  1  0  0  0
 43 49  1  0  0  0
 37 38  1  0  0  0
M  END
> <minimizedAffinity>
-11.27009

$$$$
2OC2_RX3_A_680


 49 53  0  0  0  0  0  0  0  0999 V2000
   41.9046   33.7794   45.8387 C   0  0  0  0  0  0  0  0  0  0  0  0
   42.5103   32.6376   46.6494 C   0  0  0  0  0  0  0  0  0  0  0  0
   43.9461   32.4337   46.1623 C   0  0  0  0  0  0  0  0  0  0  0  0
   44.1832   33.3087   44.9286 C   0  0  0  0  0  0  0  0  0  0  0  0
   42.8235   33.8862   44.6567 C   0  0  0  0  0  0  0  0  0  0  0  0
   43.0653   35.7244   42.8177 O   0  0  0  0  0  0  0  0  0  0  0  0
   42.2879   34.4578   43.1263 P   0  0  0  0  0  0  0  0  0  0  0  0
   40.8210   34.7012   43.3278 O   0  0  0  0  0  0  0  0  0  0  0  0
   40.6891   35.2419   44.1222 H   0  0  0  0  0  0  0  0  0  0  0  0
   42.5421   33.4906   41.7072 C   0  0  0  0  0  0  0  0  0  0  0  0
   41.3261   31.4357   42.0399 C   0  0  0  0  0  0  0  0  0  0  0  0
   40.1949   31.8767   42.1282 O   0  0  0  0  0  0  0  0  0  0  0  0
   42.4270   32.1683   41.8641 N   0  0  0  0  0  0  0  0  0  0  0  0
   43.2727   31.6646   41.8477 H   0  0  0  0  0  0  0  0  0  0  0  0
   41.4910   30.0029   42.1458 O   0  0  0  0  0  0  0  0  0  0  0  0
   42.7677   29.4122   42.3780 C   0  0  0  0  0  0  0  0  0  0  0  0
   42.9386   29.1099   43.8548 C   0  0  0  0  0  0  0  0  0  0  0  0
   41.8835   29.3174   44.7428 C   0  0  0  0  0  0  0  0  0  0  0  0
   42.0547   29.0414   46.1017 C   0  0  0  0  0  0  0  0  0  0  0  0
   43.2763   28.5523   46.5809 C   0  0  0  0  0  0  0  0  0  0  0  0
   44.3301   28.3442   45.6959 C   0  0  0  0  0  0  0  0  0  0  0  0
   44.1601   28.6209   44.3360 C   0  0  0  0  0  0  0  0  0  0  0  0
   42.7160   34.0509   40.3002 C   0  0  0  0  0  0  0  0  0  0  0  0
   44.1442   34.0633   39.7636 C   0  0  0  0  0  0  0  0  0  0  0  0
   44.5304   33.2874   38.6609 C   0  0  0  0  0  0  0  0  0  0  0  0
   45.8482   33.3064   38.1904 C   0  0  0  0  0  0  0  0  0  0  0  0
   46.7993   34.1219   38.8104 C   0  0  0  0  0  0  0  0  0  0  0  0
   46.4250   34.9067   39.9076 C   0  0  0  0  0  0  0  0  0  0  0  0
   45.1048   34.8768   40.3763 C   0  0  0  0  0  0  0  0  0  0  0  0
   41.7832   35.0289   46.6756 C   0  0  0  0  0  0  0  0  0  0  0  0
   42.2811   36.1041   46.3292 O   0  0  0  0  0  0  0  0  0  0  0  0
   41.0965   34.8453   47.8042 N   0  0  0  0  0  0  0  0  0  0  0  0
   40.7256   33.9502   47.9788 H   0  0  0  0  0  0  0  0  0  0  0  0
   40.8615   35.8881   48.7948 C   0  0  0  0  0  0  0  0  0  0  0  0
   42.1261   36.3165   49.5132 C   0  0  0  0  0  0  0  0  0  0  0  0
   42.3139   37.5312   49.7500 O   0  0  0  0  0  0  0  0  0  0  0  0
   42.9627   35.4526   49.8511 O   0  0  0  0  0  0  0  0  0  0  0  0
   42.8035   34.5482   49.6647 H   0  0  0  0  0  0  0  0  0  0  0  0
   39.8071   35.3299   49.7652 C   0  0  0  0  0  0  0  0  0  0  0  0
   39.0232   36.3667   50.5443 C   0  0  0  0  0  0  0  0  0  0  0  0
   38.9408   37.7251   50.2594 C   0  0  0  0  0  0  0  0  0  0  0  0
   38.2196   36.1565   51.6611 C   0  0  0  0  0  0  0  0  0  0  0  0
   38.1306   38.3241   51.1716 N   0  0  0  0  0  0  0  0  0  0  0  0
   37.6750   37.3868   52.0420 C   0  0  0  0  0  0  0  0  0  0  0  0
   37.9317   34.9843   52.3699 C   0  0  0  0  0  0  0  0  0  0  0  0
   36.8264   37.4469   53.1640 C   0  0  0  0  0  0  0  0  0  0  0  0
   37.0854   35.0563   53.4802 C   0  0  0  0  0  0  0  0  0  0  0  0
   36.5353   36.2772   53.8765 C   0  0  0  0  0  0  0  0  0  0  0  0
   37.9096   39.2831   51.1972 H   0  0  0  0  0  0  0  0  0  0  0  0
 37 35  1  0  0  0
 35 36  2  0  0  0
 35 34  1  0  0  0
 34 39  1  0  0  0
 34 32  1  0  0  0
 39 40  1  0  0  0
 40 41  2  0  0  0
 40 42  1  0  0  0
 42 44  1  0  0  0
 42 45  2  0  0  0
 45 47  1  0  0  0
 47 48  2  0  0  0
 48 46  1  0  0  0
 46 44  2  0  0  0
 44 43  1  0  0  0
 43 41  1  0  0  0
 32 30  1  0  0  0
 30 31  2  0  0  0
 30  1  1  0  0  0
  1  2  1  0  0  0
  1  5  1  0  0  0
  2  3  1  0  0  0
  3  4  1  0  0  0
  4  5  1  0  0  0
  5  7  1  0  0  0
  7  6  2  0  0  0
  7  8  1  0  0  0
  7 10  1  0  0  0
 10 23  1  0  0  0
 10 13  1  0  0  0
 23 24  1  0  0  0
 24 25  2  0  0  0
 24 29  1  0  0  0
 29 28  2  0  0  0
 28 27  1  0  0  0
 27 26  2  0  0  0
 26 25  1  0  0  0
 13 11  1  0  0  0
 11 12  2  0  0  0
 11 15  1  0  0  0
 15 16  1  0  0  0
 16 17  1  0  0  0
 17 18  1  0  0  0
 17 22  2  0  0  0
 18 19  2  0  0  0
 22 21  1  0  0  0
 21 20  2  0  0  0
 20 19  1  0  0  0
  8  9  1  0  0  0
 13 14  1  0  0  0
 32 33  1  0  0  0
 43 49  1  0  0  0
 37 38  1  0  0  0
M  END
> <minimizedAffinity>
-10.88078

$$$$
2OC2_RX3_A_680


 49 53  0  0  0  0  0  0  0  0999 V2000
   39.9614   39.3452   53.1963 C   0  0  0  0  0  0  0  0  0  0  0  0
   38.4433   39.4877   53.2501 C   0  0  0  0  0  0  0  0  0  0  0  0
   38.0561   40.6659   52.3544 C   0  0  0  0  0  0  0  0  0  0  0  0
   39.3288   41.3787   51.8899 C   0  0  0  0  0  0  0  0  0  0  0  0
   40.4114   40.6699   52.6527 C   0  0  0  0  0  0  0  0  0  0  0  0
   42.4790   41.9953   51.7650 O   0  0  0  0  0  0  0  0  0  0  0  0
   41.9487   41.3419   53.0282 P   0  0  0  0  0  0  0  0  0  0  0  0
   42.7607   40.1578   53.4644 O   0  0  0  0  0  0  0  0  0  0  0  0
   42.6866   39.4532   52.8019 H   0  0  0  0  0  0  0  0  0  0  0  0
   42.0703   42.6135   54.2038 C   0  0  0  0  0  0  0  0  0  0  0  0
   40.7680   42.0298   56.1468 C   0  0  0  0  0  0  0  0  0  0  0  0
   39.6469   42.1529   55.6890 O   0  0  0  0  0  0  0  0  0  0  0  0
   41.9013   42.2569   55.4807 N   0  0  0  0  0  0  0  0  0  0  0  0
   42.7288   42.1462   56.0026 H   0  0  0  0  0  0  0  0  0  0  0  0
   40.8803   41.6152   57.5277 O   0  0  0  0  0  0  0  0  0  0  0  0
   41.5625   40.4186   57.8962 C   0  0  0  0  0  0  0  0  0  0  0  0
   40.8398   39.2128   57.3258 C   0  0  0  0  0  0  0  0  0  0  0  0
   39.4938   38.9949   57.6189 C   0  0  0  0  0  0  0  0  0  0  0  0
   38.8404   37.8774   57.0929 C   0  0  0  0  0  0  0  0  0  0  0  0
   39.5239   36.9752   56.2683 C   0  0  0  0  0  0  0  0  0  0  0  0
   40.8670   37.1915   55.9746 C   0  0  0  0  0  0  0  0  0  0  0  0
   41.5220   38.3090   56.5011 C   0  0  0  0  0  0  0  0  0  0  0  0
   42.5127   44.0386   53.8915 C   0  0  0  0  0  0  0  0  0  0  0  0
   41.5105   44.8889   53.1168 C   0  0  0  0  0  0  0  0  0  0  0  0
   41.8776   45.6123   51.9726 C   0  0  0  0  0  0  0  0  0  0  0  0
   40.9444   46.3938   51.2820 C   0  0  0  0  0  0  0  0  0  0  0  0
   39.6180   46.4473   51.7199 C   0  0  0  0  0  0  0  0  0  0  0  0
   39.2371   45.7243   52.8566 C   0  0  0  0  0  0  0  0  0  0  0  0
   40.1792   44.9495   53.5460 C   0  0  0  0  0  0  0  0  0  0  0  0
   40.3607   38.1431   52.3767 C   0  0  0  0  0  0  0  0  0  0  0  0
   41.5299   37.7529   52.3069 O   0  0  0  0  0  0  0  0  0  0  0  0
   39.3349   37.5652   51.7501 N   0  0  0  0  0  0  0  0  0  0  0  0
   38.4371   37.9457   51.8859 H   0  0  0  0  0  0  0  0  0  0  0  0
   39.4611   36.4052   50.8769 C   0  0  0  0  0  0  0  0  0  0  0  0
   39.7538   36.7787   49.4369 C   0  0  0  0  0  0  0  0  0  0  0  0
   38.8803   36.5784   48.5629 O   0  0  0  0  0  0  0  0  0  0  0  0
   40.8628   37.2735   49.1444 O   0  0  0  0  0  0  0  0  0  0  0  0
   41.5035   37.4157   49.8132 H   0  0  0  0  0  0  0  0  0  0  0  0
   38.1467   35.6188   51.0137 C   0  0  0  0  0  0  0  0  0  0  0  0
   37.9708   34.8626   52.3151 C   0  0  0  0  0  0  0  0  0  0  0  0
   38.4898   33.6087   52.6179 C   0  0  0  0  0  0  0  0  0  0  0  0
   37.2923   35.2855   53.4544 C   0  0  0  0  0  0  0  0  0  0  0  0
   38.1330   33.2722   53.8855 N   0  0  0  0  0  0  0  0  0  0  0  0
   37.3991   34.2810   54.4213 C   0  0  0  0  0  0  0  0  0  0  0  0
   36.5892   36.4684   53.7108 C   0  0  0  0  0  0  0  0  0  0  0  0
   36.7813   34.4618   55.6737 C   0  0  0  0  0  0  0  0  0  0  0  0
   35.9829   36.6375   54.9588 C   0  0  0  0  0  0  0  0  0  0  0  0
   36.0768   35.6433   55.9351 C   0  0  0  0  0  0  0  0  0  0  0  0
   38.3688   32.4322   54.3417 H   0  0  0  0  0  0  0  0  0  0  0  0
 37 35  1  0  0  0
 35 36  2  0  0  0
 35 34  1  0  0  0
 34 39  1  0  0  0
 34 32  1  0  0  0
 39 40  1  0  0  0
 40 41  2  0  0  0
 40 42  1  0  0  0
 42 44  1  0  0  0
 42 45  2  0  0  0
 45 47  1  0  0  0
 47 48  2  0  0  0
 48 46  1  0  0  0
 46 44  2  0  0  0
 44 43  1  0  0  0
 43 41  1  0  0  0
 32 30  1  0  0  0
 30 31  2  0  0  0
 30  1  1  0  0  0
  1  2  1  0  0  0
  1  5  1  0  0  0
  2  3  1  0  0  0
  3  4  1  0  0  0
  4  5  1  0  0  0
  5  7  1  0  0  0
  7  6  2  0  0  0
  7  8  1  0  0  0
  7 10  1  0  0  0
 10 23  1  0  0  0
 10 13  1  0  0  0
 23 24  1  0  0  0
 24 25  2  0  0  0
 24 29  1  0  0  0
 29 28  2  0  0  0
 28 27  1  0  0  0
 27 26  2  0  0  0
 26 25  1  0  0  0
 13 11  1  0  0  0
 11 12  2  0  0  0
 11 15  1  0  0  0
 15 16  1  0  0  0
 16 17  1  0  0  0
 17 18  1  0  0  0
 17 22  2  0  0  0
 18 19  2  0  0  0
 22 21  1  0  0  0
 21 20  2  0  0  0
 20 19  1  0  0  0
  8  9  1  0  0  0
 13 14  1  0  0  0
 32 33  1  0  0  0
 43 49  1  0  0  0
 37 38  1  0  0  0
M  END
> <minimizedAffinity>
-10.86610

$$$$
2OC2_RX3_A_680


 49 53  0  0  0  0  0  0  0  0999 V2000
   39.3742   39.0498   53.9168 C   0  0  0  0  0  0  0  0  0  0  0  0
   38.5098   38.3149   54.9369 C   0  0  0  0  0  0  0  0  0  0  0  0
   39.2018   36.9898   55.2622 C   0  0  0  0  0  0  0  0  0  0  0  0
   40.3920   36.8036   54.3175 C   0  0  0  0  0  0  0  0  0  0  0  0
   40.2629   37.9674   53.3767 C   0  0  0  0  0  0  0  0  0  0  0  0
   42.3203   37.4719   51.8467 O   0  0  0  0  0  0  0  0  0  0  0  0
   40.9052   38.0171   51.7828 P   0  0  0  0  0  0  0  0  0  0  0  0
   40.8503   39.4720   51.4193 O   0  0  0  0  0  0  0  0  0  0  0  0
   41.2591   39.9972   52.1250 H   0  0  0  0  0  0  0  0  0  0  0  0
   40.1771   37.0618   50.5293 C   0  0  0  0  0  0  0  0  0  0  0  0
   41.6224   36.8852   48.6079 C   0  0  0  0  0  0  0  0  0  0  0  0
   41.4726   37.9961   48.1335 O   0  0  0  0  0  0  0  0  0  0  0  0
   41.0170   36.4280   49.7052 N   0  0  0  0  0  0  0  0  0  0  0  0
   41.2167   35.4932   49.9408 H   0  0  0  0  0  0  0  0  0  0  0  0
   42.5204   35.9843   47.9199 O   0  0  0  0  0  0  0  0  0  0  0  0
   42.0692   34.7412   47.3868 C   0  0  0  0  0  0  0  0  0  0  0  0
   42.7267   34.4833   46.0441 C   0  0  0  0  0  0  0  0  0  0  0  0
   42.3055   35.1759   44.9093 C   0  0  0  0  0  0  0  0  0  0  0  0
   42.9143   34.9254   43.6768 C   0  0  0  0  0  0  0  0  0  0  0  0
   43.9490   33.9876   43.5709 C   0  0  0  0  0  0  0  0  0  0  0  0
   44.3707   33.2960   44.7026 C   0  0  0  0  0  0  0  0  0  0  0  0
   43.7616   33.5453   45.9362 C   0  0  0  0  0  0  0  0  0  0  0  0
   38.6839   36.7750   50.4195 C   0  0  0  0  0  0  0  0  0  0  0  0
   38.0939   35.9022   51.5231 C   0  0  0  0  0  0  0  0  0  0  0  0
   36.9844   36.3087   52.2786 C   0  0  0  0  0  0  0  0  0  0  0  0
   36.4645   35.4967   53.2929 C   0  0  0  0  0  0  0  0  0  0  0  0
   37.0409   34.2502   53.5538 C   0  0  0  0  0  0  0  0  0  0  0  0
   38.1445   33.8296   52.8020 C   0  0  0  0  0  0  0  0  0  0  0  0
   38.6628   34.6517   51.7926 C   0  0  0  0  0  0  0  0  0  0  0  0
   40.0911   40.2129   54.5567 C   0  0  0  0  0  0  0  0  0  0  0  0
   39.4905   41.0980   55.1730 O   0  0  0  0  0  0  0  0  0  0  0  0
   41.4132   40.1793   54.3841 N   0  0  0  0  0  0  0  0  0  0  0  0
   41.7954   39.4183   53.8900 H   0  0  0  0  0  0  0  0  0  0  0  0
   42.3270   41.1996   54.8821 C   0  0  0  0  0  0  0  0  0  0  0  0
   42.3103   41.3213   56.3932 C   0  0  0  0  0  0  0  0  0  0  0  0
   42.0174   42.4205   56.9156 O   0  0  0  0  0  0  0  0  0  0  0  0
   42.5950   40.3259   57.0923 O   0  0  0  0  0  0  0  0  0  0  0  0
   42.8115   39.5118   56.6821 H   0  0  0  0  0  0  0  0  0  0  0  0
   41.9220   42.5132   54.1925 C   0  0  0  0  0  0  0  0  0  0  0  0
   42.1956   42.5802   52.7036 C   0  0  0  0  0  0  0  0  0  0  0  0
   43.2177   41.9291   52.0219 C   0  0  0  0  0  0  0  0  0  0  0  0
   41.4670   43.2712   51.7397 C   0  0  0  0  0  0  0  0  0  0  0  0
   43.1264   42.2196   50.6973 N   0  0  0  0  0  0  0  0  0  0  0  0
   42.0632   43.0397   50.4962 C   0  0  0  0  0  0  0  0  0  0  0  0
   40.3346   44.0848   51.8619 C   0  0  0  0  0  0  0  0  0  0  0  0
   41.5166   43.6429   49.3471 C   0  0  0  0  0  0  0  0  0  0  0  0
   39.7995   44.6755   50.7136 C   0  0  0  0  0  0  0  0  0  0  0  0
   40.3839   44.4578   49.4640 C   0  0  0  0  0  0  0  0  0  0  0  0
   43.7336   41.8887   49.9964 H   0  0  0  0  0  0  0  0  0  0  0  0
 37 35  1  0  0  0
 35 36  2  0  0  0
 35 34  1  0  0  0
 34 39  1  0  0  0
 34 32  1  0  0  0
 39 40  1  0  0  0
 40 41  2  0  0  0
 40 42  1  0  0  0
 42 44  1  0  0  0
 42 45  2  0  0  0
 45 47  1  0  0  0
 47 48  2  0  0  0
 48 46  1  0  0  0
 46 44  2  0  0  0
 44 43  1  0  0  0
 43 41  1  0  0  0
 32 30  1  0  0  0
 30 31  2  0  0  0
 30  1  1  0  0  0
  1  2  1  0  0  0
  1  5  1  0  0  0
  2  3  1  0  0  0
  3  4  1  0  0  0
  4  5  1  0  0  0
  5  7  1  0  0  0
  7  6  2  0  0  0
  7  8  1  0  0  0
  7 10  1  0  0  0
 10 23  1  0  0  0
 10 13  1  0  0  0
 23 24  1  0  0  0
 24 25  2  0  0  0
 24 29  1  0  0  0
 29 28  2  0  0  0
 28 27  1  0  0  0
 27 26  2  0  0  0
 26 25  1  0  0  0
 13 11  1  0  0  0
 11 12  2  0  0  0
 11 15  1  0  0  0
 15 16  1  0  0  0
 16 17  1  0  0  0
 17 18  1  0  0  0
 17 22  2  0  0  0
 18 19  2  0  0  0
 22 21  1  0  0  0
 21 20  2  0  0  0
 20 19  1  0  0  0
  8  9  1  0  0  0
 13 14  1  0  0  0
 32 33  1  0  0  0
 43 49  1  0  0  0
 37 38  1  0  0  0
M  END
> <minimizedAffinity>
-10.85511

$$$$
2OC2_RX3_A_680


 49 53  0  0  0  0  0  0  0  0999 V2000
   41.6262   45.1917   51.6112 C   0  0  0  0  0  0  0  0  0  0  0  0
   41.4762   46.5876   51.0139 C   0  0  0  0  0  0  0  0  0  0  0  0
   40.3065   46.5473   50.0286 C   0  0  0  0  0  0  0  0  0  0  0  0
   39.8437   45.0974   49.8631 C   0  0  0  0  0  0  0  0  0  0  0  0
   40.8601   44.3251   50.6547 C   0  0  0  0  0  0  0  0  0  0  0  0
   42.7174   42.4917   50.7466 O   0  0  0  0  0  0  0  0  0  0  0  0
   41.2501   42.6699   50.4016 P   0  0  0  0  0  0  0  0  0  0  0  0
   40.9562   42.4507   48.9465 O   0  0  0  0  0  0  0  0  0  0  0  0
   41.3931   43.1392   48.4211 H   0  0  0  0  0  0  0  0  0  0  0  0
   40.4748   41.4452   51.3571 C   0  0  0  0  0  0  0  0  0  0  0  0
   40.6273   39.3320   50.2069 C   0  0  0  0  0  0  0  0  0  0  0  0
   39.8552   39.5398   49.2892 O   0  0  0  0  0  0  0  0  0  0  0  0
   40.9126   40.1943   51.1840 N   0  0  0  0  0  0  0  0  0  0  0  0
   41.5320   39.8631   51.8737 H   0  0  0  0  0  0  0  0  0  0  0  0
   41.2794   38.0418   50.2477 O   0  0  0  0  0  0  0  0  0  0  0  0
   40.5337   36.8265   50.2429 C   0  0  0  0  0  0  0  0  0  0  0  0
   39.5432   36.8211   51.3919 C   0  0  0  0  0  0  0  0  0  0  0  0
   38.2452   36.3484   51.2005 C   0  0  0  0  0  0  0  0  0  0  0  0
   37.3398   36.3541   52.2647 C   0  0  0  0  0  0  0  0  0  0  0  0
   37.7254   36.8259   53.5256 C   0  0  0  0  0  0  0  0  0  0  0  0
   39.0206   37.2975   53.7183 C   0  0  0  0  0  0  0  0  0  0  0  0
   39.9271   37.2930   52.6539 C   0  0  0  0  0  0  0  0  0  0  0  0
   39.4724   41.7250   52.4711 C   0  0  0  0  0  0  0  0  0  0  0  0
   38.0060   41.5003   52.1149 C   0  0  0  0  0  0  0  0  0  0  0  0
   37.1235   42.5674   51.8922 C   0  0  0  0  0  0  0  0  0  0  0  0
   35.7796   42.3391   51.5756 C   0  0  0  0  0  0  0  0  0  0  0  0
   35.3022   41.0305   51.4589 C   0  0  0  0  0  0  0  0  0  0  0  0
   36.1745   39.9565   51.6717 C   0  0  0  0  0  0  0  0  0  0  0  0
   37.5172   40.1939   51.9947 C   0  0  0  0  0  0  0  0  0  0  0  0
   41.1398   45.1618   53.0391 C   0  0  0  0  0  0  0  0  0  0  0  0
   40.1561   45.8071   53.4131 O   0  0  0  0  0  0  0  0  0  0  0  0
   41.8749   44.3811   53.8323 N   0  0  0  0  0  0  0  0  0  0  0  0
   42.6307   43.8951   53.4302 H   0  0  0  0  0  0  0  0  0  0  0  0
   41.6281   44.2033   55.2576 C   0  0  0  0  0  0  0  0  0  0  0  0
   42.4916   45.0999   56.1232 C   0  0  0  0  0  0  0  0  0  0  0  0
   43.7159   44.8592   56.2233 O   0  0  0  0  0  0  0  0  0  0  0  0
   41.9674   46.0594   56.7273 O   0  0  0  0  0  0  0  0  0  0  0  0
   41.0489   46.2230   56.6394 H   0  0  0  0  0  0  0  0  0  0  0  0
   41.8660   42.7129   55.5527 C   0  0  0  0  0  0  0  0  0  0  0  0
   40.6468   41.9340   56.0035 C   0  0  0  0  0  0  0  0  0  0  0  0
   39.3481   42.4201   56.1061 C   0  0  0  0  0  0  0  0  0  0  0  0
   40.5868   40.5915   56.3659 C   0  0  0  0  0  0  0  0  0  0  0  0
   38.5292   41.4200   56.5262 N   0  0  0  0  0  0  0  0  0  0  0  0
   39.2615   40.2889   56.6932 C   0  0  0  0  0  0  0  0  0  0  0  0
   41.5922   39.6202   56.4367 C   0  0  0  0  0  0  0  0  0  0  0  0
   38.9351   38.9835   57.1082 C   0  0  0  0  0  0  0  0  0  0  0  0
   41.2553   38.3271   56.8471 C   0  0  0  0  0  0  0  0  0  0  0  0
   39.9372   38.0082   57.1809 C   0  0  0  0  0  0  0  0  0  0  0  0
   37.5609   41.5025   56.6840 H   0  0  0  0  0  0  0  0  0  0  0  0
 37 35  1  0  0  0
 35 36  2  0  0  0
 35 34  1  0  0  0
 34 39  1  0  0  0
 34 32  1  0  0  0
 39 40  1  0  0  0
 40 41  2  0  0  0
 40 42  1  0  0  0
 42 44  1  0  0  0
 42 45  2  0  0  0
 45 47  1  0  0  0
 47 48  2  0  0  0
 48 46  1  0  0  0
 46 44  2  0  0  0
 44 43  1  0  0  0
 43 41  1  0  0  0
 32 30  1  0  0  0
 30 31  2  0  0  0
 30  1  1  0  0  0
  1  2  1  0  0  0
  1  5  1  0  0  0
  2  3  1  0  0  0
  3  4  1  0  0  0
  4  5  1  0  0  0
  5  7  1  0  0  0
  7  6  2  0  0  0
  7  8  1  0  0  0
  7 10  1  0  0  0
 10 23  1  0  0  0
 10 13  1  0  0  0
 23 24  1  0  0  0
 24 25  2  0  0  0
 24 29  1  0  0  0
 29 28  2  0  0  0
 28 27  1  0  0  0
 27 26  2  0  0  0
 26 25  1  0  0  0
 13 11  1  0  0  0
 11 12  2  0  0  0
 11 15  1  0  0  0
 15 16  1  0  0  0
 16 17  1  0  0  0
 17 18  1  0  0  0
 17 22  2  0  0  0
 18 19  2  0  0  0
 22 21  1  0  0  0
 21 20  2  0  0  0
 20 19  1  0  0  0
  8  9  1  0  0  0
 13 14  1  0  0  0
 32 33  1  0  0  0
 43 49  1  0  0  0
 37 38  1  0  0  0
M  END
> <minimizedAffinity>
-10.74029

$$$$
2OC2_RX3_A_680


 49 53  0  0  0  0  0  0  0  0999 V2000
   41.8547   33.8937   46.1709 C   0  0  0  0  0  0  0  0  0  0  0  0
   42.6050   32.8278   46.9638 C   0  0  0  0  0  0  0  0  0  0  0  0
   43.9627   32.6186   46.2903 C   0  0  0  0  0  0  0  0  0  0  0  0
   43.9944   33.4049   44.9772 C   0  0  0  0  0  0  0  0  0  0  0  0
   42.5925   33.9322   44.8642 C   0  0  0  0  0  0  0  0  0  0  0  0
   42.5230   35.6251   42.8772 O   0  0  0  0  0  0  0  0  0  0  0  0
   41.8271   34.3778   43.3907 P   0  0  0  0  0  0  0  0  0  0  0  0
   40.4002   34.6202   43.7868 O   0  0  0  0  0  0  0  0  0  0  0  0
   40.3736   35.2193   44.5492 H   0  0  0  0  0  0  0  0  0  0  0  0
   41.8930   33.3066   42.0262 C   0  0  0  0  0  0  0  0  0  0  0  0
   40.5683   31.3237   42.3799 C   0  0  0  0  0  0  0  0  0  0  0  0
   39.4524   31.7999   42.2808 O   0  0  0  0  0  0  0  0  0  0  0  0
   41.7093   32.0081   42.2840 N   0  0  0  0  0  0  0  0  0  0  0  0
   42.5308   31.4834   42.4226 H   0  0  0  0  0  0  0  0  0  0  0  0
   40.6645   29.9032   42.6336 O   0  0  0  0  0  0  0  0  0  0  0  0
   40.9145   28.9713   41.5839 C   0  0  0  0  0  0  0  0  0  0  0  0
   42.2200   29.3102   40.8893 C   0  0  0  0  0  0  0  0  0  0  0  0
   42.2166   29.7979   39.5828 C   0  0  0  0  0  0  0  0  0  0  0  0
   43.4256   30.1006   38.9511 C   0  0  0  0  0  0  0  0  0  0  0  0
   44.6429   29.9238   39.6205 C   0  0  0  0  0  0  0  0  0  0  0  0
   44.6479   29.4376   40.9245 C   0  0  0  0  0  0  0  0  0  0  0  0
   43.4387   29.1336   41.5573 C   0  0  0  0  0  0  0  0  0  0  0  0
   41.9762   33.7624   40.5738 C   0  0  0  0  0  0  0  0  0  0  0  0
   43.3473   33.6352   39.9168 C   0  0  0  0  0  0  0  0  0  0  0  0
   43.5051   33.6216   38.5233 C   0  0  0  0  0  0  0  0  0  0  0  0
   44.7714   33.4946   37.9410 C   0  0  0  0  0  0  0  0  0  0  0  0
   45.9061   33.3975   38.7516 C   0  0  0  0  0  0  0  0  0  0  0  0
   45.7629   33.4170   40.1440 C   0  0  0  0  0  0  0  0  0  0  0  0
   44.4907   33.5379   40.7189 C   0  0  0  0  0  0  0  0  0  0  0  0
   41.8145   35.1987   46.9268 C   0  0  0  0  0  0  0  0  0  0  0  0
   42.3212   36.2329   46.4822 O   0  0  0  0  0  0  0  0  0  0  0  0
   41.1876   35.1111   48.1008 N   0  0  0  0  0  0  0  0  0  0  0  0
   40.8029   34.2413   48.3553 H   0  0  0  0  0  0  0  0  0  0  0  0
   41.0370   36.2237   49.0301 C   0  0  0  0  0  0  0  0  0  0  0  0
   42.3538   36.6729   49.6325 C   0  0  0  0  0  0  0  0  0  0  0  0
   42.4466   37.8262   50.1101 O   0  0  0  0  0  0  0  0  0  0  0  0
   43.3260   35.8886   49.6367 O   0  0  0  0  0  0  0  0  0  0  0  0
   43.2363   35.0292   49.2743 H   0  0  0  0  0  0  0  0  0  0  0  0
   40.0407   35.7554   50.1039 C   0  0  0  0  0  0  0  0  0  0  0  0
   39.1454   36.8345   50.6787 C   0  0  0  0  0  0  0  0  0  0  0  0
   39.0989   38.1664   50.2823 C   0  0  0  0  0  0  0  0  0  0  0  0
   38.1872   36.6951   51.6786 C   0  0  0  0  0  0  0  0  0  0  0  0
   38.1603   38.8185   51.0178 N   0  0  0  0  0  0  0  0  0  0  0  0
   37.5863   37.9414   51.8809 C   0  0  0  0  0  0  0  0  0  0  0  0
   37.8039   35.5745   52.4246 C   0  0  0  0  0  0  0  0  0  0  0  0
   36.5814   38.0712   52.8587 C   0  0  0  0  0  0  0  0  0  0  0  0
   36.8031   35.7153   53.3903 C   0  0  0  0  0  0  0  0  0  0  0  0
   36.1944   36.9533   53.6078 C   0  0  0  0  0  0  0  0  0  0  0  0
   37.9331   39.7731   50.9377 H   0  0  0  0  0  0  0  0  0  0  0  0
 37 35  1  0  0  0
 35 36  2  0  0  0
 35 34  1  0  0  0
 34 39  1  0  0  0
 34 32  1  0  0  0
 39 40  1  0  0  0
 40 41  2  0  0  0
 40 42  1  0  0  0
 42 44  1  0  0  0
 42 45  2  0  0  0
 45 47  1  0  0  0
 47 48  2  0  0  0
 48 46  1  0  0  0
 46 44  2  0  0  0
 44 43  1  0  0  0
 43 41  1  0  0  0
 32 30  1  0  0  0
 30 31  2  0  0  0
 30  1  1  0  0  0
  1  2  1  0  0  0
  1  5  1  0  0  0
  2  3  1  0  0  0
  3  4  1  0  0  0
  4  5  1  0  0  0
  5  7  1  0  0  0
  7  6  2  0  0  0
  7  8  1  0  0  0
  7 10  1  0  0  0
 10 23  1  0  0  0
 10 13  1  0  0  0
 23 24  1  0  0  0
 24 25  2  0  0  0
 24 29  1  0  0  0
 29 28  2  0  0  0
 28 27  1  0  0  0
 27 26  2  0  0  0
 26 25  1  0  0  0
 13 11  1  0  0  0
 11 12  2  0  0  0
 11 15  1  0  0  0
 15 16  1  0  0  0
 16 17  1  0  0  0
 17 18  1  0  0  0
 17 22  2  0  0  0
 18 19  2  0  0  0
 22 21  1  0  0  0
 21 20  2  0  0  0
 20 19  1  0  0  0
  8  9  1  0  0  0
 13 14  1  0  0  0
 32 33  1  0  0  0
 43 49  1  0  0  0
 37 38  1  0  0  0
M  END
> <minimizedAffinity>
-10.71728

$$$$
2OC2_RX3_A_680


 49 53  0  0  0  0  0  0  0  0999 V2000
   41.2051   41.6717   52.8172 C   0  0  0  0  0  0  0  0  0  0  0  0
   40.8962   42.8497   51.8982 C   0  0  0  0  0  0  0  0  0  0  0  0
   41.8280   43.9988   52.2879 C   0  0  0  0  0  0  0  0  0  0  0  0
   42.5853   43.6164   53.5622 C   0  0  0  0  0  0  0  0  0  0  0  0
   41.9576   42.3080   53.9495 C   0  0  0  0  0  0  0  0  0  0  0  0
   42.2997   42.7894   56.4932 O   0  0  0  0  0  0  0  0  0  0  0  0
   41.9362   41.6630   55.5430 P   0  0  0  0  0  0  0  0  0  0  0  0
   42.9654   40.5717   55.5020 O   0  0  0  0  0  0  0  0  0  0  0  0
   43.7906   40.9194   55.1290 H   0  0  0  0  0  0  0  0  0  0  0  0
   40.4516   41.0573   56.2085 C   0  0  0  0  0  0  0  0  0  0  0  0
   38.4976   42.4647   56.0943 C   0  0  0  0  0  0  0  0  0  0  0  0
   38.6193   43.0731   57.1416 O   0  0  0  0  0  0  0  0  0  0  0  0
   39.3247   41.5150   55.6544 N   0  0  0  0  0  0  0  0  0  0  0  0
   39.0694   41.0922   54.8027 H   0  0  0  0  0  0  0  0  0  0  0  0
   37.3579   42.7896   55.2655 O   0  0  0  0  0  0  0  0  0  0  0  0
   37.4713   42.9018   53.8486 C   0  0  0  0  0  0  0  0  0  0  0  0
   36.4444   42.0120   53.1740 C   0  0  0  0  0  0  0  0  0  0  0  0
   35.3437   41.5399   53.8885 C   0  0  0  0  0  0  0  0  0  0  0  0
   34.4078   40.7158   53.2581 C   0  0  0  0  0  0  0  0  0  0  0  0
   34.5617   40.3632   51.9116 C   0  0  0  0  0  0  0  0  0  0  0  0
   35.6593   40.8340   51.1971 C   0  0  0  0  0  0  0  0  0  0  0  0
   36.5969   41.6579   51.8271 C   0  0  0  0  0  0  0  0  0  0  0  0
   40.3610   39.9403   57.2419 C   0  0  0  0  0  0  0  0  0  0  0  0
   40.0286   38.5557   56.6939 C   0  0  0  0  0  0  0  0  0  0  0  0
   38.7809   37.9519   56.9073 C   0  0  0  0  0  0  0  0  0  0  0  0
   38.4998   36.6769   56.4035 C   0  0  0  0  0  0  0  0  0  0  0  0
   39.4643   35.9923   55.6586 C   0  0  0  0  0  0  0  0  0  0  0  0
   40.7114   36.5869   55.4323 C   0  0  0  0  0  0  0  0  0  0  0  0
   40.9868   37.8611   55.9458 C   0  0  0  0  0  0  0  0  0  0  0  0
   41.9509   40.5905   52.0749 C   0  0  0  0  0  0  0  0  0  0  0  0
   43.1294   40.3165   52.3201 O   0  0  0  0  0  0  0  0  0  0  0  0
   41.2131   39.9809   51.1460 N   0  0  0  0  0  0  0  0  0  0  0  0
   40.2761   40.2640   51.0412 H   0  0  0  0  0  0  0  0  0  0  0  0
   41.7087   38.9214   50.2765 C   0  0  0  0  0  0  0  0  0  0  0  0
   40.9544   38.8327   48.9642 C   0  0  0  0  0  0  0  0  0  0  0  0
   39.8249   39.3639   48.8704 O   0  0  0  0  0  0  0  0  0  0  0  0
   41.4683   38.2260   48.0008 O   0  0  0  0  0  0  0  0  0  0  0  0
   42.3150   37.8351   48.0911 H   0  0  0  0  0  0  0  0  0  0  0  0
   41.6114   37.6185   51.0876 C   0  0  0  0  0  0  0  0  0  0  0  0
   40.2279   37.0065   51.1763 C   0  0  0  0  0  0  0  0  0  0  0  0
   39.7749   35.8866   50.4879 C   0  0  0  0  0  0  0  0  0  0  0  0
   39.1684   37.4227   51.9773 C   0  0  0  0  0  0  0  0  0  0  0  0
   38.4873   35.6350   50.8430 N   0  0  0  0  0  0  0  0  0  0  0  0
   38.0905   36.5604   51.7539 C   0  0  0  0  0  0  0  0  0  0  0  0
   39.0697   38.4907   52.8767 C   0  0  0  0  0  0  0  0  0  0  0  0
   36.8814   36.7762   52.4426 C   0  0  0  0  0  0  0  0  0  0  0  0
   37.8652   38.6927   53.5567 C   0  0  0  0  0  0  0  0  0  0  0  0
   36.7775   37.8432   53.3434 C   0  0  0  0  0  0  0  0  0  0  0  0
   37.9318   34.9002   50.4957 H   0  0  0  0  0  0  0  0  0  0  0  0
 37 35  1  0  0  0
 35 36  2  0  0  0
 35 34  1  0  0  0
 34 39  1  0  0  0
 34 32  1  0  0  0
 39 40  1  0  0  0
 40 41  2  0  0  0
 40 42  1  0  0  0
 42 44  1  0  0  0
 42 45  2  0  0  0
 45 47  1  0  0  0
 47 48  2  0  0  0
 48 46  1  0  0  0
 46 44  2  0  0  0
 44 43  1  0  0  0
 43 41  1  0  0  0
 32 30  1  0  0  0
 30 31  2  0  0  0
 30  1  1  0  0  0
  1  2  1  0  0  0
  1  5  1  0  0  0
  2  3  1  0  0  0
  3  4  1  0  0  0
  4  5  1  0  0  0
  5  7  1  0  0  0
  7  6  2  0  0  0
  7  8  1  0  0  0
  7 10  1  0  0  0
 10 23  1  0  0  0
 10 13  1  0  0  0
 23 24  1  0  0  0
 24 25  2  0  0  0
 24 29  1  0  0  0
 29 28  2  0  0  0
 28 27  1  0  0  0
 27 26  2  0  0  0
 26 25  1  0  0  0
 13 11  1  0  0  0
 11 12  2  0  0  0
 11 15  1  0  0  0
 15 16  1  0  0  0
 16 17  1  0  0  0
 17 18  1  0  0  0
 17 22  2  0  0  0
 18 19  2  0  0  0
 22 21  1  0  0  0
 21 20  2  0  0  0
 20 19  1  0  0  0
  8  9  1  0  0  0
 13 14  1  0  0  0
 32 33  1  0  0  0
 43 49  1  0  0  0
 37 38  1  0  0  0
M  END
> <minimizedAffinity>
-10.68503

$$$$
2OC2_RX3_A_680


 49 53  0  0  0  0  0  0  0  0999 V2000
   40.8231   40.6395   52.3554 C   0  0  0  0  0  0  0  0  0  0  0  0
   39.7160   40.6570   53.4051 C   0  0  0  0  0  0  0  0  0  0  0  0
   39.7209   39.2976   54.1070 C   0  0  0  0  0  0  0  0  0  0  0  0
   40.6937   38.3649   53.3808 C   0  0  0  0  0  0  0  0  0  0  0  0
   41.1156   39.1766   52.1895 C   0  0  0  0  0  0  0  0  0  0  0  0
   42.9642   37.7300   51.0454 O   0  0  0  0  0  0  0  0  0  0  0  0
   41.7114   38.5210   50.7161 P   0  0  0  0  0  0  0  0  0  0  0  0
   41.9833   39.7299   49.8697 O   0  0  0  0  0  0  0  0  0  0  0  0
   42.5197   40.3626   50.3725 H   0  0  0  0  0  0  0  0  0  0  0  0
   40.7514   37.3772   49.8305 C   0  0  0  0  0  0  0  0  0  0  0  0
   41.9344   36.1745   48.1082 C   0  0  0  0  0  0  0  0  0  0  0  0
   41.8784   36.9928   47.2088 O   0  0  0  0  0  0  0  0  0  0  0  0
   41.4025   36.3264   49.3222 N   0  0  0  0  0  0  0  0  0  0  0  0
   41.5036   35.5572   49.9282 H   0  0  0  0  0  0  0  0  0  0  0  0
   42.6231   34.9326   47.8350 O   0  0  0  0  0  0  0  0  0  0  0  0
   42.1283   33.9977   46.8789 C   0  0  0  0  0  0  0  0  0  0  0  0
   42.9259   34.1000   45.5925 C   0  0  0  0  0  0  0  0  0  0  0  0
   42.4895   34.9262   44.5572 C   0  0  0  0  0  0  0  0  0  0  0  0
   43.2290   35.0075   43.3745 C   0  0  0  0  0  0  0  0  0  0  0  0
   44.4095   34.2700   43.2204 C   0  0  0  0  0  0  0  0  0  0  0  0
   44.8466   33.4454   44.2529 C   0  0  0  0  0  0  0  0  0  0  0  0
   44.1068   33.3627   45.4364 C   0  0  0  0  0  0  0  0  0  0  0  0
   39.2297   37.4101   49.7449 C   0  0  0  0  0  0  0  0  0  0  0  0
   38.4859   36.8258   50.9419 C   0  0  0  0  0  0  0  0  0  0  0  0
   38.6273   35.4830   51.3214 C   0  0  0  0  0  0  0  0  0  0  0  0
   37.9283   34.9648   52.4175 C   0  0  0  0  0  0  0  0  0  0  0  0
   37.0868   35.7941   53.1645 C   0  0  0  0  0  0  0  0  0  0  0  0
   36.9423   37.1382   52.8005 C   0  0  0  0  0  0  0  0  0  0  0  0
   37.6409   37.6474   51.6977 C   0  0  0  0  0  0  0  0  0  0  0  0
   41.9935   41.4851   52.7928 C   0  0  0  0  0  0  0  0  0  0  0  0
   43.1351   41.3037   52.3593 O   0  0  0  0  0  0  0  0  0  0  0  0
   41.6648   42.4256   53.6795 N   0  0  0  0  0  0  0  0  0  0  0  0
   40.7203   42.4974   53.9480 H   0  0  0  0  0  0  0  0  0  0  0  0
   42.6177   43.3534   54.2756 C   0  0  0  0  0  0  0  0  0  0  0  0
   42.3430   43.6213   55.7424 C   0  0  0  0  0  0  0  0  0  0  0  0
   41.5720   42.8604   56.3697 O   0  0  0  0  0  0  0  0  0  0  0  0
   42.8842   44.5996   56.2995 O   0  0  0  0  0  0  0  0  0  0  0  0
   43.4584   45.1574   55.8125 H   0  0  0  0  0  0  0  0  0  0  0  0
   42.5529   44.6376   53.4321 C   0  0  0  0  0  0  0  0  0  0  0  0
   41.1646   45.2019   53.2077 C   0  0  0  0  0  0  0  0  0  0  0  0
   40.0843   45.1071   54.0781 C   0  0  0  0  0  0  0  0  0  0  0  0
   40.7180   45.9416   52.1165 C   0  0  0  0  0  0  0  0  0  0  0  0
   39.0169   45.7510   53.5364 N   0  0  0  0  0  0  0  0  0  0  0  0
   39.3769   46.2715   52.3351 C   0  0  0  0  0  0  0  0  0  0  0  0
   41.3842   46.3429   50.9527 C   0  0  0  0  0  0  0  0  0  0  0  0
   38.6830   47.0159   51.3619 C   0  0  0  0  0  0  0  0  0  0  0  0
   40.6856   47.0842   49.9954 C   0  0  0  0  0  0  0  0  0  0  0  0
   39.3449   47.4198   50.1959 C   0  0  0  0  0  0  0  0  0  0  0  0
   38.1262   45.8277   53.9487 H   0  0  0  0  0  0  0  0  0  0  0  0
 37 35  1  0  0  0
 35 36  2  0  0  0
 35 34  1  0  0  0
 34 39  1  0  0  0
 34 32  1  0  0  0
 39 40  1  0  0  0
 40 41  2  0  0  0
 40 42  1  0  0  0
 42 44  1  0  0  0
 42 45  2  0  0  0
 45 47  1  0  0  0
 47 48  2  0  0  0
 48 46  1  0  0  0
 46 44  2  0  0  0
 44 43  1  0  0  0
 43 41  1  0  0  0
 32 30  1  0  0  0
 30 31  2  0  0  0
 30  1  1  0  0  0
  1  2  1  0  0  0
  1  5  1  0  0  0
  2  3  1  0  0  0
  3  4  1  0  0  0
  4  5  1  0  0  0
  5  7  1  0  0  0
  7  6  2  0  0  0
  7  8  1  0  0  0
  7 10  1  0  0  0
 10 23  1  0  0  0
 10 13  1  0  0  0
 23 24  1  0  0  0
 24 25  2  0  0  0
 24 29  1  0  0  0
 29 28  2  0  0  0
 28 27  1  0  0  0
 27 26  2  0  0  0
 26 25  1  0  0  0
 13 11  1  0  0  0
 11 12  2  0  0  0
 11 15  1  0  0  0
 15 16  1  0  0  0
 16 17  1  0  0  0
 17 18  1  0  0  0
 17 22  2  0  0  0
 18 19  2  0  0  0
 22 21  1  0  0  0
 21 20  2  0  0  0
 20 19  1  0  0  0
  8  9  1  0  0  0
 13 14  1  0  0  0
 32 33  1  0  0  0
 43 49  1  0  0  0
 37 38  1  0  0  0
M  END
> <minimizedAffinity>
-10.68090

$$$$
2OC2_RX3_A_680


 49 53  0  0  0  0  0  0  0  0999 V2000
   40.0586   41.4493   55.7170 C   0  0  0  0  0  0  0  0  0  0  0  0
   39.1259   42.4164   56.4397 C   0  0  0  0  0  0  0  0  0  0  0  0
   38.8240   41.8265   57.8186 C   0  0  0  0  0  0  0  0  0  0  0  0
   39.4059   40.4126   57.8944 C   0  0  0  0  0  0  0  0  0  0  0  0
   39.9048   40.1764   56.4975 C   0  0  0  0  0  0  0  0  0  0  0  0
   39.4476   37.6121   56.6841 O   0  0  0  0  0  0  0  0  0  0  0  0
   40.1229   38.6286   55.7816 P   0  0  0  0  0  0  0  0  0  0  0  0
   41.6136   38.4669   55.7241 O   0  0  0  0  0  0  0  0  0  0  0  0
   41.9933   38.6572   56.5962 H   0  0  0  0  0  0  0  0  0  0  0  0
   39.4265   38.2913   54.2275 C   0  0  0  0  0  0  0  0  0  0  0  0
   40.5752   39.3801   52.4090 C   0  0  0  0  0  0  0  0  0  0  0  0
   40.1064   40.4990   52.5085 O   0  0  0  0  0  0  0  0  0  0  0  0
   40.2589   38.3406   53.1830 N   0  0  0  0  0  0  0  0  0  0  0  0
   40.7002   37.4912   52.9526 H   0  0  0  0  0  0  0  0  0  0  0  0
   41.5448   39.1566   51.3595 O   0  0  0  0  0  0  0  0  0  0  0  0
   41.1881   39.2402   49.9816 C   0  0  0  0  0  0  0  0  0  0  0  0
   40.6461   37.9060   49.5042 C   0  0  0  0  0  0  0  0  0  0  0  0
   41.5022   36.9573   48.9457 C   0  0  0  0  0  0  0  0  0  0  0  0
   40.9904   35.7346   48.5038 C   0  0  0  0  0  0  0  0  0  0  0  0
   39.6244   35.4497   48.6214 C   0  0  0  0  0  0  0  0  0  0  0  0
   38.7688   36.3953   49.1790 C   0  0  0  0  0  0  0  0  0  0  0  0
   39.2797   37.6196   49.6207 C   0  0  0  0  0  0  0  0  0  0  0  0
   38.0030   37.7914   54.0093 C   0  0  0  0  0  0  0  0  0  0  0  0
   37.8482   36.2824   53.8462 C   0  0  0  0  0  0  0  0  0  0  0  0
   38.2263   35.6195   52.6695 C   0  0  0  0  0  0  0  0  0  0  0  0
   38.0671   34.2354   52.5371 C   0  0  0  0  0  0  0  0  0  0  0  0
   37.5408   33.4888   53.5952 C   0  0  0  0  0  0  0  0  0  0  0  0
   37.1662   34.1374   54.7779 C   0  0  0  0  0  0  0  0  0  0  0  0
   37.3229   35.5244   54.8997 C   0  0  0  0  0  0  0  0  0  0  0  0
   41.4616   42.0005   55.6531 C   0  0  0  0  0  0  0  0  0  0  0  0
   42.4482   41.3274   55.9657 O   0  0  0  0  0  0  0  0  0  0  0  0
   41.5146   43.2654   55.2335 N   0  0  0  0  0  0  0  0  0  0  0  0
   40.6689   43.7079   54.9924 H   0  0  0  0  0  0  0  0  0  0  0  0
   42.7475   44.0328   55.1100 C   0  0  0  0  0  0  0  0  0  0  0  0
   42.9402   45.0270   56.2383 C   0  0  0  0  0  0  0  0  0  0  0  0
   41.9447   45.6290   56.7004 O   0  0  0  0  0  0  0  0  0  0  0  0
   44.0885   45.2347   56.6840 O   0  0  0  0  0  0  0  0  0  0  0  0
   44.8210   44.7739   56.3245 H   0  0  0  0  0  0  0  0  0  0  0  0
   42.6893   44.7222   53.7366 C   0  0  0  0  0  0  0  0  0  0  0  0
   42.5850   43.7934   52.5438 C   0  0  0  0  0  0  0  0  0  0  0  0
   43.0978   42.5040   52.4542 C   0  0  0  0  0  0  0  0  0  0  0  0
   41.9368   44.0364   51.3363 C   0  0  0  0  0  0  0  0  0  0  0  0
   42.7875   41.9839   51.2375 N   0  0  0  0  0  0  0  0  0  0  0  0
   42.0768   42.9009   50.5322 C   0  0  0  0  0  0  0  0  0  0  0  0
   41.2429   45.1650   50.8846 C   0  0  0  0  0  0  0  0  0  0  0  0
   41.5140   42.8971   49.2415 C   0  0  0  0  0  0  0  0  0  0  0  0
   40.6861   45.1480   49.6026 C   0  0  0  0  0  0  0  0  0  0  0  0
   40.8189   44.0237   48.7849 C   0  0  0  0  0  0  0  0  0  0  0  0
   43.0379   41.0867   50.9188 H   0  0  0  0  0  0  0  0  0  0  0  0
 37 35  1  0  0  0
 35 36  2  0  0  0
 35 34  1  0  0  0
 34 39  1  0  0  0
 34 32  1  0  0  0
 39 40  1  0  0  0
 40 41  2  0  0  0
 40 42  1  0  0  0
 42 44  1  0  0  0
 42 45  2  0  0  0
 45 47  1  0  0  0
 47 48  2  0  0  0
 48 46  1  0  0  0
 46 44  2  0  0  0
 44 43  1  0  0  0
 43 41  1  0  0  0
 32 30  1  0  0  0
 30 31  2  0  0  0
 30  1  1  0  0  0
  1  2  1  0  0  0
  1  5  1  0  0  0
  2  3  1  0  0  0
  3  4  1  0  0  0
  4  5  1  0  0  0
  5  7  1  0  0  0
  7  6  2  0  0  0
  7  8  1  0  0  0
  7 10  1  0  0  0
 10 23  1  0  0  0
 10 13  1  0  0  0
 23 24  1  0  0  0
 24 25  2  0  0  0
 24 29  1  0  0  0
 29 28  2  0  0  0
 28 27  1  0  0  0
 27 26  2  0  0  0
 26 25  1  0  0  0
 13 11  1  0  0  0
 11 12  2  0  0  0
 11 15  1  0  0  0
 15 16  1  0  0  0
 16 17  1  0  0  0
 17 18  1  0  0  0
 17 22  2  0  0  0
 18 19  2  0  0  0
 22 21  1  0  0  0
 21 20  2  0  0  0
 20 19  1  0  0  0
  8  9  1  0  0  0
 13 14  1  0  0  0
 32 33  1  0  0  0
 43 49  1  0  0  0
 37 38  1  0  0  0
M  END
> <minimizedAffinity>
-10.66166

$$$$
