3BUH_AED_A_394
  RCSB PDB12061708043D
Coordinates from PDB:3BUH:A:394 Model:1 without hydrogens
 16 17  0  0  0  0            999 V2000
  -22.2320   40.0130   93.2330   C 0  0  0  0  0  0  0  0  0  0  0  0
  -21.8980   43.1020   91.8040   C 0  0  0  0  0  0  0  0  0  0  0  0
  -21.9500   41.4290   89.8230   C 0  0  0  0  0  0  0  0  0  0  0  0
  -19.5630   39.3770   92.7550   C 0  0  0  0  0  0  0  0  0  0  0  0
  -21.6010   39.0620   94.0430   C 0  0  0  0  0  0  0  0  0  0  0  0
  -22.4100   44.1760   90.8400   C 0  0  0  0  0  0  0  0  0  0  0  0
  -18.1160   39.0400   92.4780   C 0  0  0  0  0  0  0  0  0  0  0  0
  -17.2610   38.9800   93.7530   C 0  0  0  0  0  0  0  0  0  0  0  0
  -23.5460   40.3090   93.4930   O 0  0  0  0  0  0  0  0  0  0  0  0
  -20.2640   38.7460   93.7930   C 0  0  0  0  0  0  0  0  0  0  0  0
  -15.8360   38.7100   93.4430   N 0  0  0  0  0  0  0  0  0  0  0  0
  -20.2120   40.3290   91.9570   C 0  0  0  0  0  0  0  0  0  0  0  0
  -21.5540   40.6580   92.1840   C 0  0  0  0  0  0  0  0  0  0  0  0
  -22.2550   41.6830   91.3190   C 0  0  0  0  0  0  0  0  0  0  0  0
  -21.7170   43.9680   89.4910   C 0  0  0  0  0  0  0  0  0  0  0  0
  -22.1550   42.6290   88.8820   C 0  0  0  0  0  0  0  0  0  0  0  0
  1  5  2  0  0  0  0
  1  9  1  0  0  0  0
  1 13  1  0  0  0  0
  2  6  1  0  0  0  0
  2 14  1  0  0  0  0
  3 14  1  0  0  0  0
  3 16  1  0  0  0  0
  4  7  1  0  0  0  0
  4 10  2  0  0  0  0
  4 12  1  0  0  0  0
  5 10  1  0  0  0  0
  6 15  1  0  0  0  0
  7  8  1  0  0  0  0
  8 11  1  0  0  0  0
 12 13  2  0  0  0  0
 13 14  1  0  0  0  0
 15 16  1  0  0  0  0
A    1
C4
A    2
C5
A    3
C6
A    4
C7
A    5
C8
A    6
C10
A    7
C13
A    8
C15
A    9
O9
A   10
C12
A   11
N16
A   12
C3
A   13
C1
A   14
C2
A   15
C14
A   16
C11
M  END
>  <InstanceId>
3BUH_AED_A_394

>  <ChemCompId>
AED

>  <PdbId>
3BUH

>  <ChainId>
A

>  <ResidueNumber>
394

>  <InsertionCode>


>  <Model>
1

>  <AltIds>


>  <MissingHeavyAtoms>
0

>  <ObservedFormula>
C14 N O

>  <Name>
4-(2-aminoethyl)-2-cyclohexylphenol

>  <SystematicName>
4-(2-aminoethyl)-2-cyclohexyl-phenol

>  <Synonyms>


>  <Type>
NON-POLYMER

>  <Formula>
C14 H21 N O

>  <MolecularWeight>
219.323

>  <ModifiedDate>
2011-06-04

>  <Parent>


>  <OneLetterCode>


>  <SubcomponentList>


>  <AmbiguousFlag>
N

>  <InChI>
InChI=1S/C14H21NO/c15-9-8-11-6-7-14(16)13(10-11)12-4-2-1-3-5-12/h6-7,10,12,16H,1-5,8-9,15H2

>  <InChIKey>
DOCCSEDGBYCYLS-UHFFFAOYSA-N

>  <SMILES>
c1cc(c(cc1CCN)C2CCCCC2)O

$$$$
