2VNP_DED_A_1182


 17 16  0  0  0  0  0  0  0  0999 V2000
   -3.8472   -3.4437   20.6443 O   0  0  0  0  0  0  0  0  0  0  0  0
   -5.0850   -1.5325   19.3529 O   0  0  0  0  0  0  0  0  0  0  0  0
   -3.8428   -2.1574   19.8291 P   0  0  0  0  0  0  0  0  0  0  0  0
   -5.6475   -1.3118   20.1117 H   0  0  0  0  0  0  0  0  0  0  0  0
   -2.9126   -1.1217   20.6458 O   0  0  0  0  0  0  0  0  0  0  0  0
   -4.0922    1.0996   20.6448 O   0  0  0  0  0  0  0  0  0  0  0  0
   -2.0603    0.8351   19.1533 O   0  0  0  0  0  0  0  0  0  0  0  0
   -1.8395    0.7528   21.6793 O   0  0  0  0  0  0  0  0  0  0  0  0
   -2.6838    0.4811   20.4919 P   0  0  0  0  0  0  0  0  0  0  0  0
   -4.0322    2.0643   20.5633 H   0  0  0  0  0  0  0  0  0  0  0  0
   -1.6225    1.6976   21.7123 H   0  0  0  0  0  0  0  0  0  0  0  0
   -3.0189   -2.4637   18.4524 O   0  0  0  0  0  0  0  0  0  0  0  0
   -1.6715   -3.0223   18.3552 C   0  0  0  0  0  0  0  0  0  0  0  0
   -0.6142   -2.1195   17.6753 C   0  0  0  0  0  0  0  0  0  0  0  0
    0.7835   -2.5796   17.9366 N   0  0  0  0  0  0  0  0  0  0  0  0
    1.2428   -3.5418   16.9269 C   0  0  0  0  0  0  0  0  0  0  0  0
    1.8652   -1.6367   18.2367 C   0  0  0  0  0  0  0  0  0  0  0  0
  6  9  1  0  0  0
  7  9  2  0  0  0
  8  9  1  0  0  0
  9  5  1  0  0  0
  5  3  1  0  0  0
  1  3  2  0  0  0
  2  3  1  0  0  0
  3 12  1  0  0  0
 12 13  1  0  0  0
 13 14  1  0  0  0
 14 15  1  0  0  0
 15 16  1  0  0  0
 15 17  1  0  0  0
  6 10  1  0  0  0
  8 11  1  0  0  0
  2  4  1  0  0  0
M  END
> <minimizedAffinity>
-6.86008

$$$$
2VNP_DED_A_1182


 17 16  0  0  0  0  0  0  0  0999 V2000
   -3.6189    0.5738   19.1446 O   0  0  0  0  0  0  0  0  0  0  0  0
   -1.8292    0.2558   21.0283 O   0  0  0  0  0  0  0  0  0  0  0  0
   -2.3812   -0.1059   19.7150 P   0  0  0  0  0  0  0  0  0  0  0  0
   -2.4996    0.1059   21.7132 H   0  0  0  0  0  0  0  0  0  0  0  0
   -2.6485   -1.6919   19.5810 O   0  0  0  0  0  0  0  0  0  0  0  0
   -5.1621   -1.6948   19.4967 O   0  0  0  0  0  0  0  0  0  0  0  0
   -4.0354   -3.0288   21.3336 O   0  0  0  0  0  0  0  0  0  0  0  0
   -3.7758   -3.6911   18.8984 O   0  0  0  0  0  0  0  0  0  0  0  0
   -3.9665   -2.5966   19.8794 P   0  0  0  0  0  0  0  0  0  0  0  0
   -5.9911   -2.1743   19.6505 H   0  0  0  0  0  0  0  0  0  0  0  0
   -4.5105   -4.3204   18.9692 H   0  0  0  0  0  0  0  0  0  0  0  0
   -1.1488    0.1990   18.6873 O   0  0  0  0  0  0  0  0  0  0  0  0
   -0.4068   -0.7897   17.9069 C   0  0  0  0  0  0  0  0  0  0  0  0
    0.6606   -1.5985   18.6826 C   0  0  0  0  0  0  0  0  0  0  0  0
    0.8782   -2.9595   18.1048 N   0  0  0  0  0  0  0  0  0  0  0  0
   -0.3665   -3.7363   18.0453 C   0  0  0  0  0  0  0  0  0  0  0  0
    1.6373   -3.1625   16.8672 C   0  0  0  0  0  0  0  0  0  0  0  0
  6  9  1  0  0  0
  7  9  2  0  0  0
  8  9  1  0  0  0
  9  5  1  0  0  0
  5  3  1  0  0  0
  1  3  2  0  0  0
  2  3  1  0  0  0
  3 12  1  0  0  0
 12 13  1  0  0  0
 13 14  1  0  0  0
 14 15  1  0  0  0
 15 16  1  0  0  0
 15 17  1  0  0  0
  6 10  1  0  0  0
  8 11  1  0  0  0
  2  4  1  0  0  0
M  END
> <minimizedAffinity>
-6.80665

$$$$
2VNP_DED_A_1182


 17 16  0  0  0  0  0  0  0  0999 V2000
   -3.6562    0.8329   19.1696 O   0  0  0  0  0  0  0  0  0  0  0  0
   -2.0497   -0.0635   21.0319 O   0  0  0  0  0  0  0  0  0  0  0  0
   -2.5367   -0.0834   19.6453 P   0  0  0  0  0  0  0  0  0  0  0  0
   -2.7801   -0.2751   21.6342 H   0  0  0  0  0  0  0  0  0  0  0  0
   -2.9482   -1.5680   19.1642 O   0  0  0  0  0  0  0  0  0  0  0  0
   -3.8051   -2.7413   21.2171 O   0  0  0  0  0  0  0  0  0  0  0  0
   -3.9934   -3.9475   18.9960 O   0  0  0  0  0  0  0  0  0  0  0  0
   -5.3126   -1.8265   19.4406 O   0  0  0  0  0  0  0  0  0  0  0  0
   -4.0792   -2.6056   19.7019 P   0  0  0  0  0  0  0  0  0  0  0  0
   -4.4489   -3.3521   21.6086 H   0  0  0  0  0  0  0  0  0  0  0  0
   -6.0855   -2.3409   19.7217 H   0  0  0  0  0  0  0  0  0  0  0  0
   -1.2081    0.2867   18.7702 O   0  0  0  0  0  0  0  0  0  0  0  0
   -0.4105   -0.6421   17.9713 C   0  0  0  0  0  0  0  0  0  0  0  0
    0.7571   -0.0144   17.1726 C   0  0  0  0  0  0  0  0  0  0  0  0
    0.2864    0.9650   16.1465 N   0  0  0  0  0  0  0  0  0  0  0  0
    0.6618    2.3426   16.4894 C   0  0  0  0  0  0  0  0  0  0  0  0
    0.4990    0.7459   14.7127 C   0  0  0  0  0  0  0  0  0  0  0  0
  6  9  1  0  0  0
  7  9  2  0  0  0
  8  9  1  0  0  0
  9  5  1  0  0  0
  5  3  1  0  0  0
  1  3  2  0  0  0
  2  3  1  0  0  0
  3 12  1  0  0  0
 12 13  1  0  0  0
 13 14  1  0  0  0
 14 15  1  0  0  0
 15 16  1  0  0  0
 15 17  1  0  0  0
  6 10  1  0  0  0
  8 11  1  0  0  0
  2  4  1  0  0  0
M  END
> <minimizedAffinity>
-6.27313

$$$$
2VNP_DED_A_1182


 17 16  0  0  0  0  0  0  0  0999 V2000
   -3.3163   -1.1607   20.5637 O   0  0  0  0  0  0  0  0  0  0  0  0
   -4.4462   -0.6005   18.2698 O   0  0  0  0  0  0  0  0  0  0  0  0
   -3.3263   -1.1588   19.0409 P   0  0  0  0  0  0  0  0  0  0  0  0
   -4.5571    0.3369   18.4931 H   0  0  0  0  0  0  0  0  0  0  0  0
   -1.9062   -0.5371   18.5919 O   0  0  0  0  0  0  0  0  0  0  0  0
   -1.1969   -2.2449   16.8873 O   0  0  0  0  0  0  0  0  0  0  0  0
    0.3224   -1.8540   18.8778 O   0  0  0  0  0  0  0  0  0  0  0  0
   -0.0590   -0.0316   17.1546 O   0  0  0  0  0  0  0  0  0  0  0  0
   -0.6112   -1.2059   17.8706 P   0  0  0  0  0  0  0  0  0  0  0  0
   -0.4738   -2.6880   16.4165 H   0  0  0  0  0  0  0  0  0  0  0  0
    0.7383   -0.2945   16.6689 H   0  0  0  0  0  0  0  0  0  0  0  0
   -3.2719   -2.7181   18.5578 O   0  0  0  0  0  0  0  0  0  0  0  0
   -3.1198   -3.8878   19.4215 C   0  0  0  0  0  0  0  0  0  0  0  0
   -4.3990   -4.7282   19.6506 C   0  0  0  0  0  0  0  0  0  0  0  0
   -4.4585   -5.3163   21.0233 N   0  0  0  0  0  0  0  0  0  0  0  0
   -4.0766   -4.3434   22.0547 C   0  0  0  0  0  0  0  0  0  0  0  0
   -5.6175   -6.0855   21.4860 C   0  0  0  0  0  0  0  0  0  0  0  0
  6  9  1  0  0  0
  7  9  2  0  0  0
  8  9  1  0  0  0
  9  5  1  0  0  0
  5  3  1  0  0  0
  1  3  2  0  0  0
  2  3  1  0  0  0
  3 12  1  0  0  0
 12 13  1  0  0  0
 13 14  1  0  0  0
 14 15  1  0  0  0
 15 16  1  0  0  0
 15 17  1  0  0  0
  6 10  1  0  0  0
  8 11  1  0  0  0
  2  4  1  0  0  0
M  END
> <minimizedAffinity>
-6.04240

$$$$
2VNP_DED_A_1182


 17 16  0  0  0  0  0  0  0  0999 V2000
   -3.5100   -1.3169   18.0612 O   0  0  0  0  0  0  0  0  0  0  0  0
   -3.4835    0.6957   19.7348 O   0  0  0  0  0  0  0  0  0  0  0  0
   -3.0869   -0.6730   19.3747 P   0  0  0  0  0  0  0  0  0  0  0  0
   -4.4513    0.7558   19.7604 H   0  0  0  0  0  0  0  0  0  0  0  0
   -3.4585   -1.7394   20.5278 O   0  0  0  0  0  0  0  0  0  0  0  0
   -5.3298   -3.1343   19.5909 O   0  0  0  0  0  0  0  0  0  0  0  0
   -4.3586   -3.8051   21.8337 O   0  0  0  0  0  0  0  0  0  0  0  0
   -2.9629   -3.9381   19.7194 O   0  0  0  0  0  0  0  0  0  0  0  0
   -4.0522   -3.2516   20.4531 P   0  0  0  0  0  0  0  0  0  0  0  0
   -5.7417   -4.0081   19.5027 H   0  0  0  0  0  0  0  0  0  0  0  0
   -3.1916   -4.8734   19.6019 H   0  0  0  0  0  0  0  0  0  0  0  0
   -1.4548   -0.6085   19.3747 O   0  0  0  0  0  0  0  0  0  0  0  0
   -0.5504   -1.5558   18.7252 C   0  0  0  0  0  0  0  0  0  0  0  0
    0.0529   -1.0960   17.3762 C   0  0  0  0  0  0  0  0  0  0  0  0
    1.2666   -1.8807   16.9956 N   0  0  0  0  0  0  0  0  0  0  0  0
    2.4631   -1.4247   17.7144 C   0  0  0  0  0  0  0  0  0  0  0  0
    1.2572   -3.3458   16.9480 C   0  0  0  0  0  0  0  0  0  0  0  0
  6  9  1  0  0  0
  7  9  2  0  0  0
  8  9  1  0  0  0
  9  5  1  0  0  0
  5  3  1  0  0  0
  1  3  2  0  0  0
  2  3  1  0  0  0
  3 12  1  0  0  0
 12 13  1  0  0  0
 13 14  1  0  0  0
 14 15  1  0  0  0
 15 16  1  0  0  0
 15 17  1  0  0  0
  6 10  1  0  0  0
  8 11  1  0  0  0
  2  4  1  0  0  0
M  END
> <minimizedAffinity>
-5.98260

$$$$
2VNP_DED_A_1182


 17 16  0  0  0  0  0  0  0  0999 V2000
   -1.9989   -0.3817   19.6028 O   0  0  0  0  0  0  0  0  0  0  0  0
   -4.2785   -1.1424   18.5648 O   0  0  0  0  0  0  0  0  0  0  0  0
   -2.8946   -1.4350   18.9645 P   0  0  0  0  0  0  0  0  0  0  0  0
   -4.2817   -0.4243   17.9127 H   0  0  0  0  0  0  0  0  0  0  0  0
   -2.0330   -2.0736   17.7584 O   0  0  0  0  0  0  0  0  0  0  0  0
    0.3391   -2.2141   18.5821 O   0  0  0  0  0  0  0  0  0  0  0  0
   -0.2045   -3.2746   16.3453 O   0  0  0  0  0  0  0  0  0  0  0  0
   -1.1929   -4.1916   18.4943 O   0  0  0  0  0  0  0  0  0  0  0  0
   -0.7001   -3.0052   17.7553 P   0  0  0  0  0  0  0  0  0  0  0  0
    1.1687   -2.7151   18.6233 H   0  0  0  0  0  0  0  0  0  0  0  0
   -0.4804   -4.8457   18.5679 H   0  0  0  0  0  0  0  0  0  0  0  0
   -3.0596   -2.6462   20.0478 O   0  0  0  0  0  0  0  0  0  0  0  0
   -4.3185   -3.2084   20.5337 C   0  0  0  0  0  0  0  0  0  0  0  0
   -4.2071   -4.1655   21.7449 C   0  0  0  0  0  0  0  0  0  0  0  0
   -4.4986   -5.5853   21.3803 N   0  0  0  0  0  0  0  0  0  0  0  0
   -5.8111   -6.0207   21.8742 C   0  0  0  0  0  0  0  0  0  0  0  0
   -4.2993   -6.0912   20.0189 C   0  0  0  0  0  0  0  0  0  0  0  0
  6  9  1  0  0  0
  7  9  2  0  0  0
  8  9  1  0  0  0
  9  5  1  0  0  0
  5  3  1  0  0  0
  1  3  2  0  0  0
  2  3  1  0  0  0
  3 12  1  0  0  0
 12 13  1  0  0  0
 13 14  1  0  0  0
 14 15  1  0  0  0
 15 16  1  0  0  0
 15 17  1  0  0  0
  6 10  1  0  0  0
  8 11  1  0  0  0
  2  4  1  0  0  0
M  END
> <minimizedAffinity>
-5.89476

$$$$
2VNP_DED_A_1182


 17 16  0  0  0  0  0  0  0  0999 V2000
   -4.2818   -1.0731   18.7053 O   0  0  0  0  0  0  0  0  0  0  0  0
   -2.5311   -0.3215   20.5005 O   0  0  0  0  0  0  0  0  0  0  0  0
   -3.0973   -1.3535   19.6204 P   0  0  0  0  0  0  0  0  0  0  0  0
   -3.2149   -0.0083   21.1131 H   0  0  0  0  0  0  0  0  0  0  0  0
   -3.4710   -2.7027   20.4235 O   0  0  0  0  0  0  0  0  0  0  0  0
   -2.9857   -4.4892   18.7212 O   0  0  0  0  0  0  0  0  0  0  0  0
   -5.3830   -4.2064   19.4931 O   0  0  0  0  0  0  0  0  0  0  0  0
   -3.5843   -4.9974   21.0978 O   0  0  0  0  0  0  0  0  0  0  0  0
   -3.9231   -4.1781   19.9102 P   0  0  0  0  0  0  0  0  0  0  0  0
   -3.2000   -5.3639   18.3607 H   0  0  0  0  0  0  0  0  0  0  0  0
   -3.8085   -5.9252   20.9252 H   0  0  0  0  0  0  0  0  0  0  0  0
   -1.8398   -1.7702   18.6649 O   0  0  0  0  0  0  0  0  0  0  0  0
   -0.5737   -1.0508   18.5365 C   0  0  0  0  0  0  0  0  0  0  0  0
    0.7046   -1.8824   18.8005 C   0  0  0  0  0  0  0  0  0  0  0  0
    1.5281   -2.0718   17.5677 N   0  0  0  0  0  0  0  0  0  0  0  0
    1.2832   -3.3759   16.9387 C   0  0  0  0  0  0  0  0  0  0  0  0
    1.6158   -1.0404   16.5297 C   0  0  0  0  0  0  0  0  0  0  0  0
  6  9  1  0  0  0
  7  9  2  0  0  0
  8  9  1  0  0  0
  9  5  1  0  0  0
  5  3  1  0  0  0
  1  3  2  0  0  0
  2  3  1  0  0  0
  3 12  1  0  0  0
 12 13  1  0  0  0
 13 14  1  0  0  0
 14 15  1  0  0  0
 15 16  1  0  0  0
 15 17  1  0  0  0
  6 10  1  0  0  0
  8 11  1  0  0  0
  2  4  1  0  0  0
M  END
> <minimizedAffinity>
-5.86208

$$$$
2VNP_DED_A_1182


 17 16  0  0  0  0  0  0  0  0999 V2000
   -2.5904   -1.4695   17.5379 O   0  0  0  0  0  0  0  0  0  0  0  0
   -1.2306   -3.0937   19.0759 O   0  0  0  0  0  0  0  0  0  0  0  0
   -2.4278   -2.2817   18.8157 P   0  0  0  0  0  0  0  0  0  0  0  0
   -0.4464   -2.5229   19.0750 H   0  0  0  0  0  0  0  0  0  0  0  0
   -2.7514   -1.2659   20.0274 O   0  0  0  0  0  0  0  0  0  0  0  0
   -1.6079    0.7229   18.9967 O   0  0  0  0  0  0  0  0  0  0  0  0
   -1.8307    0.6592   21.5205 O   0  0  0  0  0  0  0  0  0  0  0  0
   -3.8808    0.8455   20.0377 O   0  0  0  0  0  0  0  0  0  0  0  0
   -2.4998    0.3318   20.1971 P   0  0  0  0  0  0  0  0  0  0  0  0
   -1.4151    1.6729   19.0331 H   0  0  0  0  0  0  0  0  0  0  0  0
   -3.8776    1.8121   20.1186 H   0  0  0  0  0  0  0  0  0  0  0  0
   -3.6424   -3.3733   18.8493 O   0  0  0  0  0  0  0  0  0  0  0  0
   -4.5368   -3.6399   19.9746 C   0  0  0  0  0  0  0  0  0  0  0  0
   -5.0544   -5.0934   20.0953 C   0  0  0  0  0  0  0  0  0  0  0  0
   -4.9585   -5.6203   21.4906 N   0  0  0  0  0  0  0  0  0  0  0  0
   -4.4668   -4.6037   22.4291 C   0  0  0  0  0  0  0  0  0  0  0  0
   -6.0563   -6.3661   22.1133 C   0  0  0  0  0  0  0  0  0  0  0  0
  6  9  1  0  0  0
  7  9  2  0  0  0
  8  9  1  0  0  0
  9  5  1  0  0  0
  5  3  1  0  0  0
  1  3  2  0  0  0
  2  3  1  0  0  0
  3 12  1  0  0  0
 12 13  1  0  0  0
 13 14  1  0  0  0
 14 15  1  0  0  0
 15 16  1  0  0  0
 15 17  1  0  0  0
  6 10  1  0  0  0
  8 11  1  0  0  0
  2  4  1  0  0  0
M  END
> <minimizedAffinity>
-5.80390

$$$$
2VNP_DED_A_1182


 17 16  0  0  0  0  0  0  0  0999 V2000
   -0.9301   -3.2289   15.9277 O   0  0  0  0  0  0  0  0  0  0  0  0
   -0.1280   -4.3934   18.1307 O   0  0  0  0  0  0  0  0  0  0  0  0
   -0.5131   -3.1827   17.3916 P   0  0  0  0  0  0  0  0  0  0  0  0
    0.6334   -4.8088   17.6965 H   0  0  0  0  0  0  0  0  0  0  0  0
    0.6050   -2.0233   17.4946 O   0  0  0  0  0  0  0  0  0  0  0  0
    0.3168   -0.7181   15.3642 O   0  0  0  0  0  0  0  0  0  0  0  0
    2.0549    0.0882   17.0233 O   0  0  0  0  0  0  0  0  0  0  0  0
   -0.4155    0.1403   17.5985 O   0  0  0  0  0  0  0  0  0  0  0  0
    0.6779   -0.5297   16.8554 P   0  0  0  0  0  0  0  0  0  0  0  0
    0.3405    0.1412   14.9148 H   0  0  0  0  0  0  0  0  0  0  0  0
   -0.4853    1.0633   17.3085 H   0  0  0  0  0  0  0  0  0  0  0  0
   -1.7882   -2.6105   18.2369 O   0  0  0  0  0  0  0  0  0  0  0  0
   -2.7427   -3.4045   19.0086 C   0  0  0  0  0  0  0  0  0  0  0  0
   -3.5567   -2.6322   20.0745 C   0  0  0  0  0  0  0  0  0  0  0  0
   -4.4305   -3.5309   20.8884 N   0  0  0  0  0  0  0  0  0  0  0  0
   -5.1312   -4.5169   20.0560 C   0  0  0  0  0  0  0  0  0  0  0  0
   -3.9468   -4.1818   22.1097 C   0  0  0  0  0  0  0  0  0  0  0  0
  6  9  1  0  0  0
  7  9  2  0  0  0
  8  9  1  0  0  0
  9  5  1  0  0  0
  5  3  1  0  0  0
  1  3  2  0  0  0
  2  3  1  0  0  0
  3 12  1  0  0  0
 12 13  1  0  0  0
 13 14  1  0  0  0
 14 15  1  0  0  0
 15 16  1  0  0  0
 15 17  1  0  0  0
  6 10  1  0  0  0
  8 11  1  0  0  0
  2  4  1  0  0  0
M  END
> <minimizedAffinity>
-5.70702

$$$$
2VNP_DED_A_1182


 17 16  0  0  0  0  0  0  0  0999 V2000
    0.3603   -1.5175   19.1967 O   0  0  0  0  0  0  0  0  0  0  0  0
   -0.9528    0.5950   18.3809 O   0  0  0  0  0  0  0  0  0  0  0  0
   -0.8697   -0.8578   18.5875 P   0  0  0  0  0  0  0  0  0  0  0  0
   -0.2351    0.8797   17.7937 H   0  0  0  0  0  0  0  0  0  0  0  0
   -1.1912   -1.6854   17.2397 O   0  0  0  0  0  0  0  0  0  0  0  0
    0.7994   -3.1099   16.6624 O   0  0  0  0  0  0  0  0  0  0  0  0
    0.4280   -0.9916   15.3215 O   0  0  0  0  0  0  0  0  0  0  0  0
   -1.2147   -2.9204   15.1885 O   0  0  0  0  0  0  0  0  0  0  0  0
   -0.2394   -2.1677   16.0125 P   0  0  0  0  0  0  0  0  0  0  0  0
    1.4072   -3.4395   15.9821 H   0  0  0  0  0  0  0  0  0  0  0  0
   -0.7695   -3.2732   14.4022 H   0  0  0  0  0  0  0  0  0  0  0  0
   -2.1265   -1.1731   19.5819 O   0  0  0  0  0  0  0  0  0  0  0  0
   -3.2809   -2.0170   19.2783 C   0  0  0  0  0  0  0  0  0  0  0  0
   -4.0258   -2.6064   20.5001 C   0  0  0  0  0  0  0  0  0  0  0  0
   -3.8081   -4.0777   20.6473 N   0  0  0  0  0  0  0  0  0  0  0  0
   -3.9737   -4.5211   22.0373 C   0  0  0  0  0  0  0  0  0  0  0  0
   -4.4421   -5.0474   19.7491 C   0  0  0  0  0  0  0  0  0  0  0  0
  6  9  1  0  0  0
  7  9  2  0  0  0
  8  9  1  0  0  0
  9  5  1  0  0  0
  5  3  1  0  0  0
  1  3  2  0  0  0
  2  3  1  0  0  0
  3 12  1  0  0  0
 12 13  1  0  0  0
 13 14  1  0  0  0
 14 15  1  0  0  0
 15 16  1  0  0  0
 15 17  1  0  0  0
  6 10  1  0  0  0
  8 11  1  0  0  0
  2  4  1  0  0  0
M  END
> <minimizedAffinity>
-5.50341

$$$$
