3BL0_BL0_A_300


 15 15  0  0  0  0  0  0  0  0999 V2000
   -3.2174    3.0433   11.7992 C   0  0  0  0  0  0  0  0  0  0  0  0
   -3.9946    3.8267   13.1323 S   0  0  0  0  0  0  0  0  0  0  0  0
   -3.2096    1.7167   11.9489 N   0  0  0  0  0  0  0  0  0  0  0  0
   -3.8442    1.2911   13.1238 N   0  0  0  0  0  0  0  0  0  0  0  0
   -4.3314    2.2956   13.8881 C   0  0  0  0  0  0  0  0  0  0  0  0
   -3.5260    4.4324    9.8039 C   0  0  0  0  0  0  0  0  0  0  0  0
   -2.6816    3.6598   10.6884 N   0  0  0  0  0  0  0  0  0  0  0  0
   -1.2668    3.6823   10.3919 C   0  0  0  0  0  0  0  0  0  0  0  0
   -5.1003    2.2873   15.1830 C   0  0  0  0  0  0  0  0  0  0  0  0
   -4.5614    1.2748   16.3844 S   0  0  0  0  0  0  0  0  0  0  0  0
   -5.3434    1.4066   17.5117 O   0  0  0  0  0  0  0  0  0  0  0  0
   -4.6408   -0.2004   15.9120 N   0  0  0  0  0  0  0  0  0  0  0  0
   -3.1718    1.4890   16.5791 O   0  0  0  0  0  0  0  0  0  0  0  0
   -5.6149   -0.4516   15.7437 H   0  0  0  0  0  0  0  0  0  0  0  0
   -4.2522   -0.8094   16.6322 H   0  0  0  0  0  0  0  0  0  0  0  0
  6  7  1  0  0  0
  7  1  1  0  0  0
  8  7  1  0  0  0
  1  3  2  0  0  0
  1  2  1  0  0  0
  2  5  1  0  0  0
  3  4  1  0  0  0
  4  5  2  0  0  0
  9  5  1  0  0  0
  9 10  1  0  0  0
 10 11  2  0  0  0
 10 13  2  0  0  0
 12 10  1  0  0  0
 12 14  1  0  0  0
 12 15  1  0  0  0
M  END
> <minimizedAffinity>
-5.51352

$$$$
3BL0_BL0_A_300


 15 15  0  0  0  0  0  0  0  0999 V2000
   -4.6523    4.6247   12.7935 C   0  0  0  0  0  0  0  0  0  0  0  0
   -5.6540    4.4881   14.1981 S   0  0  0  0  0  0  0  0  0  0  0  0
   -3.8672    3.5548   12.6472 N   0  0  0  0  0  0  0  0  0  0  0  0
   -4.0619    2.5882   13.6432 N   0  0  0  0  0  0  0  0  0  0  0  0
   -4.9922    2.9215   14.5675 C   0  0  0  0  0  0  0  0  0  0  0  0
   -4.2494    5.4468   10.5202 C   0  0  0  0  0  0  0  0  0  0  0  0
   -4.6444    5.6694   11.8938 N   0  0  0  0  0  0  0  0  0  0  0  0
   -5.1241    6.9969   12.2068 C   0  0  0  0  0  0  0  0  0  0  0  0
   -5.5304    2.1774   15.7611 C   0  0  0  0  0  0  0  0  0  0  0  0
   -4.5893    0.9627   16.3916 S   0  0  0  0  0  0  0  0  0  0  0  0
   -5.1787    0.4333   17.5194 O   0  0  0  0  0  0  0  0  0  0  0  0
   -4.4257   -0.1771   15.3525 N   0  0  0  0  0  0  0  0  0  0  0  0
   -3.2668    1.4476   16.5665 O   0  0  0  0  0  0  0  0  0  0  0  0
   -5.3363   -0.5939   15.1588 H   0  0  0  0  0  0  0  0  0  0  0  0
   -3.7981   -0.8896   15.7253 H   0  0  0  0  0  0  0  0  0  0  0  0
  6  7  1  0  0  0
  7  1  1  0  0  0
  8  7  1  0  0  0
  1  3  2  0  0  0
  1  2  1  0  0  0
  2  5  1  0  0  0
  3  4  1  0  0  0
  4  5  2  0  0  0
  9  5  1  0  0  0
  9 10  1  0  0  0
 10 11  2  0  0  0
 10 13  2  0  0  0
 12 10  1  0  0  0
 12 14  1  0  0  0
 12 15  1  0  0  0
M  END
> <minimizedAffinity>
-5.44289

$$$$
3BL0_BL0_A_300


 15 15  0  0  0  0  0  0  0  0999 V2000
   -4.8725    4.1327   13.0234 C   0  0  0  0  0  0  0  0  0  0  0  0
   -4.5084    2.6438   13.8267 S   0  0  0  0  0  0  0  0  0  0  0  0
   -4.8589    3.9881   11.6963 N   0  0  0  0  0  0  0  0  0  0  0  0
   -4.5777    2.6772   11.2878 N   0  0  0  0  0  0  0  0  0  0  0  0
   -4.3615    1.8119   12.3052 C   0  0  0  0  0  0  0  0  0  0  0  0
   -6.4789    5.9311   13.4613 C   0  0  0  0  0  0  0  0  0  0  0  0
   -5.1712    5.3356   13.6276 N   0  0  0  0  0  0  0  0  0  0  0  0
   -4.2772    6.0161   14.5375 C   0  0  0  0  0  0  0  0  0  0  0  0
   -4.0714    0.3342   12.3194 C   0  0  0  0  0  0  0  0  0  0  0  0
   -3.4286   -0.3310   10.9399 S   0  0  0  0  0  0  0  0  0  0  0  0
   -3.2852   -1.6942   11.0845 O   0  0  0  0  0  0  0  0  0  0  0  0
   -4.3700   -0.0701    9.7351 N   0  0  0  0  0  0  0  0  0  0  0  0
   -2.2445    0.3727   10.5971 O   0  0  0  0  0  0  0  0  0  0  0  0
   -5.2604   -0.5426    9.8908 H   0  0  0  0  0  0  0  0  0  0  0  0
   -3.9391   -0.4290    8.8830 H   0  0  0  0  0  0  0  0  0  0  0  0
  6  7  1  0  0  0
  7  1  1  0  0  0
  8  7  1  0  0  0
  1  3  2  0  0  0
  1  2  1  0  0  0
  2  5  1  0  0  0
  3  4  1  0  0  0
  4  5  2  0  0  0
  9  5  1  0  0  0
  9 10  1  0  0  0
 10 11  2  0  0  0
 10 13  2  0  0  0
 12 10  1  0  0  0
 12 14  1  0  0  0
 12 15  1  0  0  0
M  END
> <minimizedAffinity>
-5.42360

$$$$
3BL0_BL0_A_300


 15 15  0  0  0  0  0  0  0  0999 V2000
   -4.1925    1.5297   12.8385 C   0  0  0  0  0  0  0  0  0  0  0  0
   -4.7280    2.8062   13.8771 S   0  0  0  0  0  0  0  0  0  0  0  0
   -3.9938    0.3978   13.5179 N   0  0  0  0  0  0  0  0  0  0  0  0
   -4.2853    0.5165   14.8836 N   0  0  0  0  0  0  0  0  0  0  0  0
   -4.6981    1.7491   15.2591 C   0  0  0  0  0  0  0  0  0  0  0  0
   -3.7512    0.4143   10.7013 C   0  0  0  0  0  0  0  0  0  0  0  0
   -4.0041    1.6101   11.4750 N   0  0  0  0  0  0  0  0  0  0  0  0
   -4.1549    2.8329   10.7185 C   0  0  0  0  0  0  0  0  0  0  0  0
   -5.1408    2.2950   16.5910 C   0  0  0  0  0  0  0  0  0  0  0  0
   -6.1617    1.3527   17.5012 S   0  0  0  0  0  0  0  0  0  0  0  0
   -7.4259    1.3435   16.9522 O   0  0  0  0  0  0  0  0  0  0  0  0
   -5.6426   -0.1084   17.5414 N   0  0  0  0  0  0  0  0  0  0  0  0
   -6.0895    1.7702   18.8559 O   0  0  0  0  0  0  0  0  0  0  0  0
   -5.6571   -0.5004   16.5999 H   0  0  0  0  0  0  0  0  0  0  0  0
   -6.2416   -0.6654   18.1509 H   0  0  0  0  0  0  0  0  0  0  0  0
  6  7  1  0  0  0
  7  1  1  0  0  0
  8  7  1  0  0  0
  1  3  2  0  0  0
  1  2  1  0  0  0
  2  5  1  0  0  0
  3  4  1  0  0  0
  4  5  2  0  0  0
  9  5  1  0  0  0
  9 10  1  0  0  0
 10 11  2  0  0  0
 10 13  2  0  0  0
 12 10  1  0  0  0
 12 14  1  0  0  0
 12 15  1  0  0  0
M  END
> <minimizedAffinity>
-5.32996

$$$$
3BL0_BL0_A_300


 15 15  0  0  0  0  0  0  0  0999 V2000
   -3.9187    4.8229   12.7883 C   0  0  0  0  0  0  0  0  0  0  0  0
   -3.6715    4.2950   14.4178 S   0  0  0  0  0  0  0  0  0  0  0  0
   -4.9439    4.1855   12.2183 N   0  0  0  0  0  0  0  0  0  0  0  0
   -5.5720    3.2735   13.0774 N   0  0  0  0  0  0  0  0  0  0  0  0
   -5.0194    3.1995   14.3102 C   0  0  0  0  0  0  0  0  0  0  0  0
   -3.4643    7.1930   12.3613 C   0  0  0  0  0  0  0  0  0  0  0  0
   -3.1960    5.7915   12.1245 N   0  0  0  0  0  0  0  0  0  0  0  0
   -2.0749    5.4994   11.2595 C   0  0  0  0  0  0  0  0  0  0  0  0
   -5.3922    2.3973   15.5290 C   0  0  0  0  0  0  0  0  0  0  0  0
   -4.4871    1.0442   15.8587 S   0  0  0  0  0  0  0  0  0  0  0  0
   -3.3593    1.3824   16.5753 O   0  0  0  0  0  0  0  0  0  0  0  0
   -5.3154    0.0438   16.7066 N   0  0  0  0  0  0  0  0  0  0  0  0
   -4.2512    0.3411   14.6484 O   0  0  0  0  0  0  0  0  0  0  0  0
   -5.5370    0.4649   17.6088 H   0  0  0  0  0  0  0  0  0  0  0  0
   -4.7736   -0.8079   16.8528 H   0  0  0  0  0  0  0  0  0  0  0  0
  6  7  1  0  0  0
  7  1  1  0  0  0
  8  7  1  0  0  0
  1  3  2  0  0  0
  1  2  1  0  0  0
  2  5  1  0  0  0
  3  4  1  0  0  0
  4  5  2  0  0  0
  9  5  1  0  0  0
  9 10  1  0  0  0
 10 11  2  0  0  0
 10 13  2  0  0  0
 12 10  1  0  0  0
 12 14  1  0  0  0
 12 15  1  0  0  0
M  END
> <minimizedAffinity>
-5.26853

$$$$
3BL0_BL0_A_300


 15 15  0  0  0  0  0  0  0  0999 V2000
   -4.9195    2.1901   15.0221 C   0  0  0  0  0  0  0  0  0  0  0  0
   -4.7775    3.7605   14.3090 S   0  0  0  0  0  0  0  0  0  0  0  0
   -4.2580    1.2708   14.3152 N   0  0  0  0  0  0  0  0  0  0  0  0
   -3.6026    1.8026   13.1964 N   0  0  0  0  0  0  0  0  0  0  0  0
   -3.7710    3.1352   13.0344 C   0  0  0  0  0  0  0  0  0  0  0  0
   -6.7015    2.6962   16.6266 C   0  0  0  0  0  0  0  0  0  0  0  0
   -5.5945    1.8777   16.1830 N   0  0  0  0  0  0  0  0  0  0  0  0
   -5.3379    0.6858   16.9601 C   0  0  0  0  0  0  0  0  0  0  0  0
   -3.2260    4.0972   12.0119 C   0  0  0  0  0  0  0  0  0  0  0  0
   -3.7875    3.9560   10.4552 S   0  0  0  0  0  0  0  0  0  0  0  0
   -2.7397    3.9916    9.5604 O   0  0  0  0  0  0  0  0  0  0  0  0
   -4.5280    2.6048   10.2774 N   0  0  0  0  0  0  0  0  0  0  0  0
   -4.8033    4.9242   10.2418 O   0  0  0  0  0  0  0  0  0  0  0  0
   -3.8711    1.8365   10.4138 H   0  0  0  0  0  0  0  0  0  0  0  0
   -4.9208    2.5534    9.3374 H   0  0  0  0  0  0  0  0  0  0  0  0
  6  7  1  0  0  0
  7  1  1  0  0  0
  8  7  1  0  0  0
  1  3  2  0  0  0
  1  2  1  0  0  0
  2  5  1  0  0  0
  3  4  1  0  0  0
  4  5  2  0  0  0
  9  5  1  0  0  0
  9 10  1  0  0  0
 10 11  2  0  0  0
 10 13  2  0  0  0
 12 10  1  0  0  0
 12 14  1  0  0  0
 12 15  1  0  0  0
M  END
> <minimizedAffinity>
-5.19152

$$$$
3BL0_BL0_A_300


 15 15  0  0  0  0  0  0  0  0999 V2000
   -4.1231    4.2394   13.1706 C   0  0  0  0  0  0  0  0  0  0  0  0
   -5.1224    2.8266   13.1886 S   0  0  0  0  0  0  0  0  0  0  0  0
   -2.8866    3.9581   12.7530 N   0  0  0  0  0  0  0  0  0  0  0  0
   -2.7125    2.6088   12.4160 N   0  0  0  0  0  0  0  0  0  0  0  0
   -3.8166    1.8458   12.5873 C   0  0  0  0  0  0  0  0  0  0  0  0
   -3.5242    6.4970   13.9126 C   0  0  0  0  0  0  0  0  0  0  0  0
   -4.5102    5.5187   13.5090 N   0  0  0  0  0  0  0  0  0  0  0  0
   -5.8662    6.0033   13.3801 C   0  0  0  0  0  0  0  0  0  0  0  0
   -4.0783    0.3872   12.3188 C   0  0  0  0  0  0  0  0  0  0  0  0
   -3.4926   -0.2448   10.8989 S   0  0  0  0  0  0  0  0  0  0  0  0
   -4.3346    0.0623    9.8518 O   0  0  0  0  0  0  0  0  0  0  0  0
   -2.0961    0.3536   10.5864 N   0  0  0  0  0  0  0  0  0  0  0  0
   -3.2298   -1.6274   11.0833 O   0  0  0  0  0  0  0  0  0  0  0  0
   -2.1829    1.3588   10.4362 H   0  0  0  0  0  0  0  0  0  0  0  0
   -1.7189   -0.0844    9.7460 H   0  0  0  0  0  0  0  0  0  0  0  0
  6  7  1  0  0  0
  7  1  1  0  0  0
  8  7  1  0  0  0
  1  3  2  0  0  0
  1  2  1  0  0  0
  2  5  1  0  0  0
  3  4  1  0  0  0
  4  5  2  0  0  0
  9  5  1  0  0  0
  9 10  1  0  0  0
 10 11  2  0  0  0
 10 13  2  0  0  0
 12 10  1  0  0  0
 12 14  1  0  0  0
 12 15  1  0  0  0
M  END
> <minimizedAffinity>
-4.94542

$$$$
3BL0_BL0_A_300


 15 15  0  0  0  0  0  0  0  0999 V2000
   -2.8066    1.9305   12.1536 C   0  0  0  0  0  0  0  0  0  0  0  0
   -4.0551    1.0146   12.9264 S   0  0  0  0  0  0  0  0  0  0  0  0
   -2.6940    3.1496   12.6859 N   0  0  0  0  0  0  0  0  0  0  0  0
   -3.5894    3.3752   13.7403 N   0  0  0  0  0  0  0  0  0  0  0  0
   -4.4034    2.3293   14.0122 C   0  0  0  0  0  0  0  0  0  0  0  0
   -1.0486    2.4065   10.5138 C   0  0  0  0  0  0  0  0  0  0  0  0
   -1.9871    1.4966   11.1332 N   0  0  0  0  0  0  0  0  0  0  0  0
   -1.9174    0.1206   10.6949 C   0  0  0  0  0  0  0  0  0  0  0  0
   -5.4638    2.1314   15.0632 C   0  0  0  0  0  0  0  0  0  0  0  0
   -5.0342    1.2975   16.4338 S   0  0  0  0  0  0  0  0  0  0  0  0
   -5.4058   -0.0256   16.3286 O   0  0  0  0  0  0  0  0  0  0  0  0
   -3.4965    1.3526   16.6299 N   0  0  0  0  0  0  0  0  0  0  0  0
   -5.5404    1.9836   17.5686 O   0  0  0  0  0  0  0  0  0  0  0  0
   -3.0374    0.8782   15.8524 H   0  0  0  0  0  0  0  0  0  0  0  0
   -3.2485    0.8902   17.5046 H   0  0  0  0  0  0  0  0  0  0  0  0
  6  7  1  0  0  0
  7  1  1  0  0  0
  8  7  1  0  0  0
  1  3  2  0  0  0
  1  2  1  0  0  0
  2  5  1  0  0  0
  3  4  1  0  0  0
  4  5  2  0  0  0
  9  5  1  0  0  0
  9 10  1  0  0  0
 10 11  2  0  0  0
 10 13  2  0  0  0
 12 10  1  0  0  0
 12 14  1  0  0  0
 12 15  1  0  0  0
M  END
> <minimizedAffinity>
-4.85304

$$$$
3BL0_BL0_A_300


 15 15  0  0  0  0  0  0  0  0999 V2000
   -2.1917    5.3396   12.9092 C   0  0  0  0  0  0  0  0  0  0  0  0
   -1.8190    4.3960   11.5072 S   0  0  0  0  0  0  0  0  0  0  0  0
   -2.9587    4.6607   13.7655 N   0  0  0  0  0  0  0  0  0  0  0  0
   -3.2505    3.3602   13.3321 N   0  0  0  0  0  0  0  0  0  0  0  0
   -2.7161    3.0413   12.1307 C   0  0  0  0  0  0  0  0  0  0  0  0
   -2.3604    7.3941   14.2346 C   0  0  0  0  0  0  0  0  0  0  0  0
   -1.7574    6.6218   13.1705 N   0  0  0  0  0  0  0  0  0  0  0  0
   -0.6282    7.2336   12.5064 C   0  0  0  0  0  0  0  0  0  0  0  0
   -2.7464    1.7683   11.3265 C   0  0  0  0  0  0  0  0  0  0  0  0
   -4.1803    0.9315   11.2754 S   0  0  0  0  0  0  0  0  0  0  0  0
   -4.2390    0.0140   12.3023 O   0  0  0  0  0  0  0  0  0  0  0  0
   -5.3732    1.9100   11.4339 N   0  0  0  0  0  0  0  0  0  0  0  0
   -4.3566    0.3982    9.9718 O   0  0  0  0  0  0  0  0  0  0  0  0
   -5.3326    2.3494   12.3535 H   0  0  0  0  0  0  0  0  0  0  0  0
   -6.2493    1.3960   11.3410 H   0  0  0  0  0  0  0  0  0  0  0  0
  6  7  1  0  0  0
  7  1  1  0  0  0
  8  7  1  0  0  0
  1  3  2  0  0  0
  1  2  1  0  0  0
  2  5  1  0  0  0
  3  4  1  0  0  0
  4  5  2  0  0  0
  9  5  1  0  0  0
  9 10  1  0  0  0
 10 11  2  0  0  0
 10 13  2  0  0  0
 12 10  1  0  0  0
 12 14  1  0  0  0
 12 15  1  0  0  0
M  END
> <minimizedAffinity>
-4.79210

$$$$
3BL0_BL0_A_300


 15 15  0  0  0  0  0  0  0  0999 V2000
   -4.5115    2.2585   14.1930 C   0  0  0  0  0  0  0  0  0  0  0  0
   -4.1644    3.6680   13.2509 S   0  0  0  0  0  0  0  0  0  0  0  0
   -4.0420    1.1531   13.6099 N   0  0  0  0  0  0  0  0  0  0  0  0
   -3.3736    1.4074   12.4046 N   0  0  0  0  0  0  0  0  0  0  0  0
   -3.3397    2.7133   12.0521 C   0  0  0  0  0  0  0  0  0  0  0  0
   -4.7053    1.3446   16.4587 C   0  0  0  0  0  0  0  0  0  0  0  0
   -5.1624    2.2275   15.4080 N   0  0  0  0  0  0  0  0  0  0  0  0
   -6.2404    3.1244   15.7599 C   0  0  0  0  0  0  0  0  0  0  0  0
   -2.7075    3.4193   10.8817 C   0  0  0  0  0  0  0  0  0  0  0  0
   -1.0536    3.3454   10.7480 S   0  0  0  0  0  0  0  0  0  0  0  0
   -0.5467    4.5678   10.3627 O   0  0  0  0  0  0  0  0  0  0  0  0
   -0.4255    2.9723   12.1163 N   0  0  0  0  0  0  0  0  0  0  0  0
   -0.7070    2.2518    9.9121 O   0  0  0  0  0  0  0  0  0  0  0  0
   -0.6237    3.7088   12.7935 H   0  0  0  0  0  0  0  0  0  0  0  0
    0.5839    2.8703   12.0105 H   0  0  0  0  0  0  0  0  0  0  0  0
  6  7  1  0  0  0
  7  1  1  0  0  0
  8  7  1  0  0  0
  1  3  2  0  0  0
  1  2  1  0  0  0
  2  5  1  0  0  0
  3  4  1  0  0  0
  4  5  2  0  0  0
  9  5  1  0  0  0
  9 10  1  0  0  0
 10 11  2  0  0  0
 10 13  2  0  0  0
 12 10  1  0  0  0
 12 14  1  0  0  0
 12 15  1  0  0  0
M  END
> <minimizedAffinity>
-4.66727

$$$$
