3BL0_BL0_A_300
  RCSB PDB12061708023D
Coordinates from PDB:3BL0:A:300 Model:1 without hydrogens
 13 13  0  0  0  0            999 V2000
   -4.3930    7.4330   12.8310   C 0  0  0  0  0  0  0  0  0  0  0  0
   -5.2990    6.3810   13.2370   N 0  0  0  0  0  0  0  0  0  0  0  0
   -6.7030    6.6270   12.9950   C 0  0  0  0  0  0  0  0  0  0  0  0
   -4.8070    5.1870   13.7200   C 0  0  0  0  0  0  0  0  0  0  0  0
   -5.7200    3.7480   14.0210   S 0  0  0  0  0  0  0  0  0  0  0  0
   -3.5120    5.0100   13.9920   N 0  0  0  0  0  0  0  0  0  0  0  0
   -3.2130    3.7120   14.4280   N 0  0  0  0  0  0  0  0  0  0  0  0
   -4.2850    2.8900   14.5040   C 0  0  0  0  0  0  0  0  0  0  0  0
   -4.4090    1.4370   14.8800   C 0  0  0  0  0  0  0  0  0  0  0  0
   -5.2240    1.0780   16.2820   S 0  0  0  0  0  0  0  0  0  0  0  0
   -6.5510    1.4340   16.1720   O 0  0  0  0  0  0  0  0  0  0  0  0
   -5.1550   -0.4460   16.5620   N 0  0  0  0  0  0  0  0  0  0  0  0
   -4.5290    1.6510   17.3790   O 0  0  0  0  0  0  0  0  0  0  0  0
  1  2  1  0  0  0  0
  2  4  1  0  0  0  0
  3  2  1  0  0  0  0
  4  6  2  0  0  0  0
  4  5  1  0  0  0  0
  5  8  1  0  0  0  0
  6  7  1  0  0  0  0
  7  8  2  0  0  0  0
  9  8  1  0  0  0  0
  9 10  1  0  0  0  0
 10 11  2  0  0  0  0
 10 13  2  0  0  0  0
 12 10  1  0  0  0  0
A    1
CA1
A    2
NA1
A    3
CA2
A    4
CA3
A    5
SA1
A    6
NA2
A    7
NA3
A    8
CA4
A    9
CA5
A   10
SA2
A   11
OA1
A   12
NA4
A   13
OA2
M  END
>  <InstanceId>
3BL0_BL0_A_300

>  <ChemCompId>
BL0

>  <PdbId>
3BL0

>  <ChainId>
A

>  <ResidueNumber>
300

>  <InsertionCode>


>  <Model>
1

>  <AltIds>


>  <MissingHeavyAtoms>
0

>  <ObservedFormula>
C5 N4 O2 S2

>  <Name>
1-[5-(dimethylamino)-1,3,4-thiadiazol-2-yl]methanesulfonamide

>  <SystematicName>
(5-dimethylamino-1,3,4-thiadiazol-2-yl)methanesulfonamide

>  <Synonyms>
2-N,N-Dimethylamino-1,3,4-thiadiazole-5-methanesulfonamide

>  <Type>
NON-POLYMER

>  <Formula>
C5 H10 N4 O2 S2

>  <MolecularWeight>
222.288

>  <ModifiedDate>
2011-06-04

>  <Parent>


>  <OneLetterCode>


>  <SubcomponentList>


>  <AmbiguousFlag>
N

>  <InChI>
InChI=1S/C5H10N4O2S2/c1-9(2)5-8-7-4(12-5)3-13(6,10)11/h3H2,1-2H3,(H2,6,10,11)

>  <InChIKey>
HZGQWVQLUYIYQA-UHFFFAOYSA-N

>  <SMILES>
CN(C)c1nnc(s1)CS(=O)(=O)N

$$$$
