6MA2_J9S_A_1101


 40 43  0  0  0  0  0  0  0  0999 V2000
   -1.2830  -43.6835   13.4011 C   0  0  0  0  0  0  0  0  0  0  0  0
   -0.4830  -46.1715   13.6728 C   0  0  0  0  0  0  0  0  0  0  0  0
   -1.0067  -45.1321   12.8401 C   0  0  0  0  0  0  0  0  0  0  0  0
   -0.2374  -47.4597   13.1580 C   0  0  0  0  0  0  0  0  0  0  0  0
   -0.4989  -47.7544   11.8066 C   0  0  0  0  0  0  0  0  0  0  0  0
   -1.0152  -46.7612   10.9584 C   0  0  0  0  0  0  0  0  0  0  0  0
   -1.2627  -45.4582   11.4754 C   0  0  0  0  0  0  0  0  0  0  0  0
   -0.2426  -45.8089   15.0074 O   0  0  0  0  0  0  0  0  0  0  0  0
    0.3553  -46.7257   15.9691 C   0  0  0  0  0  0  0  0  0  0  0  0
   -2.7716  -43.5498   14.1078 C   0  0  0  0  0  0  0  0  0  0  0  0
   -3.5009  -42.4031   14.3187 N   0  0  0  0  0  0  0  0  0  0  0  0
   -3.1576  -44.7156   14.4132 O   0  0  0  0  0  0  0  0  0  0  0  0
   -3.0405  -40.9651   13.9347 C   0  0  0  0  0  0  0  0  0  0  0  0
   -2.5688  -40.0014   15.0948 C   0  0  0  0  0  0  0  0  0  0  0  0
   -2.9792  -38.7429   15.4989 C   0  0  0  0  0  0  0  0  0  0  0  0
   -1.3180  -38.9991   17.1444 C   0  0  0  0  0  0  0  0  0  0  0  0
   -2.2884  -38.1845   16.6302 C   0  0  0  0  0  0  0  0  0  0  0  0
   -1.2746  -40.4622   16.2049 S   0  0  0  0  0  0  0  0  0  0  0  0
   -4.8476  -42.4322   14.9358 C   0  0  0  0  0  0  0  0  0  0  0  0
   -4.8426  -41.9139   16.4918 C   0  0  0  0  0  0  0  0  0  0  0  0
   -5.5852  -40.9330   16.7451 O   0  0  0  0  0  0  0  0  0  0  0  0
   -4.1063  -42.4946   17.3355 O   0  0  0  0  0  0  0  0  0  0  0  0
   -6.1060  -40.5519   16.0658 H   0  0  0  0  0  0  0  0  0  0  0  0
   -0.2054  -43.1902   14.3431 N   0  0  0  0  0  0  0  0  0  0  0  0
   -0.5695  -42.3631   14.8161 H   0  0  0  0  0  0  0  0  0  0  0  0
    1.2851  -42.7742   13.6779 S   0  0  0  0  0  0  0  0  0  0  0  0
    1.7521  -41.6053   14.3169 O   0  0  0  0  0  0  0  0  0  0  0  0
    1.3270  -42.7483   12.2736 O   0  0  0  0  0  0  0  0  0  0  0  0
    6.6440  -48.0195   17.2593 O   0  0  0  0  0  0  0  0  0  0  0  0
    5.8664  -47.1311   16.9515 C   0  0  0  0  0  0  0  0  0  0  0  0
    5.2978  -47.1620   15.6616 N   0  0  0  0  0  0  0  0  0  0  0  0
    4.3708  -46.1618   15.2183 C   0  0  0  0  0  0  0  0  0  0  0  0
    4.0091  -45.0936   16.0886 C   0  0  0  0  0  0  0  0  0  0  0  0
    4.6077  -45.0366   17.4360 C   0  0  0  0  0  0  0  0  0  0  0  0
    5.4967  -46.0146   17.8549 C   0  0  0  0  0  0  0  0  0  0  0  0
    3.0686  -44.1083   15.5811 C   0  0  0  0  0  0  0  0  0  0  0  0
    2.4805  -44.1297   14.3089 C   0  0  0  0  0  0  0  0  0  0  0  0
    2.8918  -45.2109   13.4588 C   0  0  0  0  0  0  0  0  0  0  0  0
    3.7931  -46.2056   13.9010 C   0  0  0  0  0  0  0  0  0  0  0  0
    5.5444  -47.8912   15.0477 H   0  0  0  0  0  0  0  0  0  0  0  0
 29 30  2  0  0  0
 30 35  1  0  0  0
 30 31  1  0  0  0
 35 34  2  0  0  0
 31 32  1  0  0  0
 34 33  1  0  0  0
 32 33  2  0  0  0
 32 39  1  0  0  0
 33 36  1  0  0  0
 39 38  2  0  0  0
 36 37  2  0  0  0
 38 37  1  0  0  0
 37 26  1  0  0  0
 28 26  2  0  0  0
 17 16  2  0  0  0
 17 15  1  0  0  0
 16 18  1  0  0  0
 26 27  2  0  0  0
 26 24  1  0  0  0
 15 14  2  0  0  0
 18 14  1  0  0  0
 24  1  1  0  0  0
 14 13  1  0  0  0
 12 10  2  0  0  0
 10  1  1  0  0  0
 10 11  1  0  0  0
 19 11  1  0  0  0
 19 20  1  0  0  0
  1  3  1  0  0  0
 11 13  1  0  0  0
  8  9  1  0  0  0
  8  2  1  0  0  0
 20 22  2  0  0  0
 20 21  1  0  0  0
  3  2  2  0  0  0
  3  7  1  0  0  0
  2  4  1  0  0  0
  7  6  2  0  0  0
  4  5  2  0  0  0
  6  5  1  0  0  0
 24 25  1  0  0  0
 31 40  1  0  0  0
 21 23  1  0  0  0
M  END
> <minimizedAffinity>
-8.50566

$$$$
6MA2_J9S_A_1101


 40 43  0  0  0  0  0  0  0  0999 V2000
   -1.8014  -42.7101   17.6538 C   0  0  0  0  0  0  0  0  0  0  0  0
   -1.4169  -41.6281   20.0171 C   0  0  0  0  0  0  0  0  0  0  0  0
   -1.6521  -41.4676   18.6147 C   0  0  0  0  0  0  0  0  0  0  0  0
   -1.2893  -40.5098   20.8645 C   0  0  0  0  0  0  0  0  0  0  0  0
   -1.3944  -39.2037   20.3499 C   0  0  0  0  0  0  0  0  0  0  0  0
   -1.6229  -39.0056   18.9785 C   0  0  0  0  0  0  0  0  0  0  0  0
   -1.7539  -40.1337   18.1202 C   0  0  0  0  0  0  0  0  0  0  0  0
   -1.3258  -42.9558   20.4634 O   0  0  0  0  0  0  0  0  0  0  0  0
   -0.2712  -43.4060   21.3623 C   0  0  0  0  0  0  0  0  0  0  0  0
   -2.5415  -42.3235   16.2268 C   0  0  0  0  0  0  0  0  0  0  0  0
   -1.9717  -41.7510   15.1138 N   0  0  0  0  0  0  0  0  0  0  0  0
   -3.7545  -42.6727   16.3165 O   0  0  0  0  0  0  0  0  0  0  0  0
   -0.4771  -41.3295   14.9886 C   0  0  0  0  0  0  0  0  0  0  0  0
    0.5164  -42.3216   14.2636 C   0  0  0  0  0  0  0  0  0  0  0  0
    1.6450  -43.0013   14.6876 C   0  0  0  0  0  0  0  0  0  0  0  0
    1.6738  -43.8282   12.4858 C   0  0  0  0  0  0  0  0  0  0  0  0
    2.2890  -43.8333   13.7069 C   0  0  0  0  0  0  0  0  0  0  0  0
    0.2904  -42.7775   12.5721 S   0  0  0  0  0  0  0  0  0  0  0  0
   -2.7501  -41.4899   13.8804 C   0  0  0  0  0  0  0  0  0  0  0  0
   -3.2942  -39.9454   13.7900 C   0  0  0  0  0  0  0  0  0  0  0  0
   -3.8902  -39.6355   12.7286 O   0  0  0  0  0  0  0  0  0  0  0  0
   -3.0844  -39.1576   14.7525 O   0  0  0  0  0  0  0  0  0  0  0  0
   -4.0099  -40.2753   12.0545 H   0  0  0  0  0  0  0  0  0  0  0  0
   -0.4934  -43.4262   17.3927 N   0  0  0  0  0  0  0  0  0  0  0  0
   -0.2850  -43.3274   16.3991 H   0  0  0  0  0  0  0  0  0  0  0  0
   -0.4124  -45.0675   17.7630 S   0  0  0  0  0  0  0  0  0  0  0  0
   -1.7167  -45.5307   18.0403 O   0  0  0  0  0  0  0  0  0  0  0  0
    0.5638  -45.4192   18.7105 O   0  0  0  0  0  0  0  0  0  0  0  0
    0.4937  -48.3210   10.1702 O   0  0  0  0  0  0  0  0  0  0  0  0
    0.1736  -47.7175   11.1811 C   0  0  0  0  0  0  0  0  0  0  0  0
    0.9215  -47.9423   12.3550 N   0  0  0  0  0  0  0  0  0  0  0  0
    0.6188  -47.2719   13.5860 C   0  0  0  0  0  0  0  0  0  0  0  0
   -0.4708  -46.3563   13.6463 C   0  0  0  0  0  0  0  0  0  0  0  0
   -1.2746  -46.1220   12.4314 C   0  0  0  0  0  0  0  0  0  0  0  0
   -0.9661  -46.7708   11.2455 C   0  0  0  0  0  0  0  0  0  0  0  0
   -0.7309  -45.7113   14.9227 C   0  0  0  0  0  0  0  0  0  0  0  0
    0.0098  -45.9090   16.0963 C   0  0  0  0  0  0  0  0  0  0  0  0
    1.0832  -46.8569   15.9942 C   0  0  0  0  0  0  0  0  0  0  0  0
    1.3918  -47.5056   14.7772 C   0  0  0  0  0  0  0  0  0  0  0  0
    1.6731  -48.5777   12.3288 H   0  0  0  0  0  0  0  0  0  0  0  0
 29 30  2  0  0  0
 30 35  1  0  0  0
 30 31  1  0  0  0
 35 34  2  0  0  0
 31 32  1  0  0  0
 34 33  1  0  0  0
 32 33  2  0  0  0
 32 39  1  0  0  0
 33 36  1  0  0  0
 39 38  2  0  0  0
 36 37  2  0  0  0
 38 37  1  0  0  0
 37 26  1  0  0  0
 28 26  2  0  0  0
 17 16  2  0  0  0
 17 15  1  0  0  0
 16 18  1  0  0  0
 26 27  2  0  0  0
 26 24  1  0  0  0
 15 14  2  0  0  0
 18 14  1  0  0  0
 24  1  1  0  0  0
 14 13  1  0  0  0
 12 10  2  0  0  0
 10  1  1  0  0  0
 10 11  1  0  0  0
 19 11  1  0  0  0
 19 20  1  0  0  0
  1  3  1  0  0  0
 11 13  1  0  0  0
  8  9  1  0  0  0
  8  2  1  0  0  0
 20 22  2  0  0  0
 20 21  1  0  0  0
  3  2  2  0  0  0
  3  7  1  0  0  0
  2  4  1  0  0  0
  7  6  2  0  0  0
  4  5  2  0  0  0
  6  5  1  0  0  0
 24 25  1  0  0  0
 31 40  1  0  0  0
 21 23  1  0  0  0
M  END
> <minimizedAffinity>
-8.18948

$$$$
6MA2_J9S_A_1101


 40 43  0  0  0  0  0  0  0  0999 V2000
    0.3424  -44.7103   16.4958 C   0  0  0  0  0  0  0  0  0  0  0  0
    2.0204  -46.6472   17.0759 C   0  0  0  0  0  0  0  0  0  0  0  0
    0.7845  -46.2249   16.4910 C   0  0  0  0  0  0  0  0  0  0  0  0
    2.4048  -48.0025   17.0613 C   0  0  0  0  0  0  0  0  0  0  0  0
    1.5807  -48.9759   16.4654 C   0  0  0  0  0  0  0  0  0  0  0  0
    0.3592  -48.6006   15.8828 C   0  0  0  0  0  0  0  0  0  0  0  0
   -0.0310  -47.2316   15.8946 C   0  0  0  0  0  0  0  0  0  0  0  0
    2.7940  -45.6260   17.6495 O   0  0  0  0  0  0  0  0  0  0  0  0
    3.1572  -45.6215   19.0605 C   0  0  0  0  0  0  0  0  0  0  0  0
   -0.5579  -44.3162   17.8253 C   0  0  0  0  0  0  0  0  0  0  0  0
   -1.4474  -43.2758   17.9585 N   0  0  0  0  0  0  0  0  0  0  0  0
   -0.3071  -45.1695   18.7255 O   0  0  0  0  0  0  0  0  0  0  0  0
   -1.7730  -42.2280   16.8524 C   0  0  0  0  0  0  0  0  0  0  0  0
   -2.6590  -42.6906   15.6286 C   0  0  0  0  0  0  0  0  0  0  0  0
   -2.5418  -43.7280   14.7199 C   0  0  0  0  0  0  0  0  0  0  0  0
   -4.5431  -42.8582   13.8420 C   0  0  0  0  0  0  0  0  0  0  0  0
   -3.5802  -43.8224   13.7292 C   0  0  0  0  0  0  0  0  0  0  0  0
   -4.1407  -41.8351   15.1898 S   0  0  0  0  0  0  0  0  0  0  0  0
   -2.2194  -43.0584   19.2044 C   0  0  0  0  0  0  0  0  0  0  0  0
   -1.3120  -42.4096   20.4067 C   0  0  0  0  0  0  0  0  0  0  0  0
   -0.8248  -43.2263   21.2273 O   0  0  0  0  0  0  0  0  0  0  0  0
   -1.1602  -41.1585   20.4616 O   0  0  0  0  0  0  0  0  0  0  0  0
   -0.9800  -44.1444   21.1229 H   0  0  0  0  0  0  0  0  0  0  0  0
    1.5001  -43.7477   16.3383 N   0  0  0  0  0  0  0  0  0  0  0  0
    1.3451  -42.9759   16.9869 H   0  0  0  0  0  0  0  0  0  0  0  0
    1.7605  -43.0795   14.8141 S   0  0  0  0  0  0  0  0  0  0  0  0
    3.1295  -42.7573   14.6924 O   0  0  0  0  0  0  0  0  0  0  0  0
    0.8684  -42.0571   14.4491 O   0  0  0  0  0  0  0  0  0  0  0  0
   -0.2213  -49.2265    9.5850 O   0  0  0  0  0  0  0  0  0  0  0  0
   -0.1630  -48.2479   10.3114 C   0  0  0  0  0  0  0  0  0  0  0  0
    1.0530  -47.9830   10.9741 N   0  0  0  0  0  0  0  0  0  0  0  0
    1.2120  -46.8523   11.8418 C   0  0  0  0  0  0  0  0  0  0  0  0
    0.1187  -45.9656   12.0599 C   0  0  0  0  0  0  0  0  0  0  0  0
   -1.1662  -46.2375   11.3875 C   0  0  0  0  0  0  0  0  0  0  0  0
   -1.3041  -47.3300   10.5448 C   0  0  0  0  0  0  0  0  0  0  0  0
    0.3397  -44.8403   12.9530 C   0  0  0  0  0  0  0  0  0  0  0  0
    1.5444  -44.5506   13.6086 C   0  0  0  0  0  0  0  0  0  0  0  0
    2.6107  -45.4835   13.3772 C   0  0  0  0  0  0  0  0  0  0  0  0
    2.4592  -46.5889   12.5097 C   0  0  0  0  0  0  0  0  0  0  0  0
    1.8147  -48.5916   10.8373 H   0  0  0  0  0  0  0  0  0  0  0  0
 29 30  2  0  0  0
 30 35  1  0  0  0
 30 31  1  0  0  0
 35 34  2  0  0  0
 31 32  1  0  0  0
 34 33  1  0  0  0
 32 33  2  0  0  0
 32 39  1  0  0  0
 33 36  1  0  0  0
 39 38  2  0  0  0
 36 37  2  0  0  0
 38 37  1  0  0  0
 37 26  1  0  0  0
 28 26  2  0  0  0
 17 16  2  0  0  0
 17 15  1  0  0  0
 16 18  1  0  0  0
 26 27  2  0  0  0
 26 24  1  0  0  0
 15 14  2  0  0  0
 18 14  1  0  0  0
 24  1  1  0  0  0
 14 13  1  0  0  0
 12 10  2  0  0  0
 10  1  1  0  0  0
 10 11  1  0  0  0
 19 11  1  0  0  0
 19 20  1  0  0  0
  1  3  1  0  0  0
 11 13  1  0  0  0
  8  9  1  0  0  0
  8  2  1  0  0  0
 20 22  2  0  0  0
 20 21  1  0  0  0
  3  2  2  0  0  0
  3  7  1  0  0  0
  2  4  1  0  0  0
  7  6  2  0  0  0
  4  5  2  0  0  0
  6  5  1  0  0  0
 24 25  1  0  0  0
 31 40  1  0  0  0
 21 23  1  0  0  0
M  END
> <minimizedAffinity>
-8.16487

$$$$
6MA2_J9S_A_1101


 40 43  0  0  0  0  0  0  0  0999 V2000
   -1.1675  -42.2035   15.7225 C   0  0  0  0  0  0  0  0  0  0  0  0
   -1.8268  -43.9222   13.8476 C   0  0  0  0  0  0  0  0  0  0  0  0
   -0.8577  -43.0384   14.4200 C   0  0  0  0  0  0  0  0  0  0  0  0
   -1.5356  -44.6647   12.6862 C   0  0  0  0  0  0  0  0  0  0  0  0
   -0.2786  -44.5569   12.0618 C   0  0  0  0  0  0  0  0  0  0  0  0
    0.6979  -43.6985   12.5927 C   0  0  0  0  0  0  0  0  0  0  0  0
    0.4071  -42.9483   13.7670 C   0  0  0  0  0  0  0  0  0  0  0  0
   -3.0566  -43.9838   14.5216 O   0  0  0  0  0  0  0  0  0  0  0  0
   -4.2999  -43.5200   13.9199 C   0  0  0  0  0  0  0  0  0  0  0  0
   -1.8984  -40.7581   15.3909 C   0  0  0  0  0  0  0  0  0  0  0  0
   -2.0611  -39.6861   16.2369 N   0  0  0  0  0  0  0  0  0  0  0  0
   -2.2769  -40.7873   14.1838 O   0  0  0  0  0  0  0  0  0  0  0  0
   -1.5874  -39.6351   17.7202 C   0  0  0  0  0  0  0  0  0  0  0  0
   -2.6311  -40.0075   18.8467 C   0  0  0  0  0  0  0  0  0  0  0  0
   -3.8285  -40.7012   18.8289 C   0  0  0  0  0  0  0  0  0  0  0  0
   -3.8396  -40.2523   21.1378 C   0  0  0  0  0  0  0  0  0  0  0  0
   -4.5008  -40.8366   20.0932 C   0  0  0  0  0  0  0  0  0  0  0  0
   -2.3775  -39.5333   20.5292 S   0  0  0  0  0  0  0  0  0  0  0  0
   -2.7086  -38.4289   15.7945 C   0  0  0  0  0  0  0  0  0  0  0  0
   -4.3008  -38.6227   15.4526 C   0  0  0  0  0  0  0  0  0  0  0  0
   -4.5685  -39.0026   14.2857 O   0  0  0  0  0  0  0  0  0  0  0  0
   -5.1598  -38.3758   16.3428 O   0  0  0  0  0  0  0  0  0  0  0  0
   -3.8762  -39.1675   13.6762 H   0  0  0  0  0  0  0  0  0  0  0  0
   -1.9655  -42.9743   16.7526 N   0  0  0  0  0  0  0  0  0  0  0  0
   -2.5690  -42.3066   17.2325 H   0  0  0  0  0  0  0  0  0  0  0  0
   -1.1106  -43.8187   17.9330 S   0  0  0  0  0  0  0  0  0  0  0  0
   -1.9728  -44.7717   18.5171 O   0  0  0  0  0  0  0  0  0  0  0  0
   -0.3964  -43.0189   18.8412 O   0  0  0  0  0  0  0  0  0  0  0  0
    4.9470  -47.6540   13.7314 O   0  0  0  0  0  0  0  0  0  0  0  0
    4.2350  -46.9264   14.4041 C   0  0  0  0  0  0  0  0  0  0  0  0
    2.8849  -47.2935   14.5787 N   0  0  0  0  0  0  0  0  0  0  0  0
    1.9790  -46.5004   15.3577 C   0  0  0  0  0  0  0  0  0  0  0  0
    2.4355  -45.2993   15.9725 C   0  0  0  0  0  0  0  0  0  0  0  0
    3.8412  -44.8914   15.7861 C   0  0  0  0  0  0  0  0  0  0  0  0
    4.7087  -45.6716   15.0369 C   0  0  0  0  0  0  0  0  0  0  0  0
    1.4698  -44.5363   16.7457 C   0  0  0  0  0  0  0  0  0  0  0  0
    0.1285  -44.8918   16.9444 C   0  0  0  0  0  0  0  0  0  0  0  0
   -0.2926  -46.0969   16.2875 C   0  0  0  0  0  0  0  0  0  0  0  0
    0.6039  -46.8871   15.5330 C   0  0  0  0  0  0  0  0  0  0  0  0
    2.5547  -48.1179   14.1537 H   0  0  0  0  0  0  0  0  0  0  0  0
 29 30  2  0  0  0
 30 35  1  0  0  0
 30 31  1  0  0  0
 35 34  2  0  0  0
 31 32  1  0  0  0
 34 33  1  0  0  0
 32 33  2  0  0  0
 32 39  1  0  0  0
 33 36  1  0  0  0
 39 38  2  0  0  0
 36 37  2  0  0  0
 38 37  1  0  0  0
 37 26  1  0  0  0
 28 26  2  0  0  0
 17 16  2  0  0  0
 17 15  1  0  0  0
 16 18  1  0  0  0
 26 27  2  0  0  0
 26 24  1  0  0  0
 15 14  2  0  0  0
 18 14  1  0  0  0
 24  1  1  0  0  0
 14 13  1  0  0  0
 12 10  2  0  0  0
 10  1  1  0  0  0
 10 11  1  0  0  0
 19 11  1  0  0  0
 19 20  1  0  0  0
  1  3  1  0  0  0
 11 13  1  0  0  0
  8  9  1  0  0  0
  8  2  1  0  0  0
 20 22  2  0  0  0
 20 21  1  0  0  0
  3  2  2  0  0  0
  3  7  1  0  0  0
  2  4  1  0  0  0
  7  6  2  0  0  0
  4  5  2  0  0  0
  6  5  1  0  0  0
 24 25  1  0  0  0
 31 40  1  0  0  0
 21 23  1  0  0  0
M  END
> <minimizedAffinity>
-8.13283

$$$$
6MA2_J9S_A_1101


 40 43  0  0  0  0  0  0  0  0999 V2000
    1.7196  -46.5708   14.6628 C   0  0  0  0  0  0  0  0  0  0  0  0
    0.5267  -45.3416   12.6702 C   0  0  0  0  0  0  0  0  0  0  0  0
    0.7290  -46.5340   13.4352 C   0  0  0  0  0  0  0  0  0  0  0  0
   -0.3638  -45.3217   11.5787 C   0  0  0  0  0  0  0  0  0  0  0  0
   -1.0809  -46.4776   11.2162 C   0  0  0  0  0  0  0  0  0  0  0  0
   -0.9078  -47.6676   11.9416 C   0  0  0  0  0  0  0  0  0  0  0  0
   -0.0099  -47.6903   13.0460 C   0  0  0  0  0  0  0  0  0  0  0  0
    1.2702  -44.2264   13.0873 O   0  0  0  0  0  0  0  0  0  0  0  0
    1.1873  -42.9373   12.4132 C   0  0  0  0  0  0  0  0  0  0  0  0
    3.2707  -46.9284   14.2160 C   0  0  0  0  0  0  0  0  0  0  0  0
    4.2312  -47.5728   14.9599 N   0  0  0  0  0  0  0  0  0  0  0  0
    3.4318  -46.5213   13.0287 O   0  0  0  0  0  0  0  0  0  0  0  0
    4.0390  -48.0893   16.4172 C   0  0  0  0  0  0  0  0  0  0  0  0
    3.9780  -47.0228   17.5815 C   0  0  0  0  0  0  0  0  0  0  0  0
    4.4264  -45.7177   17.6876 C   0  0  0  0  0  0  0  0  0  0  0  0
    3.5093  -45.8384   19.8503 C   0  0  0  0  0  0  0  0  0  0  0  0
    4.1712  -45.0604   18.9413 C   0  0  0  0  0  0  0  0  0  0  0  0
    3.2114  -47.3929   19.1292 S   0  0  0  0  0  0  0  0  0  0  0  0
    5.5798  -47.8619   14.4185 C   0  0  0  0  0  0  0  0  0  0  0  0
    6.7742  -47.1245   15.2665 C   0  0  0  0  0  0  0  0  0  0  0  0
    6.8483  -45.8772   15.1375 O   0  0  0  0  0  0  0  0  0  0  0  0
    7.5504  -47.8209   15.9763 O   0  0  0  0  0  0  0  0  0  0  0  0
    6.2352  -45.4255   14.5916 H   0  0  0  0  0  0  0  0  0  0  0  0
    1.6885  -45.3071   15.4959 N   0  0  0  0  0  0  0  0  0  0  0  0
    2.5557  -45.2740   16.0317 H   0  0  0  0  0  0  0  0  0  0  0  0
    0.4169  -45.1186   16.5844 S   0  0  0  0  0  0  0  0  0  0  0  0
    0.9114  -44.4935   17.7494 O   0  0  0  0  0  0  0  0  0  0  0  0
   -0.3581  -46.2700   16.8038 O   0  0  0  0  0  0  0  0  0  0  0  0
   -4.9859  -40.0660   12.7978 O   0  0  0  0  0  0  0  0  0  0  0  0
   -4.3627  -40.9827   13.3077 C   0  0  0  0  0  0  0  0  0  0  0  0
   -3.1117  -40.6936   13.8902 N   0  0  0  0  0  0  0  0  0  0  0  0
   -2.3149  -41.7085   14.5160 C   0  0  0  0  0  0  0  0  0  0  0  0
   -2.7797  -43.0545   14.5517 C   0  0  0  0  0  0  0  0  0  0  0  0
   -4.0791  -43.3778   13.9319 C   0  0  0  0  0  0  0  0  0  0  0  0
   -4.8433  -42.3854   13.3371 C   0  0  0  0  0  0  0  0  0  0  0  0
   -1.9260  -44.0388   15.1959 C   0  0  0  0  0  0  0  0  0  0  0  0
   -0.6873  -43.7693   15.7942 C   0  0  0  0  0  0  0  0  0  0  0  0
   -0.2490  -42.4046   15.7140 C   0  0  0  0  0  0  0  0  0  0  0  0
   -1.0413  -41.4012   15.1115 C   0  0  0  0  0  0  0  0  0  0  0  0
   -2.7755  -39.7685   13.8667 H   0  0  0  0  0  0  0  0  0  0  0  0
 29 30  2  0  0  0
 30 35  1  0  0  0
 30 31  1  0  0  0
 35 34  2  0  0  0
 31 32  1  0  0  0
 34 33  1  0  0  0
 32 33  2  0  0  0
 32 39  1  0  0  0
 33 36  1  0  0  0
 39 38  2  0  0  0
 36 37  2  0  0  0
 38 37  1  0  0  0
 37 26  1  0  0  0
 28 26  2  0  0  0
 17 16  2  0  0  0
 17 15  1  0  0  0
 16 18  1  0  0  0
 26 27  2  0  0  0
 26 24  1  0  0  0
 15 14  2  0  0  0
 18 14  1  0  0  0
 24  1  1  0  0  0
 14 13  1  0  0  0
 12 10  2  0  0  0
 10  1  1  0  0  0
 10 11  1  0  0  0
 19 11  1  0  0  0
 19 20  1  0  0  0
  1  3  1  0  0  0
 11 13  1  0  0  0
  8  9  1  0  0  0
  8  2  1  0  0  0
 20 22  2  0  0  0
 20 21  1  0  0  0
  3  2  2  0  0  0
  3  7  1  0  0  0
  2  4  1  0  0  0
  7  6  2  0  0  0
  4  5  2  0  0  0
  6  5  1  0  0  0
 24 25  1  0  0  0
 31 40  1  0  0  0
 21 23  1  0  0  0
M  END
> <minimizedAffinity>
-8.09934

$$$$
6MA2_J9S_A_1101


 40 43  0  0  0  0  0  0  0  0999 V2000
   -1.2790  -43.6667   15.5801 C   0  0  0  0  0  0  0  0  0  0  0  0
    0.5458  -43.7857   13.6933 C   0  0  0  0  0  0  0  0  0  0  0  0
   -0.6905  -44.2556   14.2398 C   0  0  0  0  0  0  0  0  0  0  0  0
    1.0579  -44.3176   12.4935 C   0  0  0  0  0  0  0  0  0  0  0  0
    0.3610  -45.3250   11.7998 C   0  0  0  0  0  0  0  0  0  0  0  0
   -0.8547  -45.8134   12.3057 C   0  0  0  0  0  0  0  0  0  0  0  0
   -1.3755  -45.2766   13.5168 C   0  0  0  0  0  0  0  0  0  0  0  0
    1.1864  -42.7795   14.4333 O   0  0  0  0  0  0  0  0  0  0  0  0
    2.5718  -42.8943   14.8696 C   0  0  0  0  0  0  0  0  0  0  0  0
   -2.6001  -42.7060   15.3250 C   0  0  0  0  0  0  0  0  0  0  0  0
   -2.6682  -41.3346   15.4015 N   0  0  0  0  0  0  0  0  0  0  0  0
   -3.5681  -43.4592   15.0134 O   0  0  0  0  0  0  0  0  0  0  0  0
   -1.4796  -40.3977   15.7713 C   0  0  0  0  0  0  0  0  0  0  0  0
   -1.4119  -39.8294   17.2442 C   0  0  0  0  0  0  0  0  0  0  0  0
   -1.7121  -40.3767   18.4795 C   0  0  0  0  0  0  0  0  0  0  0  0
   -1.0393  -38.2770   19.2987 C   0  0  0  0  0  0  0  0  0  0  0  0
   -1.5097  -39.5207   19.6175 C   0  0  0  0  0  0  0  0  0  0  0  0
   -0.8547  -38.1856   17.5717 S   0  0  0  0  0  0  0  0  0  0  0  0
   -3.9180  -40.5937   15.1110 C   0  0  0  0  0  0  0  0  0  0  0  0
   -4.2461  -40.5098   13.5063 C   0  0  0  0  0  0  0  0  0  0  0  0
   -5.0310  -41.3835   13.0610 O   0  0  0  0  0  0  0  0  0  0  0  0
   -3.7021  -39.6100   12.8093 O   0  0  0  0  0  0  0  0  0  0  0  0
   -5.3981  -42.0223   13.6398 H   0  0  0  0  0  0  0  0  0  0  0  0
   -1.5896  -44.7272   16.6149 N   0  0  0  0  0  0  0  0  0  0  0  0
   -2.5328  -44.5491   16.9601 H   0  0  0  0  0  0  0  0  0  0  0  0
   -0.5750  -44.8335   17.9553 S   0  0  0  0  0  0  0  0  0  0  0  0
   -0.9735  -45.9415   18.7339 O   0  0  0  0  0  0  0  0  0  0  0  0
   -0.3946  -43.6345   18.6654 O   0  0  0  0  0  0  0  0  0  0  0  0
    6.1704  -47.8451   14.1491 O   0  0  0  0  0  0  0  0  0  0  0  0
    5.0574  -47.5112   14.5212 C   0  0  0  0  0  0  0  0  0  0  0  0
    4.9534  -46.7303   15.6906 N   0  0  0  0  0  0  0  0  0  0  0  0
    3.6861  -46.2891   16.1965 C   0  0  0  0  0  0  0  0  0  0  0  0
    2.4867  -46.6481   15.5172 C   0  0  0  0  0  0  0  0  0  0  0  0
    2.5761  -47.4792   14.3013 C   0  0  0  0  0  0  0  0  0  0  0  0
    3.8084  -47.8924   13.8183 C   0  0  0  0  0  0  0  0  0  0  0  0
    1.2331  -46.1749   16.0806 C   0  0  0  0  0  0  0  0  0  0  0  0
    1.1093  -45.3851   17.2321 C   0  0  0  0  0  0  0  0  0  0  0  0
    2.3420  -45.0674   17.8959 C   0  0  0  0  0  0  0  0  0  0  0  0
    3.5920  -45.4885   17.3886 C   0  0  0  0  0  0  0  0  0  0  0  0
    5.7742  -46.4807   16.1735 H   0  0  0  0  0  0  0  0  0  0  0  0
 29 30  2  0  0  0
 30 35  1  0  0  0
 30 31  1  0  0  0
 35 34  2  0  0  0
 31 32  1  0  0  0
 34 33  1  0  0  0
 32 33  2  0  0  0
 32 39  1  0  0  0
 33 36  1  0  0  0
 39 38  2  0  0  0
 36 37  2  0  0  0
 38 37  1  0  0  0
 37 26  1  0  0  0
 28 26  2  0  0  0
 17 16  2  0  0  0
 17 15  1  0  0  0
 16 18  1  0  0  0
 26 27  2  0  0  0
 26 24  1  0  0  0
 15 14  2  0  0  0
 18 14  1  0  0  0
 24  1  1  0  0  0
 14 13  1  0  0  0
 12 10  2  0  0  0
 10  1  1  0  0  0
 10 11  1  0  0  0
 19 11  1  0  0  0
 19 20  1  0  0  0
  1  3  1  0  0  0
 11 13  1  0  0  0
  8  9  1  0  0  0
  8  2  1  0  0  0
 20 22  2  0  0  0
 20 21  1  0  0  0
  3  2  2  0  0  0
  3  7  1  0  0  0
  2  4  1  0  0  0
  7  6  2  0  0  0
  4  5  2  0  0  0
  6  5  1  0  0  0
 24 25  1  0  0  0
 31 40  1  0  0  0
 21 23  1  0  0  0
M  END
> <minimizedAffinity>
-8.08439

$$$$
6MA2_J9S_A_1101


 40 43  0  0  0  0  0  0  0  0999 V2000
   -1.3552  -43.4865   15.8909 C   0  0  0  0  0  0  0  0  0  0  0  0
   -0.4803  -44.2310   13.5279 C   0  0  0  0  0  0  0  0  0  0  0  0
   -0.2713  -43.5074   14.7446 C   0  0  0  0  0  0  0  0  0  0  0  0
    0.4977  -44.2443   12.5139 C   0  0  0  0  0  0  0  0  0  0  0  0
    1.7094  -43.5465   12.6763 C   0  0  0  0  0  0  0  0  0  0  0  0
    1.9505  -42.8230   13.8556 C   0  0  0  0  0  0  0  0  0  0  0  0
    0.9648  -42.8092   14.8826 C   0  0  0  0  0  0  0  0  0  0  0  0
   -1.7074  -44.9061   13.4331 O   0  0  0  0  0  0  0  0  0  0  0  0
   -2.4023  -45.0869   12.1653 C   0  0  0  0  0  0  0  0  0  0  0  0
   -2.6409  -42.5113   15.5309 C   0  0  0  0  0  0  0  0  0  0  0  0
   -2.6701  -41.1367   15.5037 N   0  0  0  0  0  0  0  0  0  0  0  0
   -3.6230  -43.2586   15.2510 O   0  0  0  0  0  0  0  0  0  0  0  0
   -1.4635  -40.2080   15.8337 C   0  0  0  0  0  0  0  0  0  0  0  0
   -1.3791  -39.5868   17.2842 C   0  0  0  0  0  0  0  0  0  0  0  0
   -0.8822  -38.3892   17.7684 C   0  0  0  0  0  0  0  0  0  0  0  0
   -1.5908  -39.2205   19.8515 C   0  0  0  0  0  0  0  0  0  0  0  0
   -0.9952  -38.1842   19.1875 C   0  0  0  0  0  0  0  0  0  0  0  0
   -2.0050  -40.4496   18.6927 S   0  0  0  0  0  0  0  0  0  0  0  0
   -3.8902  -40.3853   15.1265 C   0  0  0  0  0  0  0  0  0  0  0  0
   -4.1793  -40.4158   13.5125 C   0  0  0  0  0  0  0  0  0  0  0  0
   -4.9378  -41.3320   13.1088 O   0  0  0  0  0  0  0  0  0  0  0  0
   -3.6332  -39.5552   12.7693 O   0  0  0  0  0  0  0  0  0  0  0  0
   -5.3085  -41.9371   13.7207 H   0  0  0  0  0  0  0  0  0  0  0  0
   -1.8346  -44.8667   16.2875 N   0  0  0  0  0  0  0  0  0  0  0  0
   -2.7899  -44.7702   16.6316 H   0  0  0  0  0  0  0  0  0  0  0  0
   -0.9566  -45.6917   17.4646 S   0  0  0  0  0  0  0  0  0  0  0  0
   -1.6583  -46.8677   17.8071 O   0  0  0  0  0  0  0  0  0  0  0  0
   -0.5304  -44.9090   18.5510 O   0  0  0  0  0  0  0  0  0  0  0  0
    6.2676  -47.7822   13.9293 O   0  0  0  0  0  0  0  0  0  0  0  0
    5.3485  -47.3326   14.5940 C   0  0  0  0  0  0  0  0  0  0  0  0
    4.0411  -47.7757   14.3070 N   0  0  0  0  0  0  0  0  0  0  0  0
    2.9032  -47.3042   15.0415 C   0  0  0  0  0  0  0  0  0  0  0  0
    3.0780  -46.3540   16.0883 C   0  0  0  0  0  0  0  0  0  0  0  0
    4.4376  -45.8669   16.3907 C   0  0  0  0  0  0  0  0  0  0  0  0
    5.5301  -46.3370   15.6780 C   0  0  0  0  0  0  0  0  0  0  0  0
    1.8867  -45.9108   16.7934 C   0  0  0  0  0  0  0  0  0  0  0  0
    0.5812  -46.3504   16.5342 C   0  0  0  0  0  0  0  0  0  0  0  0
    0.4507  -47.2897   15.4564 C   0  0  0  0  0  0  0  0  0  0  0  0
    1.5736  -47.7666   14.7429 C   0  0  0  0  0  0  0  0  0  0  0  0
    3.9054  -48.4273   13.5816 H   0  0  0  0  0  0  0  0  0  0  0  0
 29 30  2  0  0  0
 30 35  1  0  0  0
 30 31  1  0  0  0
 35 34  2  0  0  0
 31 32  1  0  0  0
 34 33  1  0  0  0
 32 33  2  0  0  0
 32 39  1  0  0  0
 33 36  1  0  0  0
 39 38  2  0  0  0
 36 37  2  0  0  0
 38 37  1  0  0  0
 37 26  1  0  0  0
 28 26  2  0  0  0
 17 16  2  0  0  0
 17 15  1  0  0  0
 16 18  1  0  0  0
 26 27  2  0  0  0
 26 24  1  0  0  0
 15 14  2  0  0  0
 18 14  1  0  0  0
 24  1  1  0  0  0
 14 13  1  0  0  0
 12 10  2  0  0  0
 10  1  1  0  0  0
 10 11  1  0  0  0
 19 11  1  0  0  0
 19 20  1  0  0  0
  1  3  1  0  0  0
 11 13  1  0  0  0
  8  9  1  0  0  0
  8  2  1  0  0  0
 20 22  2  0  0  0
 20 21  1  0  0  0
  3  2  2  0  0  0
  3  7  1  0  0  0
  2  4  1  0  0  0
  7  6  2  0  0  0
  4  5  2  0  0  0
  6  5  1  0  0  0
 24 25  1  0  0  0
 31 40  1  0  0  0
 21 23  1  0  0  0
M  END
> <minimizedAffinity>
-8.03418

$$$$
6MA2_J9S_A_1101


 40 43  0  0  0  0  0  0  0  0999 V2000
   -1.8515  -42.7168   16.8159 C   0  0  0  0  0  0  0  0  0  0  0  0
   -4.2557  -41.6707   16.6447 C   0  0  0  0  0  0  0  0  0  0  0  0
   -2.9363  -41.6366   17.1977 C   0  0  0  0  0  0  0  0  0  0  0  0
   -5.2135  -40.6975   16.9913 C   0  0  0  0  0  0  0  0  0  0  0  0
   -4.8926  -39.6628   17.8903 C   0  0  0  0  0  0  0  0  0  0  0  0
   -3.6086  -39.5969   18.4556 C   0  0  0  0  0  0  0  0  0  0  0  0
   -2.6382  -40.5779   18.1058 C   0  0  0  0  0  0  0  0  0  0  0  0
   -4.5071  -42.7261   15.7540 O   0  0  0  0  0  0  0  0  0  0  0  0
   -4.7385  -42.5084   14.3321 C   0  0  0  0  0  0  0  0  0  0  0  0
   -1.0805  -42.3676   15.3956 C   0  0  0  0  0  0  0  0  0  0  0  0
   -0.9991  -43.1528   14.2695 N   0  0  0  0  0  0  0  0  0  0  0  0
   -0.5794  -41.2108   15.5052 O   0  0  0  0  0  0  0  0  0  0  0  0
   -1.6233  -44.5723   14.1199 C   0  0  0  0  0  0  0  0  0  0  0  0
   -0.8370  -45.6434   13.2646 C   0  0  0  0  0  0  0  0  0  0  0  0
    0.1638  -46.5470   13.5765 C   0  0  0  0  0  0  0  0  0  0  0  0
   -0.0041  -47.1411   11.3068 C   0  0  0  0  0  0  0  0  0  0  0  0
    0.6286  -47.3751   12.4962 C   0  0  0  0  0  0  0  0  0  0  0  0
   -1.1785  -45.8811   11.5480 S   0  0  0  0  0  0  0  0  0  0  0  0
   -0.3010  -42.6974   13.0445 C   0  0  0  0  0  0  0  0  0  0  0  0
    1.3213  -42.9267   13.1177 C   0  0  0  0  0  0  0  0  0  0  0  0
    1.9024  -42.4192   14.1089 O   0  0  0  0  0  0  0  0  0  0  0  0
    1.8979  -43.5691   12.1978 O   0  0  0  0  0  0  0  0  0  0  0  0
    1.4076  -41.9545   14.7547 H   0  0  0  0  0  0  0  0  0  0  0  0
   -0.8424  -42.9675   17.9162 N   0  0  0  0  0  0  0  0  0  0  0  0
    0.0537  -42.5987   17.5977 H   0  0  0  0  0  0  0  0  0  0  0  0
   -0.5882  -44.5618   18.3966 S   0  0  0  0  0  0  0  0  0  0  0  0
   -1.3066  -45.4127   17.5290 O   0  0  0  0  0  0  0  0  0  0  0  0
   -0.7708  -44.8097   19.7676 O   0  0  0  0  0  0  0  0  0  0  0  0
    6.9911  -46.2283   15.4246 O   0  0  0  0  0  0  0  0  0  0  0  0
    5.8136  -45.9769   15.6214 C   0  0  0  0  0  0  0  0  0  0  0  0
    5.3794  -45.8255   16.9543 N   0  0  0  0  0  0  0  0  0  0  0  0
    4.0150  -45.5242   17.2769 C   0  0  0  0  0  0  0  0  0  0  0  0
    3.0546  -45.3792   16.2350 C   0  0  0  0  0  0  0  0  0  0  0  0
    3.4883  -45.5511   14.8352 C   0  0  0  0  0  0  0  0  0  0  0  0
    4.8123  -45.8345   14.5366 C   0  0  0  0  0  0  0  0  0  0  0  0
    1.6870  -45.0781   16.6247 C   0  0  0  0  0  0  0  0  0  0  0  0
    1.2387  -44.9084   17.9419 C   0  0  0  0  0  0  0  0  0  0  0  0
    2.2359  -45.0861   18.9592 C   0  0  0  0  0  0  0  0  0  0  0  0
    3.5838  -45.3673   18.6409 C   0  0  0  0  0  0  0  0  0  0  0  0
    6.0316  -45.9297   17.6844 H   0  0  0  0  0  0  0  0  0  0  0  0
 29 30  2  0  0  0
 30 35  1  0  0  0
 30 31  1  0  0  0
 35 34  2  0  0  0
 31 32  1  0  0  0
 34 33  1  0  0  0
 32 33  2  0  0  0
 32 39  1  0  0  0
 33 36  1  0  0  0
 39 38  2  0  0  0
 36 37  2  0  0  0
 38 37  1  0  0  0
 37 26  1  0  0  0
 28 26  2  0  0  0
 17 16  2  0  0  0
 17 15  1  0  0  0
 16 18  1  0  0  0
 26 27  2  0  0  0
 26 24  1  0  0  0
 15 14  2  0  0  0
 18 14  1  0  0  0
 24  1  1  0  0  0
 14 13  1  0  0  0
 12 10  2  0  0  0
 10  1  1  0  0  0
 10 11  1  0  0  0
 19 11  1  0  0  0
 19 20  1  0  0  0
  1  3  1  0  0  0
 11 13  1  0  0  0
  8  9  1  0  0  0
  8  2  1  0  0  0
 20 22  2  0  0  0
 20 21  1  0  0  0
  3  2  2  0  0  0
  3  7  1  0  0  0
  2  4  1  0  0  0
  7  6  2  0  0  0
  4  5  2  0  0  0
  6  5  1  0  0  0
 24 25  1  0  0  0
 31 40  1  0  0  0
 21 23  1  0  0  0
M  END
> <minimizedAffinity>
-7.81051

$$$$
6MA2_J9S_A_1101


 40 43  0  0  0  0  0  0  0  0999 V2000
   -2.1893  -41.9224   18.1127 C   0  0  0  0  0  0  0  0  0  0  0  0
   -1.9475  -40.5209   20.3221 C   0  0  0  0  0  0  0  0  0  0  0  0
   -1.8429  -40.5978   18.8970 C   0  0  0  0  0  0  0  0  0  0  0  0
   -1.6386  -39.3306   21.0095 C   0  0  0  0  0  0  0  0  0  0  0  0
   -1.2220  -38.1838   20.3075 C   0  0  0  0  0  0  0  0  0  0  0  0
   -1.1052  -38.2207   18.9084 C   0  0  0  0  0  0  0  0  0  0  0  0
   -1.4183  -39.4216   18.2110 C   0  0  0  0  0  0  0  0  0  0  0  0
   -2.3708  -41.6984   20.9582 O   0  0  0  0  0  0  0  0  0  0  0  0
   -1.8550  -42.1123   22.2565 C   0  0  0  0  0  0  0  0  0  0  0  0
   -3.1014  -41.6404   16.7628 C   0  0  0  0  0  0  0  0  0  0  0  0
   -2.6698  -41.5612   15.4595 N   0  0  0  0  0  0  0  0  0  0  0  0
   -4.3071  -41.5289   17.1306 O   0  0  0  0  0  0  0  0  0  0  0  0
   -1.1901  -41.7101   14.9950 C   0  0  0  0  0  0  0  0  0  0  0  0
   -0.7812  -43.0303   14.2290 C   0  0  0  0  0  0  0  0  0  0  0  0
   -1.1466  -44.3569   14.3776 C   0  0  0  0  0  0  0  0  0  0  0  0
    0.3085  -44.7054   12.5626 C   0  0  0  0  0  0  0  0  0  0  0  0
   -0.5445  -45.2863   13.4597 C   0  0  0  0  0  0  0  0  0  0  0  0
    0.3533  -42.9951   12.8756 S   0  0  0  0  0  0  0  0  0  0  0  0
   -3.6079  -41.3373   14.3347 C   0  0  0  0  0  0  0  0  0  0  0  0
   -3.6112  -39.7827   13.8126 C   0  0  0  0  0  0  0  0  0  0  0  0
   -3.9393  -39.6082   12.6127 O   0  0  0  0  0  0  0  0  0  0  0  0
   -3.2807  -38.8615   14.6085 O   0  0  0  0  0  0  0  0  0  0  0  0
   -4.1734  -40.3422   12.0795 H   0  0  0  0  0  0  0  0  0  0  0  0
   -0.9695  -42.7477   17.7623 N   0  0  0  0  0  0  0  0  0  0  0  0
   -1.0711  -43.0447   16.7918 H   0  0  0  0  0  0  0  0  0  0  0  0
   -0.6671  -44.1264   18.6815 S   0  0  0  0  0  0  0  0  0  0  0  0
   -1.8589  -44.8776   18.7706 O   0  0  0  0  0  0  0  0  0  0  0  0
   -0.0082  -43.8990   19.9016 O   0  0  0  0  0  0  0  0  0  0  0  0
    4.6435  -47.8906   13.5158 O   0  0  0  0  0  0  0  0  0  0  0  0
    4.0038  -47.1375   14.2315 C   0  0  0  0  0  0  0  0  0  0  0  0
    2.8967  -47.6629   14.9288 N   0  0  0  0  0  0  0  0  0  0  0  0
    2.0928  -46.8511   15.7956 C   0  0  0  0  0  0  0  0  0  0  0  0
    2.4005  -45.4703   15.9622 C   0  0  0  0  0  0  0  0  0  0  0  0
    3.5455  -44.9001   15.2267 C   0  0  0  0  0  0  0  0  0  0  0  0
    4.3195  -45.6980   14.3980 C   0  0  0  0  0  0  0  0  0  0  0  0
    1.5469  -44.6985   16.8502 C   0  0  0  0  0  0  0  0  0  0  0  0
    0.4520  -45.2049   17.5641 C   0  0  0  0  0  0  0  0  0  0  0  0
    0.1659  -46.5950   17.3476 C   0  0  0  0  0  0  0  0  0  0  0  0
    0.9675  -47.3989   16.5060 C   0  0  0  0  0  0  0  0  0  0  0  0
    2.6690  -48.6142   14.8174 H   0  0  0  0  0  0  0  0  0  0  0  0
 29 30  2  0  0  0
 30 35  1  0  0  0
 30 31  1  0  0  0
 35 34  2  0  0  0
 31 32  1  0  0  0
 34 33  1  0  0  0
 32 33  2  0  0  0
 32 39  1  0  0  0
 33 36  1  0  0  0
 39 38  2  0  0  0
 36 37  2  0  0  0
 38 37  1  0  0  0
 37 26  1  0  0  0
 28 26  2  0  0  0
 17 16  2  0  0  0
 17 15  1  0  0  0
 16 18  1  0  0  0
 26 27  2  0  0  0
 26 24  1  0  0  0
 15 14  2  0  0  0
 18 14  1  0  0  0
 24  1  1  0  0  0
 14 13  1  0  0  0
 12 10  2  0  0  0
 10  1  1  0  0  0
 10 11  1  0  0  0
 19 11  1  0  0  0
 19 20  1  0  0  0
  1  3  1  0  0  0
 11 13  1  0  0  0
  8  9  1  0  0  0
  8  2  1  0  0  0
 20 22  2  0  0  0
 20 21  1  0  0  0
  3  2  2  0  0  0
  3  7  1  0  0  0
  2  4  1  0  0  0
  7  6  2  0  0  0
  4  5  2  0  0  0
  6  5  1  0  0  0
 24 25  1  0  0  0
 31 40  1  0  0  0
 21 23  1  0  0  0
M  END
> <minimizedAffinity>
-7.67445

$$$$
6MA2_J9S_A_1101


 40 43  0  0  0  0  0  0  0  0999 V2000
    2.2668  -46.4936   15.1495 C   0  0  0  0  0  0  0  0  0  0  0  0
    1.2148  -45.0580   13.2165 C   0  0  0  0  0  0  0  0  0  0  0  0
    1.3370  -46.3162   13.8871 C   0  0  0  0  0  0  0  0  0  0  0  0
    0.3779  -44.9127   12.0925 C   0  0  0  0  0  0  0  0  0  0  0  0
   -0.3632  -46.0050   11.6035 C   0  0  0  0  0  0  0  0  0  0  0  0
   -0.2681  -47.2566   12.2336 C   0  0  0  0  0  0  0  0  0  0  0  0
    0.5754  -47.4059   13.3705 C   0  0  0  0  0  0  0  0  0  0  0  0
    1.9782  -44.0117   13.7576 O   0  0  0  0  0  0  0  0  0  0  0  0
    1.4329  -42.6774   13.9704 C   0  0  0  0  0  0  0  0  0  0  0  0
    3.8355  -46.8192   14.7415 C   0  0  0  0  0  0  0  0  0  0  0  0
    4.4927  -48.0241   14.8282 N   0  0  0  0  0  0  0  0  0  0  0  0
    4.3468  -45.7499   14.2983 O   0  0  0  0  0  0  0  0  0  0  0  0
    3.8687  -49.3489   15.3600 C   0  0  0  0  0  0  0  0  0  0  0  0
    4.6624  -50.6937   15.1180 C   0  0  0  0  0  0  0  0  0  0  0  0
    4.7085  -51.5822   14.0578 C   0  0  0  0  0  0  0  0  0  0  0  0
    6.2408  -52.7406   15.4153 C   0  0  0  0  0  0  0  0  0  0  0  0
    5.5782  -52.7164   14.2195 C   0  0  0  0  0  0  0  0  0  0  0  0
    5.7684  -51.3410   16.3335 S   0  0  0  0  0  0  0  0  0  0  0  0
    5.8994  -48.1837   14.3911 C   0  0  0  0  0  0  0  0  0  0  0  0
    6.9672  -47.4989   15.4306 C   0  0  0  0  0  0  0  0  0  0  0  0
    6.9845  -47.9766   16.5922 O   0  0  0  0  0  0  0  0  0  0  0  0
    7.6904  -46.5439   15.0355 O   0  0  0  0  0  0  0  0  0  0  0  0
    6.4172  -48.6884   16.8146 H   0  0  0  0  0  0  0  0  0  0  0  0
    2.2030  -45.3247   16.1095 N   0  0  0  0  0  0  0  0  0  0  0  0
    3.1128  -45.2546   16.5652 H   0  0  0  0  0  0  0  0  0  0  0  0
    1.0350  -45.3712   17.3224 S   0  0  0  0  0  0  0  0  0  0  0  0
    1.4809  -44.5842   18.4062 O   0  0  0  0  0  0  0  0  0  0  0  0
    0.5759  -46.6551   17.6617 O   0  0  0  0  0  0  0  0  0  0  0  0
   -5.3374  -41.6982   13.4548 O   0  0  0  0  0  0  0  0  0  0  0  0
   -4.4462  -42.4237   13.8647 C   0  0  0  0  0  0  0  0  0  0  0  0
   -3.6582  -41.9665   14.9408 N   0  0  0  0  0  0  0  0  0  0  0  0
   -2.5938  -42.7557   15.4891 C   0  0  0  0  0  0  0  0  0  0  0  0
   -2.3034  -44.0368   14.9380 C   0  0  0  0  0  0  0  0  0  0  0  0
   -3.1073  -44.5236   13.8005 C   0  0  0  0  0  0  0  0  0  0  0  0
   -4.1389  -43.7537   13.2850 C   0  0  0  0  0  0  0  0  0  0  0  0
   -1.2104  -44.7875   15.5334 C   0  0  0  0  0  0  0  0  0  0  0  0
   -0.4258  -44.3579   16.6127 C   0  0  0  0  0  0  0  0  0  0  0  0
   -0.7394  -43.0522   17.1203 C   0  0  0  0  0  0  0  0  0  0  0  0
   -1.7986  -42.2809   16.5906 C   0  0  0  0  0  0  0  0  0  0  0  0
   -3.8439  -41.0800   15.3267 H   0  0  0  0  0  0  0  0  0  0  0  0
 29 30  2  0  0  0
 30 35  1  0  0  0
 30 31  1  0  0  0
 35 34  2  0  0  0
 31 32  1  0  0  0
 34 33  1  0  0  0
 32 33  2  0  0  0
 32 39  1  0  0  0
 33 36  1  0  0  0
 39 38  2  0  0  0
 36 37  2  0  0  0
 38 37  1  0  0  0
 37 26  1  0  0  0
 28 26  2  0  0  0
 17 16  2  0  0  0
 17 15  1  0  0  0
 16 18  1  0  0  0
 26 27  2  0  0  0
 26 24  1  0  0  0
 15 14  2  0  0  0
 18 14  1  0  0  0
 24  1  1  0  0  0
 14 13  1  0  0  0
 12 10  2  0  0  0
 10  1  1  0  0  0
 10 11  1  0  0  0
 19 11  1  0  0  0
 19 20  1  0  0  0
  1  3  1  0  0  0
 11 13  1  0  0  0
  8  9  1  0  0  0
  8  2  1  0  0  0
 20 22  2  0  0  0
 20 21  1  0  0  0
  3  2  2  0  0  0
  3  7  1  0  0  0
  2  4  1  0  0  0
  7  6  2  0  0  0
  4  5  2  0  0  0
  6  5  1  0  0  0
 24 25  1  0  0  0
 31 40  1  0  0  0
 21 23  1  0  0  0
M  END
> <minimizedAffinity>
-7.66897

$$$$
