4DCS_GDP_A_501
  RCSB PDB12061712113D
Coordinates from PDB:4DCS:A:501 Model:1 without hydrogens
 28 30  0  0  0  0            999 V2000
  -14.1270   -8.5680  -33.7830   P 0  0  0  0  0  0  0  0  0  0  0  0
  -14.3870   -7.1050  -34.0250   O 0  0  0  0  0  0  0  0  0  0  0  0
  -12.8860   -9.0490  -34.4980   O 0  0  0  0  0  0  0  0  0  0  0  0
  -14.2200   -8.9980  -32.3420   O 0  0  0  0  0  0  0  0  0  0  0  0
  -15.3160   -9.3420  -34.5400   O 0  0  0  0  0  0  0  0  0  0  0  0
  -16.6060   -9.9890  -33.8310   P 0  0  0  0  0  0  0  0  0  0  0  0
  -16.2960  -11.2950  -33.1390   O 0  0  0  0  0  0  0  0  0  0  0  0
  -17.3480   -8.9170  -33.0590   O 0  0  0  0  0  0  0  0  0  0  0  0
  -17.4690  -10.3900  -35.1320   O 0  0  0  0  0  0  0  0  0  0  0  0
  -17.8500   -9.4520  -36.1420   C 0  0  0  0  0  0  0  0  0  0  0  0
  -18.9820  -10.0460  -36.9740   C 0  0  0  0  0  0  0  0  0  0  0  0
  -18.4970  -11.1360  -37.7710   O 0  0  0  0  0  0  0  0  0  0  0  0
  -20.0910  -10.6060  -36.0910   C 0  0  0  0  0  0  0  0  0  0  0  0
  -21.3500  -10.3140  -36.6900   O 0  0  0  0  0  0  0  0  0  0  0  0
  -19.9010  -12.1080  -36.1490   C 0  0  0  0  0  0  0  0  0  0  0  0
  -21.1360  -12.8100  -35.9960   O 0  0  0  0  0  0  0  0  0  0  0  0
  -19.2920  -12.3110  -37.5300   C 0  0  0  0  0  0  0  0  0  0  0  0
  -18.4950  -13.5580  -37.5360   N 0  0  0  0  0  0  0  0  0  0  0  0
  -17.5200  -13.8770  -36.6610   C 0  0  0  0  0  0  0  0  0  0  0  0
  -17.0000  -15.0980  -36.9440   N 0  0  0  0  0  0  0  0  0  0  0  0
  -17.6400  -15.5800  -38.0240   C 0  0  0  0  0  0  0  0  0  0  0  0
  -17.5720  -16.8090  -38.8480   C 0  0  0  0  0  0  0  0  0  0  0  0
  -16.7650  -17.7250  -38.5940   O 0  0  0  0  0  0  0  0  0  0  0  0
  -18.4230  -16.9180  -39.8780   N 0  0  0  0  0  0  0  0  0  0  0  0
  -19.3140  -15.9570  -40.2010   C 0  0  0  0  0  0  0  0  0  0  0  0
  -20.1210  -16.1570  -41.2780   N 0  0  0  0  0  0  0  0  0  0  0  0
  -19.4130  -14.7970  -39.4920   N 0  0  0  0  0  0  0  0  0  0  0  0
  -18.6290  -14.5630  -38.4110   C 0  0  0  0  0  0  0  0  0  0  0  0
  1  2  2  0  0  0  0
  1  3  1  0  0  0  0
  1  4  1  0  0  0  0
  1  5  1  0  0  0  0
  5  6  1  0  0  0  0
  6  7  2  0  0  0  0
  6  8  1  0  0  0  0
  6  9  1  0  0  0  0
  9 10  1  0  0  0  0
 10 11  1  0  0  0  0
 11 12  1  0  0  0  0
 11 13  1  0  0  0  0
 12 17  1  0  0  0  0
 13 14  1  0  0  0  0
 13 15  1  0  0  0  0
 15 16  1  0  0  0  0
 15 17  1  0  0  0  0
 17 18  1  0  0  0  0
 18 19  1  0  0  0  0
 18 28  1  0  0  0  0
 19 20  2  0  0  0  0
 20 21  1  0  0  0  0
 21 22  1  0  0  0  0
 21 28  2  0  0  0  0
 22 23  2  0  0  0  0
 22 24  1  0  0  0  0
 24 25  1  0  0  0  0
 25 26  1  0  0  0  0
 25 27  2  0  0  0  0
 27 28  1  0  0  0  0
A    1
PB
A    2
O1B
A    3
O2B
A    4
O3B
A    5
O3A
A    6
PA
A    7
O1A
A    8
O2A
A    9
O5'
A   10
C5'
A   11
C4'
A   12
O4'
A   13
C3'
A   14
O3'
A   15
C2'
A   16
O2'
A   17
C1'
A   18
N9
A   19
C8
A   20
N7
A   21
C5
A   22
C6
A   23
O6
A   24
N1
A   25
C2
A   26
N2
A   27
N3
A   28
C4
M  END
>  <InstanceId>
4DCS_GDP_A_501

>  <ChemCompId>
GDP

>  <PdbId>
4DCS

>  <ChainId>
A

>  <ResidueNumber>
501

>  <InsertionCode>


>  <Model>
1

>  <AltIds>


>  <MissingHeavyAtoms>
0

>  <ObservedFormula>
C10 N5 O11 P2

>  <Name>
GUANOSINE-5'-DIPHOSPHATE

>  <SystematicName>
[(2R,3S,4R,5R)-5-(2-azanyl-6-oxidanylidene-1H-purin-9-yl)-3,4-bis(oxidanyl)oxolan-2-yl]methyl phosphono hydrogen phosphate

>  <Synonyms>


>  <Type>
RNA LINKING

>  <Formula>
C10 H15 N5 O11 P2

>  <MolecularWeight>
443.201

>  <ModifiedDate>
2014-05-12

>  <Parent>
G

>  <OneLetterCode>
G

>  <SubcomponentList>


>  <AmbiguousFlag>
N

>  <InChI>
InChI=1S/C10H15N5O11P2/c11-10-13-7-4(8(18)14-10)12-2-15(7)9-6(17)5(16)3(25-9)1-24-28(22,23)26-27(19,20)21/h2-3,5-6,9,16-17H,1H2,(H,22,23)(H2,19,20,21)(H3,11,13,14,18)/t3-,5-,6-,9-/m1/s1

>  <InChIKey>
QGWNDRXFNXRZMB-UUOKFMHZSA-N

>  <SMILES>
c1nc2c(n1[C@H]3[C@@H]([C@@H]([C@H](O3)CO[P@](=O)(O)OP(=O)(O)O)O)O)N=C(NC2=O)N

$$$$
