5G2G_EQU_A_1129


 21 24  0  0  0  0  0  0  0  0999 V2000
    2.4895  -14.0157  -12.3589 C   0  0  0  0  0  0  0  0  0  0  0  0
    2.7579  -12.8437  -13.0732 C   0  0  0  0  0  0  0  0  0  0  0  0
    2.0954  -11.6617  -12.7465 C   0  0  0  0  0  0  0  0  0  0  0  0
    1.1414  -11.6207  -11.6902 C   0  0  0  0  0  0  0  0  0  0  0  0
    0.8768  -12.7930  -10.9726 C   0  0  0  0  0  0  0  0  0  0  0  0
    1.5319  -13.9984  -11.3063 C   0  0  0  0  0  0  0  0  0  0  0  0
    2.3763  -10.3971  -13.4871 C   0  0  0  0  0  0  0  0  0  0  0  0
    1.6874   -9.1700  -13.1464 C   0  0  0  0  0  0  0  0  0  0  0  0
    0.7446   -9.0830  -12.1094 C   0  0  0  0  0  0  0  0  0  0  0  0
    0.4656  -10.4384  -11.3605 C   0  0  0  0  0  0  0  0  0  0  0  0
    0.2611   -8.2791  -11.7980 C   0  0  0  0  0  0  0  0  0  0  0  0
   -0.0763   -8.1364  -10.5537 C   0  0  0  0  0  0  0  0  0  0  0  0
   -1.0268   -9.2222  -10.1034 C   0  0  0  0  0  0  0  0  0  0  0  0
   -0.5386  -10.3339  -10.2546 C   0  0  0  0  0  0  0  0  0  0  0  0
    0.7358   -6.9764  -12.1137 C   0  0  0  0  0  0  0  0  0  0  0  0
    0.0479   -5.9865  -11.2578 C   0  0  0  0  0  0  0  0  0  0  0  0
   -0.6084   -6.6718  -10.4242 C   0  0  0  0  0  0  0  0  0  0  0  0
    1.1028   -8.1157   -9.5506 C   0  0  0  0  0  0  0  0  0  0  0  0
    3.1699  -15.1994  -12.6552 O   0  0  0  0  0  0  0  0  0  0  0  0
   -1.4564   -6.2828   -9.6913 O   0  0  0  0  0  0  0  0  0  0  0  0
    3.8014  -15.2162  -13.3472 H   0  0  0  0  0  0  0  0  0  0  0  0
  1  2  2  0  0  0
  1  6  1  0  0  0
  1 19  1  0  0  0
  2  3  1  0  0  0
  3  4  2  0  0  0
  3  7  1  0  0  0
  4  5  1  0  0  0
  4 10  1  0  0  0
  5  6  2  0  0  0
  7  8  2  0  0  0
  8  9  1  0  0  0
  9 10  2  0  0  0
  9 11  1  0  0  0
 10 14  1  0  0  0
 11 12  1  0  0  0
 11 15  1  0  0  0
 12 13  1  0  0  0
 12 17  1  0  0  0
 12 18  1  0  0  0
 13 14  1  0  0  0
 15 16  1  0  0  0
 16 17  1  0  0  0
 17 20  2  0  0  0
 19 21  1  0  0  0
M  END
> <minimizedAffinity>
-9.92109

$$$$
5G2G_EQU_A_1129


 21 24  0  0  0  0  0  0  0  0999 V2000
    0.1730   -6.2114  -11.4897 C   0  0  0  0  0  0  0  0  0  0  0  0
   -0.4709   -7.2716  -10.8438 C   0  0  0  0  0  0  0  0  0  0  0  0
   -0.0856   -8.5850  -11.1073 C   0  0  0  0  0  0  0  0  0  0  0  0
    0.9605   -8.8740  -12.0291 C   0  0  0  0  0  0  0  0  0  0  0  0
    1.6077   -7.8122  -12.6716 C   0  0  0  0  0  0  0  0  0  0  0  0
    1.2139   -6.4793  -12.4224 C   0  0  0  0  0  0  0  0  0  0  0  0
   -0.7504   -9.7302  -10.4194 C   0  0  0  0  0  0  0  0  0  0  0  0
   -0.3488  -11.0940  -10.6940 C   0  0  0  0  0  0  0  0  0  0  0  0
    0.6807  -11.4240  -11.5901 C   0  0  0  0  0  0  0  0  0  0  0  0
    1.3487  -10.1917  -12.3051 C   0  0  0  0  0  0  0  0  0  0  0  0
    1.0316  -12.3232  -11.8031 C   0  0  0  0  0  0  0  0  0  0  0  0
    2.2780  -12.5033  -12.1135 C   0  0  0  0  0  0  0  0  0  0  0  0
    2.6554  -11.7546  -13.3713 C   0  0  0  0  0  0  0  0  0  0  0  0
    2.4473  -10.5544  -13.2559 C   0  0  0  0  0  0  0  0  0  0  0  0
    0.7952  -13.4217  -10.9316 C   0  0  0  0  0  0  0  0  0  0  0  0
    1.6978  -14.5348  -11.2951 C   0  0  0  0  0  0  0  0  0  0  0  0
    2.4839  -14.0527  -12.1582 C   0  0  0  0  0  0  0  0  0  0  0  0
    3.2940  -12.0984  -11.0177 C   0  0  0  0  0  0  0  0  0  0  0  0
   -0.1819   -4.8892  -11.2107 O   0  0  0  0  0  0  0  0  0  0  0  0
    3.2279  -14.6537  -12.8601 O   0  0  0  0  0  0  0  0  0  0  0  0
   -0.8665   -4.7074  -10.5974 H   0  0  0  0  0  0  0  0  0  0  0  0
  1  2  2  0  0  0
  1  6  1  0  0  0
  1 19  1  0  0  0
  2  3  1  0  0  0
  3  4  2  0  0  0
  3  7  1  0  0  0
  4  5  1  0  0  0
  4 10  1  0  0  0
  5  6  2  0  0  0
  7  8  2  0  0  0
  8  9  1  0  0  0
  9 10  2  0  0  0
  9 11  1  0  0  0
 10 14  1  0  0  0
 11 12  1  0  0  0
 11 15  1  0  0  0
 12 13  1  0  0  0
 12 17  1  0  0  0
 12 18  1  0  0  0
 13 14  1  0  0  0
 15 16  1  0  0  0
 16 17  1  0  0  0
 17 20  2  0  0  0
 19 21  1  0  0  0
M  END
> <minimizedAffinity>
-9.77497

$$$$
5G2G_EQU_A_1129


 21 24  0  0  0  0  0  0  0  0999 V2000
   -0.6109   -5.8053   -8.8484 C   0  0  0  0  0  0  0  0  0  0  0  0
   -1.3501   -6.9272   -9.2364 C   0  0  0  0  0  0  0  0  0  0  0  0
   -0.6937   -8.0801   -9.6641 C   0  0  0  0  0  0  0  0  0  0  0  0
    0.7280   -8.1413   -9.7148 C   0  0  0  0  0  0  0  0  0  0  0  0
    1.4673   -7.0196   -9.3217 C   0  0  0  0  0  0  0  0  0  0  0  0
    0.8107   -5.8424   -8.9015 C   0  0  0  0  0  0  0  0  0  0  0  0
   -1.4627   -9.2926  -10.0701 C   0  0  0  0  0  0  0  0  0  0  0  0
   -0.7793  -10.4895  -10.5139 C   0  0  0  0  0  0  0  0  0  0  0  0
    0.6196  -10.5957  -10.5737 C   0  0  0  0  0  0  0  0  0  0  0  0
    1.3954   -9.2937  -10.1506 C   0  0  0  0  0  0  0  0  0  0  0  0
    1.1555  -11.3850  -10.8322 C   0  0  0  0  0  0  0  0  0  0  0  0
    2.3195  -11.6101  -10.3062 C   0  0  0  0  0  0  0  0  0  0  0  0
    3.2974  -10.4994  -10.6147 C   0  0  0  0  0  0  0  0  0  0  0  0
    2.8863   -9.4186  -10.2147 C   0  0  0  0  0  0  0  0  0  0  0  0
    0.5841  -12.6871  -10.8230 C   0  0  0  0  0  0  0  0  0  0  0  0
    1.6638  -13.6935  -10.9084 C   0  0  0  0  0  0  0  0  0  0  0  0
    2.7361  -13.0362  -10.7935 C   0  0  0  0  0  0  0  0  0  0  0  0
    2.3205  -11.8070   -8.7705 C   0  0  0  0  0  0  0  0  0  0  0  0
   -1.2557   -4.6547   -8.3875 O   0  0  0  0  0  0  0  0  0  0  0  0
    3.8365  -13.4228  -11.0109 O   0  0  0  0  0  0  0  0  0  0  0  0
   -2.1915   -4.6251   -8.3505 H   0  0  0  0  0  0  0  0  0  0  0  0
  1  2  2  0  0  0
  1  6  1  0  0  0
  1 19  1  0  0  0
  2  3  1  0  0  0
  3  4  2  0  0  0
  3  7  1  0  0  0
  4  5  1  0  0  0
  4 10  1  0  0  0
  5  6  2  0  0  0
  7  8  2  0  0  0
  8  9  1  0  0  0
  9 10  2  0  0  0
  9 11  1  0  0  0
 10 14  1  0  0  0
 11 12  1  0  0  0
 11 15  1  0  0  0
 12 13  1  0  0  0
 12 17  1  0  0  0
 12 18  1  0  0  0
 13 14  1  0  0  0
 15 16  1  0  0  0
 16 17  1  0  0  0
 17 20  2  0  0  0
 19 21  1  0  0  0
M  END
> <minimizedAffinity>
-8.97462

$$$$
5G2G_EQU_A_1129


 21 24  0  0  0  0  0  0  0  0999 V2000
   -0.8992   -6.8749   -9.9602 C   0  0  0  0  0  0  0  0  0  0  0  0
   -0.1105   -6.8756  -11.1151 C   0  0  0  0  0  0  0  0  0  0  0  0
    0.5942   -8.0225  -11.4767 C   0  0  0  0  0  0  0  0  0  0  0  0
    0.5279   -9.2061  -10.6879 C   0  0  0  0  0  0  0  0  0  0  0  0
   -0.2654   -9.2062   -9.5346 C   0  0  0  0  0  0  0  0  0  0  0  0
   -0.9707   -8.0443   -9.1524 C   0  0  0  0  0  0  0  0  0  0  0  0
    1.4311   -8.0490  -12.7118 C   0  0  0  0  0  0  0  0  0  0  0  0
    2.1624   -9.2413  -13.0862 C   0  0  0  0  0  0  0  0  0  0  0  0
    2.1209  -10.4311  -12.3417 C   0  0  0  0  0  0  0  0  0  0  0  0
    1.2392  -10.3607  -11.0403 C   0  0  0  0  0  0  0  0  0  0  0  0
    2.5630  -11.2903  -12.5500 C   0  0  0  0  0  0  0  0  0  0  0  0
    2.0276  -12.4222  -12.2118 C   0  0  0  0  0  0  0  0  0  0  0  0
    1.8781  -12.5450  -10.7126 C   0  0  0  0  0  0  0  0  0  0  0  0
    1.1992  -11.6355  -10.2556 C   0  0  0  0  0  0  0  0  0  0  0  0
    3.0172  -11.5743  -13.8672 C   0  0  0  0  0  0  0  0  0  0  0  0
    3.3129  -13.0185  -13.9798 C   0  0  0  0  0  0  0  0  0  0  0  0
    2.8971  -13.5247  -12.8999 C   0  0  0  0  0  0  0  0  0  0  0  0
    0.6387  -12.7052  -12.8347 C   0  0  0  0  0  0  0  0  0  0  0  0
   -1.6356   -5.7424   -9.6039 O   0  0  0  0  0  0  0  0  0  0  0  0
    3.1207  -14.6157  -12.4909 O   0  0  0  0  0  0  0  0  0  0  0  0
   -1.5921   -4.9699  -10.1324 H   0  0  0  0  0  0  0  0  0  0  0  0
  1  2  2  0  0  0
  1  6  1  0  0  0
  1 19  1  0  0  0
  2  3  1  0  0  0
  3  4  2  0  0  0
  3  7  1  0  0  0
  4  5  1  0  0  0
  4 10  1  0  0  0
  5  6  2  0  0  0
  7  8  2  0  0  0
  8  9  1  0  0  0
  9 10  2  0  0  0
  9 11  1  0  0  0
 10 14  1  0  0  0
 11 12  1  0  0  0
 11 15  1  0  0  0
 12 13  1  0  0  0
 12 17  1  0  0  0
 12 18  1  0  0  0
 13 14  1  0  0  0
 15 16  1  0  0  0
 16 17  1  0  0  0
 17 20  2  0  0  0
 19 21  1  0  0  0
M  END
> <minimizedAffinity>
-8.73083

$$$$
5G2G_EQU_A_1129


 21 24  0  0  0  0  0  0  0  0999 V2000
    3.5987   -5.5990  -10.7020 C   0  0  0  0  0  0  0  0  0  0  0  0
    2.9400   -6.2172  -11.7696 C   0  0  0  0  0  0  0  0  0  0  0  0
    2.8103   -7.6047  -11.7987 C   0  0  0  0  0  0  0  0  0  0  0  0
    3.3391   -8.4151  -10.7541 C   0  0  0  0  0  0  0  0  0  0  0  0
    3.9941   -7.7954   -9.6835 C   0  0  0  0  0  0  0  0  0  0  0  0
    4.1434   -6.3917   -9.6532 C   0  0  0  0  0  0  0  0  0  0  0  0
    2.0999   -8.2836  -12.9216 C   0  0  0  0  0  0  0  0  0  0  0  0
    1.9658   -9.7250  -12.9503 C   0  0  0  0  0  0  0  0  0  0  0  0
    2.4661  -10.5614  -11.9394 C   0  0  0  0  0  0  0  0  0  0  0  0
    3.2195   -9.8110  -10.7796 C   0  0  0  0  0  0  0  0  0  0  0  0
    2.3849  -11.5443  -11.8727 C   0  0  0  0  0  0  0  0  0  0  0  0
    2.3079  -12.1368  -10.7214 C   0  0  0  0  0  0  0  0  0  0  0  0
    3.5480  -11.9050   -9.8886 C   0  0  0  0  0  0  0  0  0  0  0  0
    3.7461  -10.7116   -9.7053 C   0  0  0  0  0  0  0  0  0  0  0  0
    1.3976  -12.2451  -12.6184 C   0  0  0  0  0  0  0  0  0  0  0  0
    1.2664  -13.6174  -12.0840 C   0  0  0  0  0  0  0  0  0  0  0  0
    1.9706  -13.6309  -11.0356 C   0  0  0  0  0  0  0  0  0  0  0  0
    1.0915  -11.7321   -9.8533 C   0  0  0  0  0  0  0  0  0  0  0  0
    3.7075   -4.2074  -10.6448 O   0  0  0  0  0  0  0  0  0  0  0  0
    2.3074  -14.5842  -10.4148 O   0  0  0  0  0  0  0  0  0  0  0  0
    3.3505   -3.6808  -11.3328 H   0  0  0  0  0  0  0  0  0  0  0  0
  1  2  2  0  0  0
  1  6  1  0  0  0
  1 19  1  0  0  0
  2  3  1  0  0  0
  3  4  2  0  0  0
  3  7  1  0  0  0
  4  5  1  0  0  0
  4 10  1  0  0  0
  5  6  2  0  0  0
  7  8  2  0  0  0
  8  9  1  0  0  0
  9 10  2  0  0  0
  9 11  1  0  0  0
 10 14  1  0  0  0
 11 12  1  0  0  0
 11 15  1  0  0  0
 12 13  1  0  0  0
 12 17  1  0  0  0
 12 18  1  0  0  0
 13 14  1  0  0  0
 15 16  1  0  0  0
 16 17  1  0  0  0
 17 20  2  0  0  0
 19 21  1  0  0  0
M  END
> <minimizedAffinity>
-8.51226

$$$$
5G2G_EQU_A_1129


 21 24  0  0  0  0  0  0  0  0999 V2000
    2.8889  -13.7250  -12.3219 C   0  0  0  0  0  0  0  0  0  0  0  0
    2.6842  -12.7280  -13.2809 C   0  0  0  0  0  0  0  0  0  0  0  0
    2.3569  -11.4334  -12.8811 C   0  0  0  0  0  0  0  0  0  0  0  0
    2.2253  -11.1003  -11.5029 C   0  0  0  0  0  0  0  0  0  0  0  0
    2.4349  -12.0976  -10.5434 C   0  0  0  0  0  0  0  0  0  0  0  0
    2.7519  -13.4152  -10.9397 C   0  0  0  0  0  0  0  0  0  0  0  0
    2.1472  -10.3517  -13.8871 C   0  0  0  0  0  0  0  0  0  0  0  0
    1.8075   -9.0073  -13.4701 C   0  0  0  0  0  0  0  0  0  0  0  0
    1.6736   -8.6336  -12.1232 C   0  0  0  0  0  0  0  0  0  0  0  0
    1.8892   -9.8032  -11.0929 C   0  0  0  0  0  0  0  0  0  0  0  0
    1.4781   -7.7346  -11.7619 C   0  0  0  0  0  0  0  0  0  0  0  0
    1.9535   -7.3509  -10.6177 C   0  0  0  0  0  0  0  0  0  0  0  0
    1.4543   -8.2184   -9.4849 C   0  0  0  0  0  0  0  0  0  0  0  0
    1.7475   -9.3934   -9.6596 C   0  0  0  0  0  0  0  0  0  0  0  0
    1.6781   -6.5720  -12.5558 C   0  0  0  0  0  0  0  0  0  0  0  0
    1.6461   -5.3768  -11.6861 C   0  0  0  0  0  0  0  0  0  0  0  0
    1.6146   -5.8285  -10.5071 C   0  0  0  0  0  0  0  0  0  0  0  0
    3.4986   -7.3206  -10.5242 C   0  0  0  0  0  0  0  0  0  0  0  0
    3.2486  -15.0186  -12.7080 O   0  0  0  0  0  0  0  0  0  0  0  0
    1.3767   -5.2206   -9.5164 O   0  0  0  0  0  0  0  0  0  0  0  0
    3.3402  -15.2279  -13.6168 H   0  0  0  0  0  0  0  0  0  0  0  0
  1  2  2  0  0  0
  1  6  1  0  0  0
  1 19  1  0  0  0
  2  3  1  0  0  0
  3  4  2  0  0  0
  3  7  1  0  0  0
  4  5  1  0  0  0
  4 10  1  0  0  0
  5  6  2  0  0  0
  7  8  2  0  0  0
  8  9  1  0  0  0
  9 10  2  0  0  0
  9 11  1  0  0  0
 10 14  1  0  0  0
 11 12  1  0  0  0
 11 15  1  0  0  0
 12 13  1  0  0  0
 12 17  1  0  0  0
 12 18  1  0  0  0
 13 14  1  0  0  0
 15 16  1  0  0  0
 16 17  1  0  0  0
 17 20  2  0  0  0
 19 21  1  0  0  0
M  END
> <minimizedAffinity>
-8.44238

$$$$
5G2G_EQU_A_1129


 21 24  0  0  0  0  0  0  0  0999 V2000
    3.0027  -13.7484  -12.4955 C   0  0  0  0  0  0  0  0  0  0  0  0
    2.8140  -13.2384  -11.2071 C   0  0  0  0  0  0  0  0  0  0  0  0
    2.5103  -11.8897  -11.0294 C   0  0  0  0  0  0  0  0  0  0  0  0
    2.3863  -11.0106  -12.1426 C   0  0  0  0  0  0  0  0  0  0  0  0
    2.5705  -11.5227  -13.4322 C   0  0  0  0  0  0  0  0  0  0  0  0
    2.8934  -12.8843  -13.6209 C   0  0  0  0  0  0  0  0  0  0  0  0
    2.2922  -11.3278   -9.6644 C   0  0  0  0  0  0  0  0  0  0  0  0
    1.9765   -9.9265   -9.4814 C   0  0  0  0  0  0  0  0  0  0  0  0
    1.8389   -9.0262  -10.5501 C   0  0  0  0  0  0  0  0  0  0  0  0
    2.0887   -9.6520  -11.9721 C   0  0  0  0  0  0  0  0  0  0  0  0
    1.5937   -8.0695  -10.5069 C   0  0  0  0  0  0  0  0  0  0  0  0
    0.9201   -7.5036  -11.4599 C   0  0  0  0  0  0  0  0  0  0  0  0
    1.6700   -7.5374  -12.7719 C   0  0  0  0  0  0  0  0  0  0  0  0
    1.9362   -8.6843  -13.1047 C   0  0  0  0  0  0  0  0  0  0  0  0
    0.9585   -7.5326   -9.3536 C   0  0  0  0  0  0  0  0  0  0  0  0
    0.4015   -6.2023   -9.6791 C   0  0  0  0  0  0  0  0  0  0  0  0
    0.5466   -6.0814  -10.9279 C   0  0  0  0  0  0  0  0  0  0  0  0
   -0.4834   -8.1035  -11.7195 C   0  0  0  0  0  0  0  0  0  0  0  0
    3.2760  -15.1048  -12.6894 O   0  0  0  0  0  0  0  0  0  0  0  0
    0.4238   -5.0898  -11.5676 O   0  0  0  0  0  0  0  0  0  0  0  0
    3.3489  -15.6780  -11.9518 H   0  0  0  0  0  0  0  0  0  0  0  0
  1  2  2  0  0  0
  1  6  1  0  0  0
  1 19  1  0  0  0
  2  3  1  0  0  0
  3  4  2  0  0  0
  3  7  1  0  0  0
  4  5  1  0  0  0
  4 10  1  0  0  0
  5  6  2  0  0  0
  7  8  2  0  0  0
  8  9  1  0  0  0
  9 10  2  0  0  0
  9 11  1  0  0  0
 10 14  1  0  0  0
 11 12  1  0  0  0
 11 15  1  0  0  0
 12 13  1  0  0  0
 12 17  1  0  0  0
 12 18  1  0  0  0
 13 14  1  0  0  0
 15 16  1  0  0  0
 16 17  1  0  0  0
 17 20  2  0  0  0
 19 21  1  0  0  0
M  END
> <minimizedAffinity>
-8.42403

$$$$
5G2G_EQU_A_1129


 21 24  0  0  0  0  0  0  0  0999 V2000
    1.4947  -13.6875  -11.4213 C   0  0  0  0  0  0  0  0  0  0  0  0
    2.0197  -13.2715  -10.1937 C   0  0  0  0  0  0  0  0  0  0  0  0
    2.5781  -12.0003  -10.0698 C   0  0  0  0  0  0  0  0  0  0  0  0
    2.6260  -11.1066  -11.1772 C   0  0  0  0  0  0  0  0  0  0  0  0
    2.0961  -11.5220  -12.4044 C   0  0  0  0  0  0  0  0  0  0  0  0
    1.5422  -12.8133  -12.5432 C   0  0  0  0  0  0  0  0  0  0  0  0
    3.1319  -11.5316   -8.7659 C   0  0  0  0  0  0  0  0  0  0  0  0
    3.7114  -10.2108   -8.6387 C   0  0  0  0  0  0  0  0  0  0  0  0
    3.7739   -9.2957   -9.7020 C   0  0  0  0  0  0  0  0  0  0  0  0
    3.1923   -9.8301  -11.0629 C   0  0  0  0  0  0  0  0  0  0  0  0
    4.1217   -8.3706   -9.6837 C   0  0  0  0  0  0  0  0  0  0  0  0
    3.6184   -7.4472  -10.4430 C   0  0  0  0  0  0  0  0  0  0  0  0
    3.7847   -7.7759  -11.9091 C   0  0  0  0  0  0  0  0  0  0  0  0
    3.2608   -8.8455  -12.1891 C   0  0  0  0  0  0  0  0  0  0  0  0
    4.2727   -7.6742   -8.4532 C   0  0  0  0  0  0  0  0  0  0  0  0
    4.4708   -6.2352   -8.7290 C   0  0  0  0  0  0  0  0  0  0  0  0
    4.2705   -6.1073   -9.9695 C   0  0  0  0  0  0  0  0  0  0  0  0
    2.1175   -7.1483  -10.2086 C   0  0  0  0  0  0  0  0  0  0  0  0
    0.9036  -14.9468  -11.5507 O   0  0  0  0  0  0  0  0  0  0  0  0
    4.5252   -5.1618  -10.6393 O   0  0  0  0  0  0  0  0  0  0  0  0
    0.8697  -15.5262  -10.8151 H   0  0  0  0  0  0  0  0  0  0  0  0
  1  2  2  0  0  0
  1  6  1  0  0  0
  1 19  1  0  0  0
  2  3  1  0  0  0
  3  4  2  0  0  0
  3  7  1  0  0  0
  4  5  1  0  0  0
  4 10  1  0  0  0
  5  6  2  0  0  0
  7  8  2  0  0  0
  8  9  1  0  0  0
  9 10  2  0  0  0
  9 11  1  0  0  0
 10 14  1  0  0  0
 11 12  1  0  0  0
 11 15  1  0  0  0
 12 13  1  0  0  0
 12 17  1  0  0  0
 12 18  1  0  0  0
 13 14  1  0  0  0
 15 16  1  0  0  0
 16 17  1  0  0  0
 17 20  2  0  0  0
 19 21  1  0  0  0
M  END
> <minimizedAffinity>
-8.36440

$$$$
5G2G_EQU_A_1129


 21 24  0  0  0  0  0  0  0  0999 V2000
   -0.2129   -6.1804   -9.3415 C   0  0  0  0  0  0  0  0  0  0  0  0
    1.0963   -6.6721   -9.3299 C   0  0  0  0  0  0  0  0  0  0  0  0
    1.3335   -8.0271   -9.5553 C   0  0  0  0  0  0  0  0  0  0  0  0
    0.2608   -8.9310   -9.8001 C   0  0  0  0  0  0  0  0  0  0  0  0
   -1.0489   -8.4372   -9.8162 C   0  0  0  0  0  0  0  0  0  0  0  0
   -1.2998   -7.0691   -9.5738 C   0  0  0  0  0  0  0  0  0  0  0  0
    2.7232   -8.5703   -9.5603 C   0  0  0  0  0  0  0  0  0  0  0  0
    2.9679   -9.9780   -9.7949 C   0  0  0  0  0  0  0  0  0  0  0  0
    1.9416  -10.9027  -10.0461 C   0  0  0  0  0  0  0  0  0  0  0  0
    0.4901  -10.2956  -10.0201 C   0  0  0  0  0  0  0  0  0  0  0  0
    2.0319  -11.8664  -10.2470 C   0  0  0  0  0  0  0  0  0  0  0  0
    1.1904  -12.4736  -11.0250 C   0  0  0  0  0  0  0  0  0  0  0  0
   -0.2139  -12.4384  -10.4667 C   0  0  0  0  0  0  0  0  0  0  0  0
   -0.5965  -11.2894  -10.2924 C   0  0  0  0  0  0  0  0  0  0  0  0
    3.2700  -12.4032  -10.6951 C   0  0  0  0  0  0  0  0  0  0  0  0
    3.0441  -13.7582  -11.2419 C   0  0  0  0  0  0  0  0  0  0  0  0
    1.7890  -13.8976  -11.2675 C   0  0  0  0  0  0  0  0  0  0  0  0
    1.1210  -11.9283  -12.4724 C   0  0  0  0  0  0  0  0  0  0  0  0
   -0.4618   -4.8192   -9.1486 O   0  0  0  0  0  0  0  0  0  0  0  0
    1.1866  -14.9049  -11.4409 O   0  0  0  0  0  0  0  0  0  0  0  0
    0.2503   -4.2298   -8.9953 H   0  0  0  0  0  0  0  0  0  0  0  0
  1  2  2  0  0  0
  1  6  1  0  0  0
  1 19  1  0  0  0
  2  3  1  0  0  0
  3  4  2  0  0  0
  3  7  1  0  0  0
  4  5  1  0  0  0
  4 10  1  0  0  0
  5  6  2  0  0  0
  7  8  2  0  0  0
  8  9  1  0  0  0
  9 10  2  0  0  0
  9 11  1  0  0  0
 10 14  1  0  0  0
 11 12  1  0  0  0
 11 15  1  0  0  0
 12 13  1  0  0  0
 12 17  1  0  0  0
 12 18  1  0  0  0
 13 14  1  0  0  0
 15 16  1  0  0  0
 16 17  1  0  0  0
 17 20  2  0  0  0
 19 21  1  0  0  0
M  END
> <minimizedAffinity>
-8.22373

$$$$
5G2G_EQU_A_1129


 21 24  0  0  0  0  0  0  0  0999 V2000
    2.2906  -13.2000  -11.5398 C   0  0  0  0  0  0  0  0  0  0  0  0
    2.4956  -12.1048  -12.3849 C   0  0  0  0  0  0  0  0  0  0  0  0
    1.8352  -10.9021  -12.1390 C   0  0  0  0  0  0  0  0  0  0  0  0
    0.9473  -10.7627  -11.0346 C   0  0  0  0  0  0  0  0  0  0  0  0
    0.7463  -11.8579  -10.1865 C   0  0  0  0  0  0  0  0  0  0  0  0
    1.3993  -13.0846  -10.4365 C   0  0  0  0  0  0  0  0  0  0  0  0
    2.0495   -9.7173  -13.0204 C   0  0  0  0  0  0  0  0  0  0  0  0
    1.3629   -8.4686  -12.7635 C   0  0  0  0  0  0  0  0  0  0  0  0
    0.4843   -8.2853  -11.6836 C   0  0  0  0  0  0  0  0  0  0  0  0
    0.2739   -9.5596  -10.7849 C   0  0  0  0  0  0  0  0  0  0  0  0
    0.0077   -7.4585  -11.4257 C   0  0  0  0  0  0  0  0  0  0  0  0
   -0.2549   -7.1926  -10.1837 C   0  0  0  0  0  0  0  0  0  0  0  0
   -1.1582   -8.2360   -9.5667 C   0  0  0  0  0  0  0  0  0  0  0  0
   -0.6621   -9.3524   -9.6345 C   0  0  0  0  0  0  0  0  0  0  0  0
    0.4409   -6.1904  -11.9013 C   0  0  0  0  0  0  0  0  0  0  0  0
   -0.2091   -5.1249  -11.1088 C   0  0  0  0  0  0  0  0  0  0  0  0
   -0.8018   -5.7278  -10.1705 C   0  0  0  0  0  0  0  0  0  0  0  0
    0.9831   -7.0576   -9.2638 C   0  0  0  0  0  0  0  0  0  0  0  0
    2.9707  -14.4011  -11.7564 O   0  0  0  0  0  0  0  0  0  0  0  0
   -1.6094   -5.2743   -9.4291 O   0  0  0  0  0  0  0  0  0  0  0  0
    3.5588  -14.4823  -12.4814 H   0  0  0  0  0  0  0  0  0  0  0  0
  1  2  2  0  0  0
  1  6  1  0  0  0
  1 19  1  0  0  0
  2  3  1  0  0  0
  3  4  2  0  0  0
  3  7  1  0  0  0
  4  5  1  0  0  0
  4 10  1  0  0  0
  5  6  2  0  0  0
  7  8  2  0  0  0
  8  9  1  0  0  0
  9 10  2  0  0  0
  9 11  1  0  0  0
 10 14  1  0  0  0
 11 12  1  0  0  0
 11 15  1  0  0  0
 12 13  1  0  0  0
 12 17  1  0  0  0
 12 18  1  0  0  0
 13 14  1  0  0  0
 15 16  1  0  0  0
 16 17  1  0  0  0
 17 20  2  0  0  0
 19 21  1  0  0  0
M  END
> <minimizedAffinity>
-8.20755

$$$$
