3H30_RFZ_A_336
  RCSB PDB12061708503D
Coordinates from PDB:3H30:A:336 Model:1 without hydrogens
 20 22  0  0  0  0            999 V2000
   18.0160   -2.9300    6.7590   C 0  0  0  0  0  0  0  0  0  0  0  0
   18.9360   -3.9750    6.7390   C 0  0  0  0  0  0  0  0  0  0  0  0
   19.4540   -4.4220    5.5280   C 0  0  0  0  0  0  0  0  0  0  0  0
   20.5960   -5.7220    5.5180  Cl 0  0  0  0  0  0  0  0  0  0  0  0
   19.0450   -3.8210    4.3370   C 0  0  0  0  0  0  0  0  0  0  0  0
   19.6730   -4.3670    2.8260  Cl 0  0  0  0  0  0  0  0  0  0  0  0
   18.1240   -2.7760    4.3580   C 0  0  0  0  0  0  0  0  0  0  0  0
   17.6120   -2.3310    5.5740   C 0  0  0  0  0  0  0  0  0  0  0  0
   16.7420   -1.3780    5.8940   N 0  0  0  0  0  0  0  0  0  0  0  0
   16.5990   -1.3700    7.2180   C 0  0  0  0  0  0  0  0  0  0  0  0
   17.3780   -2.3150    7.7470   N 0  0  0  0  0  0  0  0  0  0  0  0
   17.5060   -2.6470    9.1810   C 0  0  0  0  0  0  0  0  0  0  0  0
   16.4260   -2.0430    9.9320   O 0  0  0  0  0  0  0  0  0  0  0  0
   16.8820   -1.8890   11.3070   C 0  0  0  0  0  0  0  0  0  0  0  0
   16.5630   -0.4580   11.7490   C 0  0  0  0  0  0  0  0  0  0  0  0
   15.1450   -0.2690   11.7620   O 0  0  0  0  0  0  0  0  0  0  0  0
   18.4160   -2.1350   11.2660   C 0  0  0  0  0  0  0  0  0  0  0  0
   18.7000   -3.4580   11.7500   O 0  0  0  0  0  0  0  0  0  0  0  0
   18.7600   -2.0390    9.7780   C 0  0  0  0  0  0  0  0  0  0  0  0
   19.8860   -2.8600    9.4660   O 0  0  0  0  0  0  0  0  0  0  0  0
 18 17  1  0  0  0  0
 17 14  1  0  0  0  0
 17 19  1  0  0  0  0
 14 15  1  0  0  0  0
 14 13  1  0  0  0  0
 15 16  1  0  0  0  0
 20 19  1  0  0  0  0
 19 12  1  0  0  0  0
 13 12  1  0  0  0  0
 12 11  1  0  0  0  0
 11 10  1  0  0  0  0
 11  1  1  0  0  0  0
 10  9  2  0  0  0  0
  2  1  2  0  0  0  0
  2  3  1  0  0  0  0
  1  8  1  0  0  0  0
  4  3  1  0  0  0  0
  3  5  2  0  0  0  0
  9  8  1  0  0  0  0
  8  7  2  0  0  0  0
  5  7  1  0  0  0  0
  5  6  1  0  0  0  0
A    1
C6
A    2
C5
A    3
C4
A    4
CL2
A    5
C3
A    6
CL1
A    7
C2
A    8
C7
A    9
N2
A   10
C1
A   11
N1
A   12
C1'
A   13
O4'
A   14
C4'
A   15
C5'
A   16
O5'
A   17
C3'
A   18
O3'
A   19
C2'
A   20
O2'
M  END
>  <InstanceId>
3H30_RFZ_A_336

>  <ChemCompId>
RFZ

>  <PdbId>
3H30

>  <ChainId>
A

>  <ResidueNumber>
336

>  <InsertionCode>


>  <Model>
1

>  <AltIds>


>  <MissingHeavyAtoms>
0

>  <ObservedFormula>
C12 N2 O4 Cl2

>  <Name>
5,6-dichloro-1-beta-D-ribofuranosyl-1H-benzimidazole

>  <SystematicName>
(2R,3R,4S,5R)-2-(5,6-dichlorobenzimidazol-1-yl)-5-(hydroxymethyl)oxolane-3,4-diol

>  <Synonyms>


>  <Type>
NON-POLYMER

>  <Formula>
C12 H12 Cl2 N2 O4

>  <MolecularWeight>
319.141

>  <ModifiedDate>
2011-06-04

>  <Parent>


>  <OneLetterCode>


>  <SubcomponentList>


>  <AmbiguousFlag>
N

>  <InChI>
InChI=1S/C12H12Cl2N2O4/c13-5-1-7-8(2-6(5)14)16(4-15-7)12-11(19)10(18)9(3-17)20-12/h1-2,4,9-12,17-19H,3H2/t9-,10-,11-,12-/m1/s1

>  <InChIKey>
XHSQDZXAVJRBMX-DDHJBXDOSA-N

>  <SMILES>
c1c2c(cc(c1Cl)Cl)n(cn2)[C@H]3[C@@H]([C@@H]([C@H](O3)CO)O)O

$$$$
