5F63_5W2_A_201


 45 48  0  0  0  0  0  0  0  0999 V2000
   12.7461   -5.1318    0.2785 C   0  0  0  0  0  0  0  0  0  0  0  0
   14.9135   -4.1458    0.6145 C   0  0  0  0  0  0  0  0  0  0  0  0
   14.6660   -5.9487   -0.8692 C   0  0  0  0  0  0  0  0  0  0  0  0
   13.5478   -4.1591    0.9285 C   0  0  0  0  0  0  0  0  0  0  0  0
   13.0327   -3.1635    1.9016 C   0  0  0  0  0  0  0  0  0  0  0  0
   15.4244   -5.0145   -0.2730 N   0  0  0  0  0  0  0  0  0  0  0  0
   13.3409   -6.0012   -0.5839 N   0  0  0  0  0  0  0  0  0  0  0  0
   11.4065   -5.2130    0.5453 N   0  0  0  0  0  0  0  0  0  0  0  0
   11.0657   -4.6556    1.2818 H   0  0  0  0  0  0  0  0  0  0  0  0
    9.6351   -6.7724   -2.2435 C   0  0  0  0  0  0  0  0  0  0  0  0
   10.4963   -5.9916   -0.1103 C   0  0  0  0  0  0  0  0  0  0  0  0
    7.6136   -8.5254   -2.4868 Cl  0  0  0  0  0  0  0  0  0  0  0  0
    8.6842   -7.5611   -1.5652 C   0  0  0  0  0  0  0  0  0  0  0  0
    8.6481   -7.5874   -0.1550 C   0  0  0  0  0  0  0  0  0  0  0  0
    9.5628   -6.8020    0.5499 C   0  0  0  0  0  0  0  0  0  0  0  0
   10.5274   -5.9819   -1.5176 C   0  0  0  0  0  0  0  0  0  0  0  0
    7.7204   -8.3666    0.4740 N   0  0  0  0  0  0  0  0  0  0  0  0
    7.5804   -9.2697    0.1079 H   0  0  0  0  0  0  0  0  0  0  0  0
    6.7897   -7.9402    1.8140 S   0  0  0  0  0  0  0  0  0  0  0  0
    5.3595   -8.4849    1.5102 O   0  0  0  0  0  0  0  0  0  0  0  0
    6.8434   -6.3963    2.0223 O   0  0  0  0  0  0  0  0  0  0  0  0
    7.4500   -8.8135    3.2616 C   0  0  0  0  0  0  0  0  0  0  0  0
    6.3012   -8.9388    4.2946 C   0  0  0  0  0  0  0  0  0  0  0  0
    8.6048   -7.9406    3.8043 C   0  0  0  0  0  0  0  0  0  0  0  0
    7.9579  -10.2156    2.8339 C   0  0  0  0  0  0  0  0  0  0  0  0
   15.1759   -6.8101   -1.7771 N   0  0  0  0  0  0  0  0  0  0  0  0
   16.1400   -6.6952   -1.9402 H   0  0  0  0  0  0  0  0  0  0  0  0
   14.6071   -7.8051   -2.5071 C   0  0  0  0  0  0  0  0  0  0  0  0
   12.8994   -9.4675   -3.0455 C   0  0  0  0  0  0  0  0  0  0  0  0
   13.7023   -9.9203   -4.1524 C   0  0  0  0  0  0  0  0  0  0  0  0
   13.3490   -8.3995   -2.1921 C   0  0  0  0  0  0  0  0  0  0  0  0
   11.7234  -10.0775   -2.7947 F   0  0  0  0  0  0  0  0  0  0  0  0
   14.9514   -9.2846   -4.3917 C   0  0  0  0  0  0  0  0  0  0  0  0
   15.4454   -8.2409   -3.6025 C   0  0  0  0  0  0  0  0  0  0  0  0
   13.3213  -11.0043   -5.0318 C   0  0  0  0  0  0  0  0  0  0  0  0
   13.7062  -12.2991   -4.7251 N   0  0  0  0  0  0  0  0  0  0  0  0
   12.4792  -10.7792   -5.9308 O   0  0  0  0  0  0  0  0  0  0  0  0
   14.3479  -12.3545   -3.9805 H   0  0  0  0  0  0  0  0  0  0  0  0
   13.3508  -13.5892   -5.2839 C   0  0  0  0  0  0  0  0  0  0  0  0
   11.9141  -14.0855   -4.9535 C   0  0  0  0  0  0  0  0  0  0  0  0
   11.6418  -15.3794   -5.7693 C   0  0  0  0  0  0  0  0  0  0  0  0
   12.6618  -16.4540   -5.5121 N   0  0  0  0  0  0  0  0  0  0  0  0
   12.3292  -17.7828   -6.1089 C   0  0  0  0  0  0  0  0  0  0  0  0
   14.0931  -16.0134   -5.6228 C   0  0  0  0  0  0  0  0  0  0  0  0
   14.3815  -14.6819   -4.8679 C   0  0  0  0  0  0  0  0  0  0  0  0
 10 13  2  0  0  0
 10 16  1  0  0  0
 11 15  1  0  0  0
 11 16  2  0  0  0
 11  8  1  0  0  0
  1  8  1  0  0  0
  1  4  2  0  0  0
  1  7  1  0  0  0
  2  4  1  0  0  0
  2  6  2  0  0  0
  3  6  1  0  0  0
  3 26  1  0  0  0
  3  7  2  0  0  0
 28 26  1  0  0  0
 28 31  2  0  0  0
 28 34  1  0  0  0
 29 30  2  0  0  0
 29 31  1  0  0  0
 29 32  1  0  0  0
 30 35  1  0  0  0
 30 33  1  0  0  0
 12 13  1  0  0  0
 13 14  1  0  0  0
 14 17  1  0  0  0
 14 15  2  0  0  0
 17 19  1  0  0  0
 19 22  1  0  0  0
 19 20  2  0  0  0
 19 21  2  0  0  0
 22 23  1  0  0  0
 22 24  1  0  0  0
 22 25  1  0  0  0
  4  5  1  0  0  0
 35 36  1  0  0  0
 35 37  2  0  0  0
 36 39  1  0  0  0
 39 40  1  0  0  0
 39 45  1  0  0  0
 40 41  1  0  0  0
 41 42  1  0  0  0
 42 43  1  0  0  0
 42 44  1  0  0  0
 44 45  1  0  0  0
 33 34  2  0  0  0
 17 18  1  0  0  0
  8  9  1  0  0  0
 26 27  1  0  0  0
 36 38  1  0  0  0
M  END
> <minimizedAffinity>
-9.03626

$$$$
5F63_5W2_A_201


 45 48  0  0  0  0  0  0  0  0999 V2000
   12.7837   -5.1442    0.4816 C   0  0  0  0  0  0  0  0  0  0  0  0
   14.8775   -3.9685    0.6075 C   0  0  0  0  0  0  0  0  0  0  0  0
   14.6773   -5.8559   -0.7746 C   0  0  0  0  0  0  0  0  0  0  0  0
   13.5446   -4.0784    1.0260 C   0  0  0  0  0  0  0  0  0  0  0  0
   13.0189   -3.0821    1.9925 C   0  0  0  0  0  0  0  0  0  0  0  0
   15.3946   -4.8346   -0.2789 N   0  0  0  0  0  0  0  0  0  0  0  0
   13.3860   -6.0030   -0.3861 N   0  0  0  0  0  0  0  0  0  0  0  0
   11.4791   -5.3219    0.8540 N   0  0  0  0  0  0  0  0  0  0  0  0
   11.1796   -4.8481    1.6634 H   0  0  0  0  0  0  0  0  0  0  0  0
    8.5284   -7.4251    0.3877 C   0  0  0  0  0  0  0  0  0  0  0  0
   10.5519   -6.0922    0.2125 C   0  0  0  0  0  0  0  0  0  0  0  0
    7.3486   -8.6313   -1.7032 Cl  0  0  0  0  0  0  0  0  0  0  0  0
    8.5826   -7.6803   -0.9973 C   0  0  0  0  0  0  0  0  0  0  0  0
    9.6090   -7.1247   -1.7899 C   0  0  0  0  0  0  0  0  0  0  0  0
   10.5767   -6.3327   -1.1680 C   0  0  0  0  0  0  0  0  0  0  0  0
    9.5169   -6.6453    0.9899 C   0  0  0  0  0  0  0  0  0  0  0  0
    9.6312   -7.3837   -3.1300 N   0  0  0  0  0  0  0  0  0  0  0  0
   10.0263   -8.2415   -3.4078 H   0  0  0  0  0  0  0  0  0  0  0  0
    9.0509   -6.3843   -4.3581 S   0  0  0  0  0  0  0  0  0  0  0  0
    8.6283   -5.0620   -3.6455 O   0  0  0  0  0  0  0  0  0  0  0  0
    7.8838   -7.0953   -5.1078 O   0  0  0  0  0  0  0  0  0  0  0  0
   10.4238   -6.0232   -5.4890 C   0  0  0  0  0  0  0  0  0  0  0  0
   11.7432   -6.2958   -4.7226 C   0  0  0  0  0  0  0  0  0  0  0  0
   10.2898   -4.5310   -5.8700 C   0  0  0  0  0  0  0  0  0  0  0  0
   10.3182   -6.9348   -6.7399 C   0  0  0  0  0  0  0  0  0  0  0  0
   15.1913   -6.7159   -1.6816 N   0  0  0  0  0  0  0  0  0  0  0  0
   16.1561   -6.6011   -1.8399 H   0  0  0  0  0  0  0  0  0  0  0  0
   14.6256   -7.7096   -2.4160 C   0  0  0  0  0  0  0  0  0  0  0  0
   12.9446   -9.4036   -2.9393 C   0  0  0  0  0  0  0  0  0  0  0  0
   13.7244   -9.8118   -4.0797 C   0  0  0  0  0  0  0  0  0  0  0  0
   13.3931   -8.3428   -2.0765 C   0  0  0  0  0  0  0  0  0  0  0  0
   11.7926  -10.0491   -2.6669 F   0  0  0  0  0  0  0  0  0  0  0  0
   14.9492   -9.1391   -4.3423 C   0  0  0  0  0  0  0  0  0  0  0  0
   15.4406   -8.1000   -3.5455 C   0  0  0  0  0  0  0  0  0  0  0  0
   13.3441  -10.8863   -4.9709 C   0  0  0  0  0  0  0  0  0  0  0  0
   13.7614  -12.1787   -4.6986 N   0  0  0  0  0  0  0  0  0  0  0  0
   12.4767  -10.6610   -5.8456 O   0  0  0  0  0  0  0  0  0  0  0  0
   14.4215  -12.2354   -3.9703 H   0  0  0  0  0  0  0  0  0  0  0  0
   13.4182  -13.4648   -5.2740 C   0  0  0  0  0  0  0  0  0  0  0  0
   11.9732  -13.9611   -4.9822 C   0  0  0  0  0  0  0  0  0  0  0  0
   11.7195  -15.2495   -5.8126 C   0  0  0  0  0  0  0  0  0  0  0  0
   12.7315  -16.3271   -5.5371 N   0  0  0  0  0  0  0  0  0  0  0  0
   12.4121  -17.6518   -6.1502 C   0  0  0  0  0  0  0  0  0  0  0  0
   14.1656  -15.8879   -5.6097 C   0  0  0  0  0  0  0  0  0  0  0  0
   14.4370  -14.5615   -4.8397 C   0  0  0  0  0  0  0  0  0  0  0  0
 10 13  2  0  0  0
 10 16  1  0  0  0
 11 15  1  0  0  0
 11 16  2  0  0  0
 11  8  1  0  0  0
  1  8  1  0  0  0
  1  4  2  0  0  0
  1  7  1  0  0  0
  2  4  1  0  0  0
  2  6  2  0  0  0
  3  6  1  0  0  0
  3 26  1  0  0  0
  3  7  2  0  0  0
 28 26  1  0  0  0
 28 31  2  0  0  0
 28 34  1  0  0  0
 29 30  2  0  0  0
 29 31  1  0  0  0
 29 32  1  0  0  0
 30 35  1  0  0  0
 30 33  1  0  0  0
 12 13  1  0  0  0
 13 14  1  0  0  0
 14 17  1  0  0  0
 14 15  2  0  0  0
 17 19  1  0  0  0
 19 22  1  0  0  0
 19 20  2  0  0  0
 19 21  2  0  0  0
 22 23  1  0  0  0
 22 24  1  0  0  0
 22 25  1  0  0  0
  4  5  1  0  0  0
 35 36  1  0  0  0
 35 37  2  0  0  0
 36 39  1  0  0  0
 39 40  1  0  0  0
 39 45  1  0  0  0
 40 41  1  0  0  0
 41 42  1  0  0  0
 42 43  1  0  0  0
 42 44  1  0  0  0
 44 45  1  0  0  0
 33 34  2  0  0  0
 17 18  1  0  0  0
  8  9  1  0  0  0
 26 27  1  0  0  0
 36 38  1  0  0  0
M  END
> <minimizedAffinity>
-8.98845

$$$$
5F63_5W2_A_201


 45 48  0  0  0  0  0  0  0  0999 V2000
   12.9839   -6.8153   -1.2247 C   0  0  0  0  0  0  0  0  0  0  0  0
   13.5662   -5.3501    0.5909 C   0  0  0  0  0  0  0  0  0  0  0  0
   11.3170   -5.9079    0.2136 C   0  0  0  0  0  0  0  0  0  0  0  0
   13.9879   -6.1292   -0.4949 C   0  0  0  0  0  0  0  0  0  0  0  0
   15.4385   -6.1923   -0.8033 C   0  0  0  0  0  0  0  0  0  0  0  0
   12.2668   -5.2748    0.9210 N   0  0  0  0  0  0  0  0  0  0  0  0
   11.6835   -6.6640   -0.8514 N   0  0  0  0  0  0  0  0  0  0  0  0
   13.3196   -7.5846   -2.3053 N   0  0  0  0  0  0  0  0  0  0  0  0
   13.4573   -8.5454   -2.1410 H   0  0  0  0  0  0  0  0  0  0  0  0
   12.4505   -6.1864   -5.5668 C   0  0  0  0  0  0  0  0  0  0  0  0
   13.4821   -7.1495   -3.5894 C   0  0  0  0  0  0  0  0  0  0  0  0
   13.7921   -5.6141   -7.8231 Cl  0  0  0  0  0  0  0  0  0  0  0  0
   13.6962   -6.2166   -6.2253 C   0  0  0  0  0  0  0  0  0  0  0  0
   14.8471   -6.6925   -5.5623 C   0  0  0  0  0  0  0  0  0  0  0  0
   14.7191   -7.1477   -4.2483 C   0  0  0  0  0  0  0  0  0  0  0  0
   12.3436   -6.6635   -4.2595 C   0  0  0  0  0  0  0  0  0  0  0  0
   16.0413   -6.7028   -6.2235 N   0  0  0  0  0  0  0  0  0  0  0  0
   16.5602   -5.8663   -6.2118 H   0  0  0  0  0  0  0  0  0  0  0  0
   16.7184   -8.0022   -7.0584 S   0  0  0  0  0  0  0  0  0  0  0  0
   17.1165   -7.4300   -8.4545 O   0  0  0  0  0  0  0  0  0  0  0  0
   15.6934   -9.1744   -7.1284 O   0  0  0  0  0  0  0  0  0  0  0  0
   18.2265   -8.5103   -6.1859 C   0  0  0  0  0  0  0  0  0  0  0  0
   17.7936   -9.3459   -4.9542 C   0  0  0  0  0  0  0  0  0  0  0  0
   18.9411   -7.2069   -5.7613 C   0  0  0  0  0  0  0  0  0  0  0  0
   19.1154   -9.3551   -7.1362 C   0  0  0  0  0  0  0  0  0  0  0  0
   10.0113   -5.8485    0.5573 N   0  0  0  0  0  0  0  0  0  0  0  0
    9.5815   -4.9877    0.3486 H   0  0  0  0  0  0  0  0  0  0  0  0
    9.1807   -6.7544    1.1369 C   0  0  0  0  0  0  0  0  0  0  0  0
    8.3591   -8.1750    2.9470 C   0  0  0  0  0  0  0  0  0  0  0  0
    7.3659   -8.7190    2.0568 C   0  0  0  0  0  0  0  0  0  0  0  0
    9.2968   -7.1823    2.4929 C   0  0  0  0  0  0  0  0  0  0  0  0
    8.4230   -8.6286    4.2152 F   0  0  0  0  0  0  0  0  0  0  0  0
    7.3245   -8.2496    0.7153 C   0  0  0  0  0  0  0  0  0  0  0  0
    8.2043   -7.2862    0.2115 C   0  0  0  0  0  0  0  0  0  0  0  0
    6.4118   -9.7363    2.4419 C   0  0  0  0  0  0  0  0  0  0  0  0
    6.8617  -11.0050    2.7685 N   0  0  0  0  0  0  0  0  0  0  0  0
    5.2303   -9.3928    2.6747 O   0  0  0  0  0  0  0  0  0  0  0  0
    7.8148  -11.1496    2.5690 H   0  0  0  0  0  0  0  0  0  0  0  0
    6.2062  -12.1624    3.3461 C   0  0  0  0  0  0  0  0  0  0  0  0
    4.9826  -12.7012    2.5510 C   0  0  0  0  0  0  0  0  0  0  0  0
    4.5195  -14.0323    3.2050 C   0  0  0  0  0  0  0  0  0  0  0  0
    4.1959  -13.8804    4.6656 N   0  0  0  0  0  0  0  0  0  0  0  0
    3.5500  -15.0758    5.2871 C   0  0  0  0  0  0  0  0  0  0  0  0
    5.2505  -13.1922    5.4836 C   0  0  0  0  0  0  0  0  0  0  0  0
    5.7817  -11.8869    4.8203 C   0  0  0  0  0  0  0  0  0  0  0  0
 10 13  2  0  0  0
 10 16  1  0  0  0
 11 15  1  0  0  0
 11 16  2  0  0  0
 11  8  1  0  0  0
  1  8  1  0  0  0
  1  4  2  0  0  0
  1  7  1  0  0  0
  2  4  1  0  0  0
  2  6  2  0  0  0
  3  6  1  0  0  0
  3 26  1  0  0  0
  3  7  2  0  0  0
 28 26  1  0  0  0
 28 31  2  0  0  0
 28 34  1  0  0  0
 29 30  2  0  0  0
 29 31  1  0  0  0
 29 32  1  0  0  0
 30 35  1  0  0  0
 30 33  1  0  0  0
 12 13  1  0  0  0
 13 14  1  0  0  0
 14 17  1  0  0  0
 14 15  2  0  0  0
 17 19  1  0  0  0
 19 22  1  0  0  0
 19 20  2  0  0  0
 19 21  2  0  0  0
 22 23  1  0  0  0
 22 24  1  0  0  0
 22 25  1  0  0  0
  4  5  1  0  0  0
 35 36  1  0  0  0
 35 37  2  0  0  0
 36 39  1  0  0  0
 39 40  1  0  0  0
 39 45  1  0  0  0
 40 41  1  0  0  0
 41 42  1  0  0  0
 42 43  1  0  0  0
 42 44  1  0  0  0
 44 45  1  0  0  0
 33 34  2  0  0  0
 17 18  1  0  0  0
  8  9  1  0  0  0
 26 27  1  0  0  0
 36 38  1  0  0  0
M  END
> <minimizedAffinity>
-8.94513

$$$$
5F63_5W2_A_201


 45 48  0  0  0  0  0  0  0  0999 V2000
   12.7747   -5.1003    0.4154 C   0  0  0  0  0  0  0  0  0  0  0  0
   14.9231   -4.0437    0.6404 C   0  0  0  0  0  0  0  0  0  0  0  0
   14.6715   -5.8894   -0.7887 C   0  0  0  0  0  0  0  0  0  0  0  0
   13.5719   -4.0887    1.0093 C   0  0  0  0  0  0  0  0  0  0  0  0
   13.0660   -3.0846    1.9783 C   0  0  0  0  0  0  0  0  0  0  0  0
   15.4244   -4.9190   -0.2460 N   0  0  0  0  0  0  0  0  0  0  0  0
   13.3608   -5.9733   -0.4492 N   0  0  0  0  0  0  0  0  0  0  0  0
   11.4498   -5.2136    0.7378 N   0  0  0  0  0  0  0  0  0  0  0  0
   11.1416   -4.7185    1.5309 H   0  0  0  0  0  0  0  0  0  0  0  0
    9.5421   -6.5503   -2.0768 C   0  0  0  0  0  0  0  0  0  0  0  0
   10.5133   -5.9465    0.0666 C   0  0  0  0  0  0  0  0  0  0  0  0
    7.5312   -8.3088   -2.3633 Cl  0  0  0  0  0  0  0  0  0  0  0  0
    8.6406   -7.4118   -1.4201 C   0  0  0  0  0  0  0  0  0  0  0  0
    8.6846   -7.5632   -0.0180 C   0  0  0  0  0  0  0  0  0  0  0  0
    9.6283   -6.8278    0.7026 C   0  0  0  0  0  0  0  0  0  0  0  0
   10.4646   -5.8121   -1.3337 C   0  0  0  0  0  0  0  0  0  0  0  0
    7.8034   -8.4104    0.5893 N   0  0  0  0  0  0  0  0  0  0  0  0
    7.8795   -9.3651    0.3613 H   0  0  0  0  0  0  0  0  0  0  0  0
    6.5977   -7.9889    1.6905 S   0  0  0  0  0  0  0  0  0  0  0  0
    5.2684   -8.5136    1.0640 O   0  0  0  0  0  0  0  0  0  0  0  0
    6.6162   -6.4482    1.9269 O   0  0  0  0  0  0  0  0  0  0  0  0
    6.9063   -8.8864    3.2375 C   0  0  0  0  0  0  0  0  0  0  0  0
    7.1420  -10.3746    2.8741 C   0  0  0  0  0  0  0  0  0  0  0  0
    5.6363   -8.7101    4.1010 C   0  0  0  0  0  0  0  0  0  0  0  0
    8.1531   -8.2902    3.9427 C   0  0  0  0  0  0  0  0  0  0  0  0
   15.1708   -6.7581   -1.6957 N   0  0  0  0  0  0  0  0  0  0  0  0
   16.1244   -6.6210   -1.8982 H   0  0  0  0  0  0  0  0  0  0  0  0
   14.6029   -7.7854   -2.3805 C   0  0  0  0  0  0  0  0  0  0  0  0
   14.4634   -9.4720   -4.1427 C   0  0  0  0  0  0  0  0  0  0  0  0
   13.1546   -9.8442   -3.6700 C   0  0  0  0  0  0  0  0  0  0  0  0
   15.2099   -8.4199   -3.5048 C   0  0  0  0  0  0  0  0  0  0  0  0
   14.9777  -10.1042   -5.2169 F   0  0  0  0  0  0  0  0  0  0  0  0
   12.6134   -9.1535   -2.5512 C   0  0  0  0  0  0  0  0  0  0  0  0
   13.2867   -8.1242   -1.8853 C   0  0  0  0  0  0  0  0  0  0  0  0
   12.3417  -10.8736   -4.2809 C   0  0  0  0  0  0  0  0  0  0  0  0
   11.7146  -11.8132   -3.4793 N   0  0  0  0  0  0  0  0  0  0  0  0
   12.0526  -10.7676   -5.4947 O   0  0  0  0  0  0  0  0  0  0  0  0
   11.9991  -11.7816   -2.5373 H   0  0  0  0  0  0  0  0  0  0  0  0
   10.7220  -12.8342   -3.7533 C   0  0  0  0  0  0  0  0  0  0  0  0
   11.1398  -13.9058   -4.8005 C   0  0  0  0  0  0  0  0  0  0  0  0
   10.0461  -15.0087   -4.8376 C   0  0  0  0  0  0  0  0  0  0  0  0
    8.6779  -14.4605   -5.1356 N   0  0  0  0  0  0  0  0  0  0  0  0
    7.6333  -15.4987   -5.3878 C   0  0  0  0  0  0  0  0  0  0  0  0
    8.2633  -13.2894   -4.2921 C   0  0  0  0  0  0  0  0  0  0  0  0
    9.3666  -12.1955   -4.1826 C   0  0  0  0  0  0  0  0  0  0  0  0
 10 13  2  0  0  0
 10 16  1  0  0  0
 11 15  1  0  0  0
 11 16  2  0  0  0
 11  8  1  0  0  0
  1  8  1  0  0  0
  1  4  2  0  0  0
  1  7  1  0  0  0
  2  4  1  0  0  0
  2  6  2  0  0  0
  3  6  1  0  0  0
  3 26  1  0  0  0
  3  7  2  0  0  0
 28 26  1  0  0  0
 28 31  2  0  0  0
 28 34  1  0  0  0
 29 30  2  0  0  0
 29 31  1  0  0  0
 29 32  1  0  0  0
 30 35  1  0  0  0
 30 33  1  0  0  0
 12 13  1  0  0  0
 13 14  1  0  0  0
 14 17  1  0  0  0
 14 15  2  0  0  0
 17 19  1  0  0  0
 19 22  1  0  0  0
 19 20  2  0  0  0
 19 21  2  0  0  0
 22 23  1  0  0  0
 22 24  1  0  0  0
 22 25  1  0  0  0
  4  5  1  0  0  0
 35 36  1  0  0  0
 35 37  2  0  0  0
 36 39  1  0  0  0
 39 40  1  0  0  0
 39 45  1  0  0  0
 40 41  1  0  0  0
 41 42  1  0  0  0
 42 43  1  0  0  0
 42 44  1  0  0  0
 44 45  1  0  0  0
 33 34  2  0  0  0
 17 18  1  0  0  0
  8  9  1  0  0  0
 26 27  1  0  0  0
 36 38  1  0  0  0
M  END
> <minimizedAffinity>
-8.91871

$$$$
5F63_5W2_A_201


 45 48  0  0  0  0  0  0  0  0999 V2000
   12.9252   -6.7592   -1.3487 C   0  0  0  0  0  0  0  0  0  0  0  0
   13.6735   -5.4856    0.5488 C   0  0  0  0  0  0  0  0  0  0  0  0
   11.3821   -5.9003    0.2487 C   0  0  0  0  0  0  0  0  0  0  0  0
   13.9990   -6.1876   -0.6196 C   0  0  0  0  0  0  0  0  0  0  0  0
   15.4270   -6.2934   -1.0104 C   0  0  0  0  0  0  0  0  0  0  0  0
   12.3978   -5.3769    0.9540 N   0  0  0  0  0  0  0  0  0  0  0  0
   11.6548   -6.5784   -0.8941 N   0  0  0  0  0  0  0  0  0  0  0  0
   13.1657   -7.4477   -2.5065 N   0  0  0  0  0  0  0  0  0  0  0  0
   13.3843   -8.4035   -2.4177 H   0  0  0  0  0  0  0  0  0  0  0  0
   14.3378   -6.5209   -5.8404 C   0  0  0  0  0  0  0  0  0  0  0  0
   13.1321   -6.9383   -3.7729 C   0  0  0  0  0  0  0  0  0  0  0  0
   13.2405   -5.3613   -8.0013 Cl  0  0  0  0  0  0  0  0  0  0  0  0
   13.1798   -5.9366   -6.3918 C   0  0  0  0  0  0  0  0  0  0  0  0
   11.9844   -5.8698   -5.6453 C   0  0  0  0  0  0  0  0  0  0  0  0
   11.9813   -6.3791   -4.3449 C   0  0  0  0  0  0  0  0  0  0  0  0
   14.3155   -7.0069   -4.5322 C   0  0  0  0  0  0  0  0  0  0  0  0
   10.8770   -5.3047   -6.2088 N   0  0  0  0  0  0  0  0  0  0  0  0
   10.8664   -4.3224   -6.2734 H   0  0  0  0  0  0  0  0  0  0  0  0
    9.5252   -6.1173   -6.8054 S   0  0  0  0  0  0  0  0  0  0  0  0
    9.9247   -7.6257   -6.8154 O   0  0  0  0  0  0  0  0  0  0  0  0
    9.1518   -5.5564   -8.2110 O   0  0  0  0  0  0  0  0  0  0  0  0
    8.1615   -5.8840   -5.6307 C   0  0  0  0  0  0  0  0  0  0  0  0
    8.5599   -4.7288   -4.6771 C   0  0  0  0  0  0  0  0  0  0  0  0
    8.0137   -7.2205   -4.8679 C   0  0  0  0  0  0  0  0  0  0  0  0
    6.8643   -5.5324   -6.4056 C   0  0  0  0  0  0  0  0  0  0  0  0
   10.1001   -5.8081    0.6664 N   0  0  0  0  0  0  0  0  0  0  0  0
    9.6970   -4.9206    0.5280 H   0  0  0  0  0  0  0  0  0  0  0  0
    9.2632   -6.7111    1.2417 C   0  0  0  0  0  0  0  0  0  0  0  0
    8.4292   -8.1313    3.0463 C   0  0  0  0  0  0  0  0  0  0  0  0
    7.4359   -8.6685    2.1520 C   0  0  0  0  0  0  0  0  0  0  0  0
    9.3732   -7.1423    2.5971 C   0  0  0  0  0  0  0  0  0  0  0  0
    8.4870   -8.5878    4.3138 F   0  0  0  0  0  0  0  0  0  0  0  0
    7.4010   -8.1963    0.8114 C   0  0  0  0  0  0  0  0  0  0  0  0
    8.2871   -7.2362    0.3122 C   0  0  0  0  0  0  0  0  0  0  0  0
    6.4757   -9.6819    2.5321 C   0  0  0  0  0  0  0  0  0  0  0  0
    6.9166  -10.9583    2.8407 N   0  0  0  0  0  0  0  0  0  0  0  0
    5.2989   -9.3308    2.7775 O   0  0  0  0  0  0  0  0  0  0  0  0
    7.8671  -11.1088    2.6327 H   0  0  0  0  0  0  0  0  0  0  0  0
    6.2551  -12.1165    3.4095 C   0  0  0  0  0  0  0  0  0  0  0  0
    5.0397  -12.6538    2.6010 C   0  0  0  0  0  0  0  0  0  0  0  0
    4.5698  -13.9859    3.2478 C   0  0  0  0  0  0  0  0  0  0  0  0
    4.2311  -13.8365    4.7053 N   0  0  0  0  0  0  0  0  0  0  0  0
    3.5787  -15.0329    5.3181 C   0  0  0  0  0  0  0  0  0  0  0  0
    5.2772  -13.1498    5.5353 C   0  0  0  0  0  0  0  0  0  0  0  0
    5.8154  -11.8435    4.8797 C   0  0  0  0  0  0  0  0  0  0  0  0
 10 13  2  0  0  0
 10 16  1  0  0  0
 11 15  1  0  0  0
 11 16  2  0  0  0
 11  8  1  0  0  0
  1  8  1  0  0  0
  1  4  2  0  0  0
  1  7  1  0  0  0
  2  4  1  0  0  0
  2  6  2  0  0  0
  3  6  1  0  0  0
  3 26  1  0  0  0
  3  7  2  0  0  0
 28 26  1  0  0  0
 28 31  2  0  0  0
 28 34  1  0  0  0
 29 30  2  0  0  0
 29 31  1  0  0  0
 29 32  1  0  0  0
 30 35  1  0  0  0
 30 33  1  0  0  0
 12 13  1  0  0  0
 13 14  1  0  0  0
 14 17  1  0  0  0
 14 15  2  0  0  0
 17 19  1  0  0  0
 19 22  1  0  0  0
 19 20  2  0  0  0
 19 21  2  0  0  0
 22 23  1  0  0  0
 22 24  1  0  0  0
 22 25  1  0  0  0
  4  5  1  0  0  0
 35 36  1  0  0  0
 35 37  2  0  0  0
 36 39  1  0  0  0
 39 40  1  0  0  0
 39 45  1  0  0  0
 40 41  1  0  0  0
 41 42  1  0  0  0
 42 43  1  0  0  0
 42 44  1  0  0  0
 44 45  1  0  0  0
 33 34  2  0  0  0
 17 18  1  0  0  0
  8  9  1  0  0  0
 26 27  1  0  0  0
 36 38  1  0  0  0
M  END
> <minimizedAffinity>
-8.82705

$$$$
5F63_5W2_A_201


 45 48  0  0  0  0  0  0  0  0999 V2000
   13.9737   -5.6748   -0.7435 C   0  0  0  0  0  0  0  0  0  0  0  0
   13.4700   -4.2872    1.1548 C   0  0  0  0  0  0  0  0  0  0  0  0
   11.7424   -5.4324    0.0519 C   0  0  0  0  0  0  0  0  0  0  0  0
   14.4325   -4.8018    0.2758 C   0  0  0  0  0  0  0  0  0  0  0  0
   15.8518   -4.4125    0.4690 C   0  0  0  0  0  0  0  0  0  0  0  0
   12.1757   -4.6235    1.0322 N   0  0  0  0  0  0  0  0  0  0  0  0
   12.6417   -5.9430   -0.8260 N   0  0  0  0  0  0  0  0  0  0  0  0
   14.8544   -6.2054   -1.6463 N   0  0  0  0  0  0  0  0  0  0  0  0
   15.8090   -6.0130   -1.5016 H   0  0  0  0  0  0  0  0  0  0  0  0
   15.0137   -8.9772   -4.0210 C   0  0  0  0  0  0  0  0  0  0  0  0
   14.5384   -6.9758   -2.7285 C   0  0  0  0  0  0  0  0  0  0  0  0
   13.6412   -9.6994   -6.2149 Cl  0  0  0  0  0  0  0  0  0  0  0  0
   13.9731   -8.6435   -4.9111 C   0  0  0  0  0  0  0  0  0  0  0  0
   13.1941   -7.4857   -4.7028 C   0  0  0  0  0  0  0  0  0  0  0  0
   13.4895   -6.6719   -3.6069 C   0  0  0  0  0  0  0  0  0  0  0  0
   15.3018   -8.1389   -2.9429 C   0  0  0  0  0  0  0  0  0  0  0  0
   12.1884   -7.1923   -5.5777 N   0  0  0  0  0  0  0  0  0  0  0  0
   12.4443   -6.7211   -6.4034 H   0  0  0  0  0  0  0  0  0  0  0  0
   10.5522   -7.5544   -5.3888 S   0  0  0  0  0  0  0  0  0  0  0  0
   10.4795   -8.4824   -4.1364 O   0  0  0  0  0  0  0  0  0  0  0  0
   10.0050   -8.2124   -6.6915 O   0  0  0  0  0  0  0  0  0  0  0  0
    9.6706   -6.0110   -5.0217 C   0  0  0  0  0  0  0  0  0  0  0  0
    8.2795   -6.0959   -5.7003 C   0  0  0  0  0  0  0  0  0  0  0  0
   10.5240   -4.8712   -5.6236 C   0  0  0  0  0  0  0  0  0  0  0  0
    9.5222   -5.8516   -3.4856 C   0  0  0  0  0  0  0  0  0  0  0  0
   10.4430   -5.7868   -0.0598 N   0  0  0  0  0  0  0  0  0  0  0  0
   10.0216   -5.5018   -0.9026 H   0  0  0  0  0  0  0  0  0  0  0  0
    9.6092   -6.4630    0.7735 C   0  0  0  0  0  0  0  0  0  0  0  0
    8.9711   -7.5819    2.8495 C   0  0  0  0  0  0  0  0  0  0  0  0
    7.7092   -7.9432    2.2561 C   0  0  0  0  0  0  0  0  0  0  0  0
    9.9533   -6.8379    2.1062 C   0  0  0  0  0  0  0  0  0  0  0  0
    9.2397   -7.9750    4.1111 F   0  0  0  0  0  0  0  0  0  0  0  0
    7.4479   -7.5432    0.9169 C   0  0  0  0  0  0  0  0  0  0  0  0
    8.3576   -6.8178    0.1409 C   0  0  0  0  0  0  0  0  0  0  0  0
    6.6903   -8.7112    2.9384 C   0  0  0  0  0  0  0  0  0  0  0  0
    6.4391  -10.0147    2.5430 N   0  0  0  0  0  0  0  0  0  0  0  0
    6.2081   -8.2568    4.0011 O   0  0  0  0  0  0  0  0  0  0  0  0
    6.8968  -10.2698    1.7095 H   0  0  0  0  0  0  0  0  0  0  0  0
    5.6353  -11.0780    3.1140 C   0  0  0  0  0  0  0  0  0  0  0  0
    6.3866  -12.0336    4.0846 C   0  0  0  0  0  0  0  0  0  0  0  0
    5.3481  -12.9888    4.7349 C   0  0  0  0  0  0  0  0  0  0  0  0
    4.5521  -13.7603    3.7189 N   0  0  0  0  0  0  0  0  0  0  0  0
    3.6914  -14.8391    4.2918 C   0  0  0  0  0  0  0  0  0  0  0  0
    3.9422  -12.9320    2.6249 C   0  0  0  0  0  0  0  0  0  0  0  0
    4.9438  -11.9175    1.9975 C   0  0  0  0  0  0  0  0  0  0  0  0
 10 13  2  0  0  0
 10 16  1  0  0  0
 11 15  1  0  0  0
 11 16  2  0  0  0
 11  8  1  0  0  0
  1  8  1  0  0  0
  1  4  2  0  0  0
  1  7  1  0  0  0
  2  4  1  0  0  0
  2  6  2  0  0  0
  3  6  1  0  0  0
  3 26  1  0  0  0
  3  7  2  0  0  0
 28 26  1  0  0  0
 28 31  2  0  0  0
 28 34  1  0  0  0
 29 30  2  0  0  0
 29 31  1  0  0  0
 29 32  1  0  0  0
 30 35  1  0  0  0
 30 33  1  0  0  0
 12 13  1  0  0  0
 13 14  1  0  0  0
 14 17  1  0  0  0
 14 15  2  0  0  0
 17 19  1  0  0  0
 19 22  1  0  0  0
 19 20  2  0  0  0
 19 21  2  0  0  0
 22 23  1  0  0  0
 22 24  1  0  0  0
 22 25  1  0  0  0
  4  5  1  0  0  0
 35 36  1  0  0  0
 35 37  2  0  0  0
 36 39  1  0  0  0
 39 40  1  0  0  0
 39 45  1  0  0  0
 40 41  1  0  0  0
 41 42  1  0  0  0
 42 43  1  0  0  0
 42 44  1  0  0  0
 44 45  1  0  0  0
 33 34  2  0  0  0
 17 18  1  0  0  0
  8  9  1  0  0  0
 26 27  1  0  0  0
 36 38  1  0  0  0
M  END
> <minimizedAffinity>
-8.80156

$$$$
5F63_5W2_A_201


 45 48  0  0  0  0  0  0  0  0999 V2000
   14.4287   -7.0823   -4.1989 C   0  0  0  0  0  0  0  0  0  0  0  0
   14.0782   -8.8523   -2.6093 C   0  0  0  0  0  0  0  0  0  0  0  0
   13.0325   -6.7739   -2.2948 C   0  0  0  0  0  0  0  0  0  0  0  0
   14.6952   -8.4135   -3.7886 C   0  0  0  0  0  0  0  0  0  0  0  0
   15.5698   -9.3585   -4.5271 C   0  0  0  0  0  0  0  0  0  0  0  0
   13.2642   -8.0408   -1.9150 N   0  0  0  0  0  0  0  0  0  0  0  0
   13.6195   -6.3077   -3.4254 N   0  0  0  0  0  0  0  0  0  0  0  0
   15.0064   -6.5806   -5.3333 N   0  0  0  0  0  0  0  0  0  0  0  0
   15.9494   -6.3053   -5.2672 H   0  0  0  0  0  0  0  0  0  0  0  0
   14.5793   -6.6436   -8.9611 C   0  0  0  0  0  0  0  0  0  0  0  0
   14.4027   -6.4244   -6.5481 C   0  0  0  0  0  0  0  0  0  0  0  0
   12.5936   -6.0349  -10.6655 Cl  0  0  0  0  0  0  0  0  0  0  0  0
   13.2632   -6.1580   -9.0965 C   0  0  0  0  0  0  0  0  0  0  0  0
   12.5007   -5.8238   -7.9574 C   0  0  0  0  0  0  0  0  0  0  0  0
   13.0858   -5.9687   -6.6976 C   0  0  0  0  0  0  0  0  0  0  0  0
   15.1491   -6.7629   -7.6926 C   0  0  0  0  0  0  0  0  0  0  0  0
   11.2262   -5.3628   -8.1197 N   0  0  0  0  0  0  0  0  0  0  0  0
   11.1283   -4.4483   -8.4710 H   0  0  0  0  0  0  0  0  0  0  0  0
    9.8022   -6.1998   -7.7801 S   0  0  0  0  0  0  0  0  0  0  0  0
   10.1951   -7.7095   -7.8168 O   0  0  0  0  0  0  0  0  0  0  0  0
    8.7034   -5.8107   -8.8150 O   0  0  0  0  0  0  0  0  0  0  0  0
    9.2848   -5.7737   -6.0934 C   0  0  0  0  0  0  0  0  0  0  0  0
    9.7787   -6.9039   -5.1546 C   0  0  0  0  0  0  0  0  0  0  0  0
    7.7411   -5.6963   -6.1206 C   0  0  0  0  0  0  0  0  0  0  0  0
    9.9091   -4.4125   -5.6881 C   0  0  0  0  0  0  0  0  0  0  0  0
   12.1978   -5.9632   -1.6072 N   0  0  0  0  0  0  0  0  0  0  0  0
   12.3594   -5.0036   -1.7561 H   0  0  0  0  0  0  0  0  0  0  0  0
   11.1772   -6.2248   -0.7490 C   0  0  0  0  0  0  0  0  0  0  0  0
   10.1520   -6.5837    1.4395 C   0  0  0  0  0  0  0  0  0  0  0  0
    8.8995   -6.8819    0.7936 C   0  0  0  0  0  0  0  0  0  0  0  0
   11.3233   -6.2573    0.6698 C   0  0  0  0  0  0  0  0  0  0  0  0
   10.2269   -6.6410    2.7846 F   0  0  0  0  0  0  0  0  0  0  0  0
    8.8398   -6.8415   -0.6264 C   0  0  0  0  0  0  0  0  0  0  0  0
    9.9394   -6.5298   -1.4325 C   0  0  0  0  0  0  0  0  0  0  0  0
    7.6929   -7.2421    1.5063 C   0  0  0  0  0  0  0  0  0  0  0  0
    7.5311   -8.5402    1.9618 N   0  0  0  0  0  0  0  0  0  0  0  0
    6.9212   -6.3287    1.8784 O   0  0  0  0  0  0  0  0  0  0  0  0
    8.2155   -9.1641    1.6277 H   0  0  0  0  0  0  0  0  0  0  0  0
    6.5530   -9.1619    2.8333 C   0  0  0  0  0  0  0  0  0  0  0  0
    6.7339   -8.8730    4.3511 C   0  0  0  0  0  0  0  0  0  0  0  0
    5.5122   -9.4588    5.1114 C   0  0  0  0  0  0  0  0  0  0  0  0
    5.3187  -10.9280    4.8559 N   0  0  0  0  0  0  0  0  0  0  0  0
    4.2902  -11.5797    5.7220 C   0  0  0  0  0  0  0  0  0  0  0  0
    5.3219  -11.3289    3.4088 C   0  0  0  0  0  0  0  0  0  0  0  0
    6.5001  -10.7028    2.6051 C   0  0  0  0  0  0  0  0  0  0  0  0
 10 13  2  0  0  0
 10 16  1  0  0  0
 11 15  1  0  0  0
 11 16  2  0  0  0
 11  8  1  0  0  0
  1  8  1  0  0  0
  1  4  2  0  0  0
  1  7  1  0  0  0
  2  4  1  0  0  0
  2  6  2  0  0  0
  3  6  1  0  0  0
  3 26  1  0  0  0
  3  7  2  0  0  0
 28 26  1  0  0  0
 28 31  2  0  0  0
 28 34  1  0  0  0
 29 30  2  0  0  0
 29 31  1  0  0  0
 29 32  1  0  0  0
 30 35  1  0  0  0
 30 33  1  0  0  0
 12 13  1  0  0  0
 13 14  1  0  0  0
 14 17  1  0  0  0
 14 15  2  0  0  0
 17 19  1  0  0  0
 19 22  1  0  0  0
 19 20  2  0  0  0
 19 21  2  0  0  0
 22 23  1  0  0  0
 22 24  1  0  0  0
 22 25  1  0  0  0
  4  5  1  0  0  0
 35 36  1  0  0  0
 35 37  2  0  0  0
 36 39  1  0  0  0
 39 40  1  0  0  0
 39 45  1  0  0  0
 40 41  1  0  0  0
 41 42  1  0  0  0
 42 43  1  0  0  0
 42 44  1  0  0  0
 44 45  1  0  0  0
 33 34  2  0  0  0
 17 18  1  0  0  0
  8  9  1  0  0  0
 26 27  1  0  0  0
 36 38  1  0  0  0
M  END
> <minimizedAffinity>
-8.59736

$$$$
5F63_5W2_A_201


 45 48  0  0  0  0  0  0  0  0999 V2000
    9.9438   -6.7380   -7.9834 C   0  0  0  0  0  0  0  0  0  0  0  0
    8.1751   -8.3558   -8.1757 C   0  0  0  0  0  0  0  0  0  0  0  0
    8.7790   -7.5287   -6.0629 C   0  0  0  0  0  0  0  0  0  0  0  0
    9.1478   -7.5713   -8.8101 C   0  0  0  0  0  0  0  0  0  0  0  0
    9.2763   -7.6552  -10.2865 C   0  0  0  0  0  0  0  0  0  0  0  0
    8.0080   -8.3021   -6.8444 N   0  0  0  0  0  0  0  0  0  0  0  0
    9.7392   -6.7621   -6.6378 N   0  0  0  0  0  0  0  0  0  0  0  0
   10.9223   -5.9539   -8.5313 N   0  0  0  0  0  0  0  0  0  0  0  0
   10.6693   -5.0349   -8.7773 H   0  0  0  0  0  0  0  0  0  0  0  0
   14.1289   -6.2121  -10.2629 C   0  0  0  0  0  0  0  0  0  0  0  0
   12.2154   -6.3219   -8.7701 C   0  0  0  0  0  0  0  0  0  0  0  0
   16.4944   -7.3768   -9.7472 Cl  0  0  0  0  0  0  0  0  0  0  0  0
   14.8700   -7.0041   -9.3631 C   0  0  0  0  0  0  0  0  0  0  0  0
   14.2958   -7.4412   -8.1507 C   0  0  0  0  0  0  0  0  0  0  0  0
   12.9740   -7.0859   -7.8729 C   0  0  0  0  0  0  0  0  0  0  0  0
   12.8037   -5.8848   -9.9719 C   0  0  0  0  0  0  0  0  0  0  0  0
   15.0407   -8.2010   -7.2957 N   0  0  0  0  0  0  0  0  0  0  0  0
   15.1305   -9.1561   -7.5171 H   0  0  0  0  0  0  0  0  0  0  0  0
   15.8228   -7.6709   -5.8989 S   0  0  0  0  0  0  0  0  0  0  0  0
   14.9475   -6.4974   -5.3591 O   0  0  0  0  0  0  0  0  0  0  0  0
   17.2867   -7.2581   -6.2399 O   0  0  0  0  0  0  0  0  0  0  0  0
   15.7952   -9.0226   -4.6881 C   0  0  0  0  0  0  0  0  0  0  0  0
   17.1528   -9.7642   -4.7861 C   0  0  0  0  0  0  0  0  0  0  0  0
   14.6192   -9.9414   -5.0917 C   0  0  0  0  0  0  0  0  0  0  0  0
   15.5906   -8.4396   -3.2650 C   0  0  0  0  0  0  0  0  0  0  0  0
    8.5981   -7.4594   -4.7254 N   0  0  0  0  0  0  0  0  0  0  0  0
    7.6593   -7.5511   -4.4434 H   0  0  0  0  0  0  0  0  0  0  0  0
    9.4693   -7.2868   -3.6969 C   0  0  0  0  0  0  0  0  0  0  0  0
   11.3391   -7.8903   -2.2447 C   0  0  0  0  0  0  0  0  0  0  0  0
   11.0816   -6.7217   -1.4430 C   0  0  0  0  0  0  0  0  0  0  0  0
   10.5225   -8.1985   -3.3889 C   0  0  0  0  0  0  0  0  0  0  0  0
   12.3445   -8.7180   -1.8948 F   0  0  0  0  0  0  0  0  0  0  0  0
   10.0035   -5.8699   -1.8087 C   0  0  0  0  0  0  0  0  0  0  0  0
    9.1739   -6.1106   -2.9086 C   0  0  0  0  0  0  0  0  0  0  0  0
   11.8471   -6.3686   -0.2670 C   0  0  0  0  0  0  0  0  0  0  0  0
   12.7206   -5.2947   -0.3184 N   0  0  0  0  0  0  0  0  0  0  0  0
   11.5498   -6.9045    0.8251 O   0  0  0  0  0  0  0  0  0  0  0  0
   12.8530   -4.9365   -1.2258 H   0  0  0  0  0  0  0  0  0  0  0  0
   13.4784   -4.5938    0.7000 C   0  0  0  0  0  0  0  0  0  0  0  0
   12.7308   -3.4223    1.3989 C   0  0  0  0  0  0  0  0  0  0  0  0
   13.6117   -2.9070    2.5703 C   0  0  0  0  0  0  0  0  0  0  0  0
   14.9850   -2.4875    2.1239 N   0  0  0  0  0  0  0  0  0  0  0  0
   15.7941   -1.7929    3.1705 C   0  0  0  0  0  0  0  0  0  0  0  0
   15.7129   -3.4899    1.2752 C   0  0  0  0  0  0  0  0  0  0  0  0
   14.8327   -4.0736    0.1305 C   0  0  0  0  0  0  0  0  0  0  0  0
 10 13  2  0  0  0
 10 16  1  0  0  0
 11 15  1  0  0  0
 11 16  2  0  0  0
 11  8  1  0  0  0
  1  8  1  0  0  0
  1  4  2  0  0  0
  1  7  1  0  0  0
  2  4  1  0  0  0
  2  6  2  0  0  0
  3  6  1  0  0  0
  3 26  1  0  0  0
  3  7  2  0  0  0
 28 26  1  0  0  0
 28 31  2  0  0  0
 28 34  1  0  0  0
 29 30  2  0  0  0
 29 31  1  0  0  0
 29 32  1  0  0  0
 30 35  1  0  0  0
 30 33  1  0  0  0
 12 13  1  0  0  0
 13 14  1  0  0  0
 14 17  1  0  0  0
 14 15  2  0  0  0
 17 19  1  0  0  0
 19 22  1  0  0  0
 19 20  2  0  0  0
 19 21  2  0  0  0
 22 23  1  0  0  0
 22 24  1  0  0  0
 22 25  1  0  0  0
  4  5  1  0  0  0
 35 36  1  0  0  0
 35 37  2  0  0  0
 36 39  1  0  0  0
 39 40  1  0  0  0
 39 45  1  0  0  0
 40 41  1  0  0  0
 41 42  1  0  0  0
 42 43  1  0  0  0
 42 44  1  0  0  0
 44 45  1  0  0  0
 33 34  2  0  0  0
 17 18  1  0  0  0
  8  9  1  0  0  0
 26 27  1  0  0  0
 36 38  1  0  0  0
M  END
> <minimizedAffinity>
-8.53274

$$$$
5F63_5W2_A_201


 45 48  0  0  0  0  0  0  0  0999 V2000
   12.7360   -5.1049    0.4661 C   0  0  0  0  0  0  0  0  0  0  0  0
   14.8453   -3.9666    0.6602 C   0  0  0  0  0  0  0  0  0  0  0  0
   14.6501   -5.8356   -0.7474 C   0  0  0  0  0  0  0  0  0  0  0  0
   13.5000   -4.0581    1.0420 C   0  0  0  0  0  0  0  0  0  0  0  0
   12.9656   -3.0632    2.0054 C   0  0  0  0  0  0  0  0  0  0  0  0
   15.3711   -4.8320   -0.2217 N   0  0  0  0  0  0  0  0  0  0  0  0
   13.3466   -5.9646   -0.3949 N   0  0  0  0  0  0  0  0  0  0  0  0
   11.4191   -5.2641    0.8019 N   0  0  0  0  0  0  0  0  0  0  0  0
   11.1011   -4.7770    1.5961 H   0  0  0  0  0  0  0  0  0  0  0  0
    8.5436   -7.4607    0.2979 C   0  0  0  0  0  0  0  0  0  0  0  0
   10.5029   -6.0328    0.1428 C   0  0  0  0  0  0  0  0  0  0  0  0
    7.3429   -8.5851   -1.8264 Cl  0  0  0  0  0  0  0  0  0  0  0  0
    8.5602   -7.6270   -1.1016 C   0  0  0  0  0  0  0  0  0  0  0  0
    9.5347   -6.9791   -1.8898 C   0  0  0  0  0  0  0  0  0  0  0  0
   10.4897   -6.1859   -1.2502 C   0  0  0  0  0  0  0  0  0  0  0  0
    9.5193   -6.6775    0.9164 C   0  0  0  0  0  0  0  0  0  0  0  0
    9.5210   -7.1533   -3.2436 N   0  0  0  0  0  0  0  0  0  0  0  0
    9.5050   -8.0821   -3.5696 H   0  0  0  0  0  0  0  0  0  0  0  0
    9.5288   -5.9400   -4.4147 S   0  0  0  0  0  0  0  0  0  0  0  0
   11.0341   -5.5947   -4.6377 O   0  0  0  0  0  0  0  0  0  0  0  0
    8.6723   -4.7323   -3.9271 O   0  0  0  0  0  0  0  0  0  0  0  0
    8.8567   -6.6335   -5.9515 C   0  0  0  0  0  0  0  0  0  0  0  0
    9.3122   -5.7165   -7.1152 C   0  0  0  0  0  0  0  0  0  0  0  0
    7.3189   -6.6248   -5.7941 C   0  0  0  0  0  0  0  0  0  0  0  0
    9.3939   -8.0757   -6.1476 C   0  0  0  0  0  0  0  0  0  0  0  0
   15.1734   -6.6947   -1.6500 N   0  0  0  0  0  0  0  0  0  0  0  0
   16.1315   -6.5540   -1.8274 H   0  0  0  0  0  0  0  0  0  0  0  0
   14.6247   -7.7162   -2.3585 C   0  0  0  0  0  0  0  0  0  0  0  0
   14.4888   -9.3281   -4.1895 C   0  0  0  0  0  0  0  0  0  0  0  0
   13.2187   -9.7818   -3.6835 C   0  0  0  0  0  0  0  0  0  0  0  0
   15.2127   -8.2713   -3.5337 C   0  0  0  0  0  0  0  0  0  0  0  0
   14.9863   -9.8875   -5.3110 F   0  0  0  0  0  0  0  0  0  0  0  0
   12.6936   -9.1673   -2.5138 C   0  0  0  0  0  0  0  0  0  0  0  0
   13.3467   -8.1380   -1.8281 C   0  0  0  0  0  0  0  0  0  0  0  0
   12.4285  -10.8203   -4.3088 C   0  0  0  0  0  0  0  0  0  0  0  0
   11.7247  -11.7124   -3.5166 N   0  0  0  0  0  0  0  0  0  0  0  0
   12.2295  -10.7606   -5.5437 O   0  0  0  0  0  0  0  0  0  0  0  0
   11.9417  -11.6461   -2.5586 H   0  0  0  0  0  0  0  0  0  0  0  0
   10.7315  -12.7246   -3.8195 C   0  0  0  0  0  0  0  0  0  0  0  0
   11.1818  -13.8192   -4.8287 C   0  0  0  0  0  0  0  0  0  0  0  0
   10.0755  -14.9079   -4.8983 C   0  0  0  0  0  0  0  0  0  0  0  0
    8.7303  -14.3467   -5.2680 N   0  0  0  0  0  0  0  0  0  0  0  0
    7.6839  -15.3749   -5.5513 C   0  0  0  0  0  0  0  0  0  0  0  0
    8.2939  -13.1560   -4.4638 C   0  0  0  0  0  0  0  0  0  0  0  0
    9.4064  -12.0752   -4.3214 C   0  0  0  0  0  0  0  0  0  0  0  0
 10 13  2  0  0  0
 10 16  1  0  0  0
 11 15  1  0  0  0
 11 16  2  0  0  0
 11  8  1  0  0  0
  1  8  1  0  0  0
  1  4  2  0  0  0
  1  7  1  0  0  0
  2  4  1  0  0  0
  2  6  2  0  0  0
  3  6  1  0  0  0
  3 26  1  0  0  0
  3  7  2  0  0  0
 28 26  1  0  0  0
 28 31  2  0  0  0
 28 34  1  0  0  0
 29 30  2  0  0  0
 29 31  1  0  0  0
 29 32  1  0  0  0
 30 35  1  0  0  0
 30 33  1  0  0  0
 12 13  1  0  0  0
 13 14  1  0  0  0
 14 17  1  0  0  0
 14 15  2  0  0  0
 17 19  1  0  0  0
 19 22  1  0  0  0
 19 20  2  0  0  0
 19 21  2  0  0  0
 22 23  1  0  0  0
 22 24  1  0  0  0
 22 25  1  0  0  0
  4  5  1  0  0  0
 35 36  1  0  0  0
 35 37  2  0  0  0
 36 39  1  0  0  0
 39 40  1  0  0  0
 39 45  1  0  0  0
 40 41  1  0  0  0
 41 42  1  0  0  0
 42 43  1  0  0  0
 42 44  1  0  0  0
 44 45  1  0  0  0
 33 34  2  0  0  0
 17 18  1  0  0  0
  8  9  1  0  0  0
 26 27  1  0  0  0
 36 38  1  0  0  0
M  END
> <minimizedAffinity>
-8.47683

$$$$
5F63_5W2_A_201


 45 48  0  0  0  0  0  0  0  0999 V2000
   13.3015   -7.1190   -1.3469 C   0  0  0  0  0  0  0  0  0  0  0  0
   13.2126   -5.2605    0.1765 C   0  0  0  0  0  0  0  0  0  0  0  0
   11.2241   -6.1552   -0.6942 C   0  0  0  0  0  0  0  0  0  0  0  0
   13.9915   -6.1827   -0.5354 C   0  0  0  0  0  0  0  0  0  0  0  0
   15.4678   -6.1269   -0.3910 C   0  0  0  0  0  0  0  0  0  0  0  0
   11.8725   -5.2816    0.0930 N   0  0  0  0  0  0  0  0  0  0  0  0
   11.9429   -7.0576   -1.4078 N   0  0  0  0  0  0  0  0  0  0  0  0
   13.9966   -8.0411   -2.0809 N   0  0  0  0  0  0  0  0  0  0  0  0
   14.1260   -8.9276   -1.6728 H   0  0  0  0  0  0  0  0  0  0  0  0
   16.2725   -8.4350   -4.9116 C   0  0  0  0  0  0  0  0  0  0  0  0
   14.5283   -7.8517   -3.3243 C   0  0  0  0  0  0  0  0  0  0  0  0
   16.4330   -7.4205   -7.3942 Cl  0  0  0  0  0  0  0  0  0  0  0  0
   15.7031   -7.5545   -5.8533 C   0  0  0  0  0  0  0  0  0  0  0  0
   14.5300   -6.8340   -5.5444 C   0  0  0  0  0  0  0  0  0  0  0  0
   13.9586   -7.0007   -4.2811 C   0  0  0  0  0  0  0  0  0  0  0  0
   15.6937   -8.5715   -3.6489 C   0  0  0  0  0  0  0  0  0  0  0  0
   13.9976   -5.9941   -6.4795 N   0  0  0  0  0  0  0  0  0  0  0  0
   14.2914   -5.0550   -6.4484 H   0  0  0  0  0  0  0  0  0  0  0  0
   12.8880   -6.4008   -7.6825 S   0  0  0  0  0  0  0  0  0  0  0  0
   13.2395   -7.8666   -8.0860 O   0  0  0  0  0  0  0  0  0  0  0  0
   12.9903   -5.3831   -8.8587 O   0  0  0  0  0  0  0  0  0  0  0  0
   11.2276   -6.3809   -6.9499 C   0  0  0  0  0  0  0  0  0  0  0  0
   11.0096   -7.7473   -6.2514 C   0  0  0  0  0  0  0  0  0  0  0  0
   10.2395   -6.1818   -8.1221 C   0  0  0  0  0  0  0  0  0  0  0  0
   11.1267   -5.2197   -5.9260 C   0  0  0  0  0  0  0  0  0  0  0  0
    9.8748   -6.1897   -0.7632 N   0  0  0  0  0  0  0  0  0  0  0  0
    9.4924   -5.5735   -1.4290 H   0  0  0  0  0  0  0  0  0  0  0  0
    8.9472   -6.9157   -0.0857 C   0  0  0  0  0  0  0  0  0  0  0  0
    7.7747   -7.7217    1.9004 C   0  0  0  0  0  0  0  0  0  0  0  0
    6.9926   -8.6017    1.0703 C   0  0  0  0  0  0  0  0  0  0  0  0
    8.7803   -6.8647    1.3301 C   0  0  0  0  0  0  0  0  0  0  0  0
    7.5751   -7.7277    3.2340 F   0  0  0  0  0  0  0  0  0  0  0  0
    7.2294   -8.6032   -0.3316 C   0  0  0  0  0  0  0  0  0  0  0  0
    8.1890   -7.7945   -0.9491 C   0  0  0  0  0  0  0  0  0  0  0  0
    5.9856   -9.5059    1.5821 C   0  0  0  0  0  0  0  0  0  0  0  0
    6.3517  -10.5013    2.4731 N   0  0  0  0  0  0  0  0  0  0  0  0
    4.7797   -9.2392    1.3752 O   0  0  0  0  0  0  0  0  0  0  0  0
    7.3258  -10.5986    2.5781 H   0  0  0  0  0  0  0  0  0  0  0  0
    5.5840  -11.4284    3.2816 C   0  0  0  0  0  0  0  0  0  0  0  0
    6.1753  -11.7343    4.6875 C   0  0  0  0  0  0  0  0  0  0  0  0
    5.1473  -12.5912    5.4767 C   0  0  0  0  0  0  0  0  0  0  0  0
    4.7714  -13.8569    4.7569 N   0  0  0  0  0  0  0  0  0  0  0  0
    3.9512  -14.8108    5.5631 C   0  0  0  0  0  0  0  0  0  0  0  0
    4.3661  -13.6774    3.3221 C   0  0  0  0  0  0  0  0  0  0  0  0
    5.3443  -12.7677    2.5212 C   0  0  0  0  0  0  0  0  0  0  0  0
 10 13  2  0  0  0
 10 16  1  0  0  0
 11 15  1  0  0  0
 11 16  2  0  0  0
 11  8  1  0  0  0
  1  8  1  0  0  0
  1  4  2  0  0  0
  1  7  1  0  0  0
  2  4  1  0  0  0
  2  6  2  0  0  0
  3  6  1  0  0  0
  3 26  1  0  0  0
  3  7  2  0  0  0
 28 26  1  0  0  0
 28 31  2  0  0  0
 28 34  1  0  0  0
 29 30  2  0  0  0
 29 31  1  0  0  0
 29 32  1  0  0  0
 30 35  1  0  0  0
 30 33  1  0  0  0
 12 13  1  0  0  0
 13 14  1  0  0  0
 14 17  1  0  0  0
 14 15  2  0  0  0
 17 19  1  0  0  0
 19 22  1  0  0  0
 19 20  2  0  0  0
 19 21  2  0  0  0
 22 23  1  0  0  0
 22 24  1  0  0  0
 22 25  1  0  0  0
  4  5  1  0  0  0
 35 36  1  0  0  0
 35 37  2  0  0  0
 36 39  1  0  0  0
 39 40  1  0  0  0
 39 45  1  0  0  0
 40 41  1  0  0  0
 41 42  1  0  0  0
 42 43  1  0  0  0
 42 44  1  0  0  0
 44 45  1  0  0  0
 33 34  2  0  0  0
 17 18  1  0  0  0
  8  9  1  0  0  0
 26 27  1  0  0  0
 36 38  1  0  0  0
M  END
> <minimizedAffinity>
-8.36224

$$$$
