6GW4_CHO_A_600
  RCSB PDB10131806233D
Coordinates from PDB:6GW4:A:600 Model:1 without hydrogens
 32 35  0  0  0  0            999 V2000
   60.1930   -1.6200  -12.6080   C 0  0  0  0  0  0  0  0  0  0  0  0
   61.3640   -1.0840  -11.7800   C 0  0  0  0  0  0  0  0  0  0  0  0
   62.1580   -2.2380  -11.2050   C 0  0  0  0  0  0  0  0  0  0  0  0
   63.2750   -1.7270  -10.4740   O 0  0  0  0  0  0  0  0  0  0  0  0
   61.2630   -3.0480  -10.3030   C 0  0  0  0  0  0  0  0  0  0  0  0
   60.0580   -3.6150  -11.0590   C 0  0  0  0  0  0  0  0  0  0  0  0
   59.1990   -4.4940  -10.1440   C 0  0  0  0  0  0  0  0  0  0  0  0
   58.2220   -3.7530   -9.2430   C 0  0  0  0  0  0  0  0  0  0  0  0
   58.9060   -3.1490   -8.1420   O 0  0  0  0  0  0  0  0  0  0  0  0
   57.4320   -2.6840  -10.0070   C 0  0  0  0  0  0  0  0  0  0  0  0
   58.3290   -1.7570  -10.8380   C 0  0  0  0  0  0  0  0  0  0  0  0
   59.2290   -2.5530  -11.8400   C 0  0  0  0  0  0  0  0  0  0  0  0
   57.5030   -0.6400  -11.4950   C 0  0  0  0  0  0  0  0  0  0  0  0
   56.5310    0.0670  -10.5530   C 0  0  0  0  0  0  0  0  0  0  0  0
   55.6240   -0.8960   -9.7580   C 0  0  0  0  0  0  0  0  0  0  0  0
   56.5670   -1.8560   -9.0550   C 0  0  0  0  0  0  0  0  0  0  0  0
   55.6870   -2.5980   -8.0350   C 0  0  0  0  0  0  0  0  0  0  0  0
   54.6240   -1.5610   -7.6410   C 0  0  0  0  0  0  0  0  0  0  0  0
   54.8580   -0.3240   -8.5320   C 0  0  0  0  0  0  0  0  0  0  0  0
   54.6540   -1.6210  -10.7140   C 0  0  0  0  0  0  0  0  0  0  0  0
   58.3610   -3.2650  -12.8950   C 0  0  0  0  0  0  0  0  0  0  0  0
   53.5620    0.4890   -8.7410   C 0  0  0  0  0  0  0  0  0  0  0  0
   53.8200    1.9550   -9.0600   C 0  0  0  0  0  0  0  0  0  0  0  0
   52.6300    0.3680   -7.5170   C 0  0  0  0  0  0  0  0  0  0  0  0
   52.9590    1.3040   -6.3610   C 0  0  0  0  0  0  0  0  0  0  0  0
   52.1290    1.0500   -5.1180   C 0  0  0  0  0  0  0  0  0  0  0  0
   52.0240   -0.0720   -4.6190   O 0  0  0  0  0  0  0  0  0  0  0  0
   51.5150    2.1040   -4.5960   N 0  0  0  0  0  0  0  0  0  0  0  0
   51.6120    3.4360   -5.1630   C 0  0  0  0  0  0  0  0  0  0  0  0
   50.3360    3.7480   -5.9130   C 0  0  0  0  0  0  0  0  0  0  0  0
   50.3630    3.7720   -7.1680   O 0  0  0  0  0  0  0  0  0  0  0  0
   49.2960    3.9600   -5.2500   O 0  0  0  0  0  0  0  0  0  0  0  0
  1  2  1  0  0  0  0
  1 12  1  0  0  0  0
  2  3  1  0  0  0  0
  3  4  1  0  0  0  0
  3  5  1  0  0  0  0
  5  6  1  0  0  0  0
  6  7  1  0  0  0  0
  6 12  1  0  0  0  0
  7  8  1  0  0  0  0
  8  9  1  0  0  0  0
  8 10  1  0  0  0  0
 10 11  1  0  0  0  0
 10 16  1  0  0  0  0
 11 12  1  0  0  0  0
 11 13  1  0  0  0  0
 12 21  1  0  0  0  0
 13 14  1  0  0  0  0
 14 15  1  0  0  0  0
 15 16  1  0  0  0  0
 15 19  1  0  0  0  0
 15 20  1  0  0  0  0
 16 17  1  0  0  0  0
 17 18  1  0  0  0  0
 18 19  1  0  0  0  0
 19 22  1  0  0  0  0
 22 23  1  0  0  0  0
 22 24  1  0  0  0  0
 24 25  1  0  0  0  0
 25 26  1  0  0  0  0
 26 27  2  0  0  0  0
 26 28  1  0  0  0  0
 28 29  1  0  0  0  0
 29 30  1  0  0  0  0
 30 31  2  0  0  0  0
 30 32  1  0  0  0  0
A    1
C1
A    2
C2
A    3
C3
A    4
O3
A    5
C4
A    6
C5
A    7
C6
A    8
C7
A    9
O7
A   10
C8
A   11
C9
A   12
C10
A   13
C11
A   14
C12
A   15
C13
A   16
C14
A   17
C15
A   18
C16
A   19
C17
A   20
C18
A   21
C19
A   22
C20
A   23
C21
A   24
C22
A   25
C23
A   26
C24
A   27
O24
A   28
N25
A   29
C26
A   30
C27
A   31
OT1
A   32
OT2
M  END
>  <InstanceId>
6GW4_CHO_A_600

>  <ChemCompId>
CHO

>  <PdbId>
6GW4

>  <ChainId>
A

>  <ResidueNumber>
600

>  <InsertionCode>


>  <Model>
1

>  <AltIds>


>  <MissingHeavyAtoms>
0

>  <ObservedFormula>
C26 N O5

>  <Name>
GLYCOCHENODEOXYCHOLIC ACID

>  <SystematicName>
2-[[(4R)-4-[(3R,5S,8R,9S,10S,13R,14S,17R)-10,13-dimethyl-3,7-bis(oxidanyl)-2,3,4,5,6,7,8,9,11,12,14,15,16,17-tetradecahydro-1H-cyclopenta[a]phenanthren-17-yl]pentanoyl]amino]ethanoic acid

>  <Synonyms>


>  <Type>
NON-POLYMER

>  <Formula>
C26 H43 N O5

>  <MolecularWeight>
449.623

>  <ModifiedDate>
2012-12-21

>  <Parent>


>  <OneLetterCode>


>  <SubcomponentList>


>  <AmbiguousFlag>
N

>  <InChI>
InChI=1S/C26H43NO5/c1-15(4-7-22(30)27-14-23(31)32)18-5-6-19-24-20(9-11-26(18,19)3)25(2)10-8-17(28)12-16(25)13-21(24)29/h15-21,24,28-29H,4-14H2,1-3H3,(H,27,30)(H,31,32)/t15-,16+,17-,18-,19+,20+,21-,24+,25+,26-/m1/s1

>  <InChIKey>
GHCZAUBVMUEKKP-GYPHWSFCSA-N

>  <SMILES>
C[C@H](CCC(=O)NCC(=O)O)[C@H]1CC[C@@H]2[C@@]1(CC[C@H]3[C@H]2C(C[C@H]4[C@@]3(CC[C@H](C4)O)C)O)C

$$$$
