1RPJ_ALL_A_291


 17 17  0  0  0  0  0  0  0  0999 V2000
    4.7578    6.9354   10.5852 C   0  0  0  0  0  0  0  0  0  0  0  0
    5.0818    8.3664   11.0797 C   0  0  0  0  0  0  0  0  0  0  0  0
    4.6141    8.5390   12.5218 C   0  0  0  0  0  0  0  0  0  0  0  0
    3.1089    8.2519   12.5975 C   0  0  0  0  0  0  0  0  0  0  0  0
    2.8653    6.8458   12.0310 C   0  0  0  0  0  0  0  0  0  0  0  0
    5.1663    6.7348    9.2507 O   0  0  0  0  0  0  0  0  0  0  0  0
    6.4790    8.5833   10.9967 O   0  0  0  0  0  0  0  0  0  0  0  0
    5.3196    7.5460   13.3434 O   0  0  0  0  0  0  0  0  0  0  0  0
    2.6227    8.2621   13.9448 O   0  0  0  0  0  0  0  0  0  0  0  0
    3.3629    6.7334   10.7035 O   0  0  0  0  0  0  0  0  0  0  0  0
    4.6994    7.3581    8.6724 H   0  0  0  0  0  0  0  0  0  0  0  0
    6.9403    7.9369   11.5537 H   0  0  0  0  0  0  0  0  0  0  0  0
    5.1241    6.6552   13.0130 H   0  0  0  0  0  0  0  0  0  0  0  0
    3.0769    7.5754   14.4577 H   0  0  0  0  0  0  0  0  0  0  0  0
    1.4578    6.3479   12.1021 C   0  0  0  0  0  0  0  0  0  0  0  0
    0.5180    7.4551   12.1311 O   0  0  0  0  0  0  0  0  0  0  0  0
    0.6865    8.0017   12.9145 H   0  0  0  0  0  0  0  0  0  0  0  0
  1  2  1  0  0  0
  1  6  1  0  0  0
  1 10  1  0  0  0
  2  3  1  0  0  0
  2  7  1  0  0  0
  3  4  1  0  0  0
  3  8  1  0  0  0
  4  5  1  0  0  0
  4  9  1  0  0  0
  5 15  1  0  0  0
  5 10  1  0  0  0
 15 16  1  0  0  0
  6 11  1  0  0  0
  7 12  1  0  0  0
  8 13  1  0  0  0
  9 14  1  0  0  0
 16 17  1  0  0  0
M  END
> <minimizedAffinity>
-9.03737

$$$$
1RPJ_ALL_A_291


 17 17  0  0  0  0  0  0  0  0999 V2000
    1.9624    6.4636   11.0860 C   0  0  0  0  0  0  0  0  0  0  0  0
    1.8681    6.5519   12.6289 C   0  0  0  0  0  0  0  0  0  0  0  0
    2.8003    7.6428   13.1475 C   0  0  0  0  0  0  0  0  0  0  0  0
    4.2332    7.3336   12.6947 C   0  0  0  0  0  0  0  0  0  0  0  0
    4.2283    7.1981   11.1654 C   0  0  0  0  0  0  0  0  0  0  0  0
    1.1213    5.4596   10.5640 O   0  0  0  0  0  0  0  0  0  0  0  0
    0.5322    6.8433   12.9986 O   0  0  0  0  0  0  0  0  0  0  0  0
    2.3839    8.9141   12.5400 O   0  0  0  0  0  0  0  0  0  0  0  0
    5.1459    8.3856   13.0296 O   0  0  0  0  0  0  0  0  0  0  0  0
    3.3085    6.1999   10.7410 O   0  0  0  0  0  0  0  0  0  0  0  0
    1.3842    4.5981   10.9240 H   0  0  0  0  0  0  0  0  0  0  0  0
    0.2667    7.6913   12.6098 H   0  0  0  0  0  0  0  0  0  0  0  0
    2.4291    8.8409   11.5738 H   0  0  0  0  0  0  0  0  0  0  0  0
    4.8709    9.2047   12.5888 H   0  0  0  0  0  0  0  0  0  0  0  0
    5.5613    6.9822   10.5245 C   0  0  0  0  0  0  0  0  0  0  0  0
    6.3897    8.1697   10.6408 O   0  0  0  0  0  0  0  0  0  0  0  0
    5.9546    8.9125   10.1937 H   0  0  0  0  0  0  0  0  0  0  0  0
  1  2  1  0  0  0
  1  6  1  0  0  0
  1 10  1  0  0  0
  2  3  1  0  0  0
  2  7  1  0  0  0
  3  4  1  0  0  0
  3  8  1  0  0  0
  4  5  1  0  0  0
  4  9  1  0  0  0
  5 15  1  0  0  0
  5 10  1  0  0  0
 15 16  1  0  0  0
  6 11  1  0  0  0
  7 12  1  0  0  0
  8 13  1  0  0  0
  9 14  1  0  0  0
 16 17  1  0  0  0
M  END
> <minimizedAffinity>
-7.09689

$$$$
