2JKP_CTS_A_1727


 17 18  0  0  0  0  0  0  0  0999 V2000
   22.3079   43.9982   70.0295 C   0  0  0  0  0  0  0  0  0  0  0  0
   21.9256   43.1340   71.2451 C   0  0  0  0  0  0  0  0  0  0  0  0
   23.1819   42.4740   71.7887 C   0  0  0  0  0  0  0  0  0  0  0  0
   23.7233   41.5672   70.6700 C   0  0  0  0  0  0  0  0  0  0  0  0
   24.2165   42.3843   69.5016 C   0  0  0  0  0  0  0  0  0  0  0  0
   24.4266   41.6105   68.2185 C   0  0  0  0  0  0  0  0  0  0  0  0
   21.2750   44.0619   72.1543 O   0  0  0  0  0  0  0  0  0  0  0  0
   22.8081   41.7087   72.9230 O   0  0  0  0  0  0  0  0  0  0  0  0
   24.8489   40.7954   71.0544 O   0  0  0  0  0  0  0  0  0  0  0  0
   23.3412   40.7297   67.9398 O   0  0  0  0  0  0  0  0  0  0  0  0
   23.2002   43.3428   69.0874 N   0  0  0  0  0  0  0  0  0  0  0  0
   24.3911   42.7202   67.2060 C   0  0  0  0  0  0  0  0  0  0  0  0
   23.3030   43.6805   67.6738 C   0  0  0  0  0  0  0  0  0  0  0  0
   21.8735   44.8010   72.3450 H   0  0  0  0  0  0  0  0  0  0  0  0
   22.1277   41.0656   72.6692 H   0  0  0  0  0  0  0  0  0  0  0  0
   25.5879   41.3860   71.2687 H   0  0  0  0  0  0  0  0  0  0  0  0
   22.5137   41.2352   67.9113 H   0  0  0  0  0  0  0  0  0  0  0  0
  1  2  1  0  0  0
  1 11  1  0  0  0
  2  3  1  0  0  0
  2  7  1  0  0  0
  3  4  1  0  0  0
  3  8  1  0  0  0
  4  5  1  0  0  0
  4  9  1  0  0  0
  5  6  1  0  0  0
  5 11  1  0  0  0
  6 10  1  0  0  0
  6 12  1  0  0  0
 11 13  1  0  0  0
 12 13  1  0  0  0
  7 14  1  0  0  0
  8 15  1  0  0  0
  9 16  1  0  0  0
 10 17  1  0  0  0
M  END
> <minimizedAffinity>
-7.44545

$$$$
2JKP_CTS_A_1727


 17 18  0  0  0  0  0  0  0  0999 V2000
   23.5030   41.2786   70.8242 C   0  0  0  0  0  0  0  0  0  0  0  0
   23.0933   42.1758   72.0065 C   0  0  0  0  0  0  0  0  0  0  0  0
   21.9833   43.1078   71.5496 C   0  0  0  0  0  0  0  0  0  0  0  0
   22.5738   43.9812   70.4291 C   0  0  0  0  0  0  0  0  0  0  0  0
   22.8838   43.1553   69.2053 C   0  0  0  0  0  0  0  0  0  0  0  0
   23.7898   43.8208   68.1927 C   0  0  0  0  0  0  0  0  0  0  0  0
   22.7198   41.2405   73.0537 O   0  0  0  0  0  0  0  0  0  0  0  0
   21.6045   43.9017   72.6625 O   0  0  0  0  0  0  0  0  0  0  0  0
   21.6873   44.9823   69.9577 O   0  0  0  0  0  0  0  0  0  0  0  0
   24.9088   44.4533   68.8087 O   0  0  0  0  0  0  0  0  0  0  0  0
   23.6782   41.9887   69.5678 N   0  0  0  0  0  0  0  0  0  0  0  0
   24.2959   42.6270   67.4333 C   0  0  0  0  0  0  0  0  0  0  0  0
   24.5245   41.5347   68.4723 C   0  0  0  0  0  0  0  0  0  0  0  0
   22.0258   40.6477   72.7254 H   0  0  0  0  0  0  0  0  0  0  0  0
   22.3794   44.3791   72.9979 H   0  0  0  0  0  0  0  0  0  0  0  0
   20.9102   44.5630   69.5562 H   0  0  0  0  0  0  0  0  0  0  0  0
   25.3959   43.8036   69.3393 H   0  0  0  0  0  0  0  0  0  0  0  0
  1  2  1  0  0  0
  1 11  1  0  0  0
  2  3  1  0  0  0
  2  7  1  0  0  0
  3  4  1  0  0  0
  3  8  1  0  0  0
  4  5  1  0  0  0
  4  9  1  0  0  0
  5  6  1  0  0  0
  5 11  1  0  0  0
  6 10  1  0  0  0
  6 12  1  0  0  0
 11 13  1  0  0  0
 12 13  1  0  0  0
  7 14  1  0  0  0
  8 15  1  0  0  0
  9 16  1  0  0  0
 10 17  1  0  0  0
M  END
> <minimizedAffinity>
-7.14962

$$$$
2JKP_CTS_A_1727


 17 18  0  0  0  0  0  0  0  0999 V2000
   24.3672   44.5733   68.4563 C   0  0  0  0  0  0  0  0  0  0  0  0
   23.4440   45.7694   68.7526 C   0  0  0  0  0  0  0  0  0  0  0  0
   22.9378   45.6526   70.1808 C   0  0  0  0  0  0  0  0  0  0  0  0
   22.1223   44.3502   70.2547 C   0  0  0  0  0  0  0  0  0  0  0  0
   23.0118   43.1439   70.0830 C   0  0  0  0  0  0  0  0  0  0  0  0
   22.2895   41.8505   69.7753 C   0  0  0  0  0  0  0  0  0  0  0  0
   24.2699   46.9345   68.4855 O   0  0  0  0  0  0  0  0  0  0  0  0
   22.1150   46.7792   70.4377 O   0  0  0  0  0  0  0  0  0  0  0  0
   21.4912   44.1415   71.5072 O   0  0  0  0  0  0  0  0  0  0  0  0
   21.2845   42.0217   68.7791 O   0  0  0  0  0  0  0  0  0  0  0  0
   23.8422   43.2904   68.8947 N   0  0  0  0  0  0  0  0  0  0  0  0
   23.4011   41.0381   69.1735 C   0  0  0  0  0  0  0  0  0  0  0  0
   24.2111   42.0049   68.3167 C   0  0  0  0  0  0  0  0  0  0  0  0
   25.0749   46.8907   69.0248 H   0  0  0  0  0  0  0  0  0  0  0  0
   21.3960   46.8096   69.7874 H   0  0  0  0  0  0  0  0  0  0  0  0
   22.1660   44.0462   72.1974 H   0  0  0  0  0  0  0  0  0  0  0  0
   21.6832   42.3979   67.9789 H   0  0  0  0  0  0  0  0  0  0  0  0
  1  2  1  0  0  0
  1 11  1  0  0  0
  2  3  1  0  0  0
  2  7  1  0  0  0
  3  4  1  0  0  0
  3  8  1  0  0  0
  4  5  1  0  0  0
  4  9  1  0  0  0
  5  6  1  0  0  0
  5 11  1  0  0  0
  6 10  1  0  0  0
  6 12  1  0  0  0
 11 13  1  0  0  0
 12 13  1  0  0  0
  7 14  1  0  0  0
  8 15  1  0  0  0
  9 16  1  0  0  0
 10 17  1  0  0  0
M  END
> <minimizedAffinity>
-6.13744

$$$$
2JKP_CTS_A_1727


 17 18  0  0  0  0  0  0  0  0999 V2000
   24.7052   42.6967   70.5410 C   0  0  0  0  0  0  0  0  0  0  0  0
   23.3816   41.9842   70.8740 C   0  0  0  0  0  0  0  0  0  0  0  0
   22.4599   42.0795   69.6694 C   0  0  0  0  0  0  0  0  0  0  0  0
   22.1880   43.5762   69.4393 C   0  0  0  0  0  0  0  0  0  0  0  0
   23.4404   44.2925   68.9983 C   0  0  0  0  0  0  0  0  0  0  0  0
   23.3863   45.8014   69.0950 C   0  0  0  0  0  0  0  0  0  0  0  0
   23.7819   40.6356   71.2377 O   0  0  0  0  0  0  0  0  0  0  0  0
   21.2615   41.3918   69.9906 O   0  0  0  0  0  0  0  0  0  0  0  0
   21.2560   43.8348   68.4025 O   0  0  0  0  0  0  0  0  0  0  0  0
   22.8289   46.2397   70.3315 O   0  0  0  0  0  0  0  0  0  0  0  0
   24.5421   43.9931   69.9038 N   0  0  0  0  0  0  0  0  0  0  0  0
   24.8502   46.1403   69.1038 C   0  0  0  0  0  0  0  0  0  0  0  0
   25.5240   45.0683   69.9532 C   0  0  0  0  0  0  0  0  0  0  0  0
   24.2911   40.2426   70.5116 H   0  0  0  0  0  0  0  0  0  0  0  0
   20.8721   41.7773   70.7910 H   0  0  0  0  0  0  0  0  0  0  0  0
   21.6156   43.5197   67.5585 H   0  0  0  0  0  0  0  0  0  0  0  0
   23.3353   45.8606   71.0669 H   0  0  0  0  0  0  0  0  0  0  0  0
  1  2  1  0  0  0
  1 11  1  0  0  0
  2  3  1  0  0  0
  2  7  1  0  0  0
  3  4  1  0  0  0
  3  8  1  0  0  0
  4  5  1  0  0  0
  4  9  1  0  0  0
  5  6  1  0  0  0
  5 11  1  0  0  0
  6 10  1  0  0  0
  6 12  1  0  0  0
 11 13  1  0  0  0
 12 13  1  0  0  0
  7 14  1  0  0  0
  8 15  1  0  0  0
  9 16  1  0  0  0
 10 17  1  0  0  0
M  END
> <minimizedAffinity>
-6.08142

$$$$
2JKP_CTS_A_1727


 17 18  0  0  0  0  0  0  0  0999 V2000
   21.8504   43.8197   69.3943 C   0  0  0  0  0  0  0  0  0  0  0  0
   21.8950   42.3446   68.9555 C   0  0  0  0  0  0  0  0  0  0  0  0
   22.8593   41.5956   69.8603 C   0  0  0  0  0  0  0  0  0  0  0  0
   24.2447   42.2308   69.6507 C   0  0  0  0  0  0  0  0  0  0  0  0
   24.2768   43.6452   70.1743 C   0  0  0  0  0  0  0  0  0  0  0  0
   25.4475   44.4795   69.7026 C   0  0  0  0  0  0  0  0  0  0  0  0
   20.5121   41.9057   69.0319 O   0  0  0  0  0  0  0  0  0  0  0  0
   22.8600   40.2362   69.4548 O   0  0  0  0  0  0  0  0  0  0  0  0
   25.2863   41.5754   70.3551 O   0  0  0  0  0  0  0  0  0  0  0  0
   25.6795   44.3350   68.3036 O   0  0  0  0  0  0  0  0  0  0  0  0
   23.1560   44.4092   69.6420 N   0  0  0  0  0  0  0  0  0  0  0  0
   24.9246   45.8677   69.9419 C   0  0  0  0  0  0  0  0  0  0  0  0
   23.4504   45.8334   69.5544 C   0  0  0  0  0  0  0  0  0  0  0  0
   20.1730   42.0601   69.9275 H   0  0  0  0  0  0  0  0  0  0  0  0
   23.1048   40.1784   68.5180 H   0  0  0  0  0  0  0  0  0  0  0  0
   25.1267   41.6477   71.3092 H   0  0  0  0  0  0  0  0  0  0  0  0
   24.8714   44.5606   67.8169 H   0  0  0  0  0  0  0  0  0  0  0  0
  1  2  1  0  0  0
  1 11  1  0  0  0
  2  3  1  0  0  0
  2  7  1  0  0  0
  3  4  1  0  0  0
  3  8  1  0  0  0
  4  5  1  0  0  0
  4  9  1  0  0  0
  5  6  1  0  0  0
  5 11  1  0  0  0
  6 10  1  0  0  0
  6 12  1  0  0  0
 11 13  1  0  0  0
 12 13  1  0  0  0
  7 14  1  0  0  0
  8 15  1  0  0  0
  9 16  1  0  0  0
 10 17  1  0  0  0
M  END
> <minimizedAffinity>
-5.73751

$$$$
2JKP_CTS_A_1727


 17 18  0  0  0  0  0  0  0  0999 V2000
   24.8010   43.8745   69.6260 C   0  0  0  0  0  0  0  0  0  0  0  0
   23.6173   43.4704   70.5239 C   0  0  0  0  0  0  0  0  0  0  0  0
   22.3603   44.1525   70.0100 C   0  0  0  0  0  0  0  0  0  0  0  0
   22.5984   45.6674   70.1334 C   0  0  0  0  0  0  0  0  0  0  0  0
   23.6767   46.1253   69.1829 C   0  0  0  0  0  0  0  0  0  0  0  0
   24.2442   47.4987   69.4673 C   0  0  0  0  0  0  0  0  0  0  0  0
   23.5993   42.0189   70.4619 O   0  0  0  0  0  0  0  0  0  0  0  0
   21.2815   43.7417   70.8345 O   0  0  0  0  0  0  0  0  0  0  0  0
   21.4708   46.4533   69.7849 O   0  0  0  0  0  0  0  0  0  0  0  0
   24.5231   47.6872   70.8524 O   0  0  0  0  0  0  0  0  0  0  0  0
   24.8659   45.2956   69.3266 N   0  0  0  0  0  0  0  0  0  0  0  0
   25.5565   47.4225   68.7394 C   0  0  0  0  0  0  0  0  0  0  0  0
   26.0847   46.0113   68.9730 C   0  0  0  0  0  0  0  0  0  0  0  0
   23.5313   41.7356   69.5367 H   0  0  0  0  0  0  0  0  0  0  0  0
   21.4772   43.9649   71.7580 H   0  0  0  0  0  0  0  0  0  0  0  0
   21.2576   46.3155   68.8487 H   0  0  0  0  0  0  0  0  0  0  0  0
   25.1245   46.9905   71.1588 H   0  0  0  0  0  0  0  0  0  0  0  0
  1  2  1  0  0  0
  1 11  1  0  0  0
  2  3  1  0  0  0
  2  7  1  0  0  0
  3  4  1  0  0  0
  3  8  1  0  0  0
  4  5  1  0  0  0
  4  9  1  0  0  0
  5  6  1  0  0  0
  5 11  1  0  0  0
  6 10  1  0  0  0
  6 12  1  0  0  0
 11 13  1  0  0  0
 12 13  1  0  0  0
  7 14  1  0  0  0
  8 15  1  0  0  0
  9 16  1  0  0  0
 10 17  1  0  0  0
M  END
> <minimizedAffinity>
-5.50673

$$$$
2JKP_CTS_A_1727


 17 18  0  0  0  0  0  0  0  0999 V2000
   22.3250   44.6445   69.9437 C   0  0  0  0  0  0  0  0  0  0  0  0
   23.7751   45.1583   70.0044 C   0  0  0  0  0  0  0  0  0  0  0  0
   24.5036   44.7120   68.7475 C   0  0  0  0  0  0  0  0  0  0  0  0
   24.5080   43.1736   68.7628 C   0  0  0  0  0  0  0  0  0  0  0  0
   23.1128   42.6264   68.5898 C   0  0  0  0  0  0  0  0  0  0  0  0
   22.9451   41.1664   68.9496 C   0  0  0  0  0  0  0  0  0  0  0  0
   23.6399   46.5965   70.1596 O   0  0  0  0  0  0  0  0  0  0  0  0
   25.8257   45.2217   68.8140 O   0  0  0  0  0  0  0  0  0  0  0  0
   25.2435   42.5937   67.6983 O   0  0  0  0  0  0  0  0  0  0  0  0
   23.5865   40.8405   70.1801 O   0  0  0  0  0  0  0  0  0  0  0  0
   22.2000   43.2547   69.5361 N   0  0  0  0  0  0  0  0  0  0  0  0
   21.4606   41.0948   69.1708 C   0  0  0  0  0  0  0  0  0  0  0  0
   21.0789   42.3898   69.8793 C   0  0  0  0  0  0  0  0  0  0  0  0
   23.1061   46.9515   69.4316 H   0  0  0  0  0  0  0  0  0  0  0  0
   26.2532   44.9068   69.6258 H   0  0  0  0  0  0  0  0  0  0  0  0
   24.8286   42.8280   66.8533 H   0  0  0  0  0  0  0  0  0  0  0  0
   23.2466   41.4149   70.8840 H   0  0  0  0  0  0  0  0  0  0  0  0
  1  2  1  0  0  0
  1 11  1  0  0  0
  2  3  1  0  0  0
  2  7  1  0  0  0
  3  4  1  0  0  0
  3  8  1  0  0  0
  4  5  1  0  0  0
  4  9  1  0  0  0
  5  6  1  0  0  0
  5 11  1  0  0  0
  6 10  1  0  0  0
  6 12  1  0  0  0
 11 13  1  0  0  0
 12 13  1  0  0  0
  7 14  1  0  0  0
  8 15  1  0  0  0
  9 16  1  0  0  0
 10 17  1  0  0  0
M  END
> <minimizedAffinity>
-5.46541

$$$$
2JKP_CTS_A_1727


 17 18  0  0  0  0  0  0  0  0999 V2000
   23.8033   42.2947   68.3726 C   0  0  0  0  0  0  0  0  0  0  0  0
   22.6563   41.9358   69.3350 C   0  0  0  0  0  0  0  0  0  0  0  0
   21.7409   43.1410   69.4736 C   0  0  0  0  0  0  0  0  0  0  0  0
   22.5869   44.2691   70.0888 C   0  0  0  0  0  0  0  0  0  0  0  0
   23.6549   44.7305   69.1283 C   0  0  0  0  0  0  0  0  0  0  0  0
   24.7586   45.5619   69.7445 C   0  0  0  0  0  0  0  0  0  0  0  0
   22.0422   40.7617   68.7390 O   0  0  0  0  0  0  0  0  0  0  0  0
   20.6789   42.7758   70.3401 O   0  0  0  0  0  0  0  0  0  0  0  0
   21.8483   45.4444   70.3783 O   0  0  0  0  0  0  0  0  0  0  0  0
   25.2301   45.0043   70.9686 O   0  0  0  0  0  0  0  0  0  0  0  0
   24.4107   43.5913   68.6241 N   0  0  0  0  0  0  0  0  0  0  0  0
   25.8440   45.4030   68.7176 C   0  0  0  0  0  0  0  0  0  0  0  0
   25.7722   43.9528   68.2522 C   0  0  0  0  0  0  0  0  0  0  0  0
   21.7705   40.9650   67.8302 H   0  0  0  0  0  0  0  0  0  0  0  0
   21.0418   42.4820   71.1904 H   0  0  0  0  0  0  0  0  0  0  0  0
   21.5029   45.8205   69.5536 H   0  0  0  0  0  0  0  0  0  0  0  0
   25.5233   44.0923   70.8168 H   0  0  0  0  0  0  0  0  0  0  0  0
  1  2  1  0  0  0
  1 11  1  0  0  0
  2  3  1  0  0  0
  2  7  1  0  0  0
  3  4  1  0  0  0
  3  8  1  0  0  0
  4  5  1  0  0  0
  4  9  1  0  0  0
  5  6  1  0  0  0
  5 11  1  0  0  0
  6 10  1  0  0  0
  6 12  1  0  0  0
 11 13  1  0  0  0
 12 13  1  0  0  0
  7 14  1  0  0  0
  8 15  1  0  0  0
  9 16  1  0  0  0
 10 17  1  0  0  0
M  END
> <minimizedAffinity>
-5.30623

$$$$
2JKP_CTS_A_1727


 17 18  0  0  0  0  0  0  0  0999 V2000
   25.5952   44.5804   69.5430 C   0  0  0  0  0  0  0  0  0  0  0  0
   25.2722   45.9706   68.9655 C   0  0  0  0  0  0  0  0  0  0  0  0
   24.1741   46.6038   69.8039 C   0  0  0  0  0  0  0  0  0  0  0  0
   22.9382   45.6975   69.6696 C   0  0  0  0  0  0  0  0  0  0  0  0
   23.1736   44.3600   70.3264 C   0  0  0  0  0  0  0  0  0  0  0  0
   22.1890   43.2753   69.9481 C   0  0  0  0  0  0  0  0  0  0  0  0
   26.5444   46.6720   68.9862 O   0  0  0  0  0  0  0  0  0  0  0  0
   23.9160   47.8926   69.2703 O   0  0  0  0  0  0  0  0  0  0  0  0
   21.7841   46.2052   70.3182 O   0  0  0  0  0  0  0  0  0  0  0  0
   21.9459   43.2379   68.5440 O   0  0  0  0  0  0  0  0  0  0  0  0
   24.4249   43.7778   69.8587 N   0  0  0  0  0  0  0  0  0  0  0  0
   22.9665   42.0426   70.3140 C   0  0  0  0  0  0  0  0  0  0  0  0
   24.4101   42.3219   69.9106 C   0  0  0  0  0  0  0  0  0  0  0  0
   26.8989   46.6721   69.8891 H   0  0  0  0  0  0  0  0  0  0  0  0
   23.6730   47.8124   68.3347 H   0  0  0  0  0  0  0  0  0  0  0  0
   21.9462   46.2565   71.2732 H   0  0  0  0  0  0  0  0  0  0  0  0
   22.7866   43.1261   68.0732 H   0  0  0  0  0  0  0  0  0  0  0  0
  1  2  1  0  0  0
  1 11  1  0  0  0
  2  3  1  0  0  0
  2  7  1  0  0  0
  3  4  1  0  0  0
  3  8  1  0  0  0
  4  5  1  0  0  0
  4  9  1  0  0  0
  5  6  1  0  0  0
  5 11  1  0  0  0
  6 10  1  0  0  0
  6 12  1  0  0  0
 11 13  1  0  0  0
 12 13  1  0  0  0
  7 14  1  0  0  0
  8 15  1  0  0  0
  9 16  1  0  0  0
 10 17  1  0  0  0
M  END
> <minimizedAffinity>
-5.24454

$$$$
2JKP_CTS_A_1727


 17 18  0  0  0  0  0  0  0  0999 V2000
   22.0061   42.4583   70.4213 C   0  0  0  0  0  0  0  0  0  0  0  0
   22.1210   43.8405   71.0897 C   0  0  0  0  0  0  0  0  0  0  0  0
   22.1130   44.9077   70.0078 C   0  0  0  0  0  0  0  0  0  0  0  0
   23.3553   44.6601   69.1347 C   0  0  0  0  0  0  0  0  0  0  0  0
   23.2310   43.3650   68.3710 C   0  0  0  0  0  0  0  0  0  0  0  0
   24.5203   42.8431   67.7754 C   0  0  0  0  0  0  0  0  0  0  0  0
   20.9976   43.8884   72.0099 O   0  0  0  0  0  0  0  0  0  0  0  0
   22.1902   46.1702   70.6499 O   0  0  0  0  0  0  0  0  0  0  0  0
   23.5511   45.6398   68.1286 O   0  0  0  0  0  0  0  0  0  0  0  0
   25.6039   42.9123   68.6988 O   0  0  0  0  0  0  0  0  0  0  0  0
   22.8779   42.2759   69.2723 N   0  0  0  0  0  0  0  0  0  0  0  0
   24.1772   41.3939   67.5755 C   0  0  0  0  0  0  0  0  0  0  0  0
   23.3550   40.9855   68.7929 C   0  0  0  0  0  0  0  0  0  0  0  0
   20.1735   43.7326   71.5224 H   0  0  0  0  0  0  0  0  0  0  0  0
   22.9866   46.2038   71.2025 H   0  0  0  0  0  0  0  0  0  0  0  0
   22.8074   45.6173   67.5063 H   0  0  0  0  0  0  0  0  0  0  0  0
   25.3716   42.4285   69.5068 H   0  0  0  0  0  0  0  0  0  0  0  0
  1  2  1  0  0  0
  1 11  1  0  0  0
  2  3  1  0  0  0
  2  7  1  0  0  0
  3  4  1  0  0  0
  3  8  1  0  0  0
  4  5  1  0  0  0
  4  9  1  0  0  0
  5  6  1  0  0  0
  5 11  1  0  0  0
  6 10  1  0  0  0
  6 12  1  0  0  0
 11 13  1  0  0  0
 12 13  1  0  0  0
  7 14  1  0  0  0
  8 15  1  0  0  0
  9 16  1  0  0  0
 10 17  1  0  0  0
M  END
> <minimizedAffinity>
-5.13609

$$$$
