4U73_Q02_A_404


 16 16  0  0  0  0  0  0  0  0999 V2000
   22.9600   -4.7834   11.6382 C   0  0  0  0  0  0  0  0  0  0  0  0
   21.6930   -4.6278   12.2620 N   0  0  0  0  0  0  0  0  0  0  0  0
   20.9549   -4.7679   11.5721 H   0  0  0  0  0  0  0  0  0  0  0  0
   21.6194   -3.6884   12.6526 H   0  0  0  0  0  0  0  0  0  0  0  0
   22.8466   -2.1380   11.0561 O   0  0  0  0  0  0  0  0  0  0  0  0
   23.7464   -3.3413   10.8070 P   0  0  0  0  0  0  0  0  0  0  0  0
   24.9384   -3.1609   11.4021 O   0  0  0  0  0  0  0  0  0  0  0  0
   23.9815   -3.6118    9.3413 O   0  0  0  0  0  0  0  0  0  0  0  0
   23.2295   -1.3545   10.6314 H   0  0  0  0  0  0  0  0  0  0  0  0
   24.3956   -2.8362    8.9316 H   0  0  0  0  0  0  0  0  0  0  0  0
   23.4196   -6.1563   11.3734 C   0  0  0  0  0  0  0  0  0  0  0  0
   24.7260   -6.5038   11.6180 C   0  0  0  0  0  0  0  0  0  0  0  0
   25.1938   -7.7753   11.3448 C   0  0  0  0  0  0  0  0  0  0  0  0
   24.3950   -8.7227   10.7742 C   0  0  0  0  0  0  0  0  0  0  0  0
   23.0894   -8.3804   10.5371 C   0  0  0  0  0  0  0  0  0  0  0  0
   22.6085   -7.1065   10.8099 C   0  0  0  0  0  0  0  0  0  0  0  0
  7  6  2  0  0  0
 13 12  2  0  0  0
 13 14  1  0  0  0
 12 11  1  0  0  0
 14 15  2  0  0  0
  5  6  1  0  0  0
  6  8  1  0  0  0
  6  1  1  0  0  0
 11  1  1  0  0  0
 11 16  2  0  0  0
 15 16  1  0  0  0
  1  2  1  0  0  0
  5  9  1  0  0  0
  8 10  1  0  0  0
  2  3  1  0  0  0
  2  4  1  0  0  0
M  END
> <minimizedAffinity>
-8.28248

$$$$
4U73_Q02_A_404


 16 16  0  0  0  0  0  0  0  0999 V2000
   22.9386   -4.7990   11.6497 C   0  0  0  0  0  0  0  0  0  0  0  0
   21.6727   -4.7421   12.2924 N   0  0  0  0  0  0  0  0  0  0  0  0
   20.9357   -4.9079   11.6070 H   0  0  0  0  0  0  0  0  0  0  0  0
   21.5457   -3.8212   12.7122 H   0  0  0  0  0  0  0  0  0  0  0  0
   23.8604   -3.6226    9.3878 O   0  0  0  0  0  0  0  0  0  0  0  0
   23.6221   -3.2861   10.8539 P   0  0  0  0  0  0  0  0  0  0  0  0
   22.6771   -2.3363   10.9648 O   0  0  0  0  0  0  0  0  0  0  0  0
   24.8655   -2.8062   11.5613 O   0  0  0  0  0  0  0  0  0  0  0  0
   24.2222   -2.8463    8.9325 H   0  0  0  0  0  0  0  0  0  0  0  0
   25.2014   -2.0102   11.1204 H   0  0  0  0  0  0  0  0  0  0  0  0
   23.4797   -6.1317   11.3380 C   0  0  0  0  0  0  0  0  0  0  0  0
   22.6496   -7.1172   10.8612 C   0  0  0  0  0  0  0  0  0  0  0  0
   23.1232   -8.3878   10.5944 C   0  0  0  0  0  0  0  0  0  0  0  0
   24.4200   -8.7327   10.8405 C   0  0  0  0  0  0  0  0  0  0  0  0
   25.2513   -7.7489   11.3082 C   0  0  0  0  0  0  0  0  0  0  0  0
   24.7864   -6.4683   11.5776 C   0  0  0  0  0  0  0  0  0  0  0  0
  7  6  2  0  0  0
 13 12  2  0  0  0
 13 14  1  0  0  0
 12 11  1  0  0  0
 14 15  2  0  0  0
  5  6  1  0  0  0
  6  8  1  0  0  0
  6  1  1  0  0  0
 11  1  1  0  0  0
 11 16  2  0  0  0
 15 16  1  0  0  0
  1  2  1  0  0  0
  5  9  1  0  0  0
  8 10  1  0  0  0
  2  3  1  0  0  0
  2  4  1  0  0  0
M  END
> <minimizedAffinity>
-8.21880

$$$$
4U73_Q02_A_404


 16 16  0  0  0  0  0  0  0  0999 V2000
   23.7139   -4.6078   10.1851 C   0  0  0  0  0  0  0  0  0  0  0  0
   24.4979   -4.1388    9.0970 N   0  0  0  0  0  0  0  0  0  0  0  0
   25.4575   -3.9893    9.4088 H   0  0  0  0  0  0  0  0  0  0  0  0
   24.1112   -3.2597    8.7534 H   0  0  0  0  0  0  0  0  0  0  0  0
   24.0469   -2.8296   12.2043 O   0  0  0  0  0  0  0  0  0  0  0  0
   22.9347   -3.3964   11.3318 P   0  0  0  0  0  0  0  0  0  0  0  0
   22.4080   -2.4274   10.5630 O   0  0  0  0  0  0  0  0  0  0  0  0
   21.8214   -4.0306   12.1287 O   0  0  0  0  0  0  0  0  0  0  0  0
   23.6738   -2.1841   12.8249 H   0  0  0  0  0  0  0  0  0  0  0  0
   21.4314   -3.3698   12.7220 H   0  0  0  0  0  0  0  0  0  0  0  0
   23.8514   -6.0252   10.5565 C   0  0  0  0  0  0  0  0  0  0  0  0
   25.0623   -6.5090   10.9889 C   0  0  0  0  0  0  0  0  0  0  0  0
   25.2293   -7.8429   11.3097 C   0  0  0  0  0  0  0  0  0  0  0  0
   24.2164   -8.7449   11.1624 C   0  0  0  0  0  0  0  0  0  0  0  0
   23.0055   -8.2627   10.7391 C   0  0  0  0  0  0  0  0  0  0  0  0
   22.8262   -6.9240   10.4163 C   0  0  0  0  0  0  0  0  0  0  0  0
  7  6  2  0  0  0
 13 12  2  0  0  0
 13 14  1  0  0  0
 12 11  1  0  0  0
 14 15  2  0  0  0
  5  6  1  0  0  0
  6  8  1  0  0  0
  6  1  1  0  0  0
 11  1  1  0  0  0
 11 16  2  0  0  0
 15 16  1  0  0  0
  1  2  1  0  0  0
  5  9  1  0  0  0
  8 10  1  0  0  0
  2  3  1  0  0  0
  2  4  1  0  0  0
M  END
> <minimizedAffinity>
-7.96846

$$$$
4U73_Q02_A_404


 16 16  0  0  0  0  0  0  0  0999 V2000
   21.7751   -2.6970   11.4235 C   0  0  0  0  0  0  0  0  0  0  0  0
   22.1171   -1.5434   10.6680 N   0  0  0  0  0  0  0  0  0  0  0  0
   21.6198   -1.5604    9.7775 H   0  0  0  0  0  0  0  0  0  0  0  0
   23.1224   -1.5354   10.4959 H   0  0  0  0  0  0  0  0  0  0  0  0
   22.7167   -4.5356    9.6677 O   0  0  0  0  0  0  0  0  0  0  0  0
   22.7104   -4.2616   11.1659 P   0  0  0  0  0  0  0  0  0  0  0  0
   23.9617   -4.0345   11.6018 O   0  0  0  0  0  0  0  0  0  0  0  0
   22.1227   -5.3932   11.9726 O   0  0  0  0  0  0  0  0  0  0  0  0
   23.2028   -5.3563    9.4912 H   0  0  0  0  0  0  0  0  0  0  0  0
   22.6352   -6.2018   11.8166 H   0  0  0  0  0  0  0  0  0  0  0  0
   20.4733   -2.6945   12.1101 C   0  0  0  0  0  0  0  0  0  0  0  0
   20.4168   -2.8037   13.4785 C   0  0  0  0  0  0  0  0  0  0  0  0
   19.2075   -2.8404   14.1464 C   0  0  0  0  0  0  0  0  0  0  0  0
   18.0201   -2.8218   13.4748 C   0  0  0  0  0  0  0  0  0  0  0  0
   18.0744   -2.7046   12.1106 C   0  0  0  0  0  0  0  0  0  0  0  0
   19.2841   -2.6647   11.4296 C   0  0  0  0  0  0  0  0  0  0  0  0
  7  6  2  0  0  0
 13 12  2  0  0  0
 13 14  1  0  0  0
 12 11  1  0  0  0
 14 15  2  0  0  0
  5  6  1  0  0  0
  6  8  1  0  0  0
  6  1  1  0  0  0
 11  1  1  0  0  0
 11 16  2  0  0  0
 15 16  1  0  0  0
  1  2  1  0  0  0
  5  9  1  0  0  0
  8 10  1  0  0  0
  2  3  1  0  0  0
  2  4  1  0  0  0
M  END
> <minimizedAffinity>
-5.94329

$$$$
4U73_Q02_A_404


 16 16  0  0  0  0  0  0  0  0999 V2000
   23.2453   -5.1592   10.1262 C   0  0  0  0  0  0  0  0  0  0  0  0
   21.9658   -4.8293    9.6040 N   0  0  0  0  0  0  0  0  0  0  0  0
   21.8824   -5.1919    8.6543 H   0  0  0  0  0  0  0  0  0  0  0  0
   21.8545   -3.8155    9.5919 H   0  0  0  0  0  0  0  0  0  0  0  0
   24.2401   -2.6377   10.1753 O   0  0  0  0  0  0  0  0  0  0  0  0
   24.6750   -4.0472    9.7964 P   0  0  0  0  0  0  0  0  0  0  0  0
   25.6713   -4.4577   10.6004 O   0  0  0  0  0  0  0  0  0  0  0  0
   25.1405   -4.1591    8.3655 O   0  0  0  0  0  0  0  0  0  0  0  0
   24.9704   -2.0198   10.0148 H   0  0  0  0  0  0  0  0  0  0  0  0
   25.8925   -3.5633    8.2226 H   0  0  0  0  0  0  0  0  0  0  0  0
   23.4487   -6.5386   10.5972 C   0  0  0  0  0  0  0  0  0  0  0  0
   22.7993   -6.9842   11.7228 C   0  0  0  0  0  0  0  0  0  0  0  0
   22.9993   -8.2627   12.2082 C   0  0  0  0  0  0  0  0  0  0  0  0
   23.8863   -9.1180   11.6227 C   0  0  0  0  0  0  0  0  0  0  0  0
   24.5288   -8.6782   10.4950 C   0  0  0  0  0  0  0  0  0  0  0  0
   24.3335   -7.3964    9.9976 C   0  0  0  0  0  0  0  0  0  0  0  0
  7  6  2  0  0  0
 13 12  2  0  0  0
 13 14  1  0  0  0
 12 11  1  0  0  0
 14 15  2  0  0  0
  5  6  1  0  0  0
  6  8  1  0  0  0
  6  1  1  0  0  0
 11  1  1  0  0  0
 11 16  2  0  0  0
 15 16  1  0  0  0
  1  2  1  0  0  0
  5  9  1  0  0  0
  8 10  1  0  0  0
  2  3  1  0  0  0
  2  4  1  0  0  0
M  END
> <minimizedAffinity>
-5.60041

$$$$
4U73_Q02_A_404


 16 16  0  0  0  0  0  0  0  0999 V2000
   21.5996   -4.0025   11.9170 C   0  0  0  0  0  0  0  0  0  0  0  0
   22.0451   -5.3410   12.0859 N   0  0  0  0  0  0  0  0  0  0  0  0
   22.4914   -5.4382   12.9979 H   0  0  0  0  0  0  0  0  0  0  0  0
   22.7160   -5.5711   11.3529 H   0  0  0  0  0  0  0  0  0  0  0  0
   23.7292   -2.3893   12.3773 O   0  0  0  0  0  0  0  0  0  0  0  0
   22.7598   -2.7358   11.2549 P   0  0  0  0  0  0  0  0  0  0  0  0
   23.4174   -3.3159   10.2358 O   0  0  0  0  0  0  0  0  0  0  0  0
   22.0177   -1.5352   10.7214 O   0  0  0  0  0  0  0  0  0  0  0  0
   24.3596   -1.7213   12.0653 H   0  0  0  0  0  0  0  0  0  0  0  0
   22.6538   -0.8871   10.3805 H   0  0  0  0  0  0  0  0  0  0  0  0
   20.3591   -3.6105   12.6051 C   0  0  0  0  0  0  0  0  0  0  0  0
   19.4922   -2.7260   12.0104 C   0  0  0  0  0  0  0  0  0  0  0  0
   18.3383   -2.3126   12.6488 C   0  0  0  0  0  0  0  0  0  0  0  0
   18.0361   -2.7233   13.9142 C   0  0  0  0  0  0  0  0  0  0  0  0
   18.8953   -3.6120   14.5057 C   0  0  0  0  0  0  0  0  0  0  0  0
   20.0564   -4.0355   13.8724 C   0  0  0  0  0  0  0  0  0  0  0  0
  7  6  2  0  0  0
 13 12  2  0  0  0
 13 14  1  0  0  0
 12 11  1  0  0  0
 14 15  2  0  0  0
  5  6  1  0  0  0
  6  8  1  0  0  0
  6  1  1  0  0  0
 11  1  1  0  0  0
 11 16  2  0  0  0
 15 16  1  0  0  0
  1  2  1  0  0  0
  5  9  1  0  0  0
  8 10  1  0  0  0
  2  3  1  0  0  0
  2  4  1  0  0  0
M  END
> <minimizedAffinity>
-5.48500

$$$$
