4ZJI_4OQ_A_601


 26 29  0  0  0  0  0  0  0  0999 V2000
   10.8855   46.0891   46.0941 C   0  0  0  0  0  0  0  0  0  0  0  0
   10.3334   45.9637   47.3750 C   0  0  0  0  0  0  0  0  0  0  0  0
   10.7407   50.1465   43.3255 C   0  0  0  0  0  0  0  0  0  0  0  0
   11.1385   50.4307   44.6113 C   0  0  0  0  0  0  0  0  0  0  0  0
   11.5656   49.3983   45.4297 C   0  0  0  0  0  0  0  0  0  0  0  0
   11.6018   48.0807   44.9625 C   0  0  0  0  0  0  0  0  0  0  0  0
   10.0464   51.4029   42.3515 Cl  0  0  0  0  0  0  0  0  0  0  0  0
   10.7937   48.8673   42.8183 C   0  0  0  0  0  0  0  0  0  0  0  0
   11.9534   47.0152   45.8511 N   0  0  0  0  0  0  0  0  0  0  0  0
   11.2176   47.8168   43.6333 C   0  0  0  0  0  0  0  0  0  0  0  0
   11.1973   46.4370   43.0787 C   0  0  0  0  0  0  0  0  0  0  0  0
   10.8101   45.3771   43.6987 N   0  0  0  0  0  0  0  0  0  0  0  0
   10.3197   45.3642   45.0221 C   0  0  0  0  0  0  0  0  0  0  0  0
    9.2174   44.5347   45.2597 C   0  0  0  0  0  0  0  0  0  0  0  0
    8.7308   44.4352   46.5404 C   0  0  0  0  0  0  0  0  0  0  0  0
    7.7073   43.5709   46.7673 F   0  0  0  0  0  0  0  0  0  0  0  0
    9.2543   45.1274   47.6034 C   0  0  0  0  0  0  0  0  0  0  0  0
   12.9369   46.8924   41.3668 C   0  0  0  0  0  0  0  0  0  0  0  0
   14.0518   45.9205   41.7019 C   0  0  0  0  0  0  0  0  0  0  0  0
   14.9524   43.7143   41.3201 C   0  0  0  0  0  0  0  0  0  0  0  0
   12.5660   44.0762   41.3526 C   0  0  0  0  0  0  0  0  0  0  0  0
   11.4364   45.0423   41.0272 C   0  0  0  0  0  0  0  0  0  0  0  0
   11.6418   46.3111   41.7451 N   0  0  0  0  0  0  0  0  0  0  0  0
   13.8638   44.6509   41.0016 N   0  0  0  0  0  0  0  0  0  0  0  0
   12.8930   47.3174   46.9488 C   0  0  0  0  0  0  0  0  0  0  0  0
   13.8611   46.1608   47.2882 C   0  0  0  0  0  0  0  0  0  0  0  0
 24 20  1  0  0  0
 24 21  1  0  0  0
 24 19  1  0  0  0
 22 21  1  0  0  0
 22 23  1  0  0  0
 18 19  1  0  0  0
 18 23  1  0  0  0
 23 11  1  0  0  0
  7  3  1  0  0  0
  8  3  2  0  0  0
  8 10  1  0  0  0
 11 12  2  0  0  0
 11 10  1  0  0  0
  3  4  1  0  0  0
 12 13  1  0  0  0
 10  6  2  0  0  0
  4  5  2  0  0  0
 13 14  2  0  0  0
 13  1  1  0  0  0
  6  5  1  0  0  0
  6  9  1  0  0  0
 14 15  1  0  0  0
  9  1  1  0  0  0
  9 25  1  0  0  0
  1  2  2  0  0  0
 15 16  1  0  0  0
 15 17  2  0  0  0
 25 26  1  0  0  0
  2 17  1  0  0  0
M  END
> <minimizedAffinity>
-11.17871

$$$$
