5NW7_9C2_A_502


 24 23  0  0  0  0  0  0  0  0999 V2000
   22.0331   15.1594   10.1892 O   0  0  0  0  0  0  0  0  0  0  0  0
   20.6820   15.4855    9.8062 C   0  0  0  0  0  0  0  0  0  0  0  0
   22.6374   15.8403    9.8544 H   0  0  0  0  0  0  0  0  0  0  0  0
   20.3016   16.8684   10.2334 C   0  0  0  0  0  0  0  0  0  0  0  0
   20.2306   17.6738    9.0475 O   0  0  0  0  0  0  0  0  0  0  0  0
   21.0925   17.6711    8.6027 H   0  0  0  0  0  0  0  0  0  0  0  0
   21.3329   17.4410   11.2404 C   0  0  0  0  0  0  0  0  0  0  0  0
   20.6510   18.2494   12.2419 O   0  0  0  0  0  0  0  0  0  0  0  0
   20.5824   20.6309   13.1403 O   0  0  0  0  0  0  0  0  0  0  0  0
   18.7052   19.9148   11.6491 O   0  0  0  0  0  0  0  0  0  0  0  0
   21.0372   20.1957   10.6332 O   0  0  0  0  0  0  0  0  0  0  0  0
   20.2229   19.7899   11.9175 P   0  0  0  0  0  0  0  0  0  0  0  0
   20.0538   20.3399   13.8997 H   0  0  0  0  0  0  0  0  0  0  0  0
   20.7705   19.6324    9.8899 H   0  0  0  0  0  0  0  0  0  0  0  0
   19.7086   14.4301   10.3200 C   0  0  0  0  0  0  0  0  0  0  0  0
   20.4381   13.2050   10.2828 O   0  0  0  0  0  0  0  0  0  0  0  0
   20.7491   13.0413    9.3787 H   0  0  0  0  0  0  0  0  0  0  0  0
   17.3637   14.7380    9.8612 N   0  0  0  0  0  0  0  0  0  0  0  0
   18.5257   14.3488    9.3997 C   0  0  0  0  0  0  0  0  0  0  0  0
   18.5933   14.0138    8.2136 O   0  0  0  0  0  0  0  0  0  0  0  0
   16.1919   14.6034    9.0976 N   0  0  0  0  0  0  0  0  0  0  0  0
   17.3100   15.1328   10.7615 H   0  0  0  0  0  0  0  0  0  0  0  0
   16.4192   14.1802    8.1978 H   0  0  0  0  0  0  0  0  0  0  0  0
   15.7775   15.5230    8.9458 H   0  0  0  0  0  0  0  0  0  0  0  0
 20 19  2  0  0  0
 21 18  1  0  0  0
 19 18  1  0  0  0
 19 15  1  0  0  0
  5  4  1  0  0  0
 16 15  1  0  0  0
  2  4  1  0  0  0
  2 15  1  0  0  0
  2  1  1  0  0  0
  4  7  1  0  0  0
 10 12  2  0  0  0
  7  8  1  0  0  0
  8 12  1  0  0  0
 12  9  1  0  0  0
 12 11  1  0  0  0
  1  3  1  0  0  0
  5  6  1  0  0  0
 18 22  1  0  0  0
  9 13  1  0  0  0
 11 14  1  0  0  0
 16 17  1  0  0  0
 21 23  1  0  0  0
 21 24  1  0  0  0
M  END
> <minimizedAffinity>
-8.87908

$$$$
5NW7_9C2_A_502


 24 23  0  0  0  0  0  0  0  0999 V2000
   22.6487   15.5957   10.5973 O   0  0  0  0  0  0  0  0  0  0  0  0
   21.7715   16.3994    9.7829 C   0  0  0  0  0  0  0  0  0  0  0  0
   23.5626   15.7017   10.2899 H   0  0  0  0  0  0  0  0  0  0  0  0
   22.2121   17.8289    9.7351 C   0  0  0  0  0  0  0  0  0  0  0  0
   22.8971   18.1025   10.9664 O   0  0  0  0  0  0  0  0  0  0  0  0
   22.2962   17.9477   11.7119 H   0  0  0  0  0  0  0  0  0  0  0  0
   20.9995   18.7768    9.5441 C   0  0  0  0  0  0  0  0  0  0  0  0
   21.1635   19.9637   10.3721 O   0  0  0  0  0  0  0  0  0  0  0  0
   20.9687   19.2802   12.8172 O   0  0  0  0  0  0  0  0  0  0  0  0
   18.8390   19.6858   11.5681 O   0  0  0  0  0  0  0  0  0  0  0  0
   20.3563   21.6815   12.0817 O   0  0  0  0  0  0  0  0  0  0  0  0
   20.3048   20.1443   11.7474 P   0  0  0  0  0  0  0  0  0  0  0  0
   20.9085   18.3464   12.5618 H   0  0  0  0  0  0  0  0  0  0  0  0
   19.9225   22.1813   11.3726 H   0  0  0  0  0  0  0  0  0  0  0  0
   20.3255   16.2520   10.2443 C   0  0  0  0  0  0  0  0  0  0  0  0
   20.3788   16.3557   11.6659 O   0  0  0  0  0  0  0  0  0  0  0  0
   20.9717   15.6734   12.0178 H   0  0  0  0  0  0  0  0  0  0  0  0
   18.8812   14.8443    8.9267 N   0  0  0  0  0  0  0  0  0  0  0  0
   19.8088   14.8993    9.8493 C   0  0  0  0  0  0  0  0  0  0  0  0
   20.2579   13.8337   10.2812 O   0  0  0  0  0  0  0  0  0  0  0  0
   18.2768   13.6270    8.5700 N   0  0  0  0  0  0  0  0  0  0  0  0
   18.6017   15.6725    8.4738 H   0  0  0  0  0  0  0  0  0  0  0  0
   18.6762   12.8726    9.1283 H   0  0  0  0  0  0  0  0  0  0  0  0
   18.4424   13.4422    7.5807 H   0  0  0  0  0  0  0  0  0  0  0  0
 20 19  2  0  0  0
 21 18  1  0  0  0
 19 18  1  0  0  0
 19 15  1  0  0  0
  5  4  1  0  0  0
 16 15  1  0  0  0
  2  4  1  0  0  0
  2 15  1  0  0  0
  2  1  1  0  0  0
  4  7  1  0  0  0
 10 12  2  0  0  0
  7  8  1  0  0  0
  8 12  1  0  0  0
 12  9  1  0  0  0
 12 11  1  0  0  0
  1  3  1  0  0  0
  5  6  1  0  0  0
 18 22  1  0  0  0
  9 13  1  0  0  0
 11 14  1  0  0  0
 16 17  1  0  0  0
 21 23  1  0  0  0
 21 24  1  0  0  0
M  END
> <minimizedAffinity>
-8.62828

$$$$
5NW7_9C2_A_502


 24 23  0  0  0  0  0  0  0  0999 V2000
   22.8147   19.0860   10.2261 O   0  0  0  0  0  0  0  0  0  0  0  0
   21.6902   18.1872   10.3057 C   0  0  0  0  0  0  0  0  0  0  0  0
   23.6302   18.5740   10.1091 H   0  0  0  0  0  0  0  0  0  0  0  0
   21.6367   17.2588    9.1332 C   0  0  0  0  0  0  0  0  0  0  0  0
   20.3772   17.4740    8.4793 O   0  0  0  0  0  0  0  0  0  0  0  0
   19.6550   17.2924    9.1009 H   0  0  0  0  0  0  0  0  0  0  0  0
   21.7894   15.7834    9.5866 C   0  0  0  0  0  0  0  0  0  0  0  0
   20.6348   15.3876   10.3814 O   0  0  0  0  0  0  0  0  0  0  0  0
   18.9949   14.9800    8.4765 O   0  0  0  0  0  0  0  0  0  0  0  0
   18.3336   14.1714   10.7502 O   0  0  0  0  0  0  0  0  0  0  0  0
   20.2663   13.0010    9.5486 O   0  0  0  0  0  0  0  0  0  0  0  0
   19.5168   14.3665    9.7740 P   0  0  0  0  0  0  0  0  0  0  0  0
   18.5438   15.8160    8.6727 H   0  0  0  0  0  0  0  0  0  0  0  0
   20.5753   12.6572   10.4014 H   0  0  0  0  0  0  0  0  0  0  0  0
   20.3921   18.9661   10.4901 C   0  0  0  0  0  0  0  0  0  0  0  0
   20.4238   19.9797    9.4871 O   0  0  0  0  0  0  0  0  0  0  0  0
   21.2217   20.5199    9.5984 H   0  0  0  0  0  0  0  0  0  0  0  0
   19.5559   20.5976   12.0529 N   0  0  0  0  0  0  0  0  0  0  0  0
   20.3745   19.5954   11.8525 C   0  0  0  0  0  0  0  0  0  0  0  0
   21.0235   19.1782   12.8161 O   0  0  0  0  0  0  0  0  0  0  0  0
   19.5479   21.3028   13.2681 N   0  0  0  0  0  0  0  0  0  0  0  0
   18.9336   20.8625   11.3375 H   0  0  0  0  0  0  0  0  0  0  0  0
   20.2464   20.9055   13.8964 H   0  0  0  0  0  0  0  0  0  0  0  0
   18.6251   21.2311   13.6967 H   0  0  0  0  0  0  0  0  0  0  0  0
 20 19  2  0  0  0
 21 18  1  0  0  0
 19 18  1  0  0  0
 19 15  1  0  0  0
  5  4  1  0  0  0
 16 15  1  0  0  0
  2  4  1  0  0  0
  2 15  1  0  0  0
  2  1  1  0  0  0
  4  7  1  0  0  0
 10 12  2  0  0  0
  7  8  1  0  0  0
  8 12  1  0  0  0
 12  9  1  0  0  0
 12 11  1  0  0  0
  1  3  1  0  0  0
  5  6  1  0  0  0
 18 22  1  0  0  0
  9 13  1  0  0  0
 11 14  1  0  0  0
 16 17  1  0  0  0
 21 23  1  0  0  0
 21 24  1  0  0  0
M  END
> <minimizedAffinity>
-8.58870

$$$$
5NW7_9C2_A_502


 24 23  0  0  0  0  0  0  0  0999 V2000
   19.9650   17.7559    9.4114 O   0  0  0  0  0  0  0  0  0  0  0  0
   21.3521   18.0811    9.1902 C   0  0  0  0  0  0  0  0  0  0  0  0
   19.6927   17.0617    8.7910 H   0  0  0  0  0  0  0  0  0  0  0  0
   22.2241   16.8662    9.2498 C   0  0  0  0  0  0  0  0  0  0  0  0
   22.5305   16.4977    7.8969 O   0  0  0  0  0  0  0  0  0  0  0  0
   21.7076   16.3130    7.4178 H   0  0  0  0  0  0  0  0  0  0  0  0
   21.5131   15.7097    9.9999 C   0  0  0  0  0  0  0  0  0  0  0  0
   20.5967   15.0245    9.0987 O   0  0  0  0  0  0  0  0  0  0  0  0
   19.4828   13.4796   10.7887 O   0  0  0  0  0  0  0  0  0  0  0  0
   18.4098   13.6782    8.5371 O   0  0  0  0  0  0  0  0  0  0  0  0
   18.3481   15.6994   10.1054 O   0  0  0  0  0  0  0  0  0  0  0  0
   19.1738   14.4415    9.6436 P   0  0  0  0  0  0  0  0  0  0  0  0
   19.9909   12.7260   10.4497 H   0  0  0  0  0  0  0  0  0  0  0  0
   18.1805   16.2742    9.3422 H   0  0  0  0  0  0  0  0  0  0  0  0
   21.8082   19.1718   10.1534 C   0  0  0  0  0  0  0  0  0  0  0  0
   23.1097   18.7702   10.5770 O   0  0  0  0  0  0  0  0  0  0  0  0
   23.0610   17.8893   10.9803 H   0  0  0  0  0  0  0  0  0  0  0  0
   19.8290   19.9978   11.2507 N   0  0  0  0  0  0  0  0  0  0  0  0
   20.8796   19.2204   11.3315 C   0  0  0  0  0  0  0  0  0  0  0  0
   21.0005   18.5157   12.3378 O   0  0  0  0  0  0  0  0  0  0  0  0
   18.9644   20.1739   12.3441 N   0  0  0  0  0  0  0  0  0  0  0  0
   19.6411   20.4685   10.4066 H   0  0  0  0  0  0  0  0  0  0  0  0
   19.2981   19.6214   13.1339 H   0  0  0  0  0  0  0  0  0  0  0  0
   18.0256   19.8683   12.0879 H   0  0  0  0  0  0  0  0  0  0  0  0
 20 19  2  0  0  0
 21 18  1  0  0  0
 19 18  1  0  0  0
 19 15  1  0  0  0
  5  4  1  0  0  0
 16 15  1  0  0  0
  2  4  1  0  0  0
  2 15  1  0  0  0
  2  1  1  0  0  0
  4  7  1  0  0  0
 10 12  2  0  0  0
  7  8  1  0  0  0
  8 12  1  0  0  0
 12  9  1  0  0  0
 12 11  1  0  0  0
  1  3  1  0  0  0
  5  6  1  0  0  0
 18 22  1  0  0  0
  9 13  1  0  0  0
 11 14  1  0  0  0
 16 17  1  0  0  0
 21 23  1  0  0  0
 21 24  1  0  0  0
M  END
> <minimizedAffinity>
-8.14072

$$$$
5NW7_9C2_A_502


 24 23  0  0  0  0  0  0  0  0999 V2000
   20.7098   17.3295    8.5853 O   0  0  0  0  0  0  0  0  0  0  0  0
   22.0129   17.4137    9.1964 C   0  0  0  0  0  0  0  0  0  0  0  0
   20.6300   16.4886    8.1084 H   0  0  0  0  0  0  0  0  0  0  0  0
   22.3019   16.2226   10.0553 C   0  0  0  0  0  0  0  0  0  0  0  0
   23.7290   16.0834   10.1204 O   0  0  0  0  0  0  0  0  0  0  0  0
   24.0832   15.9622    9.2256 H   0  0  0  0  0  0  0  0  0  0  0  0
   21.6389   14.9464    9.4747 C   0  0  0  0  0  0  0  0  0  0  0  0
   20.5224   14.5411   10.3178 O   0  0  0  0  0  0  0  0  0  0  0  0
   18.8643   16.4707   10.4230 O   0  0  0  0  0  0  0  0  0  0  0  0
   17.9517   14.1590   10.7131 O   0  0  0  0  0  0  0  0  0  0  0  0
   18.8454   14.8432    8.4148 O   0  0  0  0  0  0  0  0  0  0  0  0
   19.0014   15.0184    9.9711 P   0  0  0  0  0  0  0  0  0  0  0  0
   18.9684   16.5208   11.3861 H   0  0  0  0  0  0  0  0  0  0  0  0
   18.9409   13.9059    8.1837 H   0  0  0  0  0  0  0  0  0  0  0  0
   22.1667   18.7279    9.9544 C   0  0  0  0  0  0  0  0  0  0  0  0
   22.7900   18.3728   11.1872 O   0  0  0  0  0  0  0  0  0  0  0  0
   22.2433   17.7181   11.6491 H   0  0  0  0  0  0  0  0  0  0  0  0
   20.2709   19.1063   11.3919 N   0  0  0  0  0  0  0  0  0  0  0  0
   20.8112   19.3162   10.2177 C   0  0  0  0  0  0  0  0  0  0  0  0
   20.2097   20.0496    9.4278 O   0  0  0  0  0  0  0  0  0  0  0  0
   18.9665   19.5394   11.6839 N   0  0  0  0  0  0  0  0  0  0  0  0
   20.7891   18.6356   12.0841 H   0  0  0  0  0  0  0  0  0  0  0  0
   18.5719   20.0051   10.8667 H   0  0  0  0  0  0  0  0  0  0  0  0
   18.9923   20.1918   12.4676 H   0  0  0  0  0  0  0  0  0  0  0  0
 20 19  2  0  0  0
 21 18  1  0  0  0
 19 18  1  0  0  0
 19 15  1  0  0  0
  5  4  1  0  0  0
 16 15  1  0  0  0
  2  4  1  0  0  0
  2 15  1  0  0  0
  2  1  1  0  0  0
  4  7  1  0  0  0
 10 12  2  0  0  0
  7  8  1  0  0  0
  8 12  1  0  0  0
 12  9  1  0  0  0
 12 11  1  0  0  0
  1  3  1  0  0  0
  5  6  1  0  0  0
 18 22  1  0  0  0
  9 13  1  0  0  0
 11 14  1  0  0  0
 16 17  1  0  0  0
 21 23  1  0  0  0
 21 24  1  0  0  0
M  END
> <minimizedAffinity>
-8.03804

$$$$
5NW7_9C2_A_502


 24 23  0  0  0  0  0  0  0  0999 V2000
   20.2533   19.9409    9.8407 O   0  0  0  0  0  0  0  0  0  0  0  0
   20.5477   18.5783   10.2086 C   0  0  0  0  0  0  0  0  0  0  0  0
   19.2984   20.0389    9.7007 H   0  0  0  0  0  0  0  0  0  0  0  0
   19.7340   18.1313   11.3824 C   0  0  0  0  0  0  0  0  0  0  0  0
   20.4037   18.5956   12.5638 O   0  0  0  0  0  0  0  0  0  0  0  0
   21.2980   18.2213   12.5968 H   0  0  0  0  0  0  0  0  0  0  0  0
   19.5789   16.5882   11.3942 C   0  0  0  0  0  0  0  0  0  0  0  0
   19.2845   16.1098   10.0503 O   0  0  0  0  0  0  0  0  0  0  0  0
   19.0458   13.7300   10.9240 O   0  0  0  0  0  0  0  0  0  0  0  0
   20.8784   14.1673    9.2775 O   0  0  0  0  0  0  0  0  0  0  0  0
   18.4529   14.2836    8.4696 O   0  0  0  0  0  0  0  0  0  0  0  0
   19.4295   14.5277    9.6796 P   0  0  0  0  0  0  0  0  0  0  0  0
   19.6779   13.9171   11.6356 H   0  0  0  0  0  0  0  0  0  0  0  0
   18.7418   14.8121    7.7093 H   0  0  0  0  0  0  0  0  0  0  0  0
   22.0445   18.3948   10.4354 C   0  0  0  0  0  0  0  0  0  0  0  0
   22.5607   19.7163   10.5829 O   0  0  0  0  0  0  0  0  0  0  0  0
   22.3471   20.2369    9.7928 H   0  0  0  0  0  0  0  0  0  0  0  0
   21.9041   16.9326    8.5260 N   0  0  0  0  0  0  0  0  0  0  0  0
   22.6568   17.7381    9.2327 C   0  0  0  0  0  0  0  0  0  0  0  0
   23.7980   17.9698    8.8233 O   0  0  0  0  0  0  0  0  0  0  0  0
   22.4276   16.2048    7.4441 N   0  0  0  0  0  0  0  0  0  0  0  0
   20.9522   16.8350    8.7574 H   0  0  0  0  0  0  0  0  0  0  0  0
   23.4196   16.4179    7.3391 H   0  0  0  0  0  0  0  0  0  0  0  0
   21.9325   16.4616    6.5901 H   0  0  0  0  0  0  0  0  0  0  0  0
 20 19  2  0  0  0
 21 18  1  0  0  0
 19 18  1  0  0  0
 19 15  1  0  0  0
  5  4  1  0  0  0
 16 15  1  0  0  0
  2  4  1  0  0  0
  2 15  1  0  0  0
  2  1  1  0  0  0
  4  7  1  0  0  0
 10 12  2  0  0  0
  7  8  1  0  0  0
  8 12  1  0  0  0
 12  9  1  0  0  0
 12 11  1  0  0  0
  1  3  1  0  0  0
  5  6  1  0  0  0
 18 22  1  0  0  0
  9 13  1  0  0  0
 11 14  1  0  0  0
 16 17  1  0  0  0
 21 23  1  0  0  0
 21 24  1  0  0  0
M  END
> <minimizedAffinity>
-7.78401

$$$$
5NW7_9C2_A_502


 24 23  0  0  0  0  0  0  0  0999 V2000
   20.1319   17.1459    8.8989 O   0  0  0  0  0  0  0  0  0  0  0  0
   19.8708   16.8740   10.2905 C   0  0  0  0  0  0  0  0  0  0  0  0
   20.0918   18.1025    8.7433 H   0  0  0  0  0  0  0  0  0  0  0  0
   20.7794   17.6531   11.1890 C   0  0  0  0  0  0  0  0  0  0  0  0
   19.9895   18.1114   12.2962 O   0  0  0  0  0  0  0  0  0  0  0  0
   19.2642   18.6658   11.9685 H   0  0  0  0  0  0  0  0  0  0  0  0
   21.4250   18.8413   10.4295 C   0  0  0  0  0  0  0  0  0  0  0  0
   22.8751   18.7761   10.5490 O   0  0  0  0  0  0  0  0  0  0  0  0
   23.0585   17.3753    8.4306 O   0  0  0  0  0  0  0  0  0  0  0  0
   23.7133   16.2848   10.5852 O   0  0  0  0  0  0  0  0  0  0  0  0
   25.1906   18.1601    9.6635 O   0  0  0  0  0  0  0  0  0  0  0  0
   23.7216   17.6086    9.7862 P   0  0  0  0  0  0  0  0  0  0  0  0
   22.1593   17.0370    8.5644 H   0  0  0  0  0  0  0  0  0  0  0  0
   25.5625   18.2896   10.5500 H   0  0  0  0  0  0  0  0  0  0  0  0
   19.9276   15.3750   10.5647 C   0  0  0  0  0  0  0  0  0  0  0  0
   21.2371   14.9755   10.1647 O   0  0  0  0  0  0  0  0  0  0  0  0
   21.3753   15.2069    9.2329 H   0  0  0  0  0  0  0  0  0  0  0  0
   17.6647   15.1027    9.7843 N   0  0  0  0  0  0  0  0  0  0  0  0
   18.9002   14.6728    9.7255 C   0  0  0  0  0  0  0  0  0  0  0  0
   19.1600   13.7691    8.9258 O   0  0  0  0  0  0  0  0  0  0  0  0
   16.6277   14.4405    9.1058 N   0  0  0  0  0  0  0  0  0  0  0  0
   17.4583   15.9061   10.3145 H   0  0  0  0  0  0  0  0  0  0  0  0
   17.0069   13.6348    8.6084 H   0  0  0  0  0  0  0  0  0  0  0  0
   16.1956   15.0795    8.4384 H   0  0  0  0  0  0  0  0  0  0  0  0
 20 19  2  0  0  0
 21 18  1  0  0  0
 19 18  1  0  0  0
 19 15  1  0  0  0
  5  4  1  0  0  0
 16 15  1  0  0  0
  2  4  1  0  0  0
  2 15  1  0  0  0
  2  1  1  0  0  0
  4  7  1  0  0  0
 10 12  2  0  0  0
  7  8  1  0  0  0
  8 12  1  0  0  0
 12  9  1  0  0  0
 12 11  1  0  0  0
  1  3  1  0  0  0
  5  6  1  0  0  0
 18 22  1  0  0  0
  9 13  1  0  0  0
 11 14  1  0  0  0
 16 17  1  0  0  0
 21 23  1  0  0  0
 21 24  1  0  0  0
M  END
> <minimizedAffinity>
-7.76519

$$$$
5NW7_9C2_A_502


 24 23  0  0  0  0  0  0  0  0999 V2000
   21.9720   16.3233    7.4274 O   0  0  0  0  0  0  0  0  0  0  0  0
   21.8448   16.6770    8.8193 C   0  0  0  0  0  0  0  0  0  0  0  0
   22.1220   17.1250    6.9025 H   0  0  0  0  0  0  0  0  0  0  0  0
   23.0130   17.4810    9.2974 C   0  0  0  0  0  0  0  0  0  0  0  0
   23.7248   16.6719   10.2455 O   0  0  0  0  0  0  0  0  0  0  0  0
   23.1356   16.4418   10.9809 H   0  0  0  0  0  0  0  0  0  0  0  0
   22.5443   18.8142    9.9364 C   0  0  0  0  0  0  0  0  0  0  0  0
   21.8039   18.5430   11.1610 O   0  0  0  0  0  0  0  0  0  0  0  0
   20.1350   20.2681   10.3110 O   0  0  0  0  0  0  0  0  0  0  0  0
   20.4676   20.1188   12.7864 O   0  0  0  0  0  0  0  0  0  0  0  0
   19.3121   18.1759   11.5868 O   0  0  0  0  0  0  0  0  0  0  0  0
   20.3975   19.3097   11.4705 P   0  0  0  0  0  0  0  0  0  0  0  0
   20.8307   20.9435   10.2859 H   0  0  0  0  0  0  0  0  0  0  0  0
   19.5266   17.5985   12.3361 H   0  0  0  0  0  0  0  0  0  0  0  0
   21.6079   15.4336    9.6699 C   0  0  0  0  0  0  0  0  0  0  0  0
   22.1948   14.3635    8.9317 O   0  0  0  0  0  0  0  0  0  0  0  0
   21.7892   14.3170    8.0519 H   0  0  0  0  0  0  0  0  0  0  0  0
   19.4582   14.8449    8.7556 N   0  0  0  0  0  0  0  0  0  0  0  0
   20.1325   15.2025    9.8196 C   0  0  0  0  0  0  0  0  0  0  0  0
   19.5300   15.2511   10.8959 O   0  0  0  0  0  0  0  0  0  0  0  0
   18.0607   14.7035    8.7895 N   0  0  0  0  0  0  0  0  0  0  0  0
   19.9402   14.6717    7.9148 H   0  0  0  0  0  0  0  0  0  0  0  0
   17.7199   14.9178    9.7267 H   0  0  0  0  0  0  0  0  0  0  0  0
   17.8100   13.7448    8.5475 H   0  0  0  0  0  0  0  0  0  0  0  0
 20 19  2  0  0  0
 21 18  1  0  0  0
 19 18  1  0  0  0
 19 15  1  0  0  0
  5  4  1  0  0  0
 16 15  1  0  0  0
  2  4  1  0  0  0
  2 15  1  0  0  0
  2  1  1  0  0  0
  4  7  1  0  0  0
 10 12  2  0  0  0
  7  8  1  0  0  0
  8 12  1  0  0  0
 12  9  1  0  0  0
 12 11  1  0  0  0
  1  3  1  0  0  0
  5  6  1  0  0  0
 18 22  1  0  0  0
  9 13  1  0  0  0
 11 14  1  0  0  0
 16 17  1  0  0  0
 21 23  1  0  0  0
 21 24  1  0  0  0
M  END
> <minimizedAffinity>
-7.65021

$$$$
5NW7_9C2_A_502


 24 23  0  0  0  0  0  0  0  0999 V2000
   20.4137   17.8547    8.8385 O   0  0  0  0  0  0  0  0  0  0  0  0
   20.9582   16.5713    9.2063 C   0  0  0  0  0  0  0  0  0  0  0  0
   19.4697   17.8809    9.0599 H   0  0  0  0  0  0  0  0  0  0  0  0
   20.6826   16.2409   10.6397 C   0  0  0  0  0  0  0  0  0  0  0  0
   20.1610   14.9042   10.6737 O   0  0  0  0  0  0  0  0  0  0  0  0
   19.3498   14.8600   10.1436 H   0  0  0  0  0  0  0  0  0  0  0  0
   19.6813   17.2506   11.2589 C   0  0  0  0  0  0  0  0  0  0  0  0
   20.3995   18.2321   12.0603 O   0  0  0  0  0  0  0  0  0  0  0  0
   20.6911   20.3340   10.6529 O   0  0  0  0  0  0  0  0  0  0  0  0
   20.6149   20.6204   13.1374 O   0  0  0  0  0  0  0  0  0  0  0  0
   18.4786   19.9101   11.9206 O   0  0  0  0  0  0  0  0  0  0  0  0
   20.0498   19.8211   11.9404 P   0  0  0  0  0  0  0  0  0  0  0  0
   21.6557   20.2565   10.7190 H   0  0  0  0  0  0  0  0  0  0  0  0
   18.1250   19.5730   12.7586 H   0  0  0  0  0  0  0  0  0  0  0  0
   22.4437   16.5016    8.8691 C   0  0  0  0  0  0  0  0  0  0  0  0
   22.9003   15.2865    9.4602 O   0  0  0  0  0  0  0  0  0  0  0  0
   22.7171   15.3014   10.4126 H   0  0  0  0  0  0  0  0  0  0  0  0
   24.4110   17.5157    9.8204 N   0  0  0  0  0  0  0  0  0  0  0  0
   23.1537   17.6698    9.4887 C   0  0  0  0  0  0  0  0  0  0  0  0
   22.6514   18.7882    9.6323 O   0  0  0  0  0  0  0  0  0  0  0  0
   25.1186   18.5266   10.4925 N   0  0  0  0  0  0  0  0  0  0  0  0
   24.8698   16.6745    9.5944 H   0  0  0  0  0  0  0  0  0  0  0  0
   24.5036   19.3249   10.6500 H   0  0  0  0  0  0  0  0  0  0  0  0
   25.9155   18.8177    9.9264 H   0  0  0  0  0  0  0  0  0  0  0  0
 20 19  2  0  0  0
 21 18  1  0  0  0
 19 18  1  0  0  0
 19 15  1  0  0  0
  5  4  1  0  0  0
 16 15  1  0  0  0
  2  4  1  0  0  0
  2 15  1  0  0  0
  2  1  1  0  0  0
  4  7  1  0  0  0
 10 12  2  0  0  0
  7  8  1  0  0  0
  8 12  1  0  0  0
 12  9  1  0  0  0
 12 11  1  0  0  0
  1  3  1  0  0  0
  5  6  1  0  0  0
 18 22  1  0  0  0
  9 13  1  0  0  0
 11 14  1  0  0  0
 16 17  1  0  0  0
 21 23  1  0  0  0
 21 24  1  0  0  0
M  END
> <minimizedAffinity>
-7.55758

$$$$
5NW7_9C2_A_502


 24 23  0  0  0  0  0  0  0  0999 V2000
   23.3571   17.4095    9.1150 O   0  0  0  0  0  0  0  0  0  0  0  0
   22.7689   16.5879   10.1434 C   0  0  0  0  0  0  0  0  0  0  0  0
   23.7387   16.8423    8.4268 H   0  0  0  0  0  0  0  0  0  0  0  0
   21.7873   15.6092    9.5791 C   0  0  0  0  0  0  0  0  0  0  0  0
   22.5391   14.6274    8.8504 O   0  0  0  0  0  0  0  0  0  0  0  0
   23.0416   15.0634    8.1445 H   0  0  0  0  0  0  0  0  0  0  0  0
   20.7577   16.3216    8.6638 C   0  0  0  0  0  0  0  0  0  0  0  0
   19.7134   15.3855    8.2708 O   0  0  0  0  0  0  0  0  0  0  0  0
   17.6186   14.1033    8.9429 O   0  0  0  0  0  0  0  0  0  0  0  0
   19.0843   14.9496   10.7858 O   0  0  0  0  0  0  0  0  0  0  0  0
   19.9566   13.0592    9.2977 O   0  0  0  0  0  0  0  0  0  0  0  0
   19.0663   14.3557    9.3582 P   0  0  0  0  0  0  0  0  0  0  0  0
   17.1172   14.9317    8.9984 H   0  0  0  0  0  0  0  0  0  0  0  0
   20.8620   13.2757    9.5702 H   0  0  0  0  0  0  0  0  0  0  0  0
   22.1601   17.4547   11.2405 C   0  0  0  0  0  0  0  0  0  0  0  0
   21.0153   16.7322   11.6898 O   0  0  0  0  0  0  0  0  0  0  0  0
   20.4185   16.5742   10.9416 H   0  0  0  0  0  0  0  0  0  0  0  0
   20.4775   18.9235   10.3375 N   0  0  0  0  0  0  0  0  0  0  0  0
   21.7375   18.7731   10.6609 C   0  0  0  0  0  0  0  0  0  0  0  0
   22.4843   19.7489   10.5438 O   0  0  0  0  0  0  0  0  0  0  0  0
   20.0207   20.0899    9.7010 N   0  0  0  0  0  0  0  0  0  0  0  0
   19.8374   18.2047   10.5444 H   0  0  0  0  0  0  0  0  0  0  0  0
   20.8031   20.7289    9.5599 H   0  0  0  0  0  0  0  0  0  0  0  0
   19.3144   20.5404   10.2830 H   0  0  0  0  0  0  0  0  0  0  0  0
 20 19  2  0  0  0
 21 18  1  0  0  0
 19 18  1  0  0  0
 19 15  1  0  0  0
  5  4  1  0  0  0
 16 15  1  0  0  0
  2  4  1  0  0  0
  2 15  1  0  0  0
  2  1  1  0  0  0
  4  7  1  0  0  0
 10 12  2  0  0  0
  7  8  1  0  0  0
  8 12  1  0  0  0
 12  9  1  0  0  0
 12 11  1  0  0  0
  1  3  1  0  0  0
  5  6  1  0  0  0
 18 22  1  0  0  0
  9 13  1  0  0  0
 11 14  1  0  0  0
 16 17  1  0  0  0
 21 23  1  0  0  0
 21 24  1  0  0  0
M  END
> <minimizedAffinity>
-7.38986

$$$$
