4MGD_27N_A_601
  RCSB PDB12061713443D
Coordinates from PDB:4MGD:A:601 Model:1 without hydrogens
 19 20  0  0  0  0            999 V2000
   -3.0630   -3.7320   20.0770   C 0  0  0  0  0  0  0  0  0  0  0  0
   -1.7890   -3.4240   19.5820   C 0  0  0  0  0  0  0  0  0  0  0  0
   -0.8000   -2.9620   20.4490   C 0  0  0  0  0  0  0  0  0  0  0  0
    0.4310   -2.6520   19.9840   O 0  0  0  0  0  0  0  0  0  0  0  0
   -1.0710   -2.7950   21.7980   C 0  0  0  0  0  0  0  0  0  0  0  0
   -2.3320   -3.1150   22.2870   C 0  0  0  0  0  0  0  0  0  0  0  0
   -3.3480   -3.5670   21.4400   C 0  0  0  0  0  0  0  0  0  0  0  0
   -4.6120   -3.9110   22.0120   C 0  0  0  0  0  0  0  0  0  0  0  0
   -5.5630   -2.7460   22.4240   C 0  0  0  0  0  0  0  0  0  0  0  0
   -6.0420   -1.7470   21.0650  Cl 0  0  0  0  0  0  0  0  0  0  0  0
   -7.0190   -3.4940   23.1790  Cl 0  0  0  0  0  0  0  0  0  0  0  0
   -4.8160   -1.6890   23.6260  Cl 0  0  0  0  0  0  0  0  0  0  0  0
   -5.2740   -4.9610   21.2970   C 0  0  0  0  0  0  0  0  0  0  0  0
   -4.8280   -6.2730   21.4750   C 0  0  0  0  0  0  0  0  0  0  0  0
   -5.4570   -7.3200   20.7980   C 0  0  0  0  0  0  0  0  0  0  0  0
   -6.5320   -7.0720   19.9410   C 0  0  0  0  0  0  0  0  0  0  0  0
   -7.1410   -8.1060   19.2840   O 0  0  0  0  0  0  0  0  0  0  0  0
   -6.9880   -5.7680   19.7620   C 0  0  0  0  0  0  0  0  0  0  0  0
   -6.3560   -4.7210   20.4340   C 0  0  0  0  0  0  0  0  0  0  0  0
 10  9  1  0  0  0  0
 11  9  1  0  0  0  0
  9 12  1  0  0  0  0
  9  8  1  0  0  0  0
 15 14  2  0  0  0  0
 15 16  1  0  0  0  0
 17 16  1  0  0  0  0
 14 13  1  0  0  0  0
 16 18  2  0  0  0  0
 13  8  1  0  0  0  0
 13 19  2  0  0  0  0
 18 19  1  0  0  0  0
  8  7  1  0  0  0  0
  7  1  2  0  0  0  0
  7  6  1  0  0  0  0
  1  2  1  0  0  0  0
  2  3  2  0  0  0  0
  6  5  2  0  0  0  0
  3  5  1  0  0  0  0
  3  4  1  0  0  0  0
A    1
CAJ
A    2
CAF
A    3
CAN
A    4
OAA
A    5
CAG
A    6
CAK
A    7
CAP
A    8
CAR
A    9
CAS
A   10
CLD
A   11
CLE
A   12
CLC
A   13
CAQ
A   14
CAL
A   15
CAH
A   16
CAO
A   17
OAB
A   18
CAI
A   19
CAM
M  END
>  <InstanceId>
4MGD_27N_A_601

>  <ChemCompId>
27N

>  <PdbId>
4MGD

>  <ChainId>
A

>  <ResidueNumber>
601

>  <InsertionCode>


>  <Model>
1

>  <AltIds>


>  <MissingHeavyAtoms>
0

>  <ObservedFormula>
C14 O2 Cl3

>  <Name>
4,4'-(2,2,2-trichloroethane-1,1-diyl)diphenol

>  <SystematicName>
4-[2,2,2-tris(chloranyl)-1-(4-hydroxyphenyl)ethyl]phenol

>  <Synonyms>


>  <Type>
NON-POLYMER

>  <Formula>
C14 H11 Cl3 O2

>  <MolecularWeight>
317.595

>  <ModifiedDate>
2014-08-29

>  <Parent>


>  <OneLetterCode>


>  <SubcomponentList>


>  <AmbiguousFlag>
N

>  <InChI>
InChI=1S/C14H11Cl3O2/c15-14(16,17)13(9-1-5-11(18)6-2-9)10-3-7-12(19)8-4-10/h1-8,13,18-19H

>  <InChIKey>
IUGDILGOLSSKNE-UHFFFAOYSA-N

>  <SMILES>
c1cc(ccc1C(c2ccc(cc2)O)C(Cl)(Cl)Cl)O

$$$$
