1GVW_0EM_A_401


 53 54  0  0  0  0  0  0  0  0999 V2000
    4.2764   33.0378   15.7312 C   0  0  0  0  0  0  0  0  0  0  0  0
    4.1562   34.6241   13.8318 C   0  0  0  0  0  0  0  0  0  0  0  0
    5.2853   34.3218   13.3375 O   0  0  0  0  0  0  0  0  0  0  0  0
    3.6230   34.1273   14.9757 N   0  0  0  0  0  0  0  0  0  0  0  0
    2.7773   34.5027   15.3121 H   0  0  0  0  0  0  0  0  0  0  0  0
    3.2862   35.6082   13.0098 C   0  0  0  0  0  0  0  0  0  0  0  0
    2.7317   38.4404   13.5573 O   0  0  0  0  0  0  0  0  0  0  0  0
    3.7683   38.0460   13.0218 C   0  0  0  0  0  0  0  0  0  0  0  0
    4.1178   36.8028   12.6599 N   0  0  0  0  0  0  0  0  0  0  0  0
    4.9482   36.6715   12.1475 H   0  0  0  0  0  0  0  0  0  0  0  0
    4.8259   38.9403   12.6727 O   0  0  0  0  0  0  0  0  0  0  0  0
    4.7013   40.1347   11.8777 C   0  0  0  0  0  0  0  0  0  0  0  0
    3.8075   39.9179   10.6597 C   0  0  0  0  0  0  0  0  0  0  0  0
    6.1127   40.4113   11.3371 C   0  0  0  0  0  0  0  0  0  0  0  0
    4.2718   41.2631   12.8155 C   0  0  0  0  0  0  0  0  0  0  0  0
    2.7001   34.9654   11.7663 C   0  0  0  0  0  0  0  0  0  0  0  0
    1.3008   35.2243   11.2887 C   0  0  0  0  0  0  0  0  0  0  0  0
    0.5547   34.2971   10.5722 C   0  0  0  0  0  0  0  0  0  0  0  0
    0.6458   36.4313   11.5695 C   0  0  0  0  0  0  0  0  0  0  0  0
   -0.7282   34.5156   10.1407 C   0  0  0  0  0  0  0  0  0  0  0  0
   -0.6311   36.6719   11.1045 C   0  0  0  0  0  0  0  0  0  0  0  0
   -1.3419   35.7279   10.3823 C   0  0  0  0  0  0  0  0  0  0  0  0
    3.1625   32.2971   16.4894 C   0  0  0  0  0  0  0  0  0  0  0  0
    2.2557   32.9762   17.0011 O   0  0  0  0  0  0  0  0  0  0  0  0
    3.2620   30.9660   16.5897 N   0  0  0  0  0  0  0  0  0  0  0  0
    4.0712   30.5612   16.2017 H   0  0  0  0  0  0  0  0  0  0  0  0
    2.3185   30.0480   17.2028 C   0  0  0  0  0  0  0  0  0  0  0  0
    3.1759   28.6773   18.0472 P   0  0  0  0  0  0  0  0  0  0  0  0
    2.7367   27.4376   17.3801 O   0  0  0  0  0  0  0  0  0  0  0  0
    2.8796   28.7279   19.5401 O   0  0  0  0  0  0  0  0  0  0  0  0
    1.9269   28.6168   19.6846 H   0  0  0  0  0  0  0  0  0  0  0  0
    4.9575   28.8932   17.9164 C   0  0  0  0  0  0  0  0  0  0  0  0
    5.6631   28.9696   19.2540 C   0  0  0  0  0  0  0  0  0  0  0  0
    6.0430   27.9209   19.7748 O   0  0  0  0  0  0  0  0  0  0  0  0
    5.8601   30.1894   19.8192 N   0  0  0  0  0  0  0  0  0  0  0  0
    5.4227   30.9907   19.4506 H   0  0  0  0  0  0  0  0  0  0  0  0
    6.7293   30.2864   20.9782 C   0  0  0  0  0  0  0  0  0  0  0  0
    7.6271   31.4890   21.0623 C   0  0  0  0  0  0  0  0  0  0  0  0
    6.9730   32.5030   21.9731 C   0  0  0  0  0  0  0  0  0  0  0  0
    9.0409   31.1324   21.5549 C   0  0  0  0  0  0  0  0  0  0  0  0
    9.1094   31.1852   23.0427 C   0  0  0  0  0  0  0  0  0  0  0  0
    1.1841   29.5250   16.2561 C   0  0  0  0  0  0  0  0  0  0  0  0
    0.0128   30.4908   15.9392 C   0  0  0  0  0  0  0  0  0  0  0  0
   -0.9685   29.7891   14.9620 C   0  0  0  0  0  0  0  0  0  0  0  0
   -0.6811   31.0383   17.1732 C   0  0  0  0  0  0  0  0  0  0  0  0
    5.3561   33.4302   16.7358 C   0  0  0  0  0  0  0  0  0  0  0  0
    6.7075   32.7937   16.5455 C   0  0  0  0  0  0  0  0  0  0  0  0
    7.2767   32.5316   15.2735 N   0  0  0  0  0  0  0  0  0  0  0  0
    7.6222   32.3202   17.4340 C   0  0  0  0  0  0  0  0  0  0  0  0
    8.4655   31.9584   15.4186 C   0  0  0  0  0  0  0  0  0  0  0  0
    8.7024   31.8241   16.7375 N   0  0  0  0  0  0  0  0  0  0  0  0
    6.8530   32.7433   14.4105 H   0  0  0  0  0  0  0  0  0  0  0  0
    9.5135   31.4354   17.1378 H   0  0  0  0  0  0  0  0  0  0  0  0
  7  8  2  0  0  0
  8 11  1  0  0  0
 11 12  1  0  0  0
 12 13  1  0  0  0
 12 14  1  0  0  0
 12 15  1  0  0  0
  9  6  1  0  0  0
  6  2  1  0  0  0
  6 16  1  0  0  0
  2  3  2  0  0  0
 16 17  1  0  0  0
 17 18  2  0  0  0
 17 19  1  0  0  0
 18 20  1  0  0  0
 19 21  2  0  0  0
 20 22  2  0  0  0
 21 22  1  0  0  0
  4  1  1  0  0  0
  1 23  1  0  0  0
  1 46  1  0  0  0
 23 24  2  0  0  0
 46 47  1  0  0  0
 47 48  1  0  0  0
 47 49  2  0  0  0
 48 50  2  0  0  0
 49 51  1  0  0  0
 50 51  1  0  0  0
 25 27  1  0  0  0
 27 42  1  0  0  0
 27 28  1  0  0  0
 42 43  1  0  0  0
 43 44  1  0  0  0
 43 45  1  0  0  0
 28 29  2  0  0  0
 28 30  1  0  0  0
 28 32  1  0  0  0
 32 33  1  0  0  0
 33 34  2  0  0  0
 35 37  1  0  0  0
 37 38  1  0  0  0
 38 40  1  0  0  0
 38 39  1  0  0  0
 40 41  1  0  0  0
  8  9  1  0  0  0
  2  4  1  0  0  0
 23 25  1  0  0  0
 33 35  1  0  0  0
  9 10  1  0  0  0
  4  5  1  0  0  0
 48 52  1  0  0  0
 51 53  1  0  0  0
 25 26  1  0  0  0
 30 31  1  0  0  0
 35 36  1  0  0  0
M  CHG 1  48   1
M  END
> <minimizedAffinity>
-9.29564

$$$$
1GVW_0EM_A_401


 53 54  0  0  0  0  0  0  0  0999 V2000
    2.4181   30.6927   16.3817 C   0  0  0  0  0  0  0  0  0  0  0  0
    3.4971   28.8647   17.6595 C   0  0  0  0  0  0  0  0  0  0  0  0
    3.4455   28.0055   16.7270 O   0  0  0  0  0  0  0  0  0  0  0  0
    2.9929   30.1232   17.6186 N   0  0  0  0  0  0  0  0  0  0  0  0
    3.0103   30.6726   18.4354 H   0  0  0  0  0  0  0  0  0  0  0  0
    4.2658   28.4472   18.9385 C   0  0  0  0  0  0  0  0  0  0  0  0
    1.6956   27.8767   20.2413 O   0  0  0  0  0  0  0  0  0  0  0  0
    2.5095   27.0026   19.9404 C   0  0  0  0  0  0  0  0  0  0  0  0
    3.7333   27.1287   19.4065 N   0  0  0  0  0  0  0  0  0  0  0  0
    4.2998   26.3283   19.3195 H   0  0  0  0  0  0  0  0  0  0  0  0
    2.2403   25.6155   20.1493 O   0  0  0  0  0  0  0  0  0  0  0  0
    1.2247   24.8378   19.4876 C   0  0  0  0  0  0  0  0  0  0  0  0
   -0.1018   24.8730   20.2416 C   0  0  0  0  0  0  0  0  0  0  0  0
    1.7214   23.3851   19.5497 C   0  0  0  0  0  0  0  0  0  0  0  0
    1.1669   25.3072   18.0338 C   0  0  0  0  0  0  0  0  0  0  0  0
    5.7662   28.3856   18.7199 C   0  0  0  0  0  0  0  0  0  0  0  0
    6.7188   29.4114   19.2619 C   0  0  0  0  0  0  0  0  0  0  0  0
    6.3064   30.5818   19.8863 C   0  0  0  0  0  0  0  0  0  0  0  0
    8.1065   29.2275   19.1912 C   0  0  0  0  0  0  0  0  0  0  0  0
    7.1651   31.5209   20.3966 C   0  0  0  0  0  0  0  0  0  0  0  0
    8.9759   30.1873   19.6681 C   0  0  0  0  0  0  0  0  0  0  0  0
    8.5290   31.3492   20.2753 C   0  0  0  0  0  0  0  0  0  0  0  0
    3.0231   32.0969   16.2200 C   0  0  0  0  0  0  0  0  0  0  0  0
    2.4560   33.0445   16.7909 O   0  0  0  0  0  0  0  0  0  0  0  0
    4.1009   32.2196   15.4358 N   0  0  0  0  0  0  0  0  0  0  0  0
    4.4039   31.3991   14.9838 H   0  0  0  0  0  0  0  0  0  0  0  0
    4.8766   33.4187   15.1724 C   0  0  0  0  0  0  0  0  0  0  0  0
    4.4123   34.1756   13.5792 P   0  0  0  0  0  0  0  0  0  0  0  0
    3.8937   33.0834   12.7347 O   0  0  0  0  0  0  0  0  0  0  0  0
    5.6091   34.9117   12.9918 O   0  0  0  0  0  0  0  0  0  0  0  0
    6.3261   34.2804   12.8235 H   0  0  0  0  0  0  0  0  0  0  0  0
    3.1652   35.4458   13.8424 C   0  0  0  0  0  0  0  0  0  0  0  0
    2.7654   36.1799   12.5798 C   0  0  0  0  0  0  0  0  0  0  0  0
    1.8541   35.7134   11.8964 O   0  0  0  0  0  0  0  0  0  0  0  0
    3.4173   37.3279   12.2583 N   0  0  0  0  0  0  0  0  0  0  0  0
    4.2302   37.5972   12.7441 H   0  0  0  0  0  0  0  0  0  0  0  0
    2.8899   38.1492   11.1834 C   0  0  0  0  0  0  0  0  0  0  0  0
    3.7630   39.2656   10.6827 C   0  0  0  0  0  0  0  0  0  0  0  0
    2.8693   40.4059   10.2509 C   0  0  0  0  0  0  0  0  0  0  0  0
    4.7837   39.7300   11.7368 C   0  0  0  0  0  0  0  0  0  0  0  0
    5.8392   40.5759   11.1112 C   0  0  0  0  0  0  0  0  0  0  0  0
    6.4296   33.2517   15.3027 C   0  0  0  0  0  0  0  0  0  0  0  0
    6.9860   32.7604   16.6644 C   0  0  0  0  0  0  0  0  0  0  0  0
    8.2320   31.8704   16.4080 C   0  0  0  0  0  0  0  0  0  0  0  0
    7.2586   33.8783   17.6544 C   0  0  0  0  0  0  0  0  0  0  0  0
    0.8989   30.8176   16.3069 C   0  0  0  0  0  0  0  0  0  0  0  0
    0.1101   29.9299   17.2329 C   0  0  0  0  0  0  0  0  0  0  0  0
   -0.5928   30.4103   18.3669 N   0  0  0  0  0  0  0  0  0  0  0  0
   -0.0877   28.5843   17.2523 C   0  0  0  0  0  0  0  0  0  0  0  0
   -1.1834   29.4006   18.9950 C   0  0  0  0  0  0  0  0  0  0  0  0
   -0.8928   28.2691   18.3250 N   0  0  0  0  0  0  0  0  0  0  0  0
   -0.6363   31.3531   18.6470 H   0  0  0  0  0  0  0  0  0  0  0  0
   -1.2042   27.3659   18.5625 H   0  0  0  0  0  0  0  0  0  0  0  0
  7  8  2  0  0  0
  8 11  1  0  0  0
 11 12  1  0  0  0
 12 13  1  0  0  0
 12 14  1  0  0  0
 12 15  1  0  0  0
  9  6  1  0  0  0
  6  2  1  0  0  0
  6 16  1  0  0  0
  2  3  2  0  0  0
 16 17  1  0  0  0
 17 18  2  0  0  0
 17 19  1  0  0  0
 18 20  1  0  0  0
 19 21  2  0  0  0
 20 22  2  0  0  0
 21 22  1  0  0  0
  4  1  1  0  0  0
  1 23  1  0  0  0
  1 46  1  0  0  0
 23 24  2  0  0  0
 46 47  1  0  0  0
 47 48  1  0  0  0
 47 49  2  0  0  0
 48 50  2  0  0  0
 49 51  1  0  0  0
 50 51  1  0  0  0
 25 27  1  0  0  0
 27 42  1  0  0  0
 27 28  1  0  0  0
 42 43  1  0  0  0
 43 44  1  0  0  0
 43 45  1  0  0  0
 28 29  2  0  0  0
 28 30  1  0  0  0
 28 32  1  0  0  0
 32 33  1  0  0  0
 33 34  2  0  0  0
 35 37  1  0  0  0
 37 38  1  0  0  0
 38 40  1  0  0  0
 38 39  1  0  0  0
 40 41  1  0  0  0
  8  9  1  0  0  0
  2  4  1  0  0  0
 23 25  1  0  0  0
 33 35  1  0  0  0
  9 10  1  0  0  0
  4  5  1  0  0  0
 48 52  1  0  0  0
 51 53  1  0  0  0
 25 26  1  0  0  0
 30 31  1  0  0  0
 35 36  1  0  0  0
M  CHG 1  48   1
M  END
> <minimizedAffinity>
-8.99647

$$$$
1GVW_0EM_A_401


 53 54  0  0  0  0  0  0  0  0999 V2000
    4.1138   32.8661   15.6052 C   0  0  0  0  0  0  0  0  0  0  0  0
    4.3984   34.4512   13.7224 C   0  0  0  0  0  0  0  0  0  0  0  0
    5.5164   33.9932   13.3340 O   0  0  0  0  0  0  0  0  0  0  0  0
    3.6940   34.0353   14.8043 N   0  0  0  0  0  0  0  0  0  0  0  0
    2.8807   34.5258   15.0634 H   0  0  0  0  0  0  0  0  0  0  0  0
    3.7568   35.5462   12.8334 C   0  0  0  0  0  0  0  0  0  0  0  0
    2.4976   34.2489   10.5182 O   0  0  0  0  0  0  0  0  0  0  0  0
    1.8795   34.5618   11.5365 C   0  0  0  0  0  0  0  0  0  0  0  0
    2.3128   35.2091   12.6283 N   0  0  0  0  0  0  0  0  0  0  0  0
    1.6600   35.4712   13.3171 H   0  0  0  0  0  0  0  0  0  0  0  0
    0.4928   34.2612   11.7010 O   0  0  0  0  0  0  0  0  0  0  0  0
   -0.6107   35.0413   11.2032 C   0  0  0  0  0  0  0  0  0  0  0  0
   -0.4187   36.5325   11.4656 C   0  0  0  0  0  0  0  0  0  0  0  0
   -1.8246   34.6059   12.0386 C   0  0  0  0  0  0  0  0  0  0  0  0
   -0.8190   34.6530    9.7393 C   0  0  0  0  0  0  0  0  0  0  0  0
    3.9169   36.9370   13.4191 C   0  0  0  0  0  0  0  0  0  0  0  0
    3.9888   38.1793   12.5796 C   0  0  0  0  0  0  0  0  0  0  0  0
    4.8015   39.2630   12.8875 C   0  0  0  0  0  0  0  0  0  0  0  0
    3.2448   38.3055   11.3984 C   0  0  0  0  0  0  0  0  0  0  0  0
    4.8861   40.3982   12.1234 C   0  0  0  0  0  0  0  0  0  0  0  0
    3.2963   39.4613   10.6460 C   0  0  0  0  0  0  0  0  0  0  0  0
    4.1102   40.5279   10.9896 C   0  0  0  0  0  0  0  0  0  0  0  0
    2.8305   32.2337   16.1687 C   0  0  0  0  0  0  0  0  0  0  0  0
    1.9857   32.9886   16.6804 O   0  0  0  0  0  0  0  0  0  0  0  0
    2.7218   30.9008   16.1131 N   0  0  0  0  0  0  0  0  0  0  0  0
    3.4982   30.4172   15.7490 H   0  0  0  0  0  0  0  0  0  0  0  0
    1.5950   30.0830   16.5260 C   0  0  0  0  0  0  0  0  0  0  0  0
    2.1386   28.4356   17.0893 P   0  0  0  0  0  0  0  0  0  0  0  0
    3.5912   28.3698   16.8431 O   0  0  0  0  0  0  0  0  0  0  0  0
    1.3302   27.3574   16.3800 O   0  0  0  0  0  0  0  0  0  0  0  0
    1.4872   27.4117   15.4243 H   0  0  0  0  0  0  0  0  0  0  0  0
    1.7625   28.2285   18.8368 C   0  0  0  0  0  0  0  0  0  0  0  0
    0.9408   26.9940   19.1423 C   0  0  0  0  0  0  0  0  0  0  0  0
   -0.1650   27.1421   19.6624 O   0  0  0  0  0  0  0  0  0  0  0  0
    1.4487   25.7757   18.8198 N   0  0  0  0  0  0  0  0  0  0  0  0
    2.3873   25.6811   18.5381 H   0  0  0  0  0  0  0  0  0  0  0  0
    0.5783   24.6163   18.8993 C   0  0  0  0  0  0  0  0  0  0  0  0
    1.1255   23.3945   19.5826 C   0  0  0  0  0  0  0  0  0  0  0  0
    2.4885   23.7366   20.1401 C   0  0  0  0  0  0  0  0  0  0  0  0
    0.1903   22.8715   20.6873 C   0  0  0  0  0  0  0  0  0  0  0  0
   -0.9828   23.7751   20.8559 C   0  0  0  0  0  0  0  0  0  0  0  0
    0.4263   29.9823   15.4863 C   0  0  0  0  0  0  0  0  0  0  0  0
   -0.9145   30.6739   15.8458 C   0  0  0  0  0  0  0  0  0  0  0  0
   -1.1499   31.8559   14.8672 C   0  0  0  0  0  0  0  0  0  0  0  0
   -2.0962   29.7235   15.9110 C   0  0  0  0  0  0  0  0  0  0  0  0
    5.0698   33.1187   16.7676 C   0  0  0  0  0  0  0  0  0  0  0  0
    6.4704   32.5895   16.6066 C   0  0  0  0  0  0  0  0  0  0  0  0
    7.1766   32.6064   15.3771 N   0  0  0  0  0  0  0  0  0  0  0  0
    7.3215   31.9899   17.4819 C   0  0  0  0  0  0  0  0  0  0  0  0
    8.3789   32.0666   15.5377 C   0  0  0  0  0  0  0  0  0  0  0  0
    8.4936   31.6861   16.8245 N   0  0  0  0  0  0  0  0  0  0  0  0
    6.8270   32.9653   14.5296 H   0  0  0  0  0  0  0  0  0  0  0  0
    9.2843   31.2610   17.2286 H   0  0  0  0  0  0  0  0  0  0  0  0
  7  8  2  0  0  0
  8 11  1  0  0  0
 11 12  1  0  0  0
 12 13  1  0  0  0
 12 14  1  0  0  0
 12 15  1  0  0  0
  9  6  1  0  0  0
  6  2  1  0  0  0
  6 16  1  0  0  0
  2  3  2  0  0  0
 16 17  1  0  0  0
 17 18  2  0  0  0
 17 19  1  0  0  0
 18 20  1  0  0  0
 19 21  2  0  0  0
 20 22  2  0  0  0
 21 22  1  0  0  0
  4  1  1  0  0  0
  1 23  1  0  0  0
  1 46  1  0  0  0
 23 24  2  0  0  0
 46 47  1  0  0  0
 47 48  1  0  0  0
 47 49  2  0  0  0
 48 50  2  0  0  0
 49 51  1  0  0  0
 50 51  1  0  0  0
 25 27  1  0  0  0
 27 42  1  0  0  0
 27 28  1  0  0  0
 42 43  1  0  0  0
 43 44  1  0  0  0
 43 45  1  0  0  0
 28 29  2  0  0  0
 28 30  1  0  0  0
 28 32  1  0  0  0
 32 33  1  0  0  0
 33 34  2  0  0  0
 35 37  1  0  0  0
 37 38  1  0  0  0
 38 40  1  0  0  0
 38 39  1  0  0  0
 40 41  1  0  0  0
  8  9  1  0  0  0
  2  4  1  0  0  0
 23 25  1  0  0  0
 33 35  1  0  0  0
  9 10  1  0  0  0
  4  5  1  0  0  0
 48 52  1  0  0  0
 51 53  1  0  0  0
 25 26  1  0  0  0
 30 31  1  0  0  0
 35 36  1  0  0  0
M  CHG 1  48   1
M  END
> <minimizedAffinity>
-8.96110

$$$$
1GVW_0EM_A_401


 53 54  0  0  0  0  0  0  0  0999 V2000
    4.2503   32.8951   15.6861 C   0  0  0  0  0  0  0  0  0  0  0  0
    4.4509   34.4493   13.7671 C   0  0  0  0  0  0  0  0  0  0  0  0
    5.5872   34.0353   13.3821 O   0  0  0  0  0  0  0  0  0  0  0  0
    3.7723   34.0253   14.8623 N   0  0  0  0  0  0  0  0  0  0  0  0
    2.9382   34.4830   15.1154 H   0  0  0  0  0  0  0  0  0  0  0  0
    3.7545   35.4931   12.8582 C   0  0  0  0  0  0  0  0  0  0  0  0
    2.5685   34.3158   10.4424 O   0  0  0  0  0  0  0  0  0  0  0  0
    1.9424   34.4837   11.4896 C   0  0  0  0  0  0  0  0  0  0  0  0
    2.3388   35.0613   12.6332 N   0  0  0  0  0  0  0  0  0  0  0  0
    1.6774   35.2061   13.3479 H   0  0  0  0  0  0  0  0  0  0  0  0
    0.5865   34.0590   11.6356 O   0  0  0  0  0  0  0  0  0  0  0  0
   -0.5854   34.8296   11.3088 C   0  0  0  0  0  0  0  0  0  0  0  0
   -0.4738   36.2714   11.7970 C   0  0  0  0  0  0  0  0  0  0  0  0
   -1.7293   34.1874   12.1087 C   0  0  0  0  0  0  0  0  0  0  0  0
   -0.8381   34.6608    9.8105 C   0  0  0  0  0  0  0  0  0  0  0  0
    3.8144   36.8960   13.4336 C   0  0  0  0  0  0  0  0  0  0  0  0
    3.9339   38.1283   12.5848 C   0  0  0  0  0  0  0  0  0  0  0  0
    3.2069   38.3249   11.4175 C   0  0  0  0  0  0  0  0  0  0  0  0
    4.7830   39.1833   12.9460 C   0  0  0  0  0  0  0  0  0  0  0  0
    3.2971   39.4503   10.6396 C   0  0  0  0  0  0  0  0  0  0  0  0
    4.9070   40.3015   12.1468 C   0  0  0  0  0  0  0  0  0  0  0  0
    4.1743   40.4591   10.9821 C   0  0  0  0  0  0  0  0  0  0  0  0
    3.0044   32.2497   16.3150 C   0  0  0  0  0  0  0  0  0  0  0  0
    2.0854   32.9995   16.6872 O   0  0  0  0  0  0  0  0  0  0  0  0
    3.0051   30.9194   16.4636 N   0  0  0  0  0  0  0  0  0  0  0  0
    3.8293   30.4534   16.1939 H   0  0  0  0  0  0  0  0  0  0  0  0
    1.9348   30.0818   16.9753 C   0  0  0  0  0  0  0  0  0  0  0  0
    2.5737   28.4903   17.5965 P   0  0  0  0  0  0  0  0  0  0  0  0
    1.9989   27.4442   16.7304 O   0  0  0  0  0  0  0  0  0  0  0  0
    2.2342   28.3417   19.0736 O   0  0  0  0  0  0  0  0  0  0  0  0
    1.2706   28.3393   19.1852 H   0  0  0  0  0  0  0  0  0  0  0  0
    4.3718   28.4805   17.5268 C   0  0  0  0  0  0  0  0  0  0  0  0
    5.0353   28.4324   18.8870 C   0  0  0  0  0  0  0  0  0  0  0  0
    5.3452   27.3336   19.3473 O   0  0  0  0  0  0  0  0  0  0  0  0
    5.2737   29.6007   19.5385 N   0  0  0  0  0  0  0  0  0  0  0  0
    4.8891   30.4459   19.2116 H   0  0  0  0  0  0  0  0  0  0  0  0
    6.1076   29.5764   20.7269 C   0  0  0  0  0  0  0  0  0  0  0  0
    6.9960   30.7653   20.9647 C   0  0  0  0  0  0  0  0  0  0  0  0
    6.3896   31.5924   22.0754 C   0  0  0  0  0  0  0  0  0  0  0  0
    8.4417   30.3594   21.3019 C   0  0  0  0  0  0  0  0  0  0  0  0
    9.4136   31.1651   20.5099 C   0  0  0  0  0  0  0  0  0  0  0  0
    0.7226   29.8784   16.0027 C   0  0  0  0  0  0  0  0  0  0  0  0
   -0.6597   30.4142   16.4583 C   0  0  0  0  0  0  0  0  0  0  0  0
   -1.7607   29.8052   15.5488 C   0  0  0  0  0  0  0  0  0  0  0  0
   -0.9404   30.2081   17.9356 C   0  0  0  0  0  0  0  0  0  0  0  0
    5.2385   33.2114   16.8053 C   0  0  0  0  0  0  0  0  0  0  0  0
    6.6361   32.6785   16.6316 C   0  0  0  0  0  0  0  0  0  0  0  0
    7.2666   32.5328   15.3698 N   0  0  0  0  0  0  0  0  0  0  0  0
    7.5490   32.2131   17.5261 C   0  0  0  0  0  0  0  0  0  0  0  0
    8.4860   32.0318   15.5278 C   0  0  0  0  0  0  0  0  0  0  0  0
    8.6846   31.8330   16.8449 N   0  0  0  0  0  0  0  0  0  0  0  0
    6.8603   32.7683   14.5046 H   0  0  0  0  0  0  0  0  0  0  0  0
    9.5058   31.4751   17.2535 H   0  0  0  0  0  0  0  0  0  0  0  0
  7  8  2  0  0  0
  8 11  1  0  0  0
 11 12  1  0  0  0
 12 13  1  0  0  0
 12 14  1  0  0  0
 12 15  1  0  0  0
  9  6  1  0  0  0
  6  2  1  0  0  0
  6 16  1  0  0  0
  2  3  2  0  0  0
 16 17  1  0  0  0
 17 18  2  0  0  0
 17 19  1  0  0  0
 18 20  1  0  0  0
 19 21  2  0  0  0
 20 22  2  0  0  0
 21 22  1  0  0  0
  4  1  1  0  0  0
  1 23  1  0  0  0
  1 46  1  0  0  0
 23 24  2  0  0  0
 46 47  1  0  0  0
 47 48  1  0  0  0
 47 49  2  0  0  0
 48 50  2  0  0  0
 49 51  1  0  0  0
 50 51  1  0  0  0
 25 27  1  0  0  0
 27 42  1  0  0  0
 27 28  1  0  0  0
 42 43  1  0  0  0
 43 44  1  0  0  0
 43 45  1  0  0  0
 28 29  2  0  0  0
 28 30  1  0  0  0
 28 32  1  0  0  0
 32 33  1  0  0  0
 33 34  2  0  0  0
 35 37  1  0  0  0
 37 38  1  0  0  0
 38 40  1  0  0  0
 38 39  1  0  0  0
 40 41  1  0  0  0
  8  9  1  0  0  0
  2  4  1  0  0  0
 23 25  1  0  0  0
 33 35  1  0  0  0
  9 10  1  0  0  0
  4  5  1  0  0  0
 48 52  1  0  0  0
 51 53  1  0  0  0
 25 26  1  0  0  0
 30 31  1  0  0  0
 35 36  1  0  0  0
M  CHG 1  48   1
M  END
> <minimizedAffinity>
-8.87810

$$$$
1GVW_0EM_A_401


 53 54  0  0  0  0  0  0  0  0999 V2000
    1.9005   30.8251   16.7668 C   0  0  0  0  0  0  0  0  0  0  0  0
    3.1812   28.9070   17.6720 C   0  0  0  0  0  0  0  0  0  0  0  0
    3.0249   28.1566   16.6605 O   0  0  0  0  0  0  0  0  0  0  0  0
    2.6479   30.1423   17.8437 N   0  0  0  0  0  0  0  0  0  0  0  0
    2.7619   30.5966   18.7096 H   0  0  0  0  0  0  0  0  0  0  0  0
    4.1229   28.3776   18.7828 C   0  0  0  0  0  0  0  0  0  0  0  0
    2.0537   27.5836   20.7107 O   0  0  0  0  0  0  0  0  0  0  0  0
    2.6822   26.7775   20.0236 C   0  0  0  0  0  0  0  0  0  0  0  0
    3.6857   26.9968   19.1613 N   0  0  0  0  0  0  0  0  0  0  0  0
    4.1499   26.2247   18.7644 H   0  0  0  0  0  0  0  0  0  0  0  0
    2.4107   25.3758   20.0654 O   0  0  0  0  0  0  0  0  0  0  0  0
    1.2345   24.7223   19.5521 C   0  0  0  0  0  0  0  0  0  0  0  0
    0.0810   24.7580   20.5508 C   0  0  0  0  0  0  0  0  0  0  0  0
    1.6273   23.2451   19.3948 C   0  0  0  0  0  0  0  0  0  0  0  0
    0.9367   25.3313   18.1819 C   0  0  0  0  0  0  0  0  0  0  0  0
    5.5815   28.3951   18.3645 C   0  0  0  0  0  0  0  0  0  0  0  0
    6.6144   29.2650   19.0199 C   0  0  0  0  0  0  0  0  0  0  0  0
    7.9817   29.0867   18.8506 C   0  0  0  0  0  0  0  0  0  0  0  0
    6.2479   30.3456   19.8339 C   0  0  0  0  0  0  0  0  0  0  0  0
    8.9354   29.8809   19.4331 C   0  0  0  0  0  0  0  0  0  0  0  0
    7.2035   31.1245   20.4540 C   0  0  0  0  0  0  0  0  0  0  0  0
    8.5597   30.9106   20.2717 C   0  0  0  0  0  0  0  0  0  0  0  0
    2.6666   32.1203   16.4510 C   0  0  0  0  0  0  0  0  0  0  0  0
    2.3561   33.1479   17.0780 O   0  0  0  0  0  0  0  0  0  0  0  0
    3.5931   32.0715   15.4861 N   0  0  0  0  0  0  0  0  0  0  0  0
    3.6865   31.2105   15.0179 H   0  0  0  0  0  0  0  0  0  0  0  0
    4.4768   33.1372   15.0478 C   0  0  0  0  0  0  0  0  0  0  0  0
    4.1478   33.6052   13.3159 P   0  0  0  0  0  0  0  0  0  0  0  0
    2.9257   32.8838   12.9146 O   0  0  0  0  0  0  0  0  0  0  0  0
    5.3696   33.2988   12.4599 O   0  0  0  0  0  0  0  0  0  0  0  0
    5.5488   32.3457   12.4816 H   0  0  0  0  0  0  0  0  0  0  0  0
    3.9249   35.3865   13.1921 C   0  0  0  0  0  0  0  0  0  0  0  0
    2.4944   35.8058   12.9271 C   0  0  0  0  0  0  0  0  0  0  0  0
    1.8424   36.2795   13.8576 O   0  0  0  0  0  0  0  0  0  0  0  0
    1.9918   35.6555   11.6736 N   0  0  0  0  0  0  0  0  0  0  0  0
    2.4866   35.1464   10.9915 H   0  0  0  0  0  0  0  0  0  0  0  0
    0.7098   36.2613   11.3613 C   0  0  0  0  0  0  0  0  0  0  0  0
   -0.2488   35.4491   10.5364 C   0  0  0  0  0  0  0  0  0  0  0  0
   -0.0087   33.9871   10.8377 C   0  0  0  0  0  0  0  0  0  0  0  0
   -1.7165   35.8341   10.7938 C   0  0  0  0  0  0  0  0  0  0  0  0
   -2.2723   36.5940    9.6385 C   0  0  0  0  0  0  0  0  0  0  0  0
    6.0032   32.8850   15.2990 C   0  0  0  0  0  0  0  0  0  0  0  0
    6.4359   32.4737   16.7304 C   0  0  0  0  0  0  0  0  0  0  0  0
    7.9672   32.2184   16.7400 C   0  0  0  0  0  0  0  0  0  0  0  0
    5.9982   33.4498   17.8072 C   0  0  0  0  0  0  0  0  0  0  0  0
    0.4448   31.1890   17.0450 C   0  0  0  0  0  0  0  0  0  0  0  0
   -0.3516   31.6974   15.8724 C   0  0  0  0  0  0  0  0  0  0  0  0
   -1.7113   32.0897   15.9614 N   0  0  0  0  0  0  0  0  0  0  0  0
   -0.0328   31.8628   14.5605 C   0  0  0  0  0  0  0  0  0  0  0  0
   -2.1485   32.4820   14.7707 C   0  0  0  0  0  0  0  0  0  0  0  0
   -1.1330   32.3576   13.8949 N   0  0  0  0  0  0  0  0  0  0  0  0
   -2.2514   32.0736   16.7844 H   0  0  0  0  0  0  0  0  0  0  0  0
   -1.1705   32.5830   12.9373 H   0  0  0  0  0  0  0  0  0  0  0  0
  7  8  2  0  0  0
  8 11  1  0  0  0
 11 12  1  0  0  0
 12 13  1  0  0  0
 12 14  1  0  0  0
 12 15  1  0  0  0
  9  6  1  0  0  0
  6  2  1  0  0  0
  6 16  1  0  0  0
  2  3  2  0  0  0
 16 17  1  0  0  0
 17 18  2  0  0  0
 17 19  1  0  0  0
 18 20  1  0  0  0
 19 21  2  0  0  0
 20 22  2  0  0  0
 21 22  1  0  0  0
  4  1  1  0  0  0
  1 23  1  0  0  0
  1 46  1  0  0  0
 23 24  2  0  0  0
 46 47  1  0  0  0
 47 48  1  0  0  0
 47 49  2  0  0  0
 48 50  2  0  0  0
 49 51  1  0  0  0
 50 51  1  0  0  0
 25 27  1  0  0  0
 27 42  1  0  0  0
 27 28  1  0  0  0
 42 43  1  0  0  0
 43 44  1  0  0  0
 43 45  1  0  0  0
 28 29  2  0  0  0
 28 30  1  0  0  0
 28 32  1  0  0  0
 32 33  1  0  0  0
 33 34  2  0  0  0
 35 37  1  0  0  0
 37 38  1  0  0  0
 38 40  1  0  0  0
 38 39  1  0  0  0
 40 41  1  0  0  0
  8  9  1  0  0  0
  2  4  1  0  0  0
 23 25  1  0  0  0
 33 35  1  0  0  0
  9 10  1  0  0  0
  4  5  1  0  0  0
 48 52  1  0  0  0
 51 53  1  0  0  0
 25 26  1  0  0  0
 30 31  1  0  0  0
 35 36  1  0  0  0
M  CHG 1  48   1
M  END
> <minimizedAffinity>
-8.84897

$$$$
1GVW_0EM_A_401


 53 54  0  0  0  0  0  0  0  0999 V2000
    4.3097   32.8601   15.8001 C   0  0  0  0  0  0  0  0  0  0  0  0
    4.5278   34.0643   13.6459 C   0  0  0  0  0  0  0  0  0  0  0  0
    5.4041   33.2905   13.1519 O   0  0  0  0  0  0  0  0  0  0  0  0
    3.9992   33.9844   14.8924 N   0  0  0  0  0  0  0  0  0  0  0  0
    3.3918   34.6951   15.2011 H   0  0  0  0  0  0  0  0  0  0  0  0
    3.9709   35.1628   12.7056 C   0  0  0  0  0  0  0  0  0  0  0  0
    1.2882   34.7521   13.8297 O   0  0  0  0  0  0  0  0  0  0  0  0
    1.5639   34.5477   12.6469 C   0  0  0  0  0  0  0  0  0  0  0  0
    2.7484   34.6325   12.0236 N   0  0  0  0  0  0  0  0  0  0  0  0
    2.8161   34.3364   11.0871 H   0  0  0  0  0  0  0  0  0  0  0  0
    0.5738   34.1459   11.6989 O   0  0  0  0  0  0  0  0  0  0  0  0
   -0.5515   34.9306   11.2609 C   0  0  0  0  0  0  0  0  0  0  0  0
   -1.8223   34.5847   12.0321 C   0  0  0  0  0  0  0  0  0  0  0  0
   -0.7985   34.5079    9.8045 C   0  0  0  0  0  0  0  0  0  0  0  0
   -0.1303   36.3993   11.3132 C   0  0  0  0  0  0  0  0  0  0  0  0
    3.6712   36.4573   13.4387 C   0  0  0  0  0  0  0  0  0  0  0  0
    3.7319   37.8063   12.7832 C   0  0  0  0  0  0  0  0  0  0  0  0
    2.9501   38.1604   11.6908 C   0  0  0  0  0  0  0  0  0  0  0  0
    4.5788   38.8139   13.2649 C   0  0  0  0  0  0  0  0  0  0  0  0
    2.9865   39.3923   11.0903 C   0  0  0  0  0  0  0  0  0  0  0  0
    4.6481   40.0428   12.6407 C   0  0  0  0  0  0  0  0  0  0  0  0
    3.8614   40.3577   11.5453 C   0  0  0  0  0  0  0  0  0  0  0  0
    2.9723   32.3942   16.3989 C   0  0  0  0  0  0  0  0  0  0  0  0
    2.1564   33.2646   16.7484 O   0  0  0  0  0  0  0  0  0  0  0  0
    2.7868   31.0771   16.5483 N   0  0  0  0  0  0  0  0  0  0  0  0
    3.5454   30.5012   16.2988 H   0  0  0  0  0  0  0  0  0  0  0  0
    1.5997   30.3963   17.0344 C   0  0  0  0  0  0  0  0  0  0  0  0
    2.0289   29.0547   18.1931 P   0  0  0  0  0  0  0  0  0  0  0  0
    0.8432   28.8446   19.0445 O   0  0  0  0  0  0  0  0  0  0  0  0
    3.2951   29.4203   18.9562 O   0  0  0  0  0  0  0  0  0  0  0  0
    3.1385   30.2239   19.4764 H   0  0  0  0  0  0  0  0  0  0  0  0
    2.4485   27.5630   17.2783 C   0  0  0  0  0  0  0  0  0  0  0  0
    1.4304   26.4516   17.4227 C   0  0  0  0  0  0  0  0  0  0  0  0
    1.0018   25.9154   16.4008 O   0  0  0  0  0  0  0  0  0  0  0  0
    1.0405   26.0819   18.6707 N   0  0  0  0  0  0  0  0  0  0  0  0
    1.2912   26.6204   19.4558 H   0  0  0  0  0  0  0  0  0  0  0  0
    0.2462   24.8759   18.8222 C   0  0  0  0  0  0  0  0  0  0  0  0
   -0.0245   24.4056   20.2239 C   0  0  0  0  0  0  0  0  0  0  0  0
   -1.5223   24.3355   20.4169 C   0  0  0  0  0  0  0  0  0  0  0  0
    0.6372   23.0492   20.5258 C   0  0  0  0  0  0  0  0  0  0  0  0
   -0.1451   22.2971   21.5472 C   0  0  0  0  0  0  0  0  0  0  0  0
    0.6087   29.9060   15.9233 C   0  0  0  0  0  0  0  0  0  0  0  0
   -0.6860   30.7309   15.7028 C   0  0  0  0  0  0  0  0  0  0  0  0
   -1.1400   31.3287   17.0617 C   0  0  0  0  0  0  0  0  0  0  0  0
   -0.5660   31.7799   14.6124 C   0  0  0  0  0  0  0  0  0  0  0  0
    5.2764   33.1325   16.9492 C   0  0  0  0  0  0  0  0  0  0  0  0
    6.6959   32.6708   16.7506 C   0  0  0  0  0  0  0  0  0  0  0  0
    7.2742   32.4458   15.4756 N   0  0  0  0  0  0  0  0  0  0  0  0
    7.6783   32.3473   17.6339 C   0  0  0  0  0  0  0  0  0  0  0  0
    8.5296   32.0362   15.6134 C   0  0  0  0  0  0  0  0  0  0  0  0
    8.8028   31.9741   16.9307 N   0  0  0  0  0  0  0  0  0  0  0  0
    6.8130   32.5742   14.6153 H   0  0  0  0  0  0  0  0  0  0  0  0
    9.6638   31.7063   17.3259 H   0  0  0  0  0  0  0  0  0  0  0  0
  7  8  2  0  0  0
  8 11  1  0  0  0
 11 12  1  0  0  0
 12 13  1  0  0  0
 12 14  1  0  0  0
 12 15  1  0  0  0
  9  6  1  0  0  0
  6  2  1  0  0  0
  6 16  1  0  0  0
  2  3  2  0  0  0
 16 17  1  0  0  0
 17 18  2  0  0  0
 17 19  1  0  0  0
 18 20  1  0  0  0
 19 21  2  0  0  0
 20 22  2  0  0  0
 21 22  1  0  0  0
  4  1  1  0  0  0
  1 23  1  0  0  0
  1 46  1  0  0  0
 23 24  2  0  0  0
 46 47  1  0  0  0
 47 48  1  0  0  0
 47 49  2  0  0  0
 48 50  2  0  0  0
 49 51  1  0  0  0
 50 51  1  0  0  0
 25 27  1  0  0  0
 27 42  1  0  0  0
 27 28  1  0  0  0
 42 43  1  0  0  0
 43 44  1  0  0  0
 43 45  1  0  0  0
 28 29  2  0  0  0
 28 30  1  0  0  0
 28 32  1  0  0  0
 32 33  1  0  0  0
 33 34  2  0  0  0
 35 37  1  0  0  0
 37 38  1  0  0  0
 38 40  1  0  0  0
 38 39  1  0  0  0
 40 41  1  0  0  0
  8  9  1  0  0  0
  2  4  1  0  0  0
 23 25  1  0  0  0
 33 35  1  0  0  0
  9 10  1  0  0  0
  4  5  1  0  0  0
 48 52  1  0  0  0
 51 53  1  0  0  0
 25 26  1  0  0  0
 30 31  1  0  0  0
 35 36  1  0  0  0
M  CHG 1  48   1
M  END
> <minimizedAffinity>
-8.82456

$$$$
1GVW_0EM_A_401


 53 54  0  0  0  0  0  0  0  0999 V2000
    2.5392   29.6998   17.1839 C   0  0  0  0  0  0  0  0  0  0  0  0
    3.2637   31.7612   16.0159 C   0  0  0  0  0  0  0  0  0  0  0  0
    2.5885   32.5617   16.7329 O   0  0  0  0  0  0  0  0  0  0  0  0
    3.2625   30.4079   16.1069 N   0  0  0  0  0  0  0  0  0  0  0  0
    3.7570   29.8828   15.4369 H   0  0  0  0  0  0  0  0  0  0  0  0
    4.2240   32.4044   14.9839 C   0  0  0  0  0  0  0  0  0  0  0  0
    5.1584   33.8155   12.5830 O   0  0  0  0  0  0  0  0  0  0  0  0
    3.9751   33.5436   12.7895 C   0  0  0  0  0  0  0  0  0  0  0  0
    3.4102   32.9667   13.8603 N   0  0  0  0  0  0  0  0  0  0  0  0
    2.4284   32.9111   13.9090 H   0  0  0  0  0  0  0  0  0  0  0  0
    2.9537   33.8436   11.8371 O   0  0  0  0  0  0  0  0  0  0  0  0
    1.8977   34.8093   11.9992 C   0  0  0  0  0  0  0  0  0  0  0  0
    0.8984   34.3864   13.0724 C   0  0  0  0  0  0  0  0  0  0  0  0
    1.1330   34.8018   10.6664 C   0  0  0  0  0  0  0  0  0  0  0  0
    2.5561   36.1721   12.2147 C   0  0  0  0  0  0  0  0  0  0  0  0
    5.1129   33.4677   15.6020 C   0  0  0  0  0  0  0  0  0  0  0  0
    6.1622   33.1651   16.6319 C   0  0  0  0  0  0  0  0  0  0  0  0
    5.9891   33.3994   17.9902 C   0  0  0  0  0  0  0  0  0  0  0  0
    7.3902   32.5911   16.2753 C   0  0  0  0  0  0  0  0  0  0  0  0
    6.9339   33.1166   18.9426 C   0  0  0  0  0  0  0  0  0  0  0  0
    8.3599   32.3402   17.2246 C   0  0  0  0  0  0  0  0  0  0  0  0
    8.1571   32.5975   18.5702 C   0  0  0  0  0  0  0  0  0  0  0  0
    3.5289   28.6919   17.7912 C   0  0  0  0  0  0  0  0  0  0  0  0
    3.6248   27.5746   17.2545 O   0  0  0  0  0  0  0  0  0  0  0  0
    4.1958   29.0651   18.8901 N   0  0  0  0  0  0  0  0  0  0  0  0
    3.9696   29.9512   19.2546 H   0  0  0  0  0  0  0  0  0  0  0  0
    5.2134   28.3187   19.6086 C   0  0  0  0  0  0  0  0  0  0  0  0
    4.4687   27.1339   20.7785 P   0  0  0  0  0  0  0  0  0  0  0  0
    5.5259   26.7825   21.7448 O   0  0  0  0  0  0  0  0  0  0  0  0
    3.8951   25.9484   20.0139 O   0  0  0  0  0  0  0  0  0  0  0  0
    4.6092   25.4917   19.5422 H   0  0  0  0  0  0  0  0  0  0  0  0
    3.0566   27.8874   21.6009 C   0  0  0  0  0  0  0  0  0  0  0  0
    1.7516   27.1564   21.3658 C   0  0  0  0  0  0  0  0  0  0  0  0
    1.1621   26.6856   22.3385 O   0  0  0  0  0  0  0  0  0  0  0  0
    1.2771   27.0601   20.0962 N   0  0  0  0  0  0  0  0  0  0  0  0
    1.8371   27.3202   19.3293 H   0  0  0  0  0  0  0  0  0  0  0  0
   -0.0731   26.5657   19.8942 C   0  0  0  0  0  0  0  0  0  0  0  0
   -0.2179   25.1734   19.3467 C   0  0  0  0  0  0  0  0  0  0  0  0
    1.0339   24.8407   18.5670 C   0  0  0  0  0  0  0  0  0  0  0  0
   -0.4761   24.1327   20.4508 C   0  0  0  0  0  0  0  0  0  0  0  0
    0.3153   22.8944   20.2031 C   0  0  0  0  0  0  0  0  0  0  0  0
    6.3215   29.1897   20.2942 C   0  0  0  0  0  0  0  0  0  0  0  0
    7.7511   29.1323   19.6956 C   0  0  0  0  0  0  0  0  0  0  0  0
    8.6087   28.1458   20.5332 C   0  0  0  0  0  0  0  0  0  0  0  0
    7.7816   28.8196   18.2106 C   0  0  0  0  0  0  0  0  0  0  0  0
    1.2692   28.9464   16.7985 C   0  0  0  0  0  0  0  0  0  0  0  0
    0.0820   29.7909   16.4179 C   0  0  0  0  0  0  0  0  0  0  0  0
   -0.1971   31.0547   16.9973 N   0  0  0  0  0  0  0  0  0  0  0  0
   -0.9418   29.5799   15.5475 C   0  0  0  0  0  0  0  0  0  0  0  0
   -1.3092   31.5572   16.4743 C   0  0  0  0  0  0  0  0  0  0  0  0
   -1.7815   30.6717   15.5763 N   0  0  0  0  0  0  0  0  0  0  0  0
    0.3525   31.4944   17.6856 H   0  0  0  0  0  0  0  0  0  0  0  0
   -2.5929   30.7858   15.0304 H   0  0  0  0  0  0  0  0  0  0  0  0
  7  8  2  0  0  0
  8 11  1  0  0  0
 11 12  1  0  0  0
 12 13  1  0  0  0
 12 14  1  0  0  0
 12 15  1  0  0  0
  9  6  1  0  0  0
  6  2  1  0  0  0
  6 16  1  0  0  0
  2  3  2  0  0  0
 16 17  1  0  0  0
 17 18  2  0  0  0
 17 19  1  0  0  0
 18 20  1  0  0  0
 19 21  2  0  0  0
 20 22  2  0  0  0
 21 22  1  0  0  0
  4  1  1  0  0  0
  1 23  1  0  0  0
  1 46  1  0  0  0
 23 24  2  0  0  0
 46 47  1  0  0  0
 47 48  1  0  0  0
 47 49  2  0  0  0
 48 50  2  0  0  0
 49 51  1  0  0  0
 50 51  1  0  0  0
 25 27  1  0  0  0
 27 42  1  0  0  0
 27 28  1  0  0  0
 42 43  1  0  0  0
 43 44  1  0  0  0
 43 45  1  0  0  0
 28 29  2  0  0  0
 28 30  1  0  0  0
 28 32  1  0  0  0
 32 33  1  0  0  0
 33 34  2  0  0  0
 35 37  1  0  0  0
 37 38  1  0  0  0
 38 40  1  0  0  0
 38 39  1  0  0  0
 40 41  1  0  0  0
  8  9  1  0  0  0
  2  4  1  0  0  0
 23 25  1  0  0  0
 33 35  1  0  0  0
  9 10  1  0  0  0
  4  5  1  0  0  0
 48 52  1  0  0  0
 51 53  1  0  0  0
 25 26  1  0  0  0
 30 31  1  0  0  0
 35 36  1  0  0  0
M  CHG 1  48   1
M  END
> <minimizedAffinity>
-8.73878

$$$$
1GVW_0EM_A_401


 53 54  0  0  0  0  0  0  0  0999 V2000
    1.8393   30.8214   16.7131 C   0  0  0  0  0  0  0  0  0  0  0  0
    3.0927   28.8840   17.6151 C   0  0  0  0  0  0  0  0  0  0  0  0
    2.9424   28.1446   16.5945 O   0  0  0  0  0  0  0  0  0  0  0  0
    2.5678   30.1220   17.7923 N   0  0  0  0  0  0  0  0  0  0  0  0
    2.6751   30.5671   18.6639 H   0  0  0  0  0  0  0  0  0  0  0  0
    4.0164   28.3359   18.7319 C   0  0  0  0  0  0  0  0  0  0  0  0
    6.9101   28.4099   19.2317 O   0  0  0  0  0  0  0  0  0  0  0  0
    6.1708   29.3810   19.3966 C   0  0  0  0  0  0  0  0  0  0  0  0
    4.8384   29.4659   19.2689 N   0  0  0  0  0  0  0  0  0  0  0  0
    4.3864   30.2984   19.5369 H   0  0  0  0  0  0  0  0  0  0  0  0
    6.6764   30.6568   19.7927 O   0  0  0  0  0  0  0  0  0  0  0  0
    7.2506   30.9834   21.0724 C   0  0  0  0  0  0  0  0  0  0  0  0
    6.7071   30.0916   22.1853 C   0  0  0  0  0  0  0  0  0  0  0  0
    6.7669   32.4085   21.3822 C   0  0  0  0  0  0  0  0  0  0  0  0
    8.7703   30.9736   20.9053 C   0  0  0  0  0  0  0  0  0  0  0  0
    3.2416   27.6473   19.8402 C   0  0  0  0  0  0  0  0  0  0  0  0
    2.5901   26.3049   19.6764 C   0  0  0  0  0  0  0  0  0  0  0  0
    1.4684   26.0919   18.8850 C   0  0  0  0  0  0  0  0  0  0  0  0
    3.1054   25.1625   20.3041 C   0  0  0  0  0  0  0  0  0  0  0  0
    0.8709   24.8695   18.7168 C   0  0  0  0  0  0  0  0  0  0  0  0
    2.4855   23.9369   20.1696 C   0  0  0  0  0  0  0  0  0  0  0  0
    1.3606   23.7633   19.3807 C   0  0  0  0  0  0  0  0  0  0  0  0
    2.6123   32.1199   16.4287 C   0  0  0  0  0  0  0  0  0  0  0  0
    2.3282   33.1257   17.1017 O   0  0  0  0  0  0  0  0  0  0  0  0
    3.5152   32.0985   15.4408 N   0  0  0  0  0  0  0  0  0  0  0  0
    3.5879   31.2553   14.9379 H   0  0  0  0  0  0  0  0  0  0  0  0
    4.4003   33.1711   15.0224 C   0  0  0  0  0  0  0  0  0  0  0  0
    4.1354   33.6085   13.2716 P   0  0  0  0  0  0  0  0  0  0  0  0
    2.9402   32.8643   12.8328 O   0  0  0  0  0  0  0  0  0  0  0  0
    5.3947   33.3065   12.4703 O   0  0  0  0  0  0  0  0  0  0  0  0
    5.5856   32.3564   12.5139 H   0  0  0  0  0  0  0  0  0  0  0  0
    3.8940   35.3845   13.1115 C   0  0  0  0  0  0  0  0  0  0  0  0
    2.4424   35.8111   13.1701 C   0  0  0  0  0  0  0  0  0  0  0  0
    2.1077   36.6281   14.0280 O   0  0  0  0  0  0  0  0  0  0  0  0
    1.5713   35.2872   12.2685 N   0  0  0  0  0  0  0  0  0  0  0  0
    1.8372   34.5353   11.6912 H   0  0  0  0  0  0  0  0  0  0  0  0
    0.2402   35.8594   12.1742 C   0  0  0  0  0  0  0  0  0  0  0  0
   -0.5309   35.5957   10.9112 C   0  0  0  0  0  0  0  0  0  0  0  0
   -0.2331   34.1829   10.4632 C   0  0  0  0  0  0  0  0  0  0  0  0
   -2.0438   35.8127   11.0913 C   0  0  0  0  0  0  0  0  0  0  0  0
   -2.4226   35.7155   12.5294 C   0  0  0  0  0  0  0  0  0  0  0  0
    5.9188   32.9459   15.3390 C   0  0  0  0  0  0  0  0  0  0  0  0
    6.2916   32.4846   16.7721 C   0  0  0  0  0  0  0  0  0  0  0  0
    7.8216   32.2294   16.8371 C   0  0  0  0  0  0  0  0  0  0  0  0
    5.8074   33.4220   17.8632 C   0  0  0  0  0  0  0  0  0  0  0  0
    0.3797   31.1837   16.9724 C   0  0  0  0  0  0  0  0  0  0  0  0
   -0.3778   31.7730   15.8119 C   0  0  0  0  0  0  0  0  0  0  0  0
   -1.7405   32.1586   15.8820 N   0  0  0  0  0  0  0  0  0  0  0  0
   -0.0152   32.0295   14.5263 C   0  0  0  0  0  0  0  0  0  0  0  0
   -2.1381   32.6331   14.7075 C   0  0  0  0  0  0  0  0  0  0  0  0
   -1.0934   32.5698   13.8601 N   0  0  0  0  0  0  0  0  0  0  0  0
   -2.3079   32.0852   16.6832 H   0  0  0  0  0  0  0  0  0  0  0  0
   -1.0991   32.8615   12.9198 H   0  0  0  0  0  0  0  0  0  0  0  0
  7  8  2  0  0  0
  8 11  1  0  0  0
 11 12  1  0  0  0
 12 13  1  0  0  0
 12 14  1  0  0  0
 12 15  1  0  0  0
  9  6  1  0  0  0
  6  2  1  0  0  0
  6 16  1  0  0  0
  2  3  2  0  0  0
 16 17  1  0  0  0
 17 18  2  0  0  0
 17 19  1  0  0  0
 18 20  1  0  0  0
 19 21  2  0  0  0
 20 22  2  0  0  0
 21 22  1  0  0  0
  4  1  1  0  0  0
  1 23  1  0  0  0
  1 46  1  0  0  0
 23 24  2  0  0  0
 46 47  1  0  0  0
 47 48  1  0  0  0
 47 49  2  0  0  0
 48 50  2  0  0  0
 49 51  1  0  0  0
 50 51  1  0  0  0
 25 27  1  0  0  0
 27 42  1  0  0  0
 27 28  1  0  0  0
 42 43  1  0  0  0
 43 44  1  0  0  0
 43 45  1  0  0  0
 28 29  2  0  0  0
 28 30  1  0  0  0
 28 32  1  0  0  0
 32 33  1  0  0  0
 33 34  2  0  0  0
 35 37  1  0  0  0
 37 38  1  0  0  0
 38 40  1  0  0  0
 38 39  1  0  0  0
 40 41  1  0  0  0
  8  9  1  0  0  0
  2  4  1  0  0  0
 23 25  1  0  0  0
 33 35  1  0  0  0
  9 10  1  0  0  0
  4  5  1  0  0  0
 48 52  1  0  0  0
 51 53  1  0  0  0
 25 26  1  0  0  0
 30 31  1  0  0  0
 35 36  1  0  0  0
M  CHG 1  48   1
M  END
> <minimizedAffinity>
-8.73411

$$$$
1GVW_0EM_A_401


 53 54  0  0  0  0  0  0  0  0999 V2000
    2.6587   30.5428   16.7305 C   0  0  0  0  0  0  0  0  0  0  0  0
    3.8708   28.6326   17.7405 C   0  0  0  0  0  0  0  0  0  0  0  0
    3.1994   27.7281   17.1560 O   0  0  0  0  0  0  0  0  0  0  0  0
    3.6587   29.9695   17.6556 N   0  0  0  0  0  0  0  0  0  0  0  0
    4.1854   30.5749   18.2260 H   0  0  0  0  0  0  0  0  0  0  0  0
    5.0840   28.1562   18.5785 C   0  0  0  0  0  0  0  0  0  0  0  0
    7.9524   28.6079   18.1348 O   0  0  0  0  0  0  0  0  0  0  0  0
    7.2056   29.4488   18.6369 C   0  0  0  0  0  0  0  0  0  0  0  0
    5.9055   29.3509   18.9511 N   0  0  0  0  0  0  0  0  0  0  0  0
    5.4774   30.0887   19.4427 H   0  0  0  0  0  0  0  0  0  0  0  0
    7.6677   30.7522   18.9946 O   0  0  0  0  0  0  0  0  0  0  0  0
    8.4462   31.0881   20.1586 C   0  0  0  0  0  0  0  0  0  0  0  0
    8.6002   29.8996   21.1037 C   0  0  0  0  0  0  0  0  0  0  0  0
    7.6158   32.1381   20.9128 C   0  0  0  0  0  0  0  0  0  0  0  0
    9.7531   31.7113   19.6680 C   0  0  0  0  0  0  0  0  0  0  0  0
    4.6676   27.3722   19.8092 C   0  0  0  0  0  0  0  0  0  0  0  0
    5.5207   27.2584   21.0391 C   0  0  0  0  0  0  0  0  0  0  0  0
    5.1924   27.8478   22.2534 C   0  0  0  0  0  0  0  0  0  0  0  0
    6.7070   26.5119   21.0374 C   0  0  0  0  0  0  0  0  0  0  0  0
    5.9558   27.7418   23.3872 C   0  0  0  0  0  0  0  0  0  0  0  0
    7.4993   26.4338   22.1647 C   0  0  0  0  0  0  0  0  0  0  0  0
    7.1463   27.0444   23.3565 C   0  0  0  0  0  0  0  0  0  0  0  0
    3.1405   31.9612   16.3837 C   0  0  0  0  0  0  0  0  0  0  0  0
    2.5640   32.9204   16.9249 O   0  0  0  0  0  0  0  0  0  0  0  0
    4.1248   32.0775   15.4841 N   0  0  0  0  0  0  0  0  0  0  0  0
    4.4415   31.2389   15.0770 H   0  0  0  0  0  0  0  0  0  0  0  0
    4.7811   33.2933   15.0370 C   0  0  0  0  0  0  0  0  0  0  0  0
    4.1821   33.8075   13.3927 P   0  0  0  0  0  0  0  0  0  0  0  0
    3.3628   32.6932   12.8809 O   0  0  0  0  0  0  0  0  0  0  0  0
    5.3648   34.1777   12.5077 O   0  0  0  0  0  0  0  0  0  0  0  0
    5.9342   33.4017   12.3875 H   0  0  0  0  0  0  0  0  0  0  0  0
    3.2142   35.3176   13.5358 C   0  0  0  0  0  0  0  0  0  0  0  0
    2.3305   35.5923   12.3372 C   0  0  0  0  0  0  0  0  0  0  0  0
    2.4262   36.6852   11.7790 O   0  0  0  0  0  0  0  0  0  0  0  0
    1.4785   34.6202   11.9182 N   0  0  0  0  0  0  0  0  0  0  0  0
    1.3236   33.8173   12.4664 H   0  0  0  0  0  0  0  0  0  0  0  0
    0.8015   34.7906   10.6451 C   0  0  0  0  0  0  0  0  0  0  0  0
   -0.7014   34.7977   10.6642 C   0  0  0  0  0  0  0  0  0  0  0  0
   -1.1595   34.1827   11.9671 C   0  0  0  0  0  0  0  0  0  0  0  0
   -1.2839   36.2108   10.4835 C   0  0  0  0  0  0  0  0  0  0  0  0
   -2.7094   36.2524   10.9161 C   0  0  0  0  0  0  0  0  0  0  0  0
    6.3471   33.2693   15.1007 C   0  0  0  0  0  0  0  0  0  0  0  0
    7.0036   32.7339   16.3998 C   0  0  0  0  0  0  0  0  0  0  0  0
    8.3520   32.0541   16.0396 C   0  0  0  0  0  0  0  0  0  0  0  0
    7.1481   33.7804   17.4897 C   0  0  0  0  0  0  0  0  0  0  0  0
    1.2182   30.6374   17.2254 C   0  0  0  0  0  0  0  0  0  0  0  0
    0.1499   30.6820   16.1649 C   0  0  0  0  0  0  0  0  0  0  0  0
   -0.3621   31.8870   15.6205 N   0  0  0  0  0  0  0  0  0  0  0  0
   -0.5553   29.6988   15.5435 C   0  0  0  0  0  0  0  0  0  0  0  0
   -1.2965   31.6150   14.7172 C   0  0  0  0  0  0  0  0  0  0  0  0
   -1.4283   30.2766   14.6478 N   0  0  0  0  0  0  0  0  0  0  0  0
   -0.0682   32.7916   15.8746 H   0  0  0  0  0  0  0  0  0  0  0  0
   -2.0464   29.7911   14.0549 H   0  0  0  0  0  0  0  0  0  0  0  0
  7  8  2  0  0  0
  8 11  1  0  0  0
 11 12  1  0  0  0
 12 13  1  0  0  0
 12 14  1  0  0  0
 12 15  1  0  0  0
  9  6  1  0  0  0
  6  2  1  0  0  0
  6 16  1  0  0  0
  2  3  2  0  0  0
 16 17  1  0  0  0
 17 18  2  0  0  0
 17 19  1  0  0  0
 18 20  1  0  0  0
 19 21  2  0  0  0
 20 22  2  0  0  0
 21 22  1  0  0  0
  4  1  1  0  0  0
  1 23  1  0  0  0
  1 46  1  0  0  0
 23 24  2  0  0  0
 46 47  1  0  0  0
 47 48  1  0  0  0
 47 49  2  0  0  0
 48 50  2  0  0  0
 49 51  1  0  0  0
 50 51  1  0  0  0
 25 27  1  0  0  0
 27 42  1  0  0  0
 27 28  1  0  0  0
 42 43  1  0  0  0
 43 44  1  0  0  0
 43 45  1  0  0  0
 28 29  2  0  0  0
 28 30  1  0  0  0
 28 32  1  0  0  0
 32 33  1  0  0  0
 33 34  2  0  0  0
 35 37  1  0  0  0
 37 38  1  0  0  0
 38 40  1  0  0  0
 38 39  1  0  0  0
 40 41  1  0  0  0
  8  9  1  0  0  0
  2  4  1  0  0  0
 23 25  1  0  0  0
 33 35  1  0  0  0
  9 10  1  0  0  0
  4  5  1  0  0  0
 48 52  1  0  0  0
 51 53  1  0  0  0
 25 26  1  0  0  0
 30 31  1  0  0  0
 35 36  1  0  0  0
M  CHG 1  48   1
M  END
> <minimizedAffinity>
-8.71062

$$$$
1GVW_0EM_A_401


 53 54  0  0  0  0  0  0  0  0999 V2000
    2.3576   30.1989   16.3726 C   0  0  0  0  0  0  0  0  0  0  0  0
    3.2495   28.4083   17.8343 C   0  0  0  0  0  0  0  0  0  0  0  0
    3.2628   27.5058   16.9420 O   0  0  0  0  0  0  0  0  0  0  0  0
    2.7909   29.6760   17.6854 N   0  0  0  0  0  0  0  0  0  0  0  0
    2.7453   30.2642   18.4735 H   0  0  0  0  0  0  0  0  0  0  0  0
    3.8762   28.0340   19.2011 C   0  0  0  0  0  0  0  0  0  0  0  0
    6.7454   28.6587   19.2816 O   0  0  0  0  0  0  0  0  0  0  0  0
    5.8744   29.4296   19.6863 C   0  0  0  0  0  0  0  0  0  0  0  0
    4.5481   29.2466   19.7662 N   0  0  0  0  0  0  0  0  0  0  0  0
    3.9987   29.9319   20.2108 H   0  0  0  0  0  0  0  0  0  0  0  0
    6.1887   30.7326   20.1797 O   0  0  0  0  0  0  0  0  0  0  0  0
    7.0358   31.0339   21.3047 C   0  0  0  0  0  0  0  0  0  0  0  0
    6.8598   30.0257   22.4369 C   0  0  0  0  0  0  0  0  0  0  0  0
    6.5324   32.3826   21.8418 C   0  0  0  0  0  0  0  0  0  0  0  0
    8.4616   31.1836   20.7737 C   0  0  0  0  0  0  0  0  0  0  0  0
    2.8560   27.4702   20.1727 C   0  0  0  0  0  0  0  0  0  0  0  0
    2.2374   26.1113   20.0186 C   0  0  0  0  0  0  0  0  0  0  0  0
    2.8566   24.9389   20.4333 C   0  0  0  0  0  0  0  0  0  0  0  0
    0.9615   25.9495   19.4612 C   0  0  0  0  0  0  0  0  0  0  0  0
    2.2981   23.6929   20.3099 C   0  0  0  0  0  0  0  0  0  0  0  0
    0.4107   24.6947   19.2989 C   0  0  0  0  0  0  0  0  0  0  0  0
    1.0622   23.5451   19.7140 C   0  0  0  0  0  0  0  0  0  0  0  0
    2.8368   31.6581   16.2990 C   0  0  0  0  0  0  0  0  0  0  0  0
    2.1217   32.5325   16.8182 O   0  0  0  0  0  0  0  0  0  0  0  0
    3.9758   31.9026   15.6398 N   0  0  0  0  0  0  0  0  0  0  0  0
    4.4043   31.1265   15.2117 H   0  0  0  0  0  0  0  0  0  0  0  0
    4.6547   33.1765   15.4809 C   0  0  0  0  0  0  0  0  0  0  0  0
    4.3120   33.9148   13.8487 P   0  0  0  0  0  0  0  0  0  0  0  0
    3.7505   32.8366   13.0136 O   0  0  0  0  0  0  0  0  0  0  0  0
    5.5820   34.5451   13.2929 O   0  0  0  0  0  0  0  0  0  0  0  0
    6.2577   33.8594   13.1733 H   0  0  0  0  0  0  0  0  0  0  0  0
    3.1506   35.2782   14.0223 C   0  0  0  0  0  0  0  0  0  0  0  0
    1.8760   35.0999   13.2247 C   0  0  0  0  0  0  0  0  0  0  0  0
    1.6248   35.9129   12.3352 O   0  0  0  0  0  0  0  0  0  0  0  0
    1.0684   34.0457   13.5121 N   0  0  0  0  0  0  0  0  0  0  0  0
    1.2225   33.4991   14.3163 H   0  0  0  0  0  0  0  0  0  0  0  0
   -0.0268   33.7422   12.6084 C   0  0  0  0  0  0  0  0  0  0  0  0
   -1.4002   33.6323   13.2092 C   0  0  0  0  0  0  0  0  0  0  0  0
   -1.3129   32.7382   14.4252 C   0  0  0  0  0  0  0  0  0  0  0  0
   -1.9933   35.0052   13.5724 C   0  0  0  0  0  0  0  0  0  0  0  0
   -3.1735   34.8489   14.4689 C   0  0  0  0  0  0  0  0  0  0  0  0
    6.1897   33.1593   15.7973 C   0  0  0  0  0  0  0  0  0  0  0  0
    6.6267   32.6698   17.2025 C   0  0  0  0  0  0  0  0  0  0  0  0
    8.0954   32.1723   17.1285 C   0  0  0  0  0  0  0  0  0  0  0  0
    6.4096   33.6926   18.3028 C   0  0  0  0  0  0  0  0  0  0  0  0
    0.8629   30.1728   16.0657 C   0  0  0  0  0  0  0  0  0  0  0  0
   -0.0531   29.9085   17.2314 C   0  0  0  0  0  0  0  0  0  0  0  0
   -0.4080   28.6070   17.6679 N   0  0  0  0  0  0  0  0  0  0  0  0
   -0.7359   30.7451   18.0584 C   0  0  0  0  0  0  0  0  0  0  0  0
   -1.2332   28.6863   18.7050 C   0  0  0  0  0  0  0  0  0  0  0  0
   -1.4444   29.9902   18.9675 N   0  0  0  0  0  0  0  0  0  0  0  0
   -0.0897   27.7684   17.2620 H   0  0  0  0  0  0  0  0  0  0  0  0
   -2.0113   30.3454   19.6898 H   0  0  0  0  0  0  0  0  0  0  0  0
  7  8  2  0  0  0
  8 11  1  0  0  0
 11 12  1  0  0  0
 12 13  1  0  0  0
 12 14  1  0  0  0
 12 15  1  0  0  0
  9  6  1  0  0  0
  6  2  1  0  0  0
  6 16  1  0  0  0
  2  3  2  0  0  0
 16 17  1  0  0  0
 17 18  2  0  0  0
 17 19  1  0  0  0
 18 20  1  0  0  0
 19 21  2  0  0  0
 20 22  2  0  0  0
 21 22  1  0  0  0
  4  1  1  0  0  0
  1 23  1  0  0  0
  1 46  1  0  0  0
 23 24  2  0  0  0
 46 47  1  0  0  0
 47 48  1  0  0  0
 47 49  2  0  0  0
 48 50  2  0  0  0
 49 51  1  0  0  0
 50 51  1  0  0  0
 25 27  1  0  0  0
 27 42  1  0  0  0
 27 28  1  0  0  0
 42 43  1  0  0  0
 43 44  1  0  0  0
 43 45  1  0  0  0
 28 29  2  0  0  0
 28 30  1  0  0  0
 28 32  1  0  0  0
 32 33  1  0  0  0
 33 34  2  0  0  0
 35 37  1  0  0  0
 37 38  1  0  0  0
 38 40  1  0  0  0
 38 39  1  0  0  0
 40 41  1  0  0  0
  8  9  1  0  0  0
  2  4  1  0  0  0
 23 25  1  0  0  0
 33 35  1  0  0  0
  9 10  1  0  0  0
  4  5  1  0  0  0
 48 52  1  0  0  0
 51 53  1  0  0  0
 25 26  1  0  0  0
 30 31  1  0  0  0
 35 36  1  0  0  0
M  CHG 1  48   1
M  END
> <minimizedAffinity>
-8.54628

$$$$
