1GVW_0EM_A_401
  RCSB PDB12061702393D
Coordinates from PDB:1GVW:A:401 Model:1 without hydrogens
 46 47  0  0  0  0            999 V2000
    1.5530   27.3940   20.2800   O 0  0  0  0  0  0  0  0  0  0  0  0
    2.3520   26.5920   19.7950   C 0  0  0  0  0  0  0  0  0  0  0  0
    2.1280   25.1820   19.8390   O 0  0  0  0  0  0  0  0  0  0  0  0
    1.0100   24.5180   20.4580   C 0  0  0  0  0  0  0  0  0  0  0  0
    0.9900   24.7250   21.9700   C 0  0  0  0  0  0  0  0  0  0  0  0
    1.2510   23.0180   20.2280   C 0  0  0  0  0  0  0  0  0  0  0  0
   -0.2510   24.9630   19.7170   C 0  0  0  0  0  0  0  0  0  0  0  0
    3.5200   26.8240   19.1780   N 0  0  0  0  0  0  0  0  0  0  0  0
    3.9840   28.2080   18.8460   C 0  0  0  0  0  0  0  0  0  0  0  0
    3.1090   28.7590   17.6920   C 0  0  0  0  0  0  0  0  0  0  0  0
    2.8090   27.9390   16.7710   O 0  0  0  0  0  0  0  0  0  0  0  0
    5.4640   28.2240   18.5110   C 0  0  0  0  0  0  0  0  0  0  0  0
    6.5420   28.0500   19.5410   C 0  0  0  0  0  0  0  0  0  0  0  0
    6.6930   26.8970   20.3010   C 0  0  0  0  0  0  0  0  0  0  0  0
    7.4930   29.0520   19.7780   C 0  0  0  0  0  0  0  0  0  0  0  0
    7.6800   26.7200   21.2360   C 0  0  0  0  0  0  0  0  0  0  0  0
    8.4650   28.8950   20.7450   C 0  0  0  0  0  0  0  0  0  0  0  0
    8.5790   27.7350   21.4930   C 0  0  0  0  0  0  0  0  0  0  0  0
    2.7830   30.0750   17.7310   N 0  0  0  0  0  0  0  0  0  0  0  0
    2.1250   30.7490   16.5920   C 0  0  0  0  0  0  0  0  0  0  0  0
    2.8970   32.0560   16.3470   C 0  0  0  0  0  0  0  0  0  0  0  0
    2.4620   33.0960   16.8710   O 0  0  0  0  0  0  0  0  0  0  0  0
    0.6450   31.0910   16.7390   C 0  0  0  0  0  0  0  0  0  0  0  0
   -0.0190   31.7110   15.5380   C 0  0  0  0  0  0  0  0  0  0  0  0
   -1.3170   32.2810   15.5690   N 0  3  0  0  0  0  0  0  0  0  0  0
    0.3820   31.8430   14.2450   C 0  0  0  0  0  0  0  0  0  0  0  0
   -1.6400   32.7380   14.3650   C 0  0  0  0  0  0  0  0  0  0  0  0
   -0.6090   32.4860   13.5360   N 0  0  0  0  0  0  0  0  0  0  0  0
    3.9680   32.0010   15.5460   N 0  0  0  0  0  0  0  0  0  0  0  0
    4.8820   33.0780   15.2090   C 0  0  0  0  0  0  0  0  0  0  0  0
    6.3350   32.9230   15.7760   C 0  0  0  0  0  0  0  0  0  0  0  0
    6.4840   32.5500   17.2740   C 0  0  0  0  0  0  0  0  0  0  0  0
    7.9850   32.3040   17.5850   C 0  0  0  0  0  0  0  0  0  0  0  0
    5.8460   33.5500   18.2210   C 0  0  0  0  0  0  0  0  0  0  0  0
    4.8910   33.4070   13.4150   P 0  0  0  0  0  0  0  0  0  0  0  0
    5.1300   32.1100   12.7550   O 0  0  0  0  0  0  0  0  0  0  0  0
    5.9260   34.4770   13.0940   O 0  0  0  0  0  0  0  0  0  0  0  0
    3.3150   34.1150   12.9120   C 0  0  0  0  0  0  0  0  0  0  0  0
    3.1360   35.5610   13.3240   C 0  0  0  0  0  0  0  0  0  0  0  0
    2.6010   35.7980   14.4070   O 0  0  0  0  0  0  0  0  0  0  0  0
    3.5830   36.5370   12.4910   N 0  0  0  0  0  0  0  0  0  0  0  0
    3.6210   37.9040   12.9790   C 0  0  0  0  0  0  0  0  0  0  0  0
    3.7910   38.9920   11.9560   C 0  0  0  0  0  0  0  0  0  0  0  0
    3.9970   40.3750   12.5990   C 0  0  0  0  0  0  0  0  0  0  0  0
    2.5770   38.9860   11.0550   C 0  0  0  0  0  0  0  0  0  0  0  0
    4.7160   41.2880   11.6660   C 0  0  0  0  0  0  0  0  0  0  0  0
  1  2  2  0  0  0  0
  2  3  1  0  0  0  0
  3  4  1  0  0  0  0
  4  5  1  0  0  0  0
  4  6  1  0  0  0  0
  4  7  1  0  0  0  0
  8  9  1  0  0  0  0
  9 10  1  0  0  0  0
  9 12  1  0  0  0  0
 10 11  2  0  0  0  0
 12 13  1  0  0  0  0
 13 14  2  0  0  0  0
 13 15  1  0  0  0  0
 14 16  1  0  0  0  0
 15 17  2  0  0  0  0
 16 18  2  0  0  0  0
 17 18  1  0  0  0  0
 19 20  1  0  0  0  0
 20 21  1  0  0  0  0
 20 23  1  0  0  0  0
 21 22  2  0  0  0  0
 23 24  1  0  0  0  0
 24 25  1  0  0  0  0
 24 26  2  0  0  0  0
 25 27  2  0  0  0  0
 26 28  1  0  0  0  0
 27 28  1  0  0  0  0
 29 30  1  0  0  0  0
 30 31  1  0  0  0  0
 30 35  1  0  0  0  0
 31 32  1  0  0  0  0
 32 33  1  0  0  0  0
 32 34  1  0  0  0  0
 35 36  2  0  0  0  0
 35 37  1  0  0  0  0
 35 38  1  0  0  0  0
 38 39  1  0  0  0  0
 39 40  2  0  0  0  0
 41 42  1  0  0  0  0
 42 43  1  0  0  0  0
 43 44  1  0  0  0  0
 43 45  1  0  0  0  0
 44 46  1  0  0  0  0
  2  8  1  0  0  0  0
 10 19  1  0  0  0  0
 21 29  1  0  0  0  0
 39 41  1  0  0  0  0
M  CHG  1  25   1
A    1
O1
A    2
C
A    3
O2
A    4
CT
A    5
C1
A    6
C2
A    7
C3
A    8
N
A    9
CA
A   10
C4
A   11
O
A   12
CB
A   13
CG
A   14
CD1
A   15
CD2
A   16
CE1
A   17
CE2
A   18
CZ
A   19
N1
A   20
CA1
A   21
C5
A   22
O3
A   23
CB1
A   24
CG1
A   25
ND1
A   26
CD21
A   27
CE11
A   28
NE2
A   29
N2
A   30
CA2
A   31
CB2
A   32
CG2
A   33
CD11
A   34
CD22
A   35
P
A   36
O1P
A   37
O2P
A   38
CM
A   39
C6
A   40
O4
A   41
N3
A   42
CA3
A   43
CB3
A   44
CG11
A   45
CG21
A   46
CD12
M  END
>  <InstanceId>
1GVW_0EM_A_401

>  <ChemCompId>
0EM

>  <PdbId>
1GVW

>  <ChainId>
A

>  <ResidueNumber>
401

>  <InsertionCode>


>  <Model>
1

>  <AltIds>


>  <MissingHeavyAtoms>
0

>  <ObservedFormula>
C32 N6 O7 P

>  <Name>
N-(tert-butoxycarbonyl)-L-phenylalanyl-N-{(1S)-1-[(R)-hydroxy(2-{[(2S)-2-methylbutyl]amino}-2-oxoethyl)phosphoryl]-3-methylbutyl}-3-(1H-imidazol-3-ium-4-yl)-L-alaninamide

>  <SystematicName>
[(1R)-1-[[(2S)-3-(1H-imidazol-3-ium-4-yl)-2-[[(2S)-2-[(2-methylpropan-2-yl)oxycarbonylamino]-3-phenyl-propanoyl]amino]propanoyl]amino]-3-methyl-butyl]-[2-[[(2S)-2-methylbutyl]amino]-2-oxo-ethyl]phosphinic acid

>  <Synonyms>
PD-130,328

>  <Type>
peptide-like

>  <Formula>
C32 H52 N6 O7 P

>  <MolecularWeight>
663.765

>  <ModifiedDate>
2011-07-13

>  <Parent>


>  <OneLetterCode>


>  <SubcomponentList>
BOC PHE HIS PTA DCI

>  <AmbiguousFlag>
N

>  <InChI>
InChI=1S/C32H51N6O7P/c1-8-22(4)17-34-27(39)19-46(43,44)28(14-21(2)3)38-30(41)26(16-24-18-33-20-35-24)36-29(40)25(15-23-12-10-9-11-13-23)37-31(42)45-32(5,6)7/h9-13,18,20-22,25-26,28H,8,14-17,19H2,1-7H3,(H,33,35)(H,34,39)(H,36,40)(H,37,42)(H,38,41)(H,43,44)/p+1/t22-,25-,26-,28+/m0/s1

>  <InChIKey>
ZQDBBPUTYSTPQE-DYYCDWSUSA-O

>  <SMILES>


$$$$
