3IMC_BZ3_A_702


 12 13  0  0  0  0  0  0  0  0999 V2000
   12.5261    9.3847   -4.6089 C   0  0  0  0  0  0  0  0  0  0  0  0
   14.4077   10.6763   -0.6319 C   0  0  0  0  0  0  0  0  0  0  0  0
   13.9134    9.3274   -4.5906 C   0  0  0  0  0  0  0  0  0  0  0  0
   13.1536   10.5234   -1.2251 C   0  0  0  0  0  0  0  0  0  0  0  0
   15.4780    9.9257   -2.6755 C   0  0  0  0  0  0  0  0  0  0  0  0
   12.0611    9.8119   -3.4012 N   0  0  0  0  0  0  0  0  0  0  0  0
   15.5616   10.3693   -1.3503 C   0  0  0  0  0  0  0  0  0  0  0  0
   14.2214    9.7698   -3.2697 C   0  0  0  0  0  0  0  0  0  0  0  0
   13.0815   10.0722   -2.5524 C   0  0  0  0  0  0  0  0  0  0  0  0
   11.1084    9.9171   -3.1763 H   0  0  0  0  0  0  0  0  0  0  0  0
   16.8950   11.1437    0.5403 C   0  0  0  0  0  0  0  0  0  0  0  0
   16.7868   10.5331   -0.7472 O   0  0  0  0  0  0  0  0  0  0  0  0
 12 11  1  0  0  0
  6  1  1  0  0  0
  3  1  2  0  0  0
  2  7  2  0  0  0
  2  4  1  0  0  0
  8  3  1  0  0  0
  4  9  2  0  0  0
  7  5  1  0  0  0
  5  8  2  0  0  0
  9  6  1  0  0  0
 12  7  1  0  0  0
  9  8  1  0  0  0
  6 10  1  0  0  0
M  END
> <minimizedAffinity>
-6.08556

$$$$
3IMC_BZ3_A_702


 12 13  0  0  0  0  0  0  0  0999 V2000
   14.8887   10.4006   -0.0529 C   0  0  0  0  0  0  0  0  0  0  0  0
   14.5754    9.7092   -4.5749 C   0  0  0  0  0  0  0  0  0  0  0  0
   13.5874   10.2738   -0.5203 C   0  0  0  0  0  0  0  0  0  0  0  0
   15.5394    9.8952   -3.5830 C   0  0  0  0  0  0  0  0  0  0  0  0
   12.8162    9.8878   -2.9140 C   0  0  0  0  0  0  0  0  0  0  0  0
   15.7695   10.2723   -1.0850 N   0  0  0  0  0  0  0  0  0  0  0  0
   13.2228    9.6956   -4.2397 C   0  0  0  0  0  0  0  0  0  0  0  0
   13.7820   10.0716   -1.9191 C   0  0  0  0  0  0  0  0  0  0  0  0
   15.1204   10.0809   -2.2562 C   0  0  0  0  0  0  0  0  0  0  0  0
   16.7486   10.3134   -0.9906 H   0  0  0  0  0  0  0  0  0  0  0  0
   10.8921    9.5182   -4.9387 C   0  0  0  0  0  0  0  0  0  0  0  0
   12.2902    9.5164   -5.2347 O   0  0  0  0  0  0  0  0  0  0  0  0
 12 11  1  0  0  0
  6  1  1  0  0  0
  3  1  2  0  0  0
  2  7  2  0  0  0
  2  4  1  0  0  0
  8  3  1  0  0  0
  4  9  2  0  0  0
  7  5  1  0  0  0
  5  8  2  0  0  0
  9  6  1  0  0  0
 12  7  1  0  0  0
  9  8  1  0  0  0
  6 10  1  0  0  0
M  END
> <minimizedAffinity>
-5.98854

$$$$
3IMC_BZ3_A_702


 12 13  0  0  0  0  0  0  0  0999 V2000
   12.5067    9.3504   -4.7823 C   0  0  0  0  0  0  0  0  0  0  0  0
   15.6363   10.3144   -1.5727 C   0  0  0  0  0  0  0  0  0  0  0  0
   11.9705    9.6563   -3.5385 C   0  0  0  0  0  0  0  0  0  0  0  0
   15.5565    9.9620   -2.9208 C   0  0  0  0  0  0  0  0  0  0  0  0
   13.2168   10.2587   -1.4037 C   0  0  0  0  0  0  0  0  0  0  0  0
   13.8665    9.4276   -4.7356 N   0  0  0  0  0  0  0  0  0  0  0  0
   14.4725   10.4714   -0.8224 C   0  0  0  0  0  0  0  0  0  0  0  0
   13.1361    9.9081   -2.7554 C   0  0  0  0  0  0  0  0  0  0  0  0
   14.2919    9.7572   -3.4947 C   0  0  0  0  0  0  0  0  0  0  0  0
   14.4607    9.2649   -5.5036 H   0  0  0  0  0  0  0  0  0  0  0  0
   15.5825   10.2322    1.3370 C   0  0  0  0  0  0  0  0  0  0  0  0
   14.5756   10.8134    0.5058 O   0  0  0  0  0  0  0  0  0  0  0  0
 12 11  1  0  0  0
  6  1  1  0  0  0
  3  1  2  0  0  0
  2  7  2  0  0  0
  2  4  1  0  0  0
  8  3  1  0  0  0
  4  9  2  0  0  0
  7  5  1  0  0  0
  5  8  2  0  0  0
  9  6  1  0  0  0
 12  7  1  0  0  0
  9  8  1  0  0  0
  6 10  1  0  0  0
M  END
> <minimizedAffinity>
-5.65734

$$$$
3IMC_BZ3_A_702


 12 13  0  0  0  0  0  0  0  0999 V2000
   14.6297    9.7167   -4.9618 C   0  0  0  0  0  0  0  0  0  0  0  0
   15.2585   10.3987   -0.4713 C   0  0  0  0  0  0  0  0  0  0  0  0
   13.4576    9.7212   -4.2173 C   0  0  0  0  0  0  0  0  0  0  0  0
   15.9930   10.3004   -1.6540 C   0  0  0  0  0  0  0  0  0  0  0  0
   13.2009   10.0443   -1.7067 C   0  0  0  0  0  0  0  0  0  0  0  0
   15.7004    9.9340   -4.1470 N   0  0  0  0  0  0  0  0  0  0  0  0
   13.8702   10.2814   -0.5001 C   0  0  0  0  0  0  0  0  0  0  0  0
   13.9362    9.9483   -2.8927 C   0  0  0  0  0  0  0  0  0  0  0  0
   15.3109   10.0687   -2.8588 C   0  0  0  0  0  0  0  0  0  0  0  0
   16.6339    9.9860   -4.4554 H   0  0  0  0  0  0  0  0  0  0  0  0
   13.2110    9.3240    1.6448 C   0  0  0  0  0  0  0  0  0  0  0  0
   13.1676   10.3760    0.6785 O   0  0  0  0  0  0  0  0  0  0  0  0
 12 11  1  0  0  0
  6  1  1  0  0  0
  3  1  2  0  0  0
  2  7  2  0  0  0
  2  4  1  0  0  0
  8  3  1  0  0  0
  4  9  2  0  0  0
  7  5  1  0  0  0
  5  8  2  0  0  0
  9  6  1  0  0  0
 12  7  1  0  0  0
  9  8  1  0  0  0
  6 10  1  0  0  0
M  END
> <minimizedAffinity>
-5.46460

$$$$
3IMC_BZ3_A_702


 12 13  0  0  0  0  0  0  0  0999 V2000
   14.7291   10.3057    1.9055 C   0  0  0  0  0  0  0  0  0  0  0  0
   13.5747   10.1967   -2.5307 C   0  0  0  0  0  0  0  0  0  0  0  0
   15.8099   10.2155    1.0384 C   0  0  0  0  0  0  0  0  0  0  0  0
   12.9814   10.2808   -1.2702 C   0  0  0  0  0  0  0  0  0  0  0  0
   15.7709   10.1140   -1.5036 C   0  0  0  0  0  0  0  0  0  0  0  0
   13.5657   10.3518    1.1973 N   0  0  0  0  0  0  0  0  0  0  0  0
   14.9616   10.1240   -2.6459 C   0  0  0  0  0  0  0  0  0  0  0  0
   15.1771   10.2009   -0.2402 C   0  0  0  0  0  0  0  0  0  0  0  0
   13.8031   10.2761   -0.1321 C   0  0  0  0  0  0  0  0  0  0  0  0
   12.6707   10.4299    1.6001 H   0  0  0  0  0  0  0  0  0  0  0  0
   14.7242    9.7252   -5.0410 C   0  0  0  0  0  0  0  0  0  0  0  0
   15.5238   10.0360   -3.8980 O   0  0  0  0  0  0  0  0  0  0  0  0
 12 11  1  0  0  0
  6  1  1  0  0  0
  3  1  2  0  0  0
  2  7  2  0  0  0
  2  4  1  0  0  0
  8  3  1  0  0  0
  4  9  2  0  0  0
  7  5  1  0  0  0
  5  8  2  0  0  0
  9  6  1  0  0  0
 12  7  1  0  0  0
  9  8  1  0  0  0
  6 10  1  0  0  0
M  END
> <minimizedAffinity>
-5.24713

$$$$
3IMC_BZ3_A_702


 12 13  0  0  0  0  0  0  0  0999 V2000
   14.4095   10.4079    2.2510 C   0  0  0  0  0  0  0  0  0  0  0  0
   15.2841   10.1181   -2.2407 C   0  0  0  0  0  0  0  0  0  0  0  0
   13.2773   10.2742    1.4584 C   0  0  0  0  0  0  0  0  0  0  0  0
   15.9552   10.2502   -1.0242 C   0  0  0  0  0  0  0  0  0  0  0  0
   13.1567   10.0776   -1.0755 C   0  0  0  0  0  0  0  0  0  0  0  0
   15.5273   10.4076    1.4713 N   0  0  0  0  0  0  0  0  0  0  0  0
   13.8940   10.0222   -2.2642 C   0  0  0  0  0  0  0  0  0  0  0  0
   13.8288   10.2074    0.1443 C   0  0  0  0  0  0  0  0  0  0  0  0
   15.2060   10.2985    0.1620 C   0  0  0  0  0  0  0  0  0  0  0  0
   16.4470   10.4775    1.8156 H   0  0  0  0  0  0  0  0  0  0  0  0
   13.9627    9.4688   -4.6394 C   0  0  0  0  0  0  0  0  0  0  0  0
   13.2538    9.8984   -3.4752 O   0  0  0  0  0  0  0  0  0  0  0  0
 12 11  1  0  0  0
  6  1  1  0  0  0
  3  1  2  0  0  0
  2  7  2  0  0  0
  2  4  1  0  0  0
  8  3  1  0  0  0
  4  9  2  0  0  0
  7  5  1  0  0  0
  5  8  2  0  0  0
  9  6  1  0  0  0
 12  7  1  0  0  0
  9  8  1  0  0  0
  6 10  1  0  0  0
M  END
> <minimizedAffinity>
-5.17889

$$$$
3IMC_BZ3_A_702


 12 13  0  0  0  0  0  0  0  0999 V2000
   13.9005    9.8953   -3.4881 C   0  0  0  0  0  0  0  0  0  0  0  0
   14.4344   10.3276    1.0454 C   0  0  0  0  0  0  0  0  0  0  0  0
   15.2227   10.0064   -3.0790 C   0  0  0  0  0  0  0  0  0  0  0  0
   13.4238   10.1814    0.0940 C   0  0  0  0  0  0  0  0  0  0  0  0
   16.1091   10.2732   -0.7090 C   0  0  0  0  0  0  0  0  0  0  0  0
   13.0728    9.9324   -2.4060 N   0  0  0  0  0  0  0  0  0  0  0  0
   15.7691   10.3629    0.6460 C   0  0  0  0  0  0  0  0  0  0  0  0
   15.0969   10.1239   -1.6628 C   0  0  0  0  0  0  0  0  0  0  0  0
   13.7768   10.0862   -1.2613 C   0  0  0  0  0  0  0  0  0  0  0  0
   12.0922    9.8572   -2.4515 H   0  0  0  0  0  0  0  0  0  0  0  0
   17.6170   11.6479    1.5875 C   0  0  0  0  0  0  0  0  0  0  0  0
   16.7477   10.5136    1.6006 O   0  0  0  0  0  0  0  0  0  0  0  0
 12 11  1  0  0  0
  6  1  1  0  0  0
  3  1  2  0  0  0
  2  7  2  0  0  0
  2  4  1  0  0  0
  8  3  1  0  0  0
  4  9  2  0  0  0
  7  5  1  0  0  0
  5  8  2  0  0  0
  9  6  1  0  0  0
 12  7  1  0  0  0
  9  8  1  0  0  0
  6 10  1  0  0  0
M  END
> <minimizedAffinity>
-5.00594

$$$$
3IMC_BZ3_A_702


 12 13  0  0  0  0  0  0  0  0999 V2000
   13.5201    9.1454    3.3646 C   0  0  0  0  0  0  0  0  0  0  0  0
   15.6577   10.7168   -0.3752 C   0  0  0  0  0  0  0  0  0  0  0  0
   12.7576    9.0848    2.2057 C   0  0  0  0  0  0  0  0  0  0  0  0
   15.8845   10.5254    0.9885 C   0  0  0  0  0  0  0  0  0  0  0  0
   13.4175    9.8157   -0.1403 C   0  0  0  0  0  0  0  0  0  0  0  0
   14.7507    9.6610    3.0867 N   0  0  0  0  0  0  0  0  0  0  0  0
   14.4349   10.3543   -0.9370 C   0  0  0  0  0  0  0  0  0  0  0  0
   13.6452    9.6212    1.2260 C   0  0  0  0  0  0  0  0  0  0  0  0
   14.8593    9.9789    1.7765 C   0  0  0  0  0  0  0  0  0  0  0  0
   15.4659    9.7856    3.7517 H   0  0  0  0  0  0  0  0  0  0  0  0
   13.1534    9.9160   -2.9662 C   0  0  0  0  0  0  0  0  0  0  0  0
   14.2318   10.5574   -2.2820 O   0  0  0  0  0  0  0  0  0  0  0  0
 12 11  1  0  0  0
  6  1  1  0  0  0
  3  1  2  0  0  0
  2  7  2  0  0  0
  2  4  1  0  0  0
  8  3  1  0  0  0
  4  9  2  0  0  0
  7  5  1  0  0  0
  5  8  2  0  0  0
  9  6  1  0  0  0
 12  7  1  0  0  0
  9  8  1  0  0  0
  6 10  1  0  0  0
M  END
> <minimizedAffinity>
-4.90721

$$$$
3IMC_BZ3_A_702


 12 13  0  0  0  0  0  0  0  0999 V2000
   13.3665    9.1516    3.0679 C   0  0  0  0  0  0  0  0  0  0  0  0
   15.2544   10.6881   -0.8179 C   0  0  0  0  0  0  0  0  0  0  0  0
   14.6969    9.5292    3.1922 C   0  0  0  0  0  0  0  0  0  0  0  0
   14.0384   10.2013   -0.3361 C   0  0  0  0  0  0  0  0  0  0  0  0
   16.2391   10.4407    1.3854 C   0  0  0  0  0  0  0  0  0  0  0  0
   12.9431    9.3499    1.7877 N   0  0  0  0  0  0  0  0  0  0  0  0
   16.3444   10.8162    0.0408 C   0  0  0  0  0  0  0  0  0  0  0  0
   15.0199    9.9552    1.8695 C   0  0  0  0  0  0  0  0  0  0  0  0
   13.9425    9.8336    1.0152 C   0  0  0  0  0  0  0  0  0  0  0  0
   12.0306    9.1655    1.4676 H   0  0  0  0  0  0  0  0  0  0  0  0
   18.5108   11.8767    0.4077 C   0  0  0  0  0  0  0  0  0  0  0  0
   17.5345   11.2928   -0.4574 O   0  0  0  0  0  0  0  0  0  0  0  0
 12 11  1  0  0  0
  6  1  1  0  0  0
  3  1  2  0  0  0
  2  7  2  0  0  0
  2  4  1  0  0  0
  8  3  1  0  0  0
  4  9  2  0  0  0
  7  5  1  0  0  0
  5  8  2  0  0  0
  9  6  1  0  0  0
 12  7  1  0  0  0
  9  8  1  0  0  0
  6 10  1  0  0  0
M  END
> <minimizedAffinity>
-4.90267

$$$$
3IMC_BZ3_A_702


 12 13  0  0  0  0  0  0  0  0999 V2000
   17.5579   10.8548    1.7497 C   0  0  0  0  0  0  0  0  0  0  0  0
   13.2661    9.7431    0.5796 C   0  0  0  0  0  0  0  0  0  0  0  0
   17.2424   11.1215    0.4240 C   0  0  0  0  0  0  0  0  0  0  0  0
   14.1151    9.7218    1.6872 C   0  0  0  0  0  0  0  0  0  0  0  0
   15.0343   10.7094   -0.7712 C   0  0  0  0  0  0  0  0  0  0  0  0
   16.4770   10.3253    2.3889 N   0  0  0  0  0  0  0  0  0  0  0  0
   13.7209   10.2435   -0.6389 C   0  0  0  0  0  0  0  0  0  0  0  0
   15.8849   10.6908    0.3391 C   0  0  0  0  0  0  0  0  0  0  0  0
   15.4282   10.1972    1.5445 C   0  0  0  0  0  0  0  0  0  0  0  0
   16.4616   10.0699    3.3396 H   0  0  0  0  0  0  0  0  0  0  0  0
   13.3385    9.9170   -3.0262 C   0  0  0  0  0  0  0  0  0  0  0  0
   12.8683   10.2492   -1.7181 O   0  0  0  0  0  0  0  0  0  0  0  0
 12 11  1  0  0  0
  6  1  1  0  0  0
  3  1  2  0  0  0
  2  7  2  0  0  0
  2  4  1  0  0  0
  8  3  1  0  0  0
  4  9  2  0  0  0
  7  5  1  0  0  0
  5  8  2  0  0  0
  9  6  1  0  0  0
 12  7  1  0  0  0
  9  8  1  0  0  0
  6 10  1  0  0  0
M  END
> <minimizedAffinity>
-4.84680

$$$$
