2ISW_PGH_A_325


 14 13  0  0  0  0  0  0  0  0999 V2000
  -26.7904   14.8636   58.7007 C   0  0  0  0  0  0  0  0  0  0  0  0
  -27.9110   14.8447   57.4427 C   0  0  0  0  0  0  0  0  0  0  0  0
  -27.2337   15.0006   56.3420 N   0  0  0  0  0  0  0  0  0  0  0  0
  -28.1579   14.9759   55.2193 O   0  0  0  0  0  0  0  0  0  0  0  0
  -29.0905   14.6931   57.6546 O   0  0  0  0  0  0  0  0  0  0  0  0
  -26.2580   15.1160   56.2799 H   0  0  0  0  0  0  0  0  0  0  0  0
  -29.0619   14.8496   55.5473 H   0  0  0  0  0  0  0  0  0  0  0  0
  -25.4896   15.1501   57.9498 O   0  0  0  0  0  0  0  0  0  0  0  0
  -23.0893   14.6274   57.8271 O   0  0  0  0  0  0  0  0  0  0  0  0
  -24.6557   13.1314   56.7702 O   0  0  0  0  0  0  0  0  0  0  0  0
  -24.6027   13.1990   59.3061 O   0  0  0  0  0  0  0  0  0  0  0  0
  -24.3997   13.9877   57.9655 P   0  0  0  0  0  0  0  0  0  0  0  0
  -24.5204   13.6531   55.9637 H   0  0  0  0  0  0  0  0  0  0  0  0
  -24.4277   13.7875   60.0571 H   0  0  0  0  0  0  0  0  0  0  0  0
  2  1  1  0  0  0
  2  3  1  0  0  0
  2  5  2  0  0  0
  1  8  1  0  0  0
  3  4  1  0  0  0
  8 12  1  0  0  0
  9 12  2  0  0  0
 10 12  1  0  0  0
 11 12  1  0  0  0
  3  6  1  0  0  0
  4  7  1  0  0  0
 10 13  1  0  0  0
 11 14  1  0  0  0
M  END
> <minimizedAffinity>
-7.13416

$$$$
2ISW_PGH_A_325


 14 13  0  0  0  0  0  0  0  0999 V2000
  -25.6851   14.7502   56.8839 C   0  0  0  0  0  0  0  0  0  0  0  0
  -24.5184   14.2137   57.9746 C   0  0  0  0  0  0  0  0  0  0  0  0
  -25.1432   13.4897   58.8577 N   0  0  0  0  0  0  0  0  0  0  0  0
  -24.1735   12.9873   59.8182 O   0  0  0  0  0  0  0  0  0  0  0  0
  -23.3536   14.5048   57.8418 O   0  0  0  0  0  0  0  0  0  0  0  0
  -26.1113   13.3117   58.8729 H   0  0  0  0  0  0  0  0  0  0  0  0
  -23.2885   13.3058   59.5809 H   0  0  0  0  0  0  0  0  0  0  0  0
  -26.7798   15.2517   57.8262 O   0  0  0  0  0  0  0  0  0  0  0  0
  -28.7570   16.7044   57.6526 O   0  0  0  0  0  0  0  0  0  0  0  0
  -29.0778   14.3173   57.7375 O   0  0  0  0  0  0  0  0  0  0  0  0
  -28.0566   15.3052   55.6354 O   0  0  0  0  0  0  0  0  0  0  0  0
  -28.2314   15.4179   57.1901 P   0  0  0  0  0  0  0  0  0  0  0  0
  -29.1621   14.4215   58.6983 H   0  0  0  0  0  0  0  0  0  0  0  0
  -27.5024   16.0355   55.3185 H   0  0  0  0  0  0  0  0  0  0  0  0
  2  1  1  0  0  0
  2  3  1  0  0  0
  2  5  2  0  0  0
  1  8  1  0  0  0
  3  4  1  0  0  0
  8 12  1  0  0  0
  9 12  2  0  0  0
 10 12  1  0  0  0
 11 12  1  0  0  0
  3  6  1  0  0  0
  4  7  1  0  0  0
 10 13  1  0  0  0
 11 14  1  0  0  0
M  END
> <minimizedAffinity>
-6.97827

$$$$
2ISW_PGH_A_325


 14 13  0  0  0  0  0  0  0  0999 V2000
  -25.7230   14.6220   56.8506 C   0  0  0  0  0  0  0  0  0  0  0  0
  -24.6195   13.9247   57.9160 C   0  0  0  0  0  0  0  0  0  0  0  0
  -25.3073   13.5066   58.9391 N   0  0  0  0  0  0  0  0  0  0  0  0
  -24.3987   12.8796   59.8860 O   0  0  0  0  0  0  0  0  0  0  0  0
  -23.4413   13.8730   57.6550 O   0  0  0  0  0  0  0  0  0  0  0  0
  -26.2808   13.5994   59.0530 H   0  0  0  0  0  0  0  0  0  0  0  0
  -23.4937   12.9171   59.5390 H   0  0  0  0  0  0  0  0  0  0  0  0
  -26.7901   15.1459   57.8120 O   0  0  0  0  0  0  0  0  0  0  0  0
  -29.0925   14.2988   57.6351 O   0  0  0  0  0  0  0  0  0  0  0  0
  -28.0872   15.3321   55.7037 O   0  0  0  0  0  0  0  0  0  0  0  0
  -28.6903   16.8197   57.6688 O   0  0  0  0  0  0  0  0  0  0  0  0
  -28.2343   15.3981   57.1875 P   0  0  0  0  0  0  0  0  0  0  0  0
  -27.8050   14.4405   55.4462 H   0  0  0  0  0  0  0  0  0  0  0  0
  -28.7743   16.8223   58.6352 H   0  0  0  0  0  0  0  0  0  0  0  0
  2  1  1  0  0  0
  2  3  1  0  0  0
  2  5  2  0  0  0
  1  8  1  0  0  0
  3  4  1  0  0  0
  8 12  1  0  0  0
  9 12  2  0  0  0
 10 12  1  0  0  0
 11 12  1  0  0  0
  3  6  1  0  0  0
  4  7  1  0  0  0
 10 13  1  0  0  0
 11 14  1  0  0  0
M  END
> <minimizedAffinity>
-6.90110

$$$$
2ISW_PGH_A_325


 14 13  0  0  0  0  0  0  0  0999 V2000
  -26.1183   14.7349   56.8326 C   0  0  0  0  0  0  0  0  0  0  0  0
  -27.7316   15.2186   56.7897 C   0  0  0  0  0  0  0  0  0  0  0  0
  -28.0457   15.5661   58.0043 N   0  0  0  0  0  0  0  0  0  0  0  0
  -29.4310   16.0086   58.0184 O   0  0  0  0  0  0  0  0  0  0  0  0
  -28.3624   15.2109   55.7596 O   0  0  0  0  0  0  0  0  0  0  0  0
  -27.4451   15.5346   58.7838 H   0  0  0  0  0  0  0  0  0  0  0  0
  -29.8004   15.9433   57.1239 H   0  0  0  0  0  0  0  0  0  0  0  0
  -25.8690   14.6276   58.3373 O   0  0  0  0  0  0  0  0  0  0  0  0
  -23.6056   14.9419   59.2472 O   0  0  0  0  0  0  0  0  0  0  0  0
  -23.9494   13.2638   57.5518 O   0  0  0  0  0  0  0  0  0  0  0  0
  -24.9146   12.8372   59.8593 O   0  0  0  0  0  0  0  0  0  0  0  0
  -24.5206   13.9001   58.7751 P   0  0  0  0  0  0  0  0  0  0  0  0
  -23.7190   13.9511   56.9073 H   0  0  0  0  0  0  0  0  0  0  0  0
  -25.2806   13.2882   60.6362 H   0  0  0  0  0  0  0  0  0  0  0  0
  2  1  1  0  0  0
  2  3  1  0  0  0
  2  5  2  0  0  0
  1  8  1  0  0  0
  3  4  1  0  0  0
  8 12  1  0  0  0
  9 12  2  0  0  0
 10 12  1  0  0  0
 11 12  1  0  0  0
  3  6  1  0  0  0
  4  7  1  0  0  0
 10 13  1  0  0  0
 11 14  1  0  0  0
M  END
> <minimizedAffinity>
-6.73912

$$$$
2ISW_PGH_A_325


 14 13  0  0  0  0  0  0  0  0999 V2000
  -25.8875   14.6642   57.0302 C   0  0  0  0  0  0  0  0  0  0  0  0
  -24.6290   14.1827   58.0416 C   0  0  0  0  0  0  0  0  0  0  0  0
  -25.1630   13.4410   58.9686 N   0  0  0  0  0  0  0  0  0  0  0  0
  -24.1111   12.9848   59.8634 O   0  0  0  0  0  0  0  0  0  0  0  0
  -23.4885   14.5189   57.8288 O   0  0  0  0  0  0  0  0  0  0  0  0
  -26.1200   13.2247   59.0504 H   0  0  0  0  0  0  0  0  0  0  0  0
  -23.2578   13.3365   59.5650 H   0  0  0  0  0  0  0  0  0  0  0  0
  -26.7687   15.4606   57.9931 O   0  0  0  0  0  0  0  0  0  0  0  0
  -28.5650   14.5364   56.5899 O   0  0  0  0  0  0  0  0  0  0  0  0
  -28.9766   16.5788   57.8015 O   0  0  0  0  0  0  0  0  0  0  0  0
  -28.7856   14.4261   59.1310 O   0  0  0  0  0  0  0  0  0  0  0  0
  -28.3398   15.2302   57.8601 P   0  0  0  0  0  0  0  0  0  0  0  0
  -28.6771   17.0434   57.0044 H   0  0  0  0  0  0  0  0  0  0  0  0
  -28.3521   13.5584   59.1331 H   0  0  0  0  0  0  0  0  0  0  0  0
  2  1  1  0  0  0
  2  3  1  0  0  0
  2  5  2  0  0  0
  1  8  1  0  0  0
  3  4  1  0  0  0
  8 12  1  0  0  0
  9 12  2  0  0  0
 10 12  1  0  0  0
 11 12  1  0  0  0
  3  6  1  0  0  0
  4  7  1  0  0  0
 10 13  1  0  0  0
 11 14  1  0  0  0
M  END
> <minimizedAffinity>
-6.71673

$$$$
2ISW_PGH_A_325


 14 13  0  0  0  0  0  0  0  0999 V2000
  -27.1592   15.0453   58.9375 C   0  0  0  0  0  0  0  0  0  0  0  0
  -28.0964   14.9575   57.5401 C   0  0  0  0  0  0  0  0  0  0  0  0
  -27.2701   15.0226   56.5363 N   0  0  0  0  0  0  0  0  0  0  0  0
  -28.0313   14.9350   55.3002 O   0  0  0  0  0  0  0  0  0  0  0  0
  -29.2975   14.8426   57.5957 O   0  0  0  0  0  0  0  0  0  0  0  0
  -26.2922   15.1156   56.6029 H   0  0  0  0  0  0  0  0  0  0  0  0
  -28.9751   14.8486   55.5071 H   0  0  0  0  0  0  0  0  0  0  0  0
  -25.8481   14.4134   58.4691 O   0  0  0  0  0  0  0  0  0  0  0  0
  -25.1647   14.9295   60.7748 O   0  0  0  0  0  0  0  0  0  0  0  0
  -23.4643   14.7445   59.0770 O   0  0  0  0  0  0  0  0  0  0  0  0
  -24.6496   12.6235   59.8079 O   0  0  0  0  0  0  0  0  0  0  0  0
  -24.7436   14.1744   59.5925 P   0  0  0  0  0  0  0  0  0  0  0  0
  -23.5621   15.7021   58.9572 H   0  0  0  0  0  0  0  0  0  0  0  0
  -25.4975   12.2915   60.1423 H   0  0  0  0  0  0  0  0  0  0  0  0
  2  1  1  0  0  0
  2  3  1  0  0  0
  2  5  2  0  0  0
  1  8  1  0  0  0
  3  4  1  0  0  0
  8 12  1  0  0  0
  9 12  2  0  0  0
 10 12  1  0  0  0
 11 12  1  0  0  0
  3  6  1  0  0  0
  4  7  1  0  0  0
 10 13  1  0  0  0
 11 14  1  0  0  0
M  END
> <minimizedAffinity>
-6.69710

$$$$
2ISW_PGH_A_325


 14 13  0  0  0  0  0  0  0  0999 V2000
  -26.7546   14.8430   58.7872 C   0  0  0  0  0  0  0  0  0  0  0  0
  -27.7669   15.3986   57.5604 C   0  0  0  0  0  0  0  0  0  0  0  0
  -27.3754   14.8141   56.4651 N   0  0  0  0  0  0  0  0  0  0  0  0
  -28.2313   15.2503   55.3731 O   0  0  0  0  0  0  0  0  0  0  0  0
  -28.6593   16.1802   57.7882 O   0  0  0  0  0  0  0  0  0  0  0  0
  -26.6247   14.1818   56.3886 H   0  0  0  0  0  0  0  0  0  0  0  0
  -28.8937   15.8734   55.7105 H   0  0  0  0  0  0  0  0  0  0  0  0
  -25.3758   15.2130   58.2398 O   0  0  0  0  0  0  0  0  0  0  0  0
  -24.3321   13.3097   59.3963 O   0  0  0  0  0  0  0  0  0  0  0  0
  -22.9847   14.6375   57.9031 O   0  0  0  0  0  0  0  0  0  0  0  0
  -24.7746   13.1537   56.8868 O   0  0  0  0  0  0  0  0  0  0  0  0
  -24.3268   14.0200   58.1154 P   0  0  0  0  0  0  0  0  0  0  0  0
  -22.7439   15.1633   58.6819 H   0  0  0  0  0  0  0  0  0  0  0  0
  -25.6483   12.7708   57.0625 H   0  0  0  0  0  0  0  0  0  0  0  0
  2  1  1  0  0  0
  2  3  1  0  0  0
  2  5  2  0  0  0
  1  8  1  0  0  0
  3  4  1  0  0  0
  8 12  1  0  0  0
  9 12  2  0  0  0
 10 12  1  0  0  0
 11 12  1  0  0  0
  3  6  1  0  0  0
  4  7  1  0  0  0
 10 13  1  0  0  0
 11 14  1  0  0  0
M  END
> <minimizedAffinity>
-6.55209

$$$$
2ISW_PGH_A_325


 14 13  0  0  0  0  0  0  0  0999 V2000
  -25.8742   15.1552   57.2006 C   0  0  0  0  0  0  0  0  0  0  0  0
  -27.5578   15.1685   57.1368 C   0  0  0  0  0  0  0  0  0  0  0  0
  -27.9587   15.9317   58.1122 N   0  0  0  0  0  0  0  0  0  0  0  0
  -29.4117   15.9892   58.0914 O   0  0  0  0  0  0  0  0  0  0  0  0
  -28.1589   14.5547   56.2876 O   0  0  0  0  0  0  0  0  0  0  0  0
  -27.3751   16.3934   58.7568 H   0  0  0  0  0  0  0  0  0  0  0  0
  -29.7463   15.4482   57.3591 H   0  0  0  0  0  0  0  0  0  0  0  0
  -25.6064   13.8772   57.9961 O   0  0  0  0  0  0  0  0  0  0  0  0
  -23.5949   14.7321   59.1243 O   0  0  0  0  0  0  0  0  0  0  0  0
  -24.6016   12.6981   59.9357 O   0  0  0  0  0  0  0  0  0  0  0  0
  -25.8486   14.8750   60.3153 O   0  0  0  0  0  0  0  0  0  0  0  0
  -24.8696   14.0639   59.3966 P   0  0  0  0  0  0  0  0  0  0  0  0
  -23.9943   12.2296   59.3419 H   0  0  0  0  0  0  0  0  0  0  0  0
  -25.9975   15.7539   59.9327 H   0  0  0  0  0  0  0  0  0  0  0  0
  2  1  1  0  0  0
  2  3  1  0  0  0
  2  5  2  0  0  0
  1  8  1  0  0  0
  3  4  1  0  0  0
  8 12  1  0  0  0
  9 12  2  0  0  0
 10 12  1  0  0  0
 11 12  1  0  0  0
  3  6  1  0  0  0
  4  7  1  0  0  0
 10 13  1  0  0  0
 11 14  1  0  0  0
M  END
> <minimizedAffinity>
-6.33543

$$$$
2ISW_PGH_A_325


 14 13  0  0  0  0  0  0  0  0999 V2000
  -26.7735   15.2650   58.5318 C   0  0  0  0  0  0  0  0  0  0  0  0
  -27.3346   14.6136   59.9809 C   0  0  0  0  0  0  0  0  0  0  0  0
  -28.6017   14.3691   59.8100 N   0  0  0  0  0  0  0  0  0  0  0  0
  -29.1328   13.7884   61.0331 O   0  0  0  0  0  0  0  0  0  0  0  0
  -26.5953   14.4434   60.9209 O   0  0  0  0  0  0  0  0  0  0  0  0
  -29.1152   14.5476   58.9892 H   0  0  0  0  0  0  0  0  0  0  0  0
  -28.4241   13.7172   61.6915 H   0  0  0  0  0  0  0  0  0  0  0  0
  -25.8209   14.1701   58.0506 O   0  0  0  0  0  0  0  0  0  0  0  0
  -24.1282   15.7584   57.2371 O   0  0  0  0  0  0  0  0  0  0  0  0
  -23.5560   13.4207   57.3646 O   0  0  0  0  0  0  0  0  0  0  0  0
  -23.8366   14.6960   59.5401 O   0  0  0  0  0  0  0  0  0  0  0  0
  -24.2715   14.5424   58.0409 P   0  0  0  0  0  0  0  0  0  0  0  0
  -23.8511   13.3581   56.4427 H   0  0  0  0  0  0  0  0  0  0  0  0
  -24.3218   15.4326   59.9437 H   0  0  0  0  0  0  0  0  0  0  0  0
  2  1  1  0  0  0
  2  3  1  0  0  0
  2  5  2  0  0  0
  1  8  1  0  0  0
  3  4  1  0  0  0
  8 12  1  0  0  0
  9 12  2  0  0  0
 10 12  1  0  0  0
 11 12  1  0  0  0
  3  6  1  0  0  0
  4  7  1  0  0  0
 10 13  1  0  0  0
 11 14  1  0  0  0
M  END
> <minimizedAffinity>
-5.84999

$$$$
2ISW_PGH_A_325


 14 13  0  0  0  0  0  0  0  0999 V2000
  -26.5088   14.7969   59.7670 C   0  0  0  0  0  0  0  0  0  0  0  0
  -25.0442   13.9639   59.7623 C   0  0  0  0  0  0  0  0  0  0  0  0
  -25.0007   13.2868   60.8732 N   0  0  0  0  0  0  0  0  0  0  0  0
  -23.7566   12.5344   60.9113 O   0  0  0  0  0  0  0  0  0  0  0  0
  -24.2743   14.0526   58.8357 O   0  0  0  0  0  0  0  0  0  0  0  0
  -25.6945   13.2844   61.5716 H   0  0  0  0  0  0  0  0  0  0  0  0
  -23.2481   12.7094   60.1041 H   0  0  0  0  0  0  0  0  0  0  0  0
  -26.6907   15.1079   58.2811 O   0  0  0  0  0  0  0  0  0  0  0  0
  -29.0023   14.3388   58.6203 O   0  0  0  0  0  0  0  0  0  0  0  0
  -28.2156   14.6845   56.3686 O   0  0  0  0  0  0  0  0  0  0  0  0
  -28.5873   16.7289   57.8248 O   0  0  0  0  0  0  0  0  0  0  0  0
  -28.1947   15.2114   57.7648 P   0  0  0  0  0  0  0  0  0  0  0  0
  -27.9682   13.7466   56.3732 H   0  0  0  0  0  0  0  0  0  0  0  0
  -28.5622   17.0333   58.7454 H   0  0  0  0  0  0  0  0  0  0  0  0
  2  1  1  0  0  0
  2  3  1  0  0  0
  2  5  2  0  0  0
  1  8  1  0  0  0
  3  4  1  0  0  0
  8 12  1  0  0  0
  9 12  2  0  0  0
 10 12  1  0  0  0
 11 12  1  0  0  0
  3  6  1  0  0  0
  4  7  1  0  0  0
 10 13  1  0  0  0
 11 14  1  0  0  0
M  END
> <minimizedAffinity>
-5.78580

$$$$
