2ISW_PGH_A_325
  RCSB PDB12061705573D
Coordinates from PDB:2ISW:A:325 Model:1 without hydrogens
 10  9  0  0  0  0            999 V2000
  -24.8050   15.2140   57.1340   C 0  0  0  0  0  0  0  0  0  0  0  0
  -26.3380   14.9260   56.4970   C 0  0  0  0  0  0  0  0  0  0  0  0
  -24.3690   14.0710   57.5790   N 0  0  0  0  0  0  0  0  0  0  0  0
  -23.0360   14.2630   58.1280   O 0  0  0  0  0  0  0  0  0  0  0  0
  -24.3110   16.3160   57.1080   O 0  0  0  0  0  0  0  0  0  0  0  0
  -27.2340   15.6100   57.5300   O 0  0  0  0  0  0  0  0  0  0  0  0
  -29.4690   15.8600   58.5260   O 0  0  0  0  0  0  0  0  0  0  0  0
  -29.1090   14.1040   56.9150   O 0  0  0  0  0  0  0  0  0  0  0  0
  -29.1150   16.5000   56.0800   O 0  0  0  0  0  0  0  0  0  0  0  0
  -28.8030   15.5220   57.2660   P 0  0  0  0  0  0  0  0  0  0  0  0
  1  2  1  0  0  0  0
  1  3  1  0  0  0  0
  1  5  2  0  0  0  0
  2  6  1  0  0  0  0
  3  4  1  0  0  0  0
  6 10  1  0  0  0  0
  7 10  2  0  0  0  0
  8 10  1  0  0  0  0
  9 10  1  0  0  0  0
A    1
C1
A    2
C2
A    3
N2
A    4
O2
A    5
O1
A    6
O1P
A    7
O2P
A    8
O3P
A    9
O4P
A   10
P
M  END
>  <InstanceId>
2ISW_PGH_A_325

>  <ChemCompId>
PGH

>  <PdbId>
2ISW

>  <ChainId>
A

>  <ResidueNumber>
325

>  <InsertionCode>


>  <Model>
1

>  <AltIds>


>  <MissingHeavyAtoms>
0

>  <ObservedFormula>
C2 N O6 P

>  <Name>
PHOSPHOGLYCOLOHYDROXAMIC ACID

>  <SystematicName>
[2-(hydroxyamino)-2-oxo-ethyl] dihydrogen phosphate

>  <Synonyms>


>  <Type>
NON-POLYMER

>  <Formula>
C2 H6 N O6 P

>  <MolecularWeight>
171.046

>  <ModifiedDate>
2011-06-04

>  <Parent>


>  <OneLetterCode>


>  <SubcomponentList>


>  <AmbiguousFlag>
N

>  <InChI>
InChI=1S/C2H6NO6P/c4-2(3-5)1-9-10(6,7)8/h5H,1H2,(H,3,4)(H2,6,7,8)

>  <InChIKey>
BAXHHWZKQZIJID-UHFFFAOYSA-N

>  <SMILES>
C(C(=O)NO)OP(=O)(O)O

$$$$
