6H38_FKK_A_302


 28 30  0  0  0  0  0  0  0  0999 V2000
   18.0800   24.3613    2.8531 N   0  0  0  0  0  0  0  0  0  0  0  0
   20.7130   23.8211    1.8545 N   0  0  0  0  0  0  0  0  0  0  0  0
   15.8553   24.2138    2.6782 O   0  0  0  0  0  0  0  0  0  0  0  0
   16.8328   24.6144    3.2848 C   0  0  0  0  0  0  0  0  0  0  0  0
   19.2134   25.1972    3.2437 C   0  0  0  0  0  0  0  0  0  0  0  0
   20.4837   24.3751    3.1954 C   0  0  0  0  0  0  0  0  0  0  0  0
   18.2870   23.8837    1.4864 C   0  0  0  0  0  0  0  0  0  0  0  0
   19.5410   23.0478    1.4318 C   0  0  0  0  0  0  0  0  0  0  0  0
   15.9724   26.7223    6.8998 C   0  0  0  0  0  0  0  0  0  0  0  0
   15.9459   27.3887    5.6862 C   0  0  0  0  0  0  0  0  0  0  0  0
   16.2827   26.7124    4.5294 C   0  0  0  0  0  0  0  0  0  0  0  0
   16.3420   25.3874    6.9613 C   0  0  0  0  0  0  0  0  0  0  0  0
   16.6747   24.7187    5.7938 C   0  0  0  0  0  0  0  0  0  0  0  0
   16.6420   25.3695    4.5649 C   0  0  0  0  0  0  0  0  0  0  0  0
   14.4639   28.5004    8.0052 O   0  0  0  0  0  0  0  0  0  0  0  0
   15.5043   27.5844    8.3711 S   0  0  0  0  0  0  0  0  0  0  0  0
   15.2223   26.5934    9.3673 O   0  0  0  0  0  0  0  0  0  0  0  0
   16.7501   28.4506    8.8867 N   0  0  0  0  0  0  0  0  0  0  0  0
   17.5103   27.8261    9.1558 H   0  0  0  0  0  0  0  0  0  0  0  0
   16.4665   29.0079    9.6926 H   0  0  0  0  0  0  0  0  0  0  0  0
   21.9087   22.9666    1.8434 C   0  0  0  0  0  0  0  0  0  0  0  0
   23.1922   23.7276    1.6116 C   0  0  0  0  0  0  0  0  0  0  0  0
   24.4170   23.0763    1.6307 C   0  0  0  0  0  0  0  0  0  0  0  0
   25.6020   23.7779    1.4986 C   0  0  0  0  0  0  0  0  0  0  0  0
   25.5369   25.1361    1.3454 C   0  0  0  0  0  0  0  0  0  0  0  0
   26.6964   25.8333    1.2188 F   0  0  0  0  0  0  0  0  0  0  0  0
   24.3547   25.8216    1.3155 C   0  0  0  0  0  0  0  0  0  0  0  0
   23.1787   25.1054    1.4500 C   0  0  0  0  0  0  0  0  0  0  0  0
  8  7  1  0  0  0
  8  2  1  0  0  0
 21  2  1  0  0  0
 21 22  1  0  0  0
  7  1  1  0  0  0
  2  6  1  0  0  0
 22 23  2  0  0  0
 22 28  1  0  0  0
 23 24  1  0  0  0
  3  4  2  0  0  0
 28 27  2  0  0  0
  1  4  1  0  0  0
  1  5  1  0  0  0
  6  5  1  0  0  0
  4 14  1  0  0  0
 24 25  2  0  0  0
 27 25  1  0  0  0
 25 26  1  0  0  0
 14 13  2  0  0  0
 14 11  1  0  0  0
 13 12  1  0  0  0
 11 10  2  0  0  0
 12  9  2  0  0  0
 10  9  1  0  0  0
  9 16  1  0  0  0
 18 16  1  0  0  0
 16 17  2  0  0  0
 16 15  2  0  0  0
 18 19  1  0  0  0
 18 20  1  0  0  0
M  END
> <minimizedAffinity>
-8.07865

$$$$
6H38_FKK_A_302


 28 30  0  0  0  0  0  0  0  0999 V2000
   17.6507   23.5771    3.2354 N   0  0  0  0  0  0  0  0  0  0  0  0
   19.7528   21.6483    2.9481 N   0  0  0  0  0  0  0  0  0  0  0  0
   15.8707   24.6629    2.4262 O   0  0  0  0  0  0  0  0  0  0  0  0
   16.6663   24.4868    3.3317 C   0  0  0  0  0  0  0  0  0  0  0  0
   18.8669   23.6719    4.0402 C   0  0  0  0  0  0  0  0  0  0  0  0
   19.4491   22.2881    4.2349 C   0  0  0  0  0  0  0  0  0  0  0  0
   17.9852   23.0124    1.9284 C   0  0  0  0  0  0  0  0  0  0  0  0
   18.5492   21.6258    2.1106 C   0  0  0  0  0  0  0  0  0  0  0  0
   15.9268   26.7172    6.8997 C   0  0  0  0  0  0  0  0  0  0  0  0
   16.0288   27.3706    5.6830 C   0  0  0  0  0  0  0  0  0  0  0  0
   16.3263   26.6476    4.5437 C   0  0  0  0  0  0  0  0  0  0  0  0
   16.1291   25.3481    6.9821 C   0  0  0  0  0  0  0  0  0  0  0  0
   16.4237   24.6331    5.8319 C   0  0  0  0  0  0  0  0  0  0  0  0
   16.5184   25.2715    4.5997 C   0  0  0  0  0  0  0  0  0  0  0  0
   14.4030   28.4862    7.9989 O   0  0  0  0  0  0  0  0  0  0  0  0
   15.5093   27.6435    8.3471 S   0  0  0  0  0  0  0  0  0  0  0  0
   15.3411   26.7021    9.4146 O   0  0  0  0  0  0  0  0  0  0  0  0
   16.7399   28.5964    8.7293 N   0  0  0  0  0  0  0  0  0  0  0  0
   17.5461   28.0253    8.9829 H   0  0  0  0  0  0  0  0  0  0  0  0
   16.4798   29.1872    9.5191 H   0  0  0  0  0  0  0  0  0  0  0  0
   20.2473   20.2796    3.1527 C   0  0  0  0  0  0  0  0  0  0  0  0
   21.7356   20.2060    3.3975 C   0  0  0  0  0  0  0  0  0  0  0  0
   22.2374   19.6171    4.5491 C   0  0  0  0  0  0  0  0  0  0  0  0
   23.5943   19.6163    4.8188 C   0  0  0  0  0  0  0  0  0  0  0  0
   24.4343   20.2109    3.9169 C   0  0  0  0  0  0  0  0  0  0  0  0
   25.7681   20.2180    4.1761 F   0  0  0  0  0  0  0  0  0  0  0  0
   23.9882   20.7995    2.7667 C   0  0  0  0  0  0  0  0  0  0  0  0
   22.6283   20.7927    2.5123 C   0  0  0  0  0  0  0  0  0  0  0  0
  8  7  1  0  0  0
  8  2  1  0  0  0
 21  2  1  0  0  0
 21 22  1  0  0  0
  7  1  1  0  0  0
  2  6  1  0  0  0
 22 23  2  0  0  0
 22 28  1  0  0  0
 23 24  1  0  0  0
  3  4  2  0  0  0
 28 27  2  0  0  0
  1  4  1  0  0  0
  1  5  1  0  0  0
  6  5  1  0  0  0
  4 14  1  0  0  0
 24 25  2  0  0  0
 27 25  1  0  0  0
 25 26  1  0  0  0
 14 13  2  0  0  0
 14 11  1  0  0  0
 13 12  1  0  0  0
 11 10  2  0  0  0
 12  9  2  0  0  0
 10  9  1  0  0  0
  9 16  1  0  0  0
 18 16  1  0  0  0
 16 17  2  0  0  0
 16 15  2  0  0  0
 18 19  1  0  0  0
 18 20  1  0  0  0
M  END
> <minimizedAffinity>
-7.90682

$$$$
6H38_FKK_A_302


 28 30  0  0  0  0  0  0  0  0999 V2000
   17.1732   24.0614    2.4791 N   0  0  0  0  0  0  0  0  0  0  0  0
   15.8566   22.1638    0.7799 N   0  0  0  0  0  0  0  0  0  0  0  0
   18.9440   25.3287    2.9895 O   0  0  0  0  0  0  0  0  0  0  0  0
   17.8244   24.9356    3.2651 C   0  0  0  0  0  0  0  0  0  0  0  0
   16.0953   23.2194    2.9938 C   0  0  0  0  0  0  0  0  0  0  0  0
   15.1534   22.8630    1.8635 C   0  0  0  0  0  0  0  0  0  0  0  0
   17.9128   23.3202    1.4581 C   0  0  0  0  0  0  0  0  0  0  0  0
   16.9868   22.9763    0.3186 C   0  0  0  0  0  0  0  0  0  0  0  0
   16.1356   26.6382    6.8008 C   0  0  0  0  0  0  0  0  0  0  0  0
   16.9373   25.5126    6.8888 C   0  0  0  0  0  0  0  0  0  0  0  0
   17.4308   24.9350    5.7346 C   0  0  0  0  0  0  0  0  0  0  0  0
   15.8194   27.1818    5.5651 C   0  0  0  0  0  0  0  0  0  0  0  0
   16.3230   26.5956    4.4146 C   0  0  0  0  0  0  0  0  0  0  0  0
   17.1394   25.4716    4.4853 C   0  0  0  0  0  0  0  0  0  0  0  0
   14.4821   28.2847    7.9028 O   0  0  0  0  0  0  0  0  0  0  0  0
   15.5383   27.3934    8.2840 S   0  0  0  0  0  0  0  0  0  0  0  0
   15.2402   26.3354    9.2038 O   0  0  0  0  0  0  0  0  0  0  0  0
   16.7091   28.2795    8.9261 N   0  0  0  0  0  0  0  0  0  0  0  0
   17.4787   27.6728    9.2088 H   0  0  0  0  0  0  0  0  0  0  0  0
   16.3509   28.7768    9.7414 H   0  0  0  0  0  0  0  0  0  0  0  0
   14.9445   21.8911   -0.3397 C   0  0  0  0  0  0  0  0  0  0  0  0
   14.2048   20.5810   -0.2102 C   0  0  0  0  0  0  0  0  0  0  0  0
   14.7329   19.5386    0.5377 C   0  0  0  0  0  0  0  0  0  0  0  0
   14.1012   18.3092    0.5965 C   0  0  0  0  0  0  0  0  0  0  0  0
   12.9359   18.1457   -0.1020 C   0  0  0  0  0  0  0  0  0  0  0  0
   12.3111   16.9401   -0.0528 F   0  0  0  0  0  0  0  0  0  0  0  0
   12.3744   19.1436   -0.8485 C   0  0  0  0  0  0  0  0  0  0  0  0
   13.0191   20.3667   -0.8978 C   0  0  0  0  0  0  0  0  0  0  0  0
  8  7  1  0  0  0
  8  2  1  0  0  0
 21  2  1  0  0  0
 21 22  1  0  0  0
  7  1  1  0  0  0
  2  6  1  0  0  0
 22 23  2  0  0  0
 22 28  1  0  0  0
 23 24  1  0  0  0
  3  4  2  0  0  0
 28 27  2  0  0  0
  1  4  1  0  0  0
  1  5  1  0  0  0
  6  5  1  0  0  0
  4 14  1  0  0  0
 24 25  2  0  0  0
 27 25  1  0  0  0
 25 26  1  0  0  0
 14 13  2  0  0  0
 14 11  1  0  0  0
 13 12  1  0  0  0
 11 10  2  0  0  0
 12  9  2  0  0  0
 10  9  1  0  0  0
  9 16  1  0  0  0
 18 16  1  0  0  0
 16 17  2  0  0  0
 16 15  2  0  0  0
 18 19  1  0  0  0
 18 20  1  0  0  0
M  END
> <minimizedAffinity>
-7.73952

$$$$
6H38_FKK_A_302


 28 30  0  0  0  0  0  0  0  0999 V2000
   18.6490   23.8194    2.3901 N   0  0  0  0  0  0  0  0  0  0  0  0
   17.1182   25.4308    4.2017 N   0  0  0  0  0  0  0  0  0  0  0  0
   18.8600   22.0262    1.0703 O   0  0  0  0  0  0  0  0  0  0  0  0
   19.3469   23.0331    1.5532 C   0  0  0  0  0  0  0  0  0  0  0  0
   19.3116   24.7125    3.3384 C   0  0  0  0  0  0  0  0  0  0  0  0
   18.4012   25.8820    3.6468 C   0  0  0  0  0  0  0  0  0  0  0  0
   17.4138   23.3166    2.9903 C   0  0  0  0  0  0  0  0  0  0  0  0
   16.4920   24.4732    3.2845 C   0  0  0  0  0  0  0  0  0  0  0  0
   23.2898   24.4139    0.6594 C   0  0  0  0  0  0  0  0  0  0  0  0
   22.2072   24.8998   -0.0545 C   0  0  0  0  0  0  0  0  0  0  0  0
   20.9433   24.4040    0.2021 C   0  0  0  0  0  0  0  0  0  0  0  0
   23.1143   23.4301    1.6204 C   0  0  0  0  0  0  0  0  0  0  0  0
   21.8412   22.9428    1.8712 C   0  0  0  0  0  0  0  0  0  0  0  0
   20.7411   23.4281    1.1718 C   0  0  0  0  0  0  0  0  0  0  0  0
   25.7936   24.4573    1.2826 O   0  0  0  0  0  0  0  0  0  0  0  0
   24.8988   25.0797    0.3514 S   0  0  0  0  0  0  0  0  0  0  0  0
   25.1563   24.9258   -1.0501 O   0  0  0  0  0  0  0  0  0  0  0  0
   24.8837   26.6497    0.6728 N   0  0  0  0  0  0  0  0  0  0  0  0
   24.2540   27.1233    0.0251 H   0  0  0  0  0  0  0  0  0  0  0  0
   25.8256   27.0272    0.5684 H   0  0  0  0  0  0  0  0  0  0  0  0
   16.2197   26.5719    4.4261 C   0  0  0  0  0  0  0  0  0  0  0  0
   15.9812   26.8741    5.8863 C   0  0  0  0  0  0  0  0  0  0  0  0
   15.6331   28.1521    6.2992 C   0  0  0  0  0  0  0  0  0  0  0  0
   15.4908   28.4559    7.6412 C   0  0  0  0  0  0  0  0  0  0  0  0
   15.7000   27.4604    8.5565 C   0  0  0  0  0  0  0  0  0  0  0  0
   15.5660   27.7513    9.8770 F   0  0  0  0  0  0  0  0  0  0  0  0
   16.0394   26.1856    8.1986 C   0  0  0  0  0  0  0  0  0  0  0  0
   16.1789   25.8983    6.8525 C   0  0  0  0  0  0  0  0  0  0  0  0
  8  7  1  0  0  0
  8  2  1  0  0  0
 21  2  1  0  0  0
 21 22  1  0  0  0
  7  1  1  0  0  0
  2  6  1  0  0  0
 22 23  2  0  0  0
 22 28  1  0  0  0
 23 24  1  0  0  0
  3  4  2  0  0  0
 28 27  2  0  0  0
  1  4  1  0  0  0
  1  5  1  0  0  0
  6  5  1  0  0  0
  4 14  1  0  0  0
 24 25  2  0  0  0
 27 25  1  0  0  0
 25 26  1  0  0  0
 14 13  2  0  0  0
 14 11  1  0  0  0
 13 12  1  0  0  0
 11 10  2  0  0  0
 12  9  2  0  0  0
 10  9  1  0  0  0
  9 16  1  0  0  0
 18 16  1  0  0  0
 16 17  2  0  0  0
 16 15  2  0  0  0
 18 19  1  0  0  0
 18 20  1  0  0  0
M  END
> <minimizedAffinity>
-7.55482

$$$$
6H38_FKK_A_302


 28 30  0  0  0  0  0  0  0  0999 V2000
   17.1900   21.3191    3.6707 N   0  0  0  0  0  0  0  0  0  0  0  0
   16.4499   23.8472    4.8033 N   0  0  0  0  0  0  0  0  0  0  0  0
   16.7003   19.4978    2.4686 O   0  0  0  0  0  0  0  0  0  0  0  0
   17.4999   20.1231    3.1422 C   0  0  0  0  0  0  0  0  0  0  0  0
   17.8933   21.8503    4.8365 C   0  0  0  0  0  0  0  0  0  0  0  0
   17.8366   23.3628    4.8110 C   0  0  0  0  0  0  0  0  0  0  0  0
   15.7917   21.7446    3.7212 C   0  0  0  0  0  0  0  0  0  0  0  0
   15.7237   23.2505    3.6776 C   0  0  0  0  0  0  0  0  0  0  0  0
   21.4685   18.7668    3.9562 C   0  0  0  0  0  0  0  0  0  0  0  0
   21.2575   19.7778    3.0336 C   0  0  0  0  0  0  0  0  0  0  0  0
   19.9666   20.1690    2.7342 C   0  0  0  0  0  0  0  0  0  0  0  0
   20.3954   18.1416    4.5723 C   0  0  0  0  0  0  0  0  0  0  0  0
   19.1052   18.5449    4.2662 C   0  0  0  0  0  0  0  0  0  0  0  0
   18.8755   19.5667    3.3507 C   0  0  0  0  0  0  0  0  0  0  0  0
   23.0351   17.2716    5.3595 O   0  0  0  0  0  0  0  0  0  0  0  0
   23.1244   18.2971    4.3617 S   0  0  0  0  0  0  0  0  0  0  0  0
   23.7893   17.9940    3.1287 O   0  0  0  0  0  0  0  0  0  0  0  0
   23.8747   19.5493    5.0230 N   0  0  0  0  0  0  0  0  0  0  0  0
   23.9546   20.2992    4.3362 H   0  0  0  0  0  0  0  0  0  0  0  0
   24.8062   19.2659    5.3268 H   0  0  0  0  0  0  0  0  0  0  0  0
   16.4126   25.3130    4.7039 C   0  0  0  0  0  0  0  0  0  0  0  0
   16.0829   25.9981    6.0087 C   0  0  0  0  0  0  0  0  0  0  0  0
   15.7657   27.3483    6.0412 C   0  0  0  0  0  0  0  0  0  0  0  0
   15.5406   28.0012    7.2399 C   0  0  0  0  0  0  0  0  0  0  0  0
   15.6359   27.2793    8.3985 C   0  0  0  0  0  0  0  0  0  0  0  0
   15.4199   27.9138    9.5805 F   0  0  0  0  0  0  0  0  0  0  0  0
   15.9405   25.9470    8.4172 C   0  0  0  0  0  0  0  0  0  0  0  0
   16.1640   25.3091    7.2100 C   0  0  0  0  0  0  0  0  0  0  0  0
  8  7  1  0  0  0
  8  2  1  0  0  0
 21  2  1  0  0  0
 21 22  1  0  0  0
  7  1  1  0  0  0
  2  6  1  0  0  0
 22 23  2  0  0  0
 22 28  1  0  0  0
 23 24  1  0  0  0
  3  4  2  0  0  0
 28 27  2  0  0  0
  1  4  1  0  0  0
  1  5  1  0  0  0
  6  5  1  0  0  0
  4 14  1  0  0  0
 24 25  2  0  0  0
 27 25  1  0  0  0
 25 26  1  0  0  0
 14 13  2  0  0  0
 14 11  1  0  0  0
 13 12  1  0  0  0
 11 10  2  0  0  0
 12  9  2  0  0  0
 10  9  1  0  0  0
  9 16  1  0  0  0
 18 16  1  0  0  0
 16 17  2  0  0  0
 16 15  2  0  0  0
 18 19  1  0  0  0
 18 20  1  0  0  0
M  END
> <minimizedAffinity>
-7.34987

$$$$
6H38_FKK_A_302


 28 30  0  0  0  0  0  0  0  0999 V2000
   16.7631   22.3413    3.9638 N   0  0  0  0  0  0  0  0  0  0  0  0
   18.3889   19.9804    4.0327 N   0  0  0  0  0  0  0  0  0  0  0  0
   15.2716   23.6578    2.9420 O   0  0  0  0  0  0  0  0  0  0  0  0
   16.0034   23.4475    3.8929 C   0  0  0  0  0  0  0  0  0  0  0  0
   17.9655   22.2860    4.7927 C   0  0  0  0  0  0  0  0  0  0  0  0
   18.2266   20.8525    5.2035 C   0  0  0  0  0  0  0  0  0  0  0  0
   16.9722   21.5320    2.7637 C   0  0  0  0  0  0  0  0  0  0  0  0
   17.2150   20.0979    3.1619 C   0  0  0  0  0  0  0  0  0  0  0  0
   15.7564   26.2901    7.0726 C   0  0  0  0  0  0  0  0  0  0  0  0
   16.0392   26.7139    5.7849 C   0  0  0  0  0  0  0  0  0  0  0  0
   16.1749   25.7813    4.7745 C   0  0  0  0  0  0  0  0  0  0  0  0
   15.6178   24.9396    7.3541 C   0  0  0  0  0  0  0  0  0  0  0  0
   15.7529   24.0137    6.3317 C   0  0  0  0  0  0  0  0  0  0  0  0
   16.0252   24.4227    5.0304 C   0  0  0  0  0  0  0  0  0  0  0  0
   14.5588   28.4231    7.8944 O   0  0  0  0  0  0  0  0  0  0  0  0
   15.5476   27.4918    8.3530 S   0  0  0  0  0  0  0  0  0  0  0  0
   15.2973   26.7729    9.5674 O   0  0  0  0  0  0  0  0  0  0  0  0
   16.9197   28.2983    8.5401 N   0  0  0  0  0  0  0  0  0  0  0  0
   17.6465   27.6616    8.8670 H   0  0  0  0  0  0  0  0  0  0  0  0
   16.7862   29.0422    9.2252 H   0  0  0  0  0  0  0  0  0  0  0  0
   18.5678   18.5820    4.4479 C   0  0  0  0  0  0  0  0  0  0  0  0
   20.0108   18.1371    4.4637 C   0  0  0  0  0  0  0  0  0  0  0  0
   21.0297   19.0416    4.7254 C   0  0  0  0  0  0  0  0  0  0  0  0
   22.3579   18.6599    4.6634 C   0  0  0  0  0  0  0  0  0  0  0  0
   22.6444   17.3617    4.3387 C   0  0  0  0  0  0  0  0  0  0  0  0
   23.9466   16.9795    4.2719 F   0  0  0  0  0  0  0  0  0  0  0  0
   21.6757   16.4334    4.0774 C   0  0  0  0  0  0  0  0  0  0  0  0
   20.3523   16.8314    4.1425 C   0  0  0  0  0  0  0  0  0  0  0  0
  8  7  1  0  0  0
  8  2  1  0  0  0
 21  2  1  0  0  0
 21 22  1  0  0  0
  7  1  1  0  0  0
  2  6  1  0  0  0
 22 23  2  0  0  0
 22 28  1  0  0  0
 23 24  1  0  0  0
  3  4  2  0  0  0
 28 27  2  0  0  0
  1  4  1  0  0  0
  1  5  1  0  0  0
  6  5  1  0  0  0
  4 14  1  0  0  0
 24 25  2  0  0  0
 27 25  1  0  0  0
 25 26  1  0  0  0
 14 13  2  0  0  0
 14 11  1  0  0  0
 13 12  1  0  0  0
 11 10  2  0  0  0
 12  9  2  0  0  0
 10  9  1  0  0  0
  9 16  1  0  0  0
 18 16  1  0  0  0
 16 17  2  0  0  0
 16 15  2  0  0  0
 18 19  1  0  0  0
 18 20  1  0  0  0
M  END
> <minimizedAffinity>
-7.29175

$$$$
6H38_FKK_A_302


 28 30  0  0  0  0  0  0  0  0999 V2000
   18.7319   22.4643    3.8793 N   0  0  0  0  0  0  0  0  0  0  0  0
   16.8068   23.6384    5.6504 N   0  0  0  0  0  0  0  0  0  0  0  0
   19.4618   20.7457    2.6482 O   0  0  0  0  0  0  0  0  0  0  0  0
   19.6252   21.8792    3.0635 C   0  0  0  0  0  0  0  0  0  0  0  0
   19.1034   23.5700    4.7597 C   0  0  0  0  0  0  0  0  0  0  0  0
   17.8842   24.4242    5.0346 C   0  0  0  0  0  0  0  0  0  0  0  0
   17.7164   21.6464    4.5415 C   0  0  0  0  0  0  0  0  0  0  0  0
   16.4900   22.4842    4.8032 C   0  0  0  0  0  0  0  0  0  0  0  0
   22.9703   24.0260    1.4970 C   0  0  0  0  0  0  0  0  0  0  0  0
   23.0595   22.6597    1.7042 C   0  0  0  0  0  0  0  0  0  0  0  0
   21.9929   21.9842    2.2658 C   0  0  0  0  0  0  0  0  0  0  0  0
   21.8243   24.7186    1.8566 C   0  0  0  0  0  0  0  0  0  0  0  0
   20.7598   24.0297    2.4161 C   0  0  0  0  0  0  0  0  0  0  0  0
   20.8279   22.6554    2.6204 C   0  0  0  0  0  0  0  0  0  0  0  0
   24.1423   24.7803   -0.6748 O   0  0  0  0  0  0  0  0  0  0  0  0
   24.3249   24.8773    0.7438 S   0  0  0  0  0  0  0  0  0  0  0  0
   24.3843   26.1807    1.3370 O   0  0  0  0  0  0  0  0  0  0  0  0
   25.6870   24.1155    1.1080 N   0  0  0  0  0  0  0  0  0  0  0  0
   25.8465   24.1664    2.1142 H   0  0  0  0  0  0  0  0  0  0  0  0
   26.4650   24.5568    0.6177 H   0  0  0  0  0  0  0  0  0  0  0  0
   15.6064   24.4643    5.8425 C   0  0  0  0  0  0  0  0  0  0  0  0
   15.8851   25.7862    6.5172 C   0  0  0  0  0  0  0  0  0  0  0  0
   16.3016   25.8344    7.8397 C   0  0  0  0  0  0  0  0  0  0  0  0
   16.4821   27.0427    8.4888 C   0  0  0  0  0  0  0  0  0  0  0  0
   16.2417   28.1951    7.7911 C   0  0  0  0  0  0  0  0  0  0  0  0
   16.4130   29.3861    8.4224 F   0  0  0  0  0  0  0  0  0  0  0  0
   15.8350   28.1988    6.4862 C   0  0  0  0  0  0  0  0  0  0  0  0
   15.6579   26.9822    5.8518 C   0  0  0  0  0  0  0  0  0  0  0  0
  8  7  1  0  0  0
  8  2  1  0  0  0
 21  2  1  0  0  0
 21 22  1  0  0  0
  7  1  1  0  0  0
  2  6  1  0  0  0
 22 23  2  0  0  0
 22 28  1  0  0  0
 23 24  1  0  0  0
  3  4  2  0  0  0
 28 27  2  0  0  0
  1  4  1  0  0  0
  1  5  1  0  0  0
  6  5  1  0  0  0
  4 14  1  0  0  0
 24 25  2  0  0  0
 27 25  1  0  0  0
 25 26  1  0  0  0
 14 13  2  0  0  0
 14 11  1  0  0  0
 13 12  1  0  0  0
 11 10  2  0  0  0
 12  9  2  0  0  0
 10  9  1  0  0  0
  9 16  1  0  0  0
 18 16  1  0  0  0
 16 17  2  0  0  0
 16 15  2  0  0  0
 18 19  1  0  0  0
 18 20  1  0  0  0
M  END
> <minimizedAffinity>
-7.25587

$$$$
6H38_FKK_A_302


 28 30  0  0  0  0  0  0  0  0999 V2000
   17.9427   24.1560    2.8961 N   0  0  0  0  0  0  0  0  0  0  0  0
   20.5069   23.2495    1.9879 N   0  0  0  0  0  0  0  0  0  0  0  0
   15.7167   24.2411    2.6963 O   0  0  0  0  0  0  0  0  0  0  0  0
   16.7281   24.5792    3.2853 C   0  0  0  0  0  0  0  0  0  0  0  0
   19.1590   24.8907    3.2377 C   0  0  0  0  0  0  0  0  0  0  0  0
   20.3302   23.9323    3.2763 C   0  0  0  0  0  0  0  0  0  0  0  0
   18.1058   23.5492    1.5755 C   0  0  0  0  0  0  0  0  0  0  0  0
   19.2594   22.5785    1.6086 C   0  0  0  0  0  0  0  0  0  0  0  0
   16.0819   27.0138    6.7359 C   0  0  0  0  0  0  0  0  0  0  0  0
   15.9491   27.5580    5.4695 C   0  0  0  0  0  0  0  0  0  0  0  0
   16.2172   26.7782    4.3608 C   0  0  0  0  0  0  0  0  0  0  0  0
   16.4892   25.6984    6.8971 C   0  0  0  0  0  0  0  0  0  0  0  0
   16.7522   24.9251    5.7774 C   0  0  0  0  0  0  0  0  0  0  0  0
   16.6126   25.4521    4.4977 C   0  0  0  0  0  0  0  0  0  0  0  0
   16.7770   28.9414    8.3046 O   0  0  0  0  0  0  0  0  0  0  0  0
   15.7012   28.0068    8.1488 S   0  0  0  0  0  0  0  0  0  0  0  0
   14.3754   28.5172    7.9590 O   0  0  0  0  0  0  0  0  0  0  0  0
   15.6804   27.0737    9.4517 N   0  0  0  0  0  0  0  0  0  0  0  0
   14.9232   26.3950    9.3718 H   0  0  0  0  0  0  0  0  0  0  0  0
   15.5343   27.6501   10.2804 H   0  0  0  0  0  0  0  0  0  0  0  0
   21.6000   22.2702    2.0649 C   0  0  0  0  0  0  0  0  0  0  0  0
   21.1552   20.9049    2.5323 C   0  0  0  0  0  0  0  0  0  0  0  0
   20.9192   20.6568    3.8767 C   0  0  0  0  0  0  0  0  0  0  0  0
   20.5890   19.3896    4.3227 C   0  0  0  0  0  0  0  0  0  0  0  0
   20.4976   18.3820    3.4014 C   0  0  0  0  0  0  0  0  0  0  0  0
   20.1775   17.1335    3.8315 F   0  0  0  0  0  0  0  0  0  0  0  0
   20.7161   18.5780    2.0664 C   0  0  0  0  0  0  0  0  0  0  0  0
   21.0466   19.8509    1.6367 C   0  0  0  0  0  0  0  0  0  0  0  0
  8  7  1  0  0  0
  8  2  1  0  0  0
 21  2  1  0  0  0
 21 22  1  0  0  0
  7  1  1  0  0  0
  2  6  1  0  0  0
 22 23  2  0  0  0
 22 28  1  0  0  0
 23 24  1  0  0  0
  3  4  2  0  0  0
 28 27  2  0  0  0
  1  4  1  0  0  0
  1  5  1  0  0  0
  6  5  1  0  0  0
  4 14  1  0  0  0
 24 25  2  0  0  0
 27 25  1  0  0  0
 25 26  1  0  0  0
 14 13  2  0  0  0
 14 11  1  0  0  0
 13 12  1  0  0  0
 11 10  2  0  0  0
 12  9  2  0  0  0
 10  9  1  0  0  0
  9 16  1  0  0  0
 18 16  1  0  0  0
 16 17  2  0  0  0
 16 15  2  0  0  0
 18 19  1  0  0  0
 18 20  1  0  0  0
M  END
> <minimizedAffinity>
-7.13615

$$$$
6H38_FKK_A_302


 28 30  0  0  0  0  0  0  0  0999 V2000
   18.5784   24.7260    3.3316 N   0  0  0  0  0  0  0  0  0  0  0  0
   21.1026   23.9370    2.2235 N   0  0  0  0  0  0  0  0  0  0  0  0
   17.0377   26.2876    3.7668 O   0  0  0  0  0  0  0  0  0  0  0  0
   17.4099   25.1312    3.8571 C   0  0  0  0  0  0  0  0  0  0  0  0
   19.2687   23.5337    3.8193 C   0  0  0  0  0  0  0  0  0  0  0  0
   20.1213   22.9577    2.7089 C   0  0  0  0  0  0  0  0  0  0  0  0
   19.5710   25.7212    2.9276 C   0  0  0  0  0  0  0  0  0  0  0  0
   20.4139   25.1633    1.8085 C   0  0  0  0  0  0  0  0  0  0  0  0
   14.6442   22.4764    5.7426 C   0  0  0  0  0  0  0  0  0  0  0  0
   15.2813   23.4556    6.4862 C   0  0  0  0  0  0  0  0  0  0  0  0
   16.2176   24.2711    5.8800 C   0  0  0  0  0  0  0  0  0  0  0  0
   14.9456   22.3049    4.4002 C   0  0  0  0  0  0  0  0  0  0  0  0
   15.8842   23.1311    3.8023 C   0  0  0  0  0  0  0  0  0  0  0  0
   16.5250   24.1274    4.5315 C   0  0  0  0  0  0  0  0  0  0  0  0
   13.8341   20.1001    6.3393 O   0  0  0  0  0  0  0  0  0  0  0  0
   13.4204   21.4612    6.5163 S   0  0  0  0  0  0  0  0  0  0  0  0
   13.2478   21.9543    7.8510 O   0  0  0  0  0  0  0  0  0  0  0  0
   12.0270   21.6457    5.7465 N   0  0  0  0  0  0  0  0  0  0  0  0
   11.7042   22.6074    5.8535 H   0  0  0  0  0  0  0  0  0  0  0  0
   11.3342   21.0088    6.1399 H   0  0  0  0  0  0  0  0  0  0  0  0
   21.8711   23.3876    1.0977 C   0  0  0  0  0  0  0  0  0  0  0  0
   23.3572   23.3208    1.3571 C   0  0  0  0  0  0  0  0  0  0  0  0
   23.9536   22.1377    1.7685 C   0  0  0  0  0  0  0  0  0  0  0  0
   25.2995   22.0877    2.0847 C   0  0  0  0  0  0  0  0  0  0  0  0
   26.0329   23.2382    1.9791 C   0  0  0  0  0  0  0  0  0  0  0  0
   27.3547   23.1986    2.2915 F   0  0  0  0  0  0  0  0  0  0  0  0
   25.4916   24.4261    1.5738 C   0  0  0  0  0  0  0  0  0  0  0  0
   24.1440   24.4595    1.2623 C   0  0  0  0  0  0  0  0  0  0  0  0
  8  7  1  0  0  0
  8  2  1  0  0  0
 21  2  1  0  0  0
 21 22  1  0  0  0
  7  1  1  0  0  0
  2  6  1  0  0  0
 22 23  2  0  0  0
 22 28  1  0  0  0
 23 24  1  0  0  0
  3  4  2  0  0  0
 28 27  2  0  0  0
  1  4  1  0  0  0
  1  5  1  0  0  0
  6  5  1  0  0  0
  4 14  1  0  0  0
 24 25  2  0  0  0
 27 25  1  0  0  0
 25 26  1  0  0  0
 14 13  2  0  0  0
 14 11  1  0  0  0
 13 12  1  0  0  0
 11 10  2  0  0  0
 12  9  2  0  0  0
 10  9  1  0  0  0
  9 16  1  0  0  0
 18 16  1  0  0  0
 16 17  2  0  0  0
 16 15  2  0  0  0
 18 19  1  0  0  0
 18 20  1  0  0  0
M  END
> <minimizedAffinity>
-7.11810

$$$$
6H38_FKK_A_302


 28 30  0  0  0  0  0  0  0  0999 V2000
   18.2442   24.9196    3.5457 N   0  0  0  0  0  0  0  0  0  0  0  0
   20.8587   24.1430    2.6609 N   0  0  0  0  0  0  0  0  0  0  0  0
   16.5873   26.4168    3.6687 O   0  0  0  0  0  0  0  0  0  0  0  0
   17.0306   25.3204    3.9609 C   0  0  0  0  0  0  0  0  0  0  0  0
   18.9904   23.8757    4.2452 C   0  0  0  0  0  0  0  0  0  0  0  0
   19.9245   23.1885    3.2721 C   0  0  0  0  0  0  0  0  0  0  0  0
   19.1851   25.9039    3.0123 C   0  0  0  0  0  0  0  0  0  0  0  0
   20.1088   25.2324    2.0274 C   0  0  0  0  0  0  0  0  0  0  0  0
   14.8896   22.4668    6.3116 C   0  0  0  0  0  0  0  0  0  0  0  0
   15.1035   22.2330    4.9635 C   0  0  0  0  0  0  0  0  0  0  0  0
   15.7456   23.1884    4.1992 C   0  0  0  0  0  0  0  0  0  0  0  0
   15.3070   23.6535    6.8945 C   0  0  0  0  0  0  0  0  0  0  0  0
   15.9528   24.6030    6.1184 C   0  0  0  0  0  0  0  0  0  0  0  0
   16.1863   24.3795    4.7655 C   0  0  0  0  0  0  0  0  0  0  0  0
   13.0897   20.6244    6.4699 O   0  0  0  0  0  0  0  0  0  0  0  0
   14.1005   21.2238    7.2910 S   0  0  0  0  0  0  0  0  0  0  0  0
   15.1356   20.3859    7.8206 O   0  0  0  0  0  0  0  0  0  0  0  0
   13.3629   21.9255    8.5287 N   0  0  0  0  0  0  0  0  0  0  0  0
   14.0571   22.3631    9.1345 H   0  0  0  0  0  0  0  0  0  0  0  0
   12.8441   21.2242    9.0574 H   0  0  0  0  0  0  0  0  0  0  0  0
   21.7080   23.4735    1.6657 C   0  0  0  0  0  0  0  0  0  0  0  0
   22.9616   24.2438    1.3262 C   0  0  0  0  0  0  0  0  0  0  0  0
   23.4270   25.2472    2.1637 C   0  0  0  0  0  0  0  0  0  0  0  0
   24.5285   26.0108    1.8211 C   0  0  0  0  0  0  0  0  0  0  0  0
   25.1530   25.7499    0.6318 C   0  0  0  0  0  0  0  0  0  0  0  0
   26.2334   26.4978    0.2859 F   0  0  0  0  0  0  0  0  0  0  0  0
   24.7351   24.7693   -0.2239 C   0  0  0  0  0  0  0  0  0  0  0  0
   23.6313   24.0153    0.1328 C   0  0  0  0  0  0  0  0  0  0  0  0
  8  7  1  0  0  0
  8  2  1  0  0  0
 21  2  1  0  0  0
 21 22  1  0  0  0
  7  1  1  0  0  0
  2  6  1  0  0  0
 22 23  2  0  0  0
 22 28  1  0  0  0
 23 24  1  0  0  0
  3  4  2  0  0  0
 28 27  2  0  0  0
  1  4  1  0  0  0
  1  5  1  0  0  0
  6  5  1  0  0  0
  4 14  1  0  0  0
 24 25  2  0  0  0
 27 25  1  0  0  0
 25 26  1  0  0  0
 14 13  2  0  0  0
 14 11  1  0  0  0
 13 12  1  0  0  0
 11 10  2  0  0  0
 12  9  2  0  0  0
 10  9  1  0  0  0
  9 16  1  0  0  0
 18 16  1  0  0  0
 16 17  2  0  0  0
 16 15  2  0  0  0
 18 19  1  0  0  0
 18 20  1  0  0  0
M  END
> <minimizedAffinity>
-6.98922

$$$$
