6H38_FKK_A_302
  RCSB PDB12151803173D
Coordinates from PDB:6H38:A:302 Model:1 without hydrogens
 26 28  0  0  0  0            999 V2000
   15.9810   26.6210    6.9270   C 0  0  0  0  0  0  0  0  0  0  0  0
   17.7900   23.8910    2.9970   N 0  0  0  0  0  0  0  0  0  0  0  0
   15.8700   27.3550    5.7580   C 0  0  0  0  0  0  0  0  0  0  0  0
   16.7210   27.9680    9.0000   O 0  0  0  0  0  0  0  0  0  0  0  0
   19.9220   22.0220    2.5690   N 0  0  0  0  0  0  0  0  0  0  0  0
   16.1910   26.7660    4.5500   C 0  0  0  0  0  0  0  0  0  0  0  0
   16.0050   25.0210    2.2630   O 0  0  0  0  0  0  0  0  0  0  0  0
   15.5330   27.3700    8.4650   S 0  0  0  0  0  0  0  0  0  0  0  0
   14.4010   28.2110    8.2090   O 0  0  0  0  0  0  0  0  0  0  0  0
   16.4190   25.3060    6.8930   C 0  0  0  0  0  0  0  0  0  0  0  0
   16.7350   24.7250    5.6750   C 0  0  0  0  0  0  0  0  0  0  0  0
   16.6180   25.4440    4.4900   C 0  0  0  0  0  0  0  0  0  0  0  0
   16.7920   24.7760    3.1600   C 0  0  0  0  0  0  0  0  0  0  0  0
   18.9950   23.9300    3.8230   C 0  0  0  0  0  0  0  0  0  0  0  0
   19.5940   22.5420    3.9030   C 0  0  0  0  0  0  0  0  0  0  0  0
   18.1480   23.4480    1.6500   C 0  0  0  0  0  0  0  0  0  0  0  0
   18.7290   22.0580    1.7170   C 0  0  0  0  0  0  0  0  0  0  0  0
   20.4330   20.6470    2.6590   C 0  0  0  0  0  0  0  0  0  0  0  0
   21.8700   20.5660    3.1160   C 0  0  0  0  0  0  0  0  0  0  0  0
   22.8970   21.0490    2.3180   C 0  0  0  0  0  0  0  0  0  0  0  0
   24.2210   20.9070    2.6930   C 0  0  0  0  0  0  0  0  0  0  0  0
   24.4950   20.2780    3.8770   C 0  0  0  0  0  0  0  0  0  0  0  0
   25.7930   20.1310    4.2510   F 0  0  0  0  0  0  0  0  0  0  0  0
   23.5180   19.7900    4.6990   C 0  0  0  0  0  0  0  0  0  0  0  0
   22.1990   19.9390    4.3090   C 0  0  0  0  0  0  0  0  0  0  0  0
   15.0670   26.2260    9.4860   N 0  0  0  0  0  0  0  0  0  0  0  0
 17 16  1  0  0  0  0
 17  5  1  0  0  0  0
 18  5  1  0  0  0  0
 18 19  1  0  0  0  0
 16  2  1  0  0  0  0
  5 15  1  0  0  0  0
 19 20  2  0  0  0  0
 19 25  1  0  0  0  0
 20 21  1  0  0  0  0
  7 13  2  0  0  0  0
 25 24  2  0  0  0  0
  2 13  1  0  0  0  0
  2 14  1  0  0  0  0
 15 14  1  0  0  0  0
 13 12  1  0  0  0  0
 21 22  2  0  0  0  0
 24 22  1  0  0  0  0
 22 23  1  0  0  0  0
 12 11  2  0  0  0  0
 12  6  1  0  0  0  0
 11 10  1  0  0  0  0
  6  3  2  0  0  0  0
 10  1  2  0  0  0  0
  3  1  1  0  0  0  0
  1  8  1  0  0  0  0
 26  8  1  0  0  0  0
  8  9  2  0  0  0  0
  8  4  2  0  0  0  0
A    1
C1
A    2
N2
A    3
C2
A    4
O2
A    5
N3
A    6
C3
A    7
O3
A    8
S1
A    9
O1
A   10
C6
A   11
C5
A   12
C4
A   13
C7
A   14
C11
A   15
C10
A   16
C8
A   17
C9
A   18
C12
A   19
C13
A   20
C14
A   21
C15
A   22
C16
A   23
F
A   24
C17
A   25
C18
A   26
N1
M  END
>  <InstanceId>
6H38_FKK_A_302

>  <ChemCompId>
FKK

>  <PdbId>
6H38

>  <ChainId>
A

>  <ResidueNumber>
302

>  <InsertionCode>


>  <Model>
1

>  <AltIds>


>  <MissingHeavyAtoms>
0

>  <ObservedFormula>
C18 N3 O3 S F

>  <Name>
4-[4-[(4-fluorophenyl)methyl]piperazin-1-yl]carbonylbenzenesulfonamide

>  <SystematicName>
4-[4-[(4-fluorophenyl)methyl]piperazin-1-yl]carbonylbenzenesulfonamide

>  <Synonyms>


>  <Type>
NON-POLYMER

>  <Formula>
C18 H20 F N3 O3 S

>  <MolecularWeight>
377.433

>  <ModifiedDate>
2018-12-14

>  <Parent>


>  <OneLetterCode>


>  <SubcomponentList>


>  <AmbiguousFlag>
N

>  <InChI>
InChI=1S/C18H20FN3O3S/c19-16-5-1-14(2-6-16)13-21-9-11-22(12-10-21)18(23)15-3-7-17(8-4-15)26(20,24)25/h1-8H,9-13H2,(H2,20,24,25)

>  <InChIKey>
XFZDOSQYWUGODS-UHFFFAOYSA-N

>  <SMILES>
c1cc(ccc1CN2CCN(CC2)C(=O)c3ccc(cc3)S(=O)(=O)N)F

$$$$
