2E1W_FR6_A_1
  RCSB PDB12061705243D
Coordinates from PDB:2E1W:A:1 Model:1 without hydrogens
 24 26  0  0  0  0            999 V2000
   51.5270   54.5190   20.9790   C 0  0  0  0  0  0  0  0  0  0  0  0
   51.4640   55.5440   22.0340   N 0  0  0  0  0  0  0  0  0  0  0  0
   51.3380   54.9180   23.2050   C 0  0  0  0  0  0  0  0  0  0  0  0
   51.4810   53.5840   23.0650   N 0  0  0  0  0  0  0  0  0  0  0  0
   51.5360   53.3320   21.6090   C 0  0  0  0  0  0  0  0  0  0  0  0
   51.5700   51.9650   21.0070   C 0  0  0  0  0  0  0  0  0  0  0  0
   52.0650   51.6940   19.9230   O 0  0  0  0  0  0  0  0  0  0  0  0
   51.1200   50.9800   21.7510   N 0  0  0  0  0  0  0  0  0  0  0  0
   51.5520   56.9910   21.8560   C 0  0  0  0  0  0  0  0  0  0  0  0
   53.0510   57.5330   21.8270   C 0  0  0  0  0  0  0  0  0  0  0  0
   53.9690   57.2110   22.9310   O 0  0  0  0  0  0  0  0  0  0  0  0
   50.6710   57.4600   20.6780   C 0  0  0  0  0  0  0  0  0  0  0  0
   49.1300   57.3580   20.8840   C 0  0  0  0  0  0  0  0  0  0  0  0
   48.4170   57.8360   19.6260   C 0  0  0  0  0  0  0  0  0  0  0  0
   48.0220   59.1820   19.5170   C 0  0  0  0  0  0  0  0  0  0  0  0
   47.5180   59.7000   18.3220   C 0  0  0  0  0  0  0  0  0  0  0  0
   47.5040   58.9030   17.1760   C 0  0  0  0  0  0  0  0  0  0  0  0
   47.9030   57.5590   17.2590   C 0  0  0  0  0  0  0  0  0  0  0  0
   48.3880   57.0270   18.4650   C 0  0  0  0  0  0  0  0  0  0  0  0
   47.7620   56.7650   16.1080   C 0  0  0  0  0  0  0  0  0  0  0  0
   48.6780   55.6420   18.5240   C 0  0  0  0  0  0  0  0  0  0  0  0
   48.0980   55.4130   16.1710   C 0  0  0  0  0  0  0  0  0  0  0  0
   48.5200   54.8420   17.3770   C 0  0  0  0  0  0  0  0  0  0  0  0
   53.8140   57.3180   20.4920   C 0  0  0  0  0  0  0  0  0  0  0  0
  1  2  1  0  0  0  0
  1  5  2  0  0  0  0
  2  3  1  0  0  0  0
  2  9  1  0  0  0  0
  3  4  2  0  0  0  0
  4  5  1  0  0  0  0
  5  6  1  0  0  0  0
  6  7  2  0  0  0  0
  6  8  1  0  0  0  0
  9 10  1  0  0  0  0
  9 12  1  0  0  0  0
 10 11  1  0  0  0  0
 10 24  1  0  0  0  0
 12 13  1  0  0  0  0
 13 14  1  0  0  0  0
 14 15  2  0  0  0  0
 14 19  1  0  0  0  0
 15 16  1  0  0  0  0
 16 17  2  0  0  0  0
 17 18  1  0  0  0  0
 18 19  2  0  0  0  0
 18 20  1  0  0  0  0
 19 21  1  0  0  0  0
 20 22  2  0  0  0  0
 21 23  2  0  0  0  0
 22 23  1  0  0  0  0
A    1
C1
A    2
N2
A    3
C3
A    4
N4
A    5
C5
A    6
C8
A    7
O9
A    8
N10
A    9
C13
A   10
C14
A   11
O15
A   12
C18
A   13
C19
A   14
C22
A   15
C25
A   16
C26
A   17
C27
A   18
C28
A   19
C29
A   20
C2
A   21
C4
A   22
C6
A   23
C7
A   24
C9
M  END
>  <InstanceId>
2E1W_FR6_A_1

>  <ChemCompId>
FR6

>  <PdbId>
2E1W

>  <ChainId>
A

>  <ResidueNumber>
1

>  <InsertionCode>


>  <Model>
1

>  <AltIds>


>  <MissingHeavyAtoms>
0

>  <ObservedFormula>
C19 N3 O2

>  <Name>
1-{(1R,2S)-2-HYDROXY-1-[2-(1-NAPHTHYL)ETHYL]PROPYL}-1H-IMIDAZOLE-4-CARBOXAMIDE

>  <SystematicName>
1-[(3R,4S)-4-hydroxy-1-naphthalen-1-yl-pentan-3-yl]imidazole-4-carboxamide

>  <Synonyms>
FR233623

>  <Type>
NON-POLYMER

>  <Formula>
C19 H21 N3 O2

>  <MolecularWeight>
323.389

>  <ModifiedDate>
2011-06-04

>  <Parent>


>  <OneLetterCode>


>  <SubcomponentList>


>  <AmbiguousFlag>
N

>  <InChI>
InChI=1S/C19H21N3O2/c1-13(23)18(22-11-17(19(20)24)21-12-22)10-9-15-7-4-6-14-5-2-3-8-16(14)15/h2-8,11-13,18,23H,9-10H2,1H3,(H2,20,24)/t13-,18+/m0/s1

>  <InChIKey>
OODDZQQDDOVCFD-SCLBCKFNSA-N

>  <SMILES>
C[C@@H]([C@@H](CCc1cccc2c1cccc2)n3cc(nc3)C(=O)N)O

$$$$
