2E1W_FR6_A_1


 27 29  0  0  0  0  0  0  0  0999 V2000
   51.3304   53.6846   20.6159 C   0  0  0  0  0  0  0  0  0  0  0  0
   52.5317   56.0138   20.7281 C   0  0  0  0  0  0  0  0  0  0  0  0
   51.8289   54.8633   21.3198 N   0  0  0  0  0  0  0  0  0  0  0  0
   51.6966   55.0934   22.6269 C   0  0  0  0  0  0  0  0  0  0  0  0
   52.0818   56.3464   22.9450 N   0  0  0  0  0  0  0  0  0  0  0  0
   52.6838   56.9101   21.7177 C   0  0  0  0  0  0  0  0  0  0  0  0
   53.3524   58.2451   21.6625 C   0  0  0  0  0  0  0  0  0  0  0  0
   54.3497   58.4972   21.0027 O   0  0  0  0  0  0  0  0  0  0  0  0
   52.7574   59.2309   22.2953 N   0  0  0  0  0  0  0  0  0  0  0  0
   51.9522   59.0553   22.8339 H   0  0  0  0  0  0  0  0  0  0  0  0
   53.1169   60.1452   22.2309 H   0  0  0  0  0  0  0  0  0  0  0  0
   51.6667   52.3158   21.3607 C   0  0  0  0  0  0  0  0  0  0  0  0
   50.7580   51.8025   22.3980 O   0  0  0  0  0  0  0  0  0  0  0  0
   52.0570   51.1304   20.4371 C   0  0  0  0  0  0  0  0  0  0  0  0
   49.9587   51.4457   21.9798 H   0  0  0  0  0  0  0  0  0  0  0  0
   49.8480   53.8596   20.2210 C   0  0  0  0  0  0  0  0  0  0  0  0
   49.5703   54.6752   18.9228 C   0  0  0  0  0  0  0  0  0  0  0  0
   48.7947   55.9382   19.2730 C   0  0  0  0  0  0  0  0  0  0  0  0
   48.7790   56.4011   20.6016 C   0  0  0  0  0  0  0  0  0  0  0  0
   48.2232   57.6377   20.9368 C   0  0  0  0  0  0  0  0  0  0  0  0
   47.7698   58.4872   19.9262 C   0  0  0  0  0  0  0  0  0  0  0  0
   47.7849   58.0499   18.5916 C   0  0  0  0  0  0  0  0  0  0  0  0
   48.3209   56.7968   18.2525 C   0  0  0  0  0  0  0  0  0  0  0  0
   47.2118   58.8921   17.6233 C   0  0  0  0  0  0  0  0  0  0  0  0
   48.2174   56.3590   16.9096 C   0  0  0  0  0  0  0  0  0  0  0  0
   47.1616   58.4650   16.2968 C   0  0  0  0  0  0  0  0  0  0  0  0
   47.6274   57.1938   15.9423 C   0  0  0  0  0  0  0  0  0  0  0  0
  2  3  1  0  0  0
  2  6  2  0  0  0
  3  4  1  0  0  0
  3  1  1  0  0  0
  4  5  2  0  0  0
  5  6  1  0  0  0
  6  7  1  0  0  0
  7  8  2  0  0  0
  7  9  1  0  0  0
  1 12  1  0  0  0
  1 16  1  0  0  0
 12 13  1  0  0  0
 12 14  1  0  0  0
 16 17  1  0  0  0
 17 18  1  0  0  0
 18 19  2  0  0  0
 18 23  1  0  0  0
 19 20  1  0  0  0
 20 21  2  0  0  0
 21 22  1  0  0  0
 22 23  2  0  0  0
 22 24  1  0  0  0
 23 25  1  0  0  0
 24 26  2  0  0  0
 25 27  2  0  0  0
 26 27  1  0  0  0
  9 10  1  0  0  0
  9 11  1  0  0  0
 13 15  1  0  0  0
M  END
> <minimizedAffinity>
-9.33933

$$$$
2E1W_FR6_A_1


 27 29  0  0  0  0  0  0  0  0999 V2000
   50.2868   51.1088   19.6859 C   0  0  0  0  0  0  0  0  0  0  0  0
   50.4572   50.6347   17.1116 C   0  0  0  0  0  0  0  0  0  0  0  0
   49.8046   50.5439   18.4282 N   0  0  0  0  0  0  0  0  0  0  0  0
   48.6919   49.8228   18.2839 C   0  0  0  0  0  0  0  0  0  0  0  0
   48.6174   49.2786   17.0519 N   0  0  0  0  0  0  0  0  0  0  0  0
   49.7331   49.8667   16.2800 C   0  0  0  0  0  0  0  0  0  0  0  0
   49.9469   49.6255   14.8211 C   0  0  0  0  0  0  0  0  0  0  0  0
   49.1457   49.9116   13.9436 O   0  0  0  0  0  0  0  0  0  0  0  0
   51.1239   49.1633   14.4645 N   0  0  0  0  0  0  0  0  0  0  0  0
   51.7879   48.9252   15.1513 H   0  0  0  0  0  0  0  0  0  0  0  0
   51.3419   49.0551   13.5106 H   0  0  0  0  0  0  0  0  0  0  0  0
   51.2328   50.1176   20.5009 C   0  0  0  0  0  0  0  0  0  0  0  0
   52.0430   50.6293   21.6177 O   0  0  0  0  0  0  0  0  0  0  0  0
   50.5733   48.7884   20.9578 C   0  0  0  0  0  0  0  0  0  0  0  0
   51.4694   50.8020   22.3807 H   0  0  0  0  0  0  0  0  0  0  0  0
   50.8629   52.5254   19.4734 C   0  0  0  0  0  0  0  0  0  0  0  0
   49.8350   53.6963   19.4714 C   0  0  0  0  0  0  0  0  0  0  0  0
   50.1621   54.6608   20.6037 C   0  0  0  0  0  0  0  0  0  0  0  0
   51.3203   54.4611   21.3773 C   0  0  0  0  0  0  0  0  0  0  0  0
   51.7459   55.4079   22.3115 C   0  0  0  0  0  0  0  0  0  0  0  0
   51.0772   56.6294   22.4098 C   0  0  0  0  0  0  0  0  0  0  0  0
   49.9242   56.8546   21.6402 C   0  0  0  0  0  0  0  0  0  0  0  0
   49.4785   55.8950   20.7165 C   0  0  0  0  0  0  0  0  0  0  0  0
   49.2189   58.0506   21.8575 C   0  0  0  0  0  0  0  0  0  0  0  0
   48.2544   56.1242   20.0420 C   0  0  0  0  0  0  0  0  0  0  0  0
   48.0401   58.2815   21.1490 C   0  0  0  0  0  0  0  0  0  0  0  0
   47.5378   57.3133   20.2723 C   0  0  0  0  0  0  0  0  0  0  0  0
  2  3  1  0  0  0
  2  6  2  0  0  0
  3  4  1  0  0  0
  3  1  1  0  0  0
  4  5  2  0  0  0
  5  6  1  0  0  0
  6  7  1  0  0  0
  7  8  2  0  0  0
  7  9  1  0  0  0
  1 12  1  0  0  0
  1 16  1  0  0  0
 12 13  1  0  0  0
 12 14  1  0  0  0
 16 17  1  0  0  0
 17 18  1  0  0  0
 18 19  2  0  0  0
 18 23  1  0  0  0
 19 20  1  0  0  0
 20 21  2  0  0  0
 21 22  1  0  0  0
 22 23  2  0  0  0
 22 24  1  0  0  0
 23 25  1  0  0  0
 24 26  2  0  0  0
 25 27  2  0  0  0
 26 27  1  0  0  0
  9 10  1  0  0  0
  9 11  1  0  0  0
 13 15  1  0  0  0
M  END
> <minimizedAffinity>
-9.19819

$$$$
2E1W_FR6_A_1


 27 29  0  0  0  0  0  0  0  0999 V2000
   49.0497   53.4222   18.4324 C   0  0  0  0  0  0  0  0  0  0  0  0
   50.3444   51.3246   19.3293 C   0  0  0  0  0  0  0  0  0  0  0  0
   50.2631   52.6920   18.7896 N   0  0  0  0  0  0  0  0  0  0  0  0
   51.5076   53.1520   18.6529 C   0  0  0  0  0  0  0  0  0  0  0  0
   52.4162   52.1815   18.8812 N   0  0  0  0  0  0  0  0  0  0  0  0
   51.6521   51.0198   19.3840 C   0  0  0  0  0  0  0  0  0  0  0  0
   52.2891   49.7611   19.8761 C   0  0  0  0  0  0  0  0  0  0  0  0
   53.4890   49.5310   19.8474 O   0  0  0  0  0  0  0  0  0  0  0  0
   51.5014   48.8920   20.4680 N   0  0  0  0  0  0  0  0  0  0  0  0
   50.5308   49.0530   20.5054 H   0  0  0  0  0  0  0  0  0  0  0  0
   51.8816   48.0798   20.8742 H   0  0  0  0  0  0  0  0  0  0  0  0
   49.1816   54.9989   18.6281 C   0  0  0  0  0  0  0  0  0  0  0  0
   48.6523   55.9121   17.6029 O   0  0  0  0  0  0  0  0  0  0  0  0
   48.7499   55.5385   20.0185 C   0  0  0  0  0  0  0  0  0  0  0  0
   47.6838   55.9286   17.6534 H   0  0  0  0  0  0  0  0  0  0  0  0
   48.5247   52.9831   17.0484 C   0  0  0  0  0  0  0  0  0  0  0  0
   47.2835   52.0413   17.0469 C   0  0  0  0  0  0  0  0  0  0  0  0
   47.6816   50.6779   16.4972 C   0  0  0  0  0  0  0  0  0  0  0  0
   48.8968   50.5336   15.8030 C   0  0  0  0  0  0  0  0  0  0  0  0
   49.3785   49.2773   15.4288 C   0  0  0  0  0  0  0  0  0  0  0  0
   48.7030   48.1279   15.8426 C   0  0  0  0  0  0  0  0  0  0  0  0
   47.4929   48.2478   16.5453 C   0  0  0  0  0  0  0  0  0  0  0  0
   46.9921   49.5103   16.9029 C   0  0  0  0  0  0  0  0  0  0  0  0
   46.7901   47.0667   16.8391 C   0  0  0  0  0  0  0  0  0  0  0  0
   45.7182   49.5823   17.5174 C   0  0  0  0  0  0  0  0  0  0  0  0
   45.5588   47.1534   17.4880 C   0  0  0  0  0  0  0  0  0  0  0  0
   45.0051   48.4013   17.7958 C   0  0  0  0  0  0  0  0  0  0  0  0
  2  3  1  0  0  0
  2  6  2  0  0  0
  3  4  1  0  0  0
  3  1  1  0  0  0
  4  5  2  0  0  0
  5  6  1  0  0  0
  6  7  1  0  0  0
  7  8  2  0  0  0
  7  9  1  0  0  0
  1 12  1  0  0  0
  1 16  1  0  0  0
 12 13  1  0  0  0
 12 14  1  0  0  0
 16 17  1  0  0  0
 17 18  1  0  0  0
 18 19  2  0  0  0
 18 23  1  0  0  0
 19 20  1  0  0  0
 20 21  2  0  0  0
 21 22  1  0  0  0
 22 23  2  0  0  0
 22 24  1  0  0  0
 23 25  1  0  0  0
 24 26  2  0  0  0
 25 27  2  0  0  0
 26 27  1  0  0  0
  9 10  1  0  0  0
  9 11  1  0  0  0
 13 15  1  0  0  0
M  END
> <minimizedAffinity>
-9.03267

$$$$
2E1W_FR6_A_1


 27 29  0  0  0  0  0  0  0  0999 V2000
   49.3753   55.9970   20.4563 C   0  0  0  0  0  0  0  0  0  0  0  0
   51.7243   57.1209   20.7719 C   0  0  0  0  0  0  0  0  0  0  0  0
   50.6522   56.1818   21.1409 N   0  0  0  0  0  0  0  0  0  0  0  0
   51.0370   55.5343   22.2417 C   0  0  0  0  0  0  0  0  0  0  0  0
   52.1733   56.0581   22.7458 N   0  0  0  0  0  0  0  0  0  0  0  0
   52.6450   57.0417   21.7476 C   0  0  0  0  0  0  0  0  0  0  0  0
   53.9451   57.7701   21.8546 C   0  0  0  0  0  0  0  0  0  0  0  0
   54.3475   58.5976   21.0503 O   0  0  0  0  0  0  0  0  0  0  0  0
   54.6478   57.5681   22.9462 N   0  0  0  0  0  0  0  0  0  0  0  0
   54.3461   56.9072   23.6106 H   0  0  0  0  0  0  0  0  0  0  0  0
   55.4761   58.0776   23.0997 H   0  0  0  0  0  0  0  0  0  0  0  0
   48.3501   57.1933   20.6998 C   0  0  0  0  0  0  0  0  0  0  0  0
   48.5747   58.1384   21.8050 O   0  0  0  0  0  0  0  0  0  0  0  0
   47.9684   58.0140   19.4384 C   0  0  0  0  0  0  0  0  0  0  0  0
   49.3055   58.7343   21.5774 H   0  0  0  0  0  0  0  0  0  0  0  0
   49.5894   55.6192   18.9746 C   0  0  0  0  0  0  0  0  0  0  0  0
   50.3217   54.2709   18.7039 C   0  0  0  0  0  0  0  0  0  0  0  0
   49.3114   53.2280   18.2445 C   0  0  0  0  0  0  0  0  0  0  0  0
   48.3375   53.5736   17.2897 C   0  0  0  0  0  0  0  0  0  0  0  0
   47.5014   52.6115   16.7190 C   0  0  0  0  0  0  0  0  0  0  0  0
   47.7011   51.2616   17.0136 C   0  0  0  0  0  0  0  0  0  0  0  0
   48.6742   50.8924   17.9566 C   0  0  0  0  0  0  0  0  0  0  0  0
   49.5013   51.8594   18.5512 C   0  0  0  0  0  0  0  0  0  0  0  0
   48.7600   49.5341   18.3070 C   0  0  0  0  0  0  0  0  0  0  0  0
   50.3939   51.4494   19.5716 C   0  0  0  0  0  0  0  0  0  0  0  0
   49.6786   49.1410   19.2798 C   0  0  0  0  0  0  0  0  0  0  0  0
   50.4679   50.0922   19.9362 C   0  0  0  0  0  0  0  0  0  0  0  0
  2  3  1  0  0  0
  2  6  2  0  0  0
  3  4  1  0  0  0
  3  1  1  0  0  0
  4  5  2  0  0  0
  5  6  1  0  0  0
  6  7  1  0  0  0
  7  8  2  0  0  0
  7  9  1  0  0  0
  1 12  1  0  0  0
  1 16  1  0  0  0
 12 13  1  0  0  0
 12 14  1  0  0  0
 16 17  1  0  0  0
 17 18  1  0  0  0
 18 19  2  0  0  0
 18 23  1  0  0  0
 19 20  1  0  0  0
 20 21  2  0  0  0
 21 22  1  0  0  0
 22 23  2  0  0  0
 22 24  1  0  0  0
 23 25  1  0  0  0
 24 26  2  0  0  0
 25 27  2  0  0  0
 26 27  1  0  0  0
  9 10  1  0  0  0
  9 11  1  0  0  0
 13 15  1  0  0  0
M  END
> <minimizedAffinity>
-8.90316

$$$$
2E1W_FR6_A_1


 27 29  0  0  0  0  0  0  0  0999 V2000
   50.3186   51.3463   18.4558 C   0  0  0  0  0  0  0  0  0  0  0  0
   48.0673   50.1170   17.9070 C   0  0  0  0  0  0  0  0  0  0  0  0
   49.3238   50.7918   17.5414 N   0  0  0  0  0  0  0  0  0  0  0  0
   49.3908   50.8374   16.2101 C   0  0  0  0  0  0  0  0  0  0  0  0
   48.2382   50.4201   15.6472 N   0  0  0  0  0  0  0  0  0  0  0  0
   47.4128   49.8927   16.7549 C   0  0  0  0  0  0  0  0  0  0  0  0
   46.0960   49.2157   16.5554 C   0  0  0  0  0  0  0  0  0  0  0  0
   45.7813   48.5862   15.5562 O   0  0  0  0  0  0  0  0  0  0  0  0
   45.2665   49.2239   17.5743 N   0  0  0  0  0  0  0  0  0  0  0  0
   45.4955   49.7231   18.3914 H   0  0  0  0  0  0  0  0  0  0  0  0
   44.4160   48.7309   17.5208 H   0  0  0  0  0  0  0  0  0  0  0  0
   51.7379   50.6274   18.3552 C   0  0  0  0  0  0  0  0  0  0  0  0
   52.6901   51.0270   17.3070 O   0  0  0  0  0  0  0  0  0  0  0  0
   52.5205   50.5030   19.6904 C   0  0  0  0  0  0  0  0  0  0  0  0
   53.0771   51.8874   17.5326 H   0  0  0  0  0  0  0  0  0  0  0  0
   50.3646   52.8865   18.3584 C   0  0  0  0  0  0  0  0  0  0  0  0
   49.2314   53.6599   19.0968 C   0  0  0  0  0  0  0  0  0  0  0  0
   49.8238   54.4326   20.2678 C   0  0  0  0  0  0  0  0  0  0  0  0
   51.0003   53.9694   20.8852 C   0  0  0  0  0  0  0  0  0  0  0  0
   51.6674   54.7303   21.8476 C   0  0  0  0  0  0  0  0  0  0  0  0
   51.2275   56.0246   22.1305 C   0  0  0  0  0  0  0  0  0  0  0  0
   50.0609   56.5116   21.5188 C   0  0  0  0  0  0  0  0  0  0  0  0
   49.3729   55.7402   20.5679 C   0  0  0  0  0  0  0  0  0  0  0  0
   49.5921   57.7739   21.9213 C   0  0  0  0  0  0  0  0  0  0  0  0
   48.1463   56.2320   20.0587 C   0  0  0  0  0  0  0  0  0  0  0  0
   48.4070   58.2640   21.3735 C   0  0  0  0  0  0  0  0  0  0  0  0
   47.6665   57.4880   20.4746 C   0  0  0  0  0  0  0  0  0  0  0  0
  2  3  1  0  0  0
  2  6  2  0  0  0
  3  4  1  0  0  0
  3  1  1  0  0  0
  4  5  2  0  0  0
  5  6  1  0  0  0
  6  7  1  0  0  0
  7  8  2  0  0  0
  7  9  1  0  0  0
  1 12  1  0  0  0
  1 16  1  0  0  0
 12 13  1  0  0  0
 12 14  1  0  0  0
 16 17  1  0  0  0
 17 18  1  0  0  0
 18 19  2  0  0  0
 18 23  1  0  0  0
 19 20  1  0  0  0
 20 21  2  0  0  0
 21 22  1  0  0  0
 22 23  2  0  0  0
 22 24  1  0  0  0
 23 25  1  0  0  0
 24 26  2  0  0  0
 25 27  2  0  0  0
 26 27  1  0  0  0
  9 10  1  0  0  0
  9 11  1  0  0  0
 13 15  1  0  0  0
M  END
> <minimizedAffinity>
-8.86042

$$$$
2E1W_FR6_A_1


 27 29  0  0  0  0  0  0  0  0999 V2000
   49.3810   53.0400   17.7689 C   0  0  0  0  0  0  0  0  0  0  0  0
   50.7892   50.9819   18.5824 C   0  0  0  0  0  0  0  0  0  0  0  0
   50.1115   52.2746   18.7757 N   0  0  0  0  0  0  0  0  0  0  0  0
   50.3025   52.6509   20.0410 C   0  0  0  0  0  0  0  0  0  0  0  0
   51.1758   51.8359   20.6678 N   0  0  0  0  0  0  0  0  0  0  0  0
   51.4323   50.7195   19.7328 C   0  0  0  0  0  0  0  0  0  0  0  0
   52.2562   49.5225   20.0803 C   0  0  0  0  0  0  0  0  0  0  0  0
   53.4681   49.4478   19.9421 O   0  0  0  0  0  0  0  0  0  0  0  0
   51.6324   48.5252   20.6657 N   0  0  0  0  0  0  0  0  0  0  0  0
   50.6564   48.5599   20.7896 H   0  0  0  0  0  0  0  0  0  0  0  0
   52.1411   47.7433   20.9804 H   0  0  0  0  0  0  0  0  0  0  0  0
   48.6089   52.1237   16.7174 C   0  0  0  0  0  0  0  0  0  0  0  0
   49.3670   51.2315   15.8260 O   0  0  0  0  0  0  0  0  0  0  0  0
   47.4054   51.3235   17.2847 C   0  0  0  0  0  0  0  0  0  0  0  0
   49.6970   50.4728   16.3323 H   0  0  0  0  0  0  0  0  0  0  0  0
   48.5187   54.1398   18.4253 C   0  0  0  0  0  0  0  0  0  0  0  0
   48.8090   55.6041   17.9791 C   0  0  0  0  0  0  0  0  0  0  0  0
   48.9583   56.4894   19.2093 C   0  0  0  0  0  0  0  0  0  0  0  0
   47.8155   57.0537   19.8052 C   0  0  0  0  0  0  0  0  0  0  0  0
   47.8875   57.7314   21.0242 C   0  0  0  0  0  0  0  0  0  0  0  0
   49.0932   57.7604   21.7274 C   0  0  0  0  0  0  0  0  0  0  0  0
   50.2449   57.1950   21.1562 C   0  0  0  0  0  0  0  0  0  0  0  0
   50.1822   56.5333   19.9189 C   0  0  0  0  0  0  0  0  0  0  0  0
   51.4587   57.3503   21.8473 C   0  0  0  0  0  0  0  0  0  0  0  0
   51.3886   56.0729   19.3373 C   0  0  0  0  0  0  0  0  0  0  0  0
   52.6304   56.8481   21.2821 C   0  0  0  0  0  0  0  0  0  0  0  0
   52.6073   56.2439   20.0200 C   0  0  0  0  0  0  0  0  0  0  0  0
  2  3  1  0  0  0
  2  6  2  0  0  0
  3  4  1  0  0  0
  3  1  1  0  0  0
  4  5  2  0  0  0
  5  6  1  0  0  0
  6  7  1  0  0  0
  7  8  2  0  0  0
  7  9  1  0  0  0
  1 12  1  0  0  0
  1 16  1  0  0  0
 12 13  1  0  0  0
 12 14  1  0  0  0
 16 17  1  0  0  0
 17 18  1  0  0  0
 18 19  2  0  0  0
 18 23  1  0  0  0
 19 20  1  0  0  0
 20 21  2  0  0  0
 21 22  1  0  0  0
 22 23  2  0  0  0
 22 24  1  0  0  0
 23 25  1  0  0  0
 24 26  2  0  0  0
 25 27  2  0  0  0
 26 27  1  0  0  0
  9 10  1  0  0  0
  9 11  1  0  0  0
 13 15  1  0  0  0
M  END
> <minimizedAffinity>
-8.82997

$$$$
2E1W_FR6_A_1


 27 29  0  0  0  0  0  0  0  0999 V2000
   51.2297   51.2773   19.4585 C   0  0  0  0  0  0  0  0  0  0  0  0
   51.7774   53.6475   20.4396 C   0  0  0  0  0  0  0  0  0  0  0  0
   51.3646   52.2386   20.5498 N   0  0  0  0  0  0  0  0  0  0  0  0
   51.1029   51.9886   21.8335 C   0  0  0  0  0  0  0  0  0  0  0  0
   51.1312   53.1195   22.5683 N   0  0  0  0  0  0  0  0  0  0  0  0
   51.6352   54.1773   21.6664 C   0  0  0  0  0  0  0  0  0  0  0  0
   51.9368   55.5707   22.1134 C   0  0  0  0  0  0  0  0  0  0  0  0
   51.6020   56.0444   23.1890 O   0  0  0  0  0  0  0  0  0  0  0  0
   52.7006   56.2924   21.3246 N   0  0  0  0  0  0  0  0  0  0  0  0
   52.9848   55.9346   20.4526 H   0  0  0  0  0  0  0  0  0  0  0  0
   52.9887   57.1908   21.6057 H   0  0  0  0  0  0  0  0  0  0  0  0
   51.8660   49.8536   19.7897 C   0  0  0  0  0  0  0  0  0  0  0  0
   53.2012   49.7714   20.4026 O   0  0  0  0  0  0  0  0  0  0  0  0
   50.9341   48.8625   20.5381 C   0  0  0  0  0  0  0  0  0  0  0  0
   53.1447   50.0280   21.3364 H   0  0  0  0  0  0  0  0  0  0  0  0
   49.7778   51.2318   18.9351 C   0  0  0  0  0  0  0  0  0  0  0  0
   49.5781   50.6585   17.5002 C   0  0  0  0  0  0  0  0  0  0  0  0
   48.4174   49.6724   17.5046 C   0  0  0  0  0  0  0  0  0  0  0  0
   47.8675   49.2480   18.7282 C   0  0  0  0  0  0  0  0  0  0  0  0
   46.7026   48.4793   18.7769 C   0  0  0  0  0  0  0  0  0  0  0  0
   46.0014   48.2135   17.5995 C   0  0  0  0  0  0  0  0  0  0  0  0
   46.5265   48.6359   16.3673 C   0  0  0  0  0  0  0  0  0  0  0  0
   47.7109   49.3887   16.3115 C   0  0  0  0  0  0  0  0  0  0  0  0
   45.8467   48.2453   15.2009 C   0  0  0  0  0  0  0  0  0  0  0  0
   48.2541   49.7000   15.0411 C   0  0  0  0  0  0  0  0  0  0  0  0
   46.3706   48.6019   13.9586 C   0  0  0  0  0  0  0  0  0  0  0  0
   47.5840   49.2938   13.8722 C   0  0  0  0  0  0  0  0  0  0  0  0
  2  3  1  0  0  0
  2  6  2  0  0  0
  3  4  1  0  0  0
  3  1  1  0  0  0
  4  5  2  0  0  0
  5  6  1  0  0  0
  6  7  1  0  0  0
  7  8  2  0  0  0
  7  9  1  0  0  0
  1 12  1  0  0  0
  1 16  1  0  0  0
 12 13  1  0  0  0
 12 14  1  0  0  0
 16 17  1  0  0  0
 17 18  1  0  0  0
 18 19  2  0  0  0
 18 23  1  0  0  0
 19 20  1  0  0  0
 20 21  2  0  0  0
 21 22  1  0  0  0
 22 23  2  0  0  0
 22 24  1  0  0  0
 23 25  1  0  0  0
 24 26  2  0  0  0
 25 27  2  0  0  0
 26 27  1  0  0  0
  9 10  1  0  0  0
  9 11  1  0  0  0
 13 15  1  0  0  0
M  END
> <minimizedAffinity>
-8.73275

$$$$
2E1W_FR6_A_1


 27 29  0  0  0  0  0  0  0  0999 V2000
   49.2869   56.0949   20.5310 C   0  0  0  0  0  0  0  0  0  0  0  0
   51.6869   57.1344   20.7311 C   0  0  0  0  0  0  0  0  0  0  0  0
   50.5803   56.2758   21.1849 N   0  0  0  0  0  0  0  0  0  0  0  0
   50.9524   55.7002   22.3291 C   0  0  0  0  0  0  0  0  0  0  0  0
   52.1176   56.2108   22.7778 N   0  0  0  0  0  0  0  0  0  0  0  0
   52.6172   57.0910   21.6999 C   0  0  0  0  0  0  0  0  0  0  0  0
   53.9492   57.7670   21.7348 C   0  0  0  0  0  0  0  0  0  0  0  0
   54.3423   58.5736   20.9051 O   0  0  0  0  0  0  0  0  0  0  0  0
   54.6988   57.5422   22.7902 N   0  0  0  0  0  0  0  0  0  0  0  0
   54.4056   56.8973   23.4738 H   0  0  0  0  0  0  0  0  0  0  0  0
   55.5536   58.0186   22.8973 H   0  0  0  0  0  0  0  0  0  0  0  0
   48.9548   57.2322   19.4644 C   0  0  0  0  0  0  0  0  0  0  0  0
   48.5790   56.8624   18.0906 O   0  0  0  0  0  0  0  0  0  0  0  0
   47.9762   58.3366   19.9473 C   0  0  0  0  0  0  0  0  0  0  0  0
   47.6741   56.5129   18.0859 H   0  0  0  0  0  0  0  0  0  0  0  0
   49.1258   54.6508   20.0092 C   0  0  0  0  0  0  0  0  0  0  0  0
   50.2751   54.1096   19.1072 C   0  0  0  0  0  0  0  0  0  0  0  0
   50.6787   52.7189   19.5790 C   0  0  0  0  0  0  0  0  0  0  0  0
   51.5810   52.5803   20.6496 C   0  0  0  0  0  0  0  0  0  0  0  0
   51.8492   51.3345   21.2211 C   0  0  0  0  0  0  0  0  0  0  0  0
   51.1308   50.2137   20.8013 C   0  0  0  0  0  0  0  0  0  0  0  0
   50.2176   50.3304   19.7407 C   0  0  0  0  0  0  0  0  0  0  0  0
   49.9624   51.5773   19.1467 C   0  0  0  0  0  0  0  0  0  0  0  0
   49.6045   49.1543   19.2761 C   0  0  0  0  0  0  0  0  0  0  0  0
   49.1136   51.6248   18.0139 C   0  0  0  0  0  0  0  0  0  0  0  0
   48.7336   49.2268   18.1893 C   0  0  0  0  0  0  0  0  0  0  0  0
   48.5132   50.4449   17.5365 C   0  0  0  0  0  0  0  0  0  0  0  0
  2  3  1  0  0  0
  2  6  2  0  0  0
  3  4  1  0  0  0
  3  1  1  0  0  0
  4  5  2  0  0  0
  5  6  1  0  0  0
  6  7  1  0  0  0
  7  8  2  0  0  0
  7  9  1  0  0  0
  1 12  1  0  0  0
  1 16  1  0  0  0
 12 13  1  0  0  0
 12 14  1  0  0  0
 16 17  1  0  0  0
 17 18  1  0  0  0
 18 19  2  0  0  0
 18 23  1  0  0  0
 19 20  1  0  0  0
 20 21  2  0  0  0
 21 22  1  0  0  0
 22 23  2  0  0  0
 22 24  1  0  0  0
 23 25  1  0  0  0
 24 26  2  0  0  0
 25 27  2  0  0  0
 26 27  1  0  0  0
  9 10  1  0  0  0
  9 11  1  0  0  0
 13 15  1  0  0  0
M  END
> <minimizedAffinity>
-8.59272

$$$$
2E1W_FR6_A_1


 27 29  0  0  0  0  0  0  0  0999 V2000
   48.4688   54.3357   17.9274 C   0  0  0  0  0  0  0  0  0  0  0  0
   49.7446   54.0949   20.2067 C   0  0  0  0  0  0  0  0  0  0  0  0
   49.5747   53.8721   18.7613 N   0  0  0  0  0  0  0  0  0  0  0  0
   50.6050   53.1390   18.3369 C   0  0  0  0  0  0  0  0  0  0  0  0
   51.3549   52.7039   19.3703 N   0  0  0  0  0  0  0  0  0  0  0  0
   50.8260   53.3854   20.5713 C   0  0  0  0  0  0  0  0  0  0  0  0
   51.4501   53.2792   21.9246 C   0  0  0  0  0  0  0  0  0  0  0  0
   51.6182   54.2177   22.6891 O   0  0  0  0  0  0  0  0  0  0  0  0
   51.7436   52.0702   22.3471 N   0  0  0  0  0  0  0  0  0  0  0  0
   51.6176   51.2965   21.7515 H   0  0  0  0  0  0  0  0  0  0  0  0
   52.0895   51.9381   23.2594 H   0  0  0  0  0  0  0  0  0  0  0  0
   48.6421   55.8401   17.4291 C   0  0  0  0  0  0  0  0  0  0  0  0
   48.0632   56.2581   16.1425 O   0  0  0  0  0  0  0  0  0  0  0  0
   48.3131   56.9346   18.4801 C   0  0  0  0  0  0  0  0  0  0  0  0
   47.1006   56.3374   16.2317 H   0  0  0  0  0  0  0  0  0  0  0  0
   48.1496   53.3169   16.8121 C   0  0  0  0  0  0  0  0  0  0  0  0
   47.1543   52.1767   17.1817 C   0  0  0  0  0  0  0  0  0  0  0  0
   47.6342   50.8664   16.5715 C   0  0  0  0  0  0  0  0  0  0  0  0
   48.8543   50.8284   15.8720 C   0  0  0  0  0  0  0  0  0  0  0  0
   49.4116   49.6222   15.4419 C   0  0  0  0  0  0  0  0  0  0  0  0
   48.8091   48.4160   15.8035 C   0  0  0  0  0  0  0  0  0  0  0  0
   47.5955   48.4295   16.5103 C   0  0  0  0  0  0  0  0  0  0  0  0
   47.0189   49.6415   16.9241 C   0  0  0  0  0  0  0  0  0  0  0  0
   46.9674   47.1954   16.7505 C   0  0  0  0  0  0  0  0  0  0  0  0
   45.7443   49.6073   17.5407 C   0  0  0  0  0  0  0  0  0  0  0  0
   45.7346   47.1770   17.4021 C   0  0  0  0  0  0  0  0  0  0  0  0
   45.1060   48.3734   17.7655 C   0  0  0  0  0  0  0  0  0  0  0  0
  2  3  1  0  0  0
  2  6  2  0  0  0
  3  4  1  0  0  0
  3  1  1  0  0  0
  4  5  2  0  0  0
  5  6  1  0  0  0
  6  7  1  0  0  0
  7  8  2  0  0  0
  7  9  1  0  0  0
  1 12  1  0  0  0
  1 16  1  0  0  0
 12 13  1  0  0  0
 12 14  1  0  0  0
 16 17  1  0  0  0
 17 18  1  0  0  0
 18 19  2  0  0  0
 18 23  1  0  0  0
 19 20  1  0  0  0
 20 21  2  0  0  0
 21 22  1  0  0  0
 22 23  2  0  0  0
 22 24  1  0  0  0
 23 25  1  0  0  0
 24 26  2  0  0  0
 25 27  2  0  0  0
 26 27  1  0  0  0
  9 10  1  0  0  0
  9 11  1  0  0  0
 13 15  1  0  0  0
M  END
> <minimizedAffinity>
-8.27371

$$$$
2E1W_FR6_A_1


 27 29  0  0  0  0  0  0  0  0999 V2000
   48.9217   52.1523   17.0349 C   0  0  0  0  0  0  0  0  0  0  0  0
   49.5206   50.6318   19.0867 C   0  0  0  0  0  0  0  0  0  0  0  0
   49.8517   51.4090   17.8809 N   0  0  0  0  0  0  0  0  0  0  0  0
   51.1640   51.2968   17.6700 C   0  0  0  0  0  0  0  0  0  0  0  0
   51.7183   50.3924   18.5033 N   0  0  0  0  0  0  0  0  0  0  0  0
   50.6559   50.0179   19.4611 C   0  0  0  0  0  0  0  0  0  0  0  0
   50.8801   49.1237   20.6369 C   0  0  0  0  0  0  0  0  0  0  0  0
   51.0997   47.9235   20.5666 O   0  0  0  0  0  0  0  0  0  0  0  0
   50.9398   49.7008   21.8157 N   0  0  0  0  0  0  0  0  0  0  0  0
   50.7671   50.6663   21.9003 H   0  0  0  0  0  0  0  0  0  0  0  0
   51.1571   49.1677   22.6143 H   0  0  0  0  0  0  0  0  0  0  0  0
   47.9900   51.2133   16.1450 C   0  0  0  0  0  0  0  0  0  0  0  0
   48.5859   50.3697   15.0970 O   0  0  0  0  0  0  0  0  0  0  0  0
   46.9665   50.3494   16.9304 C   0  0  0  0  0  0  0  0  0  0  0  0
   49.0468   49.6213   15.5075 H   0  0  0  0  0  0  0  0  0  0  0  0
   48.1692   53.2274   17.8484 C   0  0  0  0  0  0  0  0  0  0  0  0
   48.7992   54.6523   17.8597 C   0  0  0  0  0  0  0  0  0  0  0  0
   49.4364   54.9149   19.2178 C   0  0  0  0  0  0  0  0  0  0  0  0
   50.5419   54.1481   19.6294 C   0  0  0  0  0  0  0  0  0  0  0  0
   51.2577   54.4625   20.7865 C   0  0  0  0  0  0  0  0  0  0  0  0
   50.9458   55.6231   21.4969 C   0  0  0  0  0  0  0  0  0  0  0  0
   49.8523   56.4092   21.0986 C   0  0  0  0  0  0  0  0  0  0  0  0
   49.1144   56.0832   19.9489 C   0  0  0  0  0  0  0  0  0  0  0  0
   49.5053   57.5023   21.9109 C   0  0  0  0  0  0  0  0  0  0  0  0
   47.9590   56.8455   19.6493 C   0  0  0  0  0  0  0  0  0  0  0  0
   48.3920   58.2716   21.5739 C   0  0  0  0  0  0  0  0  0  0  0  0
   47.5999   57.9293   20.4721 C   0  0  0  0  0  0  0  0  0  0  0  0
  2  3  1  0  0  0
  2  6  2  0  0  0
  3  4  1  0  0  0
  3  1  1  0  0  0
  4  5  2  0  0  0
  5  6  1  0  0  0
  6  7  1  0  0  0
  7  8  2  0  0  0
  7  9  1  0  0  0
  1 12  1  0  0  0
  1 16  1  0  0  0
 12 13  1  0  0  0
 12 14  1  0  0  0
 16 17  1  0  0  0
 17 18  1  0  0  0
 18 19  2  0  0  0
 18 23  1  0  0  0
 19 20  1  0  0  0
 20 21  2  0  0  0
 21 22  1  0  0  0
 22 23  2  0  0  0
 22 24  1  0  0  0
 23 25  1  0  0  0
 24 26  2  0  0  0
 25 27  2  0  0  0
 26 27  1  0  0  0
  9 10  1  0  0  0
  9 11  1  0  0  0
 13 15  1  0  0  0
M  END
> <minimizedAffinity>
-8.23790

$$$$
