1F4G_TP4_A_601


 39 40  0  0  0  0  0  0  0  0999 V2000
   13.9672   16.2262   32.0402 C   0  0  0  0  0  0  0  0  0  0  0  0
   14.2258   16.3999   30.6934 C   0  0  0  0  0  0  0  0  0  0  0  0
   14.0712   17.6708   30.1656 C   0  0  0  0  0  0  0  0  0  0  0  0
   13.6840   18.7291   31.0154 C   0  0  0  0  0  0  0  0  0  0  0  0
   13.4381   18.5118   32.3762 C   0  0  0  0  0  0  0  0  0  0  0  0
   13.5860   17.2357   32.9139 C   0  0  0  0  0  0  0  0  0  0  0  0
   13.5001   20.1015   30.3962 C   0  0  0  0  0  0  0  0  0  0  0  0
   12.9265   20.1720   29.1820 N   0  0  0  0  0  0  0  0  0  0  0  0
   14.0084   21.0922   30.9416 O   0  0  0  0  0  0  0  0  0  0  0  0
   12.6155   19.3592   28.7217 H   0  0  0  0  0  0  0  0  0  0  0  0
   12.7720   21.5338   28.5428 C   0  0  0  0  0  0  0  0  0  0  0  0
   11.2259   21.6404   28.2913 C   0  0  0  0  0  0  0  0  0  0  0  0
   10.6747   20.7154   27.6937 O   0  0  0  0  0  0  0  0  0  0  0  0
   10.6740   22.6603   28.7550 O   0  0  0  0  0  0  0  0  0  0  0  0
   11.1852   23.3102   29.1957 H   0  0  0  0  0  0  0  0  0  0  0  0
   13.6068   21.6862   27.2498 C   0  0  0  0  0  0  0  0  0  0  0  0
   14.8252   22.6282   27.3382 C   0  0  0  0  0  0  0  0  0  0  0  0
   14.6131   23.7982   26.3689 C   0  0  0  0  0  0  0  0  0  0  0  0
   15.5330   24.1700   25.6075 O   0  0  0  0  0  0  0  0  0  0  0  0
   13.5082   24.3724   26.3502 O   0  0  0  0  0  0  0  0  0  0  0  0
   16.3620   23.7337   25.6266 H   0  0  0  0  0  0  0  0  0  0  0  0
   14.2556   14.6064   32.6504 S   0  0  0  0  0  0  0  0  0  0  0  0
   15.2426   13.8301   31.7086 O   0  0  0  0  0  0  0  0  0  0  0  0
   12.8373   13.9310   32.7301 O   0  0  0  0  0  0  0  0  0  0  0  0
   14.9705   13.3952   36.2697 C   0  0  0  0  0  0  0  0  0  0  0  0
   14.0014   14.1786   35.3668 C   0  0  0  0  0  0  0  0  0  0  0  0
   14.8720   14.5906   34.2535 N   0  0  0  0  0  0  0  0  0  0  0  0
   16.2989   14.2667   34.4977 C   0  0  0  0  0  0  0  0  0  0  0  0
   16.3143   14.1087   36.0389 C   0  0  0  0  0  0  0  0  0  0  0  0
   17.3188   15.3112   33.9316 C   0  0  0  0  0  0  0  0  0  0  0  0
   18.2968   15.5775   34.6434 O   0  0  0  0  0  0  0  0  0  0  0  0
   17.1693   15.8684   32.7192 N   0  0  0  0  0  0  0  0  0  0  0  0
   16.4514   15.4728   32.1739 H   0  0  0  0  0  0  0  0  0  0  0  0
   17.8911   16.9630   32.0701 C   0  0  0  0  0  0  0  0  0  0  0  0
   17.2742   18.3181   32.4790 C   0  0  0  0  0  0  0  0  0  0  0  0
   18.4287   19.2892   32.8087 C   0  0  0  0  0  0  0  0  0  0  0  0
   19.5664   19.0105   32.3768 O   0  0  0  0  0  0  0  0  0  0  0  0
   18.1505   20.2873   33.4969 O   0  0  0  0  0  0  0  0  0  0  0  0
   19.6961   18.2376   31.8632 H   0  0  0  0  0  0  0  0  0  0  0  0
 25 26  1  0  0  0
 25 29  1  0  0  0
 26 27  1  0  0  0
 27 28  1  0  0  0
 27 22  1  0  0  0
 28 29  1  0  0  0
 28 30  1  0  0  0
 30 31  2  0  0  0
 30 32  1  0  0  0
 32 34  1  0  0  0
 22  1  1  0  0  0
 22 23  2  0  0  0
 22 24  2  0  0  0
  1  2  2  0  0  0
  1  6  1  0  0  0
  2  3  1  0  0  0
  3  4  2  0  0  0
  4  5  1  0  0  0
  4  7  1  0  0  0
  5  6  2  0  0  0
  7  8  1  0  0  0
  7  9  2  0  0  0
  8 11  1  0  0  0
 11 16  1  0  0  0
 11 12  1  0  0  0
 16 17  1  0  0  0
 17 18  1  0  0  0
 18 19  1  0  0  0
 18 20  2  0  0  0
 12 13  2  0  0  0
 12 14  1  0  0  0
 34 35  1  0  0  0
 35 36  1  0  0  0
 36 37  1  0  0  0
 36 38  2  0  0  0
 32 33  1  0  0  0
  8 10  1  0  0  0
 14 15  1  0  0  0
 19 21  1  0  0  0
 37 39  1  0  0  0
M  END
> <minimizedAffinity>
-9.51697

$$$$
1F4G_TP4_A_601


 39 40  0  0  0  0  0  0  0  0999 V2000
   14.3959   16.1883   32.5888 C   0  0  0  0  0  0  0  0  0  0  0  0
   14.2412   17.3183   33.3698 C   0  0  0  0  0  0  0  0  0  0  0  0
   13.5356   18.3820   32.8327 C   0  0  0  0  0  0  0  0  0  0  0  0
   12.9895   18.2642   31.5366 C   0  0  0  0  0  0  0  0  0  0  0  0
   13.1636   17.0989   30.7808 C   0  0  0  0  0  0  0  0  0  0  0  0
   13.8764   16.0266   31.3114 C   0  0  0  0  0  0  0  0  0  0  0  0
   12.2452   19.4593   30.9721 C   0  0  0  0  0  0  0  0  0  0  0  0
   12.0695   19.5191   29.6403 N   0  0  0  0  0  0  0  0  0  0  0  0
   11.9558   20.4076   31.7166 O   0  0  0  0  0  0  0  0  0  0  0  0
   12.3942   18.7975   29.0545 H   0  0  0  0  0  0  0  0  0  0  0  0
   11.3596   20.7249   29.0667 C   0  0  0  0  0  0  0  0  0  0  0  0
   10.0997   20.1021   28.3668 C   0  0  0  0  0  0  0  0  0  0  0  0
    9.6485   19.0510   28.8229 O   0  0  0  0  0  0  0  0  0  0  0  0
    9.6379   20.7561   27.4082 O   0  0  0  0  0  0  0  0  0  0  0  0
   10.0574   21.5486   27.1364 H   0  0  0  0  0  0  0  0  0  0  0  0
   12.2491   21.5384   28.0978 C   0  0  0  0  0  0  0  0  0  0  0  0
   13.7690   21.3018   28.2146 C   0  0  0  0  0  0  0  0  0  0  0  0
   14.3833   22.4469   29.0301 C   0  0  0  0  0  0  0  0  0  0  0  0
   14.9137   23.4241   28.4575 O   0  0  0  0  0  0  0  0  0  0  0  0
   14.3442   22.3896   30.2735 O   0  0  0  0  0  0  0  0  0  0  0  0
   14.9399   23.4611   27.5216 H   0  0  0  0  0  0  0  0  0  0  0  0
   15.2368   14.8573   33.3641 S   0  0  0  0  0  0  0  0  0  0  0  0
   14.8495   13.4935   32.6905 O   0  0  0  0  0  0  0  0  0  0  0  0
   14.8190   14.9248   34.8790 O   0  0  0  0  0  0  0  0  0  0  0  0
   18.9989   13.9852   33.7679 C   0  0  0  0  0  0  0  0  0  0  0  0
   17.7463   14.5371   34.4713 C   0  0  0  0  0  0  0  0  0  0  0  0
   16.9449   15.0355   33.3415 N   0  0  0  0  0  0  0  0  0  0  0  0
   17.6806   14.9805   32.0545 C   0  0  0  0  0  0  0  0  0  0  0  0
   19.1479   14.9102   32.5470 C   0  0  0  0  0  0  0  0  0  0  0  0
   17.3720   16.1561   31.0673 C   0  0  0  0  0  0  0  0  0  0  0  0
   17.0580   15.8446   29.9105 O   0  0  0  0  0  0  0  0  0  0  0  0
   17.4069   17.4408   31.4560 N   0  0  0  0  0  0  0  0  0  0  0  0
   17.5102   17.5710   32.4264 H   0  0  0  0  0  0  0  0  0  0  0  0
   17.3176   18.6802   30.6838 C   0  0  0  0  0  0  0  0  0  0  0  0
   16.4003   19.6890   31.4084 C   0  0  0  0  0  0  0  0  0  0  0  0
   17.2766   20.8566   31.9116 C   0  0  0  0  0  0  0  0  0  0  0  0
   17.0176   22.0032   31.4912 O   0  0  0  0  0  0  0  0  0  0  0  0
   18.1966   20.5756   32.7000 O   0  0  0  0  0  0  0  0  0  0  0  0
   16.3053   22.1345   30.8968 H   0  0  0  0  0  0  0  0  0  0  0  0
 25 26  1  0  0  0
 25 29  1  0  0  0
 26 27  1  0  0  0
 27 28  1  0  0  0
 27 22  1  0  0  0
 28 29  1  0  0  0
 28 30  1  0  0  0
 30 31  2  0  0  0
 30 32  1  0  0  0
 32 34  1  0  0  0
 22  1  1  0  0  0
 22 23  2  0  0  0
 22 24  2  0  0  0
  1  2  2  0  0  0
  1  6  1  0  0  0
  2  3  1  0  0  0
  3  4  2  0  0  0
  4  5  1  0  0  0
  4  7  1  0  0  0
  5  6  2  0  0  0
  7  8  1  0  0  0
  7  9  2  0  0  0
  8 11  1  0  0  0
 11 16  1  0  0  0
 11 12  1  0  0  0
 16 17  1  0  0  0
 17 18  1  0  0  0
 18 19  1  0  0  0
 18 20  2  0  0  0
 12 13  2  0  0  0
 12 14  1  0  0  0
 34 35  1  0  0  0
 35 36  1  0  0  0
 36 37  1  0  0  0
 36 38  2  0  0  0
 32 33  1  0  0  0
  8 10  1  0  0  0
 14 15  1  0  0  0
 19 21  1  0  0  0
 37 39  1  0  0  0
M  END
> <minimizedAffinity>
-9.34128

$$$$
1F4G_TP4_A_601


 39 40  0  0  0  0  0  0  0  0999 V2000
   16.4028   15.1125   34.3246 C   0  0  0  0  0  0  0  0  0  0  0  0
   16.7578   13.9203   34.9275 C   0  0  0  0  0  0  0  0  0  0  0  0
   15.8874   13.3862   35.8628 C   0  0  0  0  0  0  0  0  0  0  0  0
   14.6780   14.0576   36.1431 C   0  0  0  0  0  0  0  0  0  0  0  0
   14.3529   15.2603   35.5048 C   0  0  0  0  0  0  0  0  0  0  0  0
   15.2252   15.8070   34.5669 C   0  0  0  0  0  0  0  0  0  0  0  0
   13.7621   13.4556   37.1917 C   0  0  0  0  0  0  0  0  0  0  0  0
   14.2516   13.2882   38.4329 N   0  0  0  0  0  0  0  0  0  0  0  0
   12.6596   13.0007   36.8531 O   0  0  0  0  0  0  0  0  0  0  0  0
   15.1680   13.5696   38.6573 H   0  0  0  0  0  0  0  0  0  0  0  0
   13.3563   12.6560   39.4748 C   0  0  0  0  0  0  0  0  0  0  0  0
   13.4915   13.6255   40.7023 C   0  0  0  0  0  0  0  0  0  0  0  0
   12.5269   13.7327   41.4603 O   0  0  0  0  0  0  0  0  0  0  0  0
   14.5983   14.1916   40.8219 O   0  0  0  0  0  0  0  0  0  0  0  0
   15.2715   14.0432   40.1873 H   0  0  0  0  0  0  0  0  0  0  0  0
   13.7596   11.2003   39.8068 C   0  0  0  0  0  0  0  0  0  0  0  0
   13.4262   10.7143   41.2324 C   0  0  0  0  0  0  0  0  0  0  0  0
   14.7378   10.4041   41.9652 C   0  0  0  0  0  0  0  0  0  0  0  0
   14.8823   10.7079   43.1697 O   0  0  0  0  0  0  0  0  0  0  0  0
   15.6579    9.8422   41.3418 O   0  0  0  0  0  0  0  0  0  0  0  0
   14.1861   11.1305   43.6331 H   0  0  0  0  0  0  0  0  0  0  0  0
   17.5192   15.6879   33.0990 S   0  0  0  0  0  0  0  0  0  0  0  0
   18.9364   15.0434   33.2981 O   0  0  0  0  0  0  0  0  0  0  0  0
   17.5386   17.2532   33.2532 O   0  0  0  0  0  0  0  0  0  0  0  0
   15.6521   14.0014   30.1415 C   0  0  0  0  0  0  0  0  0  0  0  0
   16.9340   14.0002   30.9930 C   0  0  0  0  0  0  0  0  0  0  0  0
   16.9775   15.3823   31.4979 N   0  0  0  0  0  0  0  0  0  0  0  0
   15.9336   16.2431   30.8898 C   0  0  0  0  0  0  0  0  0  0  0  0
   15.5906   15.4435   29.6078 C   0  0  0  0  0  0  0  0  0  0  0  0
   16.3634   17.7287   30.6452 C   0  0  0  0  0  0  0  0  0  0  0  0
   17.3397   17.9119   29.9055 O   0  0  0  0  0  0  0  0  0  0  0  0
   15.6904   18.7619   31.1765 N   0  0  0  0  0  0  0  0  0  0  0  0
   14.8435   18.5157   31.6140 H   0  0  0  0  0  0  0  0  0  0  0  0
   16.0006   20.1911   31.2163 C   0  0  0  0  0  0  0  0  0  0  0  0
   14.8688   20.9962   30.5418 C   0  0  0  0  0  0  0  0  0  0  0  0
   15.1285   22.4962   30.8013 C   0  0  0  0  0  0  0  0  0  0  0  0
   15.9739   22.8001   31.6681 O   0  0  0  0  0  0  0  0  0  0  0  0
   14.4663   23.3097   30.1330 O   0  0  0  0  0  0  0  0  0  0  0  0
   16.4334   22.1271   32.1307 H   0  0  0  0  0  0  0  0  0  0  0  0
 25 26  1  0  0  0
 25 29  1  0  0  0
 26 27  1  0  0  0
 27 28  1  0  0  0
 27 22  1  0  0  0
 28 29  1  0  0  0
 28 30  1  0  0  0
 30 31  2  0  0  0
 30 32  1  0  0  0
 32 34  1  0  0  0
 22  1  1  0  0  0
 22 23  2  0  0  0
 22 24  2  0  0  0
  1  2  2  0  0  0
  1  6  1  0  0  0
  2  3  1  0  0  0
  3  4  2  0  0  0
  4  5  1  0  0  0
  4  7  1  0  0  0
  5  6  2  0  0  0
  7  8  1  0  0  0
  7  9  2  0  0  0
  8 11  1  0  0  0
 11 16  1  0  0  0
 11 12  1  0  0  0
 16 17  1  0  0  0
 17 18  1  0  0  0
 18 19  1  0  0  0
 18 20  2  0  0  0
 12 13  2  0  0  0
 12 14  1  0  0  0
 34 35  1  0  0  0
 35 36  1  0  0  0
 36 37  1  0  0  0
 36 38  2  0  0  0
 32 33  1  0  0  0
  8 10  1  0  0  0
 14 15  1  0  0  0
 19 21  1  0  0  0
 37 39  1  0  0  0
M  END
> <minimizedAffinity>
-9.15525

$$$$
1F4G_TP4_A_601


 39 40  0  0  0  0  0  0  0  0999 V2000
   14.5277   15.8401   32.2400 C   0  0  0  0  0  0  0  0  0  0  0  0
   14.8913   15.8672   30.9066 C   0  0  0  0  0  0  0  0  0  0  0  0
   15.2416   17.0896   30.3582 C   0  0  0  0  0  0  0  0  0  0  0  0
   15.2368   18.2401   31.1759 C   0  0  0  0  0  0  0  0  0  0  0  0
   14.8683   18.1682   32.5244 C   0  0  0  0  0  0  0  0  0  0  0  0
   14.5094   16.9437   33.0824 C   0  0  0  0  0  0  0  0  0  0  0  0
   15.6015   19.5650   30.5337 C   0  0  0  0  0  0  0  0  0  0  0  0
   14.6286   20.2485   29.9056 N   0  0  0  0  0  0  0  0  0  0  0  0
   16.7914   19.9077   30.4708 O   0  0  0  0  0  0  0  0  0  0  0  0
   13.7048   19.9089   29.8846 H   0  0  0  0  0  0  0  0  0  0  0  0
   14.9922   21.5529   29.2324 C   0  0  0  0  0  0  0  0  0  0  0  0
   14.6954   22.6251   30.3404 C   0  0  0  0  0  0  0  0  0  0  0  0
   14.4548   23.7769   29.9772 O   0  0  0  0  0  0  0  0  0  0  0  0
   14.6998   22.2009   31.5150 O   0  0  0  0  0  0  0  0  0  0  0  0
   14.8968   21.3012   31.6875 H   0  0  0  0  0  0  0  0  0  0  0  0
   14.1971   21.7953   27.9282 C   0  0  0  0  0  0  0  0  0  0  0  0
   15.0240   22.2410   26.7046 C   0  0  0  0  0  0  0  0  0  0  0  0
   14.8290   23.7493   26.5028 C   0  0  0  0  0  0  0  0  0  0  0  0
   15.4951   24.5728   27.1679 O   0  0  0  0  0  0  0  0  0  0  0  0
   13.9971   24.1423   25.6636 O   0  0  0  0  0  0  0  0  0  0  0  0
   16.1195   24.2705   27.7978 H   0  0  0  0  0  0  0  0  0  0  0  0
   14.1687   14.2466   32.8812 S   0  0  0  0  0  0  0  0  0  0  0  0
   15.0820   13.1626   32.2071 O   0  0  0  0  0  0  0  0  0  0  0  0
   12.6399   14.0148   32.5929 O   0  0  0  0  0  0  0  0  0  0  0  0
   13.6134   13.0825   36.5437 C   0  0  0  0  0  0  0  0  0  0  0  0
   13.1463   14.0464   35.4388 C   0  0  0  0  0  0  0  0  0  0  0  0
   14.3426   14.1524   34.5874 N   0  0  0  0  0  0  0  0  0  0  0  0
   15.5225   13.4741   35.1776 C   0  0  0  0  0  0  0  0  0  0  0  0
   15.1139   13.3996   36.6703 C   0  0  0  0  0  0  0  0  0  0  0  0
   16.8939   14.1782   34.9036 C   0  0  0  0  0  0  0  0  0  0  0  0
   17.1973   15.1178   35.6513 O   0  0  0  0  0  0  0  0  0  0  0  0
   17.7245   13.7670   33.9321 N   0  0  0  0  0  0  0  0  0  0  0  0
   17.4634   12.9201   33.5032 H   0  0  0  0  0  0  0  0  0  0  0  0
   18.9512   14.3625   33.4019 C   0  0  0  0  0  0  0  0  0  0  0  0
   18.6736   15.0079   32.0270 C   0  0  0  0  0  0  0  0  0  0  0  0
   18.5021   16.5280   32.2379 C   0  0  0  0  0  0  0  0  0  0  0  0
   18.2477   16.9315   33.3916 O   0  0  0  0  0  0  0  0  0  0  0  0
   18.6188   17.2557   31.2360 O   0  0  0  0  0  0  0  0  0  0  0  0
   18.1752   16.3189   34.0968 H   0  0  0  0  0  0  0  0  0  0  0  0
 25 26  1  0  0  0
 25 29  1  0  0  0
 26 27  1  0  0  0
 27 28  1  0  0  0
 27 22  1  0  0  0
 28 29  1  0  0  0
 28 30  1  0  0  0
 30 31  2  0  0  0
 30 32  1  0  0  0
 32 34  1  0  0  0
 22  1  1  0  0  0
 22 23  2  0  0  0
 22 24  2  0  0  0
  1  2  2  0  0  0
  1  6  1  0  0  0
  2  3  1  0  0  0
  3  4  2  0  0  0
  4  5  1  0  0  0
  4  7  1  0  0  0
  5  6  2  0  0  0
  7  8  1  0  0  0
  7  9  2  0  0  0
  8 11  1  0  0  0
 11 16  1  0  0  0
 11 12  1  0  0  0
 16 17  1  0  0  0
 17 18  1  0  0  0
 18 19  1  0  0  0
 18 20  2  0  0  0
 12 13  2  0  0  0
 12 14  1  0  0  0
 34 35  1  0  0  0
 35 36  1  0  0  0
 36 37  1  0  0  0
 36 38  2  0  0  0
 32 33  1  0  0  0
  8 10  1  0  0  0
 14 15  1  0  0  0
 19 21  1  0  0  0
 37 39  1  0  0  0
M  END
> <minimizedAffinity>
-9.03541

$$$$
1F4G_TP4_A_601


 39 40  0  0  0  0  0  0  0  0999 V2000
   15.1530   14.1253   33.6213 C   0  0  0  0  0  0  0  0  0  0  0  0
   13.7738   14.1080   33.7125 C   0  0  0  0  0  0  0  0  0  0  0  0
   13.2123   13.7977   34.9397 C   0  0  0  0  0  0  0  0  0  0  0  0
   14.0574   13.5379   36.0399 C   0  0  0  0  0  0  0  0  0  0  0  0
   15.4505   13.5722   35.9066 C   0  0  0  0  0  0  0  0  0  0  0  0
   16.0233   13.8782   34.6746 C   0  0  0  0  0  0  0  0  0  0  0  0
   13.4063   13.1765   37.3614 C   0  0  0  0  0  0  0  0  0  0  0  0
   14.1598   13.2441   38.4731 N   0  0  0  0  0  0  0  0  0  0  0  0
   12.2653   12.6915   37.3691 O   0  0  0  0  0  0  0  0  0  0  0  0
   15.0974   13.5413   38.4311 H   0  0  0  0  0  0  0  0  0  0  0  0
   13.5277   12.8512   39.7895 C   0  0  0  0  0  0  0  0  0  0  0  0
   14.0369   13.9593   40.7785 C   0  0  0  0  0  0  0  0  0  0  0  0
   13.5823   13.9624   41.9230 O   0  0  0  0  0  0  0  0  0  0  0  0
   14.8982   14.7376   40.3179 O   0  0  0  0  0  0  0  0  0  0  0  0
   15.1791   14.6519   39.4281 H   0  0  0  0  0  0  0  0  0  0  0  0
   13.9118   11.4208   40.2346 C   0  0  0  0  0  0  0  0  0  0  0  0
   12.7594   10.5467   40.7708 C   0  0  0  0  0  0  0  0  0  0  0  0
   12.9246   10.3926   42.2882 C   0  0  0  0  0  0  0  0  0  0  0  0
   13.6865   11.1514   42.9268 O   0  0  0  0  0  0  0  0  0  0  0  0
   12.2859    9.4997   42.8762 O   0  0  0  0  0  0  0  0  0  0  0  0
   14.1642   11.8213   42.4784 H   0  0  0  0  0  0  0  0  0  0  0  0
   15.7894   14.5981   32.0558 S   0  0  0  0  0  0  0  0  0  0  0  0
   14.8569   15.6652   31.3811 O   0  0  0  0  0  0  0  0  0  0  0  0
   15.8863   13.2663   31.2245 O   0  0  0  0  0  0  0  0  0  0  0  0
   19.5952   14.9642   31.3780 C   0  0  0  0  0  0  0  0  0  0  0  0
   18.5263   14.2867   32.2536 C   0  0  0  0  0  0  0  0  0  0  0  0
   17.3901   15.2156   32.1382 N   0  0  0  0  0  0  0  0  0  0  0  0
   17.7445   16.4602   31.4129 C   0  0  0  0  0  0  0  0  0  0  0  0
   19.2877   16.4622   31.5507 C   0  0  0  0  0  0  0  0  0  0  0  0
   17.0340   17.7537   31.9359 C   0  0  0  0  0  0  0  0  0  0  0  0
   17.3612   18.1529   33.0617 O   0  0  0  0  0  0  0  0  0  0  0  0
   16.1402   18.4257   31.1928 N   0  0  0  0  0  0  0  0  0  0  0  0
   16.0706   18.1177   30.2603 H   0  0  0  0  0  0  0  0  0  0  0  0
   15.2519   19.5376   31.5322 C   0  0  0  0  0  0  0  0  0  0  0  0
   15.6052   20.7752   30.6791 C   0  0  0  0  0  0  0  0  0  0  0  0
   16.5626   21.6654   31.5010 C   0  0  0  0  0  0  0  0  0  0  0  0
   17.5741   21.1292   31.9989 O   0  0  0  0  0  0  0  0  0  0  0  0
   16.2562   22.8646   31.6235 O   0  0  0  0  0  0  0  0  0  0  0  0
   17.7365   20.2167   31.8610 H   0  0  0  0  0  0  0  0  0  0  0  0
 25 26  1  0  0  0
 25 29  1  0  0  0
 26 27  1  0  0  0
 27 28  1  0  0  0
 27 22  1  0  0  0
 28 29  1  0  0  0
 28 30  1  0  0  0
 30 31  2  0  0  0
 30 32  1  0  0  0
 32 34  1  0  0  0
 22  1  1  0  0  0
 22 23  2  0  0  0
 22 24  2  0  0  0
  1  2  2  0  0  0
  1  6  1  0  0  0
  2  3  1  0  0  0
  3  4  2  0  0  0
  4  5  1  0  0  0
  4  7  1  0  0  0
  5  6  2  0  0  0
  7  8  1  0  0  0
  7  9  2  0  0  0
  8 11  1  0  0  0
 11 16  1  0  0  0
 11 12  1  0  0  0
 16 17  1  0  0  0
 17 18  1  0  0  0
 18 19  1  0  0  0
 18 20  2  0  0  0
 12 13  2  0  0  0
 12 14  1  0  0  0
 34 35  1  0  0  0
 35 36  1  0  0  0
 36 37  1  0  0  0
 36 38  2  0  0  0
 32 33  1  0  0  0
  8 10  1  0  0  0
 14 15  1  0  0  0
 19 21  1  0  0  0
 37 39  1  0  0  0
M  END
> <minimizedAffinity>
-8.94497

$$$$
1F4G_TP4_A_601


 39 40  0  0  0  0  0  0  0  0999 V2000
   15.6725   15.1446   34.4197 C   0  0  0  0  0  0  0  0  0  0  0  0
   16.3871   14.4869   35.4035 C   0  0  0  0  0  0  0  0  0  0  0  0
   15.6839   13.6763   36.2787 C   0  0  0  0  0  0  0  0  0  0  0  0
   14.2884   13.5363   36.1204 C   0  0  0  0  0  0  0  0  0  0  0  0
   13.6032   14.2152   35.1060 C   0  0  0  0  0  0  0  0  0  0  0  0
   14.3021   15.0366   34.2248 C   0  0  0  0  0  0  0  0  0  0  0  0
   13.5489   12.6604   37.1137 C   0  0  0  0  0  0  0  0  0  0  0  0
   12.5619   13.2216   37.8343 N   0  0  0  0  0  0  0  0  0  0  0  0
   13.9610   11.5140   37.3444 O   0  0  0  0  0  0  0  0  0  0  0  0
   12.3136   14.1651   37.7029 H   0  0  0  0  0  0  0  0  0  0  0  0
   11.8438   12.3639   38.8519 C   0  0  0  0  0  0  0  0  0  0  0  0
   10.3283   12.6574   38.5652 C   0  0  0  0  0  0  0  0  0  0  0  0
    9.8409   12.2071   37.5278 O   0  0  0  0  0  0  0  0  0  0  0  0
    9.7300   13.3094   39.4465 O   0  0  0  0  0  0  0  0  0  0  0  0
   10.1937   13.6092   40.2035 H   0  0  0  0  0  0  0  0  0  0  0  0
   12.2576   12.6878   40.3065 C   0  0  0  0  0  0  0  0  0  0  0  0
   13.6933   12.2893   40.7061 C   0  0  0  0  0  0  0  0  0  0  0  0
   14.5473   13.5601   40.8021 C   0  0  0  0  0  0  0  0  0  0  0  0
   14.5948   14.3696   39.8500 O   0  0  0  0  0  0  0  0  0  0  0  0
   15.1926   13.7750   41.8454 O   0  0  0  0  0  0  0  0  0  0  0  0
   14.1070   14.2020   39.0678 H   0  0  0  0  0  0  0  0  0  0  0  0
   16.6406   16.0935   33.3053 S   0  0  0  0  0  0  0  0  0  0  0  0
   18.1300   16.1682   33.7947 O   0  0  0  0  0  0  0  0  0  0  0  0
   15.9498   17.5055   33.2494 O   0  0  0  0  0  0  0  0  0  0  0  0
   15.8184   13.7768   30.2996 C   0  0  0  0  0  0  0  0  0  0  0  0
   16.7999   14.0519   31.4524 C   0  0  0  0  0  0  0  0  0  0  0  0
   16.6021   15.4899   31.6977 N   0  0  0  0  0  0  0  0  0  0  0  0
   15.7191   16.1228   30.6875 C   0  0  0  0  0  0  0  0  0  0  0  0
   15.8132   15.1053   29.5229 C   0  0  0  0  0  0  0  0  0  0  0  0
   16.0977   17.5944   30.3096 C   0  0  0  0  0  0  0  0  0  0  0  0
   17.2910   17.8174   30.0641 O   0  0  0  0  0  0  0  0  0  0  0  0
   15.1757   18.5660   30.2170 N   0  0  0  0  0  0  0  0  0  0  0  0
   14.2444   18.2519   30.2751 H   0  0  0  0  0  0  0  0  0  0  0  0
   15.3185   20.0118   30.0443 C   0  0  0  0  0  0  0  0  0  0  0  0
   14.7805   20.7482   31.2902 C   0  0  0  0  0  0  0  0  0  0  0  0
   13.4816   20.0436   31.7386 C   0  0  0  0  0  0  0  0  0  0  0  0
   13.5651   19.1882   32.6440 O   0  0  0  0  0  0  0  0  0  0  0  0
   12.4311   20.3686   31.1574 O   0  0  0  0  0  0  0  0  0  0  0  0
   14.3956   18.9983   33.0341 H   0  0  0  0  0  0  0  0  0  0  0  0
 25 26  1  0  0  0
 25 29  1  0  0  0
 26 27  1  0  0  0
 27 28  1  0  0  0
 27 22  1  0  0  0
 28 29  1  0  0  0
 28 30  1  0  0  0
 30 31  2  0  0  0
 30 32  1  0  0  0
 32 34  1  0  0  0
 22  1  1  0  0  0
 22 23  2  0  0  0
 22 24  2  0  0  0
  1  2  2  0  0  0
  1  6  1  0  0  0
  2  3  1  0  0  0
  3  4  2  0  0  0
  4  5  1  0  0  0
  4  7  1  0  0  0
  5  6  2  0  0  0
  7  8  1  0  0  0
  7  9  2  0  0  0
  8 11  1  0  0  0
 11 16  1  0  0  0
 11 12  1  0  0  0
 16 17  1  0  0  0
 17 18  1  0  0  0
 18 19  1  0  0  0
 18 20  2  0  0  0
 12 13  2  0  0  0
 12 14  1  0  0  0
 34 35  1  0  0  0
 35 36  1  0  0  0
 36 37  1  0  0  0
 36 38  2  0  0  0
 32 33  1  0  0  0
  8 10  1  0  0  0
 14 15  1  0  0  0
 19 21  1  0  0  0
 37 39  1  0  0  0
M  END
> <minimizedAffinity>
-8.82466

$$$$
1F4G_TP4_A_601


 39 40  0  0  0  0  0  0  0  0999 V2000
   15.4260   14.7765   34.4759 C   0  0  0  0  0  0  0  0  0  0  0  0
   14.0714   14.8333   34.2065 C   0  0  0  0  0  0  0  0  0  0  0  0
   13.2211   14.1008   35.0178 C   0  0  0  0  0  0  0  0  0  0  0  0
   13.7602   13.3541   36.0873 C   0  0  0  0  0  0  0  0  0  0  0  0
   15.1385   13.3287   36.3302 C   0  0  0  0  0  0  0  0  0  0  0  0
   16.0011   14.0583   35.5158 C   0  0  0  0  0  0  0  0  0  0  0  0
   12.8005   12.5442   36.9382 C   0  0  0  0  0  0  0  0  0  0  0  0
   12.6379   12.9081   38.2224 N   0  0  0  0  0  0  0  0  0  0  0  0
   12.3148   11.4973   36.4851 O   0  0  0  0  0  0  0  0  0  0  0  0
   13.1101   13.6898   38.5902 H   0  0  0  0  0  0  0  0  0  0  0  0
   11.7099   12.0840   39.0865 C   0  0  0  0  0  0  0  0  0  0  0  0
   10.4029   12.9523   39.1416 C   0  0  0  0  0  0  0  0  0  0  0  0
    9.7007   13.0003   38.1311 O   0  0  0  0  0  0  0  0  0  0  0  0
   10.1695   13.5052   40.2368 O   0  0  0  0  0  0  0  0  0  0  0  0
   10.7707   13.4067   40.9488 H   0  0  0  0  0  0  0  0  0  0  0  0
   12.2992   11.7891   40.4857 C   0  0  0  0  0  0  0  0  0  0  0  0
   13.7715   12.1969   40.6993 C   0  0  0  0  0  0  0  0  0  0  0  0
   13.8108   13.6352   41.2315 C   0  0  0  0  0  0  0  0  0  0  0  0
   14.8272   14.3464   41.0720 O   0  0  0  0  0  0  0  0  0  0  0  0
   12.8126   14.0858   41.8243 O   0  0  0  0  0  0  0  0  0  0  0  0
   15.5749   14.0013   40.6250 H   0  0  0  0  0  0  0  0  0  0  0  0
   16.4312   15.7874   33.4527 S   0  0  0  0  0  0  0  0  0  0  0  0
   17.8990   15.8447   34.0059 O   0  0  0  0  0  0  0  0  0  0  0  0
   15.7326   17.1967   33.4420 O   0  0  0  0  0  0  0  0  0  0  0  0
   15.6134   13.7256   30.2657 C   0  0  0  0  0  0  0  0  0  0  0  0
   16.5176   13.8301   31.5065 C   0  0  0  0  0  0  0  0  0  0  0  0
   16.4625   15.2683   31.8158 N   0  0  0  0  0  0  0  0  0  0  0  0
   15.7460   16.0465   30.7758 C   0  0  0  0  0  0  0  0  0  0  0  0
   15.8241   15.0805   29.5670 C   0  0  0  0  0  0  0  0  0  0  0  0
   16.3186   17.4798   30.5126 C   0  0  0  0  0  0  0  0  0  0  0  0
   17.5353   17.5630   30.2966 O   0  0  0  0  0  0  0  0  0  0  0  0
   15.5316   18.5673   30.4833 N   0  0  0  0  0  0  0  0  0  0  0  0
   14.5666   18.3736   30.5084 H   0  0  0  0  0  0  0  0  0  0  0  0
   15.8631   19.9909   30.4204 C   0  0  0  0  0  0  0  0  0  0  0  0
   14.7149   20.8278   31.0247 C   0  0  0  0  0  0  0  0  0  0  0  0
   15.1561   22.3076   31.0360 C   0  0  0  0  0  0  0  0  0  0  0  0
   16.1868   22.6038   31.6751 O   0  0  0  0  0  0  0  0  0  0  0  0
   14.4452   23.1155   30.4124 O   0  0  0  0  0  0  0  0  0  0  0  0
   16.6700   21.9359   32.1204 H   0  0  0  0  0  0  0  0  0  0  0  0
 25 26  1  0  0  0
 25 29  1  0  0  0
 26 27  1  0  0  0
 27 28  1  0  0  0
 27 22  1  0  0  0
 28 29  1  0  0  0
 28 30  1  0  0  0
 30 31  2  0  0  0
 30 32  1  0  0  0
 32 34  1  0  0  0
 22  1  1  0  0  0
 22 23  2  0  0  0
 22 24  2  0  0  0
  1  2  2  0  0  0
  1  6  1  0  0  0
  2  3  1  0  0  0
  3  4  2  0  0  0
  4  5  1  0  0  0
  4  7  1  0  0  0
  5  6  2  0  0  0
  7  8  1  0  0  0
  7  9  2  0  0  0
  8 11  1  0  0  0
 11 16  1  0  0  0
 11 12  1  0  0  0
 16 17  1  0  0  0
 17 18  1  0  0  0
 18 19  1  0  0  0
 18 20  2  0  0  0
 12 13  2  0  0  0
 12 14  1  0  0  0
 34 35  1  0  0  0
 35 36  1  0  0  0
 36 37  1  0  0  0
 36 38  2  0  0  0
 32 33  1  0  0  0
  8 10  1  0  0  0
 14 15  1  0  0  0
 19 21  1  0  0  0
 37 39  1  0  0  0
M  END
> <minimizedAffinity>
-8.80040

$$$$
1F4G_TP4_A_601


 39 40  0  0  0  0  0  0  0  0999 V2000
   13.8497   15.8926   32.1474 C   0  0  0  0  0  0  0  0  0  0  0  0
   13.7737   16.9326   33.0550 C   0  0  0  0  0  0  0  0  0  0  0  0
   13.5195   18.2015   32.5622 C   0  0  0  0  0  0  0  0  0  0  0  0
   13.3272   18.3779   31.1752 C   0  0  0  0  0  0  0  0  0  0  0  0
   13.4059   17.2963   30.2901 C   0  0  0  0  0  0  0  0  0  0  0  0
   13.6665   16.0177   30.7768 C   0  0  0  0  0  0  0  0  0  0  0  0
   13.0764   19.7860   30.6699 C   0  0  0  0  0  0  0  0  0  0  0  0
   12.9065   19.9587   29.3472 N   0  0  0  0  0  0  0  0  0  0  0  0
   13.1829   20.7441   31.4496 O   0  0  0  0  0  0  0  0  0  0  0  0
   12.9217   19.1911   28.7310 H   0  0  0  0  0  0  0  0  0  0  0  0
   12.6914   21.3641   28.8320 C   0  0  0  0  0  0  0  0  0  0  0  0
   11.1707   21.3758   28.4414 C   0  0  0  0  0  0  0  0  0  0  0  0
   10.6793   20.3327   28.0090 O   0  0  0  0  0  0  0  0  0  0  0  0
   10.5732   22.4551   28.6357 O   0  0  0  0  0  0  0  0  0  0  0  0
   11.0401   23.1956   28.9697 H   0  0  0  0  0  0  0  0  0  0  0  0
   13.6223   21.7167   27.6484 C   0  0  0  0  0  0  0  0  0  0  0  0
   14.7498   22.7250   27.9516 C   0  0  0  0  0  0  0  0  0  0  0  0
   15.0028   22.7389   29.4647 C   0  0  0  0  0  0  0  0  0  0  0  0
   15.7647   21.8985   29.9913 O   0  0  0  0  0  0  0  0  0  0  0  0
   14.4384   23.6027   30.1620 O   0  0  0  0  0  0  0  0  0  0  0  0
   16.1863   21.2512   29.4610 H   0  0  0  0  0  0  0  0  0  0  0  0
   14.1011   14.3058   32.8533 S   0  0  0  0  0  0  0  0  0  0  0  0
   15.1874   13.5097   32.0472 O   0  0  0  0  0  0  0  0  0  0  0  0
   12.6921   13.6073   32.8237 O   0  0  0  0  0  0  0  0  0  0  0  0
   14.4056   13.3030   36.5921 C   0  0  0  0  0  0  0  0  0  0  0  0
   13.5647   14.0632   35.5514 C   0  0  0  0  0  0  0  0  0  0  0  0
   14.5570   14.3695   34.5080 N   0  0  0  0  0  0  0  0  0  0  0  0
   15.9376   14.0078   34.9126 C   0  0  0  0  0  0  0  0  0  0  0  0
   15.7958   13.9486   36.4544 C   0  0  0  0  0  0  0  0  0  0  0  0
   17.0530   14.9742   34.3897 C   0  0  0  0  0  0  0  0  0  0  0  0
   18.0021   15.1954   35.1540 O   0  0  0  0  0  0  0  0  0  0  0  0
   17.0107   15.5123   33.1603 N   0  0  0  0  0  0  0  0  0  0  0  0
   16.3027   15.1497   32.5802 H   0  0  0  0  0  0  0  0  0  0  0  0
   17.8372   16.5453   32.5355 C   0  0  0  0  0  0  0  0  0  0  0  0
   17.2004   16.9971   31.2034 C   0  0  0  0  0  0  0  0  0  0  0  0
   17.6917   16.0450   30.0912 C   0  0  0  0  0  0  0  0  0  0  0  0
   18.7722   16.3154   29.5275 O   0  0  0  0  0  0  0  0  0  0  0  0
   16.9687   15.0700   29.8199 O   0  0  0  0  0  0  0  0  0  0  0  0
   19.2611   17.0707   29.7893 H   0  0  0  0  0  0  0  0  0  0  0  0
 25 26  1  0  0  0
 25 29  1  0  0  0
 26 27  1  0  0  0
 27 28  1  0  0  0
 27 22  1  0  0  0
 28 29  1  0  0  0
 28 30  1  0  0  0
 30 31  2  0  0  0
 30 32  1  0  0  0
 32 34  1  0  0  0
 22  1  1  0  0  0
 22 23  2  0  0  0
 22 24  2  0  0  0
  1  2  2  0  0  0
  1  6  1  0  0  0
  2  3  1  0  0  0
  3  4  2  0  0  0
  4  5  1  0  0  0
  4  7  1  0  0  0
  5  6  2  0  0  0
  7  8  1  0  0  0
  7  9  2  0  0  0
  8 11  1  0  0  0
 11 16  1  0  0  0
 11 12  1  0  0  0
 16 17  1  0  0  0
 17 18  1  0  0  0
 18 19  1  0  0  0
 18 20  2  0  0  0
 12 13  2  0  0  0
 12 14  1  0  0  0
 34 35  1  0  0  0
 35 36  1  0  0  0
 36 37  1  0  0  0
 36 38  2  0  0  0
 32 33  1  0  0  0
  8 10  1  0  0  0
 14 15  1  0  0  0
 19 21  1  0  0  0
 37 39  1  0  0  0
M  END
> <minimizedAffinity>
-8.75801

$$$$
1F4G_TP4_A_601


 39 40  0  0  0  0  0  0  0  0999 V2000
   14.7724   15.7836   31.5340 C   0  0  0  0  0  0  0  0  0  0  0  0
   14.2775   16.9145   32.1561 C   0  0  0  0  0  0  0  0  0  0  0  0
   14.2490   18.0916   31.4271 C   0  0  0  0  0  0  0  0  0  0  0  0
   14.6979   18.0861   30.0890 C   0  0  0  0  0  0  0  0  0  0  0  0
   15.1858   16.9168   29.4939 C   0  0  0  0  0  0  0  0  0  0  0  0
   15.2229   15.7300   30.2217 C   0  0  0  0  0  0  0  0  0  0  0  0
   14.6755   19.3996   29.3307 C   0  0  0  0  0  0  0  0  0  0  0  0
   13.5073   20.0611   29.2530 N   0  0  0  0  0  0  0  0  0  0  0  0
   15.6739   19.7507   28.6849 O   0  0  0  0  0  0  0  0  0  0  0  0
   12.6990   19.7136   29.6947 H   0  0  0  0  0  0  0  0  0  0  0  0
   13.4690   21.3535   28.4686 C   0  0  0  0  0  0  0  0  0  0  0  0
   14.2114   22.3680   29.4093 C   0  0  0  0  0  0  0  0  0  0  0  0
   14.8030   23.3122   28.8849 O   0  0  0  0  0  0  0  0  0  0  0  0
   14.1097   22.1409   30.6331 O   0  0  0  0  0  0  0  0  0  0  0  0
   13.6351   21.3905   30.9326 H   0  0  0  0  0  0  0  0  0  0  0  0
   12.0299   21.7974   28.1165 C   0  0  0  0  0  0  0  0  0  0  0  0
   10.9147   20.7732   28.4112 C   0  0  0  0  0  0  0  0  0  0  0  0
   10.3284   21.0704   29.7974 C   0  0  0  0  0  0  0  0  0  0  0  0
    9.3438   21.8313   29.9232 O   0  0  0  0  0  0  0  0  0  0  0  0
   10.8474   20.5400   30.7975 O   0  0  0  0  0  0  0  0  0  0  0  0
    8.9580   22.2272   29.1667 H   0  0  0  0  0  0  0  0  0  0  0  0
   14.7083   14.3170   32.4955 S   0  0  0  0  0  0  0  0  0  0  0  0
   15.6245   13.2070   31.8695 O   0  0  0  0  0  0  0  0  0  0  0  0
   13.1910   13.9036   32.5265 O   0  0  0  0  0  0  0  0  0  0  0  0
   14.7902   13.9099   36.3561 C   0  0  0  0  0  0  0  0  0  0  0  0
   14.1201   14.6338   35.1750 C   0  0  0  0  0  0  0  0  0  0  0  0
   15.1588   14.5659   34.1342 N   0  0  0  0  0  0  0  0  0  0  0  0
   16.4397   14.0180   34.6438 C   0  0  0  0  0  0  0  0  0  0  0  0
   16.2806   14.2442   36.1684 C   0  0  0  0  0  0  0  0  0  0  0  0
   17.7256   14.6514   34.0139 C   0  0  0  0  0  0  0  0  0  0  0  0
   18.2370   15.5993   34.6254 O   0  0  0  0  0  0  0  0  0  0  0  0
   18.2761   14.1738   32.8863 N   0  0  0  0  0  0  0  0  0  0  0  0
   17.8875   13.3265   32.5694 H   0  0  0  0  0  0  0  0  0  0  0  0
   19.3549   14.6973   32.0480 C   0  0  0  0  0  0  0  0  0  0  0  0
   18.7684   15.3373   30.7711 C   0  0  0  0  0  0  0  0  0  0  0  0
   18.6820   16.8625   30.9968 C   0  0  0  0  0  0  0  0  0  0  0  0
   17.9859   17.2726   31.9485 O   0  0  0  0  0  0  0  0  0  0  0  0
   19.3071   17.5888   30.2038 O   0  0  0  0  0  0  0  0  0  0  0  0
   17.5439   16.6606   32.5035 H   0  0  0  0  0  0  0  0  0  0  0  0
 25 26  1  0  0  0
 25 29  1  0  0  0
 26 27  1  0  0  0
 27 28  1  0  0  0
 27 22  1  0  0  0
 28 29  1  0  0  0
 28 30  1  0  0  0
 30 31  2  0  0  0
 30 32  1  0  0  0
 32 34  1  0  0  0
 22  1  1  0  0  0
 22 23  2  0  0  0
 22 24  2  0  0  0
  1  2  2  0  0  0
  1  6  1  0  0  0
  2  3  1  0  0  0
  3  4  2  0  0  0
  4  5  1  0  0  0
  4  7  1  0  0  0
  5  6  2  0  0  0
  7  8  1  0  0  0
  7  9  2  0  0  0
  8 11  1  0  0  0
 11 16  1  0  0  0
 11 12  1  0  0  0
 16 17  1  0  0  0
 17 18  1  0  0  0
 18 19  1  0  0  0
 18 20  2  0  0  0
 12 13  2  0  0  0
 12 14  1  0  0  0
 34 35  1  0  0  0
 35 36  1  0  0  0
 36 37  1  0  0  0
 36 38  2  0  0  0
 32 33  1  0  0  0
  8 10  1  0  0  0
 14 15  1  0  0  0
 19 21  1  0  0  0
 37 39  1  0  0  0
M  END
> <minimizedAffinity>
-8.52034

$$$$
1F4G_TP4_A_601


 39 40  0  0  0  0  0  0  0  0999 V2000
   13.1254   12.8238   37.7534 C   0  0  0  0  0  0  0  0  0  0  0  0
   12.0937   12.9532   36.8425 C   0  0  0  0  0  0  0  0  0  0  0  0
   12.3956   13.4745   35.5956 C   0  0  0  0  0  0  0  0  0  0  0  0
   13.7299   13.8265   35.2990 C   0  0  0  0  0  0  0  0  0  0  0  0
   14.7472   13.6732   36.2483 C   0  0  0  0  0  0  0  0  0  0  0  0
   14.4511   13.1547   37.5065 C   0  0  0  0  0  0  0  0  0  0  0  0
   14.0175   14.4181   33.9322 C   0  0  0  0  0  0  0  0  0  0  0  0
   15.3037   14.5575   33.5652 N   0  0  0  0  0  0  0  0  0  0  0  0
   13.0877   14.8901   33.2615 O   0  0  0  0  0  0  0  0  0  0  0  0
   16.0332   14.2629   34.1570 H   0  0  0  0  0  0  0  0  0  0  0  0
   15.5990   15.1793   32.2187 C   0  0  0  0  0  0  0  0  0  0  0  0
   15.3979   13.9856   31.2188 C   0  0  0  0  0  0  0  0  0  0  0  0
   16.2284   13.0764   31.2332 O   0  0  0  0  0  0  0  0  0  0  0  0
   14.3765   14.0490   30.5030 O   0  0  0  0  0  0  0  0  0  0  0  0
   13.8042   14.7882   30.5676 H   0  0  0  0  0  0  0  0  0  0  0  0
   17.0137   15.7994   32.1431 C   0  0  0  0  0  0  0  0  0  0  0  0
   18.0017   15.3672   33.2462 C   0  0  0  0  0  0  0  0  0  0  0  0
   19.1156   14.5281   32.6070 C   0  0  0  0  0  0  0  0  0  0  0  0
   19.0066   14.1130   31.4323 O   0  0  0  0  0  0  0  0  0  0  0  0
   20.1331   14.2674   33.2761 O   0  0  0  0  0  0  0  0  0  0  0  0
   18.2385   14.3126   30.9342 H   0  0  0  0  0  0  0  0  0  0  0  0
   12.6796   12.0885   39.2831 S   0  0  0  0  0  0  0  0  0  0  0  0
   11.1296   12.1855   39.5104 O   0  0  0  0  0  0  0  0  0  0  0  0
   13.5018   12.8659   40.3758 O   0  0  0  0  0  0  0  0  0  0  0  0
   14.2671    8.6744   38.3341 C   0  0  0  0  0  0  0  0  0  0  0  0
   12.9996    9.5438   38.2592 C   0  0  0  0  0  0  0  0  0  0  0  0
   13.1692   10.4470   39.4092 N   0  0  0  0  0  0  0  0  0  0  0  0
   14.3339   10.0818   40.2522 C   0  0  0  0  0  0  0  0  0  0  0  0
   14.5507    8.6027   39.8450 C   0  0  0  0  0  0  0  0  0  0  0  0
   14.1385   10.3213   41.7871 C   0  0  0  0  0  0  0  0  0  0  0  0
   15.1605   10.5410   42.4515 O   0  0  0  0  0  0  0  0  0  0  0  0
   12.9235   10.3274   42.3584 N   0  0  0  0  0  0  0  0  0  0  0  0
   12.1730   10.3017   41.7218 H   0  0  0  0  0  0  0  0  0  0  0  0
   12.5244   10.3658   43.7654 C   0  0  0  0  0  0  0  0  0  0  0  0
   11.9555   11.7579   44.1153 C   0  0  0  0  0  0  0  0  0  0  0  0
   11.0109   12.1897   42.9725 C   0  0  0  0  0  0  0  0  0  0  0  0
   11.2791   13.2449   42.3617 O   0  0  0  0  0  0  0  0  0  0  0  0
   10.0316   11.4589   42.7403 O   0  0  0  0  0  0  0  0  0  0  0  0
   12.0379   13.7420   42.5961 H   0  0  0  0  0  0  0  0  0  0  0  0
 25 26  1  0  0  0
 25 29  1  0  0  0
 26 27  1  0  0  0
 27 28  1  0  0  0
 27 22  1  0  0  0
 28 29  1  0  0  0
 28 30  1  0  0  0
 30 31  2  0  0  0
 30 32  1  0  0  0
 32 34  1  0  0  0
 22  1  1  0  0  0
 22 23  2  0  0  0
 22 24  2  0  0  0
  1  2  2  0  0  0
  1  6  1  0  0  0
  2  3  1  0  0  0
  3  4  2  0  0  0
  4  5  1  0  0  0
  4  7  1  0  0  0
  5  6  2  0  0  0
  7  8  1  0  0  0
  7  9  2  0  0  0
  8 11  1  0  0  0
 11 16  1  0  0  0
 11 12  1  0  0  0
 16 17  1  0  0  0
 17 18  1  0  0  0
 18 19  1  0  0  0
 18 20  2  0  0  0
 12 13  2  0  0  0
 12 14  1  0  0  0
 34 35  1  0  0  0
 35 36  1  0  0  0
 36 37  1  0  0  0
 36 38  2  0  0  0
 32 33  1  0  0  0
  8 10  1  0  0  0
 14 15  1  0  0  0
 19 21  1  0  0  0
 37 39  1  0  0  0
M  END
> <minimizedAffinity>
-8.46341

$$$$
