3RTF_CWD_B_800
  RCSB PDB12061710373D
Coordinates from PDB:3RTF:B:800 Model:1 without hydrogens
 15 15  0  0  0  0            999 V2000
   18.5280  -21.0040  -26.5690   N 0  0  0  0  0  0  0  0  0  0  0  0
   17.9970  -21.1010  -25.3400   C 0  0  0  0  0  0  0  0  0  0  0  0
   18.6740  -21.2090  -24.3450   O 0  0  0  0  0  0  0  0  0  0  0  0
   16.6400  -21.1380  -25.1890   N 0  0  0  0  0  0  0  0  0  0  0  0
   15.8930  -21.0890  -26.3080   C 0  0  0  0  0  0  0  0  0  0  0  0
   14.5290  -21.0740  -26.1190   O 0  0  0  0  0  0  0  0  0  0  0  0
   16.4530  -20.9900  -27.5530   C 0  0  0  0  0  0  0  0  0  0  0  0
   15.4590  -20.9630  -29.0170  Cl 0  0  0  0  0  0  0  0  0  0  0  0
   17.7780  -20.9540  -27.7360   C 0  0  0  0  0  0  0  0  0  0  0  0
   19.9870  -20.8740  -26.6860   C 0  0  0  0  0  0  0  0  0  0  0  0
   20.4570  -19.4870  -26.2690   C 0  0  0  0  0  0  0  0  0  0  0  0
   20.2030  -18.4580  -27.2750   N 0  0  0  0  0  0  0  0  0  0  0  0
   21.9490  -19.5100  -25.9660   C 0  0  0  0  0  0  0  0  0  0  0  0
   22.7370  -18.8270  -26.5700   O 0  0  0  0  0  0  0  0  0  0  0  0
   22.3280  -20.4470  -25.0520   O 0  0  0  0  0  0  0  0  0  0  0  0
  1  2  1  0  0  0  0
  1  9  1  0  0  0  0
  1 10  1  0  0  0  0
  2  3  2  0  0  0  0
  2  4  1  0  0  0  0
  4  5  1  0  0  0  0
  5  6  2  0  0  0  0
  5  7  1  0  0  0  0
  7  8  1  0  0  0  0
  7  9  2  0  0  0  0
 10 11  1  0  0  0  0
 11 12  1  0  0  0  0
 11 13  1  0  0  0  0
 13 14  2  0  0  0  0
 13 15  1  0  0  0  0
A    1
N1
A    2
C2
A    3
O2
A    4
N3
A    5
C4
A    6
O4
A    7
C5
A    8
CL5
A    9
C6
A   10
C7
A   11
C8
A   12
N8
A   13
C9
A   14
O91
A   15
O92
M  END
>  <InstanceId>
3RTF_CWD_B_800

>  <ChemCompId>
CWD

>  <PdbId>
3RTF

>  <ChainId>
B

>  <ResidueNumber>
800

>  <InsertionCode>


>  <Model>
1

>  <AltIds>


>  <MissingHeavyAtoms>
0

>  <ObservedFormula>
C7 N3 O4 Cl

>  <Name>
3-(5-chloro-2,4-dioxo-3,4-dihydropyrimidin-1(2H)-yl)-L-alanine

>  <SystematicName>
(2S)-2-azanyl-3-[5-chloranyl-2,4-bis(oxidanylidene)pyrimidin-1-yl]propanoic acid

>  <Synonyms>
chlorowillardiine

>  <Type>
L-peptide linking

>  <Formula>
C7 H8 Cl N3 O4

>  <MolecularWeight>
233.609

>  <ModifiedDate>
2011-06-04

>  <Parent>
ALA

>  <OneLetterCode>


>  <SubcomponentList>


>  <AmbiguousFlag>
N

>  <InChI>
InChI=1S/C7H8ClN3O4/c8-3-1-11(2-4(9)6(13)14)7(15)10-5(3)12/h1,4H,2,9H2,(H,13,14)(H,10,12,15)/t4-/m0/s1

>  <InChIKey>
HEHLSRRDKJVHOM-BYPYZUCNSA-N

>  <SMILES>
C1=C(C(=O)NC(=O)N1C[C@@H](C(=O)O)N)Cl

$$$$
