4FAI_PBD_A_402
  RCSB PDB12061712303D
Coordinates from PDB:4FAI:A:402 Model:1 without hydrogens
 22 23  0  0  0  0            999 V2000
  -34.7200   -5.6950   44.3660   C 0  0  0  0  0  0  0  0  0  0  0  0
  -31.6240   -8.4640   40.5860   C 0  0  0  0  0  0  0  0  0  0  0  0
  -30.4340   -2.0740   37.7490   S 0  0  0  0  0  0  0  0  0  0  0  0
  -26.9410   -0.9490   45.7900   C 0  0  0  0  0  0  0  0  0  0  0  0
  -33.1000   -3.7220   41.2240   C 0  0  0  0  0  0  0  0  0  0  0  0
  -33.5560   -4.4080   42.3320   C 0  0  0  0  0  0  0  0  0  0  0  0
  -26.9320   -1.1990   44.4710   C 0  0  0  0  0  0  0  0  0  0  0  0
  -28.3730    0.3960   44.8330   C 0  0  0  0  0  0  0  0  0  0  0  0
  -32.1700   -5.7550   40.3660   C 0  0  0  0  0  0  0  0  0  0  0  0
  -28.9590   -1.4940   42.0160   C 0  0  0  0  0  0  0  0  0  0  0  0
  -29.3340   -1.5310   40.5200   C 0  0  0  0  0  0  0  0  0  0  0  0
  -28.1260   -0.2880   42.4230   C 0  0  0  0  0  0  0  0  0  0  0  0
  -27.8400    0.0530   46.0170   N 0  0  0  0  0  0  0  0  0  0  0  0
  -30.3760   -2.5360   40.3740   N 0  0  0  0  0  0  0  0  0  0  0  0
  -31.9320   -3.7580   39.1530   N 0  0  0  0  0  0  0  0  0  0  0  0
  -33.8050   -6.4900   43.5420   O 0  0  0  0  0  0  0  0  0  0  0  0
  -32.4270   -7.8090   41.6080   O 0  0  0  0  0  0  0  0  0  0  0  0
  -30.9600   -2.8380   39.2050   C 0  0  0  0  0  0  0  0  0  0  0  0
  -32.3850   -4.3940   40.2400   C 0  0  0  0  0  0  0  0  0  0  0  0
  -33.3360   -5.7840   42.4600   C 0  0  0  0  0  0  0  0  0  0  0  0
  -32.6390   -6.4590   41.4630   C 0  0  0  0  0  0  0  0  0  0  0  0
  -27.8180   -0.3600   43.8870   N 0  0  0  0  0  0  0  0  0  0  0  0
  1 16  1  0  0  0  0
  2 17  1  0  0  0  0
  3 18  2  0  0  0  0
  4  7  2  0  0  0  0
  4 13  1  0  0  0  0
  5  6  2  0  0  0  0
  5 19  1  0  0  0  0
  6 20  1  0  0  0  0
  7 22  1  0  0  0  0
  8 13  2  0  0  0  0
  8 22  1  0  0  0  0
  9 19  2  0  0  0  0
  9 21  1  0  0  0  0
 10 11  1  0  0  0  0
 10 12  1  0  0  0  0
 11 14  1  0  0  0  0
 12 22  1  0  0  0  0
 14 18  1  0  0  0  0
 15 18  1  0  0  0  0
 15 19  1  0  0  0  0
 16 20  1  0  0  0  0
 17 21  1  0  0  0  0
 20 21  2  0  0  0  0
A    1
CAA
A    2
CAB
A    3
SAC
A    4
CAD
A    5
CAE
A    6
CAF
A    7
CAG
A    8
CAH
A    9
CAI
A   10
CAJ
A   11
CAK
A   12
CAL
A   13
NAM
A   14
NAN
A   15
NAO
A   16
OAP
A   17
OAQ
A   18
CAR
A   19
CAS
A   20
CAT
A   21
CAU
A   22
NAV
M  END
>  <InstanceId>
4FAI_PBD_A_402

>  <ChemCompId>
PBD

>  <PdbId>
4FAI

>  <ChainId>
A

>  <ResidueNumber>
402

>  <InsertionCode>


>  <Model>
1

>  <AltIds>


>  <MissingHeavyAtoms>
0

>  <ObservedFormula>
C15 N4 O2 S

>  <Name>
1-(3,4-dimethoxyphenyl)-3-[3-(1H-imidazol-1-yl)propyl]thiourea

>  <SystematicName>
1-(3,4-dimethoxyphenyl)-3-(3-imidazol-1-ylpropyl)thiourea

>  <Synonyms>


>  <Type>
NON-POLYMER

>  <Formula>
C15 H20 N4 O2 S

>  <MolecularWeight>
320.41

>  <ModifiedDate>
2011-06-04

>  <Parent>


>  <OneLetterCode>


>  <SubcomponentList>


>  <AmbiguousFlag>
N

>  <InChI>
InChI=1S/C15H20N4O2S/c1-20-13-5-4-12(10-14(13)21-2)18-15(22)17-6-3-8-19-9-7-16-11-19/h4-5,7,9-11H,3,6,8H2,1-2H3,(H2,17,18,22)

>  <InChIKey>
FZQXMGLQANXZRP-UHFFFAOYSA-N

>  <SMILES>
COc1ccc(cc1OC)NC(=S)NCCCn2ccnc2

$$$$
