1F3E_DPZ_A_400


 20 21  0  0  0  0  0  0  0  0999 V2000
   15.3774   16.8981   24.1788 N   0  0  0  0  0  0  0  0  0  0  0  0
   15.0173   16.7027   22.8909 C   0  0  0  0  0  0  0  0  0  0  0  0
   13.8704   16.3857   22.6073 O   0  0  0  0  0  0  0  0  0  0  0  0
   16.0533   16.8867   21.7766 C   0  0  0  0  0  0  0  0  0  0  0  0
   15.7513   16.7116   20.3957 C   0  0  0  0  0  0  0  0  0  0  0  0
   16.7656   16.9053   19.4356 C   0  0  0  0  0  0  0  0  0  0  0  0
   18.0724   17.2673   19.8121 C   0  0  0  0  0  0  0  0  0  0  0  0
   18.3562   17.4478   21.1743 C   0  0  0  0  0  0  0  0  0  0  0  0
   17.3595   17.2636   22.1520 C   0  0  0  0  0  0  0  0  0  0  0  0
   17.6937   17.4519   23.6181 C   0  0  0  0  0  0  0  0  0  0  0  0
   18.8298   17.7763   23.9273 O   0  0  0  0  0  0  0  0  0  0  0  0
   16.7311   17.2758   24.5451 N   0  0  0  0  0  0  0  0  0  0  0  0
   19.0399   17.4593   18.8734 N   0  0  0  0  0  0  0  0  0  0  0  0
   14.5103   16.3549   19.9756 N   0  0  0  0  0  0  0  0  0  0  0  0
   14.7042   16.7813   24.8876 H   0  0  0  0  0  0  0  0  0  0  0  0
   16.9515   17.4066   25.4956 H   0  0  0  0  0  0  0  0  0  0  0  0
   18.8327   17.3306   17.9195 H   0  0  0  0  0  0  0  0  0  0  0  0
   19.9465   17.7267   19.1484 H   0  0  0  0  0  0  0  0  0  0  0  0
   13.7897   16.2153   20.6317 H   0  0  0  0  0  0  0  0  0  0  0  0
   14.3311   16.2358   19.0149 H   0  0  0  0  0  0  0  0  0  0  0  0
  1  2  1  0  0  0
  1 12  1  0  0  0
  2  3  2  0  0  0
  2  4  1  0  0  0
  4  5  2  0  0  0
  4  9  1  0  0  0
  5  6  1  0  0  0
  5 14  1  0  0  0
  6  7  2  0  0  0
  7  8  1  0  0  0
  7 13  1  0  0  0
  8  9  2  0  0  0
  9 10  1  0  0  0
 10 11  2  0  0  0
 10 12  1  0  0  0
  1 15  1  0  0  0
 12 16  1  0  0  0
 13 17  1  0  0  0
 13 18  1  0  0  0
 14 19  1  0  0  0
 14 20  1  0  0  0
M  END
> <minimizedAffinity>
-8.37254

$$$$
1F3E_DPZ_A_400


 20 21  0  0  0  0  0  0  0  0999 V2000
   16.7743   17.1490   24.5467 N   0  0  0  0  0  0  0  0  0  0  0  0
   17.6442   17.3895   23.5407 C   0  0  0  0  0  0  0  0  0  0  0  0
   18.7977   17.7179   23.7815 O   0  0  0  0  0  0  0  0  0  0  0  0
   17.1829   17.2428   22.0866 C   0  0  0  0  0  0  0  0  0  0  0  0
   18.0400   17.4660   20.9712 C   0  0  0  0  0  0  0  0  0  0  0  0
   17.5328   17.3042   19.6656 C   0  0  0  0  0  0  0  0  0  0  0  0
   16.1958   16.9275   19.4395 C   0  0  0  0  0  0  0  0  0  0  0  0
   15.3632   16.6994   20.5456 C   0  0  0  0  0  0  0  0  0  0  0  0
   15.8471   16.8510   21.8594 C   0  0  0  0  0  0  0  0  0  0  0  0
   14.9249   16.6115   23.0379 C   0  0  0  0  0  0  0  0  0  0  0  0
   13.7704   16.2749   22.8246 O   0  0  0  0  0  0  0  0  0  0  0  0
   15.3996   16.7568   24.2910 N   0  0  0  0  0  0  0  0  0  0  0  0
   15.7220   16.7667   18.1731 N   0  0  0  0  0  0  0  0  0  0  0  0
   19.3359   17.8390   21.1297 N   0  0  0  0  0  0  0  0  0  0  0  0
   17.0807   17.2422   25.4777 H   0  0  0  0  0  0  0  0  0  0  0  0
   14.7984   16.5927   25.0532 H   0  0  0  0  0  0  0  0  0  0  0  0
   16.3126   16.9287   17.4023 H   0  0  0  0  0  0  0  0  0  0  0  0
   14.7888   16.4885   18.0283 H   0  0  0  0  0  0  0  0  0  0  0  0
   19.7072   17.9568   22.0338 H   0  0  0  0  0  0  0  0  0  0  0  0
   19.9043   17.9916   20.3404 H   0  0  0  0  0  0  0  0  0  0  0  0
  1  2  1  0  0  0
  1 12  1  0  0  0
  2  3  2  0  0  0
  2  4  1  0  0  0
  4  5  2  0  0  0
  4  9  1  0  0  0
  5  6  1  0  0  0
  5 14  1  0  0  0
  6  7  2  0  0  0
  7  8  1  0  0  0
  7 13  1  0  0  0
  8  9  2  0  0  0
  9 10  1  0  0  0
 10 11  2  0  0  0
 10 12  1  0  0  0
  1 15  1  0  0  0
 12 16  1  0  0  0
 13 17  1  0  0  0
 13 18  1  0  0  0
 14 19  1  0  0  0
 14 20  1  0  0  0
M  END
> <minimizedAffinity>
-8.03091

$$$$
1F3E_DPZ_A_400


 20 21  0  0  0  0  0  0  0  0999 V2000
   15.5615   16.8904   24.5969 N   0  0  0  0  0  0  0  0  0  0  0  0
   16.1398   16.9132   23.3755 C   0  0  0  0  0  0  0  0  0  0  0  0
   17.3491   17.0595   23.2630 O   0  0  0  0  0  0  0  0  0  0  0  0
   15.2737   16.7477   22.1221 C   0  0  0  0  0  0  0  0  0  0  0  0
   15.8068   16.7485   20.8013 C   0  0  0  0  0  0  0  0  0  0  0  0
   14.9366   16.5858   19.7039 C   0  0  0  0  0  0  0  0  0  0  0  0
   13.5504   16.4237   19.8847 C   0  0  0  0  0  0  0  0  0  0  0  0
   13.0373   16.4135   21.1905 C   0  0  0  0  0  0  0  0  0  0  0  0
   13.8862   16.5706   22.3031 C   0  0  0  0  0  0  0  0  0  0  0  0
   13.3066   16.5690   23.7034 C   0  0  0  0  0  0  0  0  0  0  0  0
   12.1030   16.4167   23.8435 O   0  0  0  0  0  0  0  0  0  0  0  0
   14.1289   16.7173   24.7610 N   0  0  0  0  0  0  0  0  0  0  0  0
   12.7230   16.2591   18.8158 N   0  0  0  0  0  0  0  0  0  0  0  0
   17.1346   16.9092   20.5671 N   0  0  0  0  0  0  0  0  0  0  0  0
   16.1264   16.9937   25.3966 H   0  0  0  0  0  0  0  0  0  0  0  0
   13.7483   16.7081   25.6689 H   0  0  0  0  0  0  0  0  0  0  0  0
   13.0909   16.2675   17.9027 H   0  0  0  0  0  0  0  0  0  0  0  0
   11.7569   16.1318   18.9561 H   0  0  0  0  0  0  0  0  0  0  0  0
   17.7571   17.0241   21.3212 H   0  0  0  0  0  0  0  0  0  0  0  0
   17.4749   16.9108   19.6433 H   0  0  0  0  0  0  0  0  0  0  0  0
  1  2  1  0  0  0
  1 12  1  0  0  0
  2  3  2  0  0  0
  2  4  1  0  0  0
  4  5  2  0  0  0
  4  9  1  0  0  0
  5  6  1  0  0  0
  5 14  1  0  0  0
  6  7  2  0  0  0
  7  8  1  0  0  0
  7 13  1  0  0  0
  8  9  2  0  0  0
  9 10  1  0  0  0
 10 11  2  0  0  0
 10 12  1  0  0  0
  1 15  1  0  0  0
 12 16  1  0  0  0
 13 17  1  0  0  0
 13 18  1  0  0  0
 14 19  1  0  0  0
 14 20  1  0  0  0
M  END
> <minimizedAffinity>
-7.89850

$$$$
1F3E_DPZ_A_400


 20 21  0  0  0  0  0  0  0  0999 V2000
   18.2802   17.3414   20.3501 N   0  0  0  0  0  0  0  0  0  0  0  0
   16.9826   16.9900   20.2104 C   0  0  0  0  0  0  0  0  0  0  0  0
   16.5131   16.7738   19.1017 O   0  0  0  0  0  0  0  0  0  0  0  0
   16.0945   16.8551   21.4521 C   0  0  0  0  0  0  0  0  0  0  0  0
   14.7223   16.4781   21.3911 C   0  0  0  0  0  0  0  0  0  0  0  0
   13.9796   16.3742   22.5851 C   0  0  0  0  0  0  0  0  0  0  0  0
   14.5645   16.6364   23.8379 C   0  0  0  0  0  0  0  0  0  0  0  0
   15.9198   16.9964   23.8874 C   0  0  0  0  0  0  0  0  0  0  0  0
   16.6837   17.1035   22.7092 C   0  0  0  0  0  0  0  0  0  0  0  0
   18.1426   17.5065   22.7873 C   0  0  0  0  0  0  0  0  0  0  0  0
   18.6376   17.7204   23.8831 O   0  0  0  0  0  0  0  0  0  0  0  0
   18.8649   17.6032   21.6535 N   0  0  0  0  0  0  0  0  0  0  0  0
   13.8372   16.5238   24.9835 N   0  0  0  0  0  0  0  0  0  0  0  0
   14.1040   16.2214   20.2097 N   0  0  0  0  0  0  0  0  0  0  0  0
   18.8439   17.4219   19.5471 H   0  0  0  0  0  0  0  0  0  0  0  0
   19.8141   17.8581   21.7103 H   0  0  0  0  0  0  0  0  0  0  0  0
   12.8868   16.2707   24.9403 H   0  0  0  0  0  0  0  0  0  0  0  0
   14.2618   16.6955   25.8550 H   0  0  0  0  0  0  0  0  0  0  0  0
   14.6069   16.2890   19.3661 H   0  0  0  0  0  0  0  0  0  0  0  0
   13.1528   15.9677   20.1969 H   0  0  0  0  0  0  0  0  0  0  0  0
  1  2  1  0  0  0
  1 12  1  0  0  0
  2  3  2  0  0  0
  2  4  1  0  0  0
  4  5  2  0  0  0
  4  9  1  0  0  0
  5  6  1  0  0  0
  5 14  1  0  0  0
  6  7  2  0  0  0
  7  8  1  0  0  0
  7 13  1  0  0  0
  8  9  2  0  0  0
  9 10  1  0  0  0
 10 11  2  0  0  0
 10 12  1  0  0  0
  1 15  1  0  0  0
 12 16  1  0  0  0
 13 17  1  0  0  0
 13 18  1  0  0  0
 14 19  1  0  0  0
 14 20  1  0  0  0
M  END
> <minimizedAffinity>
-7.62604

$$$$
1F3E_DPZ_A_400


 20 21  0  0  0  0  0  0  0  0999 V2000
   17.9925   17.6430   18.2411 N   0  0  0  0  0  0  0  0  0  0  0  0
   16.7967   17.2570   18.7390 C   0  0  0  0  0  0  0  0  0  0  0  0
   15.8660   16.9966   17.9891 O   0  0  0  0  0  0  0  0  0  0  0  0
   16.6081   17.1382   20.2552 C   0  0  0  0  0  0  0  0  0  0  0  0
   15.3850   16.7271   20.8582 C   0  0  0  0  0  0  0  0  0  0  0  0
   15.3006   16.6413   22.2630 C   0  0  0  0  0  0  0  0  0  0  0  0
   16.3996   16.9546   23.0843 C   0  0  0  0  0  0  0  0  0  0  0  0
   17.6030   17.3480   22.4795 C   0  0  0  0  0  0  0  0  0  0  0  0
   17.7134   17.4380   21.0784 C   0  0  0  0  0  0  0  0  0  0  0  0
   19.0201   17.8777   20.4490 C   0  0  0  0  0  0  0  0  0  0  0  0
   19.9673   18.1358   21.1755 O   0  0  0  0  0  0  0  0  0  0  0  0
   19.1152   17.9575   19.1069 N   0  0  0  0  0  0  0  0  0  0  0  0
   16.3062   16.8592   24.4394 N   0  0  0  0  0  0  0  0  0  0  0  0
   14.2902   16.4206   20.1156 N   0  0  0  0  0  0  0  0  0  0  0  0
   18.1053   17.7129   17.2656 H   0  0  0  0  0  0  0  0  0  0  0  0
   19.9685   18.2364   18.7028 H   0  0  0  0  0  0  0  0  0  0  0  0
   15.4582   16.5824   24.8560 H   0  0  0  0  0  0  0  0  0  0  0  0
   17.0866   17.0668   25.0025 H   0  0  0  0  0  0  0  0  0  0  0  0
   14.3307   16.4748   19.1334 H   0  0  0  0  0  0  0  0  0  0  0  0
   13.4560   16.1442   20.5593 H   0  0  0  0  0  0  0  0  0  0  0  0
  1  2  1  0  0  0
  1 12  1  0  0  0
  2  3  2  0  0  0
  2  4  1  0  0  0
  4  5  2  0  0  0
  4  9  1  0  0  0
  5  6  1  0  0  0
  5 14  1  0  0  0
  6  7  2  0  0  0
  7  8  1  0  0  0
  7 13  1  0  0  0
  8  9  2  0  0  0
  9 10  1  0  0  0
 10 11  2  0  0  0
 10 12  1  0  0  0
  1 15  1  0  0  0
 12 16  1  0  0  0
 13 17  1  0  0  0
 13 18  1  0  0  0
 14 19  1  0  0  0
 14 20  1  0  0  0
M  END
> <minimizedAffinity>
-7.54376

$$$$
1F3E_DPZ_A_400


 20 21  0  0  0  0  0  0  0  0999 V2000
   18.1600   17.2715   19.9864 N   0  0  0  0  0  0  0  0  0  0  0  0
   18.1004   17.3290   21.3355 C   0  0  0  0  0  0  0  0  0  0  0  0
   19.0962   17.6042   21.9905 O   0  0  0  0  0  0  0  0  0  0  0  0
   16.7725   17.0538   22.0493 C   0  0  0  0  0  0  0  0  0  0  0  0
   16.6236   17.1062   23.4648 C   0  0  0  0  0  0  0  0  0  0  0  0
   15.3627   16.8426   24.0382 C   0  0  0  0  0  0  0  0  0  0  0  0
   14.2462   16.5272   23.2416 C   0  0  0  0  0  0  0  0  0  0  0  0
   14.4015   16.4891   21.8476 C   0  0  0  0  0  0  0  0  0  0  0  0
   15.6497   16.7520   21.2508 C   0  0  0  0  0  0  0  0  0  0  0  0
   15.7954   16.6922   19.7436 C   0  0  0  0  0  0  0  0  0  0  0  0
   14.8143   16.4274   19.0661 O   0  0  0  0  0  0  0  0  0  0  0  0
   16.9941   16.9483   19.1831 N   0  0  0  0  0  0  0  0  0  0  0  0
   13.0325   16.2833   23.8086 N   0  0  0  0  0  0  0  0  0  0  0  0
   17.6679   17.3971   24.2825 N   0  0  0  0  0  0  0  0  0  0  0  0
   19.0166   17.4534   19.5365 H   0  0  0  0  0  0  0  0  0  0  0  0
   17.0817   16.9155   18.2030 H   0  0  0  0  0  0  0  0  0  0  0  0
   12.9319   16.3120   24.7875 H   0  0  0  0  0  0  0  0  0  0  0  0
   12.2557   16.0783   23.2397 H   0  0  0  0  0  0  0  0  0  0  0  0
   18.5556   17.5838   23.8999 H   0  0  0  0  0  0  0  0  0  0  0  0
   17.5374   17.4213   25.2580 H   0  0  0  0  0  0  0  0  0  0  0  0
  1  2  1  0  0  0
  1 12  1  0  0  0
  2  3  2  0  0  0
  2  4  1  0  0  0
  4  5  2  0  0  0
  4  9  1  0  0  0
  5  6  1  0  0  0
  5 14  1  0  0  0
  6  7  2  0  0  0
  7  8  1  0  0  0
  7 13  1  0  0  0
  8  9  2  0  0  0
  9 10  1  0  0  0
 10 11  2  0  0  0
 10 12  1  0  0  0
  1 15  1  0  0  0
 12 16  1  0  0  0
 13 17  1  0  0  0
 13 18  1  0  0  0
 14 19  1  0  0  0
 14 20  1  0  0  0
M  END
> <minimizedAffinity>
-7.42528

$$$$
1F3E_DPZ_A_400


 20 21  0  0  0  0  0  0  0  0999 V2000
   14.2042   16.4196   22.6536 N   0  0  0  0  0  0  0  0  0  0  0  0
   15.4828   16.7544   22.9361 C   0  0  0  0  0  0  0  0  0  0  0  0
   15.8510   16.8789   24.0959 O   0  0  0  0  0  0  0  0  0  0  0  0
   16.4806   16.9730   21.7936 C   0  0  0  0  0  0  0  0  0  0  0  0
   17.8465   17.3155   22.0072 C   0  0  0  0  0  0  0  0  0  0  0  0
   18.6969   17.4942   20.8968 C   0  0  0  0  0  0  0  0  0  0  0  0
   18.2250   17.3425   19.5797 C   0  0  0  0  0  0  0  0  0  0  0  0
   16.8804   16.9943   19.3809 C   0  0  0  0  0  0  0  0  0  0  0  0
   16.0120   16.8069   20.4737 C   0  0  0  0  0  0  0  0  0  0  0  0
   14.5605   16.4435   20.2331 C   0  0  0  0  0  0  0  0  0  0  0  0
   14.1696   16.3054   19.0843 O   0  0  0  0  0  0  0  0  0  0  0  0
   13.7391   16.2638   21.2866 N   0  0  0  0  0  0  0  0  0  0  0  0
   19.0598   17.5099   18.5170 N   0  0  0  0  0  0  0  0  0  0  0  0
   18.3541   17.4827   23.2555 N   0  0  0  0  0  0  0  0  0  0  0  0
   13.5713   16.2775   23.3941 H   0  0  0  0  0  0  0  0  0  0  0  0
   12.7990   16.0206   21.1251 H   0  0  0  0  0  0  0  0  0  0  0  0
   20.0019   17.7543   18.6649 H   0  0  0  0  0  0  0  0  0  0  0  0
   18.7212   17.3865   17.6009 H   0  0  0  0  0  0  0  0  0  0  0  0
   17.7751   17.3621   24.0425 H   0  0  0  0  0  0  0  0  0  0  0  0
   19.3011   17.7246   23.3735 H   0  0  0  0  0  0  0  0  0  0  0  0
  1  2  1  0  0  0
  1 12  1  0  0  0
  2  3  2  0  0  0
  2  4  1  0  0  0
  4  5  2  0  0  0
  4  9  1  0  0  0
  5  6  1  0  0  0
  5 14  1  0  0  0
  6  7  2  0  0  0
  7  8  1  0  0  0
  7 13  1  0  0  0
  8  9  2  0  0  0
  9 10  1  0  0  0
 10 11  2  0  0  0
 10 12  1  0  0  0
  1 15  1  0  0  0
 12 16  1  0  0  0
 13 17  1  0  0  0
 13 18  1  0  0  0
 14 19  1  0  0  0
 14 20  1  0  0  0
M  END
> <minimizedAffinity>
-7.40882

$$$$
1F3E_DPZ_A_400


 20 21  0  0  0  0  0  0  0  0999 V2000
   19.5069   17.9847   20.6157 N   0  0  0  0  0  0  0  0  0  0  0  0
   18.5671   17.6187   21.5154 C   0  0  0  0  0  0  0  0  0  0  0  0
   18.8250   17.5999   22.7110 O   0  0  0  0  0  0  0  0  0  0  0  0
   17.1650   17.2307   21.0335 C   0  0  0  0  0  0  0  0  0  0  0  0
   16.1165   16.8453   21.9172 C   0  0  0  0  0  0  0  0  0  0  0  0
   14.8542   16.5077   21.3875 C   0  0  0  0  0  0  0  0  0  0  0  0
   14.6069   16.5418   20.0025 C   0  0  0  0  0  0  0  0  0  0  0  0
   15.6436   16.9334   19.1419 C   0  0  0  0  0  0  0  0  0  0  0  0
   16.9121   17.2787   19.6468 C   0  0  0  0  0  0  0  0  0  0  0  0
   18.0197   17.6861   18.6960 C   0  0  0  0  0  0  0  0  0  0  0  0
   17.7856   17.7207   17.4978 O   0  0  0  0  0  0  0  0  0  0  0  0
   19.2290   18.0173   19.1906 N   0  0  0  0  0  0  0  0  0  0  0  0
   13.3803   16.2213   19.5058 N   0  0  0  0  0  0  0  0  0  0  0  0
   16.3007   16.7866   23.2612 N   0  0  0  0  0  0  0  0  0  0  0  0
   20.4037   18.2359   20.9349 H   0  0  0  0  0  0  0  0  0  0  0  0
   19.9429   18.2884   18.5693 H   0  0  0  0  0  0  0  0  0  0  0  0
   12.6582   15.9475   20.1164 H   0  0  0  0  0  0  0  0  0  0  0  0
   13.2156   16.2634   18.5361 H   0  0  0  0  0  0  0  0  0  0  0  0
   17.1754   17.0188   23.6488 H   0  0  0  0  0  0  0  0  0  0  0  0
   15.5595   16.5118   23.8481 H   0  0  0  0  0  0  0  0  0  0  0  0
  1  2  1  0  0  0
  1 12  1  0  0  0
  2  3  2  0  0  0
  2  4  1  0  0  0
  4  5  2  0  0  0
  4  9  1  0  0  0
  5  6  1  0  0  0
  5 14  1  0  0  0
  6  7  2  0  0  0
  7  8  1  0  0  0
  7 13  1  0  0  0
  8  9  2  0  0  0
  9 10  1  0  0  0
 10 11  2  0  0  0
 10 12  1  0  0  0
  1 15  1  0  0  0
 12 16  1  0  0  0
 13 17  1  0  0  0
 13 18  1  0  0  0
 14 19  1  0  0  0
 14 20  1  0  0  0
M  END
> <minimizedAffinity>
-7.30935

$$$$
1F3E_DPZ_A_400


 20 21  0  0  0  0  0  0  0  0999 V2000
   13.5577   16.2593   22.1368 N   0  0  0  0  0  0  0  0  0  0  0  0
   14.5965   16.5737   22.9423 C   0  0  0  0  0  0  0  0  0  0  0  0
   14.4582   16.5893   24.1576 O   0  0  0  0  0  0  0  0  0  0  0  0
   15.9603   16.9066   22.3276 C   0  0  0  0  0  0  0  0  0  0  0  0
   17.1064   17.2357   23.1066 C   0  0  0  0  0  0  0  0  0  0  0  0
   18.3243   17.5249   22.4577 C   0  0  0  0  0  0  0  0  0  0  0  0
   18.4327   17.4967   21.0549 C   0  0  0  0  0  0  0  0  0  0  0  0
   17.3004   17.1605   20.2976 C   0  0  0  0  0  0  0  0  0  0  0  0
   16.0735   16.8642   20.9224 C   0  0  0  0  0  0  0  0  0  0  0  0
   14.8611   16.5164   20.0823 C   0  0  0  0  0  0  0  0  0  0  0  0
   14.9748   16.4861   18.8666 O   0  0  0  0  0  0  0  0  0  0  0  0
   13.6927   16.2318   20.6911 N   0  0  0  0  0  0  0  0  0  0  0  0
   19.6176   17.7699   20.4421 N   0  0  0  0  0  0  0  0  0  0  0  0
   17.0578   17.2863   24.4627 N   0  0  0  0  0  0  0  0  0  0  0  0
   12.6864   16.0433   22.5409 H   0  0  0  0  0  0  0  0  0  0  0  0
   12.9100   15.9991   20.1411 H   0  0  0  0  0  0  0  0  0  0  0  0
   20.4076   18.0050   20.9806 H   0  0  0  0  0  0  0  0  0  0  0  0
   19.6844   17.7324   19.4606 H   0  0  0  0  0  0  0  0  0  0  0  0
   16.2159   17.0874   24.9328 H   0  0  0  0  0  0  0  0  0  0  0  0
   17.8643   17.5218   24.9757 H   0  0  0  0  0  0  0  0  0  0  0  0
  1  2  1  0  0  0
  1 12  1  0  0  0
  2  3  2  0  0  0
  2  4  1  0  0  0
  4  5  2  0  0  0
  4  9  1  0  0  0
  5  6  1  0  0  0
  5 14  1  0  0  0
  6  7  2  0  0  0
  7  8  1  0  0  0
  7 13  1  0  0  0
  8  9  2  0  0  0
  9 10  1  0  0  0
 10 11  2  0  0  0
 10 12  1  0  0  0
  1 15  1  0  0  0
 12 16  1  0  0  0
 13 17  1  0  0  0
 13 18  1  0  0  0
 14 19  1  0  0  0
 14 20  1  0  0  0
M  END
> <minimizedAffinity>
-7.27005

$$$$
1F3E_DPZ_A_400


 20 21  0  0  0  0  0  0  0  0999 V2000
   19.2511   17.9690   19.1122 N   0  0  0  0  0  0  0  0  0  0  0  0
   18.0426   17.7230   18.5593 C   0  0  0  0  0  0  0  0  0  0  0  0
   17.8737   17.8460   17.3540 O   0  0  0  0  0  0  0  0  0  0  0  0
   16.8764   17.2798   19.4494 C   0  0  0  0  0  0  0  0  0  0  0  0
   15.5769   16.9898   18.9436 C   0  0  0  0  0  0  0  0  0  0  0  0
   14.5622   16.5840   19.8346 C   0  0  0  0  0  0  0  0  0  0  0  0
   14.8050   16.4599   21.2153 C   0  0  0  0  0  0  0  0  0  0  0  0
   16.0916   16.7374   21.7014 C   0  0  0  0  0  0  0  0  0  0  0  0
   17.1227   17.1411   20.8312 C   0  0  0  0  0  0  0  0  0  0  0  0
   18.5010   17.4476   21.3819 C   0  0  0  0  0  0  0  0  0  0  0  0
   18.6978   17.3248   22.5810 O   0  0  0  0  0  0  0  0  0  0  0  0
   19.4810   17.8304   20.5395 N   0  0  0  0  0  0  0  0  0  0  0  0
   13.8177   16.0587   22.0629 N   0  0  0  0  0  0  0  0  0  0  0  0
   15.2836   17.1005   17.6224 N   0  0  0  0  0  0  0  0  0  0  0  0
   19.9952   18.2497   18.5320 H   0  0  0  0  0  0  0  0  0  0  0  0
   20.3765   18.0211   20.9013 H   0  0  0  0  0  0  0  0  0  0  0  0
   12.9176   15.8660   21.7139 H   0  0  0  0  0  0  0  0  0  0  0  0
   14.0041   15.9614   23.0247 H   0  0  0  0  0  0  0  0  0  0  0  0
   15.9795   17.3825   16.9857 H   0  0  0  0  0  0  0  0  0  0  0  0
   14.3752   16.8986   17.3012 H   0  0  0  0  0  0  0  0  0  0  0  0
  1  2  1  0  0  0
  1 12  1  0  0  0
  2  3  2  0  0  0
  2  4  1  0  0  0
  4  5  2  0  0  0
  4  9  1  0  0  0
  5  6  1  0  0  0
  5 14  1  0  0  0
  6  7  2  0  0  0
  7  8  1  0  0  0
  7 13  1  0  0  0
  8  9  2  0  0  0
  9 10  1  0  0  0
 10 11  2  0  0  0
 10 12  1  0  0  0
  1 15  1  0  0  0
 12 16  1  0  0  0
 13 17  1  0  0  0
 13 18  1  0  0  0
 14 19  1  0  0  0
 14 20  1  0  0  0
M  END
> <minimizedAffinity>
-7.26990

$$$$
