3A6T_8OG_A_134
  RCSB PDB12061707503D
Coordinates from PDB:3A6T:A:134 Model:1 without hydrogens
 24 26  0  0  0  0            999 V2000
  -11.5280    0.5380   23.4170   O 0  0  0  0  0  0  0  0  0  0  0  0
  -10.0750    0.8260   23.4770   P 0  0  0  0  0  0  0  0  0  0  0  0
   -9.8920    1.9880   24.3750   O 0  0  0  0  0  0  0  0  0  0  0  0
   -9.5930    0.9350   22.0860   O 0  0  0  0  0  0  0  0  0  0  0  0
   -9.3790   -0.4630   24.1370   O 0  0  0  0  0  0  0  0  0  0  0  0
   -8.0490   -0.4020   24.6690   C 0  0  0  0  0  0  0  0  0  0  0  0
   -7.9530   -1.1440   26.0070   C 0  0  0  0  0  0  0  0  0  0  0  0
   -6.5840   -1.4900   26.3070   O 0  0  0  0  0  0  0  0  0  0  0  0
   -8.4570   -0.3030   27.1750   C 0  0  0  0  0  0  0  0  0  0  0  0
   -9.1880   -1.1330   28.0930   O 0  0  0  0  0  0  0  0  0  0  0  0
   -7.2130    0.2580   27.7860   C 0  0  0  0  0  0  0  0  0  0  0  0
   -6.1800   -0.8320   27.5250   C 0  0  0  0  0  0  0  0  0  0  0  0
   -4.8200   -0.2560   27.3800   N 0  0  0  0  0  0  0  0  0  0  0  0
   -3.8150   -0.4280   28.2990   C 0  0  0  0  0  0  0  0  0  0  0  0
   -2.7150    0.1400   28.0140   N 0  0  0  0  0  0  0  0  0  0  0  0
   -2.9300    0.7760   26.7870   C 0  0  0  0  0  0  0  0  0  0  0  0
   -2.0810    1.5770   25.9570   C 0  0  0  0  0  0  0  0  0  0  0  0
   -0.9130    1.8940   26.1520   O 0  0  0  0  0  0  0  0  0  0  0  0
   -2.7430    2.0110   24.7880   N 0  0  0  0  0  0  0  0  0  0  0  0
   -4.0680    1.7190   24.4490   C 0  0  0  0  0  0  0  0  0  0  0  0
   -4.5220    2.2160   23.2950   N 0  0  0  0  0  0  0  0  0  0  0  0
   -4.8790    0.9690   25.2300   N 0  0  0  0  0  0  0  0  0  0  0  0
   -4.2580    0.5310   26.3760   C 0  0  0  0  0  0  0  0  0  0  0  0
   -4.0320   -1.1020   29.3220   O 0  0  0  0  0  0  0  0  0  0  0  0
  1  2  1  0  0  0  0
  2  3  2  0  0  0  0
  2  4  1  0  0  0  0
  2  5  1  0  0  0  0
  5  6  1  0  0  0  0
  6  7  1  0  0  0  0
  7  8  1  0  0  0  0
  7  9  1  0  0  0  0
  8 12  1  0  0  0  0
  9 10  1  0  0  0  0
  9 11  1  0  0  0  0
 11 12  1  0  0  0  0
 12 13  1  0  0  0  0
 13 14  1  0  0  0  0
 13 23  1  0  0  0  0
 14 15  1  0  0  0  0
 14 24  2  0  0  0  0
 15 16  1  0  0  0  0
 16 17  1  0  0  0  0
 16 23  2  0  0  0  0
 17 18  2  0  0  0  0
 17 19  1  0  0  0  0
 19 20  1  0  0  0  0
 20 21  1  0  0  0  0
 20 22  2  0  0  0  0
 22 23  1  0  0  0  0
A    1
OP3
A    2
P
A    3
OP1
A    4
OP2
A    5
O5'
A    6
C5'
A    7
C4'
A    8
O4'
A    9
C3'
A   10
O3'
A   11
C2'
A   12
C1'
A   13
N9
A   14
C8
A   15
N7
A   16
C5
A   17
C6
A   18
O6
A   19
N1
A   20
C2
A   21
N2
A   22
N3
A   23
C4
A   24
O8
M  END
>  <InstanceId>
3A6T_8OG_A_134

>  <ChemCompId>
8OG

>  <PdbId>
3A6T

>  <ChainId>
A

>  <ResidueNumber>
134

>  <InsertionCode>


>  <Model>
1

>  <AltIds>


>  <MissingHeavyAtoms>
0

>  <ObservedFormula>
C10 N5 O8 P

>  <Name>
8-OXO-2'-DEOXY-GUANOSINE-5'-MONOPHOSPHATE

>  <SystematicName>
[(2R,3S,5R)-5-(2-amino-6,8-dioxo-1,7-dihydropurin-9-yl)-3-hydroxy-oxolan-2-yl]methyl dihydrogen phosphate

>  <Synonyms>
8-OXO-7,8-DIHYDRO-2'-DEOXY-GUANOSINE-5'-MONOPHOSPHATE

>  <Type>
DNA LINKING

>  <Formula>
C10 H14 N5 O8 P

>  <MolecularWeight>
363.221

>  <ModifiedDate>
2011-06-04

>  <Parent>
DG

>  <OneLetterCode>
G

>  <SubcomponentList>


>  <AmbiguousFlag>
N

>  <InChI>
InChI=1S/C10H14N5O8P/c11-9-13-7-6(8(17)14-9)12-10(18)15(7)5-1-3(16)4(23-5)2-22-24(19,20)21/h3-5,16H,1-2H2,(H,12,18)(H2,19,20,21)(H3,11,13,14,17)/t3-,4+,5+/m0/s1

>  <InChIKey>
AQIVLFLYHYFRKU-VPENINKCSA-N

>  <SMILES>
C1[C@@H]([C@H](O[C@H]1N2C3=C(C(=O)NC(=N3)N)NC2=O)COP(=O)(O)O)O

$$$$
