3A6T_8OG_A_134


 31 33  0  0  0  0  0  0  0  0999 V2000
   -4.9723   -0.2642   27.2844 N   0  0  0  0  0  0  0  0  0  0  0  0
   -3.9805   -0.4654   28.2117 C   0  0  0  0  0  0  0  0  0  0  0  0
   -2.8662    0.0824   27.9432 N   0  0  0  0  0  0  0  0  0  0  0  0
   -3.0556    0.7342   26.7202 C   0  0  0  0  0  0  0  0  0  0  0  0
   -2.1820    1.5253   25.9065 C   0  0  0  0  0  0  0  0  0  0  0  0
   -1.0098    1.8163   26.1161 O   0  0  0  0  0  0  0  0  0  0  0  0
   -2.8230    1.9838   24.7351 N   0  0  0  0  0  0  0  0  0  0  0  0
   -4.1502    1.7223   24.3801 C   0  0  0  0  0  0  0  0  0  0  0  0
   -4.5822    2.2393   23.2265 N   0  0  0  0  0  0  0  0  0  0  0  0
   -4.9843    0.9819   25.1458 N   0  0  0  0  0  0  0  0  0  0  0  0
   -4.3841    0.5205   26.2937 C   0  0  0  0  0  0  0  0  0  0  0  0
   -4.2216   -1.1444   29.2260 O   0  0  0  0  0  0  0  0  0  0  0  0
   -2.0429    0.0542   28.4822 H   0  0  0  0  0  0  0  0  0  0  0  0
   -2.2909    2.5339   24.1160 H   0  0  0  0  0  0  0  0  0  0  0  0
   -3.9742    2.7780   22.6702 H   0  0  0  0  0  0  0  0  0  0  0  0
   -5.5085    2.0817   22.9326 H   0  0  0  0  0  0  0  0  0  0  0  0
   -8.0733   -1.1681   25.8504 C   0  0  0  0  0  0  0  0  0  0  0  0
   -6.7203   -1.5199   26.2103 O   0  0  0  0  0  0  0  0  0  0  0  0
   -8.6011   -0.2680   26.9625 C   0  0  0  0  0  0  0  0  0  0  0  0
   -9.3743   -1.0451   27.8922 O   0  0  0  0  0  0  0  0  0  0  0  0
   -7.3687    0.3021   27.5883 C   0  0  0  0  0  0  0  0  0  0  0  0
   -6.3452   -0.8134   27.4103 C   0  0  0  0  0  0  0  0  0  0  0  0
   -8.8292   -1.7671   28.2420 H   0  0  0  0  0  0  0  0  0  0  0  0
   -8.1144   -0.4860   24.4782 C   0  0  0  0  0  0  0  0  0  0  0  0
   -8.7493    0.7972   24.5563 O   0  0  0  0  0  0  0  0  0  0  0  0
   -7.6247    2.1758   22.8320 O   0  0  0  0  0  0  0  0  0  0  0  0
   -8.9669    1.7029   23.2471 P   0  0  0  0  0  0  0  0  0  0  0  0
   -9.4940    0.8555   22.1543 O   0  0  0  0  0  0  0  0  0  0  0  0
   -9.7452    2.8919   23.6468 O   0  0  0  0  0  0  0  0  0  0  0  0
   -7.7077    2.7300   22.0402 H   0  0  0  0  0  0  0  0  0  0  0  0
   -9.8914    3.4579   22.8727 H   0  0  0  0  0  0  0  0  0  0  0  0
 26 27  1  0  0  0
 27 28  2  0  0  0
 27 29  1  0  0  0
 27 25  1  0  0  0
 25 24  1  0  0  0
 24 17  1  0  0  0
 17 18  1  0  0  0
 17 19  1  0  0  0
 18 22  1  0  0  0
 19 20  1  0  0  0
 19 21  1  0  0  0
 21 22  1  0  0  0
 22  1  1  0  0  0
  1  2  1  0  0  0
  1 11  1  0  0  0
  2  3  1  0  0  0
  2 12  2  0  0  0
  3  4  1  0  0  0
  4  5  1  0  0  0
  4 11  2  0  0  0
  5  6  2  0  0  0
  5  7  1  0  0  0
  7  8  1  0  0  0
  8  9  1  0  0  0
  8 10  2  0  0  0
 10 11  1  0  0  0
 26 30  1  0  0  0
 29 31  1  0  0  0
 20 23  1  0  0  0
  3 13  1  0  0  0
  7 14  1  0  0  0
  9 15  1  0  0  0
  9 16  1  0  0  0
M  END
> <minimizedAffinity>
-9.90227

$$$$
3A6T_8OG_A_134


 31 33  0  0  0  0  0  0  0  0999 V2000
   -7.6088   -0.5284   26.1202 N   0  0  0  0  0  0  0  0  0  0  0  0
   -8.7543   -1.2674   25.9599 C   0  0  0  0  0  0  0  0  0  0  0  0
   -9.3446   -1.1199   24.8447 N   0  0  0  0  0  0  0  0  0  0  0  0
   -8.5719   -0.1969   24.1324 C   0  0  0  0  0  0  0  0  0  0  0  0
   -8.7113    0.3671   22.8233 C   0  0  0  0  0  0  0  0  0  0  0  0
   -9.5913    0.1532   21.9970 O   0  0  0  0  0  0  0  0  0  0  0  0
   -7.6715    1.2747   22.5262 N   0  0  0  0  0  0  0  0  0  0  0  0
   -6.6134    1.6050   23.3789 C   0  0  0  0  0  0  0  0  0  0  0  0
   -5.7226    2.4909   22.9244 N   0  0  0  0  0  0  0  0  0  0  0  0
   -6.4702    1.0723   24.6142 N   0  0  0  0  0  0  0  0  0  0  0  0
   -7.4719    0.1850   24.9304 C   0  0  0  0  0  0  0  0  0  0  0  0
   -9.1328   -2.0143   26.8802 O   0  0  0  0  0  0  0  0  0  0  0  0
  -10.1715   -1.5621   24.5450 H   0  0  0  0  0  0  0  0  0  0  0  0
   -7.6931    1.7119   21.6444 H   0  0  0  0  0  0  0  0  0  0  0  0
   -5.8280    2.8778   22.0253 H   0  0  0  0  0  0  0  0  0  0  0  0
   -4.9608    2.7566   23.4885 H   0  0  0  0  0  0  0  0  0  0  0  0
   -5.1844    0.9388   28.2318 C   0  0  0  0  0  0  0  0  0  0  0  0
   -6.5677    0.7754   27.8528 O   0  0  0  0  0  0  0  0  0  0  0  0
   -4.5164   -0.4190   28.0431 C   0  0  0  0  0  0  0  0  0  0  0  0
   -4.4620   -1.1139   29.3002 O   0  0  0  0  0  0  0  0  0  0  0  0
   -5.3840   -1.1186   27.0464 C   0  0  0  0  0  0  0  0  0  0  0  0
   -6.7701   -0.5587   27.3442 C   0  0  0  0  0  0  0  0  0  0  0  0
   -5.3584   -1.2008   29.6606 H   0  0  0  0  0  0  0  0  0  0  0  0
   -4.5156    2.0391   27.3999 C   0  0  0  0  0  0  0  0  0  0  0  0
   -3.1083    1.8018   27.2626 O   0  0  0  0  0  0  0  0  0  0  0  0
   -1.1541    2.1781   25.7868 O   0  0  0  0  0  0  0  0  0  0  0  0
   -2.4530    1.4652   25.8347 P   0  0  0  0  0  0  0  0  0  0  0  0
   -2.1639    0.0155   25.7644 O   0  0  0  0  0  0  0  0  0  0  0  0
   -3.3153    2.0571   24.7930 O   0  0  0  0  0  0  0  0  0  0  0  0
   -0.7201    2.0027   24.9372 H   0  0  0  0  0  0  0  0  0  0  0  0
   -2.9415    1.8682   23.9181 H   0  0  0  0  0  0  0  0  0  0  0  0
 26 27  1  0  0  0
 27 28  2  0  0  0
 27 29  1  0  0  0
 27 25  1  0  0  0
 25 24  1  0  0  0
 24 17  1  0  0  0
 17 18  1  0  0  0
 17 19  1  0  0  0
 18 22  1  0  0  0
 19 20  1  0  0  0
 19 21  1  0  0  0
 21 22  1  0  0  0
 22  1  1  0  0  0
  1  2  1  0  0  0
  1 11  1  0  0  0
  2  3  1  0  0  0
  2 12  2  0  0  0
  3  4  1  0  0  0
  4  5  1  0  0  0
  4 11  2  0  0  0
  5  6  2  0  0  0
  5  7  1  0  0  0
  7  8  1  0  0  0
  8  9  1  0  0  0
  8 10  2  0  0  0
 10 11  1  0  0  0
 26 30  1  0  0  0
 29 31  1  0  0  0
 20 23  1  0  0  0
  3 13  1  0  0  0
  7 14  1  0  0  0
  9 15  1  0  0  0
  9 16  1  0  0  0
M  END
> <minimizedAffinity>
-8.70457

$$$$
3A6T_8OG_A_134


 31 33  0  0  0  0  0  0  0  0999 V2000
   -8.2723   -0.6806   26.2399 N   0  0  0  0  0  0  0  0  0  0  0  0
   -9.3230   -1.5581   26.3404 C   0  0  0  0  0  0  0  0  0  0  0  0
  -10.1038   -1.5879   25.3388 N   0  0  0  0  0  0  0  0  0  0  0  0
   -9.5861   -0.6557   24.4338 C   0  0  0  0  0  0  0  0  0  0  0  0
  -10.0122   -0.2407   23.1309 C   0  0  0  0  0  0  0  0  0  0  0  0
  -10.9816   -0.6330   22.4912 O   0  0  0  0  0  0  0  0  0  0  0  0
   -9.1625    0.7471   22.5874 N   0  0  0  0  0  0  0  0  0  0  0  0
   -8.0297    1.2776   23.2128 C   0  0  0  0  0  0  0  0  0  0  0  0
   -7.3489    2.2116   22.5427 N   0  0  0  0  0  0  0  0  0  0  0  0
   -7.6161    0.8868   24.4402 N   0  0  0  0  0  0  0  0  0  0  0  0
   -8.4281   -0.0747   24.9942 C   0  0  0  0  0  0  0  0  0  0  0  0
   -9.4438   -2.2509   27.3668 O   0  0  0  0  0  0  0  0  0  0  0  0
  -10.9046   -2.1489   25.2238 H   0  0  0  0  0  0  0  0  0  0  0  0
   -9.3864    1.0916   21.6927 H   0  0  0  0  0  0  0  0  0  0  0  0
   -7.6510    2.4951   21.6496 H   0  0  0  0  0  0  0  0  0  0  0  0
   -6.5452    2.6163   22.9420 H   0  0  0  0  0  0  0  0  0  0  0  0
   -5.3557    0.8990   27.4597 C   0  0  0  0  0  0  0  0  0  0  0  0
   -6.7931    0.8729   27.3282 O   0  0  0  0  0  0  0  0  0  0  0  0
   -4.9060   -0.5486   27.6264 C   0  0  0  0  0  0  0  0  0  0  0  0
   -4.7233   -0.8443   29.0211 O   0  0  0  0  0  0  0  0  0  0  0  0
   -6.0131   -1.3484   27.0181 C   0  0  0  0  0  0  0  0  0  0  0  0
   -7.2458   -0.4960   27.2957 C   0  0  0  0  0  0  0  0  0  0  0  0
   -5.5478   -0.6663   29.5000 H   0  0  0  0  0  0  0  0  0  0  0  0
   -4.7077    1.5757   26.2464 C   0  0  0  0  0  0  0  0  0  0  0  0
   -3.5746    0.8305   25.7813 O   0  0  0  0  0  0  0  0  0  0  0  0
   -1.4052    1.8299   25.1227 O   0  0  0  0  0  0  0  0  0  0  0  0
   -2.0851    1.1825   26.2701 P   0  0  0  0  0  0  0  0  0  0  0  0
   -2.1566    2.1801   27.3609 O   0  0  0  0  0  0  0  0  0  0  0  0
   -1.3848   -0.0903   26.5319 O   0  0  0  0  0  0  0  0  0  0  0  0
   -0.4972    2.0612   25.3735 H   0  0  0  0  0  0  0  0  0  0  0  0
   -0.4800    0.0937   26.8295 H   0  0  0  0  0  0  0  0  0  0  0  0
 26 27  1  0  0  0
 27 28  2  0  0  0
 27 29  1  0  0  0
 27 25  1  0  0  0
 25 24  1  0  0  0
 24 17  1  0  0  0
 17 18  1  0  0  0
 17 19  1  0  0  0
 18 22  1  0  0  0
 19 20  1  0  0  0
 19 21  1  0  0  0
 21 22  1  0  0  0
 22  1  1  0  0  0
  1  2  1  0  0  0
  1 11  1  0  0  0
  2  3  1  0  0  0
  2 12  2  0  0  0
  3  4  1  0  0  0
  4  5  1  0  0  0
  4 11  2  0  0  0
  5  6  2  0  0  0
  5  7  1  0  0  0
  7  8  1  0  0  0
  8  9  1  0  0  0
  8 10  2  0  0  0
 10 11  1  0  0  0
 26 30  1  0  0  0
 29 31  1  0  0  0
 20 23  1  0  0  0
  3 13  1  0  0  0
  7 14  1  0  0  0
  9 15  1  0  0  0
  9 16  1  0  0  0
M  END
> <minimizedAffinity>
-8.33602

$$$$
3A6T_8OG_A_134


 31 33  0  0  0  0  0  0  0  0999 V2000
   -5.7194    0.2004   25.1890 N   0  0  0  0  0  0  0  0  0  0  0  0
   -5.2868    1.1124   24.2588 C   0  0  0  0  0  0  0  0  0  0  0  0
   -4.1752    1.6691   24.5198 N   0  0  0  0  0  0  0  0  0  0  0  0
   -3.7619    1.1242   25.7398 C   0  0  0  0  0  0  0  0  0  0  0  0
   -2.5981    1.3422   26.5456 C   0  0  0  0  0  0  0  0  0  0  0  0
   -1.6593    2.1003   26.3296 O   0  0  0  0  0  0  0  0  0  0  0  0
   -2.6120    0.5542   27.7170 N   0  0  0  0  0  0  0  0  0  0  0  0
   -3.6199   -0.3453   28.0789 C   0  0  0  0  0  0  0  0  0  0  0  0
   -3.4610   -1.0020   29.2314 N   0  0  0  0  0  0  0  0  0  0  0  0
   -4.7191   -0.5624   27.3208 N   0  0  0  0  0  0  0  0  0  0  0  0
   -4.7320    0.1948   26.1730 C   0  0  0  0  0  0  0  0  0  0  0  0
   -5.9805    1.3306   23.2493 O   0  0  0  0  0  0  0  0  0  0  0  0
   -3.7039    2.3422   23.9775 H   0  0  0  0  0  0  0  0  0  0  0  0
   -1.8478    0.6457   28.3309 H   0  0  0  0  0  0  0  0  0  0  0  0
   -2.6606   -0.8431   29.7822 H   0  0  0  0  0  0  0  0  0  0  0  0
   -4.1443   -1.6448   29.5299 H   0  0  0  0  0  0  0  0  0  0  0  0
   -9.0858   -0.0378   24.1402 C   0  0  0  0  0  0  0  0  0  0  0  0
   -7.6805   -0.2082   23.8575 O   0  0  0  0  0  0  0  0  0  0  0  0
   -9.2859   -0.4161   25.6039 C   0  0  0  0  0  0  0  0  0  0  0  0
   -9.7437   -1.7754   25.6974 O   0  0  0  0  0  0  0  0  0  0  0  0
   -7.9355   -0.2297   26.2182 C   0  0  0  0  0  0  0  0  0  0  0  0
   -6.9875   -0.5616   25.0718 C   0  0  0  0  0  0  0  0  0  0  0  0
   -9.1080   -2.3616   25.2580 H   0  0  0  0  0  0  0  0  0  0  0  0
   -9.5337    1.3975   23.8417 C   0  0  0  0  0  0  0  0  0  0  0  0
   -9.0949    1.8177   22.5430 O   0  0  0  0  0  0  0  0  0  0  0  0
   -7.4428    3.6501   22.3171 O   0  0  0  0  0  0  0  0  0  0  0  0
   -8.8936    3.3724   22.1914 P   0  0  0  0  0  0  0  0  0  0  0  0
   -9.2659    3.6012   20.7775 O   0  0  0  0  0  0  0  0  0  0  0  0
   -9.5816    4.1619   23.2318 O   0  0  0  0  0  0  0  0  0  0  0  0
   -7.2732    4.5831   22.1126 H   0  0  0  0  0  0  0  0  0  0  0  0
   -9.4756    5.1075   23.0432 H   0  0  0  0  0  0  0  0  0  0  0  0
 26 27  1  0  0  0
 27 28  2  0  0  0
 27 29  1  0  0  0
 27 25  1  0  0  0
 25 24  1  0  0  0
 24 17  1  0  0  0
 17 18  1  0  0  0
 17 19  1  0  0  0
 18 22  1  0  0  0
 19 20  1  0  0  0
 19 21  1  0  0  0
 21 22  1  0  0  0
 22  1  1  0  0  0
  1  2  1  0  0  0
  1 11  1  0  0  0
  2  3  1  0  0  0
  2 12  2  0  0  0
  3  4  1  0  0  0
  4  5  1  0  0  0
  4 11  2  0  0  0
  5  6  2  0  0  0
  5  7  1  0  0  0
  7  8  1  0  0  0
  8  9  1  0  0  0
  8 10  2  0  0  0
 10 11  1  0  0  0
 26 30  1  0  0  0
 29 31  1  0  0  0
 20 23  1  0  0  0
  3 13  1  0  0  0
  7 14  1  0  0  0
  9 15  1  0  0  0
  9 16  1  0  0  0
M  END
> <minimizedAffinity>
-8.28218

$$$$
3A6T_8OG_A_134


 31 33  0  0  0  0  0  0  0  0999 V2000
   -9.7905   -0.0025   25.0853 N   0  0  0  0  0  0  0  0  0  0  0  0
  -11.0243   -0.0472   24.4854 C   0  0  0  0  0  0  0  0  0  0  0  0
  -11.0899    0.4916   23.3368 N   0  0  0  0  0  0  0  0  0  0  0  0
   -9.8027    0.9723   23.0757 C   0  0  0  0  0  0  0  0  0  0  0  0
   -9.2435    1.6637   21.9529 C   0  0  0  0  0  0  0  0  0  0  0  0
   -9.8057    2.0068   20.9190 O   0  0  0  0  0  0  0  0  0  0  0  0
   -7.8747    1.9541   22.1402 N   0  0  0  0  0  0  0  0  0  0  0  0
   -7.1204    1.6191   23.2692 C   0  0  0  0  0  0  0  0  0  0  0  0
   -5.8346    1.9818   23.2686 N   0  0  0  0  0  0  0  0  0  0  0  0
   -7.6386    0.9605   24.3313 N   0  0  0  0  0  0  0  0  0  0  0  0
   -8.9728    0.6664   24.1758 C   0  0  0  0  0  0  0  0  0  0  0  0
  -11.9713   -0.5957   25.0772 O   0  0  0  0  0  0  0  0  0  0  0  0
  -11.8803    0.5569   22.7535 H   0  0  0  0  0  0  0  0  0  0  0  0
   -7.4121    2.4328   21.4149 H   0  0  0  0  0  0  0  0  0  0  0  0
   -5.4587    2.4611   22.4951 H   0  0  0  0  0  0  0  0  0  0  0  0
   -5.2630    1.7698   24.0416 H   0  0  0  0  0  0  0  0  0  0  0  0
   -7.9631    0.0019   28.1102 C   0  0  0  0  0  0  0  0  0  0  0  0
   -9.0963    0.4591   27.3416 O   0  0  0  0  0  0  0  0  0  0  0  0
   -7.7224   -1.4503   27.7118 C   0  0  0  0  0  0  0  0  0  0  0  0
   -8.3391   -2.3267   28.6698 O   0  0  0  0  0  0  0  0  0  0  0  0
   -8.3431   -1.5660   26.3565 C   0  0  0  0  0  0  0  0  0  0  0  0
   -9.5005   -0.5763   26.4228 C   0  0  0  0  0  0  0  0  0  0  0  0
   -9.2854   -2.1228   28.7322 H   0  0  0  0  0  0  0  0  0  0  0  0
   -6.7376    0.8875   27.8575 C   0  0  0  0  0  0  0  0  0  0  0  0
   -5.6113    0.1059   27.4375 O   0  0  0  0  0  0  0  0  0  0  0  0
   -4.8508    2.1342   26.2348 O   0  0  0  0  0  0  0  0  0  0  0  0
   -4.4874    0.7154   26.4645 P   0  0  0  0  0  0  0  0  0  0  0  0
   -3.1829    0.7015   27.1633 O   0  0  0  0  0  0  0  0  0  0  0  0
   -4.5919    0.0214   25.1658 O   0  0  0  0  0  0  0  0  0  0  0  0
   -4.1959    2.5450   25.6490 H   0  0  0  0  0  0  0  0  0  0  0  0
   -3.9224    0.3713   24.5574 H   0  0  0  0  0  0  0  0  0  0  0  0
 26 27  1  0  0  0
 27 28  2  0  0  0
 27 29  1  0  0  0
 27 25  1  0  0  0
 25 24  1  0  0  0
 24 17  1  0  0  0
 17 18  1  0  0  0
 17 19  1  0  0  0
 18 22  1  0  0  0
 19 20  1  0  0  0
 19 21  1  0  0  0
 21 22  1  0  0  0
 22  1  1  0  0  0
  1  2  1  0  0  0
  1 11  1  0  0  0
  2  3  1  0  0  0
  2 12  2  0  0  0
  3  4  1  0  0  0
  4  5  1  0  0  0
  4 11  2  0  0  0
  5  6  2  0  0  0
  5  7  1  0  0  0
  7  8  1  0  0  0
  8  9  1  0  0  0
  8 10  2  0  0  0
 10 11  1  0  0  0
 26 30  1  0  0  0
 29 31  1  0  0  0
 20 23  1  0  0  0
  3 13  1  0  0  0
  7 14  1  0  0  0
  9 15  1  0  0  0
  9 16  1  0  0  0
M  END
> <minimizedAffinity>
-7.97572

$$$$
3A6T_8OG_A_134


 31 33  0  0  0  0  0  0  0  0999 V2000
   -7.4899    0.1045   24.9307 N   0  0  0  0  0  0  0  0  0  0  0  0
   -6.7605    0.6806   23.9207 C   0  0  0  0  0  0  0  0  0  0  0  0
   -7.3590    0.7757   22.8042 N   0  0  0  0  0  0  0  0  0  0  0  0
   -8.6266    0.2223   23.0116 C   0  0  0  0  0  0  0  0  0  0  0  0
   -9.7528    0.0460   22.1445 C   0  0  0  0  0  0  0  0  0  0  0  0
   -9.8540    0.3568   20.9630 O   0  0  0  0  0  0  0  0  0  0  0  0
  -10.8359   -0.5732   22.8054 N   0  0  0  0  0  0  0  0  0  0  0  0
  -10.8474   -0.9755   24.1447 C   0  0  0  0  0  0  0  0  0  0  0  0
  -11.9660   -1.5507   24.5952 N   0  0  0  0  0  0  0  0  0  0  0  0
   -9.7909   -0.8069   24.9726 N   0  0  0  0  0  0  0  0  0  0  0  0
   -8.7199   -0.2067   24.3532 C   0  0  0  0  0  0  0  0  0  0  0  0
   -5.5996    1.0656   24.1490 O   0  0  0  0  0  0  0  0  0  0  0  0
   -7.0051    1.1583   21.9689 H   0  0  0  0  0  0  0  0  0  0  0  0
  -11.6518   -0.7355   22.2790 H   0  0  0  0  0  0  0  0  0  0  0  0
  -12.7341   -1.6728   23.9917 H   0  0  0  0  0  0  0  0  0  0  0  0
  -12.0220   -1.8523   25.5306 H   0  0  0  0  0  0  0  0  0  0  0  0
   -5.4361    1.0965   27.6301 C   0  0  0  0  0  0  0  0  0  0  0  0
   -6.6994    1.1725   26.9358 O   0  0  0  0  0  0  0  0  0  0  0  0
   -4.9585   -0.3469   27.5114 C   0  0  0  0  0  0  0  0  0  0  0  0
   -5.3088   -1.0751   28.7001 O   0  0  0  0  0  0  0  0  0  0  0  0
   -5.6634   -0.8674   26.2999 C   0  0  0  0  0  0  0  0  0  0  0  0
   -6.9781   -0.0962   26.3092 C   0  0  0  0  0  0  0  0  0  0  0  0
   -6.2673   -1.0236   28.8401 H   0  0  0  0  0  0  0  0  0  0  0  0
   -4.4298    2.0944   27.0457 C   0  0  0  0  0  0  0  0  0  0  0  0
   -3.0824    1.6427   27.2354 O   0  0  0  0  0  0  0  0  0  0  0  0
   -0.9017    2.2072   26.2035 O   0  0  0  0  0  0  0  0  0  0  0  0
   -2.1078    1.3729   25.9868 P   0  0  0  0  0  0  0  0  0  0  0  0
   -1.6752   -0.0423   26.0074 O   0  0  0  0  0  0  0  0  0  0  0  0
   -2.7789    1.8809   24.7741 O   0  0  0  0  0  0  0  0  0  0  0  0
   -0.2814    2.0757   25.4694 H   0  0  0  0  0  0  0  0  0  0  0  0
   -2.2104    1.7302   24.0027 H   0  0  0  0  0  0  0  0  0  0  0  0
 26 27  1  0  0  0
 27 28  2  0  0  0
 27 29  1  0  0  0
 27 25  1  0  0  0
 25 24  1  0  0  0
 24 17  1  0  0  0
 17 18  1  0  0  0
 17 19  1  0  0  0
 18 22  1  0  0  0
 19 20  1  0  0  0
 19 21  1  0  0  0
 21 22  1  0  0  0
 22  1  1  0  0  0
  1  2  1  0  0  0
  1 11  1  0  0  0
  2  3  1  0  0  0
  2 12  2  0  0  0
  3  4  1  0  0  0
  4  5  1  0  0  0
  4 11  2  0  0  0
  5  6  2  0  0  0
  5  7  1  0  0  0
  7  8  1  0  0  0
  8  9  1  0  0  0
  8 10  2  0  0  0
 10 11  1  0  0  0
 26 30  1  0  0  0
 29 31  1  0  0  0
 20 23  1  0  0  0
  3 13  1  0  0  0
  7 14  1  0  0  0
  9 15  1  0  0  0
  9 16  1  0  0  0
M  END
> <minimizedAffinity>
-7.97567

$$$$
3A6T_8OG_A_134


 31 33  0  0  0  0  0  0  0  0999 V2000
   -6.2111    0.9751   24.2761 N   0  0  0  0  0  0  0  0  0  0  0  0
   -4.9780    1.5419   24.0701 C   0  0  0  0  0  0  0  0  0  0  0  0
   -4.1673    1.4479   25.0436 N   0  0  0  0  0  0  0  0  0  0  0  0
   -4.8627    0.7605   26.0438 C   0  0  0  0  0  0  0  0  0  0  0  0
   -4.4899    0.3457   27.3629 C   0  0  0  0  0  0  0  0  0  0  0  0
   -3.4196    0.5163   27.9357 O   0  0  0  0  0  0  0  0  0  0  0  0
   -5.5405   -0.3309   28.0200 N   0  0  0  0  0  0  0  0  0  0  0  0
   -6.8043   -0.5883   27.4794 C   0  0  0  0  0  0  0  0  0  0  0  0
   -7.6742   -1.2407   28.2556 N   0  0  0  0  0  0  0  0  0  0  0  0
   -7.1627   -0.2061   26.2321 N   0  0  0  0  0  0  0  0  0  0  0  0
   -6.1572    0.4576   25.5694 C   0  0  0  0  0  0  0  0  0  0  0  0
   -4.7329    2.0913   22.9811 O   0  0  0  0  0  0  0  0  0  0  0  0
   -3.2441    1.7874   25.0853 H   0  0  0  0  0  0  0  0  0  0  0  0
   -5.3690   -0.6481   28.9360 H   0  0  0  0  0  0  0  0  0  0  0  0
   -7.4122   -1.5184   29.1631 H   0  0  0  0  0  0  0  0  0  0  0  0
   -8.5772   -1.4439   27.9202 H   0  0  0  0  0  0  0  0  0  0  0  0
   -9.6313    1.2487   23.4295 C   0  0  0  0  0  0  0  0  0  0  0  0
   -8.3516    1.8782   23.6530 O   0  0  0  0  0  0  0  0  0  0  0  0
   -9.3476   -0.0924   22.7613 C   0  0  0  0  0  0  0  0  0  0  0  0
   -9.5020    0.0306   21.3376 O   0  0  0  0  0  0  0  0  0  0  0  0
   -7.9393   -0.4063   23.1533 C   0  0  0  0  0  0  0  0  0  0  0  0
   -7.2985    0.9721   23.2662 C   0  0  0  0  0  0  0  0  0  0  0  0
   -8.9144    0.7283   21.0077 H   0  0  0  0  0  0  0  0  0  0  0  0
  -10.4019    1.0938   24.7457 C   0  0  0  0  0  0  0  0  0  0  0  0
  -10.9859   -0.2111   24.8537 O   0  0  0  0  0  0  0  0  0  0  0  0
  -10.2998   -0.2374   27.2342 O   0  0  0  0  0  0  0  0  0  0  0  0
  -10.7232   -1.1406   26.1376 P   0  0  0  0  0  0  0  0  0  0  0  0
  -11.9985   -1.7681   26.5500 O   0  0  0  0  0  0  0  0  0  0  0  0
   -9.5788   -2.0207   25.8295 O   0  0  0  0  0  0  0  0  0  0  0  0
  -10.1293   -0.7583   28.0345 H   0  0  0  0  0  0  0  0  0  0  0  0
   -9.3982   -2.5945   26.5905 H   0  0  0  0  0  0  0  0  0  0  0  0
 26 27  1  0  0  0
 27 28  2  0  0  0
 27 29  1  0  0  0
 27 25  1  0  0  0
 25 24  1  0  0  0
 24 17  1  0  0  0
 17 18  1  0  0  0
 17 19  1  0  0  0
 18 22  1  0  0  0
 19 20  1  0  0  0
 19 21  1  0  0  0
 21 22  1  0  0  0
 22  1  1  0  0  0
  1  2  1  0  0  0
  1 11  1  0  0  0
  2  3  1  0  0  0
  2 12  2  0  0  0
  3  4  1  0  0  0
  4  5  1  0  0  0
  4 11  2  0  0  0
  5  6  2  0  0  0
  5  7  1  0  0  0
  7  8  1  0  0  0
  8  9  1  0  0  0
  8 10  2  0  0  0
 10 11  1  0  0  0
 26 30  1  0  0  0
 29 31  1  0  0  0
 20 23  1  0  0  0
  3 13  1  0  0  0
  7 14  1  0  0  0
  9 15  1  0  0  0
  9 16  1  0  0  0
M  END
> <minimizedAffinity>
-7.73869

$$$$
3A6T_8OG_A_134


 31 33  0  0  0  0  0  0  0  0999 V2000
   -7.9888   -0.5833   24.9211 N   0  0  0  0  0  0  0  0  0  0  0  0
   -7.8563   -1.3818   26.0296 C   0  0  0  0  0  0  0  0  0  0  0  0
   -6.7374   -1.3023   26.6259 N   0  0  0  0  0  0  0  0  0  0  0  0
   -5.9894   -0.3742   25.8943 C   0  0  0  0  0  0  0  0  0  0  0  0
   -4.6645    0.1423   26.0652 C   0  0  0  0  0  0  0  0  0  0  0  0
   -3.8507   -0.1361   26.9387 O   0  0  0  0  0  0  0  0  0  0  0  0
   -4.3286    1.0764   25.0614 N   0  0  0  0  0  0  0  0  0  0  0  0
   -5.1632    1.4781   24.0136 C   0  0  0  0  0  0  0  0  0  0  0  0
   -4.6686    2.3728   23.1536 N   0  0  0  0  0  0  0  0  0  0  0  0
   -6.4182    1.0006   23.8483 N   0  0  0  0  0  0  0  0  0  0  0  0
   -6.7709    0.0861   24.8127 C   0  0  0  0  0  0  0  0  0  0  0  0
   -8.8054   -2.1078   26.3761 O   0  0  0  0  0  0  0  0  0  0  0  0
   -6.4561   -1.7910   27.4330 H   0  0  0  0  0  0  0  0  0  0  0  0
   -3.4311    1.4790   25.1024 H   0  0  0  0  0  0  0  0  0  0  0  0
   -3.7552    2.7196   23.2750 H   0  0  0  0  0  0  0  0  0  0  0  0
   -5.2175    2.6854   22.3984 H   0  0  0  0  0  0  0  0  0  0  0  0
   -9.7933    0.7369   22.1842 C   0  0  0  0  0  0  0  0  0  0  0  0
   -8.8791   -0.2478   22.7119 O   0  0  0  0  0  0  0  0  0  0  0  0
  -10.8249    1.0041   23.2751 C   0  0  0  0  0  0  0  0  0  0  0  0
  -12.0057    0.2219   23.0308 O   0  0  0  0  0  0  0  0  0  0  0  0
  -10.1329    0.6053   24.5391 C   0  0  0  0  0  0  0  0  0  0  0  0
   -9.2148   -0.5242   24.0868 C   0  0  0  0  0  0  0  0  0  0  0  0
  -11.7674   -0.7172   22.9832 H   0  0  0  0  0  0  0  0  0  0  0  0
   -9.0457    2.0075   21.7638 C   0  0  0  0  0  0  0  0  0  0  0  0
   -8.8147    2.8683   22.8869 O   0  0  0  0  0  0  0  0  0  0  0  0
   -7.7586    5.1019   23.0717 O   0  0  0  0  0  0  0  0  0  0  0  0
   -9.0613    4.4530   22.7899 P   0  0  0  0  0  0  0  0  0  0  0  0
   -9.4363    4.8004   21.4011 O   0  0  0  0  0  0  0  0  0  0  0  0
   -9.9834    4.8324   23.8784 O   0  0  0  0  0  0  0  0  0  0  0  0
   -7.8602    6.0654   23.0238 H   0  0  0  0  0  0  0  0  0  0  0  0
  -10.1499    5.7874   23.8430 H   0  0  0  0  0  0  0  0  0  0  0  0
 26 27  1  0  0  0
 27 28  2  0  0  0
 27 29  1  0  0  0
 27 25  1  0  0  0
 25 24  1  0  0  0
 24 17  1  0  0  0
 17 18  1  0  0  0
 17 19  1  0  0  0
 18 22  1  0  0  0
 19 20  1  0  0  0
 19 21  1  0  0  0
 21 22  1  0  0  0
 22  1  1  0  0  0
  1  2  1  0  0  0
  1 11  1  0  0  0
  2  3  1  0  0  0
  2 12  2  0  0  0
  3  4  1  0  0  0
  4  5  1  0  0  0
  4 11  2  0  0  0
  5  6  2  0  0  0
  5  7  1  0  0  0
  7  8  1  0  0  0
  8  9  1  0  0  0
  8 10  2  0  0  0
 10 11  1  0  0  0
 26 30  1  0  0  0
 29 31  1  0  0  0
 20 23  1  0  0  0
  3 13  1  0  0  0
  7 14  1  0  0  0
  9 15  1  0  0  0
  9 16  1  0  0  0
M  END
> <minimizedAffinity>
-7.39754

$$$$
3A6T_8OG_A_134


 31 33  0  0  0  0  0  0  0  0999 V2000
   -5.7381    0.2350   25.2218 N   0  0  0  0  0  0  0  0  0  0  0  0
   -5.3034    1.1245   24.2710 C   0  0  0  0  0  0  0  0  0  0  0  0
   -4.1711    1.6534   24.4989 N   0  0  0  0  0  0  0  0  0  0  0  0
   -3.7435    1.1110   25.7151 C   0  0  0  0  0  0  0  0  0  0  0  0
   -2.5552    1.3059   26.4904 C   0  0  0  0  0  0  0  0  0  0  0  0
   -1.6017    2.0357   26.2432 O   0  0  0  0  0  0  0  0  0  0  0  0
   -2.5623    0.5317   27.6710 N   0  0  0  0  0  0  0  0  0  0  0  0
   -3.5851   -0.3359   28.0672 C   0  0  0  0  0  0  0  0  0  0  0  0
   -3.4164   -0.9839   29.2232 N   0  0  0  0  0  0  0  0  0  0  0  0
   -4.7078   -0.5312   27.3380 N   0  0  0  0  0  0  0  0  0  0  0  0
   -4.7278    0.2133   26.1821 C   0  0  0  0  0  0  0  0  0  0  0  0
   -6.0150    1.3504   23.2758 O   0  0  0  0  0  0  0  0  0  0  0  0
   -3.6950    2.3073   23.9378 H   0  0  0  0  0  0  0  0  0  0  0  0
   -1.7814    0.6090   28.2654 H   0  0  0  0  0  0  0  0  0  0  0  0
   -2.5990   -0.8409   29.7529 H   0  0  0  0  0  0  0  0  0  0  0  0
   -4.1095   -1.6044   29.5454 H   0  0  0  0  0  0  0  0  0  0  0  0
   -9.0163   -0.0977   23.9444 C   0  0  0  0  0  0  0  0  0  0  0  0
   -7.6029   -0.3668   23.8269 O   0  0  0  0  0  0  0  0  0  0  0  0
   -9.3526   -0.1696   25.4301 C   0  0  0  0  0  0  0  0  0  0  0  0
   -9.8834   -1.4673   25.7469 O   0  0  0  0  0  0  0  0  0  0  0  0
   -8.0488    0.0914   26.1137 C   0  0  0  0  0  0  0  0  0  0  0  0
   -7.0287   -0.4933   25.1437 C   0  0  0  0  0  0  0  0  0  0  0  0
   -9.2441   -2.1498   25.4893 H   0  0  0  0  0  0  0  0  0  0  0  0
   -9.3668    1.2631   23.3316 C   0  0  0  0  0  0  0  0  0  0  0  0
  -10.6877    1.2556   22.7742 O   0  0  0  0  0  0  0  0  0  0  0  0
  -12.3903    0.9714   20.9968 O   0  0  0  0  0  0  0  0  0  0  0  0
  -10.9266    1.1012   21.1929 P   0  0  0  0  0  0  0  0  0  0  0  0
  -10.4989    2.3453   20.5150 O   0  0  0  0  0  0  0  0  0  0  0  0
  -10.3138   -0.1726   20.7674 O   0  0  0  0  0  0  0  0  0  0  0  0
  -12.5826    0.8753   20.0510 H   0  0  0  0  0  0  0  0  0  0  0  0
  -10.4438   -0.2912   19.8135 H   0  0  0  0  0  0  0  0  0  0  0  0
 26 27  1  0  0  0
 27 28  2  0  0  0
 27 29  1  0  0  0
 27 25  1  0  0  0
 25 24  1  0  0  0
 24 17  1  0  0  0
 17 18  1  0  0  0
 17 19  1  0  0  0
 18 22  1  0  0  0
 19 20  1  0  0  0
 19 21  1  0  0  0
 21 22  1  0  0  0
 22  1  1  0  0  0
  1  2  1  0  0  0
  1 11  1  0  0  0
  2  3  1  0  0  0
  2 12  2  0  0  0
  3  4  1  0  0  0
  4  5  1  0  0  0
  4 11  2  0  0  0
  5  6  2  0  0  0
  5  7  1  0  0  0
  7  8  1  0  0  0
  8  9  1  0  0  0
  8 10  2  0  0  0
 10 11  1  0  0  0
 26 30  1  0  0  0
 29 31  1  0  0  0
 20 23  1  0  0  0
  3 13  1  0  0  0
  7 14  1  0  0  0
  9 15  1  0  0  0
  9 16  1  0  0  0
M  END
> <minimizedAffinity>
-7.17414

$$$$
3A6T_8OG_A_134


 31 33  0  0  0  0  0  0  0  0999 V2000
   -7.2503    0.4750   24.3840 N   0  0  0  0  0  0  0  0  0  0  0  0
   -5.9083    0.7249   24.5282 C   0  0  0  0  0  0  0  0  0  0  0  0
   -5.4192    0.4287   25.6626 N   0  0  0  0  0  0  0  0  0  0  0  0
   -6.4884   -0.0754   26.4102 C   0  0  0  0  0  0  0  0  0  0  0  0
   -6.5738   -0.5785   27.7484 C   0  0  0  0  0  0  0  0  0  0  0  0
   -5.6766   -0.6786   28.5778 O   0  0  0  0  0  0  0  0  0  0  0  0
   -7.8858   -0.9827   28.0776 N   0  0  0  0  0  0  0  0  0  0  0  0
   -8.9930   -0.9197   27.2256 C   0  0  0  0  0  0  0  0  0  0  0  0
  -10.1603   -1.3457   27.7162 N   0  0  0  0  0  0  0  0  0  0  0  0
   -8.9202   -0.4524   25.9581 N   0  0  0  0  0  0  0  0  0  0  0  0
   -7.6520   -0.0495   25.6115 C   0  0  0  0  0  0  0  0  0  0  0  0
   -5.2709    1.2059   23.5741 O   0  0  0  0  0  0  0  0  0  0  0  0
   -4.4845    0.5321   25.9540 H   0  0  0  0  0  0  0  0  0  0  0  0
   -8.0338   -1.3391   28.9833 H   0  0  0  0  0  0  0  0  0  0  0  0
  -10.2120   -1.6856   28.6387 H   0  0  0  0  0  0  0  0  0  0  0  0
  -10.9690   -1.3197   27.1552 H   0  0  0  0  0  0  0  0  0  0  0  0
  -10.0818    1.7906   22.7284 C   0  0  0  0  0  0  0  0  0  0  0  0
   -8.7510    1.9782   23.2553 O   0  0  0  0  0  0  0  0  0  0  0  0
  -10.1290    0.3791   22.1533 C   0  0  0  0  0  0  0  0  0  0  0  0
   -9.9029    0.4235   20.7346 O   0  0  0  0  0  0  0  0  0  0  0  0
   -9.0417   -0.3480   22.8777 C   0  0  0  0  0  0  0  0  0  0  0  0
   -8.0123    0.7451   23.1394 C   0  0  0  0  0  0  0  0  0  0  0  0
   -9.0535    0.8565   20.5559 H   0  0  0  0  0  0  0  0  0  0  0  0
  -11.1376    2.0130   23.8175 C   0  0  0  0  0  0  0  0  0  0  0  0
  -12.0571    0.9147   23.8796 O   0  0  0  0  0  0  0  0  0  0  0  0
  -11.7391    0.9933   26.3355 O   0  0  0  0  0  0  0  0  0  0  0  0
  -12.4800    0.2572   25.2833 P   0  0  0  0  0  0  0  0  0  0  0  0
  -13.9230    0.4925   25.5128 O   0  0  0  0  0  0  0  0  0  0  0  0
  -11.9884   -1.1346   25.2947 O   0  0  0  0  0  0  0  0  0  0  0  0
  -11.9648    0.6282   27.2053 H   0  0  0  0  0  0  0  0  0  0  0  0
  -12.2310   -1.5564   26.1338 H   0  0  0  0  0  0  0  0  0  0  0  0
 26 27  1  0  0  0
 27 28  2  0  0  0
 27 29  1  0  0  0
 27 25  1  0  0  0
 25 24  1  0  0  0
 24 17  1  0  0  0
 17 18  1  0  0  0
 17 19  1  0  0  0
 18 22  1  0  0  0
 19 20  1  0  0  0
 19 21  1  0  0  0
 21 22  1  0  0  0
 22  1  1  0  0  0
  1  2  1  0  0  0
  1 11  1  0  0  0
  2  3  1  0  0  0
  2 12  2  0  0  0
  3  4  1  0  0  0
  4  5  1  0  0  0
  4 11  2  0  0  0
  5  6  2  0  0  0
  5  7  1  0  0  0
  7  8  1  0  0  0
  8  9  1  0  0  0
  8 10  2  0  0  0
 10 11  1  0  0  0
 26 30  1  0  0  0
 29 31  1  0  0  0
 20 23  1  0  0  0
  3 13  1  0  0  0
  7 14  1  0  0  0
  9 15  1  0  0  0
  9 16  1  0  0  0
M  END
> <minimizedAffinity>
-7.10602

$$$$
