4ABH_7Z3_A_1253
  RCSB PDB12061711393D
Coordinates from PDB:4ABH:A:1253 Model:1 without hydrogens
 13 14  0  0  0  0            999 V2000
    1.8130  -15.9790   18.2830   C 0  0  0  0  0  0  0  0  0  0  0  0
    3.1190  -15.7710   19.0010   N 0  0  0  0  0  0  0  0  0  0  0  0
    1.6750  -15.1310   17.0630   C 0  0  0  0  0  0  0  0  0  0  0  0
    2.4160  -11.6370   15.8790   N 0  0  0  0  0  0  0  0  0  0  0  0
    1.3110  -15.7700   15.8650   C 0  0  0  0  0  0  0  0  0  0  0  0
    1.2180  -15.0150   14.7150   C 0  0  0  0  0  0  0  0  0  0  0  0
    1.5900  -13.6520   14.6800   C 0  0  0  0  0  0  0  0  0  0  0  0
    2.0050  -13.0640   15.8460   C 0  0  0  0  0  0  0  0  0  0  0  0
    2.6860  -11.0220   14.5590   C 0  0  0  0  0  0  0  0  0  0  0  0
    3.4630   -9.8000   14.9710   C 0  0  0  0  0  0  0  0  0  0  0  0
    4.0280  -10.0400   16.3680   C 0  0  0  0  0  0  0  0  0  0  0  0
    3.3670  -11.2460   16.9520   C 0  0  0  0  0  0  0  0  0  0  0  0
    2.0470  -13.8110   17.0360   C 0  0  0  0  0  0  0  0  0  0  0  0
  1  2  1  0  0  0  0
  1  3  1  0  0  0  0
  3  5  1  0  0  0  0
  3 13  2  0  0  0  0
  4  8  1  0  0  0  0
  4  9  1  0  0  0  0
  4 12  1  0  0  0  0
  5  6  2  0  0  0  0
  6  7  1  0  0  0  0
  7  8  2  0  0  0  0
  8 13  1  0  0  0  0
  9 10  1  0  0  0  0
 10 11  1  0  0  0  0
 11 12  1  0  0  0  0
A    1
C1
A    2
N1
A    3
C2
A    4
N2
A    5
C3
A    6
C4
A    7
C5
A    8
C6
A    9
C7
A   10
C8
A   11
C9
A   12
C10
A   13
C11
M  END
>  <InstanceId>
4ABH_7Z3_A_1253

>  <ChemCompId>
7Z3

>  <PdbId>
4ABH

>  <ChainId>
A

>  <ResidueNumber>
1253

>  <InsertionCode>


>  <Model>
1

>  <AltIds>


>  <MissingHeavyAtoms>
0

>  <ObservedFormula>
C11 N2

>  <Name>
1-(3-PYRROLIDIN-1-YLPHENYL)METHANAMINE

>  <SystematicName>
(3-pyrrolidin-1-ylphenyl)methanamine

>  <Synonyms>
CC38513

>  <Type>
non-polymer

>  <Formula>
C11 H16 N2

>  <MolecularWeight>
176.258

>  <ModifiedDate>
2014-09-05

>  <Parent>


>  <OneLetterCode>


>  <SubcomponentList>


>  <AmbiguousFlag>
N

>  <InChI>
InChI=1S/C11H16N2/c12-9-10-4-3-5-11(8-10)13-6-1-2-7-13/h3-5,8H,1-2,6-7,9,12H2

>  <InChIKey>
BXTWTBYGOKOWQX-UHFFFAOYSA-N

>  <SMILES>
c1cc(cc(c1)N2CCCC2)CN

$$$$
