1LI3_3CH_A_401


  9  9  0  0  0  0  0  0  0  0999 V2000
   26.2330    5.5275    3.9898 C   0  0  0  0  0  0  0  0  0  0  0  0
   27.1327    6.0841    3.0793 C   0  0  0  0  0  0  0  0  0  0  0  0
   26.1643    6.1398    5.2311 C   0  0  0  0  0  0  0  0  0  0  0  0
   27.9554    7.1762    3.3571 C   0  0  0  0  0  0  0  0  0  0  0  0
   26.9727    7.2267    5.5572 C   0  0  0  0  0  0  0  0  0  0  0  0
   27.8660    7.7471    4.6169 C   0  0  0  0  0  0  0  0  0  0  0  0
   28.6988    8.7969    4.8950 O   0  0  0  0  0  0  0  0  0  0  0  0
   25.2857    5.6424    6.1561 Cl  0  0  0  0  0  0  0  0  0  0  0  0
   29.2841    9.1176    4.2373 H   0  0  0  0  0  0  0  0  0  0  0  0
  1  2  2  0  0  0
  1  3  1  0  0  0
  2  4  1  0  0  0
  3  5  2  0  0  0
  3  8  1  0  0  0
  4  6  2  0  0  0
  5  6  1  0  0  0
  6  7  1  0  0  0
  7  9  1  0  0  0
M  END
> <minimizedAffinity>
-5.97985

$$$$
1LI3_3CH_A_401


  9  9  0  0  0  0  0  0  0  0999 V2000
   27.7072    7.6800    4.4446 C   0  0  0  0  0  0  0  0  0  0  0  0
   26.9720    7.5378    5.6226 C   0  0  0  0  0  0  0  0  0  0  0  0
   27.4267    6.7707    3.4372 C   0  0  0  0  0  0  0  0  0  0  0  0
   26.0168    6.5435    5.8361 C   0  0  0  0  0  0  0  0  0  0  0  0
   26.4882    5.7551    3.6079 C   0  0  0  0  0  0  0  0  0  0  0  0
   25.7802    5.6449    4.8078 C   0  0  0  0  0  0  0  0  0  0  0  0
   24.8663    4.6518    5.0347 O   0  0  0  0  0  0  0  0  0  0  0  0
   28.1090    6.8760    2.2548 Cl  0  0  0  0  0  0  0  0  0  0  0  0
   24.4116    4.6116    5.8529 H   0  0  0  0  0  0  0  0  0  0  0  0
  1  2  2  0  0  0
  1  3  1  0  0  0
  2  4  1  0  0  0
  3  5  2  0  0  0
  3  8  1  0  0  0
  4  6  2  0  0  0
  5  6  1  0  0  0
  6  7  1  0  0  0
  7  9  1  0  0  0
M  END
> <minimizedAffinity>
-5.92370

$$$$
1LI3_3CH_A_401


  9  9  0  0  0  0  0  0  0  0999 V2000
   25.9982    5.6858    4.2040 C   0  0  0  0  0  0  0  0  0  0  0  0
   25.9703    6.4797    5.3517 C   0  0  0  0  0  0  0  0  0  0  0  0
   27.0029    5.9672    3.2921 C   0  0  0  0  0  0  0  0  0  0  0  0
   26.8610    7.5232    5.6057 C   0  0  0  0  0  0  0  0  0  0  0  0
   27.9092    7.0052    3.4982 C   0  0  0  0  0  0  0  0  0  0  0  0
   27.8396    7.7808    4.6587 C   0  0  0  0  0  0  0  0  0  0  0  0
   28.6897    8.8263    4.8973 O   0  0  0  0  0  0  0  0  0  0  0  0
   27.0845    5.2071    2.1561 Cl  0  0  0  0  0  0  0  0  0  0  0  0
   28.6112    9.3229    5.6880 H   0  0  0  0  0  0  0  0  0  0  0  0
  1  2  2  0  0  0
  1  3  1  0  0  0
  2  4  1  0  0  0
  3  5  2  0  0  0
  3  8  1  0  0  0
  4  6  2  0  0  0
  5  6  1  0  0  0
  6  7  1  0  0  0
  7  9  1  0  0  0
M  END
> <minimizedAffinity>
-5.87438

$$$$
1LI3_3CH_A_401


  9  9  0  0  0  0  0  0  0  0999 V2000
   28.0599    6.8774    3.0015 C   0  0  0  0  0  0  0  0  0  0  0  0
   27.5342    5.6852    2.5009 C   0  0  0  0  0  0  0  0  0  0  0  0
   27.5282    7.3221    4.2014 C   0  0  0  0  0  0  0  0  0  0  0  0
   26.5171    4.9561    3.1180 C   0  0  0  0  0  0  0  0  0  0  0  0
   26.5053    6.6327    4.8492 C   0  0  0  0  0  0  0  0  0  0  0  0
   26.0028    5.4464    4.3079 C   0  0  0  0  0  0  0  0  0  0  0  0
   24.9828    4.7450    4.8916 O   0  0  0  0  0  0  0  0  0  0  0  0
   28.0203    8.4790    4.7441 Cl  0  0  0  0  0  0  0  0  0  0  0  0
   24.6734    3.9531    4.4977 H   0  0  0  0  0  0  0  0  0  0  0  0
  1  2  2  0  0  0
  1  3  1  0  0  0
  2  4  1  0  0  0
  3  5  2  0  0  0
  3  8  1  0  0  0
  4  6  2  0  0  0
  5  6  1  0  0  0
  6  7  1  0  0  0
  7  9  1  0  0  0
M  END
> <minimizedAffinity>
-5.78782

$$$$
1LI3_3CH_A_401


  9  9  0  0  0  0  0  0  0  0999 V2000
   26.3376    6.7151    5.7939 C   0  0  0  0  0  0  0  0  0  0  0  0
   27.2153    7.7818    5.5936 C   0  0  0  0  0  0  0  0  0  0  0  0
   26.1756    5.8494    4.7240 C   0  0  0  0  0  0  0  0  0  0  0  0
   27.8968    8.0235    4.4004 C   0  0  0  0  0  0  0  0  0  0  0  0
   26.8278    6.0555    3.5102 C   0  0  0  0  0  0  0  0  0  0  0  0
   27.6923    7.1419    3.3507 C   0  0  0  0  0  0  0  0  0  0  0  0
   28.3375    7.4024    2.1723 O   0  0  0  0  0  0  0  0  0  0  0  0
   25.3374    4.7771    4.8736 Cl  0  0  0  0  0  0  0  0  0  0  0  0
   28.9097    8.1413    2.1049 H   0  0  0  0  0  0  0  0  0  0  0  0
  1  2  2  0  0  0
  1  3  1  0  0  0
  2  4  1  0  0  0
  3  5  2  0  0  0
  3  8  1  0  0  0
  4  6  2  0  0  0
  5  6  1  0  0  0
  6  7  1  0  0  0
  7  9  1  0  0  0
M  END
> <minimizedAffinity>
-5.60543

$$$$
1LI3_3CH_A_401


  9  9  0  0  0  0  0  0  0  0999 V2000
   26.6751    7.3286    5.7744 C   0  0  0  0  0  0  0  0  0  0  0  0
   25.8640    6.2170    5.5402 C   0  0  0  0  0  0  0  0  0  0  0  0
   27.5469    7.6731    4.7539 C   0  0  0  0  0  0  0  0  0  0  0  0
   25.9035    5.4481    4.3767 C   0  0  0  0  0  0  0  0  0  0  0  0
   27.6284    6.9299    3.5782 C   0  0  0  0  0  0  0  0  0  0  0  0
   26.8024    5.8186    3.3889 C   0  0  0  0  0  0  0  0  0  0  0  0
   26.8604    5.0415    2.2639 O   0  0  0  0  0  0  0  0  0  0  0  0
   28.3541    8.7657    4.9266 Cl  0  0  0  0  0  0  0  0  0  0  0  0
   26.2893    4.3041    2.1740 H   0  0  0  0  0  0  0  0  0  0  0  0
  1  2  2  0  0  0
  1  3  1  0  0  0
  2  4  1  0  0  0
  3  5  2  0  0  0
  3  8  1  0  0  0
  4  6  2  0  0  0
  5  6  1  0  0  0
  6  7  1  0  0  0
  7  9  1  0  0  0
M  END
> <minimizedAffinity>
-5.57424

$$$$
1LI3_3CH_A_401


  9  9  0  0  0  0  0  0  0  0999 V2000
   26.8276    5.0844    2.9367 C   0  0  0  0  0  0  0  0  0  0  0  0
   26.0979    4.5993    4.0233 C   0  0  0  0  0  0  0  0  0  0  0  0
   27.3592    6.3562    3.0782 C   0  0  0  0  0  0  0  0  0  0  0  0
   25.8663    5.3180    5.1965 C   0  0  0  0  0  0  0  0  0  0  0  0
   27.1465    7.1152    4.2271 C   0  0  0  0  0  0  0  0  0  0  0  0
   26.4024    6.5928    5.2884 C   0  0  0  0  0  0  0  0  0  0  0  0
   26.1442    7.3058    6.4276 O   0  0  0  0  0  0  0  0  0  0  0  0
   28.0972    6.8732    2.0471 Cl  0  0  0  0  0  0  0  0  0  0  0  0
   25.6410    6.9204    7.1176 H   0  0  0  0  0  0  0  0  0  0  0  0
  1  2  2  0  0  0
  1  3  1  0  0  0
  2  4  1  0  0  0
  3  5  2  0  0  0
  3  8  1  0  0  0
  4  6  2  0  0  0
  5  6  1  0  0  0
  6  7  1  0  0  0
  7  9  1  0  0  0
M  END
> <minimizedAffinity>
-5.28733

$$$$
1LI3_3CH_A_401


  9  9  0  0  0  0  0  0  0  0999 V2000
   26.2101    4.3611    3.7784 C   0  0  0  0  0  0  0  0  0  0  0  0
   25.6445    4.6852    5.0126 C   0  0  0  0  0  0  0  0  0  0  0  0
   26.9174    5.3720    3.1474 C   0  0  0  0  0  0  0  0  0  0  0  0
   25.7343    5.9424    5.6109 C   0  0  0  0  0  0  0  0  0  0  0  0
   27.0262    6.6456    3.7017 C   0  0  0  0  0  0  0  0  0  0  0  0
   26.4369    6.9288    4.9368 C   0  0  0  0  0  0  0  0  0  0  0  0
   26.4937    8.1691    5.5124 O   0  0  0  0  0  0  0  0  0  0  0  0
   27.5058    5.1015    1.9409 Cl  0  0  0  0  0  0  0  0  0  0  0  0
   26.0858    8.3195    6.3425 H   0  0  0  0  0  0  0  0  0  0  0  0
  1  2  2  0  0  0
  1  3  1  0  0  0
  2  4  1  0  0  0
  3  5  2  0  0  0
  3  8  1  0  0  0
  4  6  2  0  0  0
  5  6  1  0  0  0
  6  7  1  0  0  0
  7  9  1  0  0  0
M  END
> <minimizedAffinity>
-5.14107

$$$$
1LI3_3CH_A_401


  9  9  0  0  0  0  0  0  0  0999 V2000
   27.6042    5.7893    2.5608 C   0  0  0  0  0  0  0  0  0  0  0  0
   27.9671    7.1253    2.7387 C   0  0  0  0  0  0  0  0  0  0  0  0
   26.7600    5.2537    3.5204 C   0  0  0  0  0  0  0  0  0  0  0  0
   27.5533    7.9145    3.8123 C   0  0  0  0  0  0  0  0  0  0  0  0
   26.3284    6.0003    4.6148 C   0  0  0  0  0  0  0  0  0  0  0  0
   26.7230    7.3333    4.7577 C   0  0  0  0  0  0  0  0  0  0  0  0
   26.3471    8.1017    5.8259 O   0  0  0  0  0  0  0  0  0  0  0  0
   26.3608    3.9510    3.3843 Cl  0  0  0  0  0  0  0  0  0  0  0  0
   26.6324    8.9922    5.8859 H   0  0  0  0  0  0  0  0  0  0  0  0
  1  2  2  0  0  0
  1  3  1  0  0  0
  2  4  1  0  0  0
  3  5  2  0  0  0
  3  8  1  0  0  0
  4  6  2  0  0  0
  5  6  1  0  0  0
  6  7  1  0  0  0
  7  9  1  0  0  0
M  END
> <minimizedAffinity>
-4.71781

$$$$
1LI3_3CH_A_401


  9  9  0  0  0  0  0  0  0  0999 V2000
   27.0995    7.5036    4.6091 C   0  0  0  0  0  0  0  0  0  0  0  0
   27.5574    7.0453    3.3727 C   0  0  0  0  0  0  0  0  0  0  0  0
   26.3822    6.5937    5.3692 C   0  0  0  0  0  0  0  0  0  0  0  0
   27.3160    5.7656    2.8719 C   0  0  0  0  0  0  0  0  0  0  0  0
   26.1083    5.3082    4.9068 C   0  0  0  0  0  0  0  0  0  0  0  0
   26.5798    4.8936    3.6583 C   0  0  0  0  0  0  0  0  0  0  0  0
   26.3179    3.6510    3.1481 O   0  0  0  0  0  0  0  0  0  0  0  0
   25.9235    6.9880    6.5977 Cl  0  0  0  0  0  0  0  0  0  0  0  0
   26.6520    3.4101    2.3065 H   0  0  0  0  0  0  0  0  0  0  0  0
  1  2  2  0  0  0
  1  3  1  0  0  0
  2  4  1  0  0  0
  3  5  2  0  0  0
  3  8  1  0  0  0
  4  6  2  0  0  0
  5  6  1  0  0  0
  6  7  1  0  0  0
  7  9  1  0  0  0
M  END
> <minimizedAffinity>
-4.38289

$$$$
