3U90_SDS_A_175
  RCSB PDB12061711013D
Coordinates from PDB:3U90:A:175 Model:1 without hydrogens
 17 16  0  0  0  0            999 V2000
   34.4850    0.7670   29.4020   S 0  0  0  0  0  0  0  0  0  0  0  0
   35.3350    0.2190   28.3760   O 0  0  0  0  0  0  0  0  0  0  0  0
   34.7070    0.1030   30.6940   O 0  0  0  0  0  0  0  0  0  0  0  0
   34.7570    2.1760   29.5450   O 0  0  0  0  0  0  0  0  0  0  0  0
   33.0800    0.5270   29.0420   O 0  0  0  0  0  0  0  0  0  0  0  0
   35.8860    0.3440   31.3730   C 0  0  0  0  0  0  0  0  0  0  0  0
   28.9420   -0.2360   34.4220   C 0  0  0  0  0  0  0  0  0  0  0  0
   30.3060    0.3250   34.6520   C 0  0  0  0  0  0  0  0  0  0  0  0
   31.0460   -0.5080   35.6470   C 0  0  0  0  0  0  0  0  0  0  0  0
   32.4650   -0.0470   35.7140   C 0  0  0  0  0  0  0  0  0  0  0  0
   33.1120   -0.5480   36.9610   C 0  0  0  0  0  0  0  0  0  0  0  0
   34.3080    0.2840   37.2880   C 0  0  0  0  0  0  0  0  0  0  0  0
   35.5590   -0.4120   36.8630   C 0  0  0  0  0  0  0  0  0  0  0  0
   36.2760    0.4100   35.8470   C 0  0  0  0  0  0  0  0  0  0  0  0
   36.9770   -0.4810   34.8740   C 0  0  0  0  0  0  0  0  0  0  0  0
   37.0310    0.1710   33.5310   C 0  0  0  0  0  0  0  0  0  0  0  0
   35.7440   -0.0480   32.8070   C 0  0  0  0  0  0  0  0  0  0  0  0
  1  2  2  0  0  0  0
  1  3  1  0  0  0  0
  1  4  1  0  0  0  0
  1  5  2  0  0  0  0
  3  6  1  0  0  0  0
  6 17  1  0  0  0  0
  7  8  1  0  0  0  0
  8  9  1  0  0  0  0
  9 10  1  0  0  0  0
 10 11  1  0  0  0  0
 11 12  1  0  0  0  0
 12 13  1  0  0  0  0
 13 14  1  0  0  0  0
 14 15  1  0  0  0  0
 15 16  1  0  0  0  0
 16 17  1  0  0  0  0
A    1
S
A    2
O1S
A    3
O2S
A    4
O3S
A    5
O4
A    6
C1
A    7
C2
A    8
C3
A    9
C4
A   10
C5
A   11
C6
A   12
C7
A   13
C8
A   14
C9
A   15
C10
A   16
C11
A   17
C12
M  END
>  <InstanceId>
3U90_SDS_A_175

>  <ChemCompId>
SDS

>  <PdbId>
3U90

>  <ChainId>
A

>  <ResidueNumber>
175

>  <InsertionCode>


>  <Model>
1

>  <AltIds>


>  <MissingHeavyAtoms>
0

>  <ObservedFormula>
C12 O4 S

>  <Name>
DODECYL SULFATE

>  <SystematicName>
dodecyl hydrogen sulfate

>  <Synonyms>


>  <Type>
NON-POLYMER

>  <Formula>
C12 H26 O4 S

>  <MolecularWeight>
266.397

>  <ModifiedDate>
2011-06-04

>  <Parent>


>  <OneLetterCode>


>  <SubcomponentList>


>  <AmbiguousFlag>
N

>  <InChI>
InChI=1S/C12H26O4S/c1-2-3-4-5-6-7-8-9-10-11-12-16-17(13,14)15/h2-12H2,1H3,(H,13,14,15)

>  <InChIKey>
MOTZDAYCYVMXPC-UHFFFAOYSA-N

>  <SMILES>
CCCCCCCCCCCCOS(=O)(=O)O

$$$$
