2G94_ZPQ_A_1001


 50 50  0  0  0  0  0  0  0  0999 V2000
   -3.5621   -5.0356   31.9854 C   0  0  0  0  0  0  0  0  0  0  0  0
   -2.5549   -4.0698   29.9214 C   0  0  0  0  0  0  0  0  0  0  0  0
   -3.4846   -4.4788   29.2331 O   0  0  0  0  0  0  0  0  0  0  0  0
   -2.4854   -4.2773   31.2879 N   0  0  0  0  0  0  0  0  0  0  0  0
   -1.7230   -3.9232   31.8003 H   0  0  0  0  0  0  0  0  0  0  0  0
   -1.4003   -3.3235   29.3383 C   0  0  0  0  0  0  0  0  0  0  0  0
    1.0306   -3.9398   29.7349 C   0  0  0  0  0  0  0  0  0  0  0  0
    1.4562   -2.7878   29.7390 O   0  0  0  0  0  0  0  0  0  0  0  0
   -0.2762   -4.2256   29.5481 N   0  0  0  0  0  0  0  0  0  0  0  0
   -0.5020   -5.1839   29.5548 H   0  0  0  0  0  0  0  0  0  0  0  0
    1.8169   -5.0513   29.9135 O   0  0  0  0  0  0  0  0  0  0  0  0
    1.4915   -5.9672   30.9603 C   0  0  0  0  0  0  0  0  0  0  0  0
    2.0924   -5.6559   34.6263 C   0  0  0  0  0  0  0  0  0  0  0  0
    2.8717   -4.4354   34.2215 C   0  0  0  0  0  0  0  0  0  0  0  0
    2.7088   -4.4226   32.6425 N   0  0  0  0  0  0  0  0  0  0  0  0
    1.9235   -5.5379   32.3258 N   0  0  0  0  0  0  0  0  0  0  0  0
    1.5630   -6.2706   33.5371 C   0  0  0  0  0  0  0  0  0  0  0  0
    3.6389   -3.4255   34.9692 C   0  0  0  0  0  0  0  0  0  0  0  0
    0.7334   -7.5289   33.6331 C   0  0  0  0  0  0  0  0  0  0  0  0
   -1.5843   -3.1352   27.8085 C   0  0  0  0  0  0  0  0  0  0  0  0
   -1.4653   -1.4728   27.2024 S   0  0  0  0  0  0  0  0  0  0  0  0
   -2.0100   -1.4730   25.8670 O   0  0  0  0  0  0  0  0  0  0  0  0
   -2.1281   -0.5678   28.1434 O   0  0  0  0  0  0  0  0  0  0  0  0
    0.2937   -1.2043   27.1615 C   0  0  0  0  0  0  0  0  0  0  0  0
   -4.5325   -4.1679   32.8356 C   0  0  0  0  0  0  0  0  0  0  0  0
   -3.7871   -3.3041   33.6912 O   0  0  0  0  0  0  0  0  0  0  0  0
   -3.2392   -2.7108   33.1539 H   0  0  0  0  0  0  0  0  0  0  0  0
   -5.4178   -3.2836   31.9348 C   0  0  0  0  0  0  0  0  0  0  0  0
   -5.0725   -1.8037   32.1123 C   0  0  0  0  0  0  0  0  0  0  0  0
   -4.3652   -1.2905   30.8522 C   0  0  0  0  0  0  0  0  0  0  0  0
   -6.3401   -0.9693   32.3219 C   0  0  0  0  0  0  0  0  0  0  0  0
   -6.5711   -0.3759   33.3647 O   0  0  0  0  0  0  0  0  0  0  0  0
   -7.2064   -0.9525   31.2596 N   0  0  0  0  0  0  0  0  0  0  0  0
   -6.9797   -1.4404   30.4351 H   0  0  0  0  0  0  0  0  0  0  0  0
   -8.4764   -0.2071   31.3458 C   0  0  0  0  0  0  0  0  0  0  0  0
   -9.6176   -1.2392   31.0869 C   0  0  0  0  0  0  0  0  0  0  0  0
   -9.6792   -1.8536   30.0460 O   0  0  0  0  0  0  0  0  0  0  0  0
  -10.5314   -1.3864   32.1237 N   0  0  0  0  0  0  0  0  0  0  0  0
  -10.4091   -0.8543   32.9429 H   0  0  0  0  0  0  0  0  0  0  0  0
  -11.6836   -2.3154   32.0410 C   0  0  0  0  0  0  0  0  0  0  0  0
  -11.9437   -3.0639   33.3899 C   0  0  0  0  0  0  0  0  0  0  0  0
  -10.9206   -4.1826   33.6096 C   0  0  0  0  0  0  0  0  0  0  0  0
  -11.8602   -2.0919   34.5636 C   0  0  0  0  0  0  0  0  0  0  0  0
   -8.5079    1.0094   30.3833 C   0  0  0  0  0  0  0  0  0  0  0  0
   -7.4736    2.0753   30.8018 C   0  0  0  0  0  0  0  0  0  0  0  0
   -9.8972    1.6439   30.3491 C   0  0  0  0  0  0  0  0  0  0  0  0
   -2.9231   -6.1724   32.8526 C   0  0  0  0  0  0  0  0  0  0  0  0
   -3.7632   -7.4935   32.8474 C   0  0  0  0  0  0  0  0  0  0  0  0
   -2.9281   -8.7270   33.2478 C   0  0  0  0  0  0  0  0  0  0  0  0
   -4.3379   -7.7272   31.4399 C   0  0  0  0  0  0  0  0  0  0  0  0
 13 14  1  0  0  0
 13 17  2  0  0  0
 14 15  2  0  0  0
 14 18  1  0  0  0
 15 16  1  0  0  0
 16 17  1  0  0  0
 16 12  1  0  0  0
 17 19  1  0  0  0
 12 11  1  0  0  0
 11  7  1  0  0  0
  7  8  2  0  0  0
  7  9  1  0  0  0
  9  6  1  0  0  0
  6 20  1  0  0  0
  6  2  1  0  0  0
 20 21  1  0  0  0
 21 22  2  0  0  0
 21 23  2  0  0  0
 21 24  1  0  0  0
  2  3  2  0  0  0
  2  4  1  0  0  0
  4  1  1  0  0  0
  1 25  1  0  0  0
  1 47  1  0  0  0
 25 28  1  0  0  0
 25 26  1  0  0  0
 47 48  1  0  0  0
 48 49  1  0  0  0
 48 50  1  0  0  0
 28 29  1  0  0  0
 29 30  1  0  0  0
 29 31  1  0  0  0
 31 32  2  0  0  0
 31 33  1  0  0  0
 33 35  1  0  0  0
 35 44  1  0  0  0
 35 36  1  0  0  0
 44 45  1  0  0  0
 44 46  1  0  0  0
 36 37  2  0  0  0
 36 38  1  0  0  0
 38 40  1  0  0  0
 40 41  1  0  0  0
 41 42  1  0  0  0
 41 43  1  0  0  0
  9 10  1  0  0  0
  4  5  1  0  0  0
 26 27  1  0  0  0
 33 34  1  0  0  0
 38 39  1  0  0  0
M  END
> <minimizedAffinity>
-9.76948

$$$$
2G94_ZPQ_A_1001


 50 50  0  0  0  0  0  0  0  0999 V2000
   -3.4023   -5.1683   31.7334 C   0  0  0  0  0  0  0  0  0  0  0  0
   -2.3316   -4.8925   29.5007 C   0  0  0  0  0  0  0  0  0  0  0  0
   -3.3590   -4.4180   29.0267 O   0  0  0  0  0  0  0  0  0  0  0  0
   -2.2303   -5.2931   30.8215 N   0  0  0  0  0  0  0  0  0  0  0  0
   -1.3820   -5.6614   31.1594 H   0  0  0  0  0  0  0  0  0  0  0  0
   -1.0984   -5.0979   28.6841 C   0  0  0  0  0  0  0  0  0  0  0  0
    0.8371   -3.8100   29.7049 C   0  0  0  0  0  0  0  0  0  0  0  0
    0.8104   -2.8806   28.9025 O   0  0  0  0  0  0  0  0  0  0  0  0
   -0.0215   -4.8502   29.6330 N   0  0  0  0  0  0  0  0  0  0  0  0
    0.0980   -5.5422   30.3230 H   0  0  0  0  0  0  0  0  0  0  0  0
    1.7262   -3.9014   30.7473 O   0  0  0  0  0  0  0  0  0  0  0  0
    1.8315   -5.1350   31.4598 C   0  0  0  0  0  0  0  0  0  0  0  0
    2.1885   -5.5155   35.1511 C   0  0  0  0  0  0  0  0  0  0  0  0
    3.1327   -4.3542   35.0074 C   0  0  0  0  0  0  0  0  0  0  0  0
    3.0910   -4.0589   33.4481 N   0  0  0  0  0  0  0  0  0  0  0  0
    2.2071   -4.9968   32.9005 N   0  0  0  0  0  0  0  0  0  0  0  0
    1.6742   -5.8683   33.9447 C   0  0  0  0  0  0  0  0  0  0  0  0
    3.9540   -3.5885   35.9595 C   0  0  0  0  0  0  0  0  0  0  0  0
    0.6989   -7.0089   33.7756 C   0  0  0  0  0  0  0  0  0  0  0  0
   -0.9914   -6.5729   28.2123 C   0  0  0  0  0  0  0  0  0  0  0  0
    0.0658   -7.6280   29.1683 S   0  0  0  0  0  0  0  0  0  0  0  0
    1.4205   -7.1990   28.9222 O   0  0  0  0  0  0  0  0  0  0  0  0
   -0.3534   -7.5878   30.5707 O   0  0  0  0  0  0  0  0  0  0  0  0
   -0.2273   -9.2258   28.4410 C   0  0  0  0  0  0  0  0  0  0  0  0
   -3.7908   -3.7103   32.1090 C   0  0  0  0  0  0  0  0  0  0  0  0
   -2.7376   -2.8195   31.7471 O   0  0  0  0  0  0  0  0  0  0  0  0
   -2.5952   -2.8596   30.7885 H   0  0  0  0  0  0  0  0  0  0  0  0
   -5.0600   -3.2643   31.3557 C   0  0  0  0  0  0  0  0  0  0  0  0
   -6.2557   -3.1722   32.3058 C   0  0  0  0  0  0  0  0  0  0  0  0
   -5.7676   -2.7676   33.7021 C   0  0  0  0  0  0  0  0  0  0  0  0
   -7.2547   -2.1152   31.8242 C   0  0  0  0  0  0  0  0  0  0  0  0
   -7.8044   -2.1788   30.7349 O   0  0  0  0  0  0  0  0  0  0  0  0
   -7.4726   -1.0817   32.6980 N   0  0  0  0  0  0  0  0  0  0  0  0
   -7.0129   -1.0710   33.5685 H   0  0  0  0  0  0  0  0  0  0  0  0
   -8.3925    0.0147   32.3403 C   0  0  0  0  0  0  0  0  0  0  0  0
   -9.6965   -0.6543   31.8047 C   0  0  0  0  0  0  0  0  0  0  0  0
  -10.1639   -0.3411   30.7332 O   0  0  0  0  0  0  0  0  0  0  0  0
  -10.2593   -1.6114   32.6408 N   0  0  0  0  0  0  0  0  0  0  0  0
   -9.8148   -1.8151   33.4952 H   0  0  0  0  0  0  0  0  0  0  0  0
  -11.5044   -2.3366   32.2928 C   0  0  0  0  0  0  0  0  0  0  0  0
  -12.4674   -2.4886   33.5163 C   0  0  0  0  0  0  0  0  0  0  0  0
  -12.9728   -3.9285   33.6488 C   0  0  0  0  0  0  0  0  0  0  0  0
  -11.7521   -2.1040   34.8085 C   0  0  0  0  0  0  0  0  0  0  0  0
   -7.7515    1.0148   31.3422 C   0  0  0  0  0  0  0  0  0  0  0  0
   -6.2258    1.1087   31.5532 C   0  0  0  0  0  0  0  0  0  0  0  0
   -8.3656    2.4057   31.4914 C   0  0  0  0  0  0  0  0  0  0  0  0
   -3.1592   -6.0305   33.0179 C   0  0  0  0  0  0  0  0  0  0  0  0
   -3.7489   -7.4766   32.9066 C   0  0  0  0  0  0  0  0  0  0  0  0
   -2.6818   -8.5688   33.1248 C   0  0  0  0  0  0  0  0  0  0  0  0
   -4.3684   -7.6690   31.5118 C   0  0  0  0  0  0  0  0  0  0  0  0
 13 14  1  0  0  0
 13 17  2  0  0  0
 14 15  2  0  0  0
 14 18  1  0  0  0
 15 16  1  0  0  0
 16 17  1  0  0  0
 16 12  1  0  0  0
 17 19  1  0  0  0
 12 11  1  0  0  0
 11  7  1  0  0  0
  7  8  2  0  0  0
  7  9  1  0  0  0
  9  6  1  0  0  0
  6 20  1  0  0  0
  6  2  1  0  0  0
 20 21  1  0  0  0
 21 22  2  0  0  0
 21 23  2  0  0  0
 21 24  1  0  0  0
  2  3  2  0  0  0
  2  4  1  0  0  0
  4  1  1  0  0  0
  1 25  1  0  0  0
  1 47  1  0  0  0
 25 28  1  0  0  0
 25 26  1  0  0  0
 47 48  1  0  0  0
 48 49  1  0  0  0
 48 50  1  0  0  0
 28 29  1  0  0  0
 29 30  1  0  0  0
 29 31  1  0  0  0
 31 32  2  0  0  0
 31 33  1  0  0  0
 33 35  1  0  0  0
 35 44  1  0  0  0
 35 36  1  0  0  0
 44 45  1  0  0  0
 44 46  1  0  0  0
 36 37  2  0  0  0
 36 38  1  0  0  0
 38 40  1  0  0  0
 40 41  1  0  0  0
 41 42  1  0  0  0
 41 43  1  0  0  0
  9 10  1  0  0  0
  4  5  1  0  0  0
 26 27  1  0  0  0
 33 34  1  0  0  0
 38 39  1  0  0  0
M  END
> <minimizedAffinity>
-9.27684

$$$$
2G94_ZPQ_A_1001


 50 50  0  0  0  0  0  0  0  0999 V2000
   -1.7234   -3.3927   29.4604 C   0  0  0  0  0  0  0  0  0  0  0  0
    0.6828   -3.6567   30.0500 C   0  0  0  0  0  0  0  0  0  0  0  0
    0.9269   -2.4995   29.7233 O   0  0  0  0  0  0  0  0  0  0  0  0
   -0.5844   -4.2071   29.9705 N   0  0  0  0  0  0  0  0  0  0  0  0
   -0.7338   -5.1387   30.2516 H   0  0  0  0  0  0  0  0  0  0  0  0
    1.7421   -4.5842   30.5476 C   0  0  0  0  0  0  0  0  0  0  0  0
    1.6225   -6.0293   32.6318 C   0  0  0  0  0  0  0  0  0  0  0  0
    2.8337   -6.2032   32.7373 O   0  0  0  0  0  0  0  0  0  0  0  0
    1.0830   -5.2951   31.6346 N   0  0  0  0  0  0  0  0  0  0  0  0
    0.1006   -5.2313   31.6438 H   0  0  0  0  0  0  0  0  0  0  0  0
    0.6920   -6.5518   33.4959 O   0  0  0  0  0  0  0  0  0  0  0  0
    0.2271   -7.8863   33.2867 C   0  0  0  0  0  0  0  0  0  0  0  0
   -2.4805   -8.5456   30.8104 C   0  0  0  0  0  0  0  0  0  0  0  0
   -1.3992   -8.2535   29.8071 C   0  0  0  0  0  0  0  0  0  0  0  0
   -0.1415   -7.9465   30.7258 N   0  0  0  0  0  0  0  0  0  0  0  0
   -0.5861   -8.0797   32.0469 N   0  0  0  0  0  0  0  0  0  0  0  0
   -2.0015   -8.4400   32.0768 C   0  0  0  0  0  0  0  0  0  0  0  0
   -1.3613   -8.2167   28.3358 C   0  0  0  0  0  0  0  0  0  0  0  0
   -2.8616   -8.6715   33.2963 C   0  0  0  0  0  0  0  0  0  0  0  0
    2.1205   -5.6216   29.4566 C   0  0  0  0  0  0  0  0  0  0  0  0
    3.2735   -5.0786   28.2234 S   0  0  0  0  0  0  0  0  0  0  0  0
    2.5339   -4.2729   27.2832 O   0  0  0  0  0  0  0  0  0  0  0  0
    4.3941   -4.3994   28.8767 O   0  0  0  0  0  0  0  0  0  0  0  0
    3.7817   -6.6101   27.4722 C   0  0  0  0  0  0  0  0  0  0  0  0
   -3.1231   -3.8159   29.9891 C   0  0  0  0  0  0  0  0  0  0  0  0
   -3.2714   -5.2308   29.8896 O   0  0  0  0  0  0  0  0  0  0  0  0
   -2.5960   -5.6657   30.4333 H   0  0  0  0  0  0  0  0  0  0  0  0
   -3.2940   -3.4310   31.4722 C   0  0  0  0  0  0  0  0  0  0  0  0
   -4.5363   -4.0947   32.0697 C   0  0  0  0  0  0  0  0  0  0  0  0
   -4.1239   -4.9739   33.2564 C   0  0  0  0  0  0  0  0  0  0  0  0
   -5.5266   -3.0415   32.5769 C   0  0  0  0  0  0  0  0  0  0  0  0
   -6.0036   -3.0759   33.7013 O   0  0  0  0  0  0  0  0  0  0  0  0
   -5.8535   -2.0673   31.6696 N   0  0  0  0  0  0  0  0  0  0  0  0
   -5.4423   -2.0733   30.7751 H   0  0  0  0  0  0  0  0  0  0  0  0
   -6.8182   -1.0101   32.0270 C   0  0  0  0  0  0  0  0  0  0  0  0
   -8.2370   -1.5735   31.7041 C   0  0  0  0  0  0  0  0  0  0  0  0
   -8.6179   -1.6877   30.5610 O   0  0  0  0  0  0  0  0  0  0  0  0
   -9.0037   -1.9209   32.8101 N   0  0  0  0  0  0  0  0  0  0  0  0
   -8.6196   -1.8040   33.7090 H   0  0  0  0  0  0  0  0  0  0  0  0
  -10.3785   -2.4611   32.6855 C   0  0  0  0  0  0  0  0  0  0  0  0
  -10.9952   -2.8463   34.0706 C   0  0  0  0  0  0  0  0  0  0  0  0
  -12.2038   -1.9661   34.4037 C   0  0  0  0  0  0  0  0  0  0  0  0
  -11.4431   -4.3053   34.0674 C   0  0  0  0  0  0  0  0  0  0  0  0
   -6.5055    0.3328   31.3155 C   0  0  0  0  0  0  0  0  0  0  0  0
   -5.1035    0.8509   31.6989 C   0  0  0  0  0  0  0  0  0  0  0  0
   -7.5467    1.3938   31.6678 C   0  0  0  0  0  0  0  0  0  0  0  0
   -1.6975   -3.3808   27.8946 C   0  0  0  0  0  0  0  0  0  0  0  0
   -1.6823   -1.9357   27.2924 C   0  0  0  0  0  0  0  0  0  0  0  0
   -0.3442   -1.5958   26.6045 C   0  0  0  0  0  0  0  0  0  0  0  0
   -1.9298   -0.9129   28.4142 C   0  0  0  0  0  0  0  0  0  0  0  0
 13 14  1  0  0  0
 13 17  2  0  0  0
 14 15  2  0  0  0
 14 18  1  0  0  0
 15 16  1  0  0  0
 16 17  1  0  0  0
 16 12  1  0  0  0
 17 19  1  0  0  0
 12 11  1  0  0  0
 11  7  1  0  0  0
  7  8  2  0  0  0
  7  9  1  0  0  0
  9  6  1  0  0  0
  6 20  1  0  0  0
  6  2  1  0  0  0
 20 21  1  0  0  0
 21 22  2  0  0  0
 21 23  2  0  0  0
 21 24  1  0  0  0
  2  3  2  0  0  0
  2  4  1  0  0  0
  4  1  1  0  0  0
  1 25  1  0  0  0
  1 47  1  0  0  0
 25 28  1  0  0  0
 25 26  1  0  0  0
 47 48  1  0  0  0
 48 49  1  0  0  0
 48 50  1  0  0  0
 28 29  1  0  0  0
 29 30  1  0  0  0
 29 31  1  0  0  0
 31 32  2  0  0  0
 31 33  1  0  0  0
 33 35  1  0  0  0
 35 44  1  0  0  0
 35 36  1  0  0  0
 44 45  1  0  0  0
 44 46  1  0  0  0
 36 37  2  0  0  0
 36 38  1  0  0  0
 38 40  1  0  0  0
 40 41  1  0  0  0
 41 42  1  0  0  0
 41 43  1  0  0  0
  9 10  1  0  0  0
  4  5  1  0  0  0
 26 27  1  0  0  0
 33 34  1  0  0  0
 38 39  1  0  0  0
M  END
> <minimizedAffinity>
-9.15082

$$$$
2G94_ZPQ_A_1001


 50 50  0  0  0  0  0  0  0  0999 V2000
   -3.8251   -4.3478   31.0288 C   0  0  0  0  0  0  0  0  0  0  0  0
   -2.3768   -3.3712   29.2523 C   0  0  0  0  0  0  0  0  0  0  0  0
   -3.2773   -3.4531   28.4230 O   0  0  0  0  0  0  0  0  0  0  0  0
   -2.5294   -3.7743   30.5674 N   0  0  0  0  0  0  0  0  0  0  0  0
   -1.7803   -3.6821   31.1995 H   0  0  0  0  0  0  0  0  0  0  0  0
   -1.0229   -2.8432   28.9087 C   0  0  0  0  0  0  0  0  0  0  0  0
    1.1924   -3.4336   29.9999 C   0  0  0  0  0  0  0  0  0  0  0  0
    1.8762   -2.6693   29.3241 O   0  0  0  0  0  0  0  0  0  0  0  0
   -0.1435   -3.5449   29.8337 N   0  0  0  0  0  0  0  0  0  0  0  0
   -0.5877   -4.1955   30.4242 H   0  0  0  0  0  0  0  0  0  0  0  0
    1.6946   -4.2507   30.9825 O   0  0  0  0  0  0  0  0  0  0  0  0
    1.9686   -5.6178   30.6716 C   0  0  0  0  0  0  0  0  0  0  0  0
   -0.1677   -7.8441   32.7638 C   0  0  0  0  0  0  0  0  0  0  0  0
   -0.8159   -8.1735   31.4476 C   0  0  0  0  0  0  0  0  0  0  0  0
    0.0037   -7.2831   30.4202 N   0  0  0  0  0  0  0  0  0  0  0  0
    0.9548   -6.5918   31.1806 N   0  0  0  0  0  0  0  0  0  0  0  0
    0.8339   -6.9429   32.5935 C   0  0  0  0  0  0  0  0  0  0  0  0
   -1.9244   -9.0590   31.0543 C   0  0  0  0  0  0  0  0  0  0  0  0
    1.6628   -6.4177   33.7414 C   0  0  0  0  0  0  0  0  0  0  0  0
   -0.6242   -3.2519   27.4652 C   0  0  0  0  0  0  0  0  0  0  0  0
   -0.1010   -1.9391   26.3939 S   0  0  0  0  0  0  0  0  0  0  0  0
   -1.0644   -1.8619   25.3233 O   0  0  0  0  0  0  0  0  0  0  0  0
    0.0571   -0.7118   27.1768 O   0  0  0  0  0  0  0  0  0  0  0  0
    1.4620   -2.5375   25.7883 C   0  0  0  0  0  0  0  0  0  0  0  0
   -4.5542   -3.5247   32.1283 C   0  0  0  0  0  0  0  0  0  0  0  0
   -3.6230   -2.6746   32.7947 O   0  0  0  0  0  0  0  0  0  0  0  0
   -3.2366   -2.0550   32.1562 H   0  0  0  0  0  0  0  0  0  0  0  0
   -5.6489   -2.6292   31.5147 C   0  0  0  0  0  0  0  0  0  0  0  0
   -6.9976   -2.8698   32.1959 C   0  0  0  0  0  0  0  0  0  0  0  0
   -6.7708   -3.1811   33.6802 C   0  0  0  0  0  0  0  0  0  0  0  0
   -7.8869   -1.6260   32.0992 C   0  0  0  0  0  0  0  0  0  0  0  0
   -8.9326   -1.5161   32.7216 O   0  0  0  0  0  0  0  0  0  0  0  0
   -7.4329   -0.6524   31.2477 N   0  0  0  0  0  0  0  0  0  0  0  0
   -6.5820   -0.7785   30.7687 H   0  0  0  0  0  0  0  0  0  0  0  0
   -8.2128    0.5833   31.0456 C   0  0  0  0  0  0  0  0  0  0  0  0
   -9.3111    0.2494   29.9887 C   0  0  0  0  0  0  0  0  0  0  0  0
   -9.1167    0.4309   28.8080 O   0  0  0  0  0  0  0  0  0  0  0  0
  -10.4976   -0.2576   30.5052 N   0  0  0  0  0  0  0  0  0  0  0  0
  -10.5760   -0.3824   31.4786 H   0  0  0  0  0  0  0  0  0  0  0  0
  -11.6492   -0.6174   29.6440 C   0  0  0  0  0  0  0  0  0  0  0  0
  -12.1396   -2.0830   29.8862 C   0  0  0  0  0  0  0  0  0  0  0  0
  -12.7880   -2.2300   31.2662 C   0  0  0  0  0  0  0  0  0  0  0  0
  -13.1597   -2.4860   28.8249 C   0  0  0  0  0  0  0  0  0  0  0  0
   -7.3142    1.7849   30.6506 C   0  0  0  0  0  0  0  0  0  0  0  0
   -5.8786    1.6043   31.1866 C   0  0  0  0  0  0  0  0  0  0  0  0
   -7.8885    3.0960   31.1846 C   0  0  0  0  0  0  0  0  0  0  0  0
   -3.6065   -5.8279   31.4913 C   0  0  0  0  0  0  0  0  0  0  0  0
   -4.1145   -6.0969   32.9476 C   0  0  0  0  0  0  0  0  0  0  0  0
   -3.0102   -5.8958   34.0057 C   0  0  0  0  0  0  0  0  0  0  0  0
   -4.6322   -7.5418   33.0487 C   0  0  0  0  0  0  0  0  0  0  0  0
 13 14  1  0  0  0
 13 17  2  0  0  0
 14 15  2  0  0  0
 14 18  1  0  0  0
 15 16  1  0  0  0
 16 17  1  0  0  0
 16 12  1  0  0  0
 17 19  1  0  0  0
 12 11  1  0  0  0
 11  7  1  0  0  0
  7  8  2  0  0  0
  7  9  1  0  0  0
  9  6  1  0  0  0
  6 20  1  0  0  0
  6  2  1  0  0  0
 20 21  1  0  0  0
 21 22  2  0  0  0
 21 23  2  0  0  0
 21 24  1  0  0  0
  2  3  2  0  0  0
  2  4  1  0  0  0
  4  1  1  0  0  0
  1 25  1  0  0  0
  1 47  1  0  0  0
 25 28  1  0  0  0
 25 26  1  0  0  0
 47 48  1  0  0  0
 48 49  1  0  0  0
 48 50  1  0  0  0
 28 29  1  0  0  0
 29 30  1  0  0  0
 29 31  1  0  0  0
 31 32  2  0  0  0
 31 33  1  0  0  0
 33 35  1  0  0  0
 35 44  1  0  0  0
 35 36  1  0  0  0
 44 45  1  0  0  0
 44 46  1  0  0  0
 36 37  2  0  0  0
 36 38  1  0  0  0
 38 40  1  0  0  0
 40 41  1  0  0  0
 41 42  1  0  0  0
 41 43  1  0  0  0
  9 10  1  0  0  0
  4  5  1  0  0  0
 26 27  1  0  0  0
 33 34  1  0  0  0
 38 39  1  0  0  0
M  END
> <minimizedAffinity>
-8.94273

$$$$
2G94_ZPQ_A_1001


 50 50  0  0  0  0  0  0  0  0999 V2000
   -2.3911   -6.6668   30.9047 C   0  0  0  0  0  0  0  0  0  0  0  0
   -0.9555   -6.2502   28.9115 C   0  0  0  0  0  0  0  0  0  0  0  0
   -1.2569   -7.3346   28.4231 O   0  0  0  0  0  0  0  0  0  0  0  0
   -1.4544   -5.8094   30.1247 N   0  0  0  0  0  0  0  0  0  0  0  0
   -1.1899   -4.9275   30.4734 H   0  0  0  0  0  0  0  0  0  0  0  0
   -0.0036   -5.3129   28.2442 C   0  0  0  0  0  0  0  0  0  0  0  0
    1.4203   -4.0196   29.9015 C   0  0  0  0  0  0  0  0  0  0  0  0
    0.8772   -2.9335   29.7174 O   0  0  0  0  0  0  0  0  0  0  0  0
    1.0459   -5.1352   29.2383 N   0  0  0  0  0  0  0  0  0  0  0  0
    1.5573   -5.9470   29.4592 H   0  0  0  0  0  0  0  0  0  0  0  0
    2.4526   -4.2241   30.7835 O   0  0  0  0  0  0  0  0  0  0  0  0
    2.3842   -5.3318   31.6829 C   0  0  0  0  0  0  0  0  0  0  0  0
    2.3493   -5.2018   35.4084 C   0  0  0  0  0  0  0  0  0  0  0  0
    3.2583   -4.0214   35.2052 C   0  0  0  0  0  0  0  0  0  0  0  0
    3.3762   -3.9374   33.6243 N   0  0  0  0  0  0  0  0  0  0  0  0
    2.5943   -4.9848   33.1220 N   0  0  0  0  0  0  0  0  0  0  0  0
    1.9841   -5.7376   34.2152 C   0  0  0  0  0  0  0  0  0  0  0  0
    3.9404   -3.0942   36.1231 C   0  0  0  0  0  0  0  0  0  0  0  0
    1.0778   -6.9405   34.1041 C   0  0  0  0  0  0  0  0  0  0  0  0
    0.6305   -5.9741   26.9910 C   0  0  0  0  0  0  0  0  0  0  0  0
    2.2367   -6.6931   27.2109 S   0  0  0  0  0  0  0  0  0  0  0  0
    3.1804   -5.6038   27.2644 O   0  0  0  0  0  0  0  0  0  0  0  0
    2.2199   -7.5589   28.3917 O   0  0  0  0  0  0  0  0  0  0  0  0
    2.4460   -7.6305   25.7124 C   0  0  0  0  0  0  0  0  0  0  0  0
   -3.8701   -6.1869   30.9122 C   0  0  0  0  0  0  0  0  0  0  0  0
   -4.7429   -7.3083   31.0332 O   0  0  0  0  0  0  0  0  0  0  0  0
   -4.5668   -7.7663   31.8700 H   0  0  0  0  0  0  0  0  0  0  0  0
   -4.1424   -5.2515   32.1072 C   0  0  0  0  0  0  0  0  0  0  0  0
   -4.0204   -3.7841   31.6917 C   0  0  0  0  0  0  0  0  0  0  0  0
   -4.1764   -3.6702   30.1704 C   0  0  0  0  0  0  0  0  0  0  0  0
   -5.1159   -2.9384   32.3488 C   0  0  0  0  0  0  0  0  0  0  0  0
   -5.4918   -3.1265   33.4960 O   0  0  0  0  0  0  0  0  0  0  0  0
   -5.6576   -1.9664   31.5482 N   0  0  0  0  0  0  0  0  0  0  0  0
   -5.3223   -1.8445   30.6306 H   0  0  0  0  0  0  0  0  0  0  0  0
   -6.7404   -1.1021   32.0548 C   0  0  0  0  0  0  0  0  0  0  0  0
   -8.0792   -1.8511   31.7695 C   0  0  0  0  0  0  0  0  0  0  0  0
   -8.5320   -1.9150   30.6490 O   0  0  0  0  0  0  0  0  0  0  0  0
   -8.6896   -2.4202   32.8808 N   0  0  0  0  0  0  0  0  0  0  0  0
   -8.2544   -2.3299   33.7593 H   0  0  0  0  0  0  0  0  0  0  0  0
   -9.9720   -3.1583   32.7918 C   0  0  0  0  0  0  0  0  0  0  0  0
  -11.2059   -2.2492   33.1056 C   0  0  0  0  0  0  0  0  0  0  0  0
  -12.4782   -2.7955   32.4504 C   0  0  0  0  0  0  0  0  0  0  0  0
  -11.4343   -2.1619   34.6120 C   0  0  0  0  0  0  0  0  0  0  0  0
   -6.6840    0.3243   31.4470 C   0  0  0  0  0  0  0  0  0  0  0  0
   -5.3265    0.9982   31.7373 C   0  0  0  0  0  0  0  0  0  0  0  0
   -7.8075    1.1993   32.0002 C   0  0  0  0  0  0  0  0  0  0  0  0
   -1.8512   -6.8369   32.3648 C   0  0  0  0  0  0  0  0  0  0  0  0
   -1.8298   -8.3282   32.8410 C   0  0  0  0  0  0  0  0  0  0  0  0
   -1.8917   -9.3252   31.6656 C   0  0  0  0  0  0  0  0  0  0  0  0
   -3.0318   -8.5859   33.7655 C   0  0  0  0  0  0  0  0  0  0  0  0
 13 14  1  0  0  0
 13 17  2  0  0  0
 14 15  2  0  0  0
 14 18  1  0  0  0
 15 16  1  0  0  0
 16 17  1  0  0  0
 16 12  1  0  0  0
 17 19  1  0  0  0
 12 11  1  0  0  0
 11  7  1  0  0  0
  7  8  2  0  0  0
  7  9  1  0  0  0
  9  6  1  0  0  0
  6 20  1  0  0  0
  6  2  1  0  0  0
 20 21  1  0  0  0
 21 22  2  0  0  0
 21 23  2  0  0  0
 21 24  1  0  0  0
  2  3  2  0  0  0
  2  4  1  0  0  0
  4  1  1  0  0  0
  1 25  1  0  0  0
  1 47  1  0  0  0
 25 28  1  0  0  0
 25 26  1  0  0  0
 47 48  1  0  0  0
 48 49  1  0  0  0
 48 50  1  0  0  0
 28 29  1  0  0  0
 29 30  1  0  0  0
 29 31  1  0  0  0
 31 32  2  0  0  0
 31 33  1  0  0  0
 33 35  1  0  0  0
 35 44  1  0  0  0
 35 36  1  0  0  0
 44 45  1  0  0  0
 44 46  1  0  0  0
 36 37  2  0  0  0
 36 38  1  0  0  0
 38 40  1  0  0  0
 40 41  1  0  0  0
 41 42  1  0  0  0
 41 43  1  0  0  0
  9 10  1  0  0  0
  4  5  1  0  0  0
 26 27  1  0  0  0
 33 34  1  0  0  0
 38 39  1  0  0  0
M  END
> <minimizedAffinity>
-8.86393

$$$$
2G94_ZPQ_A_1001


 50 50  0  0  0  0  0  0  0  0999 V2000
   -2.0889   -6.3664   31.3221 C   0  0  0  0  0  0  0  0  0  0  0  0
   -0.5235   -5.1399   29.8213 C   0  0  0  0  0  0  0  0  0  0  0  0
   -0.6429   -5.9889   28.9436 O   0  0  0  0  0  0  0  0  0  0  0  0
   -1.1892   -5.2144   31.0323 N   0  0  0  0  0  0  0  0  0  0  0  0
   -1.0681   -4.5047   31.7038 H   0  0  0  0  0  0  0  0  0  0  0  0
    0.3706   -3.9540   29.6661 C   0  0  0  0  0  0  0  0  0  0  0  0
    2.1897   -4.1458   27.9053 C   0  0  0  0  0  0  0  0  0  0  0  0
    3.1336   -4.0320   28.6828 O   0  0  0  0  0  0  0  0  0  0  0  0
    0.9048   -4.1093   28.3200 N   0  0  0  0  0  0  0  0  0  0  0  0
    0.2307   -4.2012   27.6084 H   0  0  0  0  0  0  0  0  0  0  0  0
    2.3258   -4.3175   26.5497 O   0  0  0  0  0  0  0  0  0  0  0  0
    2.5217   -3.1686   25.7237 C   0  0  0  0  0  0  0  0  0  0  0  0
    6.0362   -3.1782   24.4803 C   0  0  0  0  0  0  0  0  0  0  0  0
    6.1289   -1.8859   25.2434 C   0  0  0  0  0  0  0  0  0  0  0  0
    4.6713   -1.7334   25.8537 N   0  0  0  0  0  0  0  0  0  0  0  0
    3.9508   -2.8524   25.4183 N   0  0  0  0  0  0  0  0  0  0  0  0
    4.7920   -3.7117   24.5888 C   0  0  0  0  0  0  0  0  0  0  0  0
    7.2083   -0.9081   25.4586 C   0  0  0  0  0  0  0  0  0  0  0  0
    4.3989   -5.0079   23.9209 C   0  0  0  0  0  0  0  0  0  0  0  0
   -0.4513   -2.6376   29.7064 C   0  0  0  0  0  0  0  0  0  0  0  0
   -0.9641   -1.9842   28.1395 S   0  0  0  0  0  0  0  0  0  0  0  0
    0.1722   -1.2942   27.5804 O   0  0  0  0  0  0  0  0  0  0  0  0
   -1.4982   -3.0705   27.3156 O   0  0  0  0  0  0  0  0  0  0  0  0
   -2.2340   -0.8267   28.6034 C   0  0  0  0  0  0  0  0  0  0  0  0
   -3.5966   -6.1101   31.0414 C   0  0  0  0  0  0  0  0  0  0  0  0
   -4.3102   -7.3447   31.0621 O   0  0  0  0  0  0  0  0  0  0  0  0
   -4.2283   -7.7508   31.9392 H   0  0  0  0  0  0  0  0  0  0  0  0
   -4.2126   -5.1958   32.1192 C   0  0  0  0  0  0  0  0  0  0  0  0
   -4.0762   -3.7226   31.7296 C   0  0  0  0  0  0  0  0  0  0  0  0
   -4.1947   -3.5848   30.2069 C   0  0  0  0  0  0  0  0  0  0  0  0
   -5.1850   -2.8835   32.3727 C   0  0  0  0  0  0  0  0  0  0  0  0
   -5.5913   -3.0898   33.5064 O   0  0  0  0  0  0  0  0  0  0  0  0
   -5.7018   -1.8953   31.5755 N   0  0  0  0  0  0  0  0  0  0  0  0
   -5.3423   -1.7591   30.6691 H   0  0  0  0  0  0  0  0  0  0  0  0
   -6.7939   -1.0351   32.0689 C   0  0  0  0  0  0  0  0  0  0  0  0
   -8.1236   -1.8088   31.8076 C   0  0  0  0  0  0  0  0  0  0  0  0
   -8.5460   -1.9621   30.6839 O   0  0  0  0  0  0  0  0  0  0  0  0
   -8.7630   -2.2908   32.9436 N   0  0  0  0  0  0  0  0  0  0  0  0
   -8.3517   -2.1303   33.8235 H   0  0  0  0  0  0  0  0  0  0  0  0
  -10.0416   -3.0379   32.8786 C   0  0  0  0  0  0  0  0  0  0  0  0
  -11.2627   -2.1698   33.3291 C   0  0  0  0  0  0  0  0  0  0  0  0
  -12.5270   -2.5441   32.5495 C   0  0  0  0  0  0  0  0  0  0  0  0
  -11.5347   -2.3646   34.8181 C   0  0  0  0  0  0  0  0  0  0  0  0
   -6.7606    0.3781   31.4294 C   0  0  0  0  0  0  0  0  0  0  0  0
   -5.3928    1.0564   31.6526 C   0  0  0  0  0  0  0  0  0  0  0  0
   -7.8617    1.2658   32.0070 C   0  0  0  0  0  0  0  0  0  0  0  0
   -1.8682   -6.8438   32.7972 C   0  0  0  0  0  0  0  0  0  0  0  0
   -0.9775   -8.1273   32.8997 C   0  0  0  0  0  0  0  0  0  0  0  0
    0.4855   -7.8040   33.2663 C   0  0  0  0  0  0  0  0  0  0  0  0
   -0.9924   -8.8677   31.5516 C   0  0  0  0  0  0  0  0  0  0  0  0
 13 14  1  0  0  0
 13 17  2  0  0  0
 14 15  2  0  0  0
 14 18  1  0  0  0
 15 16  1  0  0  0
 16 17  1  0  0  0
 16 12  1  0  0  0
 17 19  1  0  0  0
 12 11  1  0  0  0
 11  7  1  0  0  0
  7  8  2  0  0  0
  7  9  1  0  0  0
  9  6  1  0  0  0
  6 20  1  0  0  0
  6  2  1  0  0  0
 20 21  1  0  0  0
 21 22  2  0  0  0
 21 23  2  0  0  0
 21 24  1  0  0  0
  2  3  2  0  0  0
  2  4  1  0  0  0
  4  1  1  0  0  0
  1 25  1  0  0  0
  1 47  1  0  0  0
 25 28  1  0  0  0
 25 26  1  0  0  0
 47 48  1  0  0  0
 48 49  1  0  0  0
 48 50  1  0  0  0
 28 29  1  0  0  0
 29 30  1  0  0  0
 29 31  1  0  0  0
 31 32  2  0  0  0
 31 33  1  0  0  0
 33 35  1  0  0  0
 35 44  1  0  0  0
 35 36  1  0  0  0
 44 45  1  0  0  0
 44 46  1  0  0  0
 36 37  2  0  0  0
 36 38  1  0  0  0
 38 40  1  0  0  0
 40 41  1  0  0  0
 41 42  1  0  0  0
 41 43  1  0  0  0
  9 10  1  0  0  0
  4  5  1  0  0  0
 26 27  1  0  0  0
 33 34  1  0  0  0
 38 39  1  0  0  0
M  END
> <minimizedAffinity>
-8.83751

$$$$
2G94_ZPQ_A_1001


 50 50  0  0  0  0  0  0  0  0999 V2000
    0.9615   -3.7682   28.5428 C   0  0  0  0  0  0  0  0  0  0  0  0
    2.5667   -2.0176   27.7906 C   0  0  0  0  0  0  0  0  0  0  0  0
    2.2976   -1.3062   28.7534 O   0  0  0  0  0  0  0  0  0  0  0  0
    1.9783   -3.2528   27.5829 N   0  0  0  0  0  0  0  0  0  0  0  0
    2.2319   -3.7922   26.7993 H   0  0  0  0  0  0  0  0  0  0  0  0
    3.5455   -1.6021   26.7421 C   0  0  0  0  0  0  0  0  0  0  0  0
    5.5910   -3.1059   26.7733 C   0  0  0  0  0  0  0  0  0  0  0  0
    6.3368   -2.2970   27.3193 O   0  0  0  0  0  0  0  0  0  0  0  0
    4.3023   -2.8201   26.4870 N   0  0  0  0  0  0  0  0  0  0  0  0
    3.8013   -3.5405   26.0405 H   0  0  0  0  0  0  0  0  0  0  0  0
    5.9716   -4.3698   26.3949 O   0  0  0  0  0  0  0  0  0  0  0  0
    5.9116   -5.4261   27.3548 C   0  0  0  0  0  0  0  0  0  0  0  0
    3.6502   -8.3802   27.1159 C   0  0  0  0  0  0  0  0  0  0  0  0
    2.5919   -7.3366   26.8884 C   0  0  0  0  0  0  0  0  0  0  0  0
    3.4149   -5.9809   26.9594 N   0  0  0  0  0  0  0  0  0  0  0  0
    4.7446   -6.3480   27.2002 N   0  0  0  0  0  0  0  0  0  0  0  0
    4.8656   -7.8008   27.2933 C   0  0  0  0  0  0  0  0  0  0  0  0
    1.1398   -7.3963   26.6531 C   0  0  0  0  0  0  0  0  0  0  0  0
    6.1210   -8.6003   27.5491 C   0  0  0  0  0  0  0  0  0  0  0  0
    2.8124   -1.2102   25.4310 C   0  0  0  0  0  0  0  0  0  0  0  0
    3.8141   -1.1126   23.9708 S   0  0  0  0  0  0  0  0  0  0  0  0
    5.1003   -0.6025   24.3775 O   0  0  0  0  0  0  0  0  0  0  0  0
    3.8437   -2.4229   23.3179 O   0  0  0  0  0  0  0  0  0  0  0  0
    2.9448    0.0908   22.9888 C   0  0  0  0  0  0  0  0  0  0  0  0
    1.4451   -4.9355   29.4491 C   0  0  0  0  0  0  0  0  0  0  0  0
    2.7749   -4.6821   29.8976 O   0  0  0  0  0  0  0  0  0  0  0  0
    2.7897   -3.8647   30.4197 H   0  0  0  0  0  0  0  0  0  0  0  0
    0.5496   -5.0754   30.6963 C   0  0  0  0  0  0  0  0  0  0  0  0
    0.2085   -6.5428   30.9627 C   0  0  0  0  0  0  0  0  0  0  0  0
    0.6738   -6.9267   32.3726 C   0  0  0  0  0  0  0  0  0  0  0  0
   -1.3036   -6.7752   30.8790 C   0  0  0  0  0  0  0  0  0  0  0  0
   -1.7881   -7.7618   30.3455 O   0  0  0  0  0  0  0  0  0  0  0  0
   -2.0745   -5.7847   31.4301 N   0  0  0  0  0  0  0  0  0  0  0  0
   -1.6438   -5.0080   31.8550 H   0  0  0  0  0  0  0  0  0  0  0  0
   -3.5462   -5.8768   31.3896 C   0  0  0  0  0  0  0  0  0  0  0  0
   -4.0620   -4.5220   30.8121 C   0  0  0  0  0  0  0  0  0  0  0  0
   -4.3407   -4.4090   29.6398 O   0  0  0  0  0  0  0  0  0  0  0  0
   -4.1688   -3.4864   31.7328 N   0  0  0  0  0  0  0  0  0  0  0  0
   -3.9284   -3.6598   32.6716 H   0  0  0  0  0  0  0  0  0  0  0  0
   -4.6313   -2.1303   31.3528 C   0  0  0  0  0  0  0  0  0  0  0  0
   -6.0656   -1.8166   31.8931 C   0  0  0  0  0  0  0  0  0  0  0  0
   -6.3497   -2.5820   33.1891 C   0  0  0  0  0  0  0  0  0  0  0  0
   -6.2167   -0.3230   32.1679 C   0  0  0  0  0  0  0  0  0  0  0  0
   -4.1490   -6.2324   32.7743 C   0  0  0  0  0  0  0  0  0  0  0  0
   -3.1489   -5.9292   33.9095 C   0  0  0  0  0  0  0  0  0  0  0  0
   -4.5466   -7.7062   32.8355 C   0  0  0  0  0  0  0  0  0  0  0  0
   -0.3377   -4.1662   27.7643 C   0  0  0  0  0  0  0  0  0  0  0  0
   -1.5029   -3.1370   27.9490 C   0  0  0  0  0  0  0  0  0  0  0  0
   -1.7050   -2.2435   26.7079 C   0  0  0  0  0  0  0  0  0  0  0  0
   -1.2003   -2.2350   29.1576 C   0  0  0  0  0  0  0  0  0  0  0  0
 13 14  1  0  0  0
 13 17  2  0  0  0
 14 15  2  0  0  0
 14 18  1  0  0  0
 15 16  1  0  0  0
 16 17  1  0  0  0
 16 12  1  0  0  0
 17 19  1  0  0  0
 12 11  1  0  0  0
 11  7  1  0  0  0
  7  8  2  0  0  0
  7  9  1  0  0  0
  9  6  1  0  0  0
  6 20  1  0  0  0
  6  2  1  0  0  0
 20 21  1  0  0  0
 21 22  2  0  0  0
 21 23  2  0  0  0
 21 24  1  0  0  0
  2  3  2  0  0  0
  2  4  1  0  0  0
  4  1  1  0  0  0
  1 25  1  0  0  0
  1 47  1  0  0  0
 25 28  1  0  0  0
 25 26  1  0  0  0
 47 48  1  0  0  0
 48 49  1  0  0  0
 48 50  1  0  0  0
 28 29  1  0  0  0
 29 30  1  0  0  0
 29 31  1  0  0  0
 31 32  2  0  0  0
 31 33  1  0  0  0
 33 35  1  0  0  0
 35 44  1  0  0  0
 35 36  1  0  0  0
 44 45  1  0  0  0
 44 46  1  0  0  0
 36 37  2  0  0  0
 36 38  1  0  0  0
 38 40  1  0  0  0
 40 41  1  0  0  0
 41 42  1  0  0  0
 41 43  1  0  0  0
  9 10  1  0  0  0
  4  5  1  0  0  0
 26 27  1  0  0  0
 33 34  1  0  0  0
 38 39  1  0  0  0
M  END
> <minimizedAffinity>
-8.81854

$$$$
2G94_ZPQ_A_1001


 50 50  0  0  0  0  0  0  0  0999 V2000
   -0.8252   -2.3228   28.7816 C   0  0  0  0  0  0  0  0  0  0  0  0
    1.5284   -3.0826   29.0826 C   0  0  0  0  0  0  0  0  0  0  0  0
    1.9574   -1.9510   28.8811 O   0  0  0  0  0  0  0  0  0  0  0  0
    0.1785   -3.3872   29.0651 N   0  0  0  0  0  0  0  0  0  0  0  0
   -0.1193   -4.3090   29.2403 H   0  0  0  0  0  0  0  0  0  0  0  0
    2.4320   -4.2416   29.3478 C   0  0  0  0  0  0  0  0  0  0  0  0
    1.8625   -5.1386   31.6538 C   0  0  0  0  0  0  0  0  0  0  0  0
    2.7511   -4.5352   32.2494 O   0  0  0  0  0  0  0  0  0  0  0  0
    1.6882   -5.0327   30.3186 N   0  0  0  0  0  0  0  0  0  0  0  0
    0.9505   -5.5686   29.9472 H   0  0  0  0  0  0  0  0  0  0  0  0
    0.9608   -5.9770   32.2617 O   0  0  0  0  0  0  0  0  0  0  0  0
    0.5351   -7.1524   31.5703 C   0  0  0  0  0  0  0  0  0  0  0  0
   -2.9390   -8.4222   31.1050 C   0  0  0  0  0  0  0  0  0  0  0  0
   -3.2186   -7.6086   32.3382 C   0  0  0  0  0  0  0  0  0  0  0  0
   -1.7994   -6.9815   32.6742 N   0  0  0  0  0  0  0  0  0  0  0  0
   -0.9242   -7.4558   31.6894 N   0  0  0  0  0  0  0  0  0  0  0  0
   -1.6310   -8.3255   30.7524 C   0  0  0  0  0  0  0  0  0  0  0  0
   -4.4281   -7.3627   33.1407 C   0  0  0  0  0  0  0  0  0  0  0  0
   -1.0538   -9.0419   29.5547 C   0  0  0  0  0  0  0  0  0  0  0  0
    2.6131   -5.1009   28.0677 C   0  0  0  0  0  0  0  0  0  0  0  0
    1.5437   -6.5065   27.9080 S   0  0  0  0  0  0  0  0  0  0  0  0
    2.0856   -7.5440   28.7506 O   0  0  0  0  0  0  0  0  0  0  0  0
    0.1706   -6.1058   28.2213 O   0  0  0  0  0  0  0  0  0  0  0  0
    1.7269   -6.9350   26.1903 C   0  0  0  0  0  0  0  0  0  0  0  0
   -1.8180   -2.0293   29.9417 C   0  0  0  0  0  0  0  0  0  0  0  0
   -2.9379   -1.2974   29.4478 O   0  0  0  0  0  0  0  0  0  0  0  0
   -3.3995   -1.8258   28.7779 H   0  0  0  0  0  0  0  0  0  0  0  0
   -2.3501   -3.3380   30.5590 C   0  0  0  0  0  0  0  0  0  0  0  0
   -3.8432   -3.5100   30.2729 C   0  0  0  0  0  0  0  0  0  0  0  0
   -4.1572   -4.9985   30.0792 C   0  0  0  0  0  0  0  0  0  0  0  0
   -4.6860   -2.9925   31.4430 C   0  0  0  0  0  0  0  0  0  0  0  0
   -4.6249   -3.4788   32.5622 O   0  0  0  0  0  0  0  0  0  0  0  0
   -5.5284   -1.9552   31.1376 N   0  0  0  0  0  0  0  0  0  0  0  0
   -5.5432   -1.5889   30.2239 H   0  0  0  0  0  0  0  0  0  0  0  0
   -6.4129   -1.3849   32.1713 C   0  0  0  0  0  0  0  0  0  0  0  0
   -7.8633   -1.8382   31.8165 C   0  0  0  0  0  0  0  0  0  0  0  0
   -8.2181   -1.9499   30.6648 O   0  0  0  0  0  0  0  0  0  0  0  0
   -8.6887   -2.0932   32.9052 N   0  0  0  0  0  0  0  0  0  0  0  0
   -8.3232   -1.9853   33.8130 H   0  0  0  0  0  0  0  0  0  0  0  0
  -10.0991   -2.5218   32.7495 C   0  0  0  0  0  0  0  0  0  0  0  0
  -10.7243   -3.0150   34.0961 C   0  0  0  0  0  0  0  0  0  0  0  0
  -11.8112   -2.0541   34.5878 C   0  0  0  0  0  0  0  0  0  0  0  0
  -11.3426   -4.3993   33.9213 C   0  0  0  0  0  0  0  0  0  0  0  0
   -6.2546    0.1537   32.2937 C   0  0  0  0  0  0  0  0  0  0  0  0
   -7.5451    0.8807   31.8613 C   0  0  0  0  0  0  0  0  0  0  0  0
   -5.0879    0.6528   31.4431 C   0  0  0  0  0  0  0  0  0  0  0  0
   -1.5941   -2.6677   27.4616 C   0  0  0  0  0  0  0  0  0  0  0  0
   -1.3534   -1.6228   26.3207 C   0  0  0  0  0  0  0  0  0  0  0  0
   -2.2519   -1.8715   25.0918 C   0  0  0  0  0  0  0  0  0  0  0  0
    0.1169   -1.6858   25.8731 C   0  0  0  0  0  0  0  0  0  0  0  0
 13 14  1  0  0  0
 13 17  2  0  0  0
 14 15  2  0  0  0
 14 18  1  0  0  0
 15 16  1  0  0  0
 16 17  1  0  0  0
 16 12  1  0  0  0
 17 19  1  0  0  0
 12 11  1  0  0  0
 11  7  1  0  0  0
  7  8  2  0  0  0
  7  9  1  0  0  0
  9  6  1  0  0  0
  6 20  1  0  0  0
  6  2  1  0  0  0
 20 21  1  0  0  0
 21 22  2  0  0  0
 21 23  2  0  0  0
 21 24  1  0  0  0
  2  3  2  0  0  0
  2  4  1  0  0  0
  4  1  1  0  0  0
  1 25  1  0  0  0
  1 47  1  0  0  0
 25 28  1  0  0  0
 25 26  1  0  0  0
 47 48  1  0  0  0
 48 49  1  0  0  0
 48 50  1  0  0  0
 28 29  1  0  0  0
 29 30  1  0  0  0
 29 31  1  0  0  0
 31 32  2  0  0  0
 31 33  1  0  0  0
 33 35  1  0  0  0
 35 44  1  0  0  0
 35 36  1  0  0  0
 44 45  1  0  0  0
 44 46  1  0  0  0
 36 37  2  0  0  0
 36 38  1  0  0  0
 38 40  1  0  0  0
 40 41  1  0  0  0
 41 42  1  0  0  0
 41 43  1  0  0  0
  9 10  1  0  0  0
  4  5  1  0  0  0
 26 27  1  0  0  0
 33 34  1  0  0  0
 38 39  1  0  0  0
M  END
> <minimizedAffinity>
-8.76065

$$$$
2G94_ZPQ_A_1001


 50 50  0  0  0  0  0  0  0  0999 V2000
   -7.6963   -1.7852   32.3760 C   0  0  0  0  0  0  0  0  0  0  0  0
   -5.5322   -2.9692   32.7254 C   0  0  0  0  0  0  0  0  0  0  0  0
   -5.6309   -2.8653   33.9439 O   0  0  0  0  0  0  0  0  0  0  0  0
   -6.4880   -2.4818   31.8512 N   0  0  0  0  0  0  0  0  0  0  0  0
   -6.3694   -2.5956   30.8805 H   0  0  0  0  0  0  0  0  0  0  0  0
   -4.3557   -3.6184   32.0739 C   0  0  0  0  0  0  0  0  0  0  0  0
   -4.0268   -5.7798   33.3651 C   0  0  0  0  0  0  0  0  0  0  0  0
   -3.2604   -5.3130   34.2038 O   0  0  0  0  0  0  0  0  0  0  0  0
   -4.5466   -5.0323   32.3674 N   0  0  0  0  0  0  0  0  0  0  0  0
   -5.1415   -5.5135   31.7479 H   0  0  0  0  0  0  0  0  0  0  0  0
   -4.4358   -7.0904   33.3414 O   0  0  0  0  0  0  0  0  0  0  0  0
   -3.4559   -8.1225   33.4650 C   0  0  0  0  0  0  0  0  0  0  0  0
   -0.4595   -7.9887   31.2510 C   0  0  0  0  0  0  0  0  0  0  0  0
   -1.3988   -8.5713   30.2316 C   0  0  0  0  0  0  0  0  0  0  0  0
   -2.7609   -8.6924   31.0381 N   0  0  0  0  0  0  0  0  0  0  0  0
   -2.4919   -8.2115   32.3254 N   0  0  0  0  0  0  0  0  0  0  0  0
   -1.0965   -7.7933   32.4344 C   0  0  0  0  0  0  0  0  0  0  0  0
   -1.2463   -8.9787   28.8251 C   0  0  0  0  0  0  0  0  0  0  0  0
   -0.4036   -7.2246   33.6498 C   0  0  0  0  0  0  0  0  0  0  0  0
   -4.4117   -3.4372   30.5332 C   0  0  0  0  0  0  0  0  0  0  0  0
   -2.8513   -3.3780   29.6927 S   0  0  0  0  0  0  0  0  0  0  0  0
   -3.1360   -3.1792   28.2929 O   0  0  0  0  0  0  0  0  0  0  0  0
   -2.0109   -2.3488   30.3079 O   0  0  0  0  0  0  0  0  0  0  0  0
   -2.2015   -5.0109   29.9742 C   0  0  0  0  0  0  0  0  0  0  0  0
   -8.9352   -2.6974   32.6016 C   0  0  0  0  0  0  0  0  0  0  0  0
   -8.8185   -3.3727   33.8522 O   0  0  0  0  0  0  0  0  0  0  0  0
   -8.7853   -2.7209   34.5698 H   0  0  0  0  0  0  0  0  0  0  0  0
  -10.2341   -1.8676   32.6376 C   0  0  0  0  0  0  0  0  0  0  0  0
  -11.3499   -2.6295   33.3555 C   0  0  0  0  0  0  0  0  0  0  0  0
  -11.6083   -1.9863   34.7234 C   0  0  0  0  0  0  0  0  0  0  0  0
  -12.6518   -2.5774   32.5496 C   0  0  0  0  0  0  0  0  0  0  0  0
  -13.1691   -3.5759   32.0718 O   0  0  0  0  0  0  0  0  0  0  0  0
  -13.1844   -1.3248   32.3874 N   0  0  0  0  0  0  0  0  0  0  0  0
  -12.7384   -0.5466   32.7933 H   0  0  0  0  0  0  0  0  0  0  0  0
  -14.4225   -1.1371   31.6076 C   0  0  0  0  0  0  0  0  0  0  0  0
  -14.0256   -0.3403   30.3260 C   0  0  0  0  0  0  0  0  0  0  0  0
  -14.8646    0.0277   29.5351 O   0  0  0  0  0  0  0  0  0  0  0  0
  -12.6654   -0.0984   30.1747 N   0  0  0  0  0  0  0  0  0  0  0  0
  -12.0457   -0.4255   30.8662 H   0  0  0  0  0  0  0  0  0  0  0  0
  -12.1137    0.6340   29.0100 C   0  0  0  0  0  0  0  0  0  0  0  0
  -10.9840   -0.1673   28.2826 C   0  0  0  0  0  0  0  0  0  0  0  0
   -9.6687    0.6178   28.2676 C   0  0  0  0  0  0  0  0  0  0  0  0
  -10.7442   -1.5032   28.9805 C   0  0  0  0  0  0  0  0  0  0  0  0
  -15.5418   -0.4581   32.4404 C   0  0  0  0  0  0  0  0  0  0  0  0
  -15.1145    0.9518   32.8995 C   0  0  0  0  0  0  0  0  0  0  0  0
  -15.8984   -1.2986   33.6653 C   0  0  0  0  0  0  0  0  0  0  0  0
   -8.0522   -0.5802   31.4412 C   0  0  0  0  0  0  0  0  0  0  0  0
   -7.5473    0.7948   31.9939 C   0  0  0  0  0  0  0  0  0  0  0  0
   -8.3617    1.9862   31.4492 C   0  0  0  0  0  0  0  0  0  0  0  0
   -6.0723    0.9909   31.6040 C   0  0  0  0  0  0  0  0  0  0  0  0
 13 14  1  0  0  0
 13 17  2  0  0  0
 14 15  2  0  0  0
 14 18  1  0  0  0
 15 16  1  0  0  0
 16 17  1  0  0  0
 16 12  1  0  0  0
 17 19  1  0  0  0
 12 11  1  0  0  0
 11  7  1  0  0  0
  7  8  2  0  0  0
  7  9  1  0  0  0
  9  6  1  0  0  0
  6 20  1  0  0  0
  6  2  1  0  0  0
 20 21  1  0  0  0
 21 22  2  0  0  0
 21 23  2  0  0  0
 21 24  1  0  0  0
  2  3  2  0  0  0
  2  4  1  0  0  0
  4  1  1  0  0  0
  1 25  1  0  0  0
  1 47  1  0  0  0
 25 28  1  0  0  0
 25 26  1  0  0  0
 47 48  1  0  0  0
 48 49  1  0  0  0
 48 50  1  0  0  0
 28 29  1  0  0  0
 29 30  1  0  0  0
 29 31  1  0  0  0
 31 32  2  0  0  0
 31 33  1  0  0  0
 33 35  1  0  0  0
 35 44  1  0  0  0
 35 36  1  0  0  0
 44 45  1  0  0  0
 44 46  1  0  0  0
 36 37  2  0  0  0
 36 38  1  0  0  0
 38 40  1  0  0  0
 40 41  1  0  0  0
 41 42  1  0  0  0
 41 43  1  0  0  0
  9 10  1  0  0  0
  4  5  1  0  0  0
 26 27  1  0  0  0
 33 34  1  0  0  0
 38 39  1  0  0  0
M  END
> <minimizedAffinity>
-8.71583

$$$$
2G94_ZPQ_A_1001


 50 50  0  0  0  0  0  0  0  0999 V2000
    0.1108   -7.8610   27.5004 C   0  0  0  0  0  0  0  0  0  0  0  0
    2.0107   -6.3763   26.8731 C   0  0  0  0  0  0  0  0  0  0  0  0
    1.4356   -6.0117   25.8525 O   0  0  0  0  0  0  0  0  0  0  0  0
    1.4566   -7.2782   27.7646 N   0  0  0  0  0  0  0  0  0  0  0  0
    1.9527   -7.5354   28.5752 H   0  0  0  0  0  0  0  0  0  0  0  0
    3.3751   -5.8898   27.2358 C   0  0  0  0  0  0  0  0  0  0  0  0
    2.7141   -4.2738   29.0792 C   0  0  0  0  0  0  0  0  0  0  0  0
    2.3092   -3.3863   28.3329 O   0  0  0  0  0  0  0  0  0  0  0  0
    3.2162   -5.4370   28.6110 N   0  0  0  0  0  0  0  0  0  0  0  0
    3.5192   -6.0715   29.3000 H   0  0  0  0  0  0  0  0  0  0  0  0
    2.7066   -4.1896   30.4497 O   0  0  0  0  0  0  0  0  0  0  0  0
    2.1596   -5.2713   31.2056 C   0  0  0  0  0  0  0  0  0  0  0  0
    2.0076   -5.7101   34.9045 C   0  0  0  0  0  0  0  0  0  0  0  0
    2.9029   -4.5021   34.9128 C   0  0  0  0  0  0  0  0  0  0  0  0
    3.0682   -4.1772   33.3677 N   0  0  0  0  0  0  0  0  0  0  0  0
    2.3194   -5.1449   32.6869 N   0  0  0  0  0  0  0  0  0  0  0  0
    1.6882   -6.0623   33.6324 C   0  0  0  0  0  0  0  0  0  0  0  0
    3.5411   -3.7176   35.9827 C   0  0  0  0  0  0  0  0  0  0  0  0
    0.8055   -7.2446   33.3103 C   0  0  0  0  0  0  0  0  0  0  0  0
    4.3946   -7.0605   27.2317 C   0  0  0  0  0  0  0  0  0  0  0  0
    6.1061   -6.6104   27.1166 S   0  0  0  0  0  0  0  0  0  0  0  0
    6.2147   -5.2504   27.5839 O   0  0  0  0  0  0  0  0  0  0  0  0
    6.9119   -7.5864   27.8529 O   0  0  0  0  0  0  0  0  0  0  0  0
    6.4088   -6.6971   25.3648 C   0  0  0  0  0  0  0  0  0  0  0  0
   -1.0646   -7.1647   28.2430 C   0  0  0  0  0  0  0  0  0  0  0  0
   -2.0566   -8.1282   28.5911 O   0  0  0  0  0  0  0  0  0  0  0  0
   -1.6700   -8.7901   29.1855 H   0  0  0  0  0  0  0  0  0  0  0  0
   -0.5794   -6.5009   29.5473 C   0  0  0  0  0  0  0  0  0  0  0  0
   -1.0818   -5.0592   29.6467 C   0  0  0  0  0  0  0  0  0  0  0  0
   -1.0138   -4.3990   28.2643 C   0  0  0  0  0  0  0  0  0  0  0  0
   -2.5373   -5.0205   30.1234 C   0  0  0  0  0  0  0  0  0  0  0  0
   -3.4631   -4.7229   29.3838 O   0  0  0  0  0  0  0  0  0  0  0  0
   -2.7231   -5.3260   31.4468 N   0  0  0  0  0  0  0  0  0  0  0  0
   -1.9500   -5.5655   32.0074 H   0  0  0  0  0  0  0  0  0  0  0  0
   -4.0756   -5.2976   32.0350 C   0  0  0  0  0  0  0  0  0  0  0  0
   -4.3548   -3.8167   32.4396 C   0  0  0  0  0  0  0  0  0  0  0  0
   -3.9507   -3.3697   33.4892 O   0  0  0  0  0  0  0  0  0  0  0  0
   -5.0877   -3.0777   31.5185 N   0  0  0  0  0  0  0  0  0  0  0  0
   -5.3754   -3.5121   30.6832 H   0  0  0  0  0  0  0  0  0  0  0  0
   -5.4520   -1.6592   31.7480 C   0  0  0  0  0  0  0  0  0  0  0  0
   -6.7673   -1.5090   32.5817 C   0  0  0  0  0  0  0  0  0  0  0  0
   -7.2717   -0.0627   32.5661 C   0  0  0  0  0  0  0  0  0  0  0  0
   -7.8616   -2.4112   32.0180 C   0  0  0  0  0  0  0  0  0  0  0  0
   -4.2251   -6.3017   33.2083 C   0  0  0  0  0  0  0  0  0  0  0  0
   -2.9648   -6.3067   34.0987 C   0  0  0  0  0  0  0  0  0  0  0  0
   -4.4786   -7.7159   32.6890 C   0  0  0  0  0  0  0  0  0  0  0  0
    0.1361   -9.3960   27.8093 C   0  0  0  0  0  0  0  0  0  0  0  0
    0.6113  -10.2588   26.5924 C   0  0  0  0  0  0  0  0  0  0  0  0
   -0.2692  -10.0541   25.3425 C   0  0  0  0  0  0  0  0  0  0  0  0
    0.5760  -11.7475   26.9777 C   0  0  0  0  0  0  0  0  0  0  0  0
 13 14  1  0  0  0
 13 17  2  0  0  0
 14 15  2  0  0  0
 14 18  1  0  0  0
 15 16  1  0  0  0
 16 17  1  0  0  0
 16 12  1  0  0  0
 17 19  1  0  0  0
 12 11  1  0  0  0
 11  7  1  0  0  0
  7  8  2  0  0  0
  7  9  1  0  0  0
  9  6  1  0  0  0
  6 20  1  0  0  0
  6  2  1  0  0  0
 20 21  1  0  0  0
 21 22  2  0  0  0
 21 23  2  0  0  0
 21 24  1  0  0  0
  2  3  2  0  0  0
  2  4  1  0  0  0
  4  1  1  0  0  0
  1 25  1  0  0  0
  1 47  1  0  0  0
 25 28  1  0  0  0
 25 26  1  0  0  0
 47 48  1  0  0  0
 48 49  1  0  0  0
 48 50  1  0  0  0
 28 29  1  0  0  0
 29 30  1  0  0  0
 29 31  1  0  0  0
 31 32  2  0  0  0
 31 33  1  0  0  0
 33 35  1  0  0  0
 35 44  1  0  0  0
 35 36  1  0  0  0
 44 45  1  0  0  0
 44 46  1  0  0  0
 36 37  2  0  0  0
 36 38  1  0  0  0
 38 40  1  0  0  0
 40 41  1  0  0  0
 41 42  1  0  0  0
 41 43  1  0  0  0
  9 10  1  0  0  0
  4  5  1  0  0  0
 26 27  1  0  0  0
 33 34  1  0  0  0
 38 39  1  0  0  0
M  END
> <minimizedAffinity>
-8.71444

$$$$
