5IA1_ZZL_A_1001
  RCSB PDB12061718083D
Coordinates from PDB:5IA1:A:1001 Model:1 without hydrogens
 34 38  0  0  0  0            999 V2000
  -89.1230  -17.0030    8.3130   C 0  0  0  0  0  0  0  0  0  0  0  0
  -88.0860  -16.5450   10.6070   C 0  0  0  0  0  0  0  0  0  0  0  0
  -89.3100  -16.1590   12.7110   C 0  0  0  0  0  0  0  0  0  0  0  0
  -88.6250  -14.3500   14.1700   C 0  0  0  0  0  0  0  0  0  0  0  0
  -87.6130  -14.0230   13.2880   C 0  0  0  0  0  0  0  0  0  0  0  0
  -87.4520  -14.7620   12.1150   C 0  0  0  0  0  0  0  0  0  0  0  0
  -86.8490  -17.1490   10.3590   C 0  0  0  0  0  0  0  0  0  0  0  0
  -85.0000  -18.3040   11.3960   C 0  0  0  0  0  0  0  0  0  0  0  0
  -84.3480  -18.3640   10.1660   C 0  0  0  0  0  0  0  0  0  0  0  0
  -79.0130  -14.1480    4.3370   O 0  0  0  0  0  0  0  0  0  0  0  0
  -79.7530  -14.0700    5.3460   C 0  0  0  0  0  0  0  0  0  0  0  0
  -79.2870  -13.6430    6.4310   O 0  0  0  0  0  0  0  0  0  0  0  0
  -81.1040  -14.4010    5.2590   C 0  0  0  0  0  0  0  0  0  0  0  0
  -81.7760  -14.2810    4.0480   C 0  0  0  0  0  0  0  0  0  0  0  0
  -83.1310  -14.5940    3.9780   C 0  0  0  0  0  0  0  0  0  0  0  0
  -83.8440  -15.0380    5.0950   C 0  0  0  0  0  0  0  0  0  0  0  0
  -85.1610  -15.3200    4.9070   N 0  0  0  0  0  0  0  0  0  0  0  0
  -86.0360  -15.7600    5.8390   C 0  0  0  0  0  0  0  0  0  0  0  0
  -87.3290  -15.6750    5.4850   N 0  0  0  0  0  0  0  0  0  0  0  0
  -88.3680  -16.0950    6.3290   C 0  0  0  0  0  0  0  0  0  0  0  0
  -88.0120  -16.6120    7.5690   C 0  0  0  0  0  0  0  0  0  0  0  0
  -89.0680  -16.4430    9.6960   N 0  0  0  0  0  0  0  0  0  0  0  0
  -88.2840  -15.8480   11.8160   C 0  0  0  0  0  0  0  0  0  0  0  0
  -90.1890  -17.2110   12.4850   F 0  0  0  0  0  0  0  0  0  0  0  0
  -89.4600  -15.4190   13.8770   C 0  0  0  0  0  0  0  0  0  0  0  0
  -86.4140  -14.4010   11.2610   F 0  0  0  0  0  0  0  0  0  0  0  0
  -86.2470  -17.6830   11.5010   C 0  0  0  0  0  0  0  0  0  0  0  0
  -84.2310  -19.0050   12.8130  Cl 0  0  0  0  0  0  0  0  0  0  0  0
  -84.9380  -17.8130    9.0270   C 0  0  0  0  0  0  0  0  0  0  0  0
  -86.1910  -17.2110    9.1250   C 0  0  0  0  0  0  0  0  0  0  0  0
  -86.6670  -16.7070    7.9080   C 0  0  0  0  0  0  0  0  0  0  0  0
  -85.7060  -16.2970    7.0420   N 0  0  0  0  0  0  0  0  0  0  0  0
  -83.1490  -15.1580    6.3010   C 0  0  0  0  0  0  0  0  0  0  0  0
  -81.7910  -14.8360    6.3900   C 0  0  0  0  0  0  0  0  0  0  0  0
  1 21  1  0  0  0  0
  1 22  1  0  0  0  0
  2  7  1  0  0  0  0
  2 22  2  0  0  0  0
  2 23  1  0  0  0  0
  3 23  1  0  0  0  0
  3 24  1  0  0  0  0
  3 25  2  0  0  0  0
  4  5  2  0  0  0  0
  4 25  1  0  0  0  0
  5  6  1  0  0  0  0
  6 23  2  0  0  0  0
  6 26  1  0  0  0  0
  7 27  1  0  0  0  0
  7 30  2  0  0  0  0
  8  9  1  0  0  0  0
  8 27  2  0  0  0  0
  8 28  1  0  0  0  0
  9 29  2  0  0  0  0
 10 11  2  0  0  0  0
 11 12  1  0  0  0  0
 11 13  1  0  0  0  0
 13 14  1  0  0  0  0
 13 34  2  0  0  0  0
 14 15  2  0  0  0  0
 15 16  1  0  0  0  0
 16 17  1  0  0  0  0
 16 33  2  0  0  0  0
 17 18  1  0  0  0  0
 18 19  2  0  0  0  0
 18 32  1  0  0  0  0
 19 20  1  0  0  0  0
 20 21  2  0  0  0  0
 21 31  1  0  0  0  0
 29 30  1  0  0  0  0
 30 31  1  0  0  0  0
 31 32  2  0  0  0  0
 33 34  1  0  0  0  0
A    1
C13
A    2
C15
A    3
C17
A    4
C20
A    5
C21
A    6
C22
A    7
C24
A    8
C26
A    9
C28
A   10
O01
A   11
C02
A   12
O03
A   13
C04
A   14
C05
A   15
C06
A   16
C07
A   17
N08
A   18
C09
A   19
N10
A   20
C11
A   21
C12
A   22
N14
A   23
C16
A   24
F18
A   25
C19
A   26
F23
A   27
C25
A   28
CL1
A   29
C29
A   30
C30
A   31
C31
A   32
N32
A   33
C33
A   34
C34
M  END
>  <InstanceId>
5IA1_ZZL_A_1001

>  <ChemCompId>
ZZL

>  <PdbId>
5IA1

>  <ChainId>
A

>  <ResidueNumber>
1001

>  <InsertionCode>


>  <Model>
1

>  <AltIds>


>  <MissingHeavyAtoms>
0

>  <ObservedFormula>
C25 N4 O2 F2 Cl

>  <Name>
4-{[9-CHLORO-7-(2,6-DIFLUOROPHENYL)-5H-PYRIMIDO[5,4-D][2]BENZAZEPIN-2-YL]AMINO}BENZOIC ACID

>  <SystematicName>
4-[[9-chloro-7-(2,6-difluorophenyl)-5H-pyrimido[5,4-d][2]benzazepin-2-yl]amino]benzoic acid

>  <Synonyms>


>  <Type>
non-polymer

>  <Formula>
C25 H15 Cl F2 N4 O2

>  <MolecularWeight>
476.862

>  <ModifiedDate>
2011-06-04

>  <Parent>


>  <OneLetterCode>


>  <SubcomponentList>


>  <AmbiguousFlag>
N

>  <InChI>
InChI=1S/C25H15ClF2N4O2/c26-15-6-9-17-18(10-15)23(21-19(27)2-1-3-20(21)28)29-11-14-12-30-25(32-22(14)17)31-16-7-4-13(5-8-16)24(33)34/h1-10,12H,11H2,(H,33,34)(H,30,31,32)

>  <InChIKey>
HHFBDROWDBDFBR-UHFFFAOYSA-N

>  <SMILES>
c1cc(c(c(c1)F)C2=NCc3cnc(nc3-c4c2cc(cc4)Cl)Nc5ccc(cc5)C(=O)O)F

$$$$
