5IA1_ZZL_A_1001


 36 40  0  0  0  0  0  0  0  0999 V2000
  -88.8224  -16.8603    8.0389 C   0  0  0  0  0  0  0  0  0  0  0  0
  -87.9406  -16.5892   10.4256 C   0  0  0  0  0  0  0  0  0  0  0  0
  -86.6862  -17.1698   10.2113 C   0  0  0  0  0  0  0  0  0  0  0  0
  -84.9017  -18.4035   11.2704 C   0  0  0  0  0  0  0  0  0  0  0  0
  -84.1703  -18.3627   10.0851 C   0  0  0  0  0  0  0  0  0  0  0  0
  -85.5882  -15.4172    5.8819 C   0  0  0  0  0  0  0  0  0  0  0  0
  -86.8558  -15.3050    5.4518 N   0  0  0  0  0  0  0  0  0  0  0  0
  -87.9451  -15.7933    6.1889 C   0  0  0  0  0  0  0  0  0  0  0  0
  -87.6677  -16.4090    7.4036 C   0  0  0  0  0  0  0  0  0  0  0  0
  -88.8615  -16.4145    9.4633 N   0  0  0  0  0  0  0  0  0  0  0  0
  -86.1568  -17.7943   11.3433 C   0  0  0  0  0  0  0  0  0  0  0  0
  -84.2226  -19.2166   12.6734 Cl  0  0  0  0  0  0  0  0  0  0  0  0
  -84.6881  -17.7215    8.9582 C   0  0  0  0  0  0  0  0  0  0  0  0
  -85.9486  -17.1307    9.0222 C   0  0  0  0  0  0  0  0  0  0  0  0
  -86.3471  -16.5299    7.8214 C   0  0  0  0  0  0  0  0  0  0  0  0
  -85.3342  -16.0499    7.0565 N   0  0  0  0  0  0  0  0  0  0  0  0
  -89.0312  -16.5974   12.6357 C   0  0  0  0  0  0  0  0  0  0  0  0
  -88.7667  -14.6844   14.0988 C   0  0  0  0  0  0  0  0  0  0  0  0
  -87.9739  -14.0688   13.1493 C   0  0  0  0  0  0  0  0  0  0  0  0
  -87.7129  -14.7164   11.9408 C   0  0  0  0  0  0  0  0  0  0  0  0
  -88.2216  -15.9930   11.6715 C   0  0  0  0  0  0  0  0  0  0  0  0
  -89.5879  -17.8559   12.4442 F   0  0  0  0  0  0  0  0  0  0  0  0
  -89.2826  -15.9456   13.8364 C   0  0  0  0  0  0  0  0  0  0  0  0
  -86.9026  -14.0611   11.0182 F   0  0  0  0  0  0  0  0  0  0  0  0
  -84.6569  -14.9021    5.0481 N   0  0  0  0  0  0  0  0  0  0  0  0
  -84.9235  -14.1132    4.5229 H   0  0  0  0  0  0  0  0  0  0  0  0
  -80.7162  -16.1028    4.3725 C   0  0  0  0  0  0  0  0  0  0  0  0
  -81.1613  -14.8332    4.0225 C   0  0  0  0  0  0  0  0  0  0  0  0
  -82.4835  -14.4739    4.2710 C   0  0  0  0  0  0  0  0  0  0  0  0
  -83.3904  -15.3598    4.8591 C   0  0  0  0  0  0  0  0  0  0  0  0
  -82.9251  -16.6330    5.1975 C   0  0  0  0  0  0  0  0  0  0  0  0
  -81.5970  -17.0045    4.9653 C   0  0  0  0  0  0  0  0  0  0  0  0
  -78.5391  -15.6025    3.8280 O   0  0  0  0  0  0  0  0  0  0  0  0
  -79.3895  -16.4662    4.1484 C   0  0  0  0  0  0  0  0  0  0  0  0
  -79.0353  -17.6588    4.3180 O   0  0  0  0  0  0  0  0  0  0  0  0
  -79.6689  -18.3062    4.5575 H   0  0  0  0  0  0  0  0  0  0  0  0
  1  9  1  0  0  0
  1 10  1  0  0  0
  2  3  1  0  0  0
  2 10  2  0  0  0
  2 21  1  0  0  0
 17 21  1  0  0  0
 17 22  1  0  0  0
 17 23  2  0  0  0
 18 19  2  0  0  0
 18 23  1  0  0  0
 19 20  1  0  0  0
 20 21  2  0  0  0
 20 24  1  0  0  0
  3 11  1  0  0  0
  3 14  2  0  0  0
  4  5  1  0  0  0
  4 11  2  0  0  0
  4 12  1  0  0  0
  5 13  2  0  0  0
 33 34  2  0  0  0
 34 35  1  0  0  0
 34 27  1  0  0  0
 27 28  1  0  0  0
 27 32  2  0  0  0
 28 29  2  0  0  0
 29 30  1  0  0  0
 30 25  1  0  0  0
 30 31  2  0  0  0
 25  6  1  0  0  0
  6  7  2  0  0  0
  6 16  1  0  0  0
  7  8  1  0  0  0
  8  9  2  0  0  0
  9 15  1  0  0  0
 13 14  1  0  0  0
 14 15  1  0  0  0
 15 16  2  0  0  0
 31 32  1  0  0  0
 35 36  1  0  0  0
 25 26  1  0  0  0
M  END
> <minimizedAffinity>
-9.94348

$$$$
5IA1_ZZL_A_1001


 36 40  0  0  0  0  0  0  0  0999 V2000
  -86.0305  -15.3903    6.3103 C   0  0  0  0  0  0  0  0  0  0  0  0
  -83.4737  -15.3067    6.3685 C   0  0  0  0  0  0  0  0  0  0  0  0
  -83.3455  -14.9357    7.7111 C   0  0  0  0  0  0  0  0  0  0  0  0
  -81.9466  -13.7505    9.2816 C   0  0  0  0  0  0  0  0  0  0  0  0
  -82.8084  -14.1061   10.3172 C   0  0  0  0  0  0  0  0  0  0  0  0
  -86.7812  -17.6036    9.7357 C   0  0  0  0  0  0  0  0  0  0  0  0
  -87.5823  -17.6397    8.6580 N   0  0  0  0  0  0  0  0  0  0  0  0
  -87.3198  -16.8901    7.5015 C   0  0  0  0  0  0  0  0  0  0  0  0
  -86.1816  -16.0925    7.5039 C   0  0  0  0  0  0  0  0  0  0  0  0
  -84.6495  -15.5478    5.7651 N   0  0  0  0  0  0  0  0  0  0  0  0
  -82.2032  -14.1762    7.9760 C   0  0  0  0  0  0  0  0  0  0  0  0
  -80.5290  -12.7740    9.6385 Cl  0  0  0  0  0  0  0  0  0  0  0  0
  -83.9397  -14.8823   10.0586 C   0  0  0  0  0  0  0  0  0  0  0  0
  -84.2090  -15.2912    8.7539 C   0  0  0  0  0  0  0  0  0  0  0  0
  -85.3760  -16.0567    8.6364 C   0  0  0  0  0  0  0  0  0  0  0  0
  -85.6906  -16.7943    9.7312 N   0  0  0  0  0  0  0  0  0  0  0  0
  -81.9569  -14.9265    4.4637 C   0  0  0  0  0  0  0  0  0  0  0  0
  -80.0213  -16.3563    4.1817 C   0  0  0  0  0  0  0  0  0  0  0  0
  -80.3722  -17.0546    5.3211 C   0  0  0  0  0  0  0  0  0  0  0  0
  -81.5182  -16.6910    6.0298 C   0  0  0  0  0  0  0  0  0  0  0  0
  -82.3174  -15.6151    5.6239 C   0  0  0  0  0  0  0  0  0  0  0  0
  -82.7010  -13.8563    3.9826 F   0  0  0  0  0  0  0  0  0  0  0  0
  -80.8128  -15.2945    3.7670 C   0  0  0  0  0  0  0  0  0  0  0  0
  -81.8273  -17.4180    7.1758 F   0  0  0  0  0  0  0  0  0  0  0  0
  -87.1819  -18.3785   10.7685 N   0  0  0  0  0  0  0  0  0  0  0  0
  -86.7646  -19.2673   10.8406 H   0  0  0  0  0  0  0  0  0  0  0  0
  -89.9424  -17.5880   13.7987 C   0  0  0  0  0  0  0  0  0  0  0  0
  -89.1145  -18.7040   13.8401 C   0  0  0  0  0  0  0  0  0  0  0  0
  -88.2049  -18.9256   12.8094 C   0  0  0  0  0  0  0  0  0  0  0  0
  -88.1011  -18.0585   11.7182 C   0  0  0  0  0  0  0  0  0  0  0  0
  -88.9463  -16.9464   11.6923 C   0  0  0  0  0  0  0  0  0  0  0  0
  -89.8567  -16.7037   12.7258 C   0  0  0  0  0  0  0  0  0  0  0  0
  -92.0773  -17.4039   14.6321 O   0  0  0  0  0  0  0  0  0  0  0  0
  -90.8416  -17.3443   14.8352 C   0  0  0  0  0  0  0  0  0  0  0  0
  -90.4089  -17.1132   15.9911 O   0  0  0  0  0  0  0  0  0  0  0  0
  -89.4859  -17.0682   16.1455 H   0  0  0  0  0  0  0  0  0  0  0  0
  1  9  1  0  0  0
  1 10  1  0  0  0
  2  3  1  0  0  0
  2 10  2  0  0  0
  2 21  1  0  0  0
 17 21  1  0  0  0
 17 22  1  0  0  0
 17 23  2  0  0  0
 18 19  2  0  0  0
 18 23  1  0  0  0
 19 20  1  0  0  0
 20 21  2  0  0  0
 20 24  1  0  0  0
  3 11  1  0  0  0
  3 14  2  0  0  0
  4  5  1  0  0  0
  4 11  2  0  0  0
  4 12  1  0  0  0
  5 13  2  0  0  0
 33 34  2  0  0  0
 34 35  1  0  0  0
 34 27  1  0  0  0
 27 28  1  0  0  0
 27 32  2  0  0  0
 28 29  2  0  0  0
 29 30  1  0  0  0
 30 25  1  0  0  0
 30 31  2  0  0  0
 25  6  1  0  0  0
  6  7  2  0  0  0
  6 16  1  0  0  0
  7  8  1  0  0  0
  8  9  2  0  0  0
  9 15  1  0  0  0
 13 14  1  0  0  0
 14 15  1  0  0  0
 15 16  2  0  0  0
 31 32  1  0  0  0
 35 36  1  0  0  0
 25 26  1  0  0  0
M  END
> <minimizedAffinity>
-9.37817

$$$$
5IA1_ZZL_A_1001


 36 40  0  0  0  0  0  0  0  0999 V2000
  -85.7040  -15.2899   12.7008 C   0  0  0  0  0  0  0  0  0  0  0  0
  -87.7985  -16.7557   12.5905 C   0  0  0  0  0  0  0  0  0  0  0  0
  -88.0300  -16.6200   11.2177 C   0  0  0  0  0  0  0  0  0  0  0  0
  -89.7480  -16.6077    9.5217 C   0  0  0  0  0  0  0  0  0  0  0  0
  -88.7752  -16.4412    8.5380 C   0  0  0  0  0  0  0  0  0  0  0  0
  -83.5529  -16.8238    9.5046 C   0  0  0  0  0  0  0  0  0  0  0  0
  -82.9632  -16.3062   10.5949 N   0  0  0  0  0  0  0  0  0  0  0  0
  -83.6981  -15.7919   11.6736 C   0  0  0  0  0  0  0  0  0  0  0  0
  -85.0840  -15.8353   11.5788 C   0  0  0  0  0  0  0  0  0  0  0  0
  -86.7543  -16.2075   13.2338 N   0  0  0  0  0  0  0  0  0  0  0  0
  -89.3786  -16.7128   10.8649 C   0  0  0  0  0  0  0  0  0  0  0  0
  -91.4399  -16.6975    9.0527 Cl  0  0  0  0  0  0  0  0  0  0  0  0
  -87.4251  -16.3688    8.8858 C   0  0  0  0  0  0  0  0  0  0  0  0
  -87.0555  -16.4528   10.2268 C   0  0  0  0  0  0  0  0  0  0  0  0
  -85.6734  -16.3593   10.4338 C   0  0  0  0  0  0  0  0  0  0  0  0
  -84.9081  -16.8290    9.4163 N   0  0  0  0  0  0  0  0  0  0  0  0
  -89.7661  -17.2555   13.9879 C   0  0  0  0  0  0  0  0  0  0  0  0
  -90.0665  -19.4959   14.8602 C   0  0  0  0  0  0  0  0  0  0  0  0
  -88.9010  -19.8948   14.2345 C   0  0  0  0  0  0  0  0  0  0  0  0
  -88.1657  -18.9725   13.4885 C   0  0  0  0  0  0  0  0  0  0  0  0
  -88.5927  -17.6471   13.3398 C   0  0  0  0  0  0  0  0  0  0  0  0
  -90.2537  -15.9571   13.9048 F   0  0  0  0  0  0  0  0  0  0  0  0
  -90.4921  -18.1818   14.7257 C   0  0  0  0  0  0  0  0  0  0  0  0
  -87.0029  -19.4220   12.8696 F   0  0  0  0  0  0  0  0  0  0  0  0
  -82.7007  -17.2680    8.5537 N   0  0  0  0  0  0  0  0  0  0  0  0
  -82.2551  -18.1284    8.7282 H   0  0  0  0  0  0  0  0  0  0  0  0
  -81.9788  -15.2932    4.9472 C   0  0  0  0  0  0  0  0  0  0  0  0
  -83.2187  -15.2371    5.5733 C   0  0  0  0  0  0  0  0  0  0  0  0
  -83.4131  -15.9076    6.7781 C   0  0  0  0  0  0  0  0  0  0  0  0
  -82.3946  -16.6504    7.3814 C   0  0  0  0  0  0  0  0  0  0  0  0
  -81.1580  -16.6995    6.7331 C   0  0  0  0  0  0  0  0  0  0  0  0
  -80.9437  -16.0216    5.5288 C   0  0  0  0  0  0  0  0  0  0  0  0
  -80.6265  -14.5786    3.2305 O   0  0  0  0  0  0  0  0  0  0  0  0
  -81.7662  -14.6085    3.7521 C   0  0  0  0  0  0  0  0  0  0  0  0
  -82.7344  -14.0610    3.1695 O   0  0  0  0  0  0  0  0  0  0  0  0
  -83.5872  -14.0819    3.5572 H   0  0  0  0  0  0  0  0  0  0  0  0
  1  9  1  0  0  0
  1 10  1  0  0  0
  2  3  1  0  0  0
  2 10  2  0  0  0
  2 21  1  0  0  0
 17 21  1  0  0  0
 17 22  1  0  0  0
 17 23  2  0  0  0
 18 19  2  0  0  0
 18 23  1  0  0  0
 19 20  1  0  0  0
 20 21  2  0  0  0
 20 24  1  0  0  0
  3 11  1  0  0  0
  3 14  2  0  0  0
  4  5  1  0  0  0
  4 11  2  0  0  0
  4 12  1  0  0  0
  5 13  2  0  0  0
 33 34  2  0  0  0
 34 35  1  0  0  0
 34 27  1  0  0  0
 27 28  1  0  0  0
 27 32  2  0  0  0
 28 29  2  0  0  0
 29 30  1  0  0  0
 30 25  1  0  0  0
 30 31  2  0  0  0
 25  6  1  0  0  0
  6  7  2  0  0  0
  6 16  1  0  0  0
  7  8  1  0  0  0
  8  9  2  0  0  0
  9 15  1  0  0  0
 13 14  1  0  0  0
 14 15  1  0  0  0
 15 16  2  0  0  0
 31 32  1  0  0  0
 35 36  1  0  0  0
 25 26  1  0  0  0
M  END
> <minimizedAffinity>
-9.04590

$$$$
5IA1_ZZL_A_1001


 36 40  0  0  0  0  0  0  0  0999 V2000
  -85.4508  -14.5560   11.8554 C   0  0  0  0  0  0  0  0  0  0  0  0
  -87.4722  -16.1016   12.1253 C   0  0  0  0  0  0  0  0  0  0  0  0
  -87.7914  -16.2043   10.7674 C   0  0  0  0  0  0  0  0  0  0  0  0
  -89.6055  -16.5410    9.2106 C   0  0  0  0  0  0  0  0  0  0  0  0
  -88.7025  -16.5013    8.1501 C   0  0  0  0  0  0  0  0  0  0  0  0
  -83.4194  -16.5114    8.8148 C   0  0  0  0  0  0  0  0  0  0  0  0
  -82.7926  -15.7976    9.7645 N   0  0  0  0  0  0  0  0  0  0  0  0
  -83.4869  -15.1412   10.7918 C   0  0  0  0  0  0  0  0  0  0  0  0
  -84.8721  -15.2546   10.7982 C   0  0  0  0  0  0  0  0  0  0  0  0
  -86.4204  -15.4136   12.5996 N   0  0  0  0  0  0  0  0  0  0  0  0
  -89.1522  -16.4075   10.5252 C   0  0  0  0  0  0  0  0  0  0  0  0
  -91.3157  -16.7740    8.8767 Cl  0  0  0  0  0  0  0  0  0  0  0  0
  -87.3395  -16.3189    8.3905 C   0  0  0  0  0  0  0  0  0  0  0  0
  -86.8871  -16.1650    9.6995 C   0  0  0  0  0  0  0  0  0  0  0  0
  -85.5015  -15.9839    9.7957 C   0  0  0  0  0  0  0  0  0  0  0  0
  -84.7755  -16.5849    8.8193 N   0  0  0  0  0  0  0  0  0  0  0  0
  -88.0652  -18.2785   13.1169 C   0  0  0  0  0  0  0  0  0  0  0  0
  -89.6717  -18.3613   14.9288 C   0  0  0  0  0  0  0  0  0  0  0  0
  -89.7995  -16.9865   14.8771 C   0  0  0  0  0  0  0  0  0  0  0  0
  -89.0628  -16.2579   13.9421 C   0  0  0  0  0  0  0  0  0  0  0  0
  -88.1748  -16.8874   13.0611 C   0  0  0  0  0  0  0  0  0  0  0  0
  -87.2190  -18.9839   12.2704 F   0  0  0  0  0  0  0  0  0  0  0  0
  -88.8009  -18.9942   14.0530 C   0  0  0  0  0  0  0  0  0  0  0  0
  -89.2181  -14.8748   13.9327 F   0  0  0  0  0  0  0  0  0  0  0  0
  -82.6040  -17.0728    7.8940 N   0  0  0  0  0  0  0  0  0  0  0  0
  -82.3462  -18.0106    8.0468 H   0  0  0  0  0  0  0  0  0  0  0  0
  -81.2824  -15.1901    4.4103 C   0  0  0  0  0  0  0  0  0  0  0  0
  -82.6306  -15.2390    4.7457 C   0  0  0  0  0  0  0  0  0  0  0  0
  -83.0257  -15.8736    5.9204 C   0  0  0  0  0  0  0  0  0  0  0  0
  -82.1028  -16.4774    6.7788 C   0  0  0  0  0  0  0  0  0  0  0  0
  -80.7535  -16.4229    6.4206 C   0  0  0  0  0  0  0  0  0  0  0  0
  -80.3399  -15.7787    5.2503 C   0  0  0  0  0  0  0  0  0  0  0  0
  -80.4785  -15.1964    2.2562 O   0  0  0  0  0  0  0  0  0  0  0  0
  -80.8730  -14.5389    3.2481 C   0  0  0  0  0  0  0  0  0  0  0  0
  -80.9482  -13.2875    3.1782 O   0  0  0  0  0  0  0  0  0  0  0  0
  -81.2428  -12.7938    3.9181 H   0  0  0  0  0  0  0  0  0  0  0  0
  1  9  1  0  0  0
  1 10  1  0  0  0
  2  3  1  0  0  0
  2 10  2  0  0  0
  2 21  1  0  0  0
 17 21  1  0  0  0
 17 22  1  0  0  0
 17 23  2  0  0  0
 18 19  2  0  0  0
 18 23  1  0  0  0
 19 20  1  0  0  0
 20 21  2  0  0  0
 20 24  1  0  0  0
  3 11  1  0  0  0
  3 14  2  0  0  0
  4  5  1  0  0  0
  4 11  2  0  0  0
  4 12  1  0  0  0
  5 13  2  0  0  0
 33 34  2  0  0  0
 34 35  1  0  0  0
 34 27  1  0  0  0
 27 28  1  0  0  0
 27 32  2  0  0  0
 28 29  2  0  0  0
 29 30  1  0  0  0
 30 25  1  0  0  0
 30 31  2  0  0  0
 25  6  1  0  0  0
  6  7  2  0  0  0
  6 16  1  0  0  0
  7  8  1  0  0  0
  8  9  2  0  0  0
  9 15  1  0  0  0
 13 14  1  0  0  0
 14 15  1  0  0  0
 15 16  2  0  0  0
 31 32  1  0  0  0
 35 36  1  0  0  0
 25 26  1  0  0  0
M  END
> <minimizedAffinity>
-8.83045

$$$$
5IA1_ZZL_A_1001


 36 40  0  0  0  0  0  0  0  0999 V2000
  -83.7737  -14.3074   10.4452 C   0  0  0  0  0  0  0  0  0  0  0  0
  -85.9004  -15.6807   10.0723 C   0  0  0  0  0  0  0  0  0  0  0  0
  -85.8103  -15.7601    8.6787 C   0  0  0  0  0  0  0  0  0  0  0  0
  -87.1030  -15.9503    6.6487 C   0  0  0  0  0  0  0  0  0  0  0  0
  -85.9263  -15.9878    5.9032 C   0  0  0  0  0  0  0  0  0  0  0  0
  -81.0951  -16.4311    8.0978 C   0  0  0  0  0  0  0  0  0  0  0  0
  -80.7229  -15.7689    9.2056 N   0  0  0  0  0  0  0  0  0  0  0  0
  -81.6359  -15.0550    9.9963 C   0  0  0  0  0  0  0  0  0  0  0  0
  -82.9652  -15.0540    9.5909 C   0  0  0  0  0  0  0  0  0  0  0  0
  -84.9850  -15.0804   10.8510 N   0  0  0  0  0  0  0  0  0  0  0  0
  -87.0500  -15.8513    8.0412 C   0  0  0  0  0  0  0  0  0  0  0  0
  -88.6505  -16.0426    5.8196 Cl  0  0  0  0  0  0  0  0  0  0  0  0
  -84.6855  -15.9176    6.5393 C   0  0  0  0  0  0  0  0  0  0  0  0
  -84.6303  -15.7982    7.9266 C   0  0  0  0  0  0  0  0  0  0  0  0
  -83.3255  -15.7315    8.4315 C   0  0  0  0  0  0  0  0  0  0  0  0
  -82.3931  -16.3927    7.7001 N   0  0  0  0  0  0  0  0  0  0  0  0
  -86.8628  -17.7891   10.9102 C   0  0  0  0  0  0  0  0  0  0  0  0
  -89.0068  -17.7517   12.0381 C   0  0  0  0  0  0  0  0  0  0  0  0
  -89.0717  -16.3821   11.8676 C   0  0  0  0  0  0  0  0  0  0  0  0
  -88.0333  -15.7163   11.2145 C   0  0  0  0  0  0  0  0  0  0  0  0
  -86.9086  -16.4035   10.7413 C   0  0  0  0  0  0  0  0  0  0  0  0
  -85.7913  -18.5498   10.4588 F   0  0  0  0  0  0  0  0  0  0  0  0
  -87.9002  -18.4419   11.5640 C   0  0  0  0  0  0  0  0  0  0  0  0
  -88.1385  -14.3357   11.0732 F   0  0  0  0  0  0  0  0  0  0  0  0
  -80.0909  -17.0601    7.4467 N   0  0  0  0  0  0  0  0  0  0  0  0
  -79.3239  -17.3482    7.9926 H   0  0  0  0  0  0  0  0  0  0  0  0
  -79.6964  -18.0067    3.4000 C   0  0  0  0  0  0  0  0  0  0  0  0
  -78.7206  -18.3525    4.3278 C   0  0  0  0  0  0  0  0  0  0  0  0
  -78.8964  -18.0207    5.6687 C   0  0  0  0  0  0  0  0  0  0  0  0
  -80.0297  -17.3363    6.1166 C   0  0  0  0  0  0  0  0  0  0  0  0
  -80.9954  -16.9922    5.1675 C   0  0  0  0  0  0  0  0  0  0  0  0
  -80.8389  -17.3290    3.8192 C   0  0  0  0  0  0  0  0  0  0  0  0
  -80.4520  -18.1130    1.2311 O   0  0  0  0  0  0  0  0  0  0  0  0
  -79.5414  -18.3525    2.0588 C   0  0  0  0  0  0  0  0  0  0  0  0
  -78.4615  -18.8616    1.6697 O   0  0  0  0  0  0  0  0  0  0  0  0
  -77.7793  -19.0415    2.2864 H   0  0  0  0  0  0  0  0  0  0  0  0
  1  9  1  0  0  0
  1 10  1  0  0  0
  2  3  1  0  0  0
  2 10  2  0  0  0
  2 21  1  0  0  0
 17 21  1  0  0  0
 17 22  1  0  0  0
 17 23  2  0  0  0
 18 19  2  0  0  0
 18 23  1  0  0  0
 19 20  1  0  0  0
 20 21  2  0  0  0
 20 24  1  0  0  0
  3 11  1  0  0  0
  3 14  2  0  0  0
  4  5  1  0  0  0
  4 11  2  0  0  0
  4 12  1  0  0  0
  5 13  2  0  0  0
 33 34  2  0  0  0
 34 35  1  0  0  0
 34 27  1  0  0  0
 27 28  1  0  0  0
 27 32  2  0  0  0
 28 29  2  0  0  0
 29 30  1  0  0  0
 30 25  1  0  0  0
 30 31  2  0  0  0
 25  6  1  0  0  0
  6  7  2  0  0  0
  6 16  1  0  0  0
  7  8  1  0  0  0
  8  9  2  0  0  0
  9 15  1  0  0  0
 13 14  1  0  0  0
 14 15  1  0  0  0
 15 16  2  0  0  0
 31 32  1  0  0  0
 35 36  1  0  0  0
 25 26  1  0  0  0
M  END
> <minimizedAffinity>
-8.65635

$$$$
5IA1_ZZL_A_1001


 36 40  0  0  0  0  0  0  0  0999 V2000
  -83.0190  -17.6859   11.1165 C   0  0  0  0  0  0  0  0  0  0  0  0
  -82.8575  -16.1421    9.0822 C   0  0  0  0  0  0  0  0  0  0  0  0
  -84.2181  -16.1444    8.7576 C   0  0  0  0  0  0  0  0  0  0  0  0
  -85.7884  -15.9411    6.9353 C   0  0  0  0  0  0  0  0  0  0  0  0
  -86.8465  -16.0524    7.8351 C   0  0  0  0  0  0  0  0  0  0  0  0
  -86.2057  -15.9464   13.1200 C   0  0  0  0  0  0  0  0  0  0  0  0
  -85.2077  -16.5815   13.7565 N   0  0  0  0  0  0  0  0  0  0  0  0
  -84.1313  -17.1650   13.0715 C   0  0  0  0  0  0  0  0  0  0  0  0
  -84.1279  -17.0635   11.6854 C   0  0  0  0  0  0  0  0  0  0  0  0
  -82.3372  -16.7834   10.1418 N   0  0  0  0  0  0  0  0  0  0  0  0
  -84.4693  -15.9717    7.3942 C   0  0  0  0  0  0  0  0  0  0  0  0
  -86.1320  -15.7487    5.2219 Cl  0  0  0  0  0  0  0  0  0  0  0  0
  -86.5987  -16.2044    9.2005 C   0  0  0  0  0  0  0  0  0  0  0  0
  -85.2836  -16.2557    9.6587 C   0  0  0  0  0  0  0  0  0  0  0  0
  -85.1797  -16.4170   11.0461 C   0  0  0  0  0  0  0  0  0  0  0  0
  -86.2013  -15.8846   11.7633 N   0  0  0  0  0  0  0  0  0  0  0  0
  -81.2345  -15.7229    7.2755 C   0  0  0  0  0  0  0  0  0  0  0  0
  -80.2134  -13.5345    7.0791 C   0  0  0  0  0  0  0  0  0  0  0  0
  -80.9358  -13.1001    8.1738 C   0  0  0  0  0  0  0  0  0  0  0  0
  -81.8051  -13.9788    8.8220 C   0  0  0  0  0  0  0  0  0  0  0  0
  -81.9805  -15.2945    8.3757 C   0  0  0  0  0  0  0  0  0  0  0  0
  -81.3370  -17.0154    6.7761 F   0  0  0  0  0  0  0  0  0  0  0  0
  -80.3742  -14.8397    6.6357 C   0  0  0  0  0  0  0  0  0  0  0  0
  -82.5177  -13.4942    9.9150 F   0  0  0  0  0  0  0  0  0  0  0  0
  -87.1692  -15.4485   13.9273 N   0  0  0  0  0  0  0  0  0  0  0  0
  -87.0959  -14.4962   14.1658 H   0  0  0  0  0  0  0  0  0  0  0  0
  -90.2920  -17.5793   15.6980 C   0  0  0  0  0  0  0  0  0  0  0  0
  -89.0583  -17.4401   16.3233 C   0  0  0  0  0  0  0  0  0  0  0  0
  -88.0465  -16.7163   15.6976 C   0  0  0  0  0  0  0  0  0  0  0  0
  -88.2292  -16.1259   14.4441 C   0  0  0  0  0  0  0  0  0  0  0  0
  -89.4740  -16.2829   13.8297 C   0  0  0  0  0  0  0  0  0  0  0  0
  -90.5039  -16.9966   14.4507 C   0  0  0  0  0  0  0  0  0  0  0  0
  -91.5081  -19.4955   16.0666 O   0  0  0  0  0  0  0  0  0  0  0  0
  -91.3190  -18.2832   16.3243 C   0  0  0  0  0  0  0  0  0  0  0  0
  -92.0266  -17.7106   17.1893 O   0  0  0  0  0  0  0  0  0  0  0  0
  -91.8872  -16.8046   17.3837 H   0  0  0  0  0  0  0  0  0  0  0  0
  1  9  1  0  0  0
  1 10  1  0  0  0
  2  3  1  0  0  0
  2 10  2  0  0  0
  2 21  1  0  0  0
 17 21  1  0  0  0
 17 22  1  0  0  0
 17 23  2  0  0  0
 18 19  2  0  0  0
 18 23  1  0  0  0
 19 20  1  0  0  0
 20 21  2  0  0  0
 20 24  1  0  0  0
  3 11  1  0  0  0
  3 14  2  0  0  0
  4  5  1  0  0  0
  4 11  2  0  0  0
  4 12  1  0  0  0
  5 13  2  0  0  0
 33 34  2  0  0  0
 34 35  1  0  0  0
 34 27  1  0  0  0
 27 28  1  0  0  0
 27 32  2  0  0  0
 28 29  2  0  0  0
 29 30  1  0  0  0
 30 25  1  0  0  0
 30 31  2  0  0  0
 25  6  1  0  0  0
  6  7  2  0  0  0
  6 16  1  0  0  0
  7  8  1  0  0  0
  8  9  2  0  0  0
  9 15  1  0  0  0
 13 14  1  0  0  0
 14 15  1  0  0  0
 15 16  2  0  0  0
 31 32  1  0  0  0
 35 36  1  0  0  0
 25 26  1  0  0  0
M  END
> <minimizedAffinity>
-8.57685

$$$$
5IA1_ZZL_A_1001


 36 40  0  0  0  0  0  0  0  0999 V2000
  -87.3590  -14.7793   13.9695 C   0  0  0  0  0  0  0  0  0  0  0  0
  -84.8699  -14.8627   14.5567 C   0  0  0  0  0  0  0  0  0  0  0  0
  -84.6271  -16.1579   14.0877 C   0  0  0  0  0  0  0  0  0  0  0  0
  -83.2523  -18.1181   14.3971 C   0  0  0  0  0  0  0  0  0  0  0  0
  -83.8932  -18.7365   13.3254 C   0  0  0  0  0  0  0  0  0  0  0  0
  -87.2521  -16.1902   10.0716 C   0  0  0  0  0  0  0  0  0  0  0  0
  -88.1731  -15.3114   10.5005 N   0  0  0  0  0  0  0  0  0  0  0  0
  -88.2008  -14.8364   11.8203 C   0  0  0  0  0  0  0  0  0  0  0  0
  -87.2257  -15.3119   12.6891 C   0  0  0  0  0  0  0  0  0  0  0  0
  -86.0577  -14.2417   14.4662 N   0  0  0  0  0  0  0  0  0  0  0  0
  -83.6061  -16.8202   14.7738 C   0  0  0  0  0  0  0  0  0  0  0  0
  -81.9872  -18.9830   15.2587 Cl  0  0  0  0  0  0  0  0  0  0  0  0
  -84.8997  -18.0692   12.6249 C   0  0  0  0  0  0  0  0  0  0  0  0
  -85.2686  -16.7822   13.0114 C   0  0  0  0  0  0  0  0  0  0  0  0
  -86.2928  -16.2342   12.2288 C   0  0  0  0  0  0  0  0  0  0  0  0
  -86.3263  -16.6674   10.9432 N   0  0  0  0  0  0  0  0  0  0  0  0
  -83.4821  -13.9077   16.3555 C   0  0  0  0  0  0  0  0  0  0  0  0
  -81.6463  -12.4330   15.7849 C   0  0  0  0  0  0  0  0  0  0  0  0
  -81.9457  -12.5806   14.4441 C   0  0  0  0  0  0  0  0  0  0  0  0
  -83.0163  -13.3891   14.0592 C   0  0  0  0  0  0  0  0  0  0  0  0
  -83.7890  -14.0762   15.0035 C   0  0  0  0  0  0  0  0  0  0  0  0
  -84.2059  -14.5410   17.3582 F   0  0  0  0  0  0  0  0  0  0  0  0
  -82.4128  -13.1030   16.7280 C   0  0  0  0  0  0  0  0  0  0  0  0
  -83.2748  -13.5141   12.6974 F   0  0  0  0  0  0  0  0  0  0  0  0
  -87.3716  -16.5518    8.7744 N   0  0  0  0  0  0  0  0  0  0  0  0
  -88.1708  -17.0742    8.5342 H   0  0  0  0  0  0  0  0  0  0  0  0
  -84.5345  -15.6858    5.8370 C   0  0  0  0  0  0  0  0  0  0  0  0
  -84.1744  -15.8652    7.1676 C   0  0  0  0  0  0  0  0  0  0  0  0
  -85.1539  -16.1576    8.1131 C   0  0  0  0  0  0  0  0  0  0  0  0
  -86.5032  -16.2693    7.7667 C   0  0  0  0  0  0  0  0  0  0  0  0
  -86.8453  -16.0791    6.4255 C   0  0  0  0  0  0  0  0  0  0  0  0
  -85.8715  -15.7968    5.4623 C   0  0  0  0  0  0  0  0  0  0  0  0
  -82.7331  -16.2953    4.5448 O   0  0  0  0  0  0  0  0  0  0  0  0
  -83.5601  -15.4141    4.8783 C   0  0  0  0  0  0  0  0  0  0  0  0
  -83.5437  -14.2947    4.3096 O   0  0  0  0  0  0  0  0  0  0  0  0
  -84.1607  -13.6344    4.5570 H   0  0  0  0  0  0  0  0  0  0  0  0
  1  9  1  0  0  0
  1 10  1  0  0  0
  2  3  1  0  0  0
  2 10  2  0  0  0
  2 21  1  0  0  0
 17 21  1  0  0  0
 17 22  1  0  0  0
 17 23  2  0  0  0
 18 19  2  0  0  0
 18 23  1  0  0  0
 19 20  1  0  0  0
 20 21  2  0  0  0
 20 24  1  0  0  0
  3 11  1  0  0  0
  3 14  2  0  0  0
  4  5  1  0  0  0
  4 11  2  0  0  0
  4 12  1  0  0  0
  5 13  2  0  0  0
 33 34  2  0  0  0
 34 35  1  0  0  0
 34 27  1  0  0  0
 27 28  1  0  0  0
 27 32  2  0  0  0
 28 29  2  0  0  0
 29 30  1  0  0  0
 30 25  1  0  0  0
 30 31  2  0  0  0
 25  6  1  0  0  0
  6  7  2  0  0  0
  6 16  1  0  0  0
  7  8  1  0  0  0
  8  9  2  0  0  0
  9 15  1  0  0  0
 13 14  1  0  0  0
 14 15  1  0  0  0
 15 16  2  0  0  0
 31 32  1  0  0  0
 35 36  1  0  0  0
 25 26  1  0  0  0
M  END
> <minimizedAffinity>
-8.30769

$$$$
5IA1_ZZL_A_1001


 36 40  0  0  0  0  0  0  0  0999 V2000
  -88.9342  -16.8913   13.8593 C   0  0  0  0  0  0  0  0  0  0  0  0
  -86.6485  -16.2138   14.7888 C   0  0  0  0  0  0  0  0  0  0  0  0
  -85.8834  -17.1007   14.0243 C   0  0  0  0  0  0  0  0  0  0  0  0
  -83.8411  -18.3877   13.9934 C   0  0  0  0  0  0  0  0  0  0  0  0
  -84.1375  -18.8266   12.7046 C   0  0  0  0  0  0  0  0  0  0  0  0
  -88.1284  -16.8410    9.7919 C   0  0  0  0  0  0  0  0  0  0  0  0
  -89.3415  -16.5590   10.2951 N   0  0  0  0  0  0  0  0  0  0  0  0
  -89.6055  -16.5753   11.6729 C   0  0  0  0  0  0  0  0  0  0  0  0
  -88.5518  -16.8981   12.5197 C   0  0  0  0  0  0  0  0  0  0  0  0
  -87.9824  -16.0915   14.6861 N   0  0  0  0  0  0  0  0  0  0  0  0
  -84.7055  -17.5108   14.6536 C   0  0  0  0  0  0  0  0  0  0  0  0
  -82.3640  -18.9380   14.7718 Cl  0  0  0  0  0  0  0  0  0  0  0  0
  -85.3038  -18.4021   12.0654 C   0  0  0  0  0  0  0  0  0  0  0  0
  -86.1779  -17.5436   12.7295 C   0  0  0  0  0  0  0  0  0  0  0  0
  -87.3089  -17.2035   11.9766 C   0  0  0  0  0  0  0  0  0  0  0  0
  -87.1190  -17.1849   10.6330 N   0  0  0  0  0  0  0  0  0  0  0  0
  -85.2484  -14.2068   15.0818 C   0  0  0  0  0  0  0  0  0  0  0  0
  -84.6884  -13.4644   17.3191 C   0  0  0  0  0  0  0  0  0  0  0  0
  -85.4160  -14.5131   17.8483 C   0  0  0  0  0  0  0  0  0  0  0  0
  -86.0568  -15.4113   16.9936 C   0  0  0  0  0  0  0  0  0  0  0  0
  -85.9975  -15.2644   15.6022 C   0  0  0  0  0  0  0  0  0  0  0  0
  -85.1254  -13.9961   13.7140 F   0  0  0  0  0  0  0  0  0  0  0  0
  -84.6167  -13.3168   15.9411 C   0  0  0  0  0  0  0  0  0  0  0  0
  -86.7846  -16.4469   17.5722 F   0  0  0  0  0  0  0  0  0  0  0  0
  -88.0457  -16.7888    8.4435 N   0  0  0  0  0  0  0  0  0  0  0  0
  -88.8747  -16.9682    7.9437 H   0  0  0  0  0  0  0  0  0  0  0  0
  -84.7814  -15.8946    5.9997 C   0  0  0  0  0  0  0  0  0  0  0  0
  -86.0885  -15.7792    5.5408 C   0  0  0  0  0  0  0  0  0  0  0  0
  -87.1471  -16.0836    6.3926 C   0  0  0  0  0  0  0  0  0  0  0  0
  -86.9370  -16.5143    7.7054 C   0  0  0  0  0  0  0  0  0  0  0  0
  -85.6160  -16.6298    8.1453 C   0  0  0  0  0  0  0  0  0  0  0  0
  -84.5425  -16.3164    7.3056 C   0  0  0  0  0  0  0  0  0  0  0  0
  -82.7019  -16.3096    5.1109 O   0  0  0  0  0  0  0  0  0  0  0  0
  -83.7144  -15.5721    5.1631 C   0  0  0  0  0  0  0  0  0  0  0  0
  -83.7911  -14.5628    4.4200 O   0  0  0  0  0  0  0  0  0  0  0  0
  -84.5468  -14.0101    4.4571 H   0  0  0  0  0  0  0  0  0  0  0  0
  1  9  1  0  0  0
  1 10  1  0  0  0
  2  3  1  0  0  0
  2 10  2  0  0  0
  2 21  1  0  0  0
 17 21  1  0  0  0
 17 22  1  0  0  0
 17 23  2  0  0  0
 18 19  2  0  0  0
 18 23  1  0  0  0
 19 20  1  0  0  0
 20 21  2  0  0  0
 20 24  1  0  0  0
  3 11  1  0  0  0
  3 14  2  0  0  0
  4  5  1  0  0  0
  4 11  2  0  0  0
  4 12  1  0  0  0
  5 13  2  0  0  0
 33 34  2  0  0  0
 34 35  1  0  0  0
 34 27  1  0  0  0
 27 28  1  0  0  0
 27 32  2  0  0  0
 28 29  2  0  0  0
 29 30  1  0  0  0
 30 25  1  0  0  0
 30 31  2  0  0  0
 25  6  1  0  0  0
  6  7  2  0  0  0
  6 16  1  0  0  0
  7  8  1  0  0  0
  8  9  2  0  0  0
  9 15  1  0  0  0
 13 14  1  0  0  0
 14 15  1  0  0  0
 15 16  2  0  0  0
 31 32  1  0  0  0
 35 36  1  0  0  0
 25 26  1  0  0  0
M  END
> <minimizedAffinity>
-8.26319

$$$$
5IA1_ZZL_A_1001


 36 40  0  0  0  0  0  0  0  0999 V2000
  -86.1571  -15.0605   15.5905 C   0  0  0  0  0  0  0  0  0  0  0  0
  -83.6523  -14.6415   15.2779 C   0  0  0  0  0  0  0  0  0  0  0  0
  -83.2995  -15.9541   14.9473 C   0  0  0  0  0  0  0  0  0  0  0  0
  -81.5129  -17.5751   15.0392 C   0  0  0  0  0  0  0  0  0  0  0  0
  -82.3115  -18.4934   14.3605 C   0  0  0  0  0  0  0  0  0  0  0  0
  -86.9856  -17.2215   12.1497 C   0  0  0  0  0  0  0  0  0  0  0  0
  -87.8895  -16.4224   12.7403 N   0  0  0  0  0  0  0  0  0  0  0  0
  -87.6006  -15.6920   13.9028 C   0  0  0  0  0  0  0  0  0  0  0  0
  -86.3238  -15.8223   14.4361 C   0  0  0  0  0  0  0  0  0  0  0  0
  -84.9116  -14.2403   15.5182 N   0  0  0  0  0  0  0  0  0  0  0  0
  -81.9980  -16.2960   15.3226 C   0  0  0  0  0  0  0  0  0  0  0  0
  -79.8872  -18.0391   15.5214 Cl  0  0  0  0  0  0  0  0  0  0  0  0
  -83.6052  -18.1474   13.9661 C   0  0  0  0  0  0  0  0  0  0  0  0
  -84.0989  -16.8791   14.2656 C   0  0  0  0  0  0  0  0  0  0  0  0
  -85.4094  -16.6682   13.8186 C   0  0  0  0  0  0  0  0  0  0  0  0
  -85.7532  -17.3603   12.7031 N   0  0  0  0  0  0  0  0  0  0  0  0
  -82.0054  -13.1331   16.3201 C   0  0  0  0  0  0  0  0  0  0  0  0
  -80.8017  -11.5493   14.9369 C   0  0  0  0  0  0  0  0  0  0  0  0
  -81.4697  -12.0171   13.8216 C   0  0  0  0  0  0  0  0  0  0  0  0
  -82.4088  -13.0407   13.9563 C   0  0  0  0  0  0  0  0  0  0  0  0
  -82.6794  -13.6246   15.2001 C   0  0  0  0  0  0  0  0  0  0  0  0
  -82.2238  -13.6454   17.5931 F   0  0  0  0  0  0  0  0  0  0  0  0
  -81.0705  -12.1160   16.1749 C   0  0  0  0  0  0  0  0  0  0  0  0
  -83.0506  -13.4849   12.8040 F   0  0  0  0  0  0  0  0  0  0  0  0
  -87.4278  -17.8599   11.0431 N   0  0  0  0  0  0  0  0  0  0  0  0
  -87.7504  -18.7820   11.1653 H   0  0  0  0  0  0  0  0  0  0  0  0
  -87.7987  -16.3517    7.1681 C   0  0  0  0  0  0  0  0  0  0  0  0
  -88.9106  -16.7252    7.9143 C   0  0  0  0  0  0  0  0  0  0  0  0
  -88.7399  -17.2189    9.2050 C   0  0  0  0  0  0  0  0  0  0  0  0
  -87.4735  -17.3614    9.7786 C   0  0  0  0  0  0  0  0  0  0  0  0
  -86.3687  -16.9866    9.0100 C   0  0  0  0  0  0  0  0  0  0  0  0
  -86.5246  -16.4778    7.7168 C   0  0  0  0  0  0  0  0  0  0  0  0
  -86.9630  -15.6494    5.1446 O   0  0  0  0  0  0  0  0  0  0  0  0
  -87.9586  -15.8361    5.8832 C   0  0  0  0  0  0  0  0  0  0  0  0
  -89.1129  -15.6048    5.4462 O   0  0  0  0  0  0  0  0  0  0  0  0
  -89.8586  -15.7436    5.9963 H   0  0  0  0  0  0  0  0  0  0  0  0
  1  9  1  0  0  0
  1 10  1  0  0  0
  2  3  1  0  0  0
  2 10  2  0  0  0
  2 21  1  0  0  0
 17 21  1  0  0  0
 17 22  1  0  0  0
 17 23  2  0  0  0
 18 19  2  0  0  0
 18 23  1  0  0  0
 19 20  1  0  0  0
 20 21  2  0  0  0
 20 24  1  0  0  0
  3 11  1  0  0  0
  3 14  2  0  0  0
  4  5  1  0  0  0
  4 11  2  0  0  0
  4 12  1  0  0  0
  5 13  2  0  0  0
 33 34  2  0  0  0
 34 35  1  0  0  0
 34 27  1  0  0  0
 27 28  1  0  0  0
 27 32  2  0  0  0
 28 29  2  0  0  0
 29 30  1  0  0  0
 30 25  1  0  0  0
 30 31  2  0  0  0
 25  6  1  0  0  0
  6  7  2  0  0  0
  6 16  1  0  0  0
  7  8  1  0  0  0
  8  9  2  0  0  0
  9 15  1  0  0  0
 13 14  1  0  0  0
 14 15  1  0  0  0
 15 16  2  0  0  0
 31 32  1  0  0  0
 35 36  1  0  0  0
 25 26  1  0  0  0
M  END
> <minimizedAffinity>
-8.23237

$$$$
5IA1_ZZL_A_1001


 36 40  0  0  0  0  0  0  0  0999 V2000
  -84.6271  -14.5210   15.0936 C   0  0  0  0  0  0  0  0  0  0  0  0
  -82.2205  -14.1747   14.2961 C   0  0  0  0  0  0  0  0  0  0  0  0
  -81.9579  -15.5072   13.9617 C   0  0  0  0  0  0  0  0  0  0  0  0
  -80.2126  -17.1658   13.7844 C   0  0  0  0  0  0  0  0  0  0  0  0
  -81.1401  -18.0905   13.3088 C   0  0  0  0  0  0  0  0  0  0  0  0
  -86.1275  -16.7946   11.9671 C   0  0  0  0  0  0  0  0  0  0  0  0
  -86.8901  -15.9515   12.6827 N   0  0  0  0  0  0  0  0  0  0  0  0
  -86.3743  -15.1834   13.7373 C   0  0  0  0  0  0  0  0  0  0  0  0
  -85.0218  -15.3232   14.0252 C   0  0  0  0  0  0  0  0  0  0  0  0
  -83.4048  -13.7343   14.7523 N   0  0  0  0  0  0  0  0  0  0  0  0
  -80.6146  -15.8653   14.0990 C   0  0  0  0  0  0  0  0  0  0  0  0
  -78.5327  -17.6494   13.9706 Cl  0  0  0  0  0  0  0  0  0  0  0  0
  -82.4794  -17.7294   13.1510 C   0  0  0  0  0  0  0  0  0  0  0  0
  -82.8869  -16.4389   13.4834 C   0  0  0  0  0  0  0  0  0  0  0  0
  -84.2548  -16.2143   13.2832 C   0  0  0  0  0  0  0  0  0  0  0  0
  -84.8149  -16.9412   12.2834 N   0  0  0  0  0  0  0  0  0  0  0  0
  -80.9502  -12.8101   12.6843 C   0  0  0  0  0  0  0  0  0  0  0  0
  -79.2922  -11.2430   13.5002 C   0  0  0  0  0  0  0  0  0  0  0  0
  -79.5832  -11.6128   14.7993 C   0  0  0  0  0  0  0  0  0  0  0  0
  -80.5554  -12.5846   15.0406 C   0  0  0  0  0  0  0  0  0  0  0  0
  -81.2637  -13.1852   13.9925 C   0  0  0  0  0  0  0  0  0  0  0  0
  -81.5942  -13.3658   11.5857 F   0  0  0  0  0  0  0  0  0  0  0  0
  -79.9828  -11.8399   12.4549 C   0  0  0  0  0  0  0  0  0  0  0  0
  -80.8203  -12.9188   16.3655 F   0  0  0  0  0  0  0  0  0  0  0  0
  -86.7816  -17.4651   10.9923 N   0  0  0  0  0  0  0  0  0  0  0  0
  -87.1526  -18.3443   11.2345 H   0  0  0  0  0  0  0  0  0  0  0  0
  -87.6176  -16.2477    7.0876 C   0  0  0  0  0  0  0  0  0  0  0  0
  -88.6158  -16.7151    7.9347 C   0  0  0  0  0  0  0  0  0  0  0  0
  -88.2919  -17.1061    9.2313 C   0  0  0  0  0  0  0  0  0  0  0  0
  -86.9808  -17.0519    9.7120 C   0  0  0  0  0  0  0  0  0  0  0  0
  -85.9913  -16.5854    8.8431 C   0  0  0  0  0  0  0  0  0  0  0  0
  -86.3027  -16.1778    7.5421 C   0  0  0  0  0  0  0  0  0  0  0  0
  -87.0293  -15.6621    4.9435 O   0  0  0  0  0  0  0  0  0  0  0  0
  -87.9334  -15.8333    5.7949 C   0  0  0  0  0  0  0  0  0  0  0  0
  -89.1361  -15.6795    5.4686 O   0  0  0  0  0  0  0  0  0  0  0  0
  -89.8137  -15.8069    6.1032 H   0  0  0  0  0  0  0  0  0  0  0  0
  1  9  1  0  0  0
  1 10  1  0  0  0
  2  3  1  0  0  0
  2 10  2  0  0  0
  2 21  1  0  0  0
 17 21  1  0  0  0
 17 22  1  0  0  0
 17 23  2  0  0  0
 18 19  2  0  0  0
 18 23  1  0  0  0
 19 20  1  0  0  0
 20 21  2  0  0  0
 20 24  1  0  0  0
  3 11  1  0  0  0
  3 14  2  0  0  0
  4  5  1  0  0  0
  4 11  2  0  0  0
  4 12  1  0  0  0
  5 13  2  0  0  0
 33 34  2  0  0  0
 34 35  1  0  0  0
 34 27  1  0  0  0
 27 28  1  0  0  0
 27 32  2  0  0  0
 28 29  2  0  0  0
 29 30  1  0  0  0
 30 25  1  0  0  0
 30 31  2  0  0  0
 25  6  1  0  0  0
  6  7  2  0  0  0
  6 16  1  0  0  0
  7  8  1  0  0  0
  8  9  2  0  0  0
  9 15  1  0  0  0
 13 14  1  0  0  0
 14 15  1  0  0  0
 15 16  2  0  0  0
 31 32  1  0  0  0
 35 36  1  0  0  0
 25 26  1  0  0  0
M  END
> <minimizedAffinity>
-8.02630

$$$$
