3OZT_OZZ_A_223


 36 38  0  0  0  0  0  0  0  0999 V2000
   36.7482   -2.3629  -11.0010 C   0  0  0  0  0  0  0  0  0  0  0  0
   36.1206   -2.7067   -9.8959 C   0  0  0  0  0  0  0  0  0  0  0  0
   37.2083   -2.1000  -13.4538 C   0  0  0  0  0  0  0  0  0  0  0  0
   36.9716   -0.5950  -13.5536 C   0  0  0  0  0  0  0  0  0  0  0  0
   35.4178   -0.4998  -13.5513 C   0  0  0  0  0  0  0  0  0  0  0  0
   35.1050   -1.3960  -12.4458 O   0  0  0  0  0  0  0  0  0  0  0  0
   36.1104   -2.4092  -12.3433 C   0  0  0  0  0  0  0  0  0  0  0  0
   36.8449   -2.7431  -14.6825 O   0  0  0  0  0  0  0  0  0  0  0  0
   37.4773    0.0736  -14.7393 O   0  0  0  0  0  0  0  0  0  0  0  0
   35.9382   -2.4949  -14.9214 H   0  0  0  0  0  0  0  0  0  0  0  0
   37.0577   -0.3048  -15.5277 H   0  0  0  0  0  0  0  0  0  0  0  0
   34.7938    0.7522  -13.2945 N   0  0  0  0  0  0  0  0  0  0  0  0
   35.2474    1.5316  -12.1807 C   0  0  0  0  0  0  0  0  0  0  0  0
   34.6680    2.7362  -11.8728 C   0  0  0  0  0  0  0  0  0  0  0  0
   33.6107    3.2906  -12.6974 C   0  0  0  0  0  0  0  0  0  0  0  0
   33.7359    1.2549  -14.0250 C   0  0  0  0  0  0  0  0  0  0  0  0
   33.1444    2.4323  -13.8103 C   0  0  0  0  0  0  0  0  0  0  0  0
   33.1783    4.4180  -12.4995 O   0  0  0  0  0  0  0  0  0  0  0  0
   36.7480   -2.6596   -8.5432 C   0  0  0  0  0  0  0  0  0  0  0  0
   36.5927   -3.9430   -7.9166 N   0  0  0  0  0  0  0  0  0  0  0  0
   37.2654   -4.3110   -6.8321 C   0  0  0  0  0  0  0  0  0  0  0  0
   38.0314   -3.4528   -6.2650 O   0  0  0  0  0  0  0  0  0  0  0  0
   35.9556   -4.5817   -8.3108 H   0  0  0  0  0  0  0  0  0  0  0  0
   37.1441   -5.6755   -6.2940 C   0  0  0  0  0  0  0  0  0  0  0  0
   35.9881   -6.5038   -6.5196 C   0  0  0  0  0  0  0  0  0  0  0  0
   36.0366   -7.8054   -5.9758 C   0  0  0  0  0  0  0  0  0  0  0  0
   37.0900   -8.3543   -5.2511 C   0  0  0  0  0  0  0  0  0  0  0  0
   38.2374   -7.4885   -5.1080 C   0  0  0  0  0  0  0  0  0  0  0  0
   38.1978   -6.1882   -5.6251 C   0  0  0  0  0  0  0  0  0  0  0  0
   34.9419   -6.0424   -7.1424 O   0  0  0  0  0  0  0  0  0  0  0  0
   34.8898   -8.5778   -6.1798 O   0  0  0  0  0  0  0  0  0  0  0  0
   34.9492   -5.1721   -7.4894 H   0  0  0  0  0  0  0  0  0  0  0  0
   34.1690   -8.2272   -6.6650 H   0  0  0  0  0  0  0  0  0  0  0  0
   39.3555   -8.0117   -4.3474 N   0  0  0  0  0  0  0  0  0  0  0  0
   40.4000   -7.4511   -4.3432 O   0  0  0  0  0  0  0  0  0  0  0  0
   39.1852   -9.0395   -3.7129 O   0  0  0  0  0  0  0  0  0  0  0  0
  3  4  1  0  0  0
  3  7  1  0  0  0
  3  8  1  0  0  0
  4  5  1  0  0  0
  4  9  1  0  0  0
  5  6  1  0  0  0
  5 12  1  0  0  0
  6  7  1  0  0  0
  7  1  1  0  0  0
  1  2  2  0  0  0
 12 13  1  0  0  0
 12 16  1  0  0  0
  2 19  1  0  0  0
 19 20  1  0  0  0
 20 21  1  0  0  0
 21 24  1  0  0  0
 21 22  2  0  0  0
 24 25  2  0  0  0
 24 29  1  0  0  0
 25 26  1  0  0  0
 25 30  1  0  0  0
 26 27  2  0  0  0
 26 31  1  0  0  0
 27 28  1  0  0  0
 28 29  2  0  0  0
 28 34  1  0  0  0
 34 35  2  0  0  0
 34 36  1  0  0  0
 13 14  2  0  0  0
 14 15  1  0  0  0
 15 17  1  0  0  0
 15 18  2  0  0  0
 16 17  2  0  0  0
  8 10  1  0  0  0
  9 11  1  0  0  0
 20 23  1  0  0  0
 30 32  1  0  0  0
 31 33  1  0  0  0
M  CHG 1  34   1
M  CHG 1  36  -1
M  END
> <minimizedAffinity>
-11.50756

$$$$
3OZT_OZZ_A_223


 36 38  0  0  0  0  0  0  0  0999 V2000
   36.8912   -2.2639  -10.6191 C   0  0  0  0  0  0  0  0  0  0  0  0
   36.3297   -2.5634   -9.4666 C   0  0  0  0  0  0  0  0  0  0  0  0
   37.2856   -2.2959  -13.0971 C   0  0  0  0  0  0  0  0  0  0  0  0
   37.0218   -0.8175  -13.3726 C   0  0  0  0  0  0  0  0  0  0  0  0
   35.4672   -0.7434  -13.3404 C   0  0  0  0  0  0  0  0  0  0  0  0
   35.1969   -1.5022  -12.1261 O   0  0  0  0  0  0  0  0  0  0  0  0
   36.2210   -2.4819  -11.9283 C   0  0  0  0  0  0  0  0  0  0  0  0
   36.9023   -3.0887  -14.2284 O   0  0  0  0  0  0  0  0  0  0  0  0
   37.4867   -0.2917  -14.6438 O   0  0  0  0  0  0  0  0  0  0  0  0
   35.9860   -2.8835  -14.4714 H   0  0  0  0  0  0  0  0  0  0  0  0
   37.0538   -0.7690  -15.3689 H   0  0  0  0  0  0  0  0  0  0  0  0
   34.8293    0.5221  -13.2210 N   0  0  0  0  0  0  0  0  0  0  0  0
   35.2707    1.4214  -12.1961 C   0  0  0  0  0  0  0  0  0  0  0  0
   34.6777    2.6458  -12.0207 C   0  0  0  0  0  0  0  0  0  0  0  0
   33.6177    3.0971  -12.9027 C   0  0  0  0  0  0  0  0  0  0  0  0
   33.7690    0.9322  -14.0039 C   0  0  0  0  0  0  0  0  0  0  0  0
   33.1644    2.1195  -13.9183 C   0  0  0  0  0  0  0  0  0  0  0  0
   33.1730    4.2346  -12.8280 O   0  0  0  0  0  0  0  0  0  0  0  0
   36.9898   -2.3446   -8.1467 C   0  0  0  0  0  0  0  0  0  0  0  0
   37.2399   -3.6214   -7.5375 N   0  0  0  0  0  0  0  0  0  0  0  0
   38.0233   -3.7824   -6.4771 C   0  0  0  0  0  0  0  0  0  0  0  0
   38.5175   -2.7403   -5.9160 O   0  0  0  0  0  0  0  0  0  0  0  0
   36.8089   -4.4170   -7.9255 H   0  0  0  0  0  0  0  0  0  0  0  0
   38.3273   -5.1258   -5.9586 C   0  0  0  0  0  0  0  0  0  0  0  0
   39.6295   -5.4976   -5.4694 C   0  0  0  0  0  0  0  0  0  0  0  0
   39.7556   -6.8094   -4.9635 C   0  0  0  0  0  0  0  0  0  0  0  0
   38.7454   -7.7638   -4.8944 C   0  0  0  0  0  0  0  0  0  0  0  0
   37.4538   -7.3071   -5.3523 C   0  0  0  0  0  0  0  0  0  0  0  0
   37.3164   -6.0155   -5.8743 C   0  0  0  0  0  0  0  0  0  0  0  0
   40.6373   -4.6772   -5.5501 O   0  0  0  0  0  0  0  0  0  0  0  0
   41.0364   -7.1568   -4.5256 O   0  0  0  0  0  0  0  0  0  0  0  0
   40.5124   -3.8139   -5.8921 H   0  0  0  0  0  0  0  0  0  0  0  0
   41.7309   -6.5290   -4.5636 H   0  0  0  0  0  0  0  0  0  0  0  0
   36.3719   -8.2717   -5.3129 N   0  0  0  0  0  0  0  0  0  0  0  0
   36.3824   -9.1614   -4.5295 O   0  0  0  0  0  0  0  0  0  0  0  0
   35.4545   -8.1356   -6.1051 O   0  0  0  0  0  0  0  0  0  0  0  0
  3  4  1  0  0  0
  3  7  1  0  0  0
  3  8  1  0  0  0
  4  5  1  0  0  0
  4  9  1  0  0  0
  5  6  1  0  0  0
  5 12  1  0  0  0
  6  7  1  0  0  0
  7  1  1  0  0  0
  1  2  2  0  0  0
 12 13  1  0  0  0
 12 16  1  0  0  0
  2 19  1  0  0  0
 19 20  1  0  0  0
 20 21  1  0  0  0
 21 24  1  0  0  0
 21 22  2  0  0  0
 24 25  2  0  0  0
 24 29  1  0  0  0
 25 26  1  0  0  0
 25 30  1  0  0  0
 26 27  2  0  0  0
 26 31  1  0  0  0
 27 28  1  0  0  0
 28 29  2  0  0  0
 28 34  1  0  0  0
 34 35  2  0  0  0
 34 36  1  0  0  0
 13 14  2  0  0  0
 14 15  1  0  0  0
 15 17  1  0  0  0
 15 18  2  0  0  0
 16 17  2  0  0  0
  8 10  1  0  0  0
  9 11  1  0  0  0
 20 23  1  0  0  0
 30 32  1  0  0  0
 31 33  1  0  0  0
M  CHG 1  34   1
M  CHG 1  36  -1
M  END
> <minimizedAffinity>
-10.05601

$$$$
3OZT_OZZ_A_223


 36 38  0  0  0  0  0  0  0  0999 V2000
   37.8703   -2.6241  -13.1466 C   0  0  0  0  0  0  0  0  0  0  0  0
   36.7032   -2.3548  -13.6931 C   0  0  0  0  0  0  0  0  0  0  0  0
   40.1269   -3.7180  -13.0560 C   0  0  0  0  0  0  0  0  0  0  0  0
   40.9160   -2.5306  -12.5096 C   0  0  0  0  0  0  0  0  0  0  0  0
   41.0919   -1.6365  -13.7717 C   0  0  0  0  0  0  0  0  0  0  0  0
   39.7326   -1.6583  -14.2960 O   0  0  0  0  0  0  0  0  0  0  0  0
   39.0965   -2.8909  -13.9440 C   0  0  0  0  0  0  0  0  0  0  0  0
   40.9588   -4.5198  -13.9047 O   0  0  0  0  0  0  0  0  0  0  0  0
   42.2269   -2.8121  -11.9520 O   0  0  0  0  0  0  0  0  0  0  0  0
   41.3618   -3.9588  -14.5857 H   0  0  0  0  0  0  0  0  0  0  0  0
   42.7924   -3.2027  -12.6366 H   0  0  0  0  0  0  0  0  0  0  0  0
   41.4837   -0.2780  -13.6179 N   0  0  0  0  0  0  0  0  0  0  0  0
   42.1521    0.1132  -12.4119 C   0  0  0  0  0  0  0  0  0  0  0  0
   42.5334    1.4136  -12.2000 C   0  0  0  0  0  0  0  0  0  0  0  0
   42.3224    2.4300  -13.2138 C   0  0  0  0  0  0  0  0  0  0  0  0
   41.2205    0.7136  -14.5413 C   0  0  0  0  0  0  0  0  0  0  0  0
   41.5902    1.9910  -14.4238 C   0  0  0  0  0  0  0  0  0  0  0  0
   42.7714    3.5604  -13.0804 O   0  0  0  0  0  0  0  0  0  0  0  0
   35.4673   -2.0805  -12.9038 C   0  0  0  0  0  0  0  0  0  0  0  0
   34.9666   -0.7832  -13.2647 N   0  0  0  0  0  0  0  0  0  0  0  0
   35.0838    0.2861  -12.4855 C   0  0  0  0  0  0  0  0  0  0  0  0
   35.7475    0.1792  -11.3933 O   0  0  0  0  0  0  0  0  0  0  0  0
   34.5140   -0.6816  -14.1331 H   0  0  0  0  0  0  0  0  0  0  0  0
   34.4603    1.5658  -12.8592 C   0  0  0  0  0  0  0  0  0  0  0  0
   33.6061    1.7116  -14.0092 C   0  0  0  0  0  0  0  0  0  0  0  0
   33.0468    2.9914  -14.2136 C   0  0  0  0  0  0  0  0  0  0  0  0
   33.2433    4.1114  -13.4116 C   0  0  0  0  0  0  0  0  0  0  0  0
   34.0670    3.8809  -12.2476 C   0  0  0  0  0  0  0  0  0  0  0  0
   34.6443    2.6225  -12.0408 C   0  0  0  0  0  0  0  0  0  0  0  0
   33.4174    0.7236  -14.8360 O   0  0  0  0  0  0  0  0  0  0  0  0
   32.2486    3.1159  -15.3539 O   0  0  0  0  0  0  0  0  0  0  0  0
   33.8062   -0.1115  -14.6646 H   0  0  0  0  0  0  0  0  0  0  0  0
   32.1035    2.3740  -15.9076 H   0  0  0  0  0  0  0  0  0  0  0  0
   34.3122    5.0230  -11.3885 N   0  0  0  0  0  0  0  0  0  0  0  0
   34.0619    4.9746  -10.2308 O   0  0  0  0  0  0  0  0  0  0  0  0
   34.7856    6.0276  -11.8931 O   0  0  0  0  0  0  0  0  0  0  0  0
  3  4  1  0  0  0
  3  7  1  0  0  0
  3  8  1  0  0  0
  4  5  1  0  0  0
  4  9  1  0  0  0
  5  6  1  0  0  0
  5 12  1  0  0  0
  6  7  1  0  0  0
  7  1  1  0  0  0
  1  2  2  0  0  0
 12 13  1  0  0  0
 12 16  1  0  0  0
  2 19  1  0  0  0
 19 20  1  0  0  0
 20 21  1  0  0  0
 21 24  1  0  0  0
 21 22  2  0  0  0
 24 25  2  0  0  0
 24 29  1  0  0  0
 25 26  1  0  0  0
 25 30  1  0  0  0
 26 27  2  0  0  0
 26 31  1  0  0  0
 27 28  1  0  0  0
 28 29  2  0  0  0
 28 34  1  0  0  0
 34 35  2  0  0  0
 34 36  1  0  0  0
 13 14  2  0  0  0
 14 15  1  0  0  0
 15 17  1  0  0  0
 15 18  2  0  0  0
 16 17  2  0  0  0
  8 10  1  0  0  0
  9 11  1  0  0  0
 20 23  1  0  0  0
 30 32  1  0  0  0
 31 33  1  0  0  0
M  CHG 1  34   1
M  CHG 1  36  -1
M  END
> <minimizedAffinity>
-8.75298

$$$$
3OZT_OZZ_A_223


 36 38  0  0  0  0  0  0  0  0999 V2000
   34.9500   -3.3588  -11.5083 C   0  0  0  0  0  0  0  0  0  0  0  0
   35.7894   -3.3207  -10.4948 C   0  0  0  0  0  0  0  0  0  0  0  0
   36.8735   -2.5921  -12.9258 C   0  0  0  0  0  0  0  0  0  0  0  0
   36.7682   -1.0969  -12.6347 C   0  0  0  0  0  0  0  0  0  0  0  0
   35.5725   -0.6646  -13.5328 C   0  0  0  0  0  0  0  0  0  0  0  0
   34.6177   -1.7194  -13.2183 O   0  0  0  0  0  0  0  0  0  0  0  0
   35.3167   -2.9217  -12.8813 C   0  0  0  0  0  0  0  0  0  0  0  0
   37.3734   -2.8064  -14.2522 O   0  0  0  0  0  0  0  0  0  0  0  0
   37.9207   -0.2788  -12.9682 O   0  0  0  0  0  0  0  0  0  0  0  0
   36.8309   -2.3118  -14.8861 H   0  0  0  0  0  0  0  0  0  0  0  0
   38.0984   -0.3430  -13.9196 H   0  0  0  0  0  0  0  0  0  0  0  0
   34.9393    0.5875  -13.3000 N   0  0  0  0  0  0  0  0  0  0  0  0
   33.8606    0.9831  -14.1566 C   0  0  0  0  0  0  0  0  0  0  0  0
   33.2277    2.1889  -13.9924 C   0  0  0  0  0  0  0  0  0  0  0  0
   33.5917    3.0838  -12.9100 C   0  0  0  0  0  0  0  0  0  0  0  0
   35.3267    1.4816  -12.3223 C   0  0  0  0  0  0  0  0  0  0  0  0
   34.7389    2.6550  -12.0775 C   0  0  0  0  0  0  0  0  0  0  0  0
   32.9486    4.1002  -12.6850 O   0  0  0  0  0  0  0  0  0  0  0  0
   35.4349   -3.7611   -9.1141 C   0  0  0  0  0  0  0  0  0  0  0  0
   36.4818   -3.3575   -8.2169 N   0  0  0  0  0  0  0  0  0  0  0  0
   36.9104   -4.1112   -7.2108 C   0  0  0  0  0  0  0  0  0  0  0  0
   36.4264   -5.2916   -7.0793 O   0  0  0  0  0  0  0  0  0  0  0  0
   36.9026   -2.4782   -8.3548 H   0  0  0  0  0  0  0  0  0  0  0  0
   37.9129   -3.6040   -6.2600 C   0  0  0  0  0  0  0  0  0  0  0  0
   37.8793   -2.2656   -5.7300 C   0  0  0  0  0  0  0  0  0  0  0  0
   38.8843   -1.9389   -4.7943 C   0  0  0  0  0  0  0  0  0  0  0  0
   39.8920   -2.7852   -4.3419 C   0  0  0  0  0  0  0  0  0  0  0  0
   39.8346   -4.1270   -4.8736 C   0  0  0  0  0  0  0  0  0  0  0  0
   38.8556   -4.4614   -5.8167 C   0  0  0  0  0  0  0  0  0  0  0  0
   36.9994   -1.4002   -6.1450 O   0  0  0  0  0  0  0  0  0  0  0  0
   38.8501   -0.6248   -4.3199 O   0  0  0  0  0  0  0  0  0  0  0  0
   36.3476   -1.6565   -6.7675 H   0  0  0  0  0  0  0  0  0  0  0  0
   38.1799   -0.0386   -4.6118 H   0  0  0  0  0  0  0  0  0  0  0  0
   40.8733   -5.0420   -4.4420 N   0  0  0  0  0  0  0  0  0  0  0  0
   41.4951   -5.6687   -5.2332 O   0  0  0  0  0  0  0  0  0  0  0  0
   41.0874   -5.1416   -3.2453 O   0  0  0  0  0  0  0  0  0  0  0  0
  3  4  1  0  0  0
  3  7  1  0  0  0
  3  8  1  0  0  0
  4  5  1  0  0  0
  4  9  1  0  0  0
  5  6  1  0  0  0
  5 12  1  0  0  0
  6  7  1  0  0  0
  7  1  1  0  0  0
  1  2  2  0  0  0
 12 13  1  0  0  0
 12 16  1  0  0  0
  2 19  1  0  0  0
 19 20  1  0  0  0
 20 21  1  0  0  0
 21 24  1  0  0  0
 21 22  2  0  0  0
 24 25  2  0  0  0
 24 29  1  0  0  0
 25 26  1  0  0  0
 25 30  1  0  0  0
 26 27  2  0  0  0
 26 31  1  0  0  0
 27 28  1  0  0  0
 28 29  2  0  0  0
 28 34  1  0  0  0
 34 35  2  0  0  0
 34 36  1  0  0  0
 13 14  2  0  0  0
 14 15  1  0  0  0
 15 17  1  0  0  0
 15 18  2  0  0  0
 16 17  2  0  0  0
  8 10  1  0  0  0
  9 11  1  0  0  0
 20 23  1  0  0  0
 30 32  1  0  0  0
 31 33  1  0  0  0
M  CHG 1  34   1
M  CHG 1  36  -1
M  END
> <minimizedAffinity>
-8.68214

$$$$
3OZT_OZZ_A_223


 36 38  0  0  0  0  0  0  0  0999 V2000
   35.4744   -2.9983  -10.7320 C   0  0  0  0  0  0  0  0  0  0  0  0
   36.5293   -2.8118   -9.9667 C   0  0  0  0  0  0  0  0  0  0  0  0
   36.9919   -2.4998  -12.6674 C   0  0  0  0  0  0  0  0  0  0  0  0
   36.8922   -0.9767  -12.6278 C   0  0  0  0  0  0  0  0  0  0  0  0
   35.5067   -0.7148  -13.2873 C   0  0  0  0  0  0  0  0  0  0  0  0
   34.6937   -1.6957  -12.5803 O   0  0  0  0  0  0  0  0  0  0  0  0
   35.5012   -2.8169  -12.2075 C   0  0  0  0  0  0  0  0  0  0  0  0
   37.1865   -2.9505  -14.0143 O   0  0  0  0  0  0  0  0  0  0  0  0
   37.9033   -0.2318  -13.3569 O   0  0  0  0  0  0  0  0  0  0  0  0
   36.4938   -2.5791  -14.5828 H   0  0  0  0  0  0  0  0  0  0  0  0
   37.8630   -0.4671  -14.2971 H   0  0  0  0  0  0  0  0  0  0  0  0
   34.8904    0.5584  -13.1388 N   0  0  0  0  0  0  0  0  0  0  0  0
   33.8630    0.9377  -14.0631 C   0  0  0  0  0  0  0  0  0  0  0  0
   33.2492    2.1617  -13.9810 C   0  0  0  0  0  0  0  0  0  0  0  0
   33.5803    3.0952  -12.9208 C   0  0  0  0  0  0  0  0  0  0  0  0
   35.2498    1.4862  -12.1819 C   0  0  0  0  0  0  0  0  0  0  0  0
   34.6766    2.6804  -12.0160 C   0  0  0  0  0  0  0  0  0  0  0  0
   32.9493    4.1328  -12.7707 O   0  0  0  0  0  0  0  0  0  0  0  0
   36.5162   -2.9956   -8.4862 C   0  0  0  0  0  0  0  0  0  0  0  0
   37.4624   -2.0880   -7.8992 N   0  0  0  0  0  0  0  0  0  0  0  0
   37.9994   -2.2706   -6.6982 C   0  0  0  0  0  0  0  0  0  0  0  0
   37.7260   -3.3502   -6.0620 O   0  0  0  0  0  0  0  0  0  0  0  0
   37.7261   -1.2906   -8.4129 H   0  0  0  0  0  0  0  0  0  0  0  0
   38.8831   -1.2554   -6.1028 C   0  0  0  0  0  0  0  0  0  0  0  0
   40.1627   -0.9081   -6.6645 C   0  0  0  0  0  0  0  0  0  0  0  0
   40.8771    0.1155   -6.0053 C   0  0  0  0  0  0  0  0  0  0  0  0
   40.4596    0.8121   -4.8754 C   0  0  0  0  0  0  0  0  0  0  0  0
   39.1456    0.4503   -4.3968 C   0  0  0  0  0  0  0  0  0  0  0  0
   38.4324   -0.5757   -5.0280 C   0  0  0  0  0  0  0  0  0  0  0  0
   40.6443   -1.5518   -7.6886 O   0  0  0  0  0  0  0  0  0  0  0  0
   42.1298    0.4112   -6.5497 O   0  0  0  0  0  0  0  0  0  0  0  0
   40.1383   -2.2253   -8.0989 H   0  0  0  0  0  0  0  0  0  0  0  0
   42.4299   -0.0463   -7.3103 H   0  0  0  0  0  0  0  0  0  0  0  0
   38.6730    1.1396   -3.2120 N   0  0  0  0  0  0  0  0  0  0  0  0
   37.6051    1.6541   -3.1964 O   0  0  0  0  0  0  0  0  0  0  0  0
   39.4048    1.1687   -2.2366 O   0  0  0  0  0  0  0  0  0  0  0  0
  3  4  1  0  0  0
  3  7  1  0  0  0
  3  8  1  0  0  0
  4  5  1  0  0  0
  4  9  1  0  0  0
  5  6  1  0  0  0
  5 12  1  0  0  0
  6  7  1  0  0  0
  7  1  1  0  0  0
  1  2  2  0  0  0
 12 13  1  0  0  0
 12 16  1  0  0  0
  2 19  1  0  0  0
 19 20  1  0  0  0
 20 21  1  0  0  0
 21 24  1  0  0  0
 21 22  2  0  0  0
 24 25  2  0  0  0
 24 29  1  0  0  0
 25 26  1  0  0  0
 25 30  1  0  0  0
 26 27  2  0  0  0
 26 31  1  0  0  0
 27 28  1  0  0  0
 28 29  2  0  0  0
 28 34  1  0  0  0
 34 35  2  0  0  0
 34 36  1  0  0  0
 13 14  2  0  0  0
 14 15  1  0  0  0
 15 17  1  0  0  0
 15 18  2  0  0  0
 16 17  2  0  0  0
  8 10  1  0  0  0
  9 11  1  0  0  0
 20 23  1  0  0  0
 30 32  1  0  0  0
 31 33  1  0  0  0
M  CHG 1  34   1
M  CHG 1  36  -1
M  END
> <minimizedAffinity>
-8.67105

$$$$
3OZT_OZZ_A_223


 36 38  0  0  0  0  0  0  0  0999 V2000
   37.0671   -2.5833   -9.2367 C   0  0  0  0  0  0  0  0  0  0  0  0
   36.2268   -1.8131   -9.8955 C   0  0  0  0  0  0  0  0  0  0  0  0
   38.9902   -2.3013   -7.6496 C   0  0  0  0  0  0  0  0  0  0  0  0
   39.2259   -3.7774   -7.3382 C   0  0  0  0  0  0  0  0  0  0  0  0
   38.0808   -4.0941   -6.3324 C   0  0  0  0  0  0  0  0  0  0  0  0
   36.9531   -3.4815   -7.0225 O   0  0  0  0  0  0  0  0  0  0  0  0
   37.4075   -2.3726   -7.8048 C   0  0  0  0  0  0  0  0  0  0  0  0
   39.3269   -1.4936   -6.5141 O   0  0  0  0  0  0  0  0  0  0  0  0
   40.4947   -4.1259   -6.7239 O   0  0  0  0  0  0  0  0  0  0  0  0
   38.8522   -1.8194   -5.7334 H   0  0  0  0  0  0  0  0  0  0  0  0
   40.5788   -3.6677   -5.8732 H   0  0  0  0  0  0  0  0  0  0  0  0
   37.7462   -5.4487   -6.0568 N   0  0  0  0  0  0  0  0  0  0  0  0
   38.6993   -6.2661   -5.3656 C   0  0  0  0  0  0  0  0  0  0  0  0
   38.4393   -7.5849   -5.0924 C   0  0  0  0  0  0  0  0  0  0  0  0
   37.1665   -8.1854   -5.4452 C   0  0  0  0  0  0  0  0  0  0  0  0
   36.5707   -6.0529   -6.4549 C   0  0  0  0  0  0  0  0  0  0  0  0
   36.2305   -7.3176   -6.1958 C   0  0  0  0  0  0  0  0  0  0  0  0
   36.8836   -9.3227   -5.0933 O   0  0  0  0  0  0  0  0  0  0  0  0
   35.8735   -2.0174  -11.3305 C   0  0  0  0  0  0  0  0  0  0  0  0
   35.1066   -0.8899  -11.7829 N   0  0  0  0  0  0  0  0  0  0  0  0
   35.6440    0.1581  -12.3969 C   0  0  0  0  0  0  0  0  0  0  0  0
   36.8957    0.1304  -12.6752 O   0  0  0  0  0  0  0  0  0  0  0  0
   34.1341   -0.8944  -11.6302 H   0  0  0  0  0  0  0  0  0  0  0  0
   34.8265    1.3315  -12.7449 C   0  0  0  0  0  0  0  0  0  0  0  0
   33.9602    1.3662  -13.8945 C   0  0  0  0  0  0  0  0  0  0  0  0
   33.2061    2.5460  -14.0729 C   0  0  0  0  0  0  0  0  0  0  0  0
   33.2233    3.6649  -13.2460 C   0  0  0  0  0  0  0  0  0  0  0  0
   34.0729    3.5415  -12.0843 C   0  0  0  0  0  0  0  0  0  0  0  0
   34.8415    2.3857  -11.9029 C   0  0  0  0  0  0  0  0  0  0  0  0
   33.9298    0.3793  -14.7433 O   0  0  0  0  0  0  0  0  0  0  0  0
   32.3984    2.5682  -15.2132 O   0  0  0  0  0  0  0  0  0  0  0  0
   34.4455   -0.3876  -14.5887 H   0  0  0  0  0  0  0  0  0  0  0  0
   32.3723    1.8251  -15.7834 H   0  0  0  0  0  0  0  0  0  0  0  0
   34.1348    4.6887  -11.1997 N   0  0  0  0  0  0  0  0  0  0  0  0
   33.9699    5.7855  -11.6182 O   0  0  0  0  0  0  0  0  0  0  0  0
   34.3569    4.4883  -10.0172 O   0  0  0  0  0  0  0  0  0  0  0  0
  3  4  1  0  0  0
  3  7  1  0  0  0
  3  8  1  0  0  0
  4  5  1  0  0  0
  4  9  1  0  0  0
  5  6  1  0  0  0
  5 12  1  0  0  0
  6  7  1  0  0  0
  7  1  1  0  0  0
  1  2  2  0  0  0
 12 13  1  0  0  0
 12 16  1  0  0  0
  2 19  1  0  0  0
 19 20  1  0  0  0
 20 21  1  0  0  0
 21 24  1  0  0  0
 21 22  2  0  0  0
 24 25  2  0  0  0
 24 29  1  0  0  0
 25 26  1  0  0  0
 25 30  1  0  0  0
 26 27  2  0  0  0
 26 31  1  0  0  0
 27 28  1  0  0  0
 28 29  2  0  0  0
 28 34  1  0  0  0
 34 35  2  0  0  0
 34 36  1  0  0  0
 13 14  2  0  0  0
 14 15  1  0  0  0
 15 17  1  0  0  0
 15 18  2  0  0  0
 16 17  2  0  0  0
  8 10  1  0  0  0
  9 11  1  0  0  0
 20 23  1  0  0  0
 30 32  1  0  0  0
 31 33  1  0  0  0
M  CHG 1  34   1
M  CHG 1  36  -1
M  END
> <minimizedAffinity>
-8.54456

$$$$
