4JYT_N4A_A_900


 47 51  0  0  0  0  0  0  0  0999 V2000
   16.0432   63.6970   22.9824 C   0  0  0  0  0  0  0  0  0  0  0  0
   16.5725   62.7171   23.7750 C   0  0  0  0  0  0  0  0  0  0  0  0
   15.2380   64.6878   23.5325 C   0  0  0  0  0  0  0  0  0  0  0  0
   14.9960   64.6413   24.9000 C   0  0  0  0  0  0  0  0  0  0  0  0
   15.5498   63.6222   25.6943 C   0  0  0  0  0  0  0  0  0  0  0  0
   16.3321   62.6723   25.1122 N   0  0  0  0  0  0  0  0  0  0  0  0
   16.3734   63.4632   21.7041 N   0  0  0  0  0  0  0  0  0  0  0  0
   16.0846   62.5809   21.3766 H   0  0  0  0  0  0  0  0  0  0  0  0
   17.8956   63.4296   19.7805 O   0  0  0  0  0  0  0  0  0  0  0  0
   17.1280   64.3166   20.6289 S   0  0  0  0  0  0  0  0  0  0  0  0
   18.0850   64.7287   21.6064 O   0  0  0  0  0  0  0  0  0  0  0  0
   16.7142   65.6989   19.9348 C   0  0  0  0  0  0  0  0  0  0  0  0
   17.5650   66.8116   19.8546 C   0  0  0  0  0  0  0  0  0  0  0  0
   17.1570   67.9682   19.1818 C   0  0  0  0  0  0  0  0  0  0  0  0
   15.9132   67.9936   18.5713 C   0  0  0  0  0  0  0  0  0  0  0  0
   15.4789   69.1309   17.8848 C   0  0  0  0  0  0  0  0  0  0  0  0
   14.2313   69.1291   17.2756 C   0  0  0  0  0  0  0  0  0  0  0  0
   13.4308   68.0061   17.3351 C   0  0  0  0  0  0  0  0  0  0  0  0
   13.8652   66.8774   18.0182 C   0  0  0  0  0  0  0  0  0  0  0  0
   15.0972   66.8711   18.6293 C   0  0  0  0  0  0  0  0  0  0  0  0
   15.4945   65.7222   19.2866 C   0  0  0  0  0  0  0  0  0  0  0  0
   17.3406   61.8068   23.0980 O   0  0  0  0  0  0  0  0  0  0  0  0
   18.0031   60.8362   23.7854 C   0  0  0  0  0  0  0  0  0  0  0  0
   18.7134   61.1742   24.9358 C   0  0  0  0  0  0  0  0  0  0  0  0
   19.4037   60.1803   25.6130 C   0  0  0  0  0  0  0  0  0  0  0  0
   19.3775   58.8681   25.1229 C   0  0  0  0  0  0  0  0  0  0  0  0
   18.6671   58.5370   23.9696 C   0  0  0  0  0  0  0  0  0  0  0  0
   17.9804   59.5266   23.2944 C   0  0  0  0  0  0  0  0  0  0  0  0
   20.1209   57.8331   25.8842 C   0  0  0  0  0  0  0  0  0  0  0  0
   20.9244   58.1461   26.8891 N   0  0  0  0  0  0  0  0  0  0  0  0
   19.9521   56.6419   25.5436 N   0  0  0  0  0  0  0  0  0  0  0  0
   21.0473   59.0885   27.1459 H   0  0  0  0  0  0  0  0  0  0  0  0
   21.3988   57.4363   27.3794 H   0  0  0  0  0  0  0  0  0  0  0  0
   19.3516   56.4244   24.7945 H   0  0  0  0  0  0  0  0  0  0  0  0
   15.3182   63.5798   27.0614 O   0  0  0  0  0  0  0  0  0  0  0  0
   14.1492   63.0210   27.5439 C   0  0  0  0  0  0  0  0  0  0  0  0
   14.0739   62.4394   28.8208 C   0  0  0  0  0  0  0  0  0  0  0  0
   12.8576   61.8714   29.2665 C   0  0  0  0  0  0  0  0  0  0  0  0
   11.7200   61.8749   28.4424 C   0  0  0  0  0  0  0  0  0  0  0  0
   11.8095   62.4432   27.1830 C   0  0  0  0  0  0  0  0  0  0  0  0
   12.9966   63.0064   26.7447 C   0  0  0  0  0  0  0  0  0  0  0  0
   10.3862   61.2826   28.8158 C   0  0  0  0  0  0  0  0  0  0  0  0
    9.6250   61.9288   29.6025 N   0  0  0  0  0  0  0  0  0  0  0  0
    9.9698   60.1189   28.3041 N   0  0  0  0  0  0  0  0  0  0  0  0
    9.9242   62.7860   29.9832 H   0  0  0  0  0  0  0  0  0  0  0  0
   10.5534   59.6125   27.6940 H   0  0  0  0  0  0  0  0  0  0  0  0
    9.0798   59.7689   28.5376 H   0  0  0  0  0  0  0  0  0  0  0  0
 18 19  2  0  0  0
 18 17  1  0  0  0
 19 20  1  0  0  0
 17 16  2  0  0  0
 20 21  2  0  0  0
 20 15  1  0  0  0
 16 15  1  0  0  0
 21 12  1  0  0  0
 15 14  2  0  0  0
  9 10  2  0  0  0
 12 10  1  0  0  0
 12 13  2  0  0  0
 14 13  1  0  0  0
 10 11  2  0  0  0
 10  7  1  0  0  0
  7  1  1  0  0  0
  1  3  2  0  0  0
  1  2  1  0  0  0
 22  2  1  0  0  0
 22 23  1  0  0  0
 24 23  2  0  0  0
 24 25  1  0  0  0
  3  4  1  0  0  0
  2  6  2  0  0  0
 23 28  1  0  0  0
 25 26  2  0  0  0
  4  5  2  0  0  0
  6  5  1  0  0  0
 28 27  2  0  0  0
 26 27  1  0  0  0
 26 29  1  0  0  0
  5 35  1  0  0  0
 31 29  2  0  0  0
 29 30  1  0  0  0
 35 36  1  0  0  0
 41 36  2  0  0  0
 41 40  1  0  0  0
 36 37  1  0  0  0
 40 39  2  0  0  0
 37 38  2  0  0  0
 39 38  1  0  0  0
 39 42  1  0  0  0
 43 42  2  0  0  0
 42 44  1  0  0  0
  7  8  1  0  0  0
 30 32  1  0  0  0
 30 33  1  0  0  0
 31 34  1  0  0  0
 43 45  1  0  0  0
 44 46  1  0  0  0
 44 47  1  0  0  0
M  END
> <minimizedAffinity>
-12.09140

$$$$
4JYT_N4A_A_900


 47 51  0  0  0  0  0  0  0  0999 V2000
   16.2902   64.0407   22.6657 C   0  0  0  0  0  0  0  0  0  0  0  0
   17.0064   63.4284   23.6560 C   0  0  0  0  0  0  0  0  0  0  0  0
   15.1412   64.7610   22.9716 C   0  0  0  0  0  0  0  0  0  0  0  0
   14.7557   64.8311   24.3046 C   0  0  0  0  0  0  0  0  0  0  0  0
   15.5076   64.1912   25.3055 C   0  0  0  0  0  0  0  0  0  0  0  0
   16.6258   63.4962   24.9594 N   0  0  0  0  0  0  0  0  0  0  0  0
   16.8389   63.7539   21.4764 N   0  0  0  0  0  0  0  0  0  0  0  0
   17.2706   62.8698   21.4435 H   0  0  0  0  0  0  0  0  0  0  0  0
   15.8362   64.1402   19.2710 O   0  0  0  0  0  0  0  0  0  0  0  0
   16.9287   64.5477   20.1290 S   0  0  0  0  0  0  0  0  0  0  0  0
   18.0037   63.7141   19.6926 O   0  0  0  0  0  0  0  0  0  0  0  0
   17.4827   66.0212   19.8364 C   0  0  0  0  0  0  0  0  0  0  0  0
   17.1316   67.1469   20.5966 C   0  0  0  0  0  0  0  0  0  0  0  0
   17.7000   68.3946   20.3188 C   0  0  0  0  0  0  0  0  0  0  0  0
   18.6349   68.5017   19.3015 C   0  0  0  0  0  0  0  0  0  0  0  0
   19.2269   69.7322   19.0039 C   0  0  0  0  0  0  0  0  0  0  0  0
   20.1661   69.8123   17.9845 C   0  0  0  0  0  0  0  0  0  0  0  0
   20.5237   68.6809   17.2789 C   0  0  0  0  0  0  0  0  0  0  0  0
   19.9334   67.4595   17.5771 C   0  0  0  0  0  0  0  0  0  0  0  0
   18.9983   67.3709   18.5816 C   0  0  0  0  0  0  0  0  0  0  0  0
   18.4465   66.1333   18.8531 C   0  0  0  0  0  0  0  0  0  0  0  0
   18.1104   62.7516   23.2088 O   0  0  0  0  0  0  0  0  0  0  0  0
   18.4968   61.6026   23.8283 C   0  0  0  0  0  0  0  0  0  0  0  0
   19.2928   61.6736   24.9700 C   0  0  0  0  0  0  0  0  0  0  0  0
   19.6994   60.4951   25.5774 C   0  0  0  0  0  0  0  0  0  0  0  0
   19.3090   59.2672   25.0272 C   0  0  0  0  0  0  0  0  0  0  0  0
   18.5148   59.2030   23.8829 C   0  0  0  0  0  0  0  0  0  0  0  0
   18.1106   60.3763   23.2772 C   0  0  0  0  0  0  0  0  0  0  0  0
   19.7571   58.0304   25.7150 C   0  0  0  0  0  0  0  0  0  0  0  0
   20.6200   58.0615   26.7187 N   0  0  0  0  0  0  0  0  0  0  0  0
   19.2782   56.9475   25.3128 N   0  0  0  0  0  0  0  0  0  0  0  0
   20.9886   58.9217   27.0244 H   0  0  0  0  0  0  0  0  0  0  0  0
   20.8930   57.2246   27.1594 H   0  0  0  0  0  0  0  0  0  0  0  0
   18.6376   56.9400   24.5653 H   0  0  0  0  0  0  0  0  0  0  0  0
   15.1305   64.2685   26.6382 O   0  0  0  0  0  0  0  0  0  0  0  0
   14.0262   63.5651   27.0826 C   0  0  0  0  0  0  0  0  0  0  0  0
   12.7245   63.8745   26.6534 C   0  0  0  0  0  0  0  0  0  0  0  0
   11.6250   63.1323   27.1440 C   0  0  0  0  0  0  0  0  0  0  0  0
   11.8176   62.0890   28.0647 C   0  0  0  0  0  0  0  0  0  0  0  0
   13.1042   61.7996   28.4866 C   0  0  0  0  0  0  0  0  0  0  0  0
   14.1846   62.5195   28.0040 C   0  0  0  0  0  0  0  0  0  0  0  0
   10.7148   61.2519   28.6585 C   0  0  0  0  0  0  0  0  0  0  0  0
   10.9259   60.6456   29.7557 N   0  0  0  0  0  0  0  0  0  0  0  0
    9.5107   61.1704   28.0816 N   0  0  0  0  0  0  0  0  0  0  0  0
   11.8094   60.7007   30.1865 H   0  0  0  0  0  0  0  0  0  0  0  0
    9.3394   61.6371   27.2319 H   0  0  0  0  0  0  0  0  0  0  0  0
    8.7959   60.6436   28.5067 H   0  0  0  0  0  0  0  0  0  0  0  0
 18 19  2  0  0  0
 18 17  1  0  0  0
 19 20  1  0  0  0
 17 16  2  0  0  0
 20 21  2  0  0  0
 20 15  1  0  0  0
 16 15  1  0  0  0
 21 12  1  0  0  0
 15 14  2  0  0  0
  9 10  2  0  0  0
 12 10  1  0  0  0
 12 13  2  0  0  0
 14 13  1  0  0  0
 10 11  2  0  0  0
 10  7  1  0  0  0
  7  1  1  0  0  0
  1  3  2  0  0  0
  1  2  1  0  0  0
 22  2  1  0  0  0
 22 23  1  0  0  0
 24 23  2  0  0  0
 24 25  1  0  0  0
  3  4  1  0  0  0
  2  6  2  0  0  0
 23 28  1  0  0  0
 25 26  2  0  0  0
  4  5  2  0  0  0
  6  5  1  0  0  0
 28 27  2  0  0  0
 26 27  1  0  0  0
 26 29  1  0  0  0
  5 35  1  0  0  0
 31 29  2  0  0  0
 29 30  1  0  0  0
 35 36  1  0  0  0
 41 36  2  0  0  0
 41 40  1  0  0  0
 36 37  1  0  0  0
 40 39  2  0  0  0
 37 38  2  0  0  0
 39 38  1  0  0  0
 39 42  1  0  0  0
 43 42  2  0  0  0
 42 44  1  0  0  0
  7  8  1  0  0  0
 30 32  1  0  0  0
 30 33  1  0  0  0
 31 34  1  0  0  0
 43 45  1  0  0  0
 44 46  1  0  0  0
 44 47  1  0  0  0
M  END
> <minimizedAffinity>
-11.88297

$$$$
4JYT_N4A_A_900


 47 51  0  0  0  0  0  0  0  0999 V2000
   14.4953   64.1954   24.4872 C   0  0  0  0  0  0  0  0  0  0  0  0
   15.3130   64.7475   23.5410 C   0  0  0  0  0  0  0  0  0  0  0  0
   14.6789   62.8786   24.8932 C   0  0  0  0  0  0  0  0  0  0  0  0
   15.7111   62.1571   24.3061 C   0  0  0  0  0  0  0  0  0  0  0  0
   16.5378   62.7461   23.3334 C   0  0  0  0  0  0  0  0  0  0  0  0
   16.3206   64.0388   22.9661 N   0  0  0  0  0  0  0  0  0  0  0  0
   13.5478   65.0804   24.8287 N   0  0  0  0  0  0  0  0  0  0  0  0
   13.4298   65.8054   24.1732 H   0  0  0  0  0  0  0  0  0  0  0  0
   11.3970   65.9063   25.6718 O   0  0  0  0  0  0  0  0  0  0  0  0
   12.5915   65.1888   26.0646 S   0  0  0  0  0  0  0  0  0  0  0  0
   13.4096   66.2166   26.6260 O   0  0  0  0  0  0  0  0  0  0  0  0
   12.3845   64.1887   27.2978 C   0  0  0  0  0  0  0  0  0  0  0  0
   12.9550   64.3901   28.5637 C   0  0  0  0  0  0  0  0  0  0  0  0
   12.6838   63.5043   29.6119 C   0  0  0  0  0  0  0  0  0  0  0  0
   11.8233   62.4401   29.3940 C   0  0  0  0  0  0  0  0  0  0  0  0
   11.5259   61.5416   30.4222 C   0  0  0  0  0  0  0  0  0  0  0  0
   10.6553   60.4873   30.1808 C   0  0  0  0  0  0  0  0  0  0  0  0
   10.0759   60.3358   28.9370 C   0  0  0  0  0  0  0  0  0  0  0  0
   10.3737   61.2304   27.9172 C   0  0  0  0  0  0  0  0  0  0  0  0
   11.2387   62.2749   28.1449 C   0  0  0  0  0  0  0  0  0  0  0  0
   11.4962   63.1485   27.1055 C   0  0  0  0  0  0  0  0  0  0  0  0
   15.0130   66.0489   23.2357 O   0  0  0  0  0  0  0  0  0  0  0  0
   14.5327   66.3609   22.0007 C   0  0  0  0  0  0  0  0  0  0  0  0
   15.2548   65.9855   20.8693 C   0  0  0  0  0  0  0  0  0  0  0  0
   14.7666   66.3306   19.6181 C   0  0  0  0  0  0  0  0  0  0  0  0
   13.5692   67.0516   19.5216 C   0  0  0  0  0  0  0  0  0  0  0  0
   12.8529   67.4266   20.6577 C   0  0  0  0  0  0  0  0  0  0  0  0
   13.3393   67.0841   21.9038 C   0  0  0  0  0  0  0  0  0  0  0  0
   13.0768   67.3910   18.1630 C   0  0  0  0  0  0  0  0  0  0  0  0
   13.8408   67.2614   17.0894 N   0  0  0  0  0  0  0  0  0  0  0  0
   11.8990   67.8000   18.0677 N   0  0  0  0  0  0  0  0  0  0  0  0
   14.7663   66.9381   17.1799 H   0  0  0  0  0  0  0  0  0  0  0  0
   13.4834   67.4883   16.2005 H   0  0  0  0  0  0  0  0  0  0  0  0
   11.3428   67.8913   18.8749 H   0  0  0  0  0  0  0  0  0  0  0  0
   17.5756   62.0311   22.7535 O   0  0  0  0  0  0  0  0  0  0  0  0
   18.1632   60.9883   23.4455 C   0  0  0  0  0  0  0  0  0  0  0  0
   18.0829   59.6589   22.9975 C   0  0  0  0  0  0  0  0  0  0  0  0
   18.6923   58.6246   23.7454 C   0  0  0  0  0  0  0  0  0  0  0  0
   19.3744   58.9095   24.9400 C   0  0  0  0  0  0  0  0  0  0  0  0
   19.4390   60.2223   25.3753 C   0  0  0  0  0  0  0  0  0  0  0  0
   18.8493   61.2393   24.6429 C   0  0  0  0  0  0  0  0  0  0  0  0
   20.0407   57.8808   25.8158 C   0  0  0  0  0  0  0  0  0  0  0  0
   19.8592   56.6482   25.5638 N   0  0  0  0  0  0  0  0  0  0  0  0
   20.8505   58.2359   26.8196 N   0  0  0  0  0  0  0  0  0  0  0  0
   19.2647   56.3788   24.8267 H   0  0  0  0  0  0  0  0  0  0  0  0
   20.9963   59.1884   27.0211 H   0  0  0  0  0  0  0  0  0  0  0  0
   21.3008   57.5446   27.3568 H   0  0  0  0  0  0  0  0  0  0  0  0
 18 19  2  0  0  0
 18 17  1  0  0  0
 19 20  1  0  0  0
 17 16  2  0  0  0
 20 21  2  0  0  0
 20 15  1  0  0  0
 16 15  1  0  0  0
 21 12  1  0  0  0
 15 14  2  0  0  0
  9 10  2  0  0  0
 12 10  1  0  0  0
 12 13  2  0  0  0
 14 13  1  0  0  0
 10 11  2  0  0  0
 10  7  1  0  0  0
  7  1  1  0  0  0
  1  3  2  0  0  0
  1  2  1  0  0  0
 22  2  1  0  0  0
 22 23  1  0  0  0
 24 23  2  0  0  0
 24 25  1  0  0  0
  3  4  1  0  0  0
  2  6  2  0  0  0
 23 28  1  0  0  0
 25 26  2  0  0  0
  4  5  2  0  0  0
  6  5  1  0  0  0
 28 27  2  0  0  0
 26 27  1  0  0  0
 26 29  1  0  0  0
  5 35  1  0  0  0
 31 29  2  0  0  0
 29 30  1  0  0  0
 35 36  1  0  0  0
 41 36  2  0  0  0
 41 40  1  0  0  0
 36 37  1  0  0  0
 40 39  2  0  0  0
 37 38  2  0  0  0
 39 38  1  0  0  0
 39 42  1  0  0  0
 43 42  2  0  0  0
 42 44  1  0  0  0
  7  8  1  0  0  0
 30 32  1  0  0  0
 30 33  1  0  0  0
 31 34  1  0  0  0
 43 45  1  0  0  0
 44 46  1  0  0  0
 44 47  1  0  0  0
M  END
> <minimizedAffinity>
-11.74205

$$$$
4JYT_N4A_A_900


 47 51  0  0  0  0  0  0  0  0999 V2000
   16.8468   63.9569   24.2558 C   0  0  0  0  0  0  0  0  0  0  0  0
   17.9267   63.5396   23.5291 C   0  0  0  0  0  0  0  0  0  0  0  0
   15.7344   64.4933   23.6173 C   0  0  0  0  0  0  0  0  0  0  0  0
   15.7653   64.5875   22.2313 C   0  0  0  0  0  0  0  0  0  0  0  0
   16.8884   64.1534   21.5057 C   0  0  0  0  0  0  0  0  0  0  0  0
   17.9555   63.6351   22.1733 N   0  0  0  0  0  0  0  0  0  0  0  0
   17.1097   63.8202   25.5634 N   0  0  0  0  0  0  0  0  0  0  0  0
   18.0625   63.9256   25.7878 H   0  0  0  0  0  0  0  0  0  0  0  0
   16.9853   63.6893   28.0100 O   0  0  0  0  0  0  0  0  0  0  0  0
   16.2005   63.5259   26.8045 S   0  0  0  0  0  0  0  0  0  0  0  0
   16.2893   62.1220   26.5551 O   0  0  0  0  0  0  0  0  0  0  0  0
   14.6279   63.7503   27.0059 C   0  0  0  0  0  0  0  0  0  0  0  0
   13.9875   64.9814   26.7993 C   0  0  0  0  0  0  0  0  0  0  0  0
   12.5998   65.0901   26.9384 C   0  0  0  0  0  0  0  0  0  0  0  0
   11.8604   63.9619   27.2561 C   0  0  0  0  0  0  0  0  0  0  0  0
   10.4717   64.0353   27.3949 C   0  0  0  0  0  0  0  0  0  0  0  0
    9.7525   62.8894   27.7068 C   0  0  0  0  0  0  0  0  0  0  0  0
   10.4033   61.6823   27.8647 C   0  0  0  0  0  0  0  0  0  0  0  0
   11.7835   61.6127   27.7262 C   0  0  0  0  0  0  0  0  0  0  0  0
   12.5054   62.7431   27.4224 C   0  0  0  0  0  0  0  0  0  0  0  0
   13.8751   62.6253   27.2809 C   0  0  0  0  0  0  0  0  0  0  0  0
   18.9501   63.0380   24.2893 O   0  0  0  0  0  0  0  0  0  0  0  0
   19.0350   61.6973   24.5102 C   0  0  0  0  0  0  0  0  0  0  0  0
   19.6588   61.2311   25.6659 C   0  0  0  0  0  0  0  0  0  0  0  0
   19.7598   59.8628   25.8671 C   0  0  0  0  0  0  0  0  0  0  0  0
   19.2422   58.9858   24.9049 C   0  0  0  0  0  0  0  0  0  0  0  0
   18.6216   59.4588   23.7492 C   0  0  0  0  0  0  0  0  0  0  0  0
   18.5217   60.8213   23.5481 C   0  0  0  0  0  0  0  0  0  0  0  0
   19.3618   57.5292   25.1648 C   0  0  0  0  0  0  0  0  0  0  0  0
   20.2830   57.0372   25.9786 N   0  0  0  0  0  0  0  0  0  0  0  0
   18.5467   56.7770   24.5874 N   0  0  0  0  0  0  0  0  0  0  0  0
   20.9181   57.6418   26.4262 H   0  0  0  0  0  0  0  0  0  0  0  0
   20.3330   56.0666   26.1361 H   0  0  0  0  0  0  0  0  0  0  0  0
   17.8672   57.1574   23.9851 H   0  0  0  0  0  0  0  0  0  0  0  0
   16.9172   64.2367   20.1212 O   0  0  0  0  0  0  0  0  0  0  0  0
   16.3326   65.3160   19.4848 C   0  0  0  0  0  0  0  0  0  0  0  0
   16.9433   66.5810   19.4520 C   0  0  0  0  0  0  0  0  0  0  0  0
   16.3013   67.6574   18.7965 C   0  0  0  0  0  0  0  0  0  0  0  0
   15.0513   67.4791   18.1807 C   0  0  0  0  0  0  0  0  0  0  0  0
   14.4559   66.2300   18.2275 C   0  0  0  0  0  0  0  0  0  0  0  0
   15.0838   65.1714   18.8626 C   0  0  0  0  0  0  0  0  0  0  0  0
   14.2792   68.5622   17.4735 C   0  0  0  0  0  0  0  0  0  0  0  0
   14.5507   69.7776   17.7285 N   0  0  0  0  0  0  0  0  0  0  0  0
   13.3504   68.2732   16.5553 N   0  0  0  0  0  0  0  0  0  0  0  0
   15.2330   69.9984   18.4030 H   0  0  0  0  0  0  0  0  0  0  0  0
   13.1344   67.3344   16.3521 H   0  0  0  0  0  0  0  0  0  0  0  0
   12.8828   68.9992   16.0826 H   0  0  0  0  0  0  0  0  0  0  0  0
 18 19  2  0  0  0
 18 17  1  0  0  0
 19 20  1  0  0  0
 17 16  2  0  0  0
 20 21  2  0  0  0
 20 15  1  0  0  0
 16 15  1  0  0  0
 21 12  1  0  0  0
 15 14  2  0  0  0
  9 10  2  0  0  0
 12 10  1  0  0  0
 12 13  2  0  0  0
 14 13  1  0  0  0
 10 11  2  0  0  0
 10  7  1  0  0  0
  7  1  1  0  0  0
  1  3  2  0  0  0
  1  2  1  0  0  0
 22  2  1  0  0  0
 22 23  1  0  0  0
 24 23  2  0  0  0
 24 25  1  0  0  0
  3  4  1  0  0  0
  2  6  2  0  0  0
 23 28  1  0  0  0
 25 26  2  0  0  0
  4  5  2  0  0  0
  6  5  1  0  0  0
 28 27  2  0  0  0
 26 27  1  0  0  0
 26 29  1  0  0  0
  5 35  1  0  0  0
 31 29  2  0  0  0
 29 30  1  0  0  0
 35 36  1  0  0  0
 41 36  2  0  0  0
 41 40  1  0  0  0
 36 37  1  0  0  0
 40 39  2  0  0  0
 37 38  2  0  0  0
 39 38  1  0  0  0
 39 42  1  0  0  0
 43 42  2  0  0  0
 42 44  1  0  0  0
  7  8  1  0  0  0
 30 32  1  0  0  0
 30 33  1  0  0  0
 31 34  1  0  0  0
 43 45  1  0  0  0
 44 46  1  0  0  0
 44 47  1  0  0  0
M  END
> <minimizedAffinity>
-11.56417

$$$$
4JYT_N4A_A_900


 47 51  0  0  0  0  0  0  0  0999 V2000
   14.8704   64.5085   25.1186 C   0  0  0  0  0  0  0  0  0  0  0  0
   16.1731   64.7812   25.4303 C   0  0  0  0  0  0  0  0  0  0  0  0
   14.5620   63.5315   24.1789 C   0  0  0  0  0  0  0  0  0  0  0  0
   15.6161   62.8547   23.5777 C   0  0  0  0  0  0  0  0  0  0  0  0
   16.9480   63.1542   23.9132 C   0  0  0  0  0  0  0  0  0  0  0  0
   17.2028   64.1194   24.8388 N   0  0  0  0  0  0  0  0  0  0  0  0
   14.0671   65.3499   25.7852 N   0  0  0  0  0  0  0  0  0  0  0  0
   14.3688   66.2867   25.7607 H   0  0  0  0  0  0  0  0  0  0  0  0
   11.6191   65.5085   25.7623 O   0  0  0  0  0  0  0  0  0  0  0  0
   12.7434   65.1370   26.5952 S   0  0  0  0  0  0  0  0  0  0  0  0
   12.9922   66.3284   27.3433 O   0  0  0  0  0  0  0  0  0  0  0  0
   12.3944   64.0695   27.7364 C   0  0  0  0  0  0  0  0  0  0  0  0
   12.7715   64.2189   29.0795 C   0  0  0  0  0  0  0  0  0  0  0  0
   12.3817   63.2735   30.0341 C   0  0  0  0  0  0  0  0  0  0  0  0
   11.5955   62.2012   29.6437 C   0  0  0  0  0  0  0  0  0  0  0  0
   11.1831   61.2434   30.5742 C   0  0  0  0  0  0  0  0  0  0  0  0
   10.3900   60.1820   30.1596 C   0  0  0  0  0  0  0  0  0  0  0  0
    9.9992   60.0809   28.8394 C   0  0  0  0  0  0  0  0  0  0  0  0
   10.4110   61.0343   27.9171 C   0  0  0  0  0  0  0  0  0  0  0  0
   11.2009   62.0867   28.3170 C   0  0  0  0  0  0  0  0  0  0  0  0
   11.5762   63.0191   27.3685 C   0  0  0  0  0  0  0  0  0  0  0  0
   16.3272   65.7688   26.3672 O   0  0  0  0  0  0  0  0  0  0  0  0
   16.8506   65.4683   27.5875 C   0  0  0  0  0  0  0  0  0  0  0  0
   18.0016   66.1242   28.0202 C   0  0  0  0  0  0  0  0  0  0  0  0
   18.5381   65.7914   29.2548 C   0  0  0  0  0  0  0  0  0  0  0  0
   17.9182   64.8031   30.0306 C   0  0  0  0  0  0  0  0  0  0  0  0
   16.7682   64.1486   29.5907 C   0  0  0  0  0  0  0  0  0  0  0  0
   16.2343   64.4789   28.3608 C   0  0  0  0  0  0  0  0  0  0  0  0
   18.5190   64.4853   31.3503 C   0  0  0  0  0  0  0  0  0  0  0  0
   19.5976   65.1103   31.7967 N   0  0  0  0  0  0  0  0  0  0  0  0
   17.9583   63.6025   32.0357 N   0  0  0  0  0  0  0  0  0  0  0  0
   20.0282   65.8033   31.2458 H   0  0  0  0  0  0  0  0  0  0  0  0
   19.9688   64.8820   32.6794 H   0  0  0  0  0  0  0  0  0  0  0  0
   17.1570   63.1463   31.6906 H   0  0  0  0  0  0  0  0  0  0  0  0
   18.0017   62.4725   23.3220 O   0  0  0  0  0  0  0  0  0  0  0  0
   18.4870   61.3169   23.9057 C   0  0  0  0  0  0  0  0  0  0  0  0
   18.2833   60.0508   23.3314 C   0  0  0  0  0  0  0  0  0  0  0  0
   18.7909   58.8961   23.9714 C   0  0  0  0  0  0  0  0  0  0  0  0
   19.4938   58.9984   25.1834 C   0  0  0  0  0  0  0  0  0  0  0  0
   19.6804   60.2508   25.7436 C   0  0  0  0  0  0  0  0  0  0  0  0
   19.1907   61.3849   25.1172 C   0  0  0  0  0  0  0  0  0  0  0  0
   20.0583   57.8315   25.9509 C   0  0  0  0  0  0  0  0  0  0  0  0
   20.7199   58.0563   27.0129 N   0  0  0  0  0  0  0  0  0  0  0  0
   19.8409   56.5694   25.5647 N   0  0  0  0  0  0  0  0  0  0  0  0
   20.8842   58.9824   27.3037 H   0  0  0  0  0  0  0  0  0  0  0  0
   19.3294   56.3871   24.7435 H   0  0  0  0  0  0  0  0  0  0  0  0
   20.1923   55.8228   26.1017 H   0  0  0  0  0  0  0  0  0  0  0  0
 18 19  2  0  0  0
 18 17  1  0  0  0
 19 20  1  0  0  0
 17 16  2  0  0  0
 20 21  2  0  0  0
 20 15  1  0  0  0
 16 15  1  0  0  0
 21 12  1  0  0  0
 15 14  2  0  0  0
  9 10  2  0  0  0
 12 10  1  0  0  0
 12 13  2  0  0  0
 14 13  1  0  0  0
 10 11  2  0  0  0
 10  7  1  0  0  0
  7  1  1  0  0  0
  1  3  2  0  0  0
  1  2  1  0  0  0
 22  2  1  0  0  0
 22 23  1  0  0  0
 24 23  2  0  0  0
 24 25  1  0  0  0
  3  4  1  0  0  0
  2  6  2  0  0  0
 23 28  1  0  0  0
 25 26  2  0  0  0
  4  5  2  0  0  0
  6  5  1  0  0  0
 28 27  2  0  0  0
 26 27  1  0  0  0
 26 29  1  0  0  0
  5 35  1  0  0  0
 31 29  2  0  0  0
 29 30  1  0  0  0
 35 36  1  0  0  0
 41 36  2  0  0  0
 41 40  1  0  0  0
 36 37  1  0  0  0
 40 39  2  0  0  0
 37 38  2  0  0  0
 39 38  1  0  0  0
 39 42  1  0  0  0
 43 42  2  0  0  0
 42 44  1  0  0  0
  7  8  1  0  0  0
 30 32  1  0  0  0
 30 33  1  0  0  0
 31 34  1  0  0  0
 43 45  1  0  0  0
 44 46  1  0  0  0
 44 47  1  0  0  0
M  END
> <minimizedAffinity>
-11.34183

$$$$
4JYT_N4A_A_900


 47 51  0  0  0  0  0  0  0  0999 V2000
   16.4249   63.7623   22.4670 C   0  0  0  0  0  0  0  0  0  0  0  0
   16.6130   62.5975   23.1572 C   0  0  0  0  0  0  0  0  0  0  0  0
   15.4246   64.6503   22.8457 C   0  0  0  0  0  0  0  0  0  0  0  0
   14.6349   64.3100   23.9371 C   0  0  0  0  0  0  0  0  0  0  0  0
   14.8460   63.1051   24.6300 C   0  0  0  0  0  0  0  0  0  0  0  0
   15.8373   62.2655   24.2231 N   0  0  0  0  0  0  0  0  0  0  0  0
   17.2685   63.8046   21.4257 N   0  0  0  0  0  0  0  0  0  0  0  0
   18.0522   63.2176   21.5282 H   0  0  0  0  0  0  0  0  0  0  0  0
   17.3131   63.6662   18.9768 O   0  0  0  0  0  0  0  0  0  0  0  0
   17.2536   64.6035   20.0784 S   0  0  0  0  0  0  0  0  0  0  0  0
   18.6233   64.9663   20.2615 O   0  0  0  0  0  0  0  0  0  0  0  0
   16.5627   66.0022   19.7177 C   0  0  0  0  0  0  0  0  0  0  0  0
   17.1113   67.2483   20.0563 C   0  0  0  0  0  0  0  0  0  0  0  0
   16.4809   68.4318   19.6578 C   0  0  0  0  0  0  0  0  0  0  0  0
   15.3222   68.3603   18.9008 C   0  0  0  0  0  0  0  0  0  0  0  0
   14.6723   69.5239   18.4803 C   0  0  0  0  0  0  0  0  0  0  0  0
   13.5168   69.4259   17.7170 C   0  0  0  0  0  0  0  0  0  0  0  0
   13.0209   68.1871   17.3633 C   0  0  0  0  0  0  0  0  0  0  0  0
   13.6690   67.0325   17.7828 C   0  0  0  0  0  0  0  0  0  0  0  0
   14.8114   67.1191   18.5436 C   0  0  0  0  0  0  0  0  0  0  0  0
   15.4309   65.9450   18.9278 C   0  0  0  0  0  0  0  0  0  0  0  0
   17.6295   61.8188   22.6701 O   0  0  0  0  0  0  0  0  0  0  0  0
   18.1739   60.8483   23.4545 C   0  0  0  0  0  0  0  0  0  0  0  0
   18.8692   61.2085   24.6074 C   0  0  0  0  0  0  0  0  0  0  0  0
   19.4394   60.2115   25.3846 C   0  0  0  0  0  0  0  0  0  0  0  0
   19.3107   58.8734   24.9902 C   0  0  0  0  0  0  0  0  0  0  0  0
   18.6161   58.5199   23.8339 C   0  0  0  0  0  0  0  0  0  0  0  0
   18.0490   59.5124   23.0592 C   0  0  0  0  0  0  0  0  0  0  0  0
   19.9269   57.8374   25.8565 C   0  0  0  0  0  0  0  0  0  0  0  0
   20.8192   58.1428   26.7858 N   0  0  0  0  0  0  0  0  0  0  0  0
   19.5622   56.6543   25.6802 N   0  0  0  0  0  0  0  0  0  0  0  0
   21.0967   59.0788   26.9131 H   0  0  0  0  0  0  0  0  0  0  0  0
   21.2052   57.4340   27.3495 H   0  0  0  0  0  0  0  0  0  0  0  0
   18.8979   56.4424   24.9853 H   0  0  0  0  0  0  0  0  0  0  0  0
   14.0658   62.7681   25.7264 O   0  0  0  0  0  0  0  0  0  0  0  0
   14.5541   62.9653   27.0048 C   0  0  0  0  0  0  0  0  0  0  0  0
   13.9663   62.3589   28.1278 C   0  0  0  0  0  0  0  0  0  0  0  0
   14.4961   62.5990   29.4171 C   0  0  0  0  0  0  0  0  0  0  0  0
   15.6035   63.4455   29.5912 C   0  0  0  0  0  0  0  0  0  0  0  0
   16.1683   64.0439   28.4777 C   0  0  0  0  0  0  0  0  0  0  0  0
   15.6570   63.8067   27.2125 C   0  0  0  0  0  0  0  0  0  0  0  0
   16.2307   63.7783   30.9199 C   0  0  0  0  0  0  0  0  0  0  0  0
   17.2174   63.0864   31.3246 N   0  0  0  0  0  0  0  0  0  0  0  0
   15.8020   64.8089   31.6570 N   0  0  0  0  0  0  0  0  0  0  0  0
   17.5388   62.3264   30.7877 H   0  0  0  0  0  0  0  0  0  0  0  0
   15.0385   65.3496   31.3504 H   0  0  0  0  0  0  0  0  0  0  0  0
   16.2500   65.0268   32.5062 H   0  0  0  0  0  0  0  0  0  0  0  0
 18 19  2  0  0  0
 18 17  1  0  0  0
 19 20  1  0  0  0
 17 16  2  0  0  0
 20 21  2  0  0  0
 20 15  1  0  0  0
 16 15  1  0  0  0
 21 12  1  0  0  0
 15 14  2  0  0  0
  9 10  2  0  0  0
 12 10  1  0  0  0
 12 13  2  0  0  0
 14 13  1  0  0  0
 10 11  2  0  0  0
 10  7  1  0  0  0
  7  1  1  0  0  0
  1  3  2  0  0  0
  1  2  1  0  0  0
 22  2  1  0  0  0
 22 23  1  0  0  0
 24 23  2  0  0  0
 24 25  1  0  0  0
  3  4  1  0  0  0
  2  6  2  0  0  0
 23 28  1  0  0  0
 25 26  2  0  0  0
  4  5  2  0  0  0
  6  5  1  0  0  0
 28 27  2  0  0  0
 26 27  1  0  0  0
 26 29  1  0  0  0
  5 35  1  0  0  0
 31 29  2  0  0  0
 29 30  1  0  0  0
 35 36  1  0  0  0
 41 36  2  0  0  0
 41 40  1  0  0  0
 36 37  1  0  0  0
 40 39  2  0  0  0
 37 38  2  0  0  0
 39 38  1  0  0  0
 39 42  1  0  0  0
 43 42  2  0  0  0
 42 44  1  0  0  0
  7  8  1  0  0  0
 30 32  1  0  0  0
 30 33  1  0  0  0
 31 34  1  0  0  0
 43 45  1  0  0  0
 44 46  1  0  0  0
 44 47  1  0  0  0
M  END
> <minimizedAffinity>
-10.99238

$$$$
4JYT_N4A_A_900


 47 51  0  0  0  0  0  0  0  0999 V2000
   13.8153   65.3049   24.1966 C   0  0  0  0  0  0  0  0  0  0  0  0
   13.8654   64.9491   25.5154 C   0  0  0  0  0  0  0  0  0  0  0  0
   14.9541   65.2253   23.4032 C   0  0  0  0  0  0  0  0  0  0  0  0
   16.1277   64.7773   23.9968 C   0  0  0  0  0  0  0  0  0  0  0  0
   16.1550   64.4189   25.3560 C   0  0  0  0  0  0  0  0  0  0  0  0
   15.0155   64.5134   26.0947 N   0  0  0  0  0  0  0  0  0  0  0  0
   12.5901   65.7651   23.9053 N   0  0  0  0  0  0  0  0  0  0  0  0
   11.8645   65.1626   24.1875 H   0  0  0  0  0  0  0  0  0  0  0  0
   12.3258   68.1976   24.0828 O   0  0  0  0  0  0  0  0  0  0  0  0
   12.0852   67.0720   23.2047 S   0  0  0  0  0  0  0  0  0  0  0  0
   10.7311   66.7236   23.4982 O   0  0  0  0  0  0  0  0  0  0  0  0
   12.0240   67.4497   21.6499 C   0  0  0  0  0  0  0  0  0  0  0  0
   10.8786   67.9596   21.0203 C   0  0  0  0  0  0  0  0  0  0  0  0
   10.9148   68.3221   19.6697 C   0  0  0  0  0  0  0  0  0  0  0  0
   12.1025   68.1978   18.9665 C   0  0  0  0  0  0  0  0  0  0  0  0
   12.1739   68.5584   17.6182 C   0  0  0  0  0  0  0  0  0  0  0  0
   13.3772   68.4310   16.9374 C   0  0  0  0  0  0  0  0  0  0  0  0
   14.4997   67.9649   17.5919 C   0  0  0  0  0  0  0  0  0  0  0  0
   14.4254   67.6073   18.9320 C   0  0  0  0  0  0  0  0  0  0  0  0
   13.2368   67.7249   19.6137 C   0  0  0  0  0  0  0  0  0  0  0  0
   13.2117   67.3701   20.9491 C   0  0  0  0  0  0  0  0  0  0  0  0
   12.6718   65.0825   26.1746 O   0  0  0  0  0  0  0  0  0  0  0  0
   12.1304   64.0115   26.8175 C   0  0  0  0  0  0  0  0  0  0  0  0
   10.8342   64.0983   27.3222 C   0  0  0  0  0  0  0  0  0  0  0  0
   10.3035   63.0087   27.9960 C   0  0  0  0  0  0  0  0  0  0  0  0
   11.0816   61.8552   28.1596 C   0  0  0  0  0  0  0  0  0  0  0  0
   12.3789   61.7757   27.6545 C   0  0  0  0  0  0  0  0  0  0  0  0
   12.9081   62.8609   26.9844 C   0  0  0  0  0  0  0  0  0  0  0  0
   10.4711   60.7082   28.8774 C   0  0  0  0  0  0  0  0  0  0  0  0
   10.4531   60.6399   30.1996 N   0  0  0  0  0  0  0  0  0  0  0  0
    9.9617   59.8036   28.1805 N   0  0  0  0  0  0  0  0  0  0  0  0
   10.8582   61.3598   30.7353 H   0  0  0  0  0  0  0  0  0  0  0  0
   10.0347   59.8692   30.6471 H   0  0  0  0  0  0  0  0  0  0  0  0
    9.9826   59.8681   27.1983 H   0  0  0  0  0  0  0  0  0  0  0  0
   17.3230   63.9613   25.9482 O   0  0  0  0  0  0  0  0  0  0  0  0
   17.8381   62.7288   25.5913 C   0  0  0  0  0  0  0  0  0  0  0  0
   18.8936   62.1299   26.2994 C   0  0  0  0  0  0  0  0  0  0  0  0
   19.3933   60.8716   25.8899 C   0  0  0  0  0  0  0  0  0  0  0  0
   18.8499   60.2127   24.7746 C   0  0  0  0  0  0  0  0  0  0  0  0
   17.8159   60.8173   24.0800 C   0  0  0  0  0  0  0  0  0  0  0  0
   17.3190   62.0464   24.4812 C   0  0  0  0  0  0  0  0  0  0  0  0
   19.3207   58.8819   24.2486 C   0  0  0  0  0  0  0  0  0  0  0  0
   19.4947   58.7421   22.9971 N   0  0  0  0  0  0  0  0  0  0  0  0
   19.6008   57.8644   25.0705 N   0  0  0  0  0  0  0  0  0  0  0  0
   19.2909   59.4862   22.3856 H   0  0  0  0  0  0  0  0  0  0  0  0
   19.4687   57.9649   26.0410 H   0  0  0  0  0  0  0  0  0  0  0  0
   19.9391   57.0152   24.7051 H   0  0  0  0  0  0  0  0  0  0  0  0
 18 19  2  0  0  0
 18 17  1  0  0  0
 19 20  1  0  0  0
 17 16  2  0  0  0
 20 21  2  0  0  0
 20 15  1  0  0  0
 16 15  1  0  0  0
 21 12  1  0  0  0
 15 14  2  0  0  0
  9 10  2  0  0  0
 12 10  1  0  0  0
 12 13  2  0  0  0
 14 13  1  0  0  0
 10 11  2  0  0  0
 10  7  1  0  0  0
  7  1  1  0  0  0
  1  3  2  0  0  0
  1  2  1  0  0  0
 22  2  1  0  0  0
 22 23  1  0  0  0
 24 23  2  0  0  0
 24 25  1  0  0  0
  3  4  1  0  0  0
  2  6  2  0  0  0
 23 28  1  0  0  0
 25 26  2  0  0  0
  4  5  2  0  0  0
  6  5  1  0  0  0
 28 27  2  0  0  0
 26 27  1  0  0  0
 26 29  1  0  0  0
  5 35  1  0  0  0
 31 29  2  0  0  0
 29 30  1  0  0  0
 35 36  1  0  0  0
 41 36  2  0  0  0
 41 40  1  0  0  0
 36 37  1  0  0  0
 40 39  2  0  0  0
 37 38  2  0  0  0
 39 38  1  0  0  0
 39 42  1  0  0  0
 43 42  2  0  0  0
 42 44  1  0  0  0
  7  8  1  0  0  0
 30 32  1  0  0  0
 30 33  1  0  0  0
 31 34  1  0  0  0
 43 45  1  0  0  0
 44 46  1  0  0  0
 44 47  1  0  0  0
M  END
> <minimizedAffinity>
-10.72153

$$$$
4JYT_N4A_A_900


 47 51  0  0  0  0  0  0  0  0999 V2000
   16.3922   63.7983   22.4968 C   0  0  0  0  0  0  0  0  0  0  0  0
   16.8398   62.8134   23.3323 C   0  0  0  0  0  0  0  0  0  0  0  0
   15.4331   64.7062   22.9308 C   0  0  0  0  0  0  0  0  0  0  0  0
   14.9544   64.5729   24.2284 C   0  0  0  0  0  0  0  0  0  0  0  0
   15.4287   63.5503   25.0685 C   0  0  0  0  0  0  0  0  0  0  0  0
   16.3681   62.6833   24.6006 N   0  0  0  0  0  0  0  0  0  0  0  0
   16.9614   63.6533   21.2916 N   0  0  0  0  0  0  0  0  0  0  0  0
   17.4893   62.8272   21.2009 H   0  0  0  0  0  0  0  0  0  0  0  0
   15.7876   64.2019   19.2084 O   0  0  0  0  0  0  0  0  0  0  0  0
   16.9525   64.5384   19.9993 S   0  0  0  0  0  0  0  0  0  0  0  0
   17.9757   63.7275   19.4191 O   0  0  0  0  0  0  0  0  0  0  0  0
   17.5028   66.0236   19.7640 C   0  0  0  0  0  0  0  0  0  0  0  0
   17.1688   67.1131   20.5826 C   0  0  0  0  0  0  0  0  0  0  0  0
   17.7332   68.3720   20.3515 C   0  0  0  0  0  0  0  0  0  0  0  0
   18.6476   68.5256   19.3215 C   0  0  0  0  0  0  0  0  0  0  0  0
   19.2353   69.7683   19.0693 C   0  0  0  0  0  0  0  0  0  0  0  0
   20.1537   69.8950   18.0359 C   0  0  0  0  0  0  0  0  0  0  0  0
   20.4953   68.7974   17.2715 C   0  0  0  0  0  0  0  0  0  0  0  0
   19.9094   67.5638   17.5247 C   0  0  0  0  0  0  0  0  0  0  0  0
   18.9946   67.4292   18.5427 C   0  0  0  0  0  0  0  0  0  0  0  0
   18.4466   66.1806   18.7677 C   0  0  0  0  0  0  0  0  0  0  0  0
   17.7795   61.9899   22.7702 O   0  0  0  0  0  0  0  0  0  0  0  0
   18.3159   60.9758   23.5032 C   0  0  0  0  0  0  0  0  0  0  0  0
   18.0814   59.6560   23.1220 C   0  0  0  0  0  0  0  0  0  0  0  0
   18.6135   58.6320   23.8910 C   0  0  0  0  0  0  0  0  0  0  0  0
   19.3637   58.9467   25.0316 C   0  0  0  0  0  0  0  0  0  0  0  0
   19.5924   60.2694   25.4092 C   0  0  0  0  0  0  0  0  0  0  0  0
   19.0618   61.2893   24.6442 C   0  0  0  0  0  0  0  0  0  0  0  0
   19.9240   57.8208   25.8202 C   0  0  0  0  0  0  0  0  0  0  0  0
   19.5682   56.5651   25.5969 N   0  0  0  0  0  0  0  0  0  0  0  0
   20.7593   58.1039   26.7065 N   0  0  0  0  0  0  0  0  0  0  0  0
   18.9092   56.3575   24.8955 H   0  0  0  0  0  0  0  0  0  0  0  0
   19.9626   55.8391   26.1322 H   0  0  0  0  0  0  0  0  0  0  0  0
   21.0141   59.0422   26.8611 H   0  0  0  0  0  0  0  0  0  0  0  0
   14.9600   63.4216   26.3678 O   0  0  0  0  0  0  0  0  0  0  0  0
   15.7091   63.9127   27.4210 C   0  0  0  0  0  0  0  0  0  0  0  0
   15.1596   64.1037   28.7000 C   0  0  0  0  0  0  0  0  0  0  0  0
   15.9638   64.6183   29.7436 C   0  0  0  0  0  0  0  0  0  0  0  0
   17.3098   64.9491   29.5152 C   0  0  0  0  0  0  0  0  0  0  0  0
   17.8372   64.7645   28.2484 C   0  0  0  0  0  0  0  0  0  0  0  0
   17.0552   64.2548   27.2250 C   0  0  0  0  0  0  0  0  0  0  0  0
   18.2432   65.5175   30.5520 C   0  0  0  0  0  0  0  0  0  0  0  0
   19.2280   64.8156   30.9437 N   0  0  0  0  0  0  0  0  0  0  0  0
   18.0838   66.7556   31.0329 N   0  0  0  0  0  0  0  0  0  0  0  0
   19.3522   63.9036   30.5944 H   0  0  0  0  0  0  0  0  0  0  0  0
   17.3236   67.3055   30.7345 H   0  0  0  0  0  0  0  0  0  0  0  0
   18.7266   67.1168   31.6852 H   0  0  0  0  0  0  0  0  0  0  0  0
 18 19  2  0  0  0
 18 17  1  0  0  0
 19 20  1  0  0  0
 17 16  2  0  0  0
 20 21  2  0  0  0
 20 15  1  0  0  0
 16 15  1  0  0  0
 21 12  1  0  0  0
 15 14  2  0  0  0
  9 10  2  0  0  0
 12 10  1  0  0  0
 12 13  2  0  0  0
 14 13  1  0  0  0
 10 11  2  0  0  0
 10  7  1  0  0  0
  7  1  1  0  0  0
  1  3  2  0  0  0
  1  2  1  0  0  0
 22  2  1  0  0  0
 22 23  1  0  0  0
 24 23  2  0  0  0
 24 25  1  0  0  0
  3  4  1  0  0  0
  2  6  2  0  0  0
 23 28  1  0  0  0
 25 26  2  0  0  0
  4  5  2  0  0  0
  6  5  1  0  0  0
 28 27  2  0  0  0
 26 27  1  0  0  0
 26 29  1  0  0  0
  5 35  1  0  0  0
 31 29  2  0  0  0
 29 30  1  0  0  0
 35 36  1  0  0  0
 41 36  2  0  0  0
 41 40  1  0  0  0
 36 37  1  0  0  0
 40 39  2  0  0  0
 37 38  2  0  0  0
 39 38  1  0  0  0
 39 42  1  0  0  0
 43 42  2  0  0  0
 42 44  1  0  0  0
  7  8  1  0  0  0
 30 32  1  0  0  0
 30 33  1  0  0  0
 31 34  1  0  0  0
 43 45  1  0  0  0
 44 46  1  0  0  0
 44 47  1  0  0  0
M  END
> <minimizedAffinity>
-10.46782

$$$$
4JYT_N4A_A_900


 47 51  0  0  0  0  0  0  0  0999 V2000
   15.2446   65.0286   25.4323 C   0  0  0  0  0  0  0  0  0  0  0  0
   16.2993   64.7152   24.6213 C   0  0  0  0  0  0  0  0  0  0  0  0
   14.0560   65.5021   24.8885 C   0  0  0  0  0  0  0  0  0  0  0  0
   13.9855   65.6426   23.5079 C   0  0  0  0  0  0  0  0  0  0  0  0
   15.0845   65.3156   22.6945 C   0  0  0  0  0  0  0  0  0  0  0  0
   16.2288   64.8560   23.2710 N   0  0  0  0  0  0  0  0  0  0  0  0
   15.6052   64.8698   26.7139 N   0  0  0  0  0  0  0  0  0  0  0  0
   16.5137   65.1934   26.9116 H   0  0  0  0  0  0  0  0  0  0  0  0
   14.9758   65.2024   29.0616 O   0  0  0  0  0  0  0  0  0  0  0  0
   14.8665   64.2710   27.9587 S   0  0  0  0  0  0  0  0  0  0  0  0
   15.9540   63.3741   28.1910 O   0  0  0  0  0  0  0  0  0  0  0  0
   13.5906   63.3065   28.0340 C   0  0  0  0  0  0  0  0  0  0  0  0
   12.8954   62.8504   26.9038 C   0  0  0  0  0  0  0  0  0  0  0  0
   11.8236   61.9622   27.0422 C   0  0  0  0  0  0  0  0  0  0  0  0
   11.4727   61.5158   28.3063 C   0  0  0  0  0  0  0  0  0  0  0  0
   10.4117   60.6224   28.4779 C   0  0  0  0  0  0  0  0  0  0  0  0
   10.0840   60.1844   29.7540 C   0  0  0  0  0  0  0  0  0  0  0  0
   10.8107   60.6173   30.8450 C   0  0  0  0  0  0  0  0  0  0  0  0
   11.8645   61.5052   30.6711 C   0  0  0  0  0  0  0  0  0  0  0  0
   12.1936   61.9489   29.4117 C   0  0  0  0  0  0  0  0  0  0  0  0
   13.2576   62.8214   29.2838 C   0  0  0  0  0  0  0  0  0  0  0  0
   17.4054   64.2661   25.2936 O   0  0  0  0  0  0  0  0  0  0  0  0
   17.8744   63.0093   25.0615 C   0  0  0  0  0  0  0  0  0  0  0  0
   17.0504   62.0744   24.4374 C   0  0  0  0  0  0  0  0  0  0  0  0
   17.5320   60.7909   24.2287 C   0  0  0  0  0  0  0  0  0  0  0  0
   18.8257   60.4635   24.6551 C   0  0  0  0  0  0  0  0  0  0  0  0
   19.6441   61.4028   25.2815 C   0  0  0  0  0  0  0  0  0  0  0  0
   19.1646   62.6808   25.4904 C   0  0  0  0  0  0  0  0  0  0  0  0
   19.3056   59.0817   24.4023 C   0  0  0  0  0  0  0  0  0  0  0  0
   19.2923   58.5472   23.1911 N   0  0  0  0  0  0  0  0  0  0  0  0
   19.7352   58.4375   25.3842 N   0  0  0  0  0  0  0  0  0  0  0  0
   18.9511   59.0666   22.4275 H   0  0  0  0  0  0  0  0  0  0  0  0
   19.6236   57.6303   23.0540 H   0  0  0  0  0  0  0  0  0  0  0  0
   19.7389   58.8482   26.2789 H   0  0  0  0  0  0  0  0  0  0  0  0
   15.0128   65.4452   21.3152 O   0  0  0  0  0  0  0  0  0  0  0  0
   16.0816   65.9773   20.6179 C   0  0  0  0  0  0  0  0  0  0  0  0
   16.9982   65.1660   19.9279 C   0  0  0  0  0  0  0  0  0  0  0  0
   18.0818   65.7566   19.2367 C   0  0  0  0  0  0  0  0  0  0  0  0
   18.2584   67.1502   19.2368 C   0  0  0  0  0  0  0  0  0  0  0  0
   17.3534   67.9380   19.9278 C   0  0  0  0  0  0  0  0  0  0  0  0
   16.2871   67.3647   20.6006 C   0  0  0  0  0  0  0  0  0  0  0  0
   19.3858   67.8739   18.5478 C   0  0  0  0  0  0  0  0  0  0  0  0
   20.4872   67.2657   18.3668 N   0  0  0  0  0  0  0  0  0  0  0  0
   19.2375   69.1203   18.0854 N   0  0  0  0  0  0  0  0  0  0  0  0
   20.6041   66.3482   18.7041 H   0  0  0  0  0  0  0  0  0  0  0  0
   18.3875   69.5980   18.2216 H   0  0  0  0  0  0  0  0  0  0  0  0
   19.9784   69.5599   17.6089 H   0  0  0  0  0  0  0  0  0  0  0  0
 18 19  2  0  0  0
 18 17  1  0  0  0
 19 20  1  0  0  0
 17 16  2  0  0  0
 20 21  2  0  0  0
 20 15  1  0  0  0
 16 15  1  0  0  0
 21 12  1  0  0  0
 15 14  2  0  0  0
  9 10  2  0  0  0
 12 10  1  0  0  0
 12 13  2  0  0  0
 14 13  1  0  0  0
 10 11  2  0  0  0
 10  7  1  0  0  0
  7  1  1  0  0  0
  1  3  2  0  0  0
  1  2  1  0  0  0
 22  2  1  0  0  0
 22 23  1  0  0  0
 24 23  2  0  0  0
 24 25  1  0  0  0
  3  4  1  0  0  0
  2  6  2  0  0  0
 23 28  1  0  0  0
 25 26  2  0  0  0
  4  5  2  0  0  0
  6  5  1  0  0  0
 28 27  2  0  0  0
 26 27  1  0  0  0
 26 29  1  0  0  0
  5 35  1  0  0  0
 31 29  2  0  0  0
 29 30  1  0  0  0
 35 36  1  0  0  0
 41 36  2  0  0  0
 41 40  1  0  0  0
 36 37  1  0  0  0
 40 39  2  0  0  0
 37 38  2  0  0  0
 39 38  1  0  0  0
 39 42  1  0  0  0
 43 42  2  0  0  0
 42 44  1  0  0  0
  7  8  1  0  0  0
 30 32  1  0  0  0
 30 33  1  0  0  0
 31 34  1  0  0  0
 43 45  1  0  0  0
 44 46  1  0  0  0
 44 47  1  0  0  0
M  END
> <minimizedAffinity>
-10.30603

$$$$
4JYT_N4A_A_900


 47 51  0  0  0  0  0  0  0  0999 V2000
   13.8958   66.1767   25.1130 C   0  0  0  0  0  0  0  0  0  0  0  0
   15.2062   66.1904   24.7242 C   0  0  0  0  0  0  0  0  0  0  0  0
   13.4587   65.2791   26.0804 C   0  0  0  0  0  0  0  0  0  0  0  0
   14.3939   64.4089   26.6269 C   0  0  0  0  0  0  0  0  0  0  0  0
   15.7360   64.4404   26.2094 C   0  0  0  0  0  0  0  0  0  0  0  0
   16.1188   65.3361   25.2585 N   0  0  0  0  0  0  0  0  0  0  0  0
   13.2043   67.0615   24.3803 N   0  0  0  0  0  0  0  0  0  0  0  0
   13.4749   67.9961   24.5307 H   0  0  0  0  0  0  0  0  0  0  0  0
   10.7814   66.9053   24.0284 O   0  0  0  0  0  0  0  0  0  0  0  0
   12.0509   66.9020   23.3325 S   0  0  0  0  0  0  0  0  0  0  0  0
   12.3398   65.5087   23.2048 O   0  0  0  0  0  0  0  0  0  0  0  0
   11.9689   67.3871   21.8088 C   0  0  0  0  0  0  0  0  0  0  0  0
   10.9159   68.1599   21.2965 C   0  0  0  0  0  0  0  0  0  0  0  0
   10.9391   68.5968   19.9678 C   0  0  0  0  0  0  0  0  0  0  0  0
   12.0272   68.2809   19.1698 C   0  0  0  0  0  0  0  0  0  0  0  0
   12.0846   68.7086   17.8405 C   0  0  0  0  0  0  0  0  0  0  0  0
   13.1887   68.3851   17.0635 C   0  0  0  0  0  0  0  0  0  0  0  0
   14.2300   67.6580   17.6045 C   0  0  0  0  0  0  0  0  0  0  0  0
   14.1699   67.2344   18.9259 C   0  0  0  0  0  0  0  0  0  0  0  0
   13.0782   67.5453   19.7023 C   0  0  0  0  0  0  0  0  0  0  0  0
   13.0665   67.1148   21.0154 C   0  0  0  0  0  0  0  0  0  0  0  0
   15.4924   67.1220   23.7613 O   0  0  0  0  0  0  0  0  0  0  0  0
   16.0990   66.7360   22.6053 C   0  0  0  0  0  0  0  0  0  0  0  0
   15.9589   65.4218   22.1632 C   0  0  0  0  0  0  0  0  0  0  0  0
   16.6018   65.0354   20.9969 C   0  0  0  0  0  0  0  0  0  0  0  0
   17.3794   65.9682   20.2983 C   0  0  0  0  0  0  0  0  0  0  0  0
   17.5178   67.2810   20.7476 C   0  0  0  0  0  0  0  0  0  0  0  0
   16.8787   67.6659   21.9095 C   0  0  0  0  0  0  0  0  0  0  0  0
   18.0414   65.5158   19.0491 C   0  0  0  0  0  0  0  0  0  0  0  0
   18.8069   66.3231   18.3311 N   0  0  0  0  0  0  0  0  0  0  0  0
   17.8544   64.3295   18.7006 N   0  0  0  0  0  0  0  0  0  0  0  0
   18.9449   67.2547   18.6180 H   0  0  0  0  0  0  0  0  0  0  0  0
   19.2380   65.9918   17.5104 H   0  0  0  0  0  0  0  0  0  0  0  0
   17.2826   63.7410   19.2446 H   0  0  0  0  0  0  0  0  0  0  0  0
   16.6736   63.5797   26.7611 O   0  0  0  0  0  0  0  0  0  0  0  0
   17.2659   62.6107   25.9724 C   0  0  0  0  0  0  0  0  0  0  0  0
   18.5361   62.0864   26.2655 C   0  0  0  0  0  0  0  0  0  0  0  0
   19.1049   61.1031   25.4228 C   0  0  0  0  0  0  0  0  0  0  0  0
   18.4160   60.6466   24.2869 C   0  0  0  0  0  0  0  0  0  0  0  0
   17.1689   61.1774   24.0040 C   0  0  0  0  0  0  0  0  0  0  0  0
   16.6051   62.1357   24.8299 C   0  0  0  0  0  0  0  0  0  0  0  0
   18.9403   59.6179   23.3192 C   0  0  0  0  0  0  0  0  0  0  0  0
   19.5062   58.5756   23.7766 N   0  0  0  0  0  0  0  0  0  0  0  0
   18.7835   59.7567   21.9980 N   0  0  0  0  0  0  0  0  0  0  0  0
   19.6253   58.4660   24.7478 H   0  0  0  0  0  0  0  0  0  0  0  0
   18.3463   60.5610   21.6360 H   0  0  0  0  0  0  0  0  0  0  0  0
   19.1054   59.0544   21.3877 H   0  0  0  0  0  0  0  0  0  0  0  0
 18 19  2  0  0  0
 18 17  1  0  0  0
 19 20  1  0  0  0
 17 16  2  0  0  0
 20 21  2  0  0  0
 20 15  1  0  0  0
 16 15  1  0  0  0
 21 12  1  0  0  0
 15 14  2  0  0  0
  9 10  2  0  0  0
 12 10  1  0  0  0
 12 13  2  0  0  0
 14 13  1  0  0  0
 10 11  2  0  0  0
 10  7  1  0  0  0
  7  1  1  0  0  0
  1  3  2  0  0  0
  1  2  1  0  0  0
 22  2  1  0  0  0
 22 23  1  0  0  0
 24 23  2  0  0  0
 24 25  1  0  0  0
  3  4  1  0  0  0
  2  6  2  0  0  0
 23 28  1  0  0  0
 25 26  2  0  0  0
  4  5  2  0  0  0
  6  5  1  0  0  0
 28 27  2  0  0  0
 26 27  1  0  0  0
 26 29  1  0  0  0
  5 35  1  0  0  0
 31 29  2  0  0  0
 29 30  1  0  0  0
 35 36  1  0  0  0
 41 36  2  0  0  0
 41 40  1  0  0  0
 36 37  1  0  0  0
 40 39  2  0  0  0
 37 38  2  0  0  0
 39 38  1  0  0  0
 39 42  1  0  0  0
 43 42  2  0  0  0
 42 44  1  0  0  0
  7  8  1  0  0  0
 30 32  1  0  0  0
 30 33  1  0  0  0
 31 34  1  0  0  0
 43 45  1  0  0  0
 44 46  1  0  0  0
 44 47  1  0  0  0
M  END
> <minimizedAffinity>
-10.23940

$$$$
