5NZN_G39_A_503
  RCSB PDB06301801303D
Coordinates from PDB:5NZN:A:503 Model:1 without hydrogens
 20 20  0  0  0  0            999 V2000
   42.9510   -1.2490   17.4520   C 0  0  0  0  0  0  0  0  0  0  0  0
   42.6670   -0.4830   16.4650   O 0  0  0  0  0  0  0  0  0  0  0  0
   42.9690   -2.5010   17.3430   O 0  0  0  0  0  0  0  0  0  0  0  0
   43.2430   -0.7000   18.7880   C 0  0  0  0  0  0  0  0  0  0  0  0
   43.0120    0.7760   19.0270   C 0  0  0  0  0  0  0  0  0  0  0  0
   42.7190    1.1270   20.4900   C 0  0  0  0  0  0  0  0  0  0  0  0
   43.7590    0.4700   21.3890   C 0  0  0  0  0  0  0  0  0  0  0  0
   43.4600    0.7670   22.7660   N 0  0  0  0  0  0  0  0  0  0  0  0
   44.2860    1.4530   23.5330   C 0  0  0  0  0  0  0  0  0  0  0  0
   45.3170    1.9130   23.1700   O 0  0  0  0  0  0  0  0  0  0  0  0
   43.7750    1.7100   24.9510   C 0  0  0  0  0  0  0  0  0  0  0  0
   43.7130   -1.0300   21.2440   C 0  0  0  0  0  0  0  0  0  0  0  0
   43.6560   -1.4900   19.7790   C 0  0  0  0  0  0  0  0  0  0  0  0
   44.8310   -1.6440   21.8970   O 0  0  0  0  0  0  0  0  0  0  0  0
   44.3990   -2.7200   22.7650   C 0  0  0  0  0  0  0  0  0  0  0  0
   44.1120   -4.0680   22.0430   C 0  0  0  0  0  0  0  0  0  0  0  0
   45.4390   -2.9400   23.8380   C 0  0  0  0  0  0  0  0  0  0  0  0
   45.6810   -1.7380   24.7030   C 0  0  0  0  0  0  0  0  0  0  0  0
   45.2740   -4.5580   21.1850   C 0  0  0  0  0  0  0  0  0  0  0  0
   42.7380    2.5860   20.6130   N 0  0  0  0  0  0  0  0  0  0  0  0
  1  2  2  0  0  0  0
  1  3  1  0  0  0  0
  1  4  1  0  0  0  0
  4  5  1  0  0  0  0
  4 13  2  0  0  0  0
  5  6  1  0  0  0  0
  6  7  1  0  0  0  0
  6 20  1  0  0  0  0
  7  8  1  0  0  0  0
  7 12  1  0  0  0  0
  8  9  1  0  0  0  0
  9 10  2  0  0  0  0
  9 11  1  0  0  0  0
 12 13  1  0  0  0  0
 12 14  1  0  0  0  0
 14 15  1  0  0  0  0
 15 16  1  0  0  0  0
 15 17  1  0  0  0  0
 16 19  1  0  0  0  0
 17 18  1  0  0  0  0
A    1
C1
A    2
O1A
A    3
O1B
A    4
C2
A    5
C3
A    6
C4
A    7
C5
A    8
N5
A    9
C10
A   10
O10
A   11
C11
A   12
C6
A   13
C7
A   14
O7
A   15
C8
A   16
C9
A   17
C81
A   18
C82
A   19
C91
A   20
N4
M  END
>  <InstanceId>
5NZN_G39_A_503

>  <ChemCompId>
G39

>  <PdbId>
5NZN

>  <ChainId>
A

>  <ResidueNumber>
503

>  <InsertionCode>


>  <Model>
1

>  <AltIds>


>  <MissingHeavyAtoms>
0

>  <ObservedFormula>
C14 N2 O4

>  <Name>
(3R,4R,5S)-4-(acetylamino)-5-amino-3-(pentan-3-yloxy)cyclohex-1-ene-1-carboxylic acid

>  <SystematicName>
(3R,4R,5S)-4-acetamido-5-azanyl-3-pentan-3-yloxy-cyclohexene-1-carboxylic acid

>  <Synonyms>
Oseltamivir carboxylate

>  <Type>
NON-POLYMER

>  <Formula>
C14 H24 N2 O4

>  <MolecularWeight>
284.351

>  <ModifiedDate>
2011-06-04

>  <Parent>


>  <OneLetterCode>


>  <SubcomponentList>


>  <AmbiguousFlag>
N

>  <InChI>
InChI=1S/C14H24N2O4/c1-4-10(5-2)20-12-7-9(14(18)19)6-11(15)13(12)16-8(3)17/h7,10-13H,4-6,15H2,1-3H3,(H,16,17)(H,18,19)/t11-,12+,13+/m0/s1

>  <InChIKey>
NENPYTRHICXVCS-YNEHKIRRSA-N

>  <SMILES>
CCC(CC)O[C@@H]1C=C(C[C@@H]([C@H]1NC(=O)C)N)C(=O)O

$$$$
