5NZN_G39_A_503


 24 24  0  0  0  0  0  0  0  0999 V2000
   43.5056   -0.7411   18.8552 C   0  0  0  0  0  0  0  0  0  0  0  0
   43.2433    0.7177   19.1585 C   0  0  0  0  0  0  0  0  0  0  0  0
   42.8849    0.9898   20.6238 C   0  0  0  0  0  0  0  0  0  0  0  0
   43.8962    0.3008   21.5314 C   0  0  0  0  0  0  0  0  0  0  0  0
   43.8781   -1.1903   21.3090 C   0  0  0  0  0  0  0  0  0  0  0  0
   43.8886   -1.5755   19.8216 C   0  0  0  0  0  0  0  0  0  0  0  0
   42.8774    2.4408   20.8210 N   0  0  0  0  0  0  0  0  0  0  0  0
   43.7957    2.8200   20.5901 H   0  0  0  0  0  0  0  0  0  0  0  0
   42.6581    2.6504   21.7949 H   0  0  0  0  0  0  0  0  0  0  0  0
   43.5361    0.5233   22.9079 N   0  0  0  0  0  0  0  0  0  0  0  0
   44.3226    1.1735   23.7444 C   0  0  0  0  0  0  0  0  0  0  0  0
   45.3641    1.6585   23.4507 O   0  0  0  0  0  0  0  0  0  0  0  0
   43.7492    1.3525   25.1505 C   0  0  0  0  0  0  0  0  0  0  0  0
   42.6741    0.1787   23.2357 H   0  0  0  0  0  0  0  0  0  0  0  0
   43.2772   -1.2248   17.4821 C   0  0  0  0  0  0  0  0  0  0  0  0
   43.5549   -0.4967   16.4650 O   0  0  0  0  0  0  0  0  0  0  0  0
   42.7736   -2.3705   17.3666 O   0  0  0  0  0  0  0  0  0  0  0  0
   42.5825   -2.8775   18.1310 H   0  0  0  0  0  0  0  0  0  0  0  0
   44.9770   -1.8229   21.9767 O   0  0  0  0  0  0  0  0  0  0  0  0
   44.5217   -2.9297   22.7924 C   0  0  0  0  0  0  0  0  0  0  0  0
   44.6713   -4.3319   22.1350 C   0  0  0  0  0  0  0  0  0  0  0  0
   45.9030   -4.4579   21.2442 C   0  0  0  0  0  0  0  0  0  0  0  0
   45.2624   -2.9139   24.1086 C   0  0  0  0  0  0  0  0  0  0  0  0
   46.3649   -1.8979   24.1714 C   0  0  0  0  0  0  0  0  0  0  0  0
 15 16  2  0  0  0
 15 17  1  0  0  0
 15  1  1  0  0  0
  1  2  1  0  0  0
  1  6  2  0  0  0
  2  3  1  0  0  0
  3  4  1  0  0  0
  3  7  1  0  0  0
  4 10  1  0  0  0
  4  5  1  0  0  0
 10 11  1  0  0  0
 11 12  2  0  0  0
 11 13  1  0  0  0
  5  6  1  0  0  0
  5 19  1  0  0  0
 19 20  1  0  0  0
 20 21  1  0  0  0
 20 23  1  0  0  0
 21 22  1  0  0  0
 23 24  1  0  0  0
 17 18  1  0  0  0
 10 14  1  0  0  0
  7  8  1  0  0  0
  7  9  1  0  0  0
M  END
> <minimizedAffinity>
-7.09380

$$$$
5NZN_G39_A_503


 24 24  0  0  0  0  0  0  0  0999 V2000
   43.3499    1.1368   23.2339 C   0  0  0  0  0  0  0  0  0  0  0  0
   42.3259    1.3936   22.1502 C   0  0  0  0  0  0  0  0  0  0  0  0
   42.8872    1.2758   20.7288 C   0  0  0  0  0  0  0  0  0  0  0  0
   43.6718   -0.0237   20.5977 C   0  0  0  0  0  0  0  0  0  0  0  0
   44.8273   -0.0449   21.5659 C   0  0  0  0  0  0  0  0  0  0  0  0
   44.4317    0.3998   22.9825 C   0  0  0  0  0  0  0  0  0  0  0  0
   41.7593    1.3262   19.7963 N   0  0  0  0  0  0  0  0  0  0  0  0
   41.1139    0.5635   20.0017 H   0  0  0  0  0  0  0  0  0  0  0  0
   42.1037    1.2322   18.8408 H   0  0  0  0  0  0  0  0  0  0  0  0
   44.2325   -0.1148   19.2744 N   0  0  0  0  0  0  0  0  0  0  0  0
   43.9665   -1.1230   18.4656 C   0  0  0  0  0  0  0  0  0  0  0  0
   43.2321   -2.0177   18.7235 O   0  0  0  0  0  0  0  0  0  0  0  0
   44.6149   -1.0212   17.0846 C   0  0  0  0  0  0  0  0  0  0  0  0
   44.8344    0.5991   18.9626 H   0  0  0  0  0  0  0  0  0  0  0  0
   43.1482    1.7623   24.5529 C   0  0  0  0  0  0  0  0  0  0  0  0
   43.8330    1.3998   25.5733 O   0  0  0  0  0  0  0  0  0  0  0  0
   42.2554    2.6440   24.6258 O   0  0  0  0  0  0  0  0  0  0  0  0
   41.7725    2.8862   23.8602 H   0  0  0  0  0  0  0  0  0  0  0  0
   45.4280   -1.3447   21.6208 O   0  0  0  0  0  0  0  0  0  0  0  0
   44.8544   -2.1375   22.6887 C   0  0  0  0  0  0  0  0  0  0  0  0
   43.7795   -3.1667   22.2348 C   0  0  0  0  0  0  0  0  0  0  0  0
   44.3704   -4.4607   21.6843 C   0  0  0  0  0  0  0  0  0  0  0  0
   45.9610   -2.8608   23.4192 C   0  0  0  0  0  0  0  0  0  0  0  0
   46.0863   -2.4753   24.8640 C   0  0  0  0  0  0  0  0  0  0  0  0
 15 16  2  0  0  0
 15 17  1  0  0  0
 15  1  1  0  0  0
  1  2  1  0  0  0
  1  6  2  0  0  0
  2  3  1  0  0  0
  3  4  1  0  0  0
  3  7  1  0  0  0
  4 10  1  0  0  0
  4  5  1  0  0  0
 10 11  1  0  0  0
 11 12  2  0  0  0
 11 13  1  0  0  0
  5  6  1  0  0  0
  5 19  1  0  0  0
 19 20  1  0  0  0
 20 21  1  0  0  0
 20 23  1  0  0  0
 21 22  1  0  0  0
 23 24  1  0  0  0
 17 18  1  0  0  0
 10 14  1  0  0  0
  7  8  1  0  0  0
  7  9  1  0  0  0
M  END
> <minimizedAffinity>
-7.02900

$$$$
5NZN_G39_A_503


 24 24  0  0  0  0  0  0  0  0999 V2000
   42.6291    0.8406   22.4422 C   0  0  0  0  0  0  0  0  0  0  0  0
   42.3409    1.3245   21.0380 C   0  0  0  0  0  0  0  0  0  0  0  0
   43.2697    0.7269   19.9752 C   0  0  0  0  0  0  0  0  0  0  0  0
   43.3355   -0.7853   20.1492 C   0  0  0  0  0  0  0  0  0  0  0  0
   43.8830   -1.1389   21.5088 C   0  0  0  0  0  0  0  0  0  0  0  0
   43.2417   -0.3259   22.6441 C   0  0  0  0  0  0  0  0  0  0  0  0
   42.7446    1.1004   18.6603 N   0  0  0  0  0  0  0  0  0  0  0  0
   41.7939    0.7448   18.5604 H   0  0  0  0  0  0  0  0  0  0  0  0
   43.3358    0.7000   17.9319 H   0  0  0  0  0  0  0  0  0  0  0  0
   44.2394   -1.3419   19.1761 N   0  0  0  0  0  0  0  0  0  0  0  0
   43.8118   -1.9644   18.0940 C   0  0  0  0  0  0  0  0  0  0  0  0
   42.6706   -2.0977   17.8003 O   0  0  0  0  0  0  0  0  0  0  0  0
   44.9187   -2.4444   17.1548 C   0  0  0  0  0  0  0  0  0  0  0  0
   45.2090   -1.2551   19.3231 H   0  0  0  0  0  0  0  0  0  0  0  0
   42.2644    1.7114   23.5736 C   0  0  0  0  0  0  0  0  0  0  0  0
   42.0091    1.2264   24.7317 O   0  0  0  0  0  0  0  0  0  0  0  0
   42.1915    2.9430   23.3337 O   0  0  0  0  0  0  0  0  0  0  0  0
   42.3848    3.2654   22.4755 H   0  0  0  0  0  0  0  0  0  0  0  0
   43.7316   -2.5386   21.7757 O   0  0  0  0  0  0  0  0  0  0  0  0
   44.9686   -3.1109   22.2658 C   0  0  0  0  0  0  0  0  0  0  0  0
   45.0368   -3.2980   23.8089 C   0  0  0  0  0  0  0  0  0  0  0  0
   46.0490   -2.3815   24.4886 C   0  0  0  0  0  0  0  0  0  0  0  0
   45.2014   -4.4418   21.5908 C   0  0  0  0  0  0  0  0  0  0  0  0
   46.2253   -4.3947   20.4949 C   0  0  0  0  0  0  0  0  0  0  0  0
 15 16  2  0  0  0
 15 17  1  0  0  0
 15  1  1  0  0  0
  1  2  1  0  0  0
  1  6  2  0  0  0
  2  3  1  0  0  0
  3  4  1  0  0  0
  3  7  1  0  0  0
  4 10  1  0  0  0
  4  5  1  0  0  0
 10 11  1  0  0  0
 11 12  2  0  0  0
 11 13  1  0  0  0
  5  6  1  0  0  0
  5 19  1  0  0  0
 19 20  1  0  0  0
 20 21  1  0  0  0
 20 23  1  0  0  0
 21 22  1  0  0  0
 23 24  1  0  0  0
 17 18  1  0  0  0
 10 14  1  0  0  0
  7  8  1  0  0  0
  7  9  1  0  0  0
M  END
> <minimizedAffinity>
-7.00322

$$$$
5NZN_G39_A_503


 24 24  0  0  0  0  0  0  0  0999 V2000
   42.8959    1.2680   21.9143 C   0  0  0  0  0  0  0  0  0  0  0  0
   43.7714    1.2246   23.1475 C   0  0  0  0  0  0  0  0  0  0  0  0
   44.6452   -0.0311   23.2415 C   0  0  0  0  0  0  0  0  0  0  0  0
   45.3643   -0.2510   21.9163 C   0  0  0  0  0  0  0  0  0  0  0  0
   44.3700   -0.4490   20.8004 C   0  0  0  0  0  0  0  0  0  0  0  0
   43.2306    0.5817   20.8217 C   0  0  0  0  0  0  0  0  0  0  0  0
   45.5874    0.1605   24.3459 N   0  0  0  0  0  0  0  0  0  0  0  0
   46.1534    0.9907   24.1698 H   0  0  0  0  0  0  0  0  0  0  0  0
   46.1947   -0.6556   24.4202 H   0  0  0  0  0  0  0  0  0  0  0  0
   46.1539   -1.4529   21.9919 N   0  0  0  0  0  0  0  0  0  0  0  0
   47.4499   -1.4600   21.7439 C   0  0  0  0  0  0  0  0  0  0  0  0
   48.0890   -0.4984   21.4732 O   0  0  0  0  0  0  0  0  0  0  0  0
   48.1261   -2.8197   21.9220 C   0  0  0  0  0  0  0  0  0  0  0  0
   45.7118   -2.2978   22.2369 H   0  0  0  0  0  0  0  0  0  0  0  0
   41.6433    2.0422   21.9694 C   0  0  0  0  0  0  0  0  0  0  0  0
   40.5424    1.5599   21.5255 O   0  0  0  0  0  0  0  0  0  0  0  0
   41.7206    3.2023   22.4468 O   0  0  0  0  0  0  0  0  0  0  0  0
   42.5414    3.5250   22.7632 H   0  0  0  0  0  0  0  0  0  0  0  0
   45.0188   -0.4215   19.5230 O   0  0  0  0  0  0  0  0  0  0  0  0
   44.6585   -1.5802   18.7322 C   0  0  0  0  0  0  0  0  0  0  0  0
   43.9983   -1.2570   17.3610 C   0  0  0  0  0  0  0  0  0  0  0  0
   44.5697   -2.0702   16.2039 C   0  0  0  0  0  0  0  0  0  0  0  0
   45.8874   -2.4289   18.5069 C   0  0  0  0  0  0  0  0  0  0  0  0
   45.8322   -3.7671   19.1834 C   0  0  0  0  0  0  0  0  0  0  0  0
 15 16  2  0  0  0
 15 17  1  0  0  0
 15  1  1  0  0  0
  1  2  1  0  0  0
  1  6  2  0  0  0
  2  3  1  0  0  0
  3  4  1  0  0  0
  3  7  1  0  0  0
  4 10  1  0  0  0
  4  5  1  0  0  0
 10 11  1  0  0  0
 11 12  2  0  0  0
 11 13  1  0  0  0
  5  6  1  0  0  0
  5 19  1  0  0  0
 19 20  1  0  0  0
 20 21  1  0  0  0
 20 23  1  0  0  0
 21 22  1  0  0  0
 23 24  1  0  0  0
 17 18  1  0  0  0
 10 14  1  0  0  0
  7  8  1  0  0  0
  7  9  1  0  0  0
M  END
> <minimizedAffinity>
-6.04938

$$$$
5NZN_G39_A_503


 24 24  0  0  0  0  0  0  0  0999 V2000
   44.0904   -2.2989   22.8275 C   0  0  0  0  0  0  0  0  0  0  0  0
   43.1362   -1.4631   23.6521 C   0  0  0  0  0  0  0  0  0  0  0  0
   43.3457    0.0474   23.4980 C   0  0  0  0  0  0  0  0  0  0  0  0
   43.4206    0.4024   22.0182 C   0  0  0  0  0  0  0  0  0  0  0  0
   44.5786   -0.3053   21.3615 C   0  0  0  0  0  0  0  0  0  0  0  0
   44.6622   -1.7936   21.7345 C   0  0  0  0  0  0  0  0  0  0  0  0
   42.2310    0.7244   24.1638 N   0  0  0  0  0  0  0  0  0  0  0  0
   41.3517    0.4295   23.7392 H   0  0  0  0  0  0  0  0  0  0  0  0
   42.3363    1.7338   24.0614 H   0  0  0  0  0  0  0  0  0  0  0  0
   43.6575    1.8155   21.8746 N   0  0  0  0  0  0  0  0  0  0  0  0
   42.6722    2.6899   21.7998 C   0  0  0  0  0  0  0  0  0  0  0  0
   41.5209    2.4154   21.8746 O   0  0  0  0  0  0  0  0  0  0  0  0
   43.1198    4.1484   21.6983 C   0  0  0  0  0  0  0  0  0  0  0  0
   44.5859    2.1401   21.8309 H   0  0  0  0  0  0  0  0  0  0  0  0
   44.4103   -3.6610   23.2900 C   0  0  0  0  0  0  0  0  0  0  0  0
   44.8418   -3.8768   24.4769 O   0  0  0  0  0  0  0  0  0  0  0  0
   44.2636   -4.5873   22.4533 O   0  0  0  0  0  0  0  0  0  0  0  0
   43.9456   -4.3955   21.5930 H   0  0  0  0  0  0  0  0  0  0  0  0
   44.5220   -0.1700   19.9361 O   0  0  0  0  0  0  0  0  0  0  0  0
   44.7939   -1.4339   19.2830 C   0  0  0  0  0  0  0  0  0  0  0  0
   43.6823   -1.9192   18.3085 C   0  0  0  0  0  0  0  0  0  0  0  0
   43.3671   -0.9207   17.1994 C   0  0  0  0  0  0  0  0  0  0  0  0
   46.1036   -1.3355   18.5371 C   0  0  0  0  0  0  0  0  0  0  0  0
   47.1845   -2.2162   19.0917 C   0  0  0  0  0  0  0  0  0  0  0  0
 15 16  2  0  0  0
 15 17  1  0  0  0
 15  1  1  0  0  0
  1  2  1  0  0  0
  1  6  2  0  0  0
  2  3  1  0  0  0
  3  4  1  0  0  0
  3  7  1  0  0  0
  4 10  1  0  0  0
  4  5  1  0  0  0
 10 11  1  0  0  0
 11 12  2  0  0  0
 11 13  1  0  0  0
  5  6  1  0  0  0
  5 19  1  0  0  0
 19 20  1  0  0  0
 20 21  1  0  0  0
 20 23  1  0  0  0
 21 22  1  0  0  0
 23 24  1  0  0  0
 17 18  1  0  0  0
 10 14  1  0  0  0
  7  8  1  0  0  0
  7  9  1  0  0  0
M  END
> <minimizedAffinity>
-5.81590

$$$$
5NZN_G39_A_503


 24 24  0  0  0  0  0  0  0  0999 V2000
   44.7600   -1.5596   17.3994 C   0  0  0  0  0  0  0  0  0  0  0  0
   44.2813   -0.1261   17.3286 C   0  0  0  0  0  0  0  0  0  0  0  0
   43.2609    0.2393   18.4124 C   0  0  0  0  0  0  0  0  0  0  0  0
   43.7777   -0.2152   19.7718 C   0  0  0  0  0  0  0  0  0  0  0  0
   43.9740   -1.7099   19.7914 C   0  0  0  0  0  0  0  0  0  0  0  0
   44.7064   -2.2355   18.5470 C   0  0  0  0  0  0  0  0  0  0  0  0
   43.0568    1.6885   18.3652 N   0  0  0  0  0  0  0  0  0  0  0  0
   43.9463    2.1624   18.5222 H   0  0  0  0  0  0  0  0  0  0  0  0
   42.3932    1.9622   19.0899 H   0  0  0  0  0  0  0  0  0  0  0  0
   42.8010    0.0923   20.7843 N   0  0  0  0  0  0  0  0  0  0  0  0
   43.0862    0.8414   21.8324 C   0  0  0  0  0  0  0  0  0  0  0  0
   44.1377    1.3536   22.0281 O   0  0  0  0  0  0  0  0  0  0  0  0
   41.9084    1.0973   22.7732 C   0  0  0  0  0  0  0  0  0  0  0  0
   41.8897   -0.2686   20.6914 H   0  0  0  0  0  0  0  0  0  0  0  0
   45.2357   -2.2028   16.1619 C   0  0  0  0  0  0  0  0  0  0  0  0
   44.4200   -2.7557   15.3430 O   0  0  0  0  0  0  0  0  0  0  0  0
   46.4779   -2.2027   15.9705 O   0  0  0  0  0  0  0  0  0  0  0  0
   47.0472   -1.7891   16.5892 H   0  0  0  0  0  0  0  0  0  0  0  0
   44.6760   -2.1207   20.9711 O   0  0  0  0  0  0  0  0  0  0  0  0
   43.9178   -3.1100   21.7088 C   0  0  0  0  0  0  0  0  0  0  0  0
   44.6092   -4.4973   21.8435 C   0  0  0  0  0  0  0  0  0  0  0  0
   45.9883   -4.5553   21.1945 C   0  0  0  0  0  0  0  0  0  0  0  0
   43.6065   -2.5717   23.0853 C   0  0  0  0  0  0  0  0  0  0  0  0
   44.7768   -1.9173   23.7590 C   0  0  0  0  0  0  0  0  0  0  0  0
 15 16  2  0  0  0
 15 17  1  0  0  0
 15  1  1  0  0  0
  1  2  1  0  0  0
  1  6  2  0  0  0
  2  3  1  0  0  0
  3  4  1  0  0  0
  3  7  1  0  0  0
  4 10  1  0  0  0
  4  5  1  0  0  0
 10 11  1  0  0  0
 11 12  2  0  0  0
 11 13  1  0  0  0
  5  6  1  0  0  0
  5 19  1  0  0  0
 19 20  1  0  0  0
 20 21  1  0  0  0
 20 23  1  0  0  0
 21 22  1  0  0  0
 23 24  1  0  0  0
 17 18  1  0  0  0
 10 14  1  0  0  0
  7  8  1  0  0  0
  7  9  1  0  0  0
M  END
> <minimizedAffinity>
-5.77729

$$$$
5NZN_G39_A_503


 24 24  0  0  0  0  0  0  0  0999 V2000
   43.3016   -1.6400   21.9197 C   0  0  0  0  0  0  0  0  0  0  0  0
   42.8104   -0.2849   21.4597 C   0  0  0  0  0  0  0  0  0  0  0  0
   43.6757    0.3471   20.3637 C   0  0  0  0  0  0  0  0  0  0  0  0
   43.9226   -0.6727   19.2590 C   0  0  0  0  0  0  0  0  0  0  0  0
   44.6510   -1.8760   19.8018 C   0  0  0  0  0  0  0  0  0  0  0  0
   44.0547   -2.3946   21.1196 C   0  0  0  0  0  0  0  0  0  0  0  0
   42.9721    1.5301   19.8641 N   0  0  0  0  0  0  0  0  0  0  0  0
   42.0599    1.2548   19.5001 H   0  0  0  0  0  0  0  0  0  0  0  0
   43.5192    1.9618   19.1193 H   0  0  0  0  0  0  0  0  0  0  0  0
   44.7686   -0.0914   18.2490 N   0  0  0  0  0  0  0  0  0  0  0  0
   44.4441   -0.0987   16.9700 C   0  0  0  0  0  0  0  0  0  0  0  0
   43.4344   -0.5422   16.5339 O   0  0  0  0  0  0  0  0  0  0  0  0
   45.4438    0.6082   16.0541 C   0  0  0  0  0  0  0  0  0  0  0  0
   45.6177    0.3255   18.5220 H   0  0  0  0  0  0  0  0  0  0  0  0
   42.9719   -2.0793   23.2871 C   0  0  0  0  0  0  0  0  0  0  0  0
   41.8188   -1.8548   23.7985 O   0  0  0  0  0  0  0  0  0  0  0  0
   43.8863   -2.6568   23.9274 O   0  0  0  0  0  0  0  0  0  0  0  0
   44.7188   -2.8057   23.5239 H   0  0  0  0  0  0  0  0  0  0  0  0
   44.6814   -2.9362   18.8383 O   0  0  0  0  0  0  0  0  0  0  0  0
   46.0216   -3.4649   18.6897 C   0  0  0  0  0  0  0  0  0  0  0  0
   47.1553   -2.5243   19.1904 C   0  0  0  0  0  0  0  0  0  0  0  0
   47.9449   -1.8690   18.0618 C   0  0  0  0  0  0  0  0  0  0  0  0
   46.1158   -4.7884   19.4115 C   0  0  0  0  0  0  0  0  0  0  0  0
   47.3426   -5.5807   19.0668 C   0  0  0  0  0  0  0  0  0  0  0  0
 15 16  2  0  0  0
 15 17  1  0  0  0
 15  1  1  0  0  0
  1  2  1  0  0  0
  1  6  2  0  0  0
  2  3  1  0  0  0
  3  4  1  0  0  0
  3  7  1  0  0  0
  4 10  1  0  0  0
  4  5  1  0  0  0
 10 11  1  0  0  0
 11 12  2  0  0  0
 11 13  1  0  0  0
  5  6  1  0  0  0
  5 19  1  0  0  0
 19 20  1  0  0  0
 20 21  1  0  0  0
 20 23  1  0  0  0
 21 22  1  0  0  0
 23 24  1  0  0  0
 17 18  1  0  0  0
 10 14  1  0  0  0
  7  8  1  0  0  0
  7  9  1  0  0  0
M  END
> <minimizedAffinity>
-5.77275

$$$$
5NZN_G39_A_503


 24 24  0  0  0  0  0  0  0  0999 V2000
   43.6431    0.0480   23.4153 C   0  0  0  0  0  0  0  0  0  0  0  0
   42.7864   -0.9163   22.6244 C   0  0  0  0  0  0  0  0  0  0  0  0
   43.2965   -1.1729   21.2020 C   0  0  0  0  0  0  0  0  0  0  0  0
   44.7842   -1.4987   21.2459 C   0  0  0  0  0  0  0  0  0  0  0  0
   45.5623   -0.3452   21.8266 C   0  0  0  0  0  0  0  0  0  0  0  0
   44.9273    0.2244   23.1047 C   0  0  0  0  0  0  0  0  0  0  0  0
   42.5150   -2.2754   20.6381 N   0  0  0  0  0  0  0  0  0  0  0  0
   42.6241   -3.1036   21.2233 H   0  0  0  0  0  0  0  0  0  0  0  0
   42.8462   -2.4794   19.6951 H   0  0  0  0  0  0  0  0  0  0  0  0
   45.2716   -1.7002   19.9059 N   0  0  0  0  0  0  0  0  0  0  0  0
   45.3992   -2.9025   19.3773 C   0  0  0  0  0  0  0  0  0  0  0  0
   45.1027   -3.9130   19.9226 O   0  0  0  0  0  0  0  0  0  0  0  0
   45.8859   -2.9137   17.9278 C   0  0  0  0  0  0  0  0  0  0  0  0
   45.5178   -0.9146   19.3661 H   0  0  0  0  0  0  0  0  0  0  0  0
   43.0116    0.8221   24.4986 C   0  0  0  0  0  0  0  0  0  0  0  0
   43.7138    1.4951   25.3326 O   0  0  0  0  0  0  0  0  0  0  0  0
   41.7584    0.7631   24.5743 O   0  0  0  0  0  0  0  0  0  0  0  0
   41.2743    0.2617   23.9480 H   0  0  0  0  0  0  0  0  0  0  0  0
   46.9192   -0.7220   22.0913 O   0  0  0  0  0  0  0  0  0  0  0  0
   46.9935   -2.0796   22.5906 C   0  0  0  0  0  0  0  0  0  0  0  0
   48.0967   -2.9587   21.9341 C   0  0  0  0  0  0  0  0  0  0  0  0
   48.8211   -2.2672   20.7836 C   0  0  0  0  0  0  0  0  0  0  0  0
   47.2048   -2.0476   24.0858 C   0  0  0  0  0  0  0  0  0  0  0  0
   46.1170   -2.7254   24.8662 C   0  0  0  0  0  0  0  0  0  0  0  0
 15 16  2  0  0  0
 15 17  1  0  0  0
 15  1  1  0  0  0
  1  2  1  0  0  0
  1  6  2  0  0  0
  2  3  1  0  0  0
  3  4  1  0  0  0
  3  7  1  0  0  0
  4 10  1  0  0  0
  4  5  1  0  0  0
 10 11  1  0  0  0
 11 12  2  0  0  0
 11 13  1  0  0  0
  5  6  1  0  0  0
  5 19  1  0  0  0
 19 20  1  0  0  0
 20 21  1  0  0  0
 20 23  1  0  0  0
 21 22  1  0  0  0
 23 24  1  0  0  0
 17 18  1  0  0  0
 10 14  1  0  0  0
  7  8  1  0  0  0
  7  9  1  0  0  0
M  END
> <minimizedAffinity>
-5.76147

$$$$
5NZN_G39_A_503


 24 24  0  0  0  0  0  0  0  0999 V2000
   45.3340   -3.0268   19.2769 C   0  0  0  0  0  0  0  0  0  0  0  0
   44.6778   -2.1516   18.2317 C   0  0  0  0  0  0  0  0  0  0  0  0
   43.4475   -1.3941   18.7433 C   0  0  0  0  0  0  0  0  0  0  0  0
   43.7851   -0.7056   20.0599 C   0  0  0  0  0  0  0  0  0  0  0  0
   44.1830   -1.7202   21.1017 C   0  0  0  0  0  0  0  0  0  0  0  0
   45.1821   -2.7618   20.5744 C   0  0  0  0  0  0  0  0  0  0  0  0
   43.0531   -0.4321   17.7123 N   0  0  0  0  0  0  0  0  0  0  0  0
   43.8276    0.2055   17.5279 H   0  0  0  0  0  0  0  0  0  0  0  0
   42.2445    0.0996   18.0348 H   0  0  0  0  0  0  0  0  0  0  0  0
   42.6176   -0.0273   20.5604 N   0  0  0  0  0  0  0  0  0  0  0  0
   42.6871    1.1519   21.1485 C   0  0  0  0  0  0  0  0  0  0  0  0
   43.6859    1.7748   21.2926 O   0  0  0  0  0  0  0  0  0  0  0  0
   41.3381    1.7353   21.5699 C   0  0  0  0  0  0  0  0  0  0  0  0
   41.7378   -0.4578   20.4605 H   0  0  0  0  0  0  0  0  0  0  0  0
   46.0980   -4.2041   18.8278 C   0  0  0  0  0  0  0  0  0  0  0  0
   45.7388   -5.3920   19.1463 O   0  0  0  0  0  0  0  0  0  0  0  0
   47.1281   -3.9779   18.1440 O   0  0  0  0  0  0  0  0  0  0  0  0
   47.3629   -3.0968   17.9282 H   0  0  0  0  0  0  0  0  0  0  0  0
   44.7256   -1.0791   22.2627 O   0  0  0  0  0  0  0  0  0  0  0  0
   44.2541   -1.7152   23.4755 C   0  0  0  0  0  0  0  0  0  0  0  0
   45.3755   -2.2465   24.4141 C   0  0  0  0  0  0  0  0  0  0  0  0
   46.7821   -2.0251   23.8674 C   0  0  0  0  0  0  0  0  0  0  0  0
   43.3827   -0.7455   24.2381 C   0  0  0  0  0  0  0  0  0  0  0  0
   44.0936    0.5078   24.6570 C   0  0  0  0  0  0  0  0  0  0  0  0
 15 16  2  0  0  0
 15 17  1  0  0  0
 15  1  1  0  0  0
  1  2  1  0  0  0
  1  6  2  0  0  0
  2  3  1  0  0  0
  3  4  1  0  0  0
  3  7  1  0  0  0
  4 10  1  0  0  0
  4  5  1  0  0  0
 10 11  1  0  0  0
 11 12  2  0  0  0
 11 13  1  0  0  0
  5  6  1  0  0  0
  5 19  1  0  0  0
 19 20  1  0  0  0
 20 21  1  0  0  0
 20 23  1  0  0  0
 21 22  1  0  0  0
 23 24  1  0  0  0
 17 18  1  0  0  0
 10 14  1  0  0  0
  7  8  1  0  0  0
  7  9  1  0  0  0
M  END
> <minimizedAffinity>
-5.70447

$$$$
5NZN_G39_A_503


 24 24  0  0  0  0  0  0  0  0999 V2000
   42.8522    0.5704   21.2006 C   0  0  0  0  0  0  0  0  0  0  0  0
   43.0468   -0.4662   22.2854 C   0  0  0  0  0  0  0  0  0  0  0  0
   43.4016   -1.8591   21.7531 C   0  0  0  0  0  0  0  0  0  0  0  0
   44.5360   -1.7438   20.7424 C   0  0  0  0  0  0  0  0  0  0  0  0
   44.1210   -0.8831   19.5761 C   0  0  0  0  0  0  0  0  0  0  0  0
   43.4261    0.4177   20.0073 C   0  0  0  0  0  0  0  0  0  0  0  0
   43.7752   -2.6938   22.8967 N   0  0  0  0  0  0  0  0  0  0  0  0
   44.5675   -2.2719   23.3811 H   0  0  0  0  0  0  0  0  0  0  0  0
   44.0337   -3.6243   22.5684 H   0  0  0  0  0  0  0  0  0  0  0  0
   44.8418   -3.0475   20.2129 N   0  0  0  0  0  0  0  0  0  0  0  0
   46.0707   -3.5279   20.1925 C   0  0  0  0  0  0  0  0  0  0  0  0
   47.0207   -2.9661   20.6264 O   0  0  0  0  0  0  0  0  0  0  0  0
   46.1917   -4.9473   19.6370 C   0  0  0  0  0  0  0  0  0  0  0  0
   44.1095   -3.5991   19.8541 H   0  0  0  0  0  0  0  0  0  0  0  0
   41.9741    1.7208   21.4782 C   0  0  0  0  0  0  0  0  0  0  0  0
   40.7499    1.5569   21.8190 O   0  0  0  0  0  0  0  0  0  0  0  0
   42.4815    2.8619   21.3362 O   0  0  0  0  0  0  0  0  0  0  0  0
   43.3804    2.9470   21.0860 H   0  0  0  0  0  0  0  0  0  0  0  0
   45.2434   -0.5739   18.7406 O   0  0  0  0  0  0  0  0  0  0  0  0
   44.8135   -0.2144   17.4051 C   0  0  0  0  0  0  0  0  0  0  0  0
   45.9607    0.1898   16.4349 C   0  0  0  0  0  0  0  0  0  0  0  0
   45.7814    1.5763   15.8250 C   0  0  0  0  0  0  0  0  0  0  0  0
   44.0363   -1.3636   16.8077 C   0  0  0  0  0  0  0  0  0  0  0  0
   44.8868   -2.5435   16.4387 C   0  0  0  0  0  0  0  0  0  0  0  0
 15 16  2  0  0  0
 15 17  1  0  0  0
 15  1  1  0  0  0
  1  2  1  0  0  0
  1  6  2  0  0  0
  2  3  1  0  0  0
  3  4  1  0  0  0
  3  7  1  0  0  0
  4 10  1  0  0  0
  4  5  1  0  0  0
 10 11  1  0  0  0
 11 12  2  0  0  0
 11 13  1  0  0  0
  5  6  1  0  0  0
  5 19  1  0  0  0
 19 20  1  0  0  0
 20 21  1  0  0  0
 20 23  1  0  0  0
 21 22  1  0  0  0
 23 24  1  0  0  0
 17 18  1  0  0  0
 10 14  1  0  0  0
  7  8  1  0  0  0
  7  9  1  0  0  0
M  END
> <minimizedAffinity>
-5.63658

$$$$
