3ACW_651_A_1001


 22 25  0  0  0  0  0  0  0  0999 V2000
   56.3613   17.5417   52.1027 C   0  0  0  0  0  0  0  0  0  0  0  0
   57.4116   17.0813   54.1607 C   0  0  0  0  0  0  0  0  0  0  0  0
   55.9357   16.2203   52.0043 C   0  0  0  0  0  0  0  0  0  0  0  0
   56.9751   15.7561   54.0828 C   0  0  0  0  0  0  0  0  0  0  0  0
   57.1176   18.0175   53.1705 C   0  0  0  0  0  0  0  0  0  0  0  0
   56.2463   15.2854   52.9884 C   0  0  0  0  0  0  0  0  0  0  0  0
   54.8788   13.6719   54.0180 O   0  0  0  0  0  0  0  0  0  0  0  0
   57.7799   12.7692   51.8200 C   0  0  0  0  0  0  0  0  0  0  0  0
   56.3763   11.4187   53.2347 C   0  0  0  0  0  0  0  0  0  0  0  0
   56.8985   12.2593   50.6840 C   0  0  0  0  0  0  0  0  0  0  0  0
   55.3327   11.1613   52.1498 C   0  0  0  0  0  0  0  0  0  0  0  0
   55.0326   13.5146   51.6289 C   0  0  0  0  0  0  0  0  0  0  0  0
   56.9071   12.8384   53.0677 C   0  0  0  0  0  0  0  0  0  0  0  0
   55.4903   12.2026   51.1191 N   0  0  0  0  0  0  0  0  0  0  0  0
   55.7771   13.8550   52.9187 C   0  0  0  0  0  0  0  0  0  0  0  0
   54.1489   14.3069   53.9483 H   0  0  0  0  0  0  0  0  0  0  0  0
   58.4129   22.0653   53.3398 C   0  0  0  0  0  0  0  0  0  0  0  0
   57.5454   21.6260   52.3383 C   0  0  0  0  0  0  0  0  0  0  0  0
   58.8124   21.1285   54.2900 C   0  0  0  0  0  0  0  0  0  0  0  0
   57.1218   20.2974   52.3094 C   0  0  0  0  0  0  0  0  0  0  0  0
   58.3970   19.7967   54.2296 C   0  0  0  0  0  0  0  0  0  0  0  0
   57.5390   19.3409   53.2342 C   0  0  0  0  0  0  0  0  0  0  0  0
  7 15  1  0  0  0
 17 18  2  0  0  0
 17 19  1  0  0  0
 18 20  1  0  0  0
 19 21  2  0  0  0
 20 22  2  0  0  0
 21 22  1  0  0  0
  1  3  2  0  0  0
  1  5  1  0  0  0
  2  4  1  0  0  0
  2  5  2  0  0  0
  3  6  1  0  0  0
  4  6  2  0  0  0
  8 10  1  0  0  0
  8 13  1  0  0  0
  9 11  1  0  0  0
  9 13  1  0  0  0
 10 14  1  0  0  0
 11 14  1  0  0  0
 12 14  1  0  0  0
 12 15  1  0  0  0
 22  5  1  0  0  0
  6 15  1  0  0  0
 13 15  1  0  0  0
  7 16  1  0  0  0
M  END
> <minimizedAffinity>
-11.22275

$$$$
3ACW_651_A_1001


 22 25  0  0  0  0  0  0  0  0999 V2000
   57.4153   17.0700   54.1257 C   0  0  0  0  0  0  0  0  0  0  0  0
   56.3288   17.5257   52.0855 C   0  0  0  0  0  0  0  0  0  0  0  0
   56.9891   15.7460   54.0770 C   0  0  0  0  0  0  0  0  0  0  0  0
   55.9097   16.1945   52.0156 C   0  0  0  0  0  0  0  0  0  0  0  0
   57.0964   18.0060   53.1455 C   0  0  0  0  0  0  0  0  0  0  0  0
   56.2087   15.2757   53.0241 C   0  0  0  0  0  0  0  0  0  0  0  0
   54.8501   13.6365   54.0244 O   0  0  0  0  0  0  0  0  0  0  0  0
   57.7774   12.7892   51.8391 C   0  0  0  0  0  0  0  0  0  0  0  0
   56.3769   11.4080   53.2270 C   0  0  0  0  0  0  0  0  0  0  0  0
   56.9102   12.2834   50.6903 C   0  0  0  0  0  0  0  0  0  0  0  0
   55.3445   11.1525   52.1310 C   0  0  0  0  0  0  0  0  0  0  0  0
   55.0241   13.5085   51.6349 C   0  0  0  0  0  0  0  0  0  0  0  0
   56.8943   12.8350   53.0805 C   0  0  0  0  0  0  0  0  0  0  0  0
   55.4993   12.2072   51.1137 N   0  0  0  0  0  0  0  0  0  0  0  0
   55.7550   13.8415   52.9344 C   0  0  0  0  0  0  0  0  0  0  0  0
   54.1142   14.2647   53.9562 H   0  0  0  0  0  0  0  0  0  0  0  0
   58.4184   22.0423   53.3745 C   0  0  0  0  0  0  0  0  0  0  0  0
   57.5463   21.6240   52.3679 C   0  0  0  0  0  0  0  0  0  0  0  0
   58.8134   21.0883   54.3095 C   0  0  0  0  0  0  0  0  0  0  0  0
   57.1140   20.2988   52.3195 C   0  0  0  0  0  0  0  0  0  0  0  0
   58.3892   19.7604   54.2294 C   0  0  0  0  0  0  0  0  0  0  0  0
   57.5265   19.3255   53.2287 C   0  0  0  0  0  0  0  0  0  0  0  0
  7 15  1  0  0  0
 17 18  2  0  0  0
 17 19  1  0  0  0
 18 20  1  0  0  0
 19 21  2  0  0  0
 20 22  2  0  0  0
 21 22  1  0  0  0
  1  3  2  0  0  0
  1  5  1  0  0  0
  2  4  1  0  0  0
  2  5  2  0  0  0
  3  6  1  0  0  0
  4  6  2  0  0  0
  8 10  1  0  0  0
  8 13  1  0  0  0
  9 11  1  0  0  0
  9 13  1  0  0  0
 10 14  1  0  0  0
 11 14  1  0  0  0
 12 14  1  0  0  0
 12 15  1  0  0  0
 22  5  1  0  0  0
  6 15  1  0  0  0
 13 15  1  0  0  0
  7 16  1  0  0  0
M  END
> <minimizedAffinity>
-11.21497

$$$$
3ACW_651_A_1001


 22 25  0  0  0  0  0  0  0  0999 V2000
   56.3034   16.4731   51.7529 C   0  0  0  0  0  0  0  0  0  0  0  0
   57.2798   16.0296   53.8505 C   0  0  0  0  0  0  0  0  0  0  0  0
   56.0360   15.1194   51.5715 C   0  0  0  0  0  0  0  0  0  0  0  0
   57.0008   14.6700   53.6888 C   0  0  0  0  0  0  0  0  0  0  0  0
   56.9389   16.9758   52.8851 C   0  0  0  0  0  0  0  0  0  0  0  0
   56.3935   14.1767   52.5319 C   0  0  0  0  0  0  0  0  0  0  0  0
   56.9009   12.2490   51.2828 O   0  0  0  0  0  0  0  0  0  0  0  0
   53.7103   12.6335   53.2153 C   0  0  0  0  0  0  0  0  0  0  0  0
   54.4190   10.9641   51.6323 C   0  0  0  0  0  0  0  0  0  0  0  0
   54.1015   11.6060   54.2729 C   0  0  0  0  0  0  0  0  0  0  0  0
   55.0796   10.0785   52.6867 C   0  0  0  0  0  0  0  0  0  0  0  0
   56.4325   11.8742   53.6058 C   0  0  0  0  0  0  0  0  0  0  0  0
   54.6348   12.4225   52.0220 C   0  0  0  0  0  0  0  0  0  0  0  0
   55.3403   10.9118   53.8737 N   0  0  0  0  0  0  0  0  0  0  0  0
   56.0936   12.7086   52.3719 C   0  0  0  0  0  0  0  0  0  0  0  0
   57.8356   12.4189   51.4790 H   0  0  0  0  0  0  0  0  0  0  0  0
   57.7643   21.1265   53.3117 C   0  0  0  0  0  0  0  0  0  0  0  0
   57.3452   20.5953   52.0908 C   0  0  0  0  0  0  0  0  0  0  0  0
   57.8749   20.2440   54.3838 C   0  0  0  0  0  0  0  0  0  0  0  0
   57.0662   19.2335   51.9763 C   0  0  0  0  0  0  0  0  0  0  0  0
   57.6150   18.8793   54.2428 C   0  0  0  0  0  0  0  0  0  0  0  0
   57.2039   18.3327   53.0316 C   0  0  0  0  0  0  0  0  0  0  0  0
  7 15  1  0  0  0
 17 18  2  0  0  0
 17 19  1  0  0  0
 18 20  1  0  0  0
 19 21  2  0  0  0
 20 22  2  0  0  0
 21 22  1  0  0  0
  1  3  2  0  0  0
  1  5  1  0  0  0
  2  4  1  0  0  0
  2  5  2  0  0  0
  3  6  1  0  0  0
  4  6  2  0  0  0
  8 10  1  0  0  0
  8 13  1  0  0  0
  9 11  1  0  0  0
  9 13  1  0  0  0
 10 14  1  0  0  0
 11 14  1  0  0  0
 12 14  1  0  0  0
 12 15  1  0  0  0
 22  5  1  0  0  0
  6 15  1  0  0  0
 13 15  1  0  0  0
  7 16  1  0  0  0
M  END
> <minimizedAffinity>
-10.66659

$$$$
3ACW_651_A_1001


 22 25  0  0  0  0  0  0  0  0999 V2000
   57.2399   16.0335   53.8625 C   0  0  0  0  0  0  0  0  0  0  0  0
   56.3419   16.4392   51.7226 C   0  0  0  0  0  0  0  0  0  0  0  0
   56.9710   14.6738   53.7368 C   0  0  0  0  0  0  0  0  0  0  0  0
   56.0831   15.0738   51.5764 C   0  0  0  0  0  0  0  0  0  0  0  0
   56.9298   16.9627   52.8732 C   0  0  0  0  0  0  0  0  0  0  0  0
   56.3686   14.1586   52.5920 C   0  0  0  0  0  0  0  0  0  0  0  0
   56.9278   12.2411   51.3495 O   0  0  0  0  0  0  0  0  0  0  0  0
   53.6869   12.5834   53.2046 C   0  0  0  0  0  0  0  0  0  0  0  0
   54.4526   10.9275   51.6340 C   0  0  0  0  0  0  0  0  0  0  0  0
   54.0636   11.5566   54.2681 C   0  0  0  0  0  0  0  0  0  0  0  0
   55.0971   10.0455   52.7014 C   0  0  0  0  0  0  0  0  0  0  0  0
   56.4070   11.8529   53.6591 C   0  0  0  0  0  0  0  0  0  0  0  0
   54.6425   12.3868   52.0335 C   0  0  0  0  0  0  0  0  0  0  0  0
   55.3194   10.8776   53.8970 N   0  0  0  0  0  0  0  0  0  0  0  0
   56.0891   12.6878   52.4199 C   0  0  0  0  0  0  0  0  0  0  0  0
   57.8554   12.4205   51.5690 H   0  0  0  0  0  0  0  0  0  0  0  0
   57.7404   21.1066   53.3859 C   0  0  0  0  0  0  0  0  0  0  0  0
   57.9193   20.2008   54.4328 C   0  0  0  0  0  0  0  0  0  0  0  0
   57.3108   20.5901   52.1656 C   0  0  0  0  0  0  0  0  0  0  0  0
   57.6611   18.8439   54.2391 C   0  0  0  0  0  0  0  0  0  0  0  0
   57.0336   19.2317   51.9987 C   0  0  0  0  0  0  0  0  0  0  0  0
   57.1994   18.3172   53.0335 C   0  0  0  0  0  0  0  0  0  0  0  0
  7 15  1  0  0  0
 17 18  2  0  0  0
 17 19  1  0  0  0
 18 20  1  0  0  0
 19 21  2  0  0  0
 20 22  2  0  0  0
 21 22  1  0  0  0
  1  3  2  0  0  0
  1  5  1  0  0  0
  2  4  1  0  0  0
  2  5  2  0  0  0
  3  6  1  0  0  0
  4  6  2  0  0  0
  8 10  1  0  0  0
  8 13  1  0  0  0
  9 11  1  0  0  0
  9 13  1  0  0  0
 10 14  1  0  0  0
 11 14  1  0  0  0
 12 14  1  0  0  0
 12 15  1  0  0  0
 22  5  1  0  0  0
  6 15  1  0  0  0
 13 15  1  0  0  0
  7 16  1  0  0  0
M  END
> <minimizedAffinity>
-10.60059

$$$$
3ACW_651_A_1001


 22 25  0  0  0  0  0  0  0  0999 V2000
   56.0267   16.0767   51.5205 C   0  0  0  0  0  0  0  0  0  0  0  0
   56.8848   15.4356   53.6188 C   0  0  0  0  0  0  0  0  0  0  0  0
   55.6331   14.7671   51.2617 C   0  0  0  0  0  0  0  0  0  0  0  0
   56.4785   14.1203   53.3790 C   0  0  0  0  0  0  0  0  0  0  0  0
   56.6710   16.4572   52.6946 C   0  0  0  0  0  0  0  0  0  0  0  0
   55.8639   13.7475   52.1815 C   0  0  0  0  0  0  0  0  0  0  0  0
   54.1472   12.4033   51.2986 O   0  0  0  0  0  0  0  0  0  0  0  0
   56.5984   11.1514   53.8455 C   0  0  0  0  0  0  0  0  0  0  0  0
   54.5871   10.1704   52.9580 C   0  0  0  0  0  0  0  0  0  0  0  0
   57.3204   10.2387   52.8592 C   0  0  0  0  0  0  0  0  0  0  0  0
   55.2954    9.4972   51.7843 C   0  0  0  0  0  0  0  0  0  0  0  0
   56.3695   11.5404   51.0285 C   0  0  0  0  0  0  0  0  0  0  0  0
   55.2569   11.5151   53.2199 C   0  0  0  0  0  0  0  0  0  0  0  0
   56.5831   10.1847   51.5828 N   0  0  0  0  0  0  0  0  0  0  0  0
   55.4260   12.3264   51.9371 C   0  0  0  0  0  0  0  0  0  0  0  0
   54.2256   12.9150   50.4783 H   0  0  0  0  0  0  0  0  0  0  0  0
   57.8578   20.4799   53.4023 C   0  0  0  0  0  0  0  0  0  0  0  0
   57.9392   19.5153   54.4081 C   0  0  0  0  0  0  0  0  0  0  0  0
   57.3964   20.0611   52.1565 C   0  0  0  0  0  0  0  0  0  0  0  0
   57.5581   18.1986   54.1506 C   0  0  0  0  0  0  0  0  0  0  0  0
   56.9960   18.7434   51.9256 C   0  0  0  0  0  0  0  0  0  0  0  0
   57.0636   17.7719   52.9187 C   0  0  0  0  0  0  0  0  0  0  0  0
  7 15  1  0  0  0
 17 18  2  0  0  0
 17 19  1  0  0  0
 18 20  1  0  0  0
 19 21  2  0  0  0
 20 22  2  0  0  0
 21 22  1  0  0  0
  1  3  2  0  0  0
  1  5  1  0  0  0
  2  4  1  0  0  0
  2  5  2  0  0  0
  3  6  1  0  0  0
  4  6  2  0  0  0
  8 10  1  0  0  0
  8 13  1  0  0  0
  9 11  1  0  0  0
  9 13  1  0  0  0
 10 14  1  0  0  0
 11 14  1  0  0  0
 12 14  1  0  0  0
 12 15  1  0  0  0
 22  5  1  0  0  0
  6 15  1  0  0  0
 13 15  1  0  0  0
  7 16  1  0  0  0
M  END
> <minimizedAffinity>
-9.96301

$$$$
3ACW_651_A_1001


 22 25  0  0  0  0  0  0  0  0999 V2000
   55.9635   14.7581   51.6468 C   0  0  0  0  0  0  0  0  0  0  0  0
   56.4116   14.1533   53.8792 C   0  0  0  0  0  0  0  0  0  0  0  0
   55.5783   13.4536   51.3522 C   0  0  0  0  0  0  0  0  0  0  0  0
   56.0103   12.8440   53.6012 C   0  0  0  0  0  0  0  0  0  0  0  0
   56.4007   15.1535   52.9081 C   0  0  0  0  0  0  0  0  0  0  0  0
   55.6068   12.4548   52.3220 C   0  0  0  0  0  0  0  0  0  0  0  0
   56.1925   10.4631   51.2157 O   0  0  0  0  0  0  0  0  0  0  0  0
   52.6585   11.3037   52.1467 C   0  0  0  0  0  0  0  0  0  0  0  0
   53.5673    9.5366   50.7877 C   0  0  0  0  0  0  0  0  0  0  0  0
   52.5809   10.2426   53.2401 C   0  0  0  0  0  0  0  0  0  0  0  0
   53.7647    8.5789   51.9609 C   0  0  0  0  0  0  0  0  0  0  0  0
   55.0189   10.1797   53.2890 C   0  0  0  0  0  0  0  0  0  0  0  0
   53.8543   10.9551   51.2682 C   0  0  0  0  0  0  0  0  0  0  0  0
   53.7767    9.3801   53.1975 N   0  0  0  0  0  0  0  0  0  0  0  0
   55.1716   11.0406   52.0363 C   0  0  0  0  0  0  0  0  0  0  0  0
   57.0428   10.5042   51.6806 H   0  0  0  0  0  0  0  0  0  0  0  0
   57.5981   19.1616   53.6782 C   0  0  0  0  0  0  0  0  0  0  0  0
   56.6057   18.8719   52.7402 C   0  0  0  0  0  0  0  0  0  0  0  0
   58.1569   18.0858   54.3644 C   0  0  0  0  0  0  0  0  0  0  0  0
   56.2182   17.5515   52.5132 C   0  0  0  0  0  0  0  0  0  0  0  0
   57.7729   16.7686   54.1050 C   0  0  0  0  0  0  0  0  0  0  0  0
   56.7913   16.4622   53.1683 C   0  0  0  0  0  0  0  0  0  0  0  0
  7 15  1  0  0  0
 17 18  2  0  0  0
 17 19  1  0  0  0
 18 20  1  0  0  0
 19 21  2  0  0  0
 20 22  2  0  0  0
 21 22  1  0  0  0
  1  3  2  0  0  0
  1  5  1  0  0  0
  2  4  1  0  0  0
  2  5  2  0  0  0
  3  6  1  0  0  0
  4  6  2  0  0  0
  8 10  1  0  0  0
  8 13  1  0  0  0
  9 11  1  0  0  0
  9 13  1  0  0  0
 10 14  1  0  0  0
 11 14  1  0  0  0
 12 14  1  0  0  0
 12 15  1  0  0  0
 22  5  1  0  0  0
  6 15  1  0  0  0
 13 15  1  0  0  0
  7 16  1  0  0  0
M  END
> <minimizedAffinity>
-9.93142

$$$$
3ACW_651_A_1001


 22 25  0  0  0  0  0  0  0  0999 V2000
   56.0724   15.7307   52.5250 C   0  0  0  0  0  0  0  0  0  0  0  0
   57.1376   15.4496   54.6074 C   0  0  0  0  0  0  0  0  0  0  0  0
   56.6367   16.9954   52.3872 C   0  0  0  0  0  0  0  0  0  0  0  0
   57.7249   16.7104   54.4730 C   0  0  0  0  0  0  0  0  0  0  0  0
   56.2909   14.9193   53.6351 C   0  0  0  0  0  0  0  0  0  0  0  0
   57.4687   17.5268   53.3692 C   0  0  0  0  0  0  0  0  0  0  0  0
   59.5256   18.6663   53.3031 O   0  0  0  0  0  0  0  0  0  0  0  0
   56.3017   20.3493   54.2175 C   0  0  0  0  0  0  0  0  0  0  0  0
   58.5813   21.1156   54.3240 C   0  0  0  0  0  0  0  0  0  0  0  0
   56.2311   21.1549   52.9239 C   0  0  0  0  0  0  0  0  0  0  0  0
   58.5872   21.6586   52.8966 C   0  0  0  0  0  0  0  0  0  0  0  0
   57.7983   19.5827   51.9128 C   0  0  0  0  0  0  0  0  0  0  0  0
   57.7344   19.8479   54.3554 C   0  0  0  0  0  0  0  0  0  0  0  0
   57.4868   21.0077   52.1640 N   0  0  0  0  0  0  0  0  0  0  0  0
   58.1123   18.8827   53.2338 C   0  0  0  0  0  0  0  0  0  0  0  0
   59.7939   18.0548   52.5996 H   0  0  0  0  0  0  0  0  0  0  0  0
   54.4798   11.0889   54.0088 C   0  0  0  0  0  0  0  0  0  0  0  0
   53.7439   12.2582   54.2082 C   0  0  0  0  0  0  0  0  0  0  0  0
   55.8204   11.2340   53.6594 C   0  0  0  0  0  0  0  0  0  0  0  0
   54.3540   13.5045   54.0668 C   0  0  0  0  0  0  0  0  0  0  0  0
   56.4193   12.4904   53.5471 C   0  0  0  0  0  0  0  0  0  0  0  0
   55.7023   13.6650   53.7498 C   0  0  0  0  0  0  0  0  0  0  0  0
  7 15  1  0  0  0
 17 18  2  0  0  0
 17 19  1  0  0  0
 18 20  1  0  0  0
 19 21  2  0  0  0
 20 22  2  0  0  0
 21 22  1  0  0  0
  1  3  2  0  0  0
  1  5  1  0  0  0
  2  4  1  0  0  0
  2  5  2  0  0  0
  3  6  1  0  0  0
  4  6  2  0  0  0
  8 10  1  0  0  0
  8 13  1  0  0  0
  9 11  1  0  0  0
  9 13  1  0  0  0
 10 14  1  0  0  0
 11 14  1  0  0  0
 12 14  1  0  0  0
 12 15  1  0  0  0
 22  5  1  0  0  0
  6 15  1  0  0  0
 13 15  1  0  0  0
  7 16  1  0  0  0
M  END
> <minimizedAffinity>
-9.36053

$$$$
