5NXI_9DE_A_302
  RCSB PDB01131817373D
Coordinates from PDB:5NXI:A:302 Model:1 without hydrogens
 21 22  0  0  0  0            999 V2000
   -5.8530    6.1320   14.9420   C 0  0  0  0  0  0  0  0  0  0  0  0
   -6.2710    5.0080   15.6220   C 0  0  0  0  0  0  0  0  0  0  0  0
   -5.3930    3.9830   15.9740   C 0  0  0  0  0  0  0  0  0  0  0  0
   -6.0280    2.6350   16.8700   S 0  0  0  0  0  0  0  0  0  0  0  0
   -5.4920    2.7700   18.2670   O 0  0  0  0  0  0  0  0  0  0  0  0
   -7.5050    2.7090   16.8090   O 0  0  0  0  0  0  0  0  0  0  0  0
   -5.4690    1.2590   16.2030   N 0  0  0  0  0  0  0  0  0  0  0  0
   -4.0330    4.1230   15.6490   C 0  0  0  0  0  0  0  0  0  0  0  0
   -3.5920    5.2570   14.9450   C 0  0  0  0  0  0  0  0  0  0  0  0
   -4.5100    6.3000   14.5830   C 0  0  0  0  0  0  0  0  0  0  0  0
   -4.2110    7.4390   13.8710   N 0  0  0  0  0  0  0  0  0  0  0  0
   -2.6730    7.7550   13.3220   S 0  0  0  0  0  0  0  0  0  0  0  0
   -1.5910    7.4730   14.3980   O 0  0  0  0  0  0  0  0  0  0  0  0
   -2.3490    6.8790   12.0960   O 0  0  0  0  0  0  0  0  0  0  0  0
   -2.5930    9.4410   13.0970   C 0  0  0  0  0  0  0  0  0  0  0  0
   -2.0700   10.2190   14.1280   C 0  0  0  0  0  0  0  0  0  0  0  0
   -2.0410   11.5870   13.9500   C 0  0  0  0  0  0  0  0  0  0  0  0
   -2.5400   12.1310   12.7790   C 0  0  0  0  0  0  0  0  0  0  0  0
   -2.4970   13.9310   12.6090  Br 0  0  0  0  0  0  0  0  0  0  0  0
   -3.0690   11.3620   11.7550   C 0  0  0  0  0  0  0  0  0  0  0  0
   -3.1010    9.9920   11.9320   C 0  0  0  0  0  0  0  0  0  0  0  0
 20 21  2  0  0  0  0
 20 18  1  0  0  0  0
 21 15  1  0  0  0  0
 14 12  2  0  0  0  0
 19 18  1  0  0  0  0
 18 17  2  0  0  0  0
 15 12  1  0  0  0  0
 15 16  2  0  0  0  0
 12 11  1  0  0  0  0
 12 13  2  0  0  0  0
 11 10  1  0  0  0  0
 17 16  1  0  0  0  0
 10  1  2  0  0  0  0
 10  9  1  0  0  0  0
  1  2  1  0  0  0  0
  9  8  2  0  0  0  0
  2  3  2  0  0  0  0
  8  3  1  0  0  0  0
  3  4  1  0  0  0  0
  7  4  1  0  0  0  0
  6  4  2  0  0  0  0
  4  5  2  0  0  0  0
A    1
CAA
A    2
CAB
A    3
CAC
A    4
SAR
A    5
OAS
A    6
OAT
A    7
NAU
A    8
CAD
A    9
CAE
A   10
CAF
A   11
NAG
A   12
SAH
A   13
OAI
A   14
OAJ
A   15
CAK
A   16
CAL
A   17
CAM
A   18
CAN
A   19
BR
A   20
CAO
A   21
CAP
M  END
>  <InstanceId>
5NXI_9DE_A_302

>  <ChemCompId>
9DE

>  <PdbId>
5NXI

>  <ChainId>
A

>  <ResidueNumber>
302

>  <InsertionCode>


>  <Model>
1

>  <AltIds>


>  <MissingHeavyAtoms>
0

>  <ObservedFormula>
C12 N2 O4 Br S2

>  <Name>
4-[(4-bromophenyl)sulfonylamino]benzenesulfonamide

>  <SystematicName>
4-[(4-bromophenyl)sulfonylamino]benzenesulfonamide

>  <Synonyms>


>  <Type>
NON-POLYMER

>  <Formula>
C12 H11 Br N2 O4 S2

>  <MolecularWeight>
391.261

>  <ModifiedDate>
2018-01-12

>  <Parent>


>  <OneLetterCode>


>  <SubcomponentList>


>  <AmbiguousFlag>
N

>  <InChI>
InChI=1S/C12H11BrN2O4S2/c13-9-1-5-12(6-2-9)21(18,19)15-10-3-7-11(8-4-10)20(14,16)17/h1-8,15H,(H2,14,16,17)

>  <InChIKey>
NLJFWGABSSGIJO-UHFFFAOYSA-N

>  <SMILES>
c1cc(ccc1NS(=O)(=O)c2ccc(cc2)Br)S(=O)(=O)N

$$$$
