2HNC_1SA_A_265
  RCSB PDB12061705493D
Coordinates from PDB:2HNC:A:265 Model:1 without hydrogens
 10 10  0  0  0  0            999 V2000
   -5.8090    0.9480   16.5740   S 0  0  0  0  0  0  0  0  0  0  0  0
   -7.2360    1.0700   16.4500   O 0  0  0  0  0  0  0  0  0  0  0  0
   -5.3720    1.1730   17.9280   O 0  0  0  0  0  0  0  0  0  0  0  0
   -5.3340   -0.4610   16.0850   N 0  0  0  0  0  0  0  0  0  0  0  0
   -3.8050    2.3790   15.3710   N 0  0  0  0  0  0  0  0  0  0  0  0
   -3.5520    3.4730   14.5830   N 0  0  0  0  0  0  0  0  0  0  0  0
   -6.0920    3.5030   14.9420   S 0  0  0  0  0  0  0  0  0  0  0  0
   -5.1120    2.1980   15.5310   C 0  0  0  0  0  0  0  0  0  0  0  0
   -4.6210    4.2310   14.4250   C 0  0  0  0  0  0  0  0  0  0  0  0
   -4.5850    5.3490   13.6810   N 0  0  0  0  0  0  0  0  0  0  0  0
  1  2  2  0  0  0  0
  1  3  2  0  0  0  0
  1  4  1  0  0  0  0
  1  8  1  0  0  0  0
  5  6  1  0  0  0  0
  5  8  2  0  0  0  0
  6  9  2  0  0  0  0
  7  8  1  0  0  0  0
  7  9  1  0  0  0  0
  9 10  1  0  0  0  0
A    1
S1
A    2
O1
A    3
O2
A    4
N1
A    5
N2
A    6
N3
A    7
S2
A    8
C1
A    9
C2
A   10
N4
M  END
>  <InstanceId>
2HNC_1SA_A_265

>  <ChemCompId>
1SA

>  <PdbId>
2HNC

>  <ChainId>
A

>  <ResidueNumber>
265

>  <InsertionCode>


>  <Model>
1

>  <AltIds>


>  <MissingHeavyAtoms>
0

>  <ObservedFormula>
C2 N4 O2 S2

>  <Name>
5-AMINO-1,3,4-THIADIAZOLE-2-SULFONAMIDE

>  <SystematicName>
5-amino-1,3,4-thiadiazole-2-sulfonamide

>  <Synonyms>


>  <Type>
NON-POLYMER

>  <Formula>
C2 H4 N4 O2 S2

>  <MolecularWeight>
180.209

>  <ModifiedDate>
2011-06-04

>  <Parent>


>  <OneLetterCode>


>  <SubcomponentList>


>  <AmbiguousFlag>
N

>  <InChI>
InChI=1S/C2H4N4O2S2/c3-1-5-6-2(9-1)10(4,7)8/h(H2,3,5)(H2,4,7,8)

>  <InChIKey>
VGMVBPQOACUDRU-UHFFFAOYSA-N

>  <SMILES>
c1(nnc(s1)S(=O)(=O)N)N

$$$$
