2HNC_1SA_A_265


 14 14  0  0  0  0  0  0  0  0999 V2000
   -4.5764   -0.0224   15.1571 N   0  0  0  0  0  0  0  0  0  0  0  0
   -4.9671    0.1843   16.4558 N   0  0  0  0  0  0  0  0  0  0  0  0
   -5.3404    2.4423   15.2967 S   0  0  0  0  0  0  0  0  0  0  0  0
   -4.5966    1.1129   14.4662 C   0  0  0  0  0  0  0  0  0  0  0  0
   -5.5357    1.3637   16.6232 C   0  0  0  0  0  0  0  0  0  0  0  0
   -5.9834    1.7629   17.8252 N   0  0  0  0  0  0  0  0  0  0  0  0
   -6.0796    1.1104   18.5562 H   0  0  0  0  0  0  0  0  0  0  0  0
   -6.2153    2.7078   17.9752 H   0  0  0  0  0  0  0  0  0  0  0  0
   -4.2571    1.2115   12.7309 S   0  0  0  0  0  0  0  0  0  0  0  0
   -4.1832   -0.1439   12.2576 O   0  0  0  0  0  0  0  0  0  0  0  0
   -3.0124    1.9104   12.5379 O   0  0  0  0  0  0  0  0  0  0  0  0
   -5.4190    1.9797   12.0170 N   0  0  0  0  0  0  0  0  0  0  0  0
   -5.2248    2.0372   11.0173 H   0  0  0  0  0  0  0  0  0  0  0  0
   -5.4926    2.9206   12.4037 H   0  0  0  0  0  0  0  0  0  0  0  0
  9 10  2  0  0  0
  9 11  2  0  0  0
  9 12  1  0  0  0
  9  4  1  0  0  0
  1  2  1  0  0  0
  1  4  2  0  0  0
  2  5  2  0  0  0
  3  4  1  0  0  0
  3  5  1  0  0  0
  5  6  1  0  0  0
 12 13  1  0  0  0
 12 14  1  0  0  0
  6  7  1  0  0  0
  6  8  1  0  0  0
M  END
> <minimizedAffinity>
-5.59778

$$$$
2HNC_1SA_A_265


 14 14  0  0  0  0  0  0  0  0999 V2000
   -4.2060    0.4555   13.2888 N   0  0  0  0  0  0  0  0  0  0  0  0
   -4.2508    0.8357   11.9715 N   0  0  0  0  0  0  0  0  0  0  0  0
   -4.9458    2.9315   13.2777 S   0  0  0  0  0  0  0  0  0  0  0  0
   -4.6714    1.4174   14.0793 C   0  0  0  0  0  0  0  0  0  0  0  0
   -4.4584    2.1320   11.8340 C   0  0  0  0  0  0  0  0  0  0  0  0
   -4.5422    2.7047   10.6217 N   0  0  0  0  0  0  0  0  0  0  0  0
   -4.2514    2.2094    9.8221 H   0  0  0  0  0  0  0  0  0  0  0  0
   -4.8944    3.6197   10.5328 H   0  0  0  0  0  0  0  0  0  0  0  0
   -4.6657    1.3226   15.8477 S   0  0  0  0  0  0  0  0  0  0  0  0
   -5.4400    2.4408   16.3132 O   0  0  0  0  0  0  0  0  0  0  0  0
   -3.3045    1.3878   16.3141 O   0  0  0  0  0  0  0  0  0  0  0  0
   -5.3223   -0.0251   16.2979 N   0  0  0  0  0  0  0  0  0  0  0  0
   -5.3197   -0.0810   17.3164 H   0  0  0  0  0  0  0  0  0  0  0  0
   -4.7920   -0.8068   15.9131 H   0  0  0  0  0  0  0  0  0  0  0  0
  9 10  2  0  0  0
  9 11  2  0  0  0
  9 12  1  0  0  0
  9  4  1  0  0  0
  1  2  1  0  0  0
  1  4  2  0  0  0
  2  5  2  0  0  0
  3  4  1  0  0  0
  3  5  1  0  0  0
  5  6  1  0  0  0
 12 13  1  0  0  0
 12 14  1  0  0  0
  6  7  1  0  0  0
  6  8  1  0  0  0
M  END
> <minimizedAffinity>
-5.45439

$$$$
2HNC_1SA_A_265


 14 14  0  0  0  0  0  0  0  0999 V2000
   -4.1894    0.3119   13.3942 N   0  0  0  0  0  0  0  0  0  0  0  0
   -4.3229    0.6004   14.7286 N   0  0  0  0  0  0  0  0  0  0  0  0
   -4.8705    2.8010   13.5291 S   0  0  0  0  0  0  0  0  0  0  0  0
   -4.3208    1.4077   12.6535 C   0  0  0  0  0  0  0  0  0  0  0  0
   -4.8290    1.8027   14.9301 C   0  0  0  0  0  0  0  0  0  0  0  0
   -5.0334    2.2796   16.1693 N   0  0  0  0  0  0  0  0  0  0  0  0
   -5.0004    1.6711   16.9426 H   0  0  0  0  0  0  0  0  0  0  0  0
   -5.2164    3.2375   16.3041 H   0  0  0  0  0  0  0  0  0  0  0  0
   -4.3152    1.4014   10.8826 S   0  0  0  0  0  0  0  0  0  0  0  0
   -5.1768    0.3230   10.4812 O   0  0  0  0  0  0  0  0  0  0  0  0
   -2.9652    1.2031   10.4209 O   0  0  0  0  0  0  0  0  0  0  0  0
   -4.8658    2.7689   10.3564 N   0  0  0  0  0  0  0  0  0  0  0  0
   -4.8631    2.7667    9.3364 H   0  0  0  0  0  0  0  0  0  0  0  0
   -4.2741    3.5271   10.6963 H   0  0  0  0  0  0  0  0  0  0  0  0
  9 10  2  0  0  0
  9 11  2  0  0  0
  9 12  1  0  0  0
  9  4  1  0  0  0
  1  2  1  0  0  0
  1  4  2  0  0  0
  2  5  2  0  0  0
  3  4  1  0  0  0
  3  5  1  0  0  0
  5  6  1  0  0  0
 12 13  1  0  0  0
 12 14  1  0  0  0
  6  7  1  0  0  0
  6  8  1  0  0  0
M  END
> <minimizedAffinity>
-5.35385

$$$$
2HNC_1SA_A_265


 14 14  0  0  0  0  0  0  0  0999 V2000
   -3.9059    2.2046   15.9806 N   0  0  0  0  0  0  0  0  0  0  0  0
   -3.4549    3.0647   15.0118 N   0  0  0  0  0  0  0  0  0  0  0  0
   -5.9808    3.4946   15.1390 S   0  0  0  0  0  0  0  0  0  0  0  0
   -5.2323    2.2302   16.0617 C   0  0  0  0  0  0  0  0  0  0  0  0
   -4.3940    3.9021   14.6127 C   0  0  0  0  0  0  0  0  0  0  0  0
   -4.1565    4.8225   13.6635 N   0  0  0  0  0  0  0  0  0  0  0  0
   -3.2313    5.0238   13.3934 H   0  0  0  0  0  0  0  0  0  0  0  0
   -4.9075    5.2958   13.2378 H   0  0  0  0  0  0  0  0  0  0  0  0
   -6.1588    1.3299   17.2730 S   0  0  0  0  0  0  0  0  0  0  0  0
   -6.1706    2.1441   18.4577 O   0  0  0  0  0  0  0  0  0  0  0  0
   -5.5150    0.0624   17.5056 O   0  0  0  0  0  0  0  0  0  0  0  0
   -7.6160    1.1022   16.7488 N   0  0  0  0  0  0  0  0  0  0  0  0
   -8.1508    0.5837   17.4456 H   0  0  0  0  0  0  0  0  0  0  0  0
   -7.5853    0.5705   15.8789 H   0  0  0  0  0  0  0  0  0  0  0  0
  9 10  2  0  0  0
  9 11  2  0  0  0
  9 12  1  0  0  0
  9  4  1  0  0  0
  1  2  1  0  0  0
  1  4  2  0  0  0
  2  5  2  0  0  0
  3  4  1  0  0  0
  3  5  1  0  0  0
  5  6  1  0  0  0
 12 13  1  0  0  0
 12 14  1  0  0  0
  6  7  1  0  0  0
  6  8  1  0  0  0
M  END
> <minimizedAffinity>
-5.33668

$$$$
2HNC_1SA_A_265


 14 14  0  0  0  0  0  0  0  0999 V2000
   -6.2061    3.1023   15.7331 N   0  0  0  0  0  0  0  0  0  0  0  0
   -6.3735    4.3370   15.1591 N   0  0  0  0  0  0  0  0  0  0  0  0
   -4.4722    3.2505   13.8227 S   0  0  0  0  0  0  0  0  0  0  0  0
   -5.1550    2.4742   15.2160 C   0  0  0  0  0  0  0  0  0  0  0  0
   -5.6556    4.4770   14.0604 C   0  0  0  0  0  0  0  0  0  0  0  0
   -5.6737    5.6176   13.3507 N   0  0  0  0  0  0  0  0  0  0  0  0
   -6.3702    6.2922   13.5208 H   0  0  0  0  0  0  0  0  0  0  0  0
   -4.9903    5.7788   12.6606 H   0  0  0  0  0  0  0  0  0  0  0  0
   -4.6977    0.8161   15.6377 S   0  0  0  0  0  0  0  0  0  0  0  0
   -3.4147    0.9034   16.2802 O   0  0  0  0  0  0  0  0  0  0  0  0
   -4.6365    0.0283   14.4333 O   0  0  0  0  0  0  0  0  0  0  0  0
   -5.7620    0.2165   16.6163 N   0  0  0  0  0  0  0  0  0  0  0  0
   -5.4999   -0.7386   16.8600 H   0  0  0  0  0  0  0  0  0  0  0  0
   -6.6762    0.2132   16.1640 H   0  0  0  0  0  0  0  0  0  0  0  0
  9 10  2  0  0  0
  9 11  2  0  0  0
  9 12  1  0  0  0
  9  4  1  0  0  0
  1  2  1  0  0  0
  1  4  2  0  0  0
  2  5  2  0  0  0
  3  4  1  0  0  0
  3  5  1  0  0  0
  5  6  1  0  0  0
 12 13  1  0  0  0
 12 14  1  0  0  0
  6  7  1  0  0  0
  6  8  1  0  0  0
M  END
> <minimizedAffinity>
-5.26364

$$$$
2HNC_1SA_A_265


 14 14  0  0  0  0  0  0  0  0999 V2000
   -2.9522    2.7611   12.3996 N   0  0  0  0  0  0  0  0  0  0  0  0
   -1.7597    3.4327   12.4915 N   0  0  0  0  0  0  0  0  0  0  0  0
   -1.3791    1.6785   10.6586 S   0  0  0  0  0  0  0  0  0  0  0  0
   -2.8558    1.7286   11.5682 C   0  0  0  0  0  0  0  0  0  0  0  0
   -0.9167    3.0838   11.5375 C   0  0  0  0  0  0  0  0  0  0  0  0
    0.3111    3.6225   11.4542 N   0  0  0  0  0  0  0  0  0  0  0  0
    0.5317    4.4279   11.9757 H   0  0  0  0  0  0  0  0  0  0  0  0
    0.9903    3.2119   10.8718 H   0  0  0  0  0  0  0  0  0  0  0  0
   -4.2247    0.6982   11.1203 S   0  0  0  0  0  0  0  0  0  0  0  0
   -4.3503   -0.2809   12.1654 O   0  0  0  0  0  0  0  0  0  0  0  0
   -3.9493    0.0839    9.8469 O   0  0  0  0  0  0  0  0  0  0  0  0
   -5.5216    1.5694   11.0256 N   0  0  0  0  0  0  0  0  0  0  0  0
   -6.3110    0.9771   10.7677 H   0  0  0  0  0  0  0  0  0  0  0  0
   -5.3941    2.2931   10.3181 H   0  0  0  0  0  0  0  0  0  0  0  0
  9 10  2  0  0  0
  9 11  2  0  0  0
  9 12  1  0  0  0
  9  4  1  0  0  0
  1  2  1  0  0  0
  1  4  2  0  0  0
  2  5  2  0  0  0
  3  4  1  0  0  0
  3  5  1  0  0  0
  5  6  1  0  0  0
 12 13  1  0  0  0
 12 14  1  0  0  0
  6  7  1  0  0  0
  6  8  1  0  0  0
M  END
> <minimizedAffinity>
-5.21063

$$$$
2HNC_1SA_A_265


 14 14  0  0  0  0  0  0  0  0999 V2000
   -3.7527    2.1424   15.5373 N   0  0  0  0  0  0  0  0  0  0  0  0
   -4.0061    1.0617   16.3434 N   0  0  0  0  0  0  0  0  0  0  0  0
   -6.2467    2.3022   16.1948 S   0  0  0  0  0  0  0  0  0  0  0  0
   -4.8060    2.9509   15.4779 C   0  0  0  0  0  0  0  0  0  0  0  0
   -5.2910    0.9350   16.6174 C   0  0  0  0  0  0  0  0  0  0  0  0
   -5.7476   -0.0582   17.3983 N   0  0  0  0  0  0  0  0  0  0  0  0
   -5.1652   -0.8219   17.6144 H   0  0  0  0  0  0  0  0  0  0  0  0
   -6.6647   -0.0222   17.7546 H   0  0  0  0  0  0  0  0  0  0  0  0
   -4.8817    4.3896   14.4481 S   0  0  0  0  0  0  0  0  0  0  0  0
   -3.5800    4.9968   14.5086 O   0  0  0  0  0  0  0  0  0  0  0  0
   -5.9032    5.2711   14.9523 O   0  0  0  0  0  0  0  0  0  0  0  0
   -5.2200    3.9614   12.9811 N   0  0  0  0  0  0  0  0  0  0  0  0
   -5.2639    4.7892   12.3868 H   0  0  0  0  0  0  0  0  0  0  0  0
   -6.1210    3.4835   12.9656 H   0  0  0  0  0  0  0  0  0  0  0  0
  9 10  2  0  0  0
  9 11  2  0  0  0
  9 12  1  0  0  0
  9  4  1  0  0  0
  1  2  1  0  0  0
  1  4  2  0  0  0
  2  5  2  0  0  0
  3  4  1  0  0  0
  3  5  1  0  0  0
  5  6  1  0  0  0
 12 13  1  0  0  0
 12 14  1  0  0  0
  6  7  1  0  0  0
  6  8  1  0  0  0
M  END
> <minimizedAffinity>
-5.18414

$$$$
2HNC_1SA_A_265


 14 14  0  0  0  0  0  0  0  0999 V2000
   -4.1959    0.7254   13.5000 N   0  0  0  0  0  0  0  0  0  0  0  0
   -4.3181    1.7537   14.3996 N   0  0  0  0  0  0  0  0  0  0  0  0
   -3.9360    2.9075   12.1404 S   0  0  0  0  0  0  0  0  0  0  0  0
   -3.8634    1.1810   12.2965 C   0  0  0  0  0  0  0  0  0  0  0  0
   -4.3676    2.9316   13.8060 C   0  0  0  0  0  0  0  0  0  0  0  0
   -4.4801    4.0692   14.5118 N   0  0  0  0  0  0  0  0  0  0  0  0
   -4.7297    4.0353   15.4635 H   0  0  0  0  0  0  0  0  0  0  0  0
   -4.3130    4.9366   14.0772 H   0  0  0  0  0  0  0  0  0  0  0  0
   -3.7238    0.1522   10.8619 S   0  0  0  0  0  0  0  0  0  0  0  0
   -3.5172   -1.1860   11.3449 O   0  0  0  0  0  0  0  0  0  0  0  0
   -2.6123    0.6079   10.0671 O   0  0  0  0  0  0  0  0  0  0  0  0
   -5.0473    0.2375   10.0306 N   0  0  0  0  0  0  0  0  0  0  0  0
   -4.9683   -0.3547    9.2039 H   0  0  0  0  0  0  0  0  0  0  0  0
   -5.2066    1.2031    9.7432 H   0  0  0  0  0  0  0  0  0  0  0  0
  9 10  2  0  0  0
  9 11  2  0  0  0
  9 12  1  0  0  0
  9  4  1  0  0  0
  1  2  1  0  0  0
  1  4  2  0  0  0
  2  5  2  0  0  0
  3  4  1  0  0  0
  3  5  1  0  0  0
  5  6  1  0  0  0
 12 13  1  0  0  0
 12 14  1  0  0  0
  6  7  1  0  0  0
  6  8  1  0  0  0
M  END
> <minimizedAffinity>
-5.00253

$$$$
2HNC_1SA_A_265


 14 14  0  0  0  0  0  0  0  0999 V2000
   -6.4656    3.7013   15.5607 N   0  0  0  0  0  0  0  0  0  0  0  0
   -5.9370    4.3547   14.4766 N   0  0  0  0  0  0  0  0  0  0  0  0
   -4.7441    2.0838   14.5129 S   0  0  0  0  0  0  0  0  0  0  0  0
   -5.8384    2.5494   15.7762 C   0  0  0  0  0  0  0  0  0  0  0  0
   -5.1589    3.5712   13.7534 C   0  0  0  0  0  0  0  0  0  0  0  0
   -4.5384    4.0226   12.6507 N   0  0  0  0  0  0  0  0  0  0  0  0
   -4.8091    4.8801   12.2498 H   0  0  0  0  0  0  0  0  0  0  0  0
   -3.8131    3.4960   12.2436 H   0  0  0  0  0  0  0  0  0  0  0  0
   -6.3200    1.3885   17.0238 S   0  0  0  0  0  0  0  0  0  0  0  0
   -7.6952    1.0626   16.7611 O   0  0  0  0  0  0  0  0  0  0  0  0
   -6.1564    1.9995   18.3179 O   0  0  0  0  0  0  0  0  0  0  0  0
   -5.4231    0.1100   16.9178 N   0  0  0  0  0  0  0  0  0  0  0  0
   -5.6994   -0.5596   17.6359 H   0  0  0  0  0  0  0  0  0  0  0  0
   -4.4455    0.3684   17.0520 H   0  0  0  0  0  0  0  0  0  0  0  0
  9 10  2  0  0  0
  9 11  2  0  0  0
  9 12  1  0  0  0
  9  4  1  0  0  0
  1  2  1  0  0  0
  1  4  2  0  0  0
  2  5  2  0  0  0
  3  4  1  0  0  0
  3  5  1  0  0  0
  5  6  1  0  0  0
 12 13  1  0  0  0
 12 14  1  0  0  0
  6  7  1  0  0  0
  6  8  1  0  0  0
M  END
> <minimizedAffinity>
-4.90210

$$$$
2HNC_1SA_A_265


 14 14  0  0  0  0  0  0  0  0999 V2000
   -1.5725    1.5727   11.4609 N   0  0  0  0  0  0  0  0  0  0  0  0
   -0.7061    2.6016   11.7301 N   0  0  0  0  0  0  0  0  0  0  0  0
   -3.0381    3.6624   11.8645 S   0  0  0  0  0  0  0  0  0  0  0  0
   -2.8233    2.0132   11.3703 C   0  0  0  0  0  0  0  0  0  0  0  0
   -1.3362    3.6950   12.1171 C   0  0  0  0  0  0  0  0  0  0  0  0
   -0.6677    4.8196   12.4225 N   0  0  0  0  0  0  0  0  0  0  0  0
    0.3069    4.7913   12.5584 H   0  0  0  0  0  0  0  0  0  0  0  0
   -1.1525    5.6719   12.5104 H   0  0  0  0  0  0  0  0  0  0  0  0
   -4.2226    0.9528   11.1389 S   0  0  0  0  0  0  0  0  0  0  0  0
   -3.9979    0.2538    9.9030 O   0  0  0  0  0  0  0  0  0  0  0  0
   -5.4151    1.7591   11.0842 O   0  0  0  0  0  0  0  0  0  0  0  0
   -4.3127   -0.0564   12.3319 N   0  0  0  0  0  0  0  0  0  0  0  0
   -5.1183   -0.6679   12.1999 H   0  0  0  0  0  0  0  0  0  0  0  0
   -4.4165    0.4588   13.2060 H   0  0  0  0  0  0  0  0  0  0  0  0
  9 10  2  0  0  0
  9 11  2  0  0  0
  9 12  1  0  0  0
  9  4  1  0  0  0
  1  2  1  0  0  0
  1  4  2  0  0  0
  2  5  2  0  0  0
  3  4  1  0  0  0
  3  5  1  0  0  0
  5  6  1  0  0  0
 12 13  1  0  0  0
 12 14  1  0  0  0
  6  7  1  0  0  0
  6  8  1  0  0  0
M  END
> <minimizedAffinity>
-4.88060

$$$$
