5DPX_L3B_A_403


 13 14  0  0  0  0  0  0  0  0999 V2000
   15.6747   29.7820   29.3675 C   0  0  0  0  0  0  0  0  0  0  0  0
   16.8043   29.4587   29.9618 C   0  0  0  0  0  0  0  0  0  0  0  0
   18.1349   29.7047   29.2574 C   0  0  0  0  0  0  0  0  0  0  0  0
   18.1505   30.2396   28.0553 C   0  0  0  0  0  0  0  0  0  0  0  0
   16.8421   30.6099   27.3622 C   0  0  0  0  0  0  0  0  0  0  0  0
   15.6928   30.3957   27.9668 C   0  0  0  0  0  0  0  0  0  0  0  0
   14.3986   30.7808   27.2509 C   0  0  0  0  0  0  0  0  0  0  0  0
   11.8473   30.0575   33.1202 S   0  0  0  0  0  0  0  0  0  0  0  0
   12.7427   29.5963   31.6137 C   0  0  0  0  0  0  0  0  0  0  0  0
   14.0091   30.0681   31.2706 N   0  0  0  0  0  0  0  0  0  0  0  0
   14.3590   29.5126   30.0853 C   0  0  0  0  0  0  0  0  0  0  0  0
   13.3169   28.6817   29.6694 N   0  0  0  0  0  0  0  0  0  0  0  0
   12.3262   28.7375   30.6226 N   0  0  0  0  0  0  0  0  0  0  0  0
  8  9  2  0  0  0
  9 13  1  0  0  0
  9 10  1  0  0  0
 13 12  2  0  0  0
  7  6  1  0  0  0
 10 11  2  0  0  0
 12 11  1  0  0  0
 11  1  1  0  0  0
  6  1  2  0  0  0
  6  5  1  0  0  0
  1  2  1  0  0  0
  5  4  2  0  0  0
  2  3  2  0  0  0
  4  3  1  0  0  0
M  END
> <minimizedAffinity>
-7.67423

$$$$
5DPX_L3B_A_403


 13 14  0  0  0  0  0  0  0  0999 V2000
   15.8087   29.9878   29.1505 C   0  0  0  0  0  0  0  0  0  0  0  0
   15.7570   30.4780   27.9296 C   0  0  0  0  0  0  0  0  0  0  0  0
   17.0444   30.7035   27.1427 C   0  0  0  0  0  0  0  0  0  0  0  0
   18.2052   30.4079   27.6873 C   0  0  0  0  0  0  0  0  0  0  0  0
   18.2677   29.8450   29.1045 C   0  0  0  0  0  0  0  0  0  0  0  0
   17.1585   29.6525   29.7864 C   0  0  0  0  0  0  0  0  0  0  0  0
   17.2510   29.0831   31.2017 C   0  0  0  0  0  0  0  0  0  0  0  0
   12.1335   30.4977   33.0288 S   0  0  0  0  0  0  0  0  0  0  0  0
   12.9554   29.9675   31.5032 C   0  0  0  0  0  0  0  0  0  0  0  0
   14.2254   30.3820   31.1039 N   0  0  0  0  0  0  0  0  0  0  0  0
   14.5107   29.7860   29.9209 C   0  0  0  0  0  0  0  0  0  0  0  0
   13.4236   28.9865   29.5629 N   0  0  0  0  0  0  0  0  0  0  0  0
   12.4711   29.1025   30.5490 N   0  0  0  0  0  0  0  0  0  0  0  0
  8  9  2  0  0  0
  9 13  1  0  0  0
  9 10  1  0  0  0
 13 12  2  0  0  0
  7  6  1  0  0  0
 10 11  2  0  0  0
 12 11  1  0  0  0
 11  1  1  0  0  0
  6  1  2  0  0  0
  6  5  1  0  0  0
  1  2  1  0  0  0
  5  4  2  0  0  0
  2  3  2  0  0  0
  4  3  1  0  0  0
M  END
> <minimizedAffinity>
-7.62103

$$$$
5DPX_L3B_A_403


 13 14  0  0  0  0  0  0  0  0999 V2000
   15.0626   30.0198   29.8820 C   0  0  0  0  0  0  0  0  0  0  0  0
   14.8501   30.4419   28.6531 C   0  0  0  0  0  0  0  0  0  0  0  0
   15.9931   30.4566   27.6428 C   0  0  0  0  0  0  0  0  0  0  0  0
   17.1907   30.0473   28.0029 C   0  0  0  0  0  0  0  0  0  0  0  0
   17.4406   29.5630   29.4284 C   0  0  0  0  0  0  0  0  0  0  0  0
   16.4567   29.5524   30.3026 C   0  0  0  0  0  0  0  0  0  0  0  0
   16.7348   29.0577   31.7216 C   0  0  0  0  0  0  0  0  0  0  0  0
   11.0026   28.2069   32.8883 S   0  0  0  0  0  0  0  0  0  0  0  0
   12.2200   29.3233   32.1429 C   0  0  0  0  0  0  0  0  0  0  0  0
   13.1786   28.9368   31.2068 N   0  0  0  0  0  0  0  0  0  0  0  0
   13.9090   30.0290   30.8760 C   0  0  0  0  0  0  0  0  0  0  0  0
   13.4165   31.1173   31.5987 N   0  0  0  0  0  0  0  0  0  0  0  0
   12.3712   30.6712   32.3741 N   0  0  0  0  0  0  0  0  0  0  0  0
  8  9  2  0  0  0
  9 13  1  0  0  0
  9 10  1  0  0  0
 13 12  2  0  0  0
  7  6  1  0  0  0
 10 11  2  0  0  0
 12 11  1  0  0  0
 11  1  1  0  0  0
  6  1  2  0  0  0
  6  5  1  0  0  0
  1  2  1  0  0  0
  5  4  2  0  0  0
  2  3  2  0  0  0
  4  3  1  0  0  0
M  END
> <minimizedAffinity>
-7.26821

$$$$
5DPX_L3B_A_403


 13 14  0  0  0  0  0  0  0  0999 V2000
   14.4828   29.3805   31.5704 C   0  0  0  0  0  0  0  0  0  0  0  0
   15.7053   29.8578   31.6762 C   0  0  0  0  0  0  0  0  0  0  0  0
   16.8446   29.2195   30.8877 C   0  0  0  0  0  0  0  0  0  0  0  0
   16.6026   28.1913   30.1031 C   0  0  0  0  0  0  0  0  0  0  0  0
   15.1873   27.6328   29.9834 C   0  0  0  0  0  0  0  0  0  0  0  0
   14.2033   28.1799   30.6651 C   0  0  0  0  0  0  0  0  0  0  0  0
   12.7954   27.6029   30.5221 C   0  0  0  0  0  0  0  0  0  0  0  0
   10.5966   29.9240   35.2324 S   0  0  0  0  0  0  0  0  0  0  0  0
   11.7476   30.2991   33.8839 C   0  0  0  0  0  0  0  0  0  0  0  0
   12.6852   29.4028   33.3722 N   0  0  0  0  0  0  0  0  0  0  0  0
   13.3654   30.0255   32.3794 C   0  0  0  0  0  0  0  0  0  0  0  0
   12.8614   31.3214   32.2528 N   0  0  0  0  0  0  0  0  0  0  0  0
   11.8602   31.4780   33.1833 N   0  0  0  0  0  0  0  0  0  0  0  0
  8  9  2  0  0  0
  9 13  1  0  0  0
  9 10  1  0  0  0
 13 12  2  0  0  0
  7  6  1  0  0  0
 10 11  2  0  0  0
 12 11  1  0  0  0
 11  1  1  0  0  0
  6  1  2  0  0  0
  6  5  1  0  0  0
  1  2  1  0  0  0
  5  4  2  0  0  0
  2  3  2  0  0  0
  4  3  1  0  0  0
M  END
> <minimizedAffinity>
-6.41917

$$$$
5DPX_L3B_A_403


 13 14  0  0  0  0  0  0  0  0999 V2000
   14.5602   29.2095   30.2187 C   0  0  0  0  0  0  0  0  0  0  0  0
   14.7855   30.1757   29.3532 C   0  0  0  0  0  0  0  0  0  0  0  0
   16.0692   30.1781   28.5290 C   0  0  0  0  0  0  0  0  0  0  0  0
   16.9501   29.2133   28.6859 C   0  0  0  0  0  0  0  0  0  0  0  0
   16.6936   28.0954   29.6928 C   0  0  0  0  0  0  0  0  0  0  0  0
   15.5882   28.0929   30.4072 C   0  0  0  0  0  0  0  0  0  0  0  0
   15.3557   26.9583   31.4043 C   0  0  0  0  0  0  0  0  0  0  0  0
   11.2444   30.1625   34.3302 S   0  0  0  0  0  0  0  0  0  0  0  0
   11.8649   29.6138   32.7185 C   0  0  0  0  0  0  0  0  0  0  0  0
   13.1827   29.7601   32.2868 N   0  0  0  0  0  0  0  0  0  0  0  0
   13.2783   29.2377   31.0402 C   0  0  0  0  0  0  0  0  0  0  0  0
   12.0212   28.7535   30.6735 N   0  0  0  0  0  0  0  0  0  0  0  0
   11.1573   28.9869   31.7186 N   0  0  0  0  0  0  0  0  0  0  0  0
  8  9  2  0  0  0
  9 13  1  0  0  0
  9 10  1  0  0  0
 13 12  2  0  0  0
  7  6  1  0  0  0
 10 11  2  0  0  0
 12 11  1  0  0  0
 11  1  1  0  0  0
  6  1  2  0  0  0
  6  5  1  0  0  0
  1  2  1  0  0  0
  5  4  2  0  0  0
  2  3  2  0  0  0
  4  3  1  0  0  0
M  END
> <minimizedAffinity>
-6.19489

$$$$
5DPX_L3B_A_403


 13 14  0  0  0  0  0  0  0  0999 V2000
   15.0613   29.2142   31.1481 C   0  0  0  0  0  0  0  0  0  0  0  0
   14.3650   30.2209   31.6332 C   0  0  0  0  0  0  0  0  0  0  0  0
   13.0202   29.9646   32.3062 C   0  0  0  0  0  0  0  0  0  0  0  0
   12.5581   28.7361   32.3998 C   0  0  0  0  0  0  0  0  0  0  0  0
   13.3609   27.5684   31.8330 C   0  0  0  0  0  0  0  0  0  0  0  0
   14.5199   27.7875   31.2492 C   0  0  0  0  0  0  0  0  0  0  0  0
   15.3043   26.5985   30.6951 C   0  0  0  0  0  0  0  0  0  0  0  0
   18.5757   30.3497   27.2536 S   0  0  0  0  0  0  0  0  0  0  0  0
   17.8884   29.9692   28.8866 C   0  0  0  0  0  0  0  0  0  0  0  0
   16.5350   29.7545   29.1446 N   0  0  0  0  0  0  0  0  0  0  0  0
   16.3938   29.4977   30.4675 C   0  0  0  0  0  0  0  0  0  0  0  0
   17.6581   29.5451   31.0576 N   0  0  0  0  0  0  0  0  0  0  0  0
   18.5739   29.8325   30.0718 N   0  0  0  0  0  0  0  0  0  0  0  0
  8  9  2  0  0  0
  9 13  1  0  0  0
  9 10  1  0  0  0
 13 12  2  0  0  0
  7  6  1  0  0  0
 10 11  2  0  0  0
 12 11  1  0  0  0
 11  1  1  0  0  0
  6  1  2  0  0  0
  6  5  1  0  0  0
  1  2  1  0  0  0
  5  4  2  0  0  0
  2  3  2  0  0  0
  4  3  1  0  0  0
M  END
> <minimizedAffinity>
-6.12125

$$$$
5DPX_L3B_A_403


 13 14  0  0  0  0  0  0  0  0999 V2000
   13.6328   29.5667   30.6318 C   0  0  0  0  0  0  0  0  0  0  0  0
   13.3566   30.4958   31.5228 C   0  0  0  0  0  0  0  0  0  0  0  0
   12.4458   30.1741   32.7036 C   0  0  0  0  0  0  0  0  0  0  0  0
   11.9371   28.9671   32.8286 C   0  0  0  0  0  0  0  0  0  0  0  0
   12.2514   27.8902   31.7937 C   0  0  0  0  0  0  0  0  0  0  0  0
   13.0344   28.1663   30.7725 C   0  0  0  0  0  0  0  0  0  0  0  0
   13.3357   27.0671   29.7544 C   0  0  0  0  0  0  0  0  0  0  0  0
   18.1131   30.2386   27.7537 S   0  0  0  0  0  0  0  0  0  0  0  0
   16.3624   30.2094   28.2207 C   0  0  0  0  0  0  0  0  0  0  0  0
   15.8829   29.8080   29.4670 N   0  0  0  0  0  0  0  0  0  0  0  0
   14.5324   29.9169   29.4540 C   0  0  0  0  0  0  0  0  0  0  0  0
   14.1459   30.3911   28.1990 N   0  0  0  0  0  0  0  0  0  0  0  0
   15.2839   30.5725   27.4472 N   0  0  0  0  0  0  0  0  0  0  0  0
  8  9  2  0  0  0
  9 13  1  0  0  0
  9 10  1  0  0  0
 13 12  2  0  0  0
  7  6  1  0  0  0
 10 11  2  0  0  0
 12 11  1  0  0  0
 11  1  1  0  0  0
  6  1  2  0  0  0
  6  5  1  0  0  0
  1  2  1  0  0  0
  5  4  2  0  0  0
  2  3  2  0  0  0
  4  3  1  0  0  0
M  END
> <minimizedAffinity>
-6.02280

$$$$
5DPX_L3B_A_403


 13 14  0  0  0  0  0  0  0  0999 V2000
   15.3485   28.2118   30.8086 C   0  0  0  0  0  0  0  0  0  0  0  0
   15.4330   26.9322   31.1071 C   0  0  0  0  0  0  0  0  0  0  0  0
   14.2253   26.2026   31.6873 C   0  0  0  0  0  0  0  0  0  0  0  0
   13.1007   26.8551   31.8891 C   0  0  0  0  0  0  0  0  0  0  0  0
   13.0024   28.3397   31.5491 C   0  0  0  0  0  0  0  0  0  0  0  0
   14.0439   28.9720   31.0513 C   0  0  0  0  0  0  0  0  0  0  0  0
   13.9151   30.4574   30.7158 C   0  0  0  0  0  0  0  0  0  0  0  0
   18.6847   30.3880   27.2111 S   0  0  0  0  0  0  0  0  0  0  0  0
   17.9866   29.8379   28.7903 C   0  0  0  0  0  0  0  0  0  0  0  0
   16.7681   29.1741   28.9280 N   0  0  0  0  0  0  0  0  0  0  0  0
   16.5725   28.9210   30.2447 C   0  0  0  0  0  0  0  0  0  0  0  0
   17.6679   29.4207   30.9515 N   0  0  0  0  0  0  0  0  0  0  0  0
   18.5367   29.9806   30.0434 N   0  0  0  0  0  0  0  0  0  0  0  0
  8  9  2  0  0  0
  9 13  1  0  0  0
  9 10  1  0  0  0
 13 12  2  0  0  0
  7  6  1  0  0  0
 10 11  2  0  0  0
 12 11  1  0  0  0
 11  1  1  0  0  0
  6  1  2  0  0  0
  6  5  1  0  0  0
  1  2  1  0  0  0
  5  4  2  0  0  0
  2  3  2  0  0  0
  4  3  1  0  0  0
M  END
> <minimizedAffinity>
-6.01149

$$$$
5DPX_L3B_A_403


 13 14  0  0  0  0  0  0  0  0999 V2000
   13.7554   28.3179   30.8004 C   0  0  0  0  0  0  0  0  0  0  0  0
   13.7428   27.0018   30.7630 C   0  0  0  0  0  0  0  0  0  0  0  0
   13.0173   26.2144   31.8497 C   0  0  0  0  0  0  0  0  0  0  0  0
   12.4056   26.8534   32.8238 C   0  0  0  0  0  0  0  0  0  0  0  0
   12.4239   28.3787   32.8723 C   0  0  0  0  0  0  0  0  0  0  0  0
   13.0518   29.0601   31.9375 C   0  0  0  0  0  0  0  0  0  0  0  0
   13.0495   30.5867   32.0088 C   0  0  0  0  0  0  0  0  0  0  0  0
   17.8502   30.2377   27.9099 S   0  0  0  0  0  0  0  0  0  0  0  0
   16.1645   29.8986   28.4821 C   0  0  0  0  0  0  0  0  0  0  0  0
   15.8482   29.1099   29.5876 N   0  0  0  0  0  0  0  0  0  0  0  0
   14.4993   29.0807   29.7123 C   0  0  0  0  0  0  0  0  0  0  0  0
   13.9504   29.8536   28.6874 N   0  0  0  0  0  0  0  0  0  0  0  0
   14.9875   30.3574   27.9366 N   0  0  0  0  0  0  0  0  0  0  0  0
  8  9  2  0  0  0
  9 13  1  0  0  0
  9 10  1  0  0  0
 13 12  2  0  0  0
  7  6  1  0  0  0
 10 11  2  0  0  0
 12 11  1  0  0  0
 11  1  1  0  0  0
  6  1  2  0  0  0
  6  5  1  0  0  0
  1  2  1  0  0  0
  5  4  2  0  0  0
  2  3  2  0  0  0
  4  3  1  0  0  0
M  END
> <minimizedAffinity>
-5.52147

$$$$
5DPX_L3B_A_403


 13 14  0  0  0  0  0  0  0  0999 V2000
   14.3818   27.8024   30.7959 C   0  0  0  0  0  0  0  0  0  0  0  0
   15.4822   27.4349   30.1732 C   0  0  0  0  0  0  0  0  0  0  0  0
   16.7185   28.3275   30.2174 C   0  0  0  0  0  0  0  0  0  0  0  0
   16.6820   29.4648   30.8781 C   0  0  0  0  0  0  0  0  0  0  0  0
   15.4057   29.8955   31.5958 C   0  0  0  0  0  0  0  0  0  0  0  0
   14.3369   29.1285   31.5565 C   0  0  0  0  0  0  0  0  0  0  0  0
   13.0745   29.5827   32.2883 C   0  0  0  0  0  0  0  0  0  0  0  0
    9.9777   25.4533   28.8227 S   0  0  0  0  0  0  0  0  0  0  0  0
   11.3264   25.8992   29.9480 C   0  0  0  0  0  0  0  0  0  0  0  0
   12.3266   26.8257   29.6557 N   0  0  0  0  0  0  0  0  0  0  0  0
   13.1564   26.9012   30.7243 C   0  0  0  0  0  0  0  0  0  0  0  0
   12.6862   26.0241   31.7034 N   0  0  0  0  0  0  0  0  0  0  0  0
   11.5536   25.4141   31.2154 N   0  0  0  0  0  0  0  0  0  0  0  0
  8  9  2  0  0  0
  9 13  1  0  0  0
  9 10  1  0  0  0
 13 12  2  0  0  0
  7  6  1  0  0  0
 10 11  2  0  0  0
 12 11  1  0  0  0
 11  1  1  0  0  0
  6  1  2  0  0  0
  6  5  1  0  0  0
  1  2  1  0  0  0
  5  4  2  0  0  0
  2  3  2  0  0  0
  4  3  1  0  0  0
M  END
> <minimizedAffinity>
-5.45888

$$$$
