2XYD_3ES_A_1611


 56 60  0  0  0  0  0  0  0  0999 V2000
    4.1277  -12.9870  -25.8800 C   0  0  0  0  0  0  0  0  0  0  0  0
    4.4903  -11.4984  -25.6666 C   0  0  0  0  0  0  0  0  0  0  0  0
    4.8385  -11.1061  -24.5496 O   0  0  0  0  0  0  0  0  0  0  0  0
    4.3108  -10.6649  -26.7062 N   0  0  0  0  0  0  0  0  0  0  0  0
    4.0379  -11.0251  -27.5808 H   0  0  0  0  0  0  0  0  0  0  0  0
    4.5218   -9.2046  -26.5424 C   0  0  0  0  0  0  0  0  0  0  0  0
    3.1730   -8.5166  -26.8041 C   0  0  0  0  0  0  0  0  0  0  0  0
    2.7374   -8.5086  -27.9758 O   0  0  0  0  0  0  0  0  0  0  0  0
    2.6005   -8.0072  -25.8150 O   0  0  0  0  0  0  0  0  0  0  0  0
    2.9965   -8.0574  -24.9673 H   0  0  0  0  0  0  0  0  0  0  0  0
    5.6242   -8.6170  -27.4465 C   0  0  0  0  0  0  0  0  0  0  0  0
    7.0464   -8.6328  -26.8720 C   0  0  0  0  0  0  0  0  0  0  0  0
    7.7150   -7.4432  -26.5738 C   0  0  0  0  0  0  0  0  0  0  0  0
    7.6665   -9.8545  -26.6194 C   0  0  0  0  0  0  0  0  0  0  0  0
    9.0071   -7.4781  -26.0353 C   0  0  0  0  0  0  0  0  0  0  0  0
    8.9533   -9.8949  -26.0857 C   0  0  0  0  0  0  0  0  0  0  0  0
    9.6260   -8.7091  -25.7925 C   0  0  0  0  0  0  0  0  0  0  0  0
   10.8913   -8.7776  -25.2714 O   0  0  0  0  0  0  0  0  0  0  0  0
   11.3577   -7.9907  -25.0686 H   0  0  0  0  0  0  0  0  0  0  0  0
    5.1348  -13.7554  -26.7494 C   0  0  0  0  0  0  0  0  0  0  0  0
    6.6174  -13.6985  -26.3214 C   0  0  0  0  0  0  0  0  0  0  0  0
    7.2498  -14.0369  -25.1953 C   0  0  0  0  0  0  0  0  0  0  0  0
    7.5535  -13.2618  -27.2054 O   0  0  0  0  0  0  0  0  0  0  0  0
    8.8061  -13.3395  -26.5753 N   0  0  0  0  0  0  0  0  0  0  0  0
    8.5721  -13.8074  -25.3519 C   0  0  0  0  0  0  0  0  0  0  0  0
    9.5882  -14.0407  -24.4353 C   0  0  0  0  0  0  0  0  0  0  0  0
   10.1298  -12.9993  -23.6768 C   0  0  0  0  0  0  0  0  0  0  0  0
   11.1408  -13.2806  -22.7497 C   0  0  0  0  0  0  0  0  0  0  0  0
   11.5877  -14.5926  -22.5734 C   0  0  0  0  0  0  0  0  0  0  0  0
   11.0452  -15.6401  -23.3231 C   0  0  0  0  0  0  0  0  0  0  0  0
   10.0376  -15.3642  -24.2519 C   0  0  0  0  0  0  0  0  0  0  0  0
    3.9158  -13.6861  -24.5083 C   0  0  0  0  0  0  0  0  0  0  0  0
    3.4285  -16.2338  -25.6885 O   0  0  0  0  0  0  0  0  0  0  0  0
    3.1003  -15.3136  -24.5641 P   0  0  0  0  0  0  0  0  0  0  0  0
    1.5399  -15.0765  -24.4125 O   0  0  0  0  0  0  0  0  0  0  0  0
    1.0791  -15.9296  -24.4389 H   0  0  0  0  0  0  0  0  0  0  0  0
    3.5996  -16.1607  -23.0034 C   0  0  0  0  0  0  0  0  0  0  0  0
    5.9596  -16.9081  -23.2979 C   0  0  0  0  0  0  0  0  0  0  0  0
    5.7007  -17.9902  -23.8410 O   0  0  0  0  0  0  0  0  0  0  0  0
    5.0456  -16.0123  -22.8894 N   0  0  0  0  0  0  0  0  0  0  0  0
    5.3813  -15.1836  -22.4774 H   0  0  0  0  0  0  0  0  0  0  0  0
    7.2411  -16.5684  -22.9901 O   0  0  0  0  0  0  0  0  0  0  0  0
    7.8633  -16.9544  -21.7692 C   0  0  0  0  0  0  0  0  0  0  0  0
    8.3070  -15.8794  -20.9902 C   0  0  0  0  0  0  0  0  0  0  0  0
    9.3035  -16.0936  -20.0309 C   0  0  0  0  0  0  0  0  0  0  0  0
    9.7709  -15.0310  -19.2593 C   0  0  0  0  0  0  0  0  0  0  0  0
    9.2491  -13.7505  -19.4464 C   0  0  0  0  0  0  0  0  0  0  0  0
    8.2647  -13.5277  -20.4094 C   0  0  0  0  0  0  0  0  0  0  0  0
    7.7941  -14.5911  -21.1835 C   0  0  0  0  0  0  0  0  0  0  0  0
    2.9499  -15.5127  -21.7436 C   0  0  0  0  0  0  0  0  0  0  0  0
    3.8965  -15.4585  -20.5020 C   0  0  0  0  0  0  0  0  0  0  0  0
    4.1394  -14.2526  -19.8395 C   0  0  0  0  0  0  0  0  0  0  0  0
    4.9818  -14.1854  -18.7188 C   0  0  0  0  0  0  0  0  0  0  0  0
    5.6133  -15.3325  -18.2385 C   0  0  0  0  0  0  0  0  0  0  0  0
    5.3696  -16.5419  -18.8931 C   0  0  0  0  0  0  0  0  0  0  0  0
    4.5224  -16.6078  -20.0178 C   0  0  0  0  0  0  0  0  0  0  0  0
 45 46  1  0  0  0
 45 44  2  0  0  0
 46 47  2  0  0  0
 47 48  1  0  0  0
 48 49  2  0  0  0
 49 44  1  0  0  0
 44 43  1  0  0  0
 43 42  1  0  0  0
 42 38  1  0  0  0
 38 39  2  0  0  0
 38 40  1  0  0  0
 40 37  1  0  0  0
 37 50  1  0  0  0
 37 34  1  0  0  0
 50 51  1  0  0  0
 51 52  1  0  0  0
 51 56  2  0  0  0
 52 53  2  0  0  0
 53 54  1  0  0  0
 54 55  2  0  0  0
 55 56  1  0  0  0
 34 35  1  0  0  0
 34 33  2  0  0  0
 34 32  1  0  0  0
 32  1  1  0  0  0
  1  2  1  0  0  0
  1 20  1  0  0  0
  2  3  2  0  0  0
  2  4  1  0  0  0
  4  6  1  0  0  0
  6  7  1  0  0  0
  6 11  1  0  0  0
  7  9  1  0  0  0
  7  8  2  0  0  0
 11 12  1  0  0  0
 12 13  1  0  0  0
 12 14  2  0  0  0
 13 15  2  0  0  0
 15 17  1  0  0  0
 17 18  1  0  0  0
 17 16  2  0  0  0
 16 14  1  0  0  0
 20 21  1  0  0  0
 21 22  2  0  0  0
 21 23  1  0  0  0
 22 25  1  0  0  0
 23 24  1  0  0  0
 24 25  2  0  0  0
 25 26  1  0  0  0
 26 27  1  0  0  0
 26 31  2  0  0  0
 27 28  2  0  0  0
 28 29  1  0  0  0
 29 30  2  0  0  0
 30 31  1  0  0  0
 35 36  1  0  0  0
 40 41  1  0  0  0
  4  5  1  0  0  0
 18 19  1  0  0  0
  9 10  1  0  0  0
M  END
> <minimizedAffinity>
-10.52645

$$$$
2XYD_3ES_A_1611


 56 60  0  0  0  0  0  0  0  0999 V2000
    2.7149  -14.6470  -22.3799 C   0  0  0  0  0  0  0  0  0  0  0  0
    1.5737  -15.5983  -22.8108 C   0  0  0  0  0  0  0  0  0  0  0  0
    1.8159  -16.5439  -23.5658 O   0  0  0  0  0  0  0  0  0  0  0  0
    0.3278  -15.2864  -22.4133 N   0  0  0  0  0  0  0  0  0  0  0  0
    0.1841  -14.5258  -21.8050 H   0  0  0  0  0  0  0  0  0  0  0  0
   -0.8324  -16.0826  -22.8867 C   0  0  0  0  0  0  0  0  0  0  0  0
   -2.0126  -15.1132  -23.0551 C   0  0  0  0  0  0  0  0  0  0  0  0
   -2.4940  -14.5923  -22.0258 O   0  0  0  0  0  0  0  0  0  0  0  0
   -2.4126  -14.9123  -24.2235 O   0  0  0  0  0  0  0  0  0  0  0  0
   -1.9950  -15.3442  -24.9425 H   0  0  0  0  0  0  0  0  0  0  0  0
   -1.2133  -17.2591  -21.9655 C   0  0  0  0  0  0  0  0  0  0  0  0
   -2.4854  -18.0277  -22.3450 C   0  0  0  0  0  0  0  0  0  0  0  0
   -2.5959  -18.6707  -23.5800 C   0  0  0  0  0  0  0  0  0  0  0  0
   -3.5332  -18.1064  -21.4303 C   0  0  0  0  0  0  0  0  0  0  0  0
   -3.7590  -19.3807  -23.9023 C   0  0  0  0  0  0  0  0  0  0  0  0
   -4.6941  -18.8096  -21.7469 C   0  0  0  0  0  0  0  0  0  0  0  0
   -4.8101  -19.4477  -22.9814 C   0  0  0  0  0  0  0  0  0  0  0  0
   -5.9634  -20.1296  -23.2680 O   0  0  0  0  0  0  0  0  0  0  0  0
   -6.0581  -20.5640  -24.0928 H   0  0  0  0  0  0  0  0  0  0  0  0
    3.0602  -14.7250  -20.8848 C   0  0  0  0  0  0  0  0  0  0  0  0
    4.4358  -15.3202  -20.5129 C   0  0  0  0  0  0  0  0  0  0  0  0
    5.6454  -14.7779  -20.3540 C   0  0  0  0  0  0  0  0  0  0  0  0
    4.5396  -16.6483  -20.2414 O   0  0  0  0  0  0  0  0  0  0  0  0
    5.8777  -16.9133  -19.9077 N   0  0  0  0  0  0  0  0  0  0  0  0
    6.5151  -15.7489  -19.9982 C   0  0  0  0  0  0  0  0  0  0  0  0
    7.8674  -15.6146  -19.7149 C   0  0  0  0  0  0  0  0  0  0  0  0
    8.7512  -16.6832  -19.8879 C   0  0  0  0  0  0  0  0  0  0  0  0
   10.1110  -16.5002  -19.6082 C   0  0  0  0  0  0  0  0  0  0  0  0
   10.5793  -15.2555  -19.1794 C   0  0  0  0  0  0  0  0  0  0  0  0
    9.7022  -14.1803  -19.0116 C   0  0  0  0  0  0  0  0  0  0  0  0
    8.3433  -14.3585  -19.2868 C   0  0  0  0  0  0  0  0  0  0  0  0
    3.9708  -14.8862  -23.2635 C   0  0  0  0  0  0  0  0  0  0  0  0
    4.5565  -12.1005  -23.3958 O   0  0  0  0  0  0  0  0  0  0  0  0
    4.6508  -13.4138  -24.0920 P   0  0  0  0  0  0  0  0  0  0  0  0
    4.0501  -13.3653  -25.5587 O   0  0  0  0  0  0  0  0  0  0  0  0
    4.3966  -12.5883  -26.0245 H   0  0  0  0  0  0  0  0  0  0  0  0
    6.4436  -13.7761  -24.3317 C   0  0  0  0  0  0  0  0  0  0  0  0
    7.8487  -13.0647  -26.2642 C   0  0  0  0  0  0  0  0  0  0  0  0
    8.3910  -14.1606  -26.4584 O   0  0  0  0  0  0  0  0  0  0  0  0
    6.9394  -12.8132  -25.3078 N   0  0  0  0  0  0  0  0  0  0  0  0
    6.5764  -11.8992  -25.2621 H   0  0  0  0  0  0  0  0  0  0  0  0
    8.2084  -11.9681  -26.9857 O   0  0  0  0  0  0  0  0  0  0  0  0
    7.8332  -10.6473  -26.6095 C   0  0  0  0  0  0  0  0  0  0  0  0
    8.9156   -9.8021  -26.3386 C   0  0  0  0  0  0  0  0  0  0  0  0
   10.2166  -10.3153  -26.3946 C   0  0  0  0  0  0  0  0  0  0  0  0
   11.3073   -9.4837  -26.1464 C   0  0  0  0  0  0  0  0  0  0  0  0
   11.1034   -8.1362  -25.8468 C   0  0  0  0  0  0  0  0  0  0  0  0
    9.8099   -7.6154  -25.8017 C   0  0  0  0  0  0  0  0  0  0  0  0
    8.7151   -8.4470  -26.0494 C   0  0  0  0  0  0  0  0  0  0  0  0
    7.2651  -13.5956  -23.0196 C   0  0  0  0  0  0  0  0  0  0  0  0
    8.6393  -14.3385  -23.0277 C   0  0  0  0  0  0  0  0  0  0  0  0
    8.7116  -15.7064  -23.3031 C   0  0  0  0  0  0  0  0  0  0  0  0
    9.9376  -16.3896  -23.3210 C   0  0  0  0  0  0  0  0  0  0  0  0
   11.1279  -15.7146  -23.0511 C   0  0  0  0  0  0  0  0  0  0  0  0
   11.0624  -14.3459  -22.7809 C   0  0  0  0  0  0  0  0  0  0  0  0
    9.8304  -13.6611  -22.7645 C   0  0  0  0  0  0  0  0  0  0  0  0
 45 46  1  0  0  0
 45 44  2  0  0  0
 46 47  2  0  0  0
 47 48  1  0  0  0
 48 49  2  0  0  0
 49 44  1  0  0  0
 44 43  1  0  0  0
 43 42  1  0  0  0
 42 38  1  0  0  0
 38 39  2  0  0  0
 38 40  1  0  0  0
 40 37  1  0  0  0
 37 50  1  0  0  0
 37 34  1  0  0  0
 50 51  1  0  0  0
 51 52  1  0  0  0
 51 56  2  0  0  0
 52 53  2  0  0  0
 53 54  1  0  0  0
 54 55  2  0  0  0
 55 56  1  0  0  0
 34 35  1  0  0  0
 34 33  2  0  0  0
 34 32  1  0  0  0
 32  1  1  0  0  0
  1  2  1  0  0  0
  1 20  1  0  0  0
  2  3  2  0  0  0
  2  4  1  0  0  0
  4  6  1  0  0  0
  6  7  1  0  0  0
  6 11  1  0  0  0
  7  9  1  0  0  0
  7  8  2  0  0  0
 11 12  1  0  0  0
 12 13  1  0  0  0
 12 14  2  0  0  0
 13 15  2  0  0  0
 15 17  1  0  0  0
 17 18  1  0  0  0
 17 16  2  0  0  0
 16 14  1  0  0  0
 20 21  1  0  0  0
 21 22  2  0  0  0
 21 23  1  0  0  0
 22 25  1  0  0  0
 23 24  1  0  0  0
 24 25  2  0  0  0
 25 26  1  0  0  0
 26 27  1  0  0  0
 26 31  2  0  0  0
 27 28  2  0  0  0
 28 29  1  0  0  0
 29 30  2  0  0  0
 30 31  1  0  0  0
 35 36  1  0  0  0
 40 41  1  0  0  0
  4  5  1  0  0  0
 18 19  1  0  0  0
  9 10  1  0  0  0
M  END
> <minimizedAffinity>
-10.04967

$$$$
2XYD_3ES_A_1611


 56 60  0  0  0  0  0  0  0  0999 V2000
    2.5729  -15.6692  -22.4831 C   0  0  0  0  0  0  0  0  0  0  0  0
    1.2478  -16.2335  -23.0477 C   0  0  0  0  0  0  0  0  0  0  0  0
    1.1104  -16.3725  -24.2661 O   0  0  0  0  0  0  0  0  0  0  0  0
    0.2514  -16.4585  -22.1737 N   0  0  0  0  0  0  0  0  0  0  0  0
    0.4100  -16.3399  -21.2093 H   0  0  0  0  0  0  0  0  0  0  0  0
   -1.0869  -16.8848  -22.6547 C   0  0  0  0  0  0  0  0  0  0  0  0
   -1.8350  -15.6196  -23.1026 C   0  0  0  0  0  0  0  0  0  0  0  0
   -1.8660  -14.6485  -22.3161 O   0  0  0  0  0  0  0  0  0  0  0  0
   -2.3662  -15.6519  -24.2349 O   0  0  0  0  0  0  0  0  0  0  0  0
   -2.2958  -16.4222  -24.7637 H   0  0  0  0  0  0  0  0  0  0  0  0
   -1.9120  -17.6747  -21.6187 C   0  0  0  0  0  0  0  0  0  0  0  0
   -3.2206  -18.2917  -22.1284 C   0  0  0  0  0  0  0  0  0  0  0  0
   -4.4584  -17.8268  -21.6782 C   0  0  0  0  0  0  0  0  0  0  0  0
   -3.1701  -19.3123  -23.0753 C   0  0  0  0  0  0  0  0  0  0  0  0
   -5.6426  -18.3922  -22.1668 C   0  0  0  0  0  0  0  0  0  0  0  0
   -4.3456  -19.8802  -23.5632 C   0  0  0  0  0  0  0  0  0  0  0  0
   -5.5829  -19.4226  -23.1113 C   0  0  0  0  0  0  0  0  0  0  0  0
   -6.7228  -20.0005  -23.6052 O   0  0  0  0  0  0  0  0  0  0  0  0
   -7.5625  -19.7052  -23.3125 H   0  0  0  0  0  0  0  0  0  0  0  0
    3.1437  -16.4771  -21.3075 C   0  0  0  0  0  0  0  0  0  0  0  0
    4.3950  -15.9056  -20.6059 C   0  0  0  0  0  0  0  0  0  0  0  0
    5.6934  -16.2076  -20.6798 C   0  0  0  0  0  0  0  0  0  0  0  0
    4.2620  -14.8621  -19.7446 O   0  0  0  0  0  0  0  0  0  0  0  0
    5.5434  -14.5265  -19.2781 N   0  0  0  0  0  0  0  0  0  0  0  0
    6.3813  -15.3765  -19.8661 C   0  0  0  0  0  0  0  0  0  0  0  0
    7.7536  -15.3338  -19.6609 C   0  0  0  0  0  0  0  0  0  0  0  0
    8.5590  -16.4438  -19.9300 C   0  0  0  0  0  0  0  0  0  0  0  0
    9.9415  -16.3527  -19.7268 C   0  0  0  0  0  0  0  0  0  0  0  0
   10.5089  -15.1573  -19.2782 C   0  0  0  0  0  0  0  0  0  0  0  0
    9.7103  -14.0410  -19.0144 C   0  0  0  0  0  0  0  0  0  0  0  0
    8.3293  -14.1275  -19.2129 C   0  0  0  0  0  0  0  0  0  0  0  0
    3.6168  -15.5167  -23.6242 C   0  0  0  0  0  0  0  0  0  0  0  0
    3.8654  -12.7451  -23.0104 O   0  0  0  0  0  0  0  0  0  0  0  0
    4.1174  -13.8109  -24.0198 P   0  0  0  0  0  0  0  0  0  0  0  0
    3.5180  -13.4502  -25.4427 O   0  0  0  0  0  0  0  0  0  0  0  0
    3.7699  -12.5439  -25.6795 H   0  0  0  0  0  0  0  0  0  0  0  0
    5.9411  -13.8894  -24.2856 C   0  0  0  0  0  0  0  0  0  0  0  0
    7.0978  -13.0816  -26.3410 C   0  0  0  0  0  0  0  0  0  0  0  0
    7.7165  -14.1275  -26.5779 O   0  0  0  0  0  0  0  0  0  0  0  0
    6.2591  -12.8992  -25.3076 N   0  0  0  0  0  0  0  0  0  0  0  0
    5.8212  -12.0205  -25.2338 H   0  0  0  0  0  0  0  0  0  0  0  0
    7.2917  -11.9670  -27.0976 O   0  0  0  0  0  0  0  0  0  0  0  0
    6.5643  -11.7190  -28.2960 C   0  0  0  0  0  0  0  0  0  0  0  0
    5.6197  -10.6917  -28.1877 C   0  0  0  0  0  0  0  0  0  0  0  0
    4.2630  -10.9867  -28.3651 C   0  0  0  0  0  0  0  0  0  0  0  0
    3.3069   -9.9799  -28.2421 C   0  0  0  0  0  0  0  0  0  0  0  0
    3.7012   -8.6768  -27.9366 C   0  0  0  0  0  0  0  0  0  0  0  0
    5.0506   -8.3785  -27.7462 C   0  0  0  0  0  0  0  0  0  0  0  0
    6.0108   -9.3855  -27.8695 C   0  0  0  0  0  0  0  0  0  0  0  0
    6.7435  -13.5266  -22.9997 C   0  0  0  0  0  0  0  0  0  0  0  0
    8.2241  -14.0246  -23.0178 C   0  0  0  0  0  0  0  0  0  0  0  0
    8.5303  -15.3470  -23.3490 C   0  0  0  0  0  0  0  0  0  0  0  0
    9.8547  -15.8108  -23.3766 C   0  0  0  0  0  0  0  0  0  0  0  0
   10.9106  -14.9561  -23.0605 C   0  0  0  0  0  0  0  0  0  0  0  0
   10.6111  -13.6316  -22.7343 C   0  0  0  0  0  0  0  0  0  0  0  0
    9.2804  -13.1671  -22.7082 C   0  0  0  0  0  0  0  0  0  0  0  0
 45 46  1  0  0  0
 45 44  2  0  0  0
 46 47  2  0  0  0
 47 48  1  0  0  0
 48 49  2  0  0  0
 49 44  1  0  0  0
 44 43  1  0  0  0
 43 42  1  0  0  0
 42 38  1  0  0  0
 38 39  2  0  0  0
 38 40  1  0  0  0
 40 37  1  0  0  0
 37 50  1  0  0  0
 37 34  1  0  0  0
 50 51  1  0  0  0
 51 52  1  0  0  0
 51 56  2  0  0  0
 52 53  2  0  0  0
 53 54  1  0  0  0
 54 55  2  0  0  0
 55 56  1  0  0  0
 34 35  1  0  0  0
 34 33  2  0  0  0
 34 32  1  0  0  0
 32  1  1  0  0  0
  1  2  1  0  0  0
  1 20  1  0  0  0
  2  3  2  0  0  0
  2  4  1  0  0  0
  4  6  1  0  0  0
  6  7  1  0  0  0
  6 11  1  0  0  0
  7  9  1  0  0  0
  7  8  2  0  0  0
 11 12  1  0  0  0
 12 13  1  0  0  0
 12 14  2  0  0  0
 13 15  2  0  0  0
 15 17  1  0  0  0
 17 18  1  0  0  0
 17 16  2  0  0  0
 16 14  1  0  0  0
 20 21  1  0  0  0
 21 22  2  0  0  0
 21 23  1  0  0  0
 22 25  1  0  0  0
 23 24  1  0  0  0
 24 25  2  0  0  0
 25 26  1  0  0  0
 26 27  1  0  0  0
 26 31  2  0  0  0
 27 28  2  0  0  0
 28 29  1  0  0  0
 29 30  2  0  0  0
 30 31  1  0  0  0
 35 36  1  0  0  0
 40 41  1  0  0  0
  4  5  1  0  0  0
 18 19  1  0  0  0
  9 10  1  0  0  0
M  END
> <minimizedAffinity>
-9.93966

$$$$
2XYD_3ES_A_1611


 56 60  0  0  0  0  0  0  0  0999 V2000
    2.5146  -14.7485  -22.5906 C   0  0  0  0  0  0  0  0  0  0  0  0
    1.3346  -15.7040  -22.8868 C   0  0  0  0  0  0  0  0  0  0  0  0
    1.5461  -16.7864  -23.4404 O   0  0  0  0  0  0  0  0  0  0  0  0
    0.0965  -15.2587  -22.6106 N   0  0  0  0  0  0  0  0  0  0  0  0
   -0.0227  -14.3905  -22.1620 H   0  0  0  0  0  0  0  0  0  0  0  0
   -1.0919  -16.0690  -22.9782 C   0  0  0  0  0  0  0  0  0  0  0  0
   -2.2454  -15.0905  -23.2483 C   0  0  0  0  0  0  0  0  0  0  0  0
   -2.6392  -14.3742  -22.3026 O   0  0  0  0  0  0  0  0  0  0  0  0
   -2.7141  -15.0805  -24.4084 O   0  0  0  0  0  0  0  0  0  0  0  0
   -2.3603  -15.6516  -25.0616 H   0  0  0  0  0  0  0  0  0  0  0  0
   -1.4958  -17.1186  -21.9232 C   0  0  0  0  0  0  0  0  0  0  0  0
   -2.7175  -17.9813  -22.2641 C   0  0  0  0  0  0  0  0  0  0  0  0
   -2.7102  -18.8332  -23.3709 C   0  0  0  0  0  0  0  0  0  0  0  0
   -3.8389  -17.9321  -21.4390 C   0  0  0  0  0  0  0  0  0  0  0  0
   -3.8293  -19.6248  -23.6571 C   0  0  0  0  0  0  0  0  0  0  0  0
   -4.9563  -18.7160  -21.7207 C   0  0  0  0  0  0  0  0  0  0  0  0
   -4.9547  -19.5631  -22.8283 C   0  0  0  0  0  0  0  0  0  0  0  0
   -6.0675  -20.3205  -23.0837 O   0  0  0  0  0  0  0  0  0  0  0  0
   -6.0834  -20.8951  -23.8237 H   0  0  0  0  0  0  0  0  0  0  0  0
    2.8962  -14.6714  -21.1043 C   0  0  0  0  0  0  0  0  0  0  0  0
    4.2791  -15.2310  -20.7055 C   0  0  0  0  0  0  0  0  0  0  0  0
    5.4720  -14.6585  -20.5272 C   0  0  0  0  0  0  0  0  0  0  0  0
    4.4107  -16.5552  -20.4267 O   0  0  0  0  0  0  0  0  0  0  0  0
    5.7487  -16.7858  -20.0680 N   0  0  0  0  0  0  0  0  0  0  0  0
    6.3588  -15.6063  -20.1519 C   0  0  0  0  0  0  0  0  0  0  0  0
    7.7021  -15.4375  -19.8450 C   0  0  0  0  0  0  0  0  0  0  0  0
    8.1849  -14.2181  -19.3621 C   0  0  0  0  0  0  0  0  0  0  0  0
    9.5437  -14.0955  -19.0470 C   0  0  0  0  0  0  0  0  0  0  0  0
   10.4015  -15.1883  -19.1965 C   0  0  0  0  0  0  0  0  0  0  0  0
    9.9239  -16.4129  -19.6716 C   0  0  0  0  0  0  0  0  0  0  0  0
    8.5688  -16.5398  -19.9903 C   0  0  0  0  0  0  0  0  0  0  0  0
    3.7394  -15.1252  -23.4700 C   0  0  0  0  0  0  0  0  0  0  0  0
    2.5335  -13.9987  -25.7933 O   0  0  0  0  0  0  0  0  0  0  0  0
    3.8131  -14.3348  -25.1091 P   0  0  0  0  0  0  0  0  0  0  0  0
    4.7762  -15.2041  -26.0207 O   0  0  0  0  0  0  0  0  0  0  0  0
    4.8342  -14.8047  -26.9028 H   0  0  0  0  0  0  0  0  0  0  0  0
    4.7215  -12.7513  -24.8442 C   0  0  0  0  0  0  0  0  0  0  0  0
    6.4080  -12.1309  -23.1162 C   0  0  0  0  0  0  0  0  0  0  0  0
    6.1457  -10.9214  -23.0873 O   0  0  0  0  0  0  0  0  0  0  0  0
    5.7917  -13.0352  -23.8954 N   0  0  0  0  0  0  0  0  0  0  0  0
    6.0884  -13.9708  -23.8193 H   0  0  0  0  0  0  0  0  0  0  0  0
    7.4379  -12.6414  -22.3873 O   0  0  0  0  0  0  0  0  0  0  0  0
    8.7985  -12.5007  -22.7816 C   0  0  0  0  0  0  0  0  0  0  0  0
    9.4809  -13.7150  -22.9199 C   0  0  0  0  0  0  0  0  0  0  0  0
   10.8519  -13.7661  -22.6423 C   0  0  0  0  0  0  0  0  0  0  0  0
   11.5436  -14.9709  -22.7563 C   0  0  0  0  0  0  0  0  0  0  0  0
   10.8684  -16.1292  -23.1425 C   0  0  0  0  0  0  0  0  0  0  0  0
    9.4996  -16.0879  -23.4086 C   0  0  0  0  0  0  0  0  0  0  0  0
    8.8042  -14.8816  -23.2957 C   0  0  0  0  0  0  0  0  0  0  0  0
    5.3720  -12.2149  -26.1550 C   0  0  0  0  0  0  0  0  0  0  0  0
    4.5793  -11.0447  -26.8204 C   0  0  0  0  0  0  0  0  0  0  0  0
    3.8044  -11.2638  -27.9622 C   0  0  0  0  0  0  0  0  0  0  0  0
    3.0804  -10.2264  -28.5703 C   0  0  0  0  0  0  0  0  0  0  0  0
    3.1248   -8.9330  -28.0500 C   0  0  0  0  0  0  0  0  0  0  0  0
    3.8930   -8.7093  -26.9053 C   0  0  0  0  0  0  0  0  0  0  0  0
    4.6185   -9.7526  -26.2952 C   0  0  0  0  0  0  0  0  0  0  0  0
 45 46  1  0  0  0
 45 44  2  0  0  0
 46 47  2  0  0  0
 47 48  1  0  0  0
 48 49  2  0  0  0
 49 44  1  0  0  0
 44 43  1  0  0  0
 43 42  1  0  0  0
 42 38  1  0  0  0
 38 39  2  0  0  0
 38 40  1  0  0  0
 40 37  1  0  0  0
 37 50  1  0  0  0
 37 34  1  0  0  0
 50 51  1  0  0  0
 51 52  1  0  0  0
 51 56  2  0  0  0
 52 53  2  0  0  0
 53 54  1  0  0  0
 54 55  2  0  0  0
 55 56  1  0  0  0
 34 35  1  0  0  0
 34 33  2  0  0  0
 34 32  1  0  0  0
 32  1  1  0  0  0
  1  2  1  0  0  0
  1 20  1  0  0  0
  2  3  2  0  0  0
  2  4  1  0  0  0
  4  6  1  0  0  0
  6  7  1  0  0  0
  6 11  1  0  0  0
  7  9  1  0  0  0
  7  8  2  0  0  0
 11 12  1  0  0  0
 12 13  1  0  0  0
 12 14  2  0  0  0
 13 15  2  0  0  0
 15 17  1  0  0  0
 17 18  1  0  0  0
 17 16  2  0  0  0
 16 14  1  0  0  0
 20 21  1  0  0  0
 21 22  2  0  0  0
 21 23  1  0  0  0
 22 25  1  0  0  0
 23 24  1  0  0  0
 24 25  2  0  0  0
 25 26  1  0  0  0
 26 27  1  0  0  0
 26 31  2  0  0  0
 27 28  2  0  0  0
 28 29  1  0  0  0
 29 30  2  0  0  0
 30 31  1  0  0  0
 35 36  1  0  0  0
 40 41  1  0  0  0
  4  5  1  0  0  0
 18 19  1  0  0  0
  9 10  1  0  0  0
M  END
> <minimizedAffinity>
-9.84385

$$$$
2XYD_3ES_A_1611


 56 60  0  0  0  0  0  0  0  0999 V2000
    3.9994  -15.5894  -23.6801 C   0  0  0  0  0  0  0  0  0  0  0  0
    4.5053  -15.5976  -22.2183 C   0  0  0  0  0  0  0  0  0  0  0  0
    4.3704  -16.6119  -21.5285 O   0  0  0  0  0  0  0  0  0  0  0  0
    4.9892  -14.4436  -21.7268 N   0  0  0  0  0  0  0  0  0  0  0  0
    5.0843  -13.6617  -22.3174 H   0  0  0  0  0  0  0  0  0  0  0  0
    5.3810  -14.3419  -20.2984 C   0  0  0  0  0  0  0  0  0  0  0  0
    4.4100  -13.3576  -19.6281 C   0  0  0  0  0  0  0  0  0  0  0  0
    3.9424  -13.6659  -18.5105 O   0  0  0  0  0  0  0  0  0  0  0  0
    4.1531  -12.3061  -20.2556 O   0  0  0  0  0  0  0  0  0  0  0  0
    4.5475  -12.1510  -21.0913 H   0  0  0  0  0  0  0  0  0  0  0  0
    6.8445  -13.9130  -20.0704 C   0  0  0  0  0  0  0  0  0  0  0  0
    7.8750  -15.0467  -19.9947 C   0  0  0  0  0  0  0  0  0  0  0  0
    9.2226  -14.7784  -19.7440 C   0  0  0  0  0  0  0  0  0  0  0  0
    7.4518  -16.3647  -20.1512 C   0  0  0  0  0  0  0  0  0  0  0  0
   10.1459  -15.8279  -19.6628 C   0  0  0  0  0  0  0  0  0  0  0  0
    8.3670  -17.4130  -20.0739 C   0  0  0  0  0  0  0  0  0  0  0  0
    9.7141  -17.1481  -19.8298 C   0  0  0  0  0  0  0  0  0  0  0  0
   10.5929  -18.1971  -19.7616 O   0  0  0  0  0  0  0  0  0  0  0  0
   11.5016  -18.0372  -19.5983 H   0  0  0  0  0  0  0  0  0  0  0  0
    2.6220  -14.9326  -23.8594 C   0  0  0  0  0  0  0  0  0  0  0  0
    1.3892  -15.7645  -23.4438 C   0  0  0  0  0  0  0  0  0  0  0  0
    0.1453  -15.4292  -23.0931 C   0  0  0  0  0  0  0  0  0  0  0  0
    1.4704  -17.1216  -23.4304 O   0  0  0  0  0  0  0  0  0  0  0  0
    0.2147  -17.6215  -23.0493 N   0  0  0  0  0  0  0  0  0  0  0  0
   -0.5568  -16.5568  -22.8455 C   0  0  0  0  0  0  0  0  0  0  0  0
   -1.8903  -16.6617  -22.4741 C   0  0  0  0  0  0  0  0  0  0  0  0
   -2.4072  -17.8576  -21.9684 C   0  0  0  0  0  0  0  0  0  0  0  0
   -3.7536  -17.9156  -21.5880 C   0  0  0  0  0  0  0  0  0  0  0  0
   -4.5641  -16.7826  -21.6959 C   0  0  0  0  0  0  0  0  0  0  0  0
   -4.0517  -15.5812  -22.1936 C   0  0  0  0  0  0  0  0  0  0  0  0
   -2.7090  -15.5187  -22.5774 C   0  0  0  0  0  0  0  0  0  0  0  0
    5.0618  -14.9375  -24.6084 C   0  0  0  0  0  0  0  0  0  0  0  0
    2.9404  -13.8314  -26.1567 O   0  0  0  0  0  0  0  0  0  0  0  0
    4.4116  -13.8617  -25.9263 P   0  0  0  0  0  0  0  0  0  0  0  0
    5.2248  -14.1766  -27.2507 O   0  0  0  0  0  0  0  0  0  0  0  0
    4.8982  -13.6158  -27.9717 H   0  0  0  0  0  0  0  0  0  0  0  0
    4.9250  -12.1535  -25.4562 C   0  0  0  0  0  0  0  0  0  0  0  0
    5.9810  -11.7543  -23.2334 C   0  0  0  0  0  0  0  0  0  0  0  0
    5.0653  -11.0682  -22.7607 O   0  0  0  0  0  0  0  0  0  0  0  0
    5.9850  -12.2918  -24.4646 N   0  0  0  0  0  0  0  0  0  0  0  0
    6.7721  -12.8254  -24.7196 H   0  0  0  0  0  0  0  0  0  0  0  0
    7.1342  -11.9565  -22.5395 O   0  0  0  0  0  0  0  0  0  0  0  0
    8.4191  -11.8579  -23.1444 C   0  0  0  0  0  0  0  0  0  0  0  0
    9.1205  -13.0683  -23.1945 C   0  0  0  0  0  0  0  0  0  0  0  0
   10.5057  -13.0664  -22.9942 C   0  0  0  0  0  0  0  0  0  0  0  0
   11.2176  -14.2645  -23.0218 C   0  0  0  0  0  0  0  0  0  0  0  0
   10.5485  -15.4686  -23.2441 C   0  0  0  0  0  0  0  0  0  0  0  0
    9.1662  -15.4789  -23.4320 C   0  0  0  0  0  0  0  0  0  0  0  0
    8.4506  -14.2795  -23.4055 C   0  0  0  0  0  0  0  0  0  0  0  0
    5.4992  -11.3537  -26.6643 C   0  0  0  0  0  0  0  0  0  0  0  0
    6.9582  -10.8400  -26.4454 C   0  0  0  0  0  0  0  0  0  0  0  0
    7.2001   -9.5280  -26.0303 C   0  0  0  0  0  0  0  0  0  0  0  0
    8.5035   -9.0505  -25.8225 C   0  0  0  0  0  0  0  0  0  0  0  0
    9.6039   -9.8803  -26.0373 C   0  0  0  0  0  0  0  0  0  0  0  0
    9.3679  -11.1945  -26.4466 C   0  0  0  0  0  0  0  0  0  0  0  0
    8.0582  -11.6728  -26.6538 C   0  0  0  0  0  0  0  0  0  0  0  0
 45 46  1  0  0  0
 45 44  2  0  0  0
 46 47  2  0  0  0
 47 48  1  0  0  0
 48 49  2  0  0  0
 49 44  1  0  0  0
 44 43  1  0  0  0
 43 42  1  0  0  0
 42 38  1  0  0  0
 38 39  2  0  0  0
 38 40  1  0  0  0
 40 37  1  0  0  0
 37 50  1  0  0  0
 37 34  1  0  0  0
 50 51  1  0  0  0
 51 52  1  0  0  0
 51 56  2  0  0  0
 52 53  2  0  0  0
 53 54  1  0  0  0
 54 55  2  0  0  0
 55 56  1  0  0  0
 34 35  1  0  0  0
 34 33  2  0  0  0
 34 32  1  0  0  0
 32  1  1  0  0  0
  1  2  1  0  0  0
  1 20  1  0  0  0
  2  3  2  0  0  0
  2  4  1  0  0  0
  4  6  1  0  0  0
  6  7  1  0  0  0
  6 11  1  0  0  0
  7  9  1  0  0  0
  7  8  2  0  0  0
 11 12  1  0  0  0
 12 13  1  0  0  0
 12 14  2  0  0  0
 13 15  2  0  0  0
 15 17  1  0  0  0
 17 18  1  0  0  0
 17 16  2  0  0  0
 16 14  1  0  0  0
 20 21  1  0  0  0
 21 22  2  0  0  0
 21 23  1  0  0  0
 22 25  1  0  0  0
 23 24  1  0  0  0
 24 25  2  0  0  0
 25 26  1  0  0  0
 26 27  1  0  0  0
 26 31  2  0  0  0
 27 28  2  0  0  0
 28 29  1  0  0  0
 29 30  2  0  0  0
 30 31  1  0  0  0
 35 36  1  0  0  0
 40 41  1  0  0  0
  4  5  1  0  0  0
 18 19  1  0  0  0
  9 10  1  0  0  0
M  END
> <minimizedAffinity>
-9.60505

$$$$
2XYD_3ES_A_1611


 56 60  0  0  0  0  0  0  0  0999 V2000
    4.0200  -15.8342  -23.7667 C   0  0  0  0  0  0  0  0  0  0  0  0
    4.3795  -15.8625  -22.2623 C   0  0  0  0  0  0  0  0  0  0  0  0
    4.2575  -16.9105  -21.6224 O   0  0  0  0  0  0  0  0  0  0  0  0
    4.7213  -14.6959  -21.6881 N   0  0  0  0  0  0  0  0  0  0  0  0
    4.8124  -13.8864  -22.2408 H   0  0  0  0  0  0  0  0  0  0  0  0
    4.9623  -14.6218  -20.2251 C   0  0  0  0  0  0  0  0  0  0  0  0
    3.8135  -13.8044  -19.6144 C   0  0  0  0  0  0  0  0  0  0  0  0
    2.8236  -13.5558  -20.3362 O   0  0  0  0  0  0  0  0  0  0  0  0
    3.9522  -13.4413  -18.4251 O   0  0  0  0  0  0  0  0  0  0  0  0
    4.7283  -13.6704  -17.9527 H   0  0  0  0  0  0  0  0  0  0  0  0
    6.3300  -14.0251  -19.8362 C   0  0  0  0  0  0  0  0  0  0  0  0
    7.5027  -15.0120  -19.7740 C   0  0  0  0  0  0  0  0  0  0  0  0
    8.7925  -14.5776  -19.4602 C   0  0  0  0  0  0  0  0  0  0  0  0
    7.2683  -16.3653  -20.0073 C   0  0  0  0  0  0  0  0  0  0  0  0
    9.8475  -15.4960  -19.3928 C   0  0  0  0  0  0  0  0  0  0  0  0
    8.3152  -17.2833  -19.9438 C   0  0  0  0  0  0  0  0  0  0  0  0
    9.6053  -16.8521  -19.6368 C   0  0  0  0  0  0  0  0  0  0  0  0
   10.6164  -17.7752  -19.5840 O   0  0  0  0  0  0  0  0  0  0  0  0
   11.4892  -17.5028  -19.3792 H   0  0  0  0  0  0  0  0  0  0  0  0
    2.6767  -15.1547  -24.0738 C   0  0  0  0  0  0  0  0  0  0  0  0
    1.4016  -15.8576  -23.5593 C   0  0  0  0  0  0  0  0  0  0  0  0
    0.2117  -15.4004  -23.1620 C   0  0  0  0  0  0  0  0  0  0  0  0
    1.3673  -17.2148  -23.4882 O   0  0  0  0  0  0  0  0  0  0  0  0
    0.0959  -17.5867  -23.0220 N   0  0  0  0  0  0  0  0  0  0  0  0
   -0.5697  -16.4510  -22.8283 C   0  0  0  0  0  0  0  0  0  0  0  0
   -1.8852  -16.4232  -22.3858 C   0  0  0  0  0  0  0  0  0  0  0  0
   -2.6662  -15.2715  -22.5143 C   0  0  0  0  0  0  0  0  0  0  0  0
   -3.9946  -15.2914  -22.0718 C   0  0  0  0  0  0  0  0  0  0  0  0
   -4.5364  -16.4579  -21.5260 C   0  0  0  0  0  0  0  0  0  0  0  0
   -3.7633  -17.6156  -21.4015 C   0  0  0  0  0  0  0  0  0  0  0  0
   -2.4358  -17.6003  -21.8391 C   0  0  0  0  0  0  0  0  0  0  0  0
    5.1779  -15.1910  -24.5797 C   0  0  0  0  0  0  0  0  0  0  0  0
    3.2444  -13.5800  -25.9163 O   0  0  0  0  0  0  0  0  0  0  0  0
    4.6907  -13.9066  -25.7753 P   0  0  0  0  0  0  0  0  0  0  0  0
    5.3695  -14.2586  -27.1645 O   0  0  0  0  0  0  0  0  0  0  0  0
    5.1261  -13.5886  -27.8222 H   0  0  0  0  0  0  0  0  0  0  0  0
    5.5438  -12.3709  -25.2127 C   0  0  0  0  0  0  0  0  0  0  0  0
    7.0702  -11.9518  -23.2867 C   0  0  0  0  0  0  0  0  0  0  0  0
    6.8714  -10.7324  -23.2087 O   0  0  0  0  0  0  0  0  0  0  0  0
    6.4917  -12.7717  -24.1798 N   0  0  0  0  0  0  0  0  0  0  0  0
    6.7282  -13.7263  -24.1329 H   0  0  0  0  0  0  0  0  0  0  0  0
    7.9890  -12.5636  -22.4904 O   0  0  0  0  0  0  0  0  0  0  0  0
    9.3671  -12.6488  -22.8374 C   0  0  0  0  0  0  0  0  0  0  0  0
    9.8656  -13.9562  -22.8769 C   0  0  0  0  0  0  0  0  0  0  0  0
    9.0111  -15.0049  -23.2367 C   0  0  0  0  0  0  0  0  0  0  0  0
    9.4950  -16.3105  -23.2997 C   0  0  0  0  0  0  0  0  0  0  0  0
   10.8343  -16.5730  -23.0092 C   0  0  0  0  0  0  0  0  0  0  0  0
   11.6943  -15.5308  -22.6621 C   0  0  0  0  0  0  0  0  0  0  0  0
   11.2116  -14.2215  -22.5976 C   0  0  0  0  0  0  0  0  0  0  0  0
    6.3455  -11.6844  -26.3595 C   0  0  0  0  0  0  0  0  0  0  0  0
    5.5630  -10.5402  -27.0799 C   0  0  0  0  0  0  0  0  0  0  0  0
    4.3833  -10.8100  -27.7784 C   0  0  0  0  0  0  0  0  0  0  0  0
    3.6634   -9.7942  -28.4265 C   0  0  0  0  0  0  0  0  0  0  0  0
    4.1180   -8.4759  -28.3981 C   0  0  0  0  0  0  0  0  0  0  0  0
    5.2934   -8.1994  -27.6964 C   0  0  0  0  0  0  0  0  0  0  0  0
    6.0146   -9.2205  -27.0451 C   0  0  0  0  0  0  0  0  0  0  0  0
 45 46  1  0  0  0
 45 44  2  0  0  0
 46 47  2  0  0  0
 47 48  1  0  0  0
 48 49  2  0  0  0
 49 44  1  0  0  0
 44 43  1  0  0  0
 43 42  1  0  0  0
 42 38  1  0  0  0
 38 39  2  0  0  0
 38 40  1  0  0  0
 40 37  1  0  0  0
 37 50  1  0  0  0
 37 34  1  0  0  0
 50 51  1  0  0  0
 51 52  1  0  0  0
 51 56  2  0  0  0
 52 53  2  0  0  0
 53 54  1  0  0  0
 54 55  2  0  0  0
 55 56  1  0  0  0
 34 35  1  0  0  0
 34 33  2  0  0  0
 34 32  1  0  0  0
 32  1  1  0  0  0
  1  2  1  0  0  0
  1 20  1  0  0  0
  2  3  2  0  0  0
  2  4  1  0  0  0
  4  6  1  0  0  0
  6  7  1  0  0  0
  6 11  1  0  0  0
  7  9  1  0  0  0
  7  8  2  0  0  0
 11 12  1  0  0  0
 12 13  1  0  0  0
 12 14  2  0  0  0
 13 15  2  0  0  0
 15 17  1  0  0  0
 17 18  1  0  0  0
 17 16  2  0  0  0
 16 14  1  0  0  0
 20 21  1  0  0  0
 21 22  2  0  0  0
 21 23  1  0  0  0
 22 25  1  0  0  0
 23 24  1  0  0  0
 24 25  2  0  0  0
 25 26  1  0  0  0
 26 27  1  0  0  0
 26 31  2  0  0  0
 27 28  2  0  0  0
 28 29  1  0  0  0
 29 30  2  0  0  0
 30 31  1  0  0  0
 35 36  1  0  0  0
 40 41  1  0  0  0
  4  5  1  0  0  0
 18 19  1  0  0  0
  9 10  1  0  0  0
M  END
> <minimizedAffinity>
-9.59526

$$$$
2XYD_3ES_A_1611


 56 60  0  0  0  0  0  0  0  0999 V2000
   -1.8116  -15.8708  -22.6579 C   0  0  0  0  0  0  0  0  0  0  0  0
   -0.2896  -16.1200  -22.7788 C   0  0  0  0  0  0  0  0  0  0  0  0
    0.1372  -17.2740  -22.8738 O   0  0  0  0  0  0  0  0  0  0  0  0
    0.5202  -15.0521  -22.6735 N   0  0  0  0  0  0  0  0  0  0  0  0
    0.1335  -14.1492  -22.6058 H   0  0  0  0  0  0  0  0  0  0  0  0
    1.9945  -15.2267  -22.6588 C   0  0  0  0  0  0  0  0  0  0  0  0
    2.4199  -15.6329  -24.0782 C   0  0  0  0  0  0  0  0  0  0  0  0
    3.2511  -16.5588  -24.1979 O   0  0  0  0  0  0  0  0  0  0  0  0
    1.8989  -15.0006  -25.0239 O   0  0  0  0  0  0  0  0  0  0  0  0
    1.2820  -14.3178  -24.8473 H   0  0  0  0  0  0  0  0  0  0  0  0
    2.5028  -16.2455  -21.6189 C   0  0  0  0  0  0  0  0  0  0  0  0
    3.7270  -15.8183  -20.7993 C   0  0  0  0  0  0  0  0  0  0  0  0
    3.7684  -14.5758  -20.1625 C   0  0  0  0  0  0  0  0  0  0  0  0
    4.8002  -16.6968  -20.6677 C   0  0  0  0  0  0  0  0  0  0  0  0
    4.8884  -14.2098  -19.4058 C   0  0  0  0  0  0  0  0  0  0  0  0
    5.9183  -16.3366  -19.9177 C   0  0  0  0  0  0  0  0  0  0  0  0
    5.9655  -15.0945  -19.2857 C   0  0  0  0  0  0  0  0  0  0  0  0
    7.0780  -14.7647  -18.5571 O   0  0  0  0  0  0  0  0  0  0  0  0
    7.1264  -13.9342  -18.1259 H   0  0  0  0  0  0  0  0  0  0  0  0
   -2.3125  -14.6666  -23.4700 C   0  0  0  0  0  0  0  0  0  0  0  0
   -3.8415  -14.4742  -23.5683 C   0  0  0  0  0  0  0  0  0  0  0  0
   -4.7039  -14.5679  -24.5832 C   0  0  0  0  0  0  0  0  0  0  0  0
   -4.5529  -14.1799  -22.4477 O   0  0  0  0  0  0  0  0  0  0  0  0
   -5.9062  -14.0896  -22.8116 N   0  0  0  0  0  0  0  0  0  0  0  0
   -5.9497  -14.3237  -24.1207 C   0  0  0  0  0  0  0  0  0  0  0  0
   -7.1390  -14.3400  -24.8366 C   0  0  0  0  0  0  0  0  0  0  0  0
   -7.1456  -14.5264  -26.2216 C   0  0  0  0  0  0  0  0  0  0  0  0
   -8.3684  -14.5550  -26.9034 C   0  0  0  0  0  0  0  0  0  0  0  0
   -9.5684  -14.4177  -26.2010 C   0  0  0  0  0  0  0  0  0  0  0  0
   -9.5694  -14.2386  -24.8148 C   0  0  0  0  0  0  0  0  0  0  0  0
   -8.3514  -14.2066  -24.1297 C   0  0  0  0  0  0  0  0  0  0  0  0
   -2.5941  -17.1633  -23.0219 C   0  0  0  0  0  0  0  0  0  0  0  0
   -4.2698  -16.8600  -20.7370 O   0  0  0  0  0  0  0  0  0  0  0  0
   -3.6984  -17.8138  -21.7280 P   0  0  0  0  0  0  0  0  0  0  0  0
   -2.9628  -19.0364  -21.0362 O   0  0  0  0  0  0  0  0  0  0  0  0
   -3.5304  -19.4035  -20.3405 H   0  0  0  0  0  0  0  0  0  0  0  0
   -5.1151  -18.5714  -22.6347 C   0  0  0  0  0  0  0  0  0  0  0  0
   -4.9207  -21.0060  -22.1348 C   0  0  0  0  0  0  0  0  0  0  0  0
   -4.0363  -21.2528  -22.9653 O   0  0  0  0  0  0  0  0  0  0  0  0
   -5.4627  -19.7953  -21.9225 N   0  0  0  0  0  0  0  0  0  0  0  0
   -6.1549  -19.7286  -21.2256 H   0  0  0  0  0  0  0  0  0  0  0  0
   -5.4885  -22.0012  -21.4002 O   0  0  0  0  0  0  0  0  0  0  0  0
   -6.7348  -21.8429  -20.7306 C   0  0  0  0  0  0  0  0  0  0  0  0
   -6.6597  -21.9974  -19.3414 C   0  0  0  0  0  0  0  0  0  0  0  0
   -7.5652  -22.8478  -18.6965 C   0  0  0  0  0  0  0  0  0  0  0  0
   -7.4930  -23.0284  -17.3162 C   0  0  0  0  0  0  0  0  0  0  0  0
   -6.5137  -22.3650  -16.5761 C   0  0  0  0  0  0  0  0  0  0  0  0
   -5.6002  -21.5257  -17.2143 C   0  0  0  0  0  0  0  0  0  0  0  0
   -5.6708  -21.3425  -18.5973 C   0  0  0  0  0  0  0  0  0  0  0  0
   -6.3718  -17.6497  -22.6467 C   0  0  0  0  0  0  0  0  0  0  0  0
   -7.2738  -17.8281  -23.9097 C   0  0  0  0  0  0  0  0  0  0  0  0
   -6.7070  -18.0139  -25.1732 C   0  0  0  0  0  0  0  0  0  0  0  0
   -7.5011  -18.1822  -26.3183 C   0  0  0  0  0  0  0  0  0  0  0  0
   -8.8925  -18.1577  -26.2244 C   0  0  0  0  0  0  0  0  0  0  0  0
   -9.4647  -17.9782  -24.9631 C   0  0  0  0  0  0  0  0  0  0  0  0
   -8.6657  -17.8106  -23.8140 C   0  0  0  0  0  0  0  0  0  0  0  0
 45 46  1  0  0  0
 45 44  2  0  0  0
 46 47  2  0  0  0
 47 48  1  0  0  0
 48 49  2  0  0  0
 49 44  1  0  0  0
 44 43  1  0  0  0
 43 42  1  0  0  0
 42 38  1  0  0  0
 38 39  2  0  0  0
 38 40  1  0  0  0
 40 37  1  0  0  0
 37 50  1  0  0  0
 37 34  1  0  0  0
 50 51  1  0  0  0
 51 52  1  0  0  0
 51 56  2  0  0  0
 52 53  2  0  0  0
 53 54  1  0  0  0
 54 55  2  0  0  0
 55 56  1  0  0  0
 34 35  1  0  0  0
 34 33  2  0  0  0
 34 32  1  0  0  0
 32  1  1  0  0  0
  1  2  1  0  0  0
  1 20  1  0  0  0
  2  3  2  0  0  0
  2  4  1  0  0  0
  4  6  1  0  0  0
  6  7  1  0  0  0
  6 11  1  0  0  0
  7  9  1  0  0  0
  7  8  2  0  0  0
 11 12  1  0  0  0
 12 13  1  0  0  0
 12 14  2  0  0  0
 13 15  2  0  0  0
 15 17  1  0  0  0
 17 18  1  0  0  0
 17 16  2  0  0  0
 16 14  1  0  0  0
 20 21  1  0  0  0
 21 22  2  0  0  0
 21 23  1  0  0  0
 22 25  1  0  0  0
 23 24  1  0  0  0
 24 25  2  0  0  0
 25 26  1  0  0  0
 26 27  1  0  0  0
 26 31  2  0  0  0
 27 28  2  0  0  0
 28 29  1  0  0  0
 29 30  2  0  0  0
 30 31  1  0  0  0
 35 36  1  0  0  0
 40 41  1  0  0  0
  4  5  1  0  0  0
 18 19  1  0  0  0
  9 10  1  0  0  0
M  END
> <minimizedAffinity>
-9.30883

$$$$
2XYD_3ES_A_1611


 56 60  0  0  0  0  0  0  0  0999 V2000
    3.5122  -16.5717  -22.8191 C   0  0  0  0  0  0  0  0  0  0  0  0
    4.7123  -16.5346  -21.8436 C   0  0  0  0  0  0  0  0  0  0  0  0
    5.3852  -17.5526  -21.6603 O   0  0  0  0  0  0  0  0  0  0  0  0
    4.9102  -15.3986  -21.1525 N   0  0  0  0  0  0  0  0  0  0  0  0
    4.3517  -14.6092  -21.3378 H   0  0  0  0  0  0  0  0  0  0  0  0
    5.9661  -15.3277  -20.1113 C   0  0  0  0  0  0  0  0  0  0  0  0
    5.2855  -14.9084  -18.7991 C   0  0  0  0  0  0  0  0  0  0  0  0
    5.5021  -15.5995  -17.7802 O   0  0  0  0  0  0  0  0  0  0  0  0
    4.5542  -13.8941  -18.8443 O   0  0  0  0  0  0  0  0  0  0  0  0
    4.4446  -13.4311  -19.6515 H   0  0  0  0  0  0  0  0  0  0  0  0
    7.1329  -14.3796  -20.4538 C   0  0  0  0  0  0  0  0  0  0  0  0
    8.3859  -15.0388  -21.0442 C   0  0  0  0  0  0  0  0  0  0  0  0
    9.6637  -14.6487  -20.6370 C   0  0  0  0  0  0  0  0  0  0  0  0
    8.2423  -16.0609  -21.9799 C   0  0  0  0  0  0  0  0  0  0  0  0
   10.7953  -15.2731  -21.1758 C   0  0  0  0  0  0  0  0  0  0  0  0
    9.3653  -16.6840  -22.5212 C   0  0  0  0  0  0  0  0  0  0  0  0
   10.6426  -16.2928  -22.1214 C   0  0  0  0  0  0  0  0  0  0  0  0
   11.7293  -16.9200  -22.6717 O   0  0  0  0  0  0  0  0  0  0  0  0
   12.5948  -16.6696  -22.4144 H   0  0  0  0  0  0  0  0  0  0  0  0
    2.2561  -15.8632  -22.2891 C   0  0  0  0  0  0  0  0  0  0  0  0
    0.8906  -16.4306  -22.7342 C   0  0  0  0  0  0  0  0  0  0  0  0
   -0.3303  -15.8964  -22.8155 C   0  0  0  0  0  0  0  0  0  0  0  0
    0.8115  -17.7119  -23.1818 O   0  0  0  0  0  0  0  0  0  0  0  0
   -0.5229  -17.9565  -23.5448 N   0  0  0  0  0  0  0  0  0  0  0  0
   -1.1826  -16.8280  -23.2966 C   0  0  0  0  0  0  0  0  0  0  0  0
   -2.5388  -16.6841  -23.5558 C   0  0  0  0  0  0  0  0  0  0  0  0
   -3.3898  -17.7921  -23.5860 C   0  0  0  0  0  0  0  0  0  0  0  0
   -4.7550  -17.6012  -23.8327 C   0  0  0  0  0  0  0  0  0  0  0  0
   -5.2609  -16.3134  -24.0269 C   0  0  0  0  0  0  0  0  0  0  0  0
   -4.4167  -15.2001  -23.9904 C   0  0  0  0  0  0  0  0  0  0  0  0
   -3.0527  -15.3854  -23.7473 C   0  0  0  0  0  0  0  0  0  0  0  0
    3.9347  -16.0116  -24.2058 C   0  0  0  0  0  0  0  0  0  0  0  0
    3.2552  -13.4042  -23.2783 O   0  0  0  0  0  0  0  0  0  0  0  0
    3.7278  -14.2166  -24.4338 P   0  0  0  0  0  0  0  0  0  0  0  0
    2.8441  -13.9941  -25.7314 O   0  0  0  0  0  0  0  0  0  0  0  0
    2.7175  -13.0435  -25.8773 H   0  0  0  0  0  0  0  0  0  0  0  0
    5.4008  -13.5895  -24.8929 C   0  0  0  0  0  0  0  0  0  0  0  0
    5.3675  -13.0163  -27.3189 C   0  0  0  0  0  0  0  0  0  0  0  0
    5.6802  -14.1392  -27.7359 O   0  0  0  0  0  0  0  0  0  0  0  0
    5.2154  -12.6893  -26.0248 N   0  0  0  0  0  0  0  0  0  0  0  0
    4.9562  -11.7611  -25.8232 H   0  0  0  0  0  0  0  0  0  0  0  0
    5.2267  -11.9663  -28.1734 O   0  0  0  0  0  0  0  0  0  0  0  0
    6.3412  -11.2756  -28.7278 C   0  0  0  0  0  0  0  0  0  0  0  0
    7.0424  -10.4907  -27.8050 C   0  0  0  0  0  0  0  0  0  0  0  0
    6.5808   -9.2025  -27.5104 C   0  0  0  0  0  0  0  0  0  0  0  0
    7.2556   -8.4140  -26.5799 C   0  0  0  0  0  0  0  0  0  0  0  0
    8.3899   -8.9105  -25.9367 C   0  0  0  0  0  0  0  0  0  0  0  0
    8.8481  -10.1982  -26.2163 C   0  0  0  0  0  0  0  0  0  0  0  0
    8.1740  -10.9901  -27.1490 C   0  0  0  0  0  0  0  0  0  0  0  0
    6.0670  -12.7798  -23.7398 C   0  0  0  0  0  0  0  0  0  0  0  0
    7.6284  -12.7780  -23.7897 C   0  0  0  0  0  0  0  0  0  0  0  0
    8.3195  -13.6836  -24.5986 C   0  0  0  0  0  0  0  0  0  0  0  0
    9.7216  -13.6929  -24.6612 C   0  0  0  0  0  0  0  0  0  0  0  0
   10.4699  -12.7945  -23.9007 C   0  0  0  0  0  0  0  0  0  0  0  0
    9.7844  -11.8830  -23.0947 C   0  0  0  0  0  0  0  0  0  0  0  0
    8.3761  -11.8742  -23.0340 C   0  0  0  0  0  0  0  0  0  0  0  0
 45 46  1  0  0  0
 45 44  2  0  0  0
 46 47  2  0  0  0
 47 48  1  0  0  0
 48 49  2  0  0  0
 49 44  1  0  0  0
 44 43  1  0  0  0
 43 42  1  0  0  0
 42 38  1  0  0  0
 38 39  2  0  0  0
 38 40  1  0  0  0
 40 37  1  0  0  0
 37 50  1  0  0  0
 37 34  1  0  0  0
 50 51  1  0  0  0
 51 52  1  0  0  0
 51 56  2  0  0  0
 52 53  2  0  0  0
 53 54  1  0  0  0
 54 55  2  0  0  0
 55 56  1  0  0  0
 34 35  1  0  0  0
 34 33  2  0  0  0
 34 32  1  0  0  0
 32  1  1  0  0  0
  1  2  1  0  0  0
  1 20  1  0  0  0
  2  3  2  0  0  0
  2  4  1  0  0  0
  4  6  1  0  0  0
  6  7  1  0  0  0
  6 11  1  0  0  0
  7  9  1  0  0  0
  7  8  2  0  0  0
 11 12  1  0  0  0
 12 13  1  0  0  0
 12 14  2  0  0  0
 13 15  2  0  0  0
 15 17  1  0  0  0
 17 18  1  0  0  0
 17 16  2  0  0  0
 16 14  1  0  0  0
 20 21  1  0  0  0
 21 22  2  0  0  0
 21 23  1  0  0  0
 22 25  1  0  0  0
 23 24  1  0  0  0
 24 25  2  0  0  0
 25 26  1  0  0  0
 26 27  1  0  0  0
 26 31  2  0  0  0
 27 28  2  0  0  0
 28 29  1  0  0  0
 29 30  2  0  0  0
 30 31  1  0  0  0
 35 36  1  0  0  0
 40 41  1  0  0  0
  4  5  1  0  0  0
 18 19  1  0  0  0
  9 10  1  0  0  0
M  END
> <minimizedAffinity>
-9.29309

$$$$
2XYD_3ES_A_1611


 56 60  0  0  0  0  0  0  0  0999 V2000
   -2.3225  -16.8097  -22.4819 C   0  0  0  0  0  0  0  0  0  0  0  0
   -0.8461  -16.9037  -22.9341 C   0  0  0  0  0  0  0  0  0  0  0  0
   -0.4302  -17.9405  -23.4583 O   0  0  0  0  0  0  0  0  0  0  0  0
   -0.0438  -15.8660  -22.6394 N   0  0  0  0  0  0  0  0  0  0  0  0
   -0.4223  -15.0565  -22.2264 H   0  0  0  0  0  0  0  0  0  0  0  0
    1.4099  -15.9341  -22.9332 C   0  0  0  0  0  0  0  0  0  0  0  0
    2.1166  -14.9730  -21.9649 C   0  0  0  0  0  0  0  0  0  0  0  0
    1.8257  -13.7589  -22.0286 O   0  0  0  0  0  0  0  0  0  0  0  0
    2.9424  -15.4793  -21.1730 O   0  0  0  0  0  0  0  0  0  0  0  0
    3.1029  -16.4023  -21.1903 H   0  0  0  0  0  0  0  0  0  0  0  0
    1.7778  -15.6116  -24.3956 C   0  0  0  0  0  0  0  0  0  0  0  0
    3.2278  -15.1780  -24.6457 C   0  0  0  0  0  0  0  0  0  0  0  0
    3.5193  -14.0640  -25.4361 C   0  0  0  0  0  0  0  0  0  0  0  0
    4.2656  -15.8924  -24.0511 C   0  0  0  0  0  0  0  0  0  0  0  0
    4.8487  -13.6743  -25.6402 C   0  0  0  0  0  0  0  0  0  0  0  0
    5.5906  -15.5104  -24.2530 C   0  0  0  0  0  0  0  0  0  0  0  0
    5.8854  -14.4023  -25.0465 C   0  0  0  0  0  0  0  0  0  0  0  0
    7.1967  -14.0505  -25.2307 O   0  0  0  0  0  0  0  0  0  0  0  0
    7.4128  -13.3087  -25.7609 H   0  0  0  0  0  0  0  0  0  0  0  0
   -2.8155  -15.3719  -22.2582 C   0  0  0  0  0  0  0  0  0  0  0  0
   -3.7987  -14.7975  -23.3013 C   0  0  0  0  0  0  0  0  0  0  0  0
   -5.0021  -14.2286  -23.1962 C   0  0  0  0  0  0  0  0  0  0  0  0
   -3.4527  -14.7921  -24.6161 O   0  0  0  0  0  0  0  0  0  0  0  0
   -4.5024  -14.1942  -25.3321 N   0  0  0  0  0  0  0  0  0  0  0  0
   -5.4266  -13.8756  -24.4295 C   0  0  0  0  0  0  0  0  0  0  0  0
   -6.6124  -13.2384  -24.7685 C   0  0  0  0  0  0  0  0  0  0  0  0
   -6.9157  -12.9375  -26.0991 C   0  0  0  0  0  0  0  0  0  0  0  0
   -8.1312  -12.3107  -26.4000 C   0  0  0  0  0  0  0  0  0  0  0  0
   -9.0375  -12.0081  -25.3806 C   0  0  0  0  0  0  0  0  0  0  0  0
   -8.7439  -12.3130  -24.0485 C   0  0  0  0  0  0  0  0  0  0  0  0
   -7.5307  -12.9362  -23.7424 C   0  0  0  0  0  0  0  0  0  0  0  0
   -3.2360  -17.5716  -23.4821 C   0  0  0  0  0  0  0  0  0  0  0  0
   -3.6866  -19.5419  -21.4733 O   0  0  0  0  0  0  0  0  0  0  0  0
   -3.8947  -19.1664  -22.8995 P   0  0  0  0  0  0  0  0  0  0  0  0
   -3.3931  -20.2896  -23.9001 O   0  0  0  0  0  0  0  0  0  0  0  0
   -3.7304  -21.1526  -23.6128 H   0  0  0  0  0  0  0  0  0  0  0  0
   -5.7158  -19.0703  -23.1775 C   0  0  0  0  0  0  0  0  0  0  0  0
   -7.4371  -20.7304  -22.4731 C   0  0  0  0  0  0  0  0  0  0  0  0
   -8.0856  -20.7210  -23.5276 O   0  0  0  0  0  0  0  0  0  0  0  0
   -6.3330  -20.0013  -22.2404 N   0  0  0  0  0  0  0  0  0  0  0  0
   -5.9033  -20.1046  -21.3606 H   0  0  0  0  0  0  0  0  0  0  0  0
   -7.8589  -21.4512  -21.3984 O   0  0  0  0  0  0  0  0  0  0  0  0
   -7.0748  -22.4867  -20.8155 C   0  0  0  0  0  0  0  0  0  0  0  0
   -6.8285  -22.3149  -19.4483 C   0  0  0  0  0  0  0  0  0  0  0  0
   -7.6483  -22.9635  -18.5175 C   0  0  0  0  0  0  0  0  0  0  0  0
   -7.4061  -22.8191  -17.1525 C   0  0  0  0  0  0  0  0  0  0  0  0
   -6.3419  -22.0313  -16.7122 C   0  0  0  0  0  0  0  0  0  0  0  0
   -5.5133  -21.3922  -17.6348 C   0  0  0  0  0  0  0  0  0  0  0  0
   -5.7544  -21.5348  -19.0034 C   0  0  0  0  0  0  0  0  0  0  0  0
   -6.2853  -17.6489  -22.8872 C   0  0  0  0  0  0  0  0  0  0  0  0
   -7.1935  -17.0875  -24.0276 C   0  0  0  0  0  0  0  0  0  0  0  0
   -6.7960  -17.1692  -25.3646 C   0  0  0  0  0  0  0  0  0  0  0  0
   -7.6012  -16.6760  -26.4031 C   0  0  0  0  0  0  0  0  0  0  0  0
   -8.8284  -16.0755  -26.1228 C   0  0  0  0  0  0  0  0  0  0  0  0
   -9.2337  -15.9963  -24.7886 C   0  0  0  0  0  0  0  0  0  0  0  0
   -8.4243  -16.4932  -23.7469 C   0  0  0  0  0  0  0  0  0  0  0  0
 45 46  1  0  0  0
 45 44  2  0  0  0
 46 47  2  0  0  0
 47 48  1  0  0  0
 48 49  2  0  0  0
 49 44  1  0  0  0
 44 43  1  0  0  0
 43 42  1  0  0  0
 42 38  1  0  0  0
 38 39  2  0  0  0
 38 40  1  0  0  0
 40 37  1  0  0  0
 37 50  1  0  0  0
 37 34  1  0  0  0
 50 51  1  0  0  0
 51 52  1  0  0  0
 51 56  2  0  0  0
 52 53  2  0  0  0
 53 54  1  0  0  0
 54 55  2  0  0  0
 55 56  1  0  0  0
 34 35  1  0  0  0
 34 33  2  0  0  0
 34 32  1  0  0  0
 32  1  1  0  0  0
  1  2  1  0  0  0
  1 20  1  0  0  0
  2  3  2  0  0  0
  2  4  1  0  0  0
  4  6  1  0  0  0
  6  7  1  0  0  0
  6 11  1  0  0  0
  7  9  1  0  0  0
  7  8  2  0  0  0
 11 12  1  0  0  0
 12 13  1  0  0  0
 12 14  2  0  0  0
 13 15  2  0  0  0
 15 17  1  0  0  0
 17 18  1  0  0  0
 17 16  2  0  0  0
 16 14  1  0  0  0
 20 21  1  0  0  0
 21 22  2  0  0  0
 21 23  1  0  0  0
 22 25  1  0  0  0
 23 24  1  0  0  0
 24 25  2  0  0  0
 25 26  1  0  0  0
 26 27  1  0  0  0
 26 31  2  0  0  0
 27 28  2  0  0  0
 28 29  1  0  0  0
 29 30  2  0  0  0
 30 31  1  0  0  0
 35 36  1  0  0  0
 40 41  1  0  0  0
  4  5  1  0  0  0
 18 19  1  0  0  0
  9 10  1  0  0  0
M  END
> <minimizedAffinity>
-9.17664

$$$$
2XYD_3ES_A_1611


 56 60  0  0  0  0  0  0  0  0999 V2000
   -4.1158  -16.0068  -23.6388 C   0  0  0  0  0  0  0  0  0  0  0  0
   -5.2307  -15.2361  -24.3847 C   0  0  0  0  0  0  0  0  0  0  0  0
   -4.9935  -14.1224  -24.8602 O   0  0  0  0  0  0  0  0  0  0  0  0
   -6.4583  -15.7841  -24.3948 N   0  0  0  0  0  0  0  0  0  0  0  0
   -6.5982  -16.6787  -24.0083 H   0  0  0  0  0  0  0  0  0  0  0  0
   -7.6041  -15.0476  -24.9854 C   0  0  0  0  0  0  0  0  0  0  0  0
   -8.7362  -15.0565  -23.9466 C   0  0  0  0  0  0  0  0  0  0  0  0
   -9.8376  -14.5658  -24.2767 O   0  0  0  0  0  0  0  0  0  0  0  0
   -8.4723  -15.5591  -22.8316 O   0  0  0  0  0  0  0  0  0  0  0  0
   -7.6182  -15.9065  -22.6647 H   0  0  0  0  0  0  0  0  0  0  0  0
   -8.0917  -15.6095  -26.3360 C   0  0  0  0  0  0  0  0  0  0  0  0
   -8.5957  -17.0582  -26.3208 C   0  0  0  0  0  0  0  0  0  0  0  0
   -9.9583  -17.3470  -26.4242 C   0  0  0  0  0  0  0  0  0  0  0  0
   -7.6749  -18.0998  -26.2303 C   0  0  0  0  0  0  0  0  0  0  0  0
  -10.3980  -18.6765  -26.4243 C   0  0  0  0  0  0  0  0  0  0  0  0
   -8.1073  -19.4247  -26.2274 C   0  0  0  0  0  0  0  0  0  0  0  0
   -9.4674  -19.7163  -26.3244 C   0  0  0  0  0  0  0  0  0  0  0  0
   -9.8652  -21.0274  -26.3162 O   0  0  0  0  0  0  0  0  0  0  0  0
  -10.7752  -21.2413  -26.3805 H   0  0  0  0  0  0  0  0  0  0  0  0
   -3.1070  -15.1001  -22.9173 C   0  0  0  0  0  0  0  0  0  0  0  0
   -1.6689  -15.6395  -22.7571 C   0  0  0  0  0  0  0  0  0  0  0  0
   -0.4941  -15.2527  -23.2599 C   0  0  0  0  0  0  0  0  0  0  0  0
   -1.4383  -16.6983  -21.9361 O   0  0  0  0  0  0  0  0  0  0  0  0
   -0.0586  -16.9595  -21.9522 N   0  0  0  0  0  0  0  0  0  0  0  0
    0.4743  -16.0620  -22.7773 C   0  0  0  0  0  0  0  0  0  0  0  0
    1.8380  -15.9967  -23.0287 C   0  0  0  0  0  0  0  0  0  0  0  0
    2.7682  -16.4472  -22.0880 C   0  0  0  0  0  0  0  0  0  0  0  0
    4.1342  -16.3806  -22.3887 C   0  0  0  0  0  0  0  0  0  0  0  0
    4.5587  -15.8865  -23.6248 C   0  0  0  0  0  0  0  0  0  0  0  0
    3.6335  -15.4413  -24.5732 C   0  0  0  0  0  0  0  0  0  0  0  0
    2.2688  -15.5030  -24.2769 C   0  0  0  0  0  0  0  0  0  0  0  0
   -4.7435  -17.0421  -22.6644 C   0  0  0  0  0  0  0  0  0  0  0  0
   -3.1093  -19.3762  -22.6187 O   0  0  0  0  0  0  0  0  0  0  0  0
   -4.4118  -18.7922  -23.0439 P   0  0  0  0  0  0  0  0  0  0  0  0
   -4.6988  -19.0136  -24.5876 O   0  0  0  0  0  0  0  0  0  0  0  0
   -4.5297  -19.9405  -24.8182 H   0  0  0  0  0  0  0  0  0  0  0  0
   -5.7403  -19.7365  -22.1801 C   0  0  0  0  0  0  0  0  0  0  0  0
   -4.9338  -20.5829  -19.9782 C   0  0  0  0  0  0  0  0  0  0  0  0
   -4.5773  -21.6999  -20.3757 O   0  0  0  0  0  0  0  0  0  0  0  0
   -5.4728  -19.6254  -20.7511 N   0  0  0  0  0  0  0  0  0  0  0  0
   -5.7076  -18.7747  -20.3146 H   0  0  0  0  0  0  0  0  0  0  0  0
   -4.8764  -20.2587  -18.6576 O   0  0  0  0  0  0  0  0  0  0  0  0
   -5.2163  -21.1807  -17.6274 C   0  0  0  0  0  0  0  0  0  0  0  0
   -6.5937  -21.3563  -17.4507 C   0  0  0  0  0  0  0  0  0  0  0  0
   -7.2073  -22.5102  -17.9519 C   0  0  0  0  0  0  0  0  0  0  0  0
   -8.5744  -22.7108  -17.7686 C   0  0  0  0  0  0  0  0  0  0  0  0
   -9.3324  -21.7631  -17.0800 C   0  0  0  0  0  0  0  0  0  0  0  0
   -8.7249  -20.6168  -16.5670 C   0  0  0  0  0  0  0  0  0  0  0  0
   -7.3550  -20.4131  -16.7500 C   0  0  0  0  0  0  0  0  0  0  0  0
   -7.1576  -19.1472  -22.4503 C   0  0  0  0  0  0  0  0  0  0  0  0
   -8.3148  -19.9508  -21.7753 C   0  0  0  0  0  0  0  0  0  0  0  0
   -8.4690  -21.3190  -22.0125 C   0  0  0  0  0  0  0  0  0  0  0  0
   -9.4987  -22.0588  -21.4104 C   0  0  0  0  0  0  0  0  0  0  0  0
  -10.4111  -21.4375  -20.5577 C   0  0  0  0  0  0  0  0  0  0  0  0
  -10.2584  -20.0712  -20.3122 C   0  0  0  0  0  0  0  0  0  0  0  0
   -9.2230  -19.3300  -20.9169 C   0  0  0  0  0  0  0  0  0  0  0  0
 45 46  1  0  0  0
 45 44  2  0  0  0
 46 47  2  0  0  0
 47 48  1  0  0  0
 48 49  2  0  0  0
 49 44  1  0  0  0
 44 43  1  0  0  0
 43 42  1  0  0  0
 42 38  1  0  0  0
 38 39  2  0  0  0
 38 40  1  0  0  0
 40 37  1  0  0  0
 37 50  1  0  0  0
 37 34  1  0  0  0
 50 51  1  0  0  0
 51 52  1  0  0  0
 51 56  2  0  0  0
 52 53  2  0  0  0
 53 54  1  0  0  0
 54 55  2  0  0  0
 55 56  1  0  0  0
 34 35  1  0  0  0
 34 33  2  0  0  0
 34 32  1  0  0  0
 32  1  1  0  0  0
  1  2  1  0  0  0
  1 20  1  0  0  0
  2  3  2  0  0  0
  2  4  1  0  0  0
  4  6  1  0  0  0
  6  7  1  0  0  0
  6 11  1  0  0  0
  7  9  1  0  0  0
  7  8  2  0  0  0
 11 12  1  0  0  0
 12 13  1  0  0  0
 12 14  2  0  0  0
 13 15  2  0  0  0
 15 17  1  0  0  0
 17 18  1  0  0  0
 17 16  2  0  0  0
 16 14  1  0  0  0
 20 21  1  0  0  0
 21 22  2  0  0  0
 21 23  1  0  0  0
 22 25  1  0  0  0
 23 24  1  0  0  0
 24 25  2  0  0  0
 25 26  1  0  0  0
 26 27  1  0  0  0
 26 31  2  0  0  0
 27 28  2  0  0  0
 28 29  1  0  0  0
 29 30  2  0  0  0
 30 31  1  0  0  0
 35 36  1  0  0  0
 40 41  1  0  0  0
  4  5  1  0  0  0
 18 19  1  0  0  0
  9 10  1  0  0  0
M  END
> <minimizedAffinity>
-8.96463

$$$$
