5VL2_9EG_A_201
  RCSB PDB04211801243D
Coordinates from PDB:5VL2:A:201 Model:1 without hydrogens
 19 20  0  0  0  0            999 V2000
  -41.1590   22.7060    1.1270   C 0  0  0  0  0  0  0  0  0  0  0  0
  -39.9270   23.0610    0.6250   C 0  0  0  0  0  0  0  0  0  0  0  0
  -43.7860   23.1060    1.7530  Cl 0  0  0  0  0  0  0  0  0  0  0  0
  -31.6950   19.1250   -1.4470  Cl 0  0  0  0  0  0  0  0  0  0  0  0
  -37.8040   22.0090    0.0350   C 0  0  0  0  0  0  0  0  0  0  0  0
  -38.9740   22.0850    0.6940   N 0  0  0  0  0  0  0  0  0  0  0  0
  -35.8910   20.4520   -0.1510   C 0  0  0  0  0  0  0  0  0  0  0  0
  -35.3330   20.8930   -1.3520   C 0  0  0  0  0  0  0  0  0  0  0  0
  -34.0770   20.4810   -1.7280   C 0  0  0  0  0  0  0  0  0  0  0  0
  -33.3470   19.6130   -0.9270   C 0  0  0  0  0  0  0  0  0  0  0  0
  -33.8780   19.1800    0.2910   C 0  0  0  0  0  0  0  0  0  0  0  0
  -35.1530   19.5900    0.6630   C 0  0  0  0  0  0  0  0  0  0  0  0
  -37.1000   20.8680    0.3180   N 0  0  0  0  0  0  0  0  0  0  0  0
  -37.4150   22.8750   -0.7340   O 0  0  0  0  0  0  0  0  0  0  0  0
  -42.2100   23.6000    1.0850   C 0  0  0  0  0  0  0  0  0  0  0  0
  -42.0650   24.8480    0.5480   C 0  0  0  0  0  0  0  0  0  0  0  0
  -40.8530   25.2310    0.0210   C 0  0  0  0  0  0  0  0  0  0  0  0
  -39.7910   24.3500    0.0420   C 0  0  0  0  0  0  0  0  0  0  0  0
  -43.4860   25.9650    0.5400  Cl 0  0  0  0  0  0  0  0  0  0  0  0
  9  8  2  0  0  0  0
  9 10  1  0  0  0  0
  4 10  1  0  0  0  0
  8  7  1  0  0  0  0
 10 11  2  0  0  0  0
 14  5  2  0  0  0  0
  7 13  1  0  0  0  0
  7 12  2  0  0  0  0
 17 18  2  0  0  0  0
 17 16  1  0  0  0  0
  5 13  1  0  0  0  0
  5  6  1  0  0  0  0
 18  2  1  0  0  0  0
 11 12  1  0  0  0  0
 19 16  1  0  0  0  0
 16 15  2  0  0  0  0
  2  6  1  0  0  0  0
  2  1  2  0  0  0  0
 15  1  1  0  0  0  0
 15  3  1  0  0  0  0
A    1
C12
A    2
C11
A    3
CL2
A    4
CL1
A    5
C8
A    6
N1
A    7
C4
A    8
C5
A    9
C6
A   10
C1
A   11
C2
A   12
C3
A   13
N7
A   14
O9
A   15
C13
A   16
C14
A   17
C15
A   18
C16
A   19
CL3
M  END
>  <InstanceId>
5VL2_9EG_A_201

>  <ChemCompId>
9EG

>  <PdbId>
5VL2

>  <ChainId>
A

>  <ResidueNumber>
201

>  <InsertionCode>


>  <Model>
1

>  <AltIds>


>  <MissingHeavyAtoms>
0

>  <ObservedFormula>
C13 N2 O Cl3

>  <Name>
N-(4-chlorophenyl)-N'-(3,4-dichlorophenyl)urea

>  <SystematicName>
1-(4-chlorophenyl)-3-(3,4-dichlorophenyl)urea

>  <Synonyms>


>  <Type>
NON-POLYMER

>  <Formula>
C13 H9 Cl3 N2 O

>  <MolecularWeight>
315.582

>  <ModifiedDate>
2018-04-20

>  <Parent>


>  <OneLetterCode>


>  <SubcomponentList>


>  <AmbiguousFlag>
N

>  <InChI>
InChI=1S/C13H9Cl3N2O/c14-8-1-3-9(4-2-8)17-13(19)18-10-5-6-11(15)12(16)7-10/h1-7H,(H2,17,18,19)

>  <InChIKey>
ICUTUKXCWQYESQ-UHFFFAOYSA-N

>  <SMILES>
c1cc(ccc1NC(=O)Nc2ccc(c(c2)Cl)Cl)Cl

$$$$
