3HWW_AKG_A_557


 12 11  0  0  0  0  0  0  0  0999 V2000
  -44.3003    2.4193   13.1318 C   0  0  0  0  0  0  0  0  0  0  0  0
  -43.5875    1.3580   13.4044 O   0  0  0  0  0  0  0  0  0  0  0  0
  -45.6214    2.8026   13.3504 C   0  0  0  0  0  0  0  0  0  0  0  0
  -46.0824    3.8833   13.0262 O   0  0  0  0  0  0  0  0  0  0  0  0
  -46.2715    1.8548   13.9328 O   0  0  0  0  0  0  0  0  0  0  0  0
  -45.8379    1.0525   14.1477 H   0  0  0  0  0  0  0  0  0  0  0  0
  -43.1108    2.9881   12.7923 C   0  0  0  0  0  0  0  0  0  0  0  0
  -42.4912    2.2774   11.6345 C   0  0  0  0  0  0  0  0  0  0  0  0
  -42.8040    3.1710   10.4721 C   0  0  0  0  0  0  0  0  0  0  0  0
  -42.6477    2.7270    9.3213 O   0  0  0  0  0  0  0  0  0  0  0  0
  -43.1953    4.3326   10.6795 O   0  0  0  0  0  0  0  0  0  0  0  0
  -43.3041    4.6405   11.5578 H   0  0  0  0  0  0  0  0  0  0  0  0
  3  4  2  0  0  0
  3  5  1  0  0  0
  3  1  1  0  0  0
  1  2  2  0  0  0
  1  7  1  0  0  0
  7  8  1  0  0  0
  8  9  1  0  0  0
  9 10  2  0  0  0
  9 11  1  0  0  0
  5  6  1  0  0  0
 11 12  1  0  0  0
M  END
> <minimizedAffinity>
-5.22467

$$$$
3HWW_AKG_A_557


 12 11  0  0  0  0  0  0  0  0999 V2000
  -42.7956    2.6463   11.7116 C   0  0  0  0  0  0  0  0  0  0  0  0
  -42.5830    1.4333   12.1499 O   0  0  0  0  0  0  0  0  0  0  0  0
  -42.8551    3.2444   10.4552 C   0  0  0  0  0  0  0  0  0  0  0  0
  -42.5607    2.6814    9.4150 O   0  0  0  0  0  0  0  0  0  0  0  0
  -43.2666    4.4611   10.5582 O   0  0  0  0  0  0  0  0  0  0  0  0
  -43.4719    4.8165   11.4005 H   0  0  0  0  0  0  0  0  0  0  0  0
  -43.1504    2.9233   12.9965 C   0  0  0  0  0  0  0  0  0  0  0  0
  -44.0227    1.8467   13.5527 C   0  0  0  0  0  0  0  0  0  0  0  0
  -45.3635    2.5086   13.6606 C   0  0  0  0  0  0  0  0  0  0  0  0
  -45.4583    3.7125   13.3647 O   0  0  0  0  0  0  0  0  0  0  0  0
  -46.3420    1.8509   14.0547 O   0  0  0  0  0  0  0  0  0  0  0  0
  -46.2412    0.9448   14.2708 H   0  0  0  0  0  0  0  0  0  0  0  0
  3  4  2  0  0  0
  3  5  1  0  0  0
  3  1  1  0  0  0
  1  2  2  0  0  0
  1  7  1  0  0  0
  7  8  1  0  0  0
  8  9  1  0  0  0
  9 10  2  0  0  0
  9 11  1  0  0  0
  5  6  1  0  0  0
 11 12  1  0  0  0
M  END
> <minimizedAffinity>
-5.21630

$$$$
3HWW_AKG_A_557


 12 11  0  0  0  0  0  0  0  0999 V2000
  -42.4080    2.5283   11.5818 C   0  0  0  0  0  0  0  0  0  0  0  0
  -42.4923    1.2633   11.8999 O   0  0  0  0  0  0  0  0  0  0  0  0
  -42.7984    3.2983   10.4888 C   0  0  0  0  0  0  0  0  0  0  0  0
  -43.2566    4.4245   10.5743 O   0  0  0  0  0  0  0  0  0  0  0  0
  -42.5999    2.6514    9.3922 O   0  0  0  0  0  0  0  0  0  0  0  0
  -42.2422    1.7857    9.4172 H   0  0  0  0  0  0  0  0  0  0  0  0
  -42.0130    2.7067   12.8724 C   0  0  0  0  0  0  0  0  0  0  0  0
  -43.1136    2.3593   13.8197 C   0  0  0  0  0  0  0  0  0  0  0  0
  -43.8862    3.6388   13.9370 C   0  0  0  0  0  0  0  0  0  0  0  0
  -45.0974    3.6304   13.6561 O   0  0  0  0  0  0  0  0  0  0  0  0
  -43.3030    4.6766   14.2948 O   0  0  0  0  0  0  0  0  0  0  0  0
  -42.3891    4.6533   14.5003 H   0  0  0  0  0  0  0  0  0  0  0  0
  3  4  2  0  0  0
  3  5  1  0  0  0
  3  1  1  0  0  0
  1  2  2  0  0  0
  1  7  1  0  0  0
  7  8  1  0  0  0
  8  9  1  0  0  0
  9 10  2  0  0  0
  9 11  1  0  0  0
  5  6  1  0  0  0
 11 12  1  0  0  0
M  END
> <minimizedAffinity>
-5.16401

$$$$
3HWW_AKG_A_557


 12 11  0  0  0  0  0  0  0  0999 V2000
  -42.2407    2.2117   10.4171 C   0  0  0  0  0  0  0  0  0  0  0  0
  -42.6591    2.8963    9.3852 O   0  0  0  0  0  0  0  0  0  0  0  0
  -41.5730    1.0020   10.5929 C   0  0  0  0  0  0  0  0  0  0  0  0
  -40.4985    0.8896   11.1571 O   0  0  0  0  0  0  0  0  0  0  0  0
  -42.2555    0.0361   10.0813 O   0  0  0  0  0  0  0  0  0  0  0  0
  -43.0757    0.2118    9.6638 H   0  0  0  0  0  0  0  0  0  0  0  0
  -42.5437    3.3287   11.1341 C   0  0  0  0  0  0  0  0  0  0  0  0
  -42.5548    3.0358   12.5982 C   0  0  0  0  0  0  0  0  0  0  0  0
  -43.9542    2.5576   12.8450 C   0  0  0  0  0  0  0  0  0  0  0  0
  -44.9002    3.2316   12.4014 O   0  0  0  0  0  0  0  0  0  0  0  0
  -44.1400    1.5146   13.4952 O   0  0  0  0  0  0  0  0  0  0  0  0
  -43.4079    1.0267   13.8174 H   0  0  0  0  0  0  0  0  0  0  0  0
  3  4  2  0  0  0
  3  5  1  0  0  0
  3  1  1  0  0  0
  1  2  2  0  0  0
  1  7  1  0  0  0
  7  8  1  0  0  0
  8  9  1  0  0  0
  9 10  2  0  0  0
  9 11  1  0  0  0
  5  6  1  0  0  0
 11 12  1  0  0  0
M  END
> <minimizedAffinity>
-4.85183

$$$$
3HWW_AKG_A_557


 12 11  0  0  0  0  0  0  0  0999 V2000
  -45.2241    2.7180   13.1633 C   0  0  0  0  0  0  0  0  0  0  0  0
  -44.5585    2.8292   12.0438 O   0  0  0  0  0  0  0  0  0  0  0  0
  -46.5728    2.6935   13.5103 C   0  0  0  0  0  0  0  0  0  0  0  0
  -47.2692    3.6880   13.6184 O   0  0  0  0  0  0  0  0  0  0  0  0
  -46.9660    1.4799   13.6913 O   0  0  0  0  0  0  0  0  0  0  0  0
  -46.3620    0.7713   13.5872 H   0  0  0  0  0  0  0  0  0  0  0  0
  -44.0183    2.4072   13.7139 C   0  0  0  0  0  0  0  0  0  0  0  0
  -43.9739    2.7962   15.1548 C   0  0  0  0  0  0  0  0  0  0  0  0
  -43.2022    4.0815   15.1427 C   0  0  0  0  0  0  0  0  0  0  0  0
  -42.5083    4.3682   16.1338 O   0  0  0  0  0  0  0  0  0  0  0  0
  -43.2823    4.8356   14.1577 O   0  0  0  0  0  0  0  0  0  0  0  0
  -43.8131    4.5937   13.4244 H   0  0  0  0  0  0  0  0  0  0  0  0
  3  4  2  0  0  0
  3  5  1  0  0  0
  3  1  1  0  0  0
  1  2  2  0  0  0
  1  7  1  0  0  0
  7  8  1  0  0  0
  8  9  1  0  0  0
  9 10  2  0  0  0
  9 11  1  0  0  0
  5  6  1  0  0  0
 11 12  1  0  0  0
M  END
> <minimizedAffinity>
-4.73918

$$$$
3HWW_AKG_A_557


 12 11  0  0  0  0  0  0  0  0999 V2000
  -43.4637    1.9142   13.1419 C   0  0  0  0  0  0  0  0  0  0  0  0
  -43.2451    0.8901   13.9242 O   0  0  0  0  0  0  0  0  0  0  0  0
  -44.4280    2.9171   13.0767 C   0  0  0  0  0  0  0  0  0  0  0  0
  -45.3241    2.9516   12.2512 O   0  0  0  0  0  0  0  0  0  0  0  0
  -44.2344    3.7850   14.0092 O   0  0  0  0  0  0  0  0  0  0  0  0
  -43.5178    3.6816   14.6040 H   0  0  0  0  0  0  0  0  0  0  0  0
  -42.2247    1.6496   12.6433 C   0  0  0  0  0  0  0  0  0  0  0  0
  -41.8098    2.6966   11.6629 C   0  0  0  0  0  0  0  0  0  0  0  0
  -42.1881    2.1014   10.3399 C   0  0  0  0  0  0  0  0  0  0  0  0
  -42.6402    2.8517    9.4575 O   0  0  0  0  0  0  0  0  0  0  0  0
  -42.0578    0.8787   10.1579 O   0  0  0  0  0  0  0  0  0  0  0  0
  -41.7141    0.3373   10.8411 H   0  0  0  0  0  0  0  0  0  0  0  0
  3  4  2  0  0  0
  3  5  1  0  0  0
  3  1  1  0  0  0
  1  2  2  0  0  0
  1  7  1  0  0  0
  7  8  1  0  0  0
  8  9  1  0  0  0
  9 10  2  0  0  0
  9 11  1  0  0  0
  5  6  1  0  0  0
 11 12  1  0  0  0
M  END
> <minimizedAffinity>
-4.71191

$$$$
3HWW_AKG_A_557


 12 11  0  0  0  0  0  0  0  0999 V2000
  -43.0409    3.3213   11.3861 C   0  0  0  0  0  0  0  0  0  0  0  0
  -43.2545    4.3353   10.5894 O   0  0  0  0  0  0  0  0  0  0  0  0
  -43.3327    3.0349   12.7176 C   0  0  0  0  0  0  0  0  0  0  0  0
  -43.1506    3.8108   13.6398 O   0  0  0  0  0  0  0  0  0  0  0  0
  -43.8209    1.8472   12.8229 O   0  0  0  0  0  0  0  0  0  0  0  0
  -43.9277    1.3151   12.0590 H   0  0  0  0  0  0  0  0  0  0  0  0
  -42.6558    2.6650   10.2572 C   0  0  0  0  0  0  0  0  0  0  0  0
  -41.2419    2.1979   10.3680 C   0  0  0  0  0  0  0  0  0  0  0  0
  -41.3830    0.7404   10.6895 C   0  0  0  0  0  0  0  0  0  0  0  0
  -40.6530    0.2519   11.5695 O   0  0  0  0  0  0  0  0  0  0  0  0
  -42.2086    0.0519   10.0653 O   0  0  0  0  0  0  0  0  0  0  0  0
  -42.7458    0.4470    9.4071 H   0  0  0  0  0  0  0  0  0  0  0  0
  3  4  2  0  0  0
  3  5  1  0  0  0
  3  1  1  0  0  0
  1  2  2  0  0  0
  1  7  1  0  0  0
  7  8  1  0  0  0
  8  9  1  0  0  0
  9 10  2  0  0  0
  9 11  1  0  0  0
  5  6  1  0  0  0
 11 12  1  0  0  0
M  END
> <minimizedAffinity>
-4.63826

$$$$
3HWW_AKG_A_557


 12 11  0  0  0  0  0  0  0  0999 V2000
  -45.0534    2.3391   13.8198 C   0  0  0  0  0  0  0  0  0  0  0  0
  -44.3101    1.3193   14.1606 O   0  0  0  0  0  0  0  0  0  0  0  0
  -46.4136    2.5360   13.5939 C   0  0  0  0  0  0  0  0  0  0  0  0
  -46.9131    3.6149   13.3255 O   0  0  0  0  0  0  0  0  0  0  0  0
  -47.0512    1.4219   13.7049 O   0  0  0  0  0  0  0  0  0  0  0  0
  -46.5872    0.6354   13.9149 H   0  0  0  0  0  0  0  0  0  0  0  0
  -43.9332    3.0807   14.0407 C   0  0  0  0  0  0  0  0  0  0  0  0
  -42.7176    2.3725   13.5405 C   0  0  0  0  0  0  0  0  0  0  0  0
  -41.8563    3.4856   13.0242 C   0  0  0  0  0  0  0  0  0  0  0  0
  -40.7283    3.2083   12.5805 O   0  0  0  0  0  0  0  0  0  0  0  0
  -42.2766    4.6548   13.0633 O   0  0  0  0  0  0  0  0  0  0  0  0
  -43.1311    4.8343   13.4030 H   0  0  0  0  0  0  0  0  0  0  0  0
  3  4  2  0  0  0
  3  5  1  0  0  0
  3  1  1  0  0  0
  1  2  2  0  0  0
  1  7  1  0  0  0
  7  8  1  0  0  0
  8  9  1  0  0  0
  9 10  2  0  0  0
  9 11  1  0  0  0
  5  6  1  0  0  0
 11 12  1  0  0  0
M  END
> <minimizedAffinity>
-4.26970

$$$$
3HWW_AKG_A_557


 12 11  0  0  0  0  0  0  0  0999 V2000
  -43.6375    2.8125   13.4231 C   0  0  0  0  0  0  0  0  0  0  0  0
  -44.6466    2.4411   12.6799 O   0  0  0  0  0  0  0  0  0  0  0  0
  -43.5014    3.4511   14.6535 C   0  0  0  0  0  0  0  0  0  0  0  0
  -43.2823    4.6428   14.7849 O   0  0  0  0  0  0  0  0  0  0  0  0
  -43.6452    2.6051   15.6147 O   0  0  0  0  0  0  0  0  0  0  0  0
  -43.8121    1.7030   15.4238 H   0  0  0  0  0  0  0  0  0  0  0  0
  -42.8821    2.0792   12.5599 C   0  0  0  0  0  0  0  0  0  0  0  0
  -42.1912    2.9621   11.5736 C   0  0  0  0  0  0  0  0  0  0  0  0
  -42.3323    2.2147   10.2816 C   0  0  0  0  0  0  0  0  0  0  0  0
  -42.1521    0.9845   10.2832 O   0  0  0  0  0  0  0  0  0  0  0  0
  -42.6091    2.8358    9.2410 O   0  0  0  0  0  0  0  0  0  0  0  0
  -42.7395    3.7632    9.2696 H   0  0  0  0  0  0  0  0  0  0  0  0
  3  4  2  0  0  0
  3  5  1  0  0  0
  3  1  1  0  0  0
  1  2  2  0  0  0
  1  7  1  0  0  0
  7  8  1  0  0  0
  8  9  1  0  0  0
  9 10  2  0  0  0
  9 11  1  0  0  0
  5  6  1  0  0  0
 11 12  1  0  0  0
M  END
> <minimizedAffinity>
-4.26030

$$$$
3HWW_AKG_A_557


 12 11  0  0  0  0  0  0  0  0999 V2000
  -44.6003    2.9168   14.0114 C   0  0  0  0  0  0  0  0  0  0  0  0
  -43.9297    4.0297   13.8684 O   0  0  0  0  0  0  0  0  0  0  0  0
  -45.7554    2.5424   14.6936 C   0  0  0  0  0  0  0  0  0  0  0  0
  -46.0419    2.9252   15.8148 O   0  0  0  0  0  0  0  0  0  0  0  0
  -46.4650    1.7475   13.9691 O   0  0  0  0  0  0  0  0  0  0  0  0
  -46.1690    1.5031   13.1143 H   0  0  0  0  0  0  0  0  0  0  0  0
  -43.7923    2.4395   13.0250 C   0  0  0  0  0  0  0  0  0  0  0  0
  -42.9827    1.2832   13.5119 C   0  0  0  0  0  0  0  0  0  0  0  0
  -41.9346    1.1237   12.4518 C   0  0  0  0  0  0  0  0  0  0  0  0
  -40.8855    1.7839   12.5483 O   0  0  0  0  0  0  0  0  0  0  0  0
  -42.1394    0.3530   11.4981 O   0  0  0  0  0  0  0  0  0  0  0  0
  -42.9396   -0.1322   11.4514 H   0  0  0  0  0  0  0  0  0  0  0  0
  3  4  2  0  0  0
  3  5  1  0  0  0
  3  1  1  0  0  0
  1  2  2  0  0  0
  1  7  1  0  0  0
  7  8  1  0  0  0
  8  9  1  0  0  0
  9 10  2  0  0  0
  9 11  1  0  0  0
  5  6  1  0  0  0
 11 12  1  0  0  0
M  END
> <minimizedAffinity>
-4.23453

$$$$
