1I5R_HYC_A_328


 55 61  0  0  0  0  0  0  0  0999 V2000
   13.7202   -0.4963   -6.7127 C   0  0  0  0  0  0  0  0  0  0  0  0
   12.5017    0.0271   -7.3654 C   0  0  0  0  0  0  0  0  0  0  0  0
   12.8147    0.8279   -8.5477 C   0  0  0  0  0  0  0  0  0  0  0  0
   11.5975    1.5533   -9.0078 C   0  0  0  0  0  0  0  0  0  0  0  0
   12.0519    2.9950   -9.3498 C   0  0  0  0  0  0  0  0  0  0  0  0
   13.0436    3.5165   -8.4240 C   0  0  0  0  0  0  0  0  0  0  0  0
    9.5069   11.0164  -10.9524 C   0  0  0  0  0  0  0  0  0  0  0  0
    8.7003   11.7341  -11.8594 C   0  0  0  0  0  0  0  0  0  0  0  0
    8.5089   11.2870  -13.1709 C   0  0  0  0  0  0  0  0  0  0  0  0
    7.7701   11.9566  -13.9810 O   0  0  0  0  0  0  0  0  0  0  0  0
    9.1282   10.0886  -13.6194 C   0  0  0  0  0  0  0  0  0  0  0  0
    9.9504    9.3295  -12.7422 C   0  0  0  0  0  0  0  0  0  0  0  0
   10.6109    8.0162  -13.2828 C   0  0  0  0  0  0  0  0  0  0  0  0
   11.7632    7.4520  -12.3434 C   0  0  0  0  0  0  0  0  0  0  0  0
   11.1723    7.5012  -10.8928 C   0  0  0  0  0  0  0  0  0  0  0  0
   11.0349    8.9861  -10.4171 C   0  0  0  0  0  0  0  0  0  0  0  0
   10.1407    9.8008  -11.3920 C   0  0  0  0  0  0  0  0  0  0  0  0
   10.4282    9.0195   -8.9514 C   0  0  0  0  0  0  0  0  0  0  0  0
   11.2829    8.2055   -7.9289 C   0  0  0  0  0  0  0  0  0  0  0  0
   11.5666    6.7541   -8.3975 C   0  0  0  0  0  0  0  0  0  0  0  0
   12.0929    6.7388   -9.8765 C   0  0  0  0  0  0  0  0  0  0  0  0
   12.3448    5.1569  -10.2131 C   0  0  0  0  0  0  0  0  0  0  0  0
   13.2991    4.9190   -8.8542 C   0  0  0  0  0  0  0  0  0  0  0  0
   12.7633    5.9266   -7.7333 C   0  0  0  0  0  0  0  0  0  0  0  0
   12.1989    5.3209   -6.6146 O   0  0  0  0  0  0  0  0  0  0  0  0
   10.2308    5.8610   -8.3440 C   0  0  0  0  0  0  0  0  0  0  0  0
    7.3578   12.7476  -13.6942 H   0  0  0  0  0  0  0  0  0  0  0  0
   11.4264    4.7999   -6.8842 H   0  0  0  0  0  0  0  0  0  0  0  0
   13.1513   -1.2350   -5.6102 C   0  0  0  0  0  0  0  0  0  0  0  0
   14.3526   -1.7940   -4.8579 C   0  0  0  0  0  0  0  0  0  0  0  0
   14.7488   -1.2337   -3.5772 C   0  0  0  0  0  0  0  0  0  0  0  0
   14.6320   -0.0968   -3.2970 O   0  0  0  0  0  0  0  0  0  0  0  0
   15.2578   -2.5141   -2.9452 O   0  0  0  0  0  0  0  0  0  0  0  0
   16.5721   -2.7763   -3.5549 C   0  0  0  0  0  0  0  0  0  0  0  0
   16.2918   -5.9833   -1.9995 C   0  0  0  0  0  0  0  0  0  0  0  0
   17.1175   -6.2666   -3.2109 C   0  0  0  0  0  0  0  0  0  0  0  0
   17.7291   -7.4479   -3.2053 O   0  0  0  0  0  0  0  0  0  0  0  0
   17.9197   -5.0581   -3.2383 C   0  0  0  0  0  0  0  0  0  0  0  0
   18.9837   -5.2115   -2.5873 O   0  0  0  0  0  0  0  0  0  0  0  0
   17.0718   -3.9546   -2.6514 C   0  0  0  0  0  0  0  0  0  0  0  0
   15.8157   -4.6728   -2.3383 O   0  0  0  0  0  0  0  0  0  0  0  0
   18.2891   -7.5183   -2.4165 H   0  0  0  0  0  0  0  0  0  0  0  0
   18.7708   -5.4343   -1.6676 H   0  0  0  0  0  0  0  0  0  0  0  0
   14.1732   -9.2104    1.2883 N   0  0  0  0  0  0  0  0  0  0  0  0
   15.2647   -8.4405    1.3970 C   0  0  0  0  0  0  0  0  0  0  0  0
   15.7503   -7.6150    0.4709 N   0  0  0  0  0  0  0  0  0  0  0  0
   15.0394   -7.5426   -0.7574 C   0  0  0  0  0  0  0  0  0  0  0  0
   13.8221   -8.3560   -0.9700 C   0  0  0  0  0  0  0  0  0  0  0  0
   13.4709   -9.1919    0.1809 C   0  0  0  0  0  0  0  0  0  0  0  0
   12.3083   -9.9645   -0.0336 N   0  0  0  0  0  0  0  0  0  0  0  0
   13.2598   -8.1562   -2.2289 N   0  0  0  0  0  0  0  0  0  0  0  0
   14.1670   -7.2319   -2.7123 C   0  0  0  0  0  0  0  0  0  0  0  0
   15.2245   -6.8267   -1.9186 N   0  0  0  0  0  0  0  0  0  0  0  0
   11.9785  -10.5645    0.6738 H   0  0  0  0  0  0  0  0  0  0  0  0
   11.8276   -9.9031   -0.8906 H   0  0  0  0  0  0  0  0  0  0  0  0
  7  8  2  0  0  0
  7 17  1  0  0  0
  8  9  1  0  0  0
  9 10  1  0  0  0
  9 11  2  0  0  0
 11 12  1  0  0  0
 12 13  1  0  0  0
 12 17  2  0  0  0
 13 14  1  0  0  0
 14 15  1  0  0  0
 15 16  1  0  0  0
 15 21  1  0  0  0
 16 17  1  0  0  0
 16 18  1  0  0  0
 18 19  1  0  0  0
 19 20  1  0  0  0
 20 21  1  0  0  0
 20 24  1  0  0  0
 20 26  1  0  0  0
 21 22  1  0  0  0
 22 23  1  0  0  0
 23 24  1  0  0  0
 23  6  1  0  0  0
 24 25  1  0  0  0
  6  5  1  0  0  0
  5  4  1  0  0  0
  4  3  1  0  0  0
  3  2  1  0  0  0
  2  1  1  0  0  0
  1 29  1  0  0  0
 29 30  1  0  0  0
 30 31  1  0  0  0
 35 36  1  0  0  0
 35 41  1  0  0  0
 35 53  1  0  0  0
 36 37  1  0  0  0
 36 38  1  0  0  0
 38 39  1  0  0  0
 38 40  1  0  0  0
 40 41  1  0  0  0
 40 34  1  0  0  0
 34 33  1  0  0  0
 33 31  1  0  0  0
 31 32  2  0  0  0
 44 45  2  0  0  0
 44 49  1  0  0  0
 45 46  1  0  0  0
 46 47  2  0  0  0
 47 48  1  0  0  0
 47 53  1  0  0  0
 48 49  2  0  0  0
 48 51  1  0  0  0
 49 50  1  0  0  0
 51 52  2  0  0  0
 52 53  1  0  0  0
 10 27  1  0  0  0
 25 28  1  0  0  0
 37 42  1  0  0  0
 39 43  1  0  0  0
 50 54  1  0  0  0
 50 55  1  0  0  0
M  END
> <minimizedAffinity>
-14.27855

$$$$
1I5R_HYC_A_328


 55 61  0  0  0  0  0  0  0  0999 V2000
   15.0724    3.8538   -5.4452 C   0  0  0  0  0  0  0  0  0  0  0  0
   15.1777    2.7733   -6.4484 C   0  0  0  0  0  0  0  0  0  0  0  0
   16.0354    3.1498   -7.5708 C   0  0  0  0  0  0  0  0  0  0  0  0
   15.2022    3.6211   -8.7122 C   0  0  0  0  0  0  0  0  0  0  0  0
   13.9556    2.7012   -8.7516 C   0  0  0  0  0  0  0  0  0  0  0  0
   12.7022    3.4342   -8.6872 C   0  0  0  0  0  0  0  0  0  0  0  0
    9.5507   11.1715  -11.0007 C   0  0  0  0  0  0  0  0  0  0  0  0
    8.7702   11.9520  -11.8782 C   0  0  0  0  0  0  0  0  0  0  0  0
    8.5310   11.5437  -13.1945 C   0  0  0  0  0  0  0  0  0  0  0  0
    7.8171   12.2703  -13.9774 O   0  0  0  0  0  0  0  0  0  0  0  0
    9.0738   10.3221  -13.6781 C   0  0  0  0  0  0  0  0  0  0  0  0
    9.8670    9.5000  -12.8314 C   0  0  0  0  0  0  0  0  0  0  0  0
   10.4429    8.1632  -13.4101 C   0  0  0  0  0  0  0  0  0  0  0  0
   11.5777    7.5159  -12.5036 C   0  0  0  0  0  0  0  0  0  0  0  0
   11.0158    7.5680  -11.0415 C   0  0  0  0  0  0  0  0  0  0  0  0
   10.9708    9.0481  -10.5341 C   0  0  0  0  0  0  0  0  0  0  0  0
   10.1071    9.9317  -11.4760 C   0  0  0  0  0  0  0  0  0  0  0  0
   10.3926    9.0850   -9.0571 C   0  0  0  0  0  0  0  0  0  0  0  0
   11.2177    8.2033   -8.0669 C   0  0  0  0  0  0  0  0  0  0  0  0
   11.4108    6.7483   -8.5693 C   0  0  0  0  0  0  0  0  0  0  0  0
   11.9096    6.7342  -10.0577 C   0  0  0  0  0  0  0  0  0  0  0  0
   12.0659    5.1480  -10.4302 C   0  0  0  0  0  0  0  0  0  0  0  0
   13.0288    4.8289   -9.0942 C   0  0  0  0  0  0  0  0  0  0  0  0
   12.5703    5.8414   -7.9439 C   0  0  0  0  0  0  0  0  0  0  0  0
   11.9922    5.2452   -6.8271 O   0  0  0  0  0  0  0  0  0  0  0  0
   10.0278    5.9305   -8.5086 C   0  0  0  0  0  0  0  0  0  0  0  0
    7.4552   13.0770  -13.6674 H   0  0  0  0  0  0  0  0  0  0  0  0
   11.1869    4.7740   -7.0925 H   0  0  0  0  0  0  0  0  0  0  0  0
   13.9302    3.4136   -4.6794 C   0  0  0  0  0  0  0  0  0  0  0  0
   13.9039    1.9008   -4.8584 C   0  0  0  0  0  0  0  0  0  0  0  0
   13.3256    1.0454   -3.8361 C   0  0  0  0  0  0  0  0  0  0  0  0
   13.2307    1.3522   -2.7041 O   0  0  0  0  0  0  0  0  0  0  0  0
   12.9920   -0.1357   -4.7259 O   0  0  0  0  0  0  0  0  0  0  0  0
   14.2818   -0.7200   -5.1297 C   0  0  0  0  0  0  0  0  0  0  0  0
   16.1094   -2.9767   -3.0440 C   0  0  0  0  0  0  0  0  0  0  0  0
   17.0219   -1.7994   -3.1487 C   0  0  0  0  0  0  0  0  0  0  0  0
   18.0163   -1.7842   -2.2653 O   0  0  0  0  0  0  0  0  0  0  0  0
   16.0377   -0.7340   -3.1198 C   0  0  0  0  0  0  0  0  0  0  0  0
   15.8255   -0.3514   -1.9416 O   0  0  0  0  0  0  0  0  0  0  0  0
   14.7804   -1.2799   -3.7541 C   0  0  0  0  0  0  0  0  0  0  0  0
   15.1912   -2.6595   -4.1001 O   0  0  0  0  0  0  0  0  0  0  0  0
   17.6517   -1.8238   -1.3673 H   0  0  0  0  0  0  0  0  0  0  0  0
   15.5053   -1.0982   -1.4119 H   0  0  0  0  0  0  0  0  0  0  0  0
   16.1169   -7.8709   -1.7181 N   0  0  0  0  0  0  0  0  0  0  0  0
   15.3772   -6.8450   -1.2752 C   0  0  0  0  0  0  0  0  0  0  0  0
   15.4456   -5.5799   -1.6871 N   0  0  0  0  0  0  0  0  0  0  0  0
   16.3995   -5.2874   -2.6989 C   0  0  0  0  0  0  0  0  0  0  0  0
   17.2618   -6.3558   -3.2500 C   0  0  0  0  0  0  0  0  0  0  0  0
   17.0164   -7.6702   -2.6512 C   0  0  0  0  0  0  0  0  0  0  0  0
   17.8456   -8.6818   -3.1838 N   0  0  0  0  0  0  0  0  0  0  0  0
   18.1335   -5.8859   -4.2299 N   0  0  0  0  0  0  0  0  0  0  0  0
   17.7527   -4.5570   -4.2203 C   0  0  0  0  0  0  0  0  0  0  0  0
   16.7548   -4.1341   -3.3613 N   0  0  0  0  0  0  0  0  0  0  0  0
   17.7674   -9.6064   -2.8548 H   0  0  0  0  0  0  0  0  0  0  0  0
   18.5018   -8.4624   -3.8842 H   0  0  0  0  0  0  0  0  0  0  0  0
  7  8  2  0  0  0
  7 17  1  0  0  0
  8  9  1  0  0  0
  9 10  1  0  0  0
  9 11  2  0  0  0
 11 12  1  0  0  0
 12 13  1  0  0  0
 12 17  2  0  0  0
 13 14  1  0  0  0
 14 15  1  0  0  0
 15 16  1  0  0  0
 15 21  1  0  0  0
 16 17  1  0  0  0
 16 18  1  0  0  0
 18 19  1  0  0  0
 19 20  1  0  0  0
 20 21  1  0  0  0
 20 24  1  0  0  0
 20 26  1  0  0  0
 21 22  1  0  0  0
 22 23  1  0  0  0
 23 24  1  0  0  0
 23  6  1  0  0  0
 24 25  1  0  0  0
  6  5  1  0  0  0
  5  4  1  0  0  0
  4  3  1  0  0  0
  3  2  1  0  0  0
  2  1  1  0  0  0
  1 29  1  0  0  0
 29 30  1  0  0  0
 30 31  1  0  0  0
 35 36  1  0  0  0
 35 41  1  0  0  0
 35 53  1  0  0  0
 36 37  1  0  0  0
 36 38  1  0  0  0
 38 39  1  0  0  0
 38 40  1  0  0  0
 40 41  1  0  0  0
 40 34  1  0  0  0
 34 33  1  0  0  0
 33 31  1  0  0  0
 31 32  2  0  0  0
 44 45  2  0  0  0
 44 49  1  0  0  0
 45 46  1  0  0  0
 46 47  2  0  0  0
 47 48  1  0  0  0
 47 53  1  0  0  0
 48 49  2  0  0  0
 48 51  1  0  0  0
 49 50  1  0  0  0
 51 52  2  0  0  0
 52 53  1  0  0  0
 10 27  1  0  0  0
 25 28  1  0  0  0
 37 42  1  0  0  0
 39 43  1  0  0  0
 50 54  1  0  0  0
 50 55  1  0  0  0
M  END
> <minimizedAffinity>
-13.74303

$$$$
1I5R_HYC_A_328


 55 61  0  0  0  0  0  0  0  0999 V2000
   15.1677    1.7446  -10.2558 C   0  0  0  0  0  0  0  0  0  0  0  0
   14.1740    0.6560  -10.3670 C   0  0  0  0  0  0  0  0  0  0  0  0
   13.0966    0.7959   -9.3889 C   0  0  0  0  0  0  0  0  0  0  0  0
   11.8098    1.0752  -10.0856 C   0  0  0  0  0  0  0  0  0  0  0  0
   11.6821    2.6177  -10.1645 C   0  0  0  0  0  0  0  0  0  0  0  0
   12.1153    3.2899   -8.9508 C   0  0  0  0  0  0  0  0  0  0  0  0
    9.6169   11.3005  -11.1272 C   0  0  0  0  0  0  0  0  0  0  0  0
    8.8739   12.1547  -11.9678 C   0  0  0  0  0  0  0  0  0  0  0  0
    8.5332   11.7745  -13.2701 C   0  0  0  0  0  0  0  0  0  0  0  0
    7.8558   12.5685  -14.0193 O   0  0  0  0  0  0  0  0  0  0  0  0
    8.9317   10.5074  -13.7765 C   0  0  0  0  0  0  0  0  0  0  0  0
    9.6818    9.6106  -12.9673 C   0  0  0  0  0  0  0  0  0  0  0  0
   10.0975    8.2259  -13.5699 C   0  0  0  0  0  0  0  0  0  0  0  0
   11.2069    7.4701  -12.7178 C   0  0  0  0  0  0  0  0  0  0  0  0
   10.7240    7.5726  -11.2304 C   0  0  0  0  0  0  0  0  0  0  0  0
   10.8465    9.0489  -10.7249 C   0  0  0  0  0  0  0  0  0  0  0  0
   10.0276   10.0139  -11.6260 C   0  0  0  0  0  0  0  0  0  0  0  0
   10.3465    9.1379   -9.2217 C   0  0  0  0  0  0  0  0  0  0  0  0
   11.1295    8.1784   -8.2705 C   0  0  0  0  0  0  0  0  0  0  0  0
   11.1569    6.7128   -8.7783 C   0  0  0  0  0  0  0  0  0  0  0  0
   11.5796    6.6542  -10.2891 C   0  0  0  0  0  0  0  0  0  0  0  0
   11.5640    5.0612  -10.6650 C   0  0  0  0  0  0  0  0  0  0  0  0
   12.5550    4.6474   -9.3763 C   0  0  0  0  0  0  0  0  0  0  0  0
   12.2524    5.6968   -8.2075 C   0  0  0  0  0  0  0  0  0  0  0  0
   11.6740    5.1565   -7.0627 O   0  0  0  0  0  0  0  0  0  0  0  0
    9.7061    6.0321   -8.6491 C   0  0  0  0  0  0  0  0  0  0  0  0
    7.5888   13.4057  -13.6940 H   0  0  0  0  0  0  0  0  0  0  0  0
   10.8152    4.7658   -7.2879 H   0  0  0  0  0  0  0  0  0  0  0  0
   15.3908    1.7745   -8.8295 C   0  0  0  0  0  0  0  0  0  0  0  0
   16.0045    3.1433   -8.5624 C   0  0  0  0  0  0  0  0  0  0  0  0
   15.6858    3.8718   -7.3463 C   0  0  0  0  0  0  0  0  0  0  0  0
   15.4896    5.0315   -7.3116 O   0  0  0  0  0  0  0  0  0  0  0  0
   15.7235    2.6957   -6.3906 O   0  0  0  0  0  0  0  0  0  0  0  0
   15.0861    3.1594   -5.1470 C   0  0  0  0  0  0  0  0  0  0  0  0
   14.2701   -0.1473   -4.0595 C   0  0  0  0  0  0  0  0  0  0  0  0
   13.9418    0.6907   -2.8680 C   0  0  0  0  0  0  0  0  0  0  0  0
   13.2081    0.0799   -1.9416 O   0  0  0  0  0  0  0  0  0  0  0  0
   13.3997    1.8561   -3.5406 C   0  0  0  0  0  0  0  0  0  0  0  0
   12.1571    1.7473   -3.6945 O   0  0  0  0  0  0  0  0  0  0  0  0
   14.1093    1.9664   -4.8693 C   0  0  0  0  0  0  0  0  0  0  0  0
   15.0275    0.8062   -4.8184 O   0  0  0  0  0  0  0  0  0  0  0  0
   12.3840   -0.2399   -2.3409 H   0  0  0  0  0  0  0  0  0  0  0  0
   11.9645    0.9552   -4.2202 H   0  0  0  0  0  0  0  0  0  0  0  0
   15.7325   -4.6423   -5.8948 N   0  0  0  0  0  0  0  0  0  0  0  0
   14.8879   -3.7273   -6.3900 C   0  0  0  0  0  0  0  0  0  0  0  0
   14.5615   -2.5626   -5.8316 N   0  0  0  0  0  0  0  0  0  0  0  0
   15.1704   -2.2585   -4.5841 C   0  0  0  0  0  0  0  0  0  0  0  0
   16.1169   -3.2080   -3.9587 C   0  0  0  0  0  0  0  0  0  0  0  0
   16.3284   -4.4248   -4.7469 C   0  0  0  0  0  0  0  0  0  0  0  0
   17.2327   -5.3241   -4.1402 N   0  0  0  0  0  0  0  0  0  0  0  0
   16.6130   -2.7440   -2.7424 N   0  0  0  0  0  0  0  0  0  0  0  0
   15.9401   -1.5373   -2.6955 C   0  0  0  0  0  0  0  0  0  0  0  0
   15.0870   -1.1856   -3.7256 N   0  0  0  0  0  0  0  0  0  0  0  0
   17.4502   -6.1766   -4.5820 H   0  0  0  0  0  0  0  0  0  0  0  0
   17.6455   -5.0986   -3.2753 H   0  0  0  0  0  0  0  0  0  0  0  0
  7  8  2  0  0  0
  7 17  1  0  0  0
  8  9  1  0  0  0
  9 10  1  0  0  0
  9 11  2  0  0  0
 11 12  1  0  0  0
 12 13  1  0  0  0
 12 17  2  0  0  0
 13 14  1  0  0  0
 14 15  1  0  0  0
 15 16  1  0  0  0
 15 21  1  0  0  0
 16 17  1  0  0  0
 16 18  1  0  0  0
 18 19  1  0  0  0
 19 20  1  0  0  0
 20 21  1  0  0  0
 20 24  1  0  0  0
 20 26  1  0  0  0
 21 22  1  0  0  0
 22 23  1  0  0  0
 23 24  1  0  0  0
 23  6  1  0  0  0
 24 25  1  0  0  0
  6  5  1  0  0  0
  5  4  1  0  0  0
  4  3  1  0  0  0
  3  2  1  0  0  0
  2  1  1  0  0  0
  1 29  1  0  0  0
 29 30  1  0  0  0
 30 31  1  0  0  0
 35 36  1  0  0  0
 35 41  1  0  0  0
 35 53  1  0  0  0
 36 37  1  0  0  0
 36 38  1  0  0  0
 38 39  1  0  0  0
 38 40  1  0  0  0
 40 41  1  0  0  0
 40 34  1  0  0  0
 34 33  1  0  0  0
 33 31  1  0  0  0
 31 32  2  0  0  0
 44 45  2  0  0  0
 44 49  1  0  0  0
 45 46  1  0  0  0
 46 47  2  0  0  0
 47 48  1  0  0  0
 47 53  1  0  0  0
 48 49  2  0  0  0
 48 51  1  0  0  0
 49 50  1  0  0  0
 51 52  2  0  0  0
 52 53  1  0  0  0
 10 27  1  0  0  0
 25 28  1  0  0  0
 37 42  1  0  0  0
 39 43  1  0  0  0
 50 54  1  0  0  0
 50 55  1  0  0  0
M  END
> <minimizedAffinity>
-13.60086

$$$$
1I5R_HYC_A_328


 55 61  0  0  0  0  0  0  0  0999 V2000
   13.4524   -0.6837   -8.7243 C   0  0  0  0  0  0  0  0  0  0  0  0
   12.3860   -0.1148   -9.5753 C   0  0  0  0  0  0  0  0  0  0  0  0
   11.5974    0.8910   -8.8658 C   0  0  0  0  0  0  0  0  0  0  0  0
   10.7770    1.6706   -9.8345 C   0  0  0  0  0  0  0  0  0  0  0  0
   11.5828    2.9553  -10.1541 C   0  0  0  0  0  0  0  0  0  0  0  0
   12.2946    3.4848   -9.0028 C   0  0  0  0  0  0  0  0  0  0  0  0
    9.4588   11.4081  -11.0834 C   0  0  0  0  0  0  0  0  0  0  0  0
    8.7098   12.2449  -11.9361 C   0  0  0  0  0  0  0  0  0  0  0  0
    8.4527   11.8852  -13.2632 C   0  0  0  0  0  0  0  0  0  0  0  0
    7.7682   12.6628  -14.0230 O   0  0  0  0  0  0  0  0  0  0  0  0
    8.9448   10.6571  -13.7832 C   0  0  0  0  0  0  0  0  0  0  0  0
    9.7047    9.7791  -12.9626 C   0  0  0  0  0  0  0  0  0  0  0  0
   10.2249    8.4374  -13.5811 C   0  0  0  0  0  0  0  0  0  0  0  0
   11.3333    7.7183  -12.6964 C   0  0  0  0  0  0  0  0  0  0  0  0
   10.7757    7.7506  -11.2322 C   0  0  0  0  0  0  0  0  0  0  0  0
   10.7916    9.2159  -10.6819 C   0  0  0  0  0  0  0  0  0  0  0  0
    9.9637   10.1610  -11.5958 C   0  0  0  0  0  0  0  0  0  0  0  0
   10.2170    9.2333   -9.2031 C   0  0  0  0  0  0  0  0  0  0  0  0
   11.0066    8.2903   -8.2408 C   0  0  0  0  0  0  0  0  0  0  0  0
   11.1396    6.8439   -8.7857 C   0  0  0  0  0  0  0  0  0  0  0  0
   11.6358    6.8528  -10.2751 C   0  0  0  0  0  0  0  0  0  0  0  0
   11.7269    5.2731  -10.6938 C   0  0  0  0  0  0  0  0  0  0  0  0
   12.6774    4.8762   -9.3698 C   0  0  0  0  0  0  0  0  0  0  0  0
   12.2619    5.8727   -8.1896 C   0  0  0  0  0  0  0  0  0  0  0  0
   11.6611    5.2683   -7.0892 O   0  0  0  0  0  0  0  0  0  0  0  0
    9.7245    6.0817   -8.7457 C   0  0  0  0  0  0  0  0  0  0  0  0
    7.4399   13.4742  -13.6888 H   0  0  0  0  0  0  0  0  0  0  0  0
   10.8370    4.8382   -7.3664 H   0  0  0  0  0  0  0  0  0  0  0  0
   13.8895    0.4884   -8.0031 C   0  0  0  0  0  0  0  0  0  0  0  0
   13.7901    0.0980   -6.5337 C   0  0  0  0  0  0  0  0  0  0  0  0
   13.3401    1.0600   -5.5421 C   0  0  0  0  0  0  0  0  0  0  0  0
   12.9873    2.1517   -5.8036 O   0  0  0  0  0  0  0  0  0  0  0  0
   13.5092    0.1823   -4.3178 O   0  0  0  0  0  0  0  0  0  0  0  0
   14.2333   -1.0167   -4.7716 C   0  0  0  0  0  0  0  0  0  0  0  0
   16.3283   -3.0996   -2.7579 C   0  0  0  0  0  0  0  0  0  0  0  0
   17.2037   -1.9270   -3.0552 C   0  0  0  0  0  0  0  0  0  0  0  0
   18.2946   -1.8394   -2.2991 O   0  0  0  0  0  0  0  0  0  0  0  0
   16.2131   -0.8693   -2.9879 C   0  0  0  0  0  0  0  0  0  0  0  0
   16.1348   -0.4018   -1.8239 O   0  0  0  0  0  0  0  0  0  0  0  0
   14.8987   -1.4695   -3.4275 C   0  0  0  0  0  0  0  0  0  0  0  0
   15.2877   -2.8681   -3.7182 O   0  0  0  0  0  0  0  0  0  0  0  0
   18.0387   -1.8147   -1.3638 H   0  0  0  0  0  0  0  0  0  0  0  0
   15.8907   -1.1095   -1.2070 H   0  0  0  0  0  0  0  0  0  0  0  0
   15.9463   -8.0476   -1.7171 N   0  0  0  0  0  0  0  0  0  0  0  0
   15.2099   -7.0067   -1.3045 C   0  0  0  0  0  0  0  0  0  0  0  0
   15.3866   -5.7281   -1.6340 N   0  0  0  0  0  0  0  0  0  0  0  0
   16.4650   -5.4371   -2.5125 C   0  0  0  0  0  0  0  0  0  0  0  0
   17.3335   -6.5215   -3.0208 C   0  0  0  0  0  0  0  0  0  0  0  0
   16.9571   -7.8492   -2.5288 C   0  0  0  0  0  0  0  0  0  0  0  0
   17.7933   -8.8761   -3.0195 N   0  0  0  0  0  0  0  0  0  0  0  0
   18.3352   -6.0508   -3.8669 N   0  0  0  0  0  0  0  0  0  0  0  0
   18.0200   -4.7054   -3.8261 C   0  0  0  0  0  0  0  0  0  0  0  0
   16.9502   -4.2728   -3.0640 N   0  0  0  0  0  0  0  0  0  0  0  0
   17.6330   -9.8105   -2.7540 H   0  0  0  0  0  0  0  0  0  0  0  0
   18.5366   -8.6576   -3.6269 H   0  0  0  0  0  0  0  0  0  0  0  0
  7  8  2  0  0  0
  7 17  1  0  0  0
  8  9  1  0  0  0
  9 10  1  0  0  0
  9 11  2  0  0  0
 11 12  1  0  0  0
 12 13  1  0  0  0
 12 17  2  0  0  0
 13 14  1  0  0  0
 14 15  1  0  0  0
 15 16  1  0  0  0
 15 21  1  0  0  0
 16 17  1  0  0  0
 16 18  1  0  0  0
 18 19  1  0  0  0
 19 20  1  0  0  0
 20 21  1  0  0  0
 20 24  1  0  0  0
 20 26  1  0  0  0
 21 22  1  0  0  0
 22 23  1  0  0  0
 23 24  1  0  0  0
 23  6  1  0  0  0
 24 25  1  0  0  0
  6  5  1  0  0  0
  5  4  1  0  0  0
  4  3  1  0  0  0
  3  2  1  0  0  0
  2  1  1  0  0  0
  1 29  1  0  0  0
 29 30  1  0  0  0
 30 31  1  0  0  0
 35 36  1  0  0  0
 35 41  1  0  0  0
 35 53  1  0  0  0
 36 37  1  0  0  0
 36 38  1  0  0  0
 38 39  1  0  0  0
 38 40  1  0  0  0
 40 41  1  0  0  0
 40 34  1  0  0  0
 34 33  1  0  0  0
 33 31  1  0  0  0
 31 32  2  0  0  0
 44 45  2  0  0  0
 44 49  1  0  0  0
 45 46  1  0  0  0
 46 47  2  0  0  0
 47 48  1  0  0  0
 47 53  1  0  0  0
 48 49  2  0  0  0
 48 51  1  0  0  0
 49 50  1  0  0  0
 51 52  2  0  0  0
 52 53  1  0  0  0
 10 27  1  0  0  0
 25 28  1  0  0  0
 37 42  1  0  0  0
 39 43  1  0  0  0
 50 54  1  0  0  0
 50 55  1  0  0  0
M  END
> <minimizedAffinity>
-13.48090

$$$$
1I5R_HYC_A_328


 55 61  0  0  0  0  0  0  0  0999 V2000
   11.6768    0.9991  -13.2470 C   0  0  0  0  0  0  0  0  0  0  0  0
   10.8533    1.6138  -12.1845 C   0  0  0  0  0  0  0  0  0  0  0  0
   10.4853    0.6490  -11.1497 C   0  0  0  0  0  0  0  0  0  0  0  0
   10.3135    1.3444   -9.8435 C   0  0  0  0  0  0  0  0  0  0  0  0
   10.8205    2.7942  -10.0510 C   0  0  0  0  0  0  0  0  0  0  0  0
   11.8555    3.1784   -9.1057 C   0  0  0  0  0  0  0  0  0  0  0  0
    9.6941   11.3055  -11.2099 C   0  0  0  0  0  0  0  0  0  0  0  0
    8.9567   12.1959  -12.0174 C   0  0  0  0  0  0  0  0  0  0  0  0
    8.5283   11.8292  -13.2975 C   0  0  0  0  0  0  0  0  0  0  0  0
    7.8578   12.6562  -14.0166 O   0  0  0  0  0  0  0  0  0  0  0  0
    8.8293   10.5396  -13.8143 C   0  0  0  0  0  0  0  0  0  0  0  0
    9.5697    9.6062  -13.0382 C   0  0  0  0  0  0  0  0  0  0  0  0
    9.8763    8.1978  -13.6512 C   0  0  0  0  0  0  0  0  0  0  0  0
   10.9851    7.3854  -12.8519 C   0  0  0  0  0  0  0  0  0  0  0  0
   10.5865    7.5214  -11.3423 C   0  0  0  0  0  0  0  0  0  0  0  0
   10.8165    8.9909  -10.8548 C   0  0  0  0  0  0  0  0  0  0  0  0
   10.0065    9.9959  -11.7196 C   0  0  0  0  0  0  0  0  0  0  0  0
   10.4010    9.1145   -9.3285 C   0  0  0  0  0  0  0  0  0  0  0  0
   11.1782    8.1173   -8.4119 C   0  0  0  0  0  0  0  0  0  0  0  0
   11.0981    6.6501   -8.9094 C   0  0  0  0  0  0  0  0  0  0  0  0
   11.4377    6.5612  -10.4396 C   0  0  0  0  0  0  0  0  0  0  0  0
   11.3146    4.9698  -10.8023 C   0  0  0  0  0  0  0  0  0  0  0  0
   12.3469    4.5075   -9.5634 C   0  0  0  0  0  0  0  0  0  0  0  0
   12.1638    5.5774   -8.3885 C   0  0  0  0  0  0  0  0  0  0  0  0
   11.6168    5.0754   -7.2113 O   0  0  0  0  0  0  0  0  0  0  0  0
    9.6205    6.0517   -8.7004 C   0  0  0  0  0  0  0  0  0  0  0  0
    7.6548   13.5084  -13.6842 H   0  0  0  0  0  0  0  0  0  0  0  0
   10.7271    4.7320   -7.3890 H   0  0  0  0  0  0  0  0  0  0  0  0
   13.0028    1.4008  -12.8403 C   0  0  0  0  0  0  0  0  0  0  0  0
   13.7114    0.0982  -12.4902 C   0  0  0  0  0  0  0  0  0  0  0  0
   15.0437    0.1142  -11.9106 C   0  0  0  0  0  0  0  0  0  0  0  0
   15.7189   -0.8428  -11.7978 O   0  0  0  0  0  0  0  0  0  0  0  0
   15.1121    1.5969  -11.6022 O   0  0  0  0  0  0  0  0  0  0  0  0
   16.1694    1.7552  -10.5898 C   0  0  0  0  0  0  0  0  0  0  0  0
   14.6391    2.2475   -7.3964 C   0  0  0  0  0  0  0  0  0  0  0  0
   15.9938    2.8497   -7.2180 C   0  0  0  0  0  0  0  0  0  0  0  0
   16.1272    3.6123   -6.1364 O   0  0  0  0  0  0  0  0  0  0  0  0
   16.1601    3.4500   -8.5282 C   0  0  0  0  0  0  0  0  0  0  0  0
   15.7342    4.6324   -8.5369 O   0  0  0  0  0  0  0  0  0  0  0  0
   15.4005    2.5862   -9.5070 C   0  0  0  0  0  0  0  0  0  0  0  0
   14.8570    1.5321   -8.6209 O   0  0  0  0  0  0  0  0  0  0  0  0
   15.4655    4.3213   -6.1570 H   0  0  0  0  0  0  0  0  0  0  0  0
   14.7941    4.6393   -8.2980 H   0  0  0  0  0  0  0  0  0  0  0  0
   12.8770    2.1656   -2.6424 N   0  0  0  0  0  0  0  0  0  0  0  0
   13.0846    3.1896   -3.4816 C   0  0  0  0  0  0  0  0  0  0  0  0
   13.5553    3.1145   -4.7256 N   0  0  0  0  0  0  0  0  0  0  0  0
   13.8694    1.8172   -5.2134 C   0  0  0  0  0  0  0  0  0  0  0  0
   13.6733    0.6255   -4.3591 C   0  0  0  0  0  0  0  0  0  0  0  0
   13.1463    0.9417   -3.0291 C   0  0  0  0  0  0  0  0  0  0  0  0
   12.9642   -0.2029   -2.2221 N   0  0  0  0  0  0  0  0  0  0  0  0
   14.0333   -0.5570   -5.0017 N   0  0  0  0  0  0  0  0  0  0  0  0
   14.4286   -0.0184   -6.2119 C   0  0  0  0  0  0  0  0  0  0  0  0
   14.3623    1.3486   -6.4103 N   0  0  0  0  0  0  0  0  0  0  0  0
   12.6142   -0.1092   -1.3067 H   0  0  0  0  0  0  0  0  0  0  0  0
   13.1872   -1.0945   -2.5750 H   0  0  0  0  0  0  0  0  0  0  0  0
  7  8  2  0  0  0
  7 17  1  0  0  0
  8  9  1  0  0  0
  9 10  1  0  0  0
  9 11  2  0  0  0
 11 12  1  0  0  0
 12 13  1  0  0  0
 12 17  2  0  0  0
 13 14  1  0  0  0
 14 15  1  0  0  0
 15 16  1  0  0  0
 15 21  1  0  0  0
 16 17  1  0  0  0
 16 18  1  0  0  0
 18 19  1  0  0  0
 19 20  1  0  0  0
 20 21  1  0  0  0
 20 24  1  0  0  0
 20 26  1  0  0  0
 21 22  1  0  0  0
 22 23  1  0  0  0
 23 24  1  0  0  0
 23  6  1  0  0  0
 24 25  1  0  0  0
  6  5  1  0  0  0
  5  4  1  0  0  0
  4  3  1  0  0  0
  3  2  1  0  0  0
  2  1  1  0  0  0
  1 29  1  0  0  0
 29 30  1  0  0  0
 30 31  1  0  0  0
 35 36  1  0  0  0
 35 41  1  0  0  0
 35 53  1  0  0  0
 36 37  1  0  0  0
 36 38  1  0  0  0
 38 39  1  0  0  0
 38 40  1  0  0  0
 40 41  1  0  0  0
 40 34  1  0  0  0
 34 33  1  0  0  0
 33 31  1  0  0  0
 31 32  2  0  0  0
 44 45  2  0  0  0
 44 49  1  0  0  0
 45 46  1  0  0  0
 46 47  2  0  0  0
 47 48  1  0  0  0
 47 53  1  0  0  0
 48 49  2  0  0  0
 48 51  1  0  0  0
 49 50  1  0  0  0
 51 52  2  0  0  0
 52 53  1  0  0  0
 10 27  1  0  0  0
 25 28  1  0  0  0
 37 42  1  0  0  0
 39 43  1  0  0  0
 50 54  1  0  0  0
 50 55  1  0  0  0
M  END
> <minimizedAffinity>
-13.34295

$$$$
1I5R_HYC_A_328


 55 61  0  0  0  0  0  0  0  0999 V2000
   14.5882    1.4894  -10.8865 C   0  0  0  0  0  0  0  0  0  0  0  0
   15.9681    1.8856  -10.5345 C   0  0  0  0  0  0  0  0  0  0  0  0
   16.0602    2.3925   -9.1664 C   0  0  0  0  0  0  0  0  0  0  0  0
   15.2892    3.6610   -9.0408 C   0  0  0  0  0  0  0  0  0  0  0  0
   14.1110    3.3622   -8.0793 C   0  0  0  0  0  0  0  0  0  0  0  0
   12.8371    3.8696   -8.5614 C   0  0  0  0  0  0  0  0  0  0  0  0
    9.3313   11.3936  -11.0609 C   0  0  0  0  0  0  0  0  0  0  0  0
    8.5203   12.1164  -11.9599 C   0  0  0  0  0  0  0  0  0  0  0  0
    8.3109   11.6692  -13.2686 C   0  0  0  0  0  0  0  0  0  0  0  0
    7.5684   12.3434  -14.0714 O   0  0  0  0  0  0  0  0  0  0  0  0
    8.9158   10.4654  -13.7223 C   0  0  0  0  0  0  0  0  0  0  0  0
    9.7417    9.7010  -12.8531 C   0  0  0  0  0  0  0  0  0  0  0  0
   10.3860    8.3819  -13.3992 C   0  0  0  0  0  0  0  0  0  0  0  0
   11.5441    7.8099  -12.4718 C   0  0  0  0  0  0  0  0  0  0  0  0
   10.9697    7.8656  -11.0148 C   0  0  0  0  0  0  0  0  0  0  0  0
   10.8492    9.3521  -10.5397 C   0  0  0  0  0  0  0  0  0  0  0  0
    9.9506   10.1726  -11.5058 C   0  0  0  0  0  0  0  0  0  0  0  0
   10.2591    9.3922   -9.0675 C   0  0  0  0  0  0  0  0  0  0  0  0
   11.1187    8.5729   -8.0533 C   0  0  0  0  0  0  0  0  0  0  0  0
   11.3858    7.1187   -8.5230 C   0  0  0  0  0  0  0  0  0  0  0  0
   11.8956    7.0974  -10.0077 C   0  0  0  0  0  0  0  0  0  0  0  0
   12.1314    5.5131  -10.3449 C   0  0  0  0  0  0  0  0  0  0  0  0
   13.0988    5.2695   -8.9963 C   0  0  0  0  0  0  0  0  0  0  0  0
   12.5833    6.2828   -7.8710 C   0  0  0  0  0  0  0  0  0  0  0  0
   12.0266    5.6830   -6.7453 O   0  0  0  0  0  0  0  0  0  0  0  0
   10.0437    6.2361   -8.4535 C   0  0  0  0  0  0  0  0  0  0  0  0
    7.1655   13.1380  -13.7811 H   0  0  0  0  0  0  0  0  0  0  0  0
   11.2471    5.1677   -7.0056 H   0  0  0  0  0  0  0  0  0  0  0  0
   14.5907    0.0974  -10.5027 C   0  0  0  0  0  0  0  0  0  0  0  0
   13.4508   -0.0296   -9.4997 C   0  0  0  0  0  0  0  0  0  0  0  0
   13.5483   -0.9541   -8.3830 C   0  0  0  0  0  0  0  0  0  0  0  0
   13.2139   -2.0810   -8.4364 O   0  0  0  0  0  0  0  0  0  0  0  0
   14.1418    0.0094   -7.3743 O   0  0  0  0  0  0  0  0  0  0  0  0
   13.0007    0.6216   -6.6737 C   0  0  0  0  0  0  0  0  0  0  0  0
   13.9955   -1.4636   -3.9451 C   0  0  0  0  0  0  0  0  0  0  0  0
   13.3974   -0.2776   -3.2631 C   0  0  0  0  0  0  0  0  0  0  0  0
   13.1334   -0.4514   -1.9710 O   0  0  0  0  0  0  0  0  0  0  0  0
   12.3025   -0.0072   -4.1757 C   0  0  0  0  0  0  0  0  0  0  0  0
   11.2637   -0.6208   -3.8238 O   0  0  0  0  0  0  0  0  0  0  0  0
   12.7575   -0.4414   -5.5488 C   0  0  0  0  0  0  0  0  0  0  0  0
   14.1262   -0.9331   -5.2719 O   0  0  0  0  0  0  0  0  0  0  0  0
   12.5414   -1.2120   -1.8614 H   0  0  0  0  0  0  0  0  0  0  0  0
   11.4408   -1.5744   -3.8090 H   0  0  0  0  0  0  0  0  0  0  0  0
   17.5548   -5.0586   -4.2907 N   0  0  0  0  0  0  0  0  0  0  0  0
   16.3486   -4.9626   -4.8667 C   0  0  0  0  0  0  0  0  0  0  0  0
   15.4726   -3.9703   -4.7156 N   0  0  0  0  0  0  0  0  0  0  0  0
   15.8551   -2.9047   -3.8567 C   0  0  0  0  0  0  0  0  0  0  0  0
   17.1685   -2.9228   -3.1761 C   0  0  0  0  0  0  0  0  0  0  0  0
   17.9697   -4.1097   -3.4861 C   0  0  0  0  0  0  0  0  0  0  0  0
   19.2205   -4.1168   -2.8304 N   0  0  0  0  0  0  0  0  0  0  0  0
   17.3710   -1.8000   -2.3767 N   0  0  0  0  0  0  0  0  0  0  0  0
   16.1686   -1.1610   -2.6156 C   0  0  0  0  0  0  0  0  0  0  0  0
   15.2396   -1.7385   -3.4617 N   0  0  0  0  0  0  0  0  0  0  0  0
   19.8429   -4.8676   -2.9655 H   0  0  0  0  0  0  0  0  0  0  0  0
   19.4701   -3.3711   -2.2381 H   0  0  0  0  0  0  0  0  0  0  0  0
  7  8  2  0  0  0
  7 17  1  0  0  0
  8  9  1  0  0  0
  9 10  1  0  0  0
  9 11  2  0  0  0
 11 12  1  0  0  0
 12 13  1  0  0  0
 12 17  2  0  0  0
 13 14  1  0  0  0
 14 15  1  0  0  0
 15 16  1  0  0  0
 15 21  1  0  0  0
 16 17  1  0  0  0
 16 18  1  0  0  0
 18 19  1  0  0  0
 19 20  1  0  0  0
 20 21  1  0  0  0
 20 24  1  0  0  0
 20 26  1  0  0  0
 21 22  1  0  0  0
 22 23  1  0  0  0
 23 24  1  0  0  0
 23  6  1  0  0  0
 24 25  1  0  0  0
  6  5  1  0  0  0
  5  4  1  0  0  0
  4  3  1  0  0  0
  3  2  1  0  0  0
  2  1  1  0  0  0
  1 29  1  0  0  0
 29 30  1  0  0  0
 30 31  1  0  0  0
 35 36  1  0  0  0
 35 41  1  0  0  0
 35 53  1  0  0  0
 36 37  1  0  0  0
 36 38  1  0  0  0
 38 39  1  0  0  0
 38 40  1  0  0  0
 40 41  1  0  0  0
 40 34  1  0  0  0
 34 33  1  0  0  0
 33 31  1  0  0  0
 31 32  2  0  0  0
 44 45  2  0  0  0
 44 49  1  0  0  0
 45 46  1  0  0  0
 46 47  2  0  0  0
 47 48  1  0  0  0
 47 53  1  0  0  0
 48 49  2  0  0  0
 48 51  1  0  0  0
 49 50  1  0  0  0
 51 52  2  0  0  0
 52 53  1  0  0  0
 10 27  1  0  0  0
 25 28  1  0  0  0
 37 42  1  0  0  0
 39 43  1  0  0  0
 50 54  1  0  0  0
 50 55  1  0  0  0
M  END
> <minimizedAffinity>
-12.91965

$$$$
1I5R_HYC_A_328


 55 61  0  0  0  0  0  0  0  0999 V2000
   14.5950    0.6675   -8.8589 C   0  0  0  0  0  0  0  0  0  0  0  0
   14.1531    0.0034  -10.1032 C   0  0  0  0  0  0  0  0  0  0  0  0
   14.5390    0.7587  -11.2939 C   0  0  0  0  0  0  0  0  0  0  0  0
   13.9402    2.1219  -11.2480 C   0  0  0  0  0  0  0  0  0  0  0  0
   12.4059    1.9219  -11.1583 C   0  0  0  0  0  0  0  0  0  0  0  0
   11.7778    2.7626  -10.1527 C   0  0  0  0  0  0  0  0  0  0  0  0
    9.7020   11.1277  -11.0833 C   0  0  0  0  0  0  0  0  0  0  0  0
    8.9838   12.1324  -11.7638 C   0  0  0  0  0  0  0  0  0  0  0  0
    8.5746   11.9598  -13.0902 C   0  0  0  0  0  0  0  0  0  0  0  0
    7.9214   12.8883  -13.6915 O   0  0  0  0  0  0  0  0  0  0  0  0
    8.8763   10.7567  -13.7848 C   0  0  0  0  0  0  0  0  0  0  0  0
    9.5978    9.7139  -13.1415 C   0  0  0  0  0  0  0  0  0  0  0  0
    9.9059    8.4072  -13.9484 C   0  0  0  0  0  0  0  0  0  0  0  0
   10.9961    7.4776  -13.2588 C   0  0  0  0  0  0  0  0  0  0  0  0
   10.5731    7.3957  -11.7520 C   0  0  0  0  0  0  0  0  0  0  0  0
   10.8040    8.7765  -11.0519 C   0  0  0  0  0  0  0  0  0  0  0  0
   10.0149    9.9036  -11.7735 C   0  0  0  0  0  0  0  0  0  0  0  0
   10.3638    8.6800   -9.5306 C   0  0  0  0  0  0  0  0  0  0  0  0
   11.1194    7.5533   -8.7570 C   0  0  0  0  0  0  0  0  0  0  0  0
   11.0386    6.1749   -9.4644 C   0  0  0  0  0  0  0  0  0  0  0  0
   11.4032    6.3070  -10.9856 C   0  0  0  0  0  0  0  0  0  0  0  0
   11.2764    4.7865  -11.5783 C   0  0  0  0  0  0  0  0  0  0  0  0
   12.2849    4.1399  -10.4041 C   0  0  0  0  0  0  0  0  0  0  0  0
   12.0888    5.0287   -9.0887 C   0  0  0  0  0  0  0  0  0  0  0  0
   11.5190    4.3653   -8.0061 O   0  0  0  0  0  0  0  0  0  0  0  0
    9.5540    5.5651   -9.3680 C   0  0  0  0  0  0  0  0  0  0  0  0
    7.7180   13.6848  -13.2417 H   0  0  0  0  0  0  0  0  0  0  0  0
   10.6304    4.0591   -8.2458 H   0  0  0  0  0  0  0  0  0  0  0  0
   13.5515    0.2692   -7.9438 C   0  0  0  0  0  0  0  0  0  0  0  0
   13.1683   -1.1386   -8.3828 C   0  0  0  0  0  0  0  0  0  0  0  0
   13.5472   -2.2911   -7.5832 C   0  0  0  0  0  0  0  0  0  0  0  0
   13.7058   -3.3699   -8.0255 O   0  0  0  0  0  0  0  0  0  0  0  0
   13.6173   -1.5911   -6.2404 O   0  0  0  0  0  0  0  0  0  0  0  0
   14.3787   -2.4855   -5.3527 C   0  0  0  0  0  0  0  0  0  0  0  0
   14.8701    0.7197   -3.8467 C   0  0  0  0  0  0  0  0  0  0  0  0
   14.3088   -0.0960   -2.7291 C   0  0  0  0  0  0  0  0  0  0  0  0
   14.4368    0.4485   -1.5222 O   0  0  0  0  0  0  0  0  0  0  0  0
   14.9658   -1.3596   -3.0052 C   0  0  0  0  0  0  0  0  0  0  0  0
   16.0608   -1.4385   -2.3934 O   0  0  0  0  0  0  0  0  0  0  0  0
   15.1663   -1.4330   -4.5004 C   0  0  0  0  0  0  0  0  0  0  0  0
   14.5748   -0.1518   -4.9477 O   0  0  0  0  0  0  0  0  0  0  0  0
   15.3739    0.6260   -1.3453 H   0  0  0  0  0  0  0  0  0  0  0  0
   16.6385   -0.7097   -2.6691 H   0  0  0  0  0  0  0  0  0  0  0  0
   14.9630    4.8894   -6.7305 N   0  0  0  0  0  0  0  0  0  0  0  0
   15.7634    3.8147   -6.7194 C   0  0  0  0  0  0  0  0  0  0  0  0
   15.6609    2.7559   -5.9174 N   0  0  0  0  0  0  0  0  0  0  0  0
   14.5946    2.7660   -4.9780 C   0  0  0  0  0  0  0  0  0  0  0  0
   13.6590    3.9102   -4.9157 C   0  0  0  0  0  0  0  0  0  0  0  0
   13.9597    4.9631   -5.8891 C   0  0  0  0  0  0  0  0  0  0  0  0
   13.0611    6.0504   -5.8200 N   0  0  0  0  0  0  0  0  0  0  0  0
   12.6804    3.7469   -3.9377 N   0  0  0  0  0  0  0  0  0  0  0  0
   13.0756    2.5116   -3.4591 C   0  0  0  0  0  0  0  0  0  0  0  0
   14.1750    1.8801   -4.0114 N   0  0  0  0  0  0  0  0  0  0  0  0
   13.1679    6.8167   -6.4288 H   0  0  0  0  0  0  0  0  0  0  0  0
   12.3280    6.0421   -5.1630 H   0  0  0  0  0  0  0  0  0  0  0  0
  7  8  2  0  0  0
  7 17  1  0  0  0
  8  9  1  0  0  0
  9 10  1  0  0  0
  9 11  2  0  0  0
 11 12  1  0  0  0
 12 13  1  0  0  0
 12 17  2  0  0  0
 13 14  1  0  0  0
 14 15  1  0  0  0
 15 16  1  0  0  0
 15 21  1  0  0  0
 16 17  1  0  0  0
 16 18  1  0  0  0
 18 19  1  0  0  0
 19 20  1  0  0  0
 20 21  1  0  0  0
 20 24  1  0  0  0
 20 26  1  0  0  0
 21 22  1  0  0  0
 22 23  1  0  0  0
 23 24  1  0  0  0
 23  6  1  0  0  0
 24 25  1  0  0  0
  6  5  1  0  0  0
  5  4  1  0  0  0
  4  3  1  0  0  0
  3  2  1  0  0  0
  2  1  1  0  0  0
  1 29  1  0  0  0
 29 30  1  0  0  0
 30 31  1  0  0  0
 35 36  1  0  0  0
 35 41  1  0  0  0
 35 53  1  0  0  0
 36 37  1  0  0  0
 36 38  1  0  0  0
 38 39  1  0  0  0
 38 40  1  0  0  0
 40 41  1  0  0  0
 40 34  1  0  0  0
 34 33  1  0  0  0
 33 31  1  0  0  0
 31 32  2  0  0  0
 44 45  2  0  0  0
 44 49  1  0  0  0
 45 46  1  0  0  0
 46 47  2  0  0  0
 47 48  1  0  0  0
 47 53  1  0  0  0
 48 49  2  0  0  0
 48 51  1  0  0  0
 49 50  1  0  0  0
 51 52  2  0  0  0
 52 53  1  0  0  0
 10 27  1  0  0  0
 25 28  1  0  0  0
 37 42  1  0  0  0
 39 43  1  0  0  0
 50 54  1  0  0  0
 50 55  1  0  0  0
M  END
> <minimizedAffinity>
-12.89052

$$$$
1I5R_HYC_A_328


 55 61  0  0  0  0  0  0  0  0999 V2000
   10.7076    2.7474  -13.4888 C   0  0  0  0  0  0  0  0  0  0  0  0
   10.4395    1.5293  -12.6956 C   0  0  0  0  0  0  0  0  0  0  0  0
   11.3650    1.3927  -11.5722 C   0  0  0  0  0  0  0  0  0  0  0  0
   10.6267    1.5282  -10.2854 C   0  0  0  0  0  0  0  0  0  0  0  0
   10.7326    3.0194   -9.8765 C   0  0  0  0  0  0  0  0  0  0  0  0
   11.9099    3.3101   -9.0753 C   0  0  0  0  0  0  0  0  0  0  0  0
    9.6583   11.4070  -11.2014 C   0  0  0  0  0  0  0  0  0  0  0  0
    8.9161   12.2872  -12.0155 C   0  0  0  0  0  0  0  0  0  0  0  0
    8.5035   11.9144  -13.2991 C   0  0  0  0  0  0  0  0  0  0  0  0
    7.8282   12.7321  -14.0242 O   0  0  0  0  0  0  0  0  0  0  0  0
    8.8260   10.6288  -13.8128 C   0  0  0  0  0  0  0  0  0  0  0  0
    9.5722    9.7056  -13.0299 C   0  0  0  0  0  0  0  0  0  0  0  0
    9.9028    8.3012  -13.6397 C   0  0  0  0  0  0  0  0  0  0  0  0
   11.0154    7.5038  -12.8306 C   0  0  0  0  0  0  0  0  0  0  0  0
   10.6022    7.6351  -11.3246 C   0  0  0  0  0  0  0  0  0  0  0  0
   10.8084    9.1077  -10.8357 C   0  0  0  0  0  0  0  0  0  0  0  0
    9.9925   10.1014  -11.7079 C   0  0  0  0  0  0  0  0  0  0  0  0
   10.3783    9.2262   -9.3131 C   0  0  0  0  0  0  0  0  0  0  0  0
   11.1609    8.2397   -8.3895 C   0  0  0  0  0  0  0  0  0  0  0  0
   11.1046    6.7714   -8.8871 C   0  0  0  0  0  0  0  0  0  0  0  0
   11.4584    6.6865  -10.4142 C   0  0  0  0  0  0  0  0  0  0  0  0
   11.3596    5.0935  -10.7772 C   0  0  0  0  0  0  0  0  0  0  0  0
   12.3874    4.6455   -9.5294 C   0  0  0  0  0  0  0  0  0  0  0  0
   12.1801    5.7132   -8.3566 C   0  0  0  0  0  0  0  0  0  0  0  0
   11.6298    5.2043   -7.1839 O   0  0  0  0  0  0  0  0  0  0  0  0
    9.6334    6.1535   -8.6904 C   0  0  0  0  0  0  0  0  0  0  0  0
    7.6110   13.5817  -13.6940 H   0  0  0  0  0  0  0  0  0  0  0  0
   10.7463    4.8490   -7.3690 H   0  0  0  0  0  0  0  0  0  0  0  0
   12.1492    2.7197  -13.5648 C   0  0  0  0  0  0  0  0  0  0  0  0
   12.4581    2.7173  -15.0568 C   0  0  0  0  0  0  0  0  0  0  0  0
   13.6090    1.9955  -15.5723 C   0  0  0  0  0  0  0  0  0  0  0  0
   13.5720    1.2962  -16.5179 O   0  0  0  0  0  0  0  0  0  0  0  0
   14.6204    2.4697  -14.5475 O   0  0  0  0  0  0  0  0  0  0  0  0
   15.9435    2.3012  -15.1712 C   0  0  0  0  0  0  0  0  0  0  0  0
   16.4862    1.1876  -11.8174 C   0  0  0  0  0  0  0  0  0  0  0  0
   16.8899    0.0053  -12.6352 C   0  0  0  0  0  0  0  0  0  0  0  0
   17.5750   -0.9231  -11.9734 O   0  0  0  0  0  0  0  0  0  0  0  0
   17.5238    0.6910  -13.7455 C   0  0  0  0  0  0  0  0  0  0  0  0
   18.7521    0.8497  -13.5319 O   0  0  0  0  0  0  0  0  0  0  0  0
   16.8187    2.0172  -13.9032 C   0  0  0  0  0  0  0  0  0  0  0  0
   15.8070    1.9516  -12.8243 O   0  0  0  0  0  0  0  0  0  0  0  0
   18.3673   -0.5229  -11.5823 H   0  0  0  0  0  0  0  0  0  0  0  0
   18.8750    1.3690  -12.7219 H   0  0  0  0  0  0  0  0  0  0  0  0
   15.0664    2.6395   -7.1711 N   0  0  0  0  0  0  0  0  0  0  0  0
   16.0077    3.1267   -7.9912 C   0  0  0  0  0  0  0  0  0  0  0  0
   16.3130    2.6759   -9.2071 N   0  0  0  0  0  0  0  0  0  0  0  0
   15.5651    1.5657   -9.6840 C   0  0  0  0  0  0  0  0  0  0  0  0
   14.5046    0.9597   -8.8492 C   0  0  0  0  0  0  0  0  0  0  0  0
   14.3399    1.6152   -7.5493 C   0  0  0  0  0  0  0  0  0  0  0  0
   13.3261    1.0280   -6.7607 N   0  0  0  0  0  0  0  0  0  0  0  0
   13.8796   -0.1152   -9.4775 N   0  0  0  0  0  0  0  0  0  0  0  0
   14.5952   -0.1033  -10.6603 C   0  0  0  0  0  0  0  0  0  0  0  0
   15.5873    0.8405  -10.8540 N   0  0  0  0  0  0  0  0  0  0  0  0
   13.1280    1.3878   -5.8659 H   0  0  0  0  0  0  0  0  0  0  0  0
   12.8174    0.2589   -7.1057 H   0  0  0  0  0  0  0  0  0  0  0  0
  7  8  2  0  0  0
  7 17  1  0  0  0
  8  9  1  0  0  0
  9 10  1  0  0  0
  9 11  2  0  0  0
 11 12  1  0  0  0
 12 13  1  0  0  0
 12 17  2  0  0  0
 13 14  1  0  0  0
 14 15  1  0  0  0
 15 16  1  0  0  0
 15 21  1  0  0  0
 16 17  1  0  0  0
 16 18  1  0  0  0
 18 19  1  0  0  0
 19 20  1  0  0  0
 20 21  1  0  0  0
 20 24  1  0  0  0
 20 26  1  0  0  0
 21 22  1  0  0  0
 22 23  1  0  0  0
 23 24  1  0  0  0
 23  6  1  0  0  0
 24 25  1  0  0  0
  6  5  1  0  0  0
  5  4  1  0  0  0
  4  3  1  0  0  0
  3  2  1  0  0  0
  2  1  1  0  0  0
  1 29  1  0  0  0
 29 30  1  0  0  0
 30 31  1  0  0  0
 35 36  1  0  0  0
 35 41  1  0  0  0
 35 53  1  0  0  0
 36 37  1  0  0  0
 36 38  1  0  0  0
 38 39  1  0  0  0
 38 40  1  0  0  0
 40 41  1  0  0  0
 40 34  1  0  0  0
 34 33  1  0  0  0
 33 31  1  0  0  0
 31 32  2  0  0  0
 44 45  2  0  0  0
 44 49  1  0  0  0
 45 46  1  0  0  0
 46 47  2  0  0  0
 47 48  1  0  0  0
 47 53  1  0  0  0
 48 49  2  0  0  0
 48 51  1  0  0  0
 49 50  1  0  0  0
 51 52  2  0  0  0
 52 53  1  0  0  0
 10 27  1  0  0  0
 25 28  1  0  0  0
 37 42  1  0  0  0
 39 43  1  0  0  0
 50 54  1  0  0  0
 50 55  1  0  0  0
M  END
> <minimizedAffinity>
-12.82239

$$$$
1I5R_HYC_A_328


 55 61  0  0  0  0  0  0  0  0999 V2000
   12.2066    3.0109  -13.4362 C   0  0  0  0  0  0  0  0  0  0  0  0
   11.0178    2.3467  -12.8613 C   0  0  0  0  0  0  0  0  0  0  0  0
   11.3801    1.3540  -11.8511 C   0  0  0  0  0  0  0  0  0  0  0  0
   10.4808    1.4784  -10.6700 C   0  0  0  0  0  0  0  0  0  0  0  0
   10.5515    2.9602  -10.2217 C   0  0  0  0  0  0  0  0  0  0  0  0
   11.6679    3.2357   -9.3327 C   0  0  0  0  0  0  0  0  0  0  0  0
    9.6378   11.4620  -11.1646 C   0  0  0  0  0  0  0  0  0  0  0  0
    8.9236   12.3909  -11.9491 C   0  0  0  0  0  0  0  0  0  0  0  0
    8.5100   12.0773  -13.2480 C   0  0  0  0  0  0  0  0  0  0  0  0
    7.8605   12.9388  -13.9455 O   0  0  0  0  0  0  0  0  0  0  0  0
    8.8029   10.8040  -13.8079 C   0  0  0  0  0  0  0  0  0  0  0  0
    9.5201    9.8331  -13.0564 C   0  0  0  0  0  0  0  0  0  0  0  0
    9.8186    8.4446  -13.7168 C   0  0  0  0  0  0  0  0  0  0  0  0
   10.9052    7.5890  -12.9322 C   0  0  0  0  0  0  0  0  0  0  0  0
   10.4857    7.6743  -11.4246 C   0  0  0  0  0  0  0  0  0  0  0  0
   10.7264    9.1216  -10.8795 C   0  0  0  0  0  0  0  0  0  0  0  0
    9.9418   10.1681  -11.7180 C   0  0  0  0  0  0  0  0  0  0  0  0
   10.2896    9.1940   -9.3559 C   0  0  0  0  0  0  0  0  0  0  0  0
   11.0407    8.1537   -8.4657 C   0  0  0  0  0  0  0  0  0  0  0  0
   10.9502    6.7071   -9.0186 C   0  0  0  0  0  0  0  0  0  0  0  0
   11.3116    6.6705  -10.5459 C   0  0  0  0  0  0  0  0  0  0  0  0
   11.1745    5.0953  -10.9692 C   0  0  0  0  0  0  0  0  0  0  0  0
   12.1823    4.5744   -9.7335 C   0  0  0  0  0  0  0  0  0  0  0  0
   11.9948    5.6023   -8.5224 C   0  0  0  0  0  0  0  0  0  0  0  0
   11.4241    5.0641   -7.3728 O   0  0  0  0  0  0  0  0  0  0  0  0
    9.4624    6.1203   -8.8534 C   0  0  0  0  0  0  0  0  0  0  0  0
    7.6629   13.7807  -13.5847 H   0  0  0  0  0  0  0  0  0  0  0  0
   10.5331    4.7390   -7.5760 H   0  0  0  0  0  0  0  0  0  0  0  0
   12.9735    1.8725  -13.8841 C   0  0  0  0  0  0  0  0  0  0  0  0
   13.9215    2.4342  -14.9364 C   0  0  0  0  0  0  0  0  0  0  0  0
   15.3206    2.6675  -14.6216 C   0  0  0  0  0  0  0  0  0  0  0  0
   15.9513    3.5556  -15.0666 O   0  0  0  0  0  0  0  0  0  0  0  0
   15.5133    1.4970  -13.6778 O   0  0  0  0  0  0  0  0  0  0  0  0
   16.8143    1.7107  -13.0223 C   0  0  0  0  0  0  0  0  0  0  0  0
   15.7863    1.6242   -9.5990 C   0  0  0  0  0  0  0  0  0  0  0  0
   14.5768    1.1379  -10.3272 C   0  0  0  0  0  0  0  0  0  0  0  0
   13.6580    0.5595   -9.5586 O   0  0  0  0  0  0  0  0  0  0  0  0
   15.2233    0.3546  -11.3630 C   0  0  0  0  0  0  0  0  0  0  0  0
   15.3717   -0.8382  -10.9962 O   0  0  0  0  0  0  0  0  0  0  0  0
   16.5538    1.0115  -11.6447 C   0  0  0  0  0  0  0  0  0  0  0  0
   16.5311    2.1550  -10.7047 O   0  0  0  0  0  0  0  0  0  0  0  0
   14.0584   -0.1822   -9.0785 H   0  0  0  0  0  0  0  0  0  0  0  0
   15.9115   -0.8641  -10.1907 H   0  0  0  0  0  0  0  0  0  0  0  0
   13.5158    2.3660   -5.1261 N   0  0  0  0  0  0  0  0  0  0  0  0
   13.7322    1.2415   -5.8223 C   0  0  0  0  0  0  0  0  0  0  0  0
   14.3441    1.1424   -7.0015 N   0  0  0  0  0  0  0  0  0  0  0  0
   14.8160    2.3512   -7.5809 C   0  0  0  0  0  0  0  0  0  0  0  0
   14.6231    3.6428   -6.8859 C   0  0  0  0  0  0  0  0  0  0  0  0
   13.9254    3.5167   -5.6037 C   0  0  0  0  0  0  0  0  0  0  0  0
   13.7459    4.7556   -4.9499 N   0  0  0  0  0  0  0  0  0  0  0  0
   15.1484    4.7171   -7.6005 N   0  0  0  0  0  0  0  0  0  0  0  0
   15.6319    4.0187   -8.6912 C   0  0  0  0  0  0  0  0  0  0  0  0
   15.4776    2.6457   -8.7516 N   0  0  0  0  0  0  0  0  0  0  0  0
   13.2883    4.7907   -4.0789 H   0  0  0  0  0  0  0  0  0  0  0  0
   14.0783    5.5840   -5.3651 H   0  0  0  0  0  0  0  0  0  0  0  0
  7  8  2  0  0  0
  7 17  1  0  0  0
  8  9  1  0  0  0
  9 10  1  0  0  0
  9 11  2  0  0  0
 11 12  1  0  0  0
 12 13  1  0  0  0
 12 17  2  0  0  0
 13 14  1  0  0  0
 14 15  1  0  0  0
 15 16  1  0  0  0
 15 21  1  0  0  0
 16 17  1  0  0  0
 16 18  1  0  0  0
 18 19  1  0  0  0
 19 20  1  0  0  0
 20 21  1  0  0  0
 20 24  1  0  0  0
 20 26  1  0  0  0
 21 22  1  0  0  0
 22 23  1  0  0  0
 23 24  1  0  0  0
 23  6  1  0  0  0
 24 25  1  0  0  0
  6  5  1  0  0  0
  5  4  1  0  0  0
  4  3  1  0  0  0
  3  2  1  0  0  0
  2  1  1  0  0  0
  1 29  1  0  0  0
 29 30  1  0  0  0
 30 31  1  0  0  0
 35 36  1  0  0  0
 35 41  1  0  0  0
 35 53  1  0  0  0
 36 37  1  0  0  0
 36 38  1  0  0  0
 38 39  1  0  0  0
 38 40  1  0  0  0
 40 41  1  0  0  0
 40 34  1  0  0  0
 34 33  1  0  0  0
 33 31  1  0  0  0
 31 32  2  0  0  0
 44 45  2  0  0  0
 44 49  1  0  0  0
 45 46  1  0  0  0
 46 47  2  0  0  0
 47 48  1  0  0  0
 47 53  1  0  0  0
 48 49  2  0  0  0
 48 51  1  0  0  0
 49 50  1  0  0  0
 51 52  2  0  0  0
 52 53  1  0  0  0
 10 27  1  0  0  0
 25 28  1  0  0  0
 37 42  1  0  0  0
 39 43  1  0  0  0
 50 54  1  0  0  0
 50 55  1  0  0  0
M  END
> <minimizedAffinity>
-12.44777

$$$$
1I5R_HYC_A_328


 55 61  0  0  0  0  0  0  0  0999 V2000
   10.3922    4.5903  -10.1281 C   0  0  0  0  0  0  0  0  0  0  0  0
   11.3131    5.0040  -11.2078 C   0  0  0  0  0  0  0  0  0  0  0  0
   10.8631    4.5402  -12.5190 C   0  0  0  0  0  0  0  0  0  0  0  0
   10.0576    3.2960  -12.3699 C   0  0  0  0  0  0  0  0  0  0  0  0
   10.7521    2.2193  -13.2417 C   0  0  0  0  0  0  0  0  0  0  0  0
   10.9908    0.9745  -12.5301 C   0  0  0  0  0  0  0  0  0  0  0  0
   19.4411    2.7740  -13.2407 C   0  0  0  0  0  0  0  0  0  0  0  0
   20.4685    3.6083  -13.7274 C   0  0  0  0  0  0  0  0  0  0  0  0
   20.2787    4.4082  -14.8591 C   0  0  0  0  0  0  0  0  0  0  0  0
   21.2284    5.1609  -15.2856 O   0  0  0  0  0  0  0  0  0  0  0  0
   19.0347    4.3969  -15.5469 C   0  0  0  0  0  0  0  0  0  0  0  0
   17.9678    3.5728  -15.0947 C   0  0  0  0  0  0  0  0  0  0  0  0
   16.6162    3.5950  -15.8859 C   0  0  0  0  0  0  0  0  0  0  0  0
   15.6386    2.3998  -15.5061 C   0  0  0  0  0  0  0  0  0  0  0  0
   15.6377    2.3512  -13.9397 C   0  0  0  0  0  0  0  0  0  0  0  0
   17.0227    1.8443  -13.4156 C   0  0  0  0  0  0  0  0  0  0  0  0
   18.1755    2.7519  -13.9267 C   0  0  0  0  0  0  0  0  0  0  0  0
   17.0088    1.8086  -11.8294 C   0  0  0  0  0  0  0  0  0  0  0  0
   15.8604    0.9172  -11.2588 C   0  0  0  0  0  0  0  0  0  0  0  0
   14.4673    1.2833  -11.8349 C   0  0  0  0  0  0  0  0  0  0  0  0
   14.5218    1.3891  -13.4003 C   0  0  0  0  0  0  0  0  0  0  0  0
   12.9941    1.7721  -13.8458 C   0  0  0  0  0  0  0  0  0  0  0  0
   12.3209    0.4927  -12.9949 C   0  0  0  0  0  0  0  0  0  0  0  0
   13.2658    0.2330  -11.7306 C   0  0  0  0  0  0  0  0  0  0  0  0
   12.6803    0.4841  -10.4932 O   0  0  0  0  0  0  0  0  0  0  0  0
   13.9638    2.7003  -11.2658 C   0  0  0  0  0  0  0  0  0  0  0  0
   22.0518    5.1749  -14.8387 H   0  0  0  0  0  0  0  0  0  0  0  0
   12.4273    1.4190  -10.4390 H   0  0  0  0  0  0  0  0  0  0  0  0
   11.3217    4.0773   -9.1494 C   0  0  0  0  0  0  0  0  0  0  0  0
   12.2026    5.2677   -8.7909 C   0  0  0  0  0  0  0  0  0  0  0  0
   11.9533    6.0342   -7.5820 C   0  0  0  0  0  0  0  0  0  0  0  0
   11.6189    7.1623   -7.5807 O   0  0  0  0  0  0  0  0  0  0  0  0
   12.2608    4.9381   -6.5809 O   0  0  0  0  0  0  0  0  0  0  0  0
   13.1301    5.5484   -5.5612 C   0  0  0  0  0  0  0  0  0  0  0  0
   15.0576    2.5372   -5.5449 C   0  0  0  0  0  0  0  0  0  0  0  0
   14.6537    2.6718   -6.9760 C   0  0  0  0  0  0  0  0  0  0  0  0
   15.3232    1.8918   -7.8203 O   0  0  0  0  0  0  0  0  0  0  0  0
   14.7557    4.1122   -7.1161 C   0  0  0  0  0  0  0  0  0  0  0  0
   15.9045    4.4449   -7.5023 O   0  0  0  0  0  0  0  0  0  0  0  0
   14.4368    4.7086   -5.7657 C   0  0  0  0  0  0  0  0  0  0  0  0
   14.1692    3.4982   -4.9565 O   0  0  0  0  0  0  0  0  0  0  0  0
   16.2734    2.0701   -7.7410 H   0  0  0  0  0  0  0  0  0  0  0  0
   16.5631    4.1377   -6.8598 H   0  0  0  0  0  0  0  0  0  0  0  0
   17.1055   -1.0770   -2.6371 N   0  0  0  0  0  0  0  0  0  0  0  0
   17.5830    0.1161   -3.0171 C   0  0  0  0  0  0  0  0  0  0  0  0
   16.9668    1.0088   -3.7905 N   0  0  0  0  0  0  0  0  0  0  0  0
   15.6715    0.6619   -4.2607 C   0  0  0  0  0  0  0  0  0  0  0  0
   15.0613   -0.6348   -3.8936 C   0  0  0  0  0  0  0  0  0  0  0  0
   15.9162   -1.4597   -3.0360 C   0  0  0  0  0  0  0  0  0  0  0  0
   15.3243   -2.6951   -2.6929 N   0  0  0  0  0  0  0  0  0  0  0  0
   13.7924   -0.8025   -4.4437 N   0  0  0  0  0  0  0  0  0  0  0  0
   13.7013    0.4024   -5.1154 C   0  0  0  0  0  0  0  0  0  0  0  0
   14.7491    1.3030   -5.0566 N   0  0  0  0  0  0  0  0  0  0  0  0
   15.8097   -3.3310   -2.1191 H   0  0  0  0  0  0  0  0  0  0  0  0
   14.4262   -2.9205   -3.0274 H   0  0  0  0  0  0  0  0  0  0  0  0
  7  8  2  0  0  0
  7 17  1  0  0  0
  8  9  1  0  0  0
  9 10  1  0  0  0
  9 11  2  0  0  0
 11 12  1  0  0  0
 12 13  1  0  0  0
 12 17  2  0  0  0
 13 14  1  0  0  0
 14 15  1  0  0  0
 15 16  1  0  0  0
 15 21  1  0  0  0
 16 17  1  0  0  0
 16 18  1  0  0  0
 18 19  1  0  0  0
 19 20  1  0  0  0
 20 21  1  0  0  0
 20 24  1  0  0  0
 20 26  1  0  0  0
 21 22  1  0  0  0
 22 23  1  0  0  0
 23 24  1  0  0  0
 23  6  1  0  0  0
 24 25  1  0  0  0
  6  5  1  0  0  0
  5  4  1  0  0  0
  4  3  1  0  0  0
  3  2  1  0  0  0
  2  1  1  0  0  0
  1 29  1  0  0  0
 29 30  1  0  0  0
 30 31  1  0  0  0
 35 36  1  0  0  0
 35 41  1  0  0  0
 35 53  1  0  0  0
 36 37  1  0  0  0
 36 38  1  0  0  0
 38 39  1  0  0  0
 38 40  1  0  0  0
 40 41  1  0  0  0
 40 34  1  0  0  0
 34 33  1  0  0  0
 33 31  1  0  0  0
 31 32  2  0  0  0
 44 45  2  0  0  0
 44 49  1  0  0  0
 45 46  1  0  0  0
 46 47  2  0  0  0
 47 48  1  0  0  0
 47 53  1  0  0  0
 48 49  2  0  0  0
 48 51  1  0  0  0
 49 50  1  0  0  0
 51 52  2  0  0  0
 52 53  1  0  0  0
 10 27  1  0  0  0
 25 28  1  0  0  0
 37 42  1  0  0  0
 39 43  1  0  0  0
 50 54  1  0  0  0
 50 55  1  0  0  0
M  END
> <minimizedAffinity>
-11.78317

$$$$
