4DES_57D_A_201
  RCSB PDB12061712113D
Coordinates from PDB:4DES:A:201 Model:1 without hydrogens
 19 21  0  0  0  0            999 V2000
   21.8840    0.1560   -7.2380   C 0  0  0  0  0  0  0  0  0  0  0  0
   22.9660   -0.7120   -7.1510   C 0  0  0  0  0  0  0  0  0  0  0  0
   23.3460   -1.2150   -5.9190   C 0  0  0  0  0  0  0  0  0  0  0  0
   22.6290   -0.8350   -4.7970   C 0  0  0  0  0  0  0  0  0  0  0  0
   22.9890   -1.3260   -3.5470   C 0  0  0  0  0  0  0  0  0  0  0  0
   22.2730   -0.9470   -2.4180   C 0  0  0  0  0  0  0  0  0  0  0  0
   21.1960   -0.0780   -2.5430   C 0  0  0  0  0  0  0  0  0  0  0  0
   20.8390    0.4110   -3.7940   C 0  0  0  0  0  0  0  0  0  0  0  0
   21.5520    0.0360   -4.9270   C 0  0  0  0  0  0  0  0  0  0  0  0
   21.1680    0.5390   -6.1380   O 0  0  0  0  0  0  0  0  0  0  0  0
   24.3010   -1.9840   -5.8230   O 0  0  0  0  0  0  0  0  0  0  0  0
   24.0440   -2.1760   -3.4290   O 0  0  0  0  0  0  0  0  0  0  0  0
   20.4920    0.2950   -1.4400   O 0  0  0  0  0  0  0  0  0  0  0  0
   21.2970    2.0130   -8.6530   C 0  0  0  0  0  0  0  0  0  0  0  0
   20.9300    2.5080   -9.8990   C 0  0  0  0  0  0  0  0  0  0  0  0
   20.7820    1.6410  -10.9760   C 0  0  0  0  0  0  0  0  0  0  0  0
   21.0020    0.2790  -10.8060   C 0  0  0  0  0  0  0  0  0  0  0  0
   21.3690   -0.2160   -9.5600   C 0  0  0  0  0  0  0  0  0  0  0  0
   21.5170    0.6510   -8.4840   C 0  0  0  0  0  0  0  0  0  0  0  0
  1  2  2  0  0  0  0
  1 10  1  0  0  0  0
  1 19  1  0  0  0  0
  2  3  1  0  0  0  0
  3  4  1  0  0  0  0
  3 11  2  0  0  0  0
  4  5  2  0  0  0  0
  4  9  1  0  0  0  0
  5  6  1  0  0  0  0
  5 12  1  0  0  0  0
  6  7  2  0  0  0  0
  7  8  1  0  0  0  0
  7 13  1  0  0  0  0
  8  9  2  0  0  0  0
  9 10  1  0  0  0  0
 14 15  2  0  0  0  0
 14 19  1  0  0  0  0
 15 16  1  0  0  0  0
 16 17  2  0  0  0  0
 17 18  1  0  0  0  0
 18 19  2  0  0  0  0
A    1
C2
A    2
C3
A    3
C4
A    4
C5
A    5
C6
A    6
C7
A    7
C8
A    8
C9
A    9
C10
A   10
O1
A   11
O4
A   12
O5
A   13
O7
A   14
C2'
A   15
C3'
A   16
C4'
A   17
C5'
A   18
C6'
A   19
C1'
M  END
>  <InstanceId>
4DES_57D_A_201

>  <ChemCompId>
57D

>  <PdbId>
4DES

>  <ChainId>
A

>  <ResidueNumber>
201

>  <InsertionCode>


>  <Model>
1

>  <AltIds>


>  <MissingHeavyAtoms>
0

>  <ObservedFormula>
C15 O4

>  <Name>
chrysin

>  <SystematicName>
5,7-dihydroxy-2-phenyl-chromen-4-one

>  <Synonyms>
5,7-dihydroxy-2-phenyl-4H-chromen-4-one

>  <Type>
NON-POLYMER

>  <Formula>
C15 H10 O4

>  <MolecularWeight>
254.237

>  <ModifiedDate>
2011-06-04

>  <Parent>


>  <OneLetterCode>


>  <SubcomponentList>


>  <AmbiguousFlag>
N

>  <InChI>
InChI=1S/C15H10O4/c16-10-6-11(17)15-12(18)8-13(19-14(15)7-10)9-4-2-1-3-5-9/h1-8,16-17H

>  <InChIKey>
RTIXKCRFFJGDFG-UHFFFAOYSA-N

>  <SMILES>
c1ccc(cc1)C2=CC(=O)c3c(cc(cc3O2)O)O

$$$$
