1Z1H_HBB_A_201
  RCSB PDB12061704503D
Coordinates from PDB:1Z1H:A:201 Model:1 without hydrogens
 40 42  0  0  0  0            999 V2000
    5.6690   -0.2380   14.3420   C 0  0  0  0  0  0  0  0  0  0  0  0
    7.0830    0.3740   14.2550   C 0  0  0  0  0  0  0  0  0  0  0  0
    7.3480    1.0860   12.9450   C 0  0  0  0  0  0  0  0  0  0  0  0
    7.7410    1.0220   10.5540   C 0  0  0  0  0  0  0  0  0  0  0  0
    7.6060    0.3700   11.7680   C 0  0  0  0  0  0  0  0  0  0  0  0
    6.3250    3.0840    8.7760   C 0  0  0  0  0  0  0  0  0  0  0  0
    5.4980    4.2530    9.3600   C 0  0  0  0  0  0  0  0  0  0  0  0
    4.0010    3.9610    9.4690   C 0  0  0  0  0  0  0  0  0  0  0  0
    3.5620    3.4240   10.8200   C 0  0  0  0  0  0  0  0  0  0  0  0
    2.9730    1.4640   12.1810   C 0  0  0  0  0  0  0  0  0  0  0  0
    0.5440    2.0780   11.8760   C 0  0  0  0  0  0  0  0  0  0  0  0
    3.9260    0.3660   12.6940   C 0  0  0  0  0  0  0  0  0  0  0  0
    6.3700   -2.8180   15.8170   N 0  0  0  0  0  0  0  0  0  0  0  0
    5.7070   -3.5950   16.8920   C 0  0  0  0  0  0  0  0  0  0  0  0
    2.9350   -2.8440   16.3270   C 0  0  0  0  0  0  0  0  0  0  0  0
    2.5690   -5.0460   15.2300   C 0  0  0  0  0  0  0  0  0  0  0  0
    8.5290   -4.5040   15.7960   C 0  0  0  0  0  0  0  0  0  0  0  0
    7.2450    2.4740   12.8640   C 0  0  0  0  0  0  0  0  0  0  0  0
    7.3790    3.1270   11.6580   C 0  0  0  0  0  0  0  0  0  0  0  0
    7.6180    2.3990   10.5040   C 0  0  0  0  0  0  0  0  0  0  0  0
    7.6630    3.0550    9.2910   O 0  0  0  0  0  0  0  0  0  0  0  0
    3.4350    4.1870   11.7850   O 0  0  0  0  0  0  0  0  0  0  0  0
    3.3970    2.1030   10.9100   N 0  0  0  0  0  0  0  0  0  0  0  0
    1.5280    0.9200   12.0730   C 0  0  0  0  0  0  0  0  0  0  0  0
    1.1470    0.1320   13.3060   C 0  0  0  0  0  0  0  0  0  0  0  0
    3.9570   -0.7550   12.1550   O 0  0  0  0  0  0  0  0  0  0  0  0
    4.6820    0.6980   13.7470   N 0  0  0  0  0  0  0  0  0  0  0  0
    5.3120   -0.5480   15.8090   C 0  0  0  0  0  0  0  0  0  0  0  0
    5.2570    0.6650   16.5620   O 0  0  0  0  0  0  0  0  0  0  0  0
    6.3430   -1.4910   16.4480   C 0  0  0  0  0  0  0  0  0  0  0  0
    4.7980   -4.5350   16.1180   C 0  0  0  0  0  0  0  0  0  0  0  0
    3.3010   -4.3200   16.3450   C 0  0  0  0  0  0  0  0  0  0  0  0
    7.5240   -3.5430   14.8840   S 0  0  0  0  0  0  0  0  0  0  0  0
    8.3440   -2.5090   14.2480   O 0  0  0  0  0  0  0  0  0  0  0  0
    6.8690   -4.3280   13.8480   O 0  0  0  0  0  0  0  0  0  0  0  0
    9.6660   -3.9610   16.4060   C 0  0  0  0  0  0  0  0  0  0  0  0
   10.5150   -4.7580   17.1720   C 0  0  0  0  0  0  0  0  0  0  0  0
   10.2400   -6.1120   17.3280   C 0  0  0  0  0  0  0  0  0  0  0  0
    9.1120   -6.6680   16.7230   C 0  0  0  0  0  0  0  0  0  0  0  0
    8.2660   -5.8630   15.9600   C 0  0  0  0  0  0  0  0  0  0  0  0
  1  2  1  0  0  0  0
  1 27  1  0  0  0  0
  1 28  1  0  0  0  0
  2  3  1  0  0  0  0
  3  5  2  0  0  0  0
  3 18  1  0  0  0  0
  4  5  1  0  0  0  0
  4 20  2  0  0  0  0
  6  7  1  0  0  0  0
  6 21  1  0  0  0  0
  7  8  1  0  0  0  0
  8  9  1  0  0  0  0
  9 22  2  0  0  0  0
  9 23  1  0  0  0  0
 10 12  1  0  0  0  0
 10 23  1  0  0  0  0
 10 24  1  0  0  0  0
 11 24  1  0  0  0  0
 12 26  2  0  0  0  0
 12 27  1  0  0  0  0
 13 14  1  0  0  0  0
 13 30  1  0  0  0  0
 13 33  1  0  0  0  0
 14 31  1  0  0  0  0
 15 32  1  0  0  0  0
 16 32  1  0  0  0  0
 17 33  1  0  0  0  0
 17 36  2  0  0  0  0
 17 40  1  0  0  0  0
 18 19  2  0  0  0  0
 19 20  1  0  0  0  0
 20 21  1  0  0  0  0
 24 25  1  0  0  0  0
 28 29  1  0  0  0  0
 28 30  1  0  0  0  0
 31 32  1  0  0  0  0
 33 34  2  0  0  0  0
 33 35  2  0  0  0  0
 36 37  1  0  0  0  0
 37 38  2  0  0  0  0
 38 39  1  0  0  0  0
 39 40  2  0  0  0  0
A    1
C1
A    2
C2
A    3
C3
A    4
C7
A    5
C8
A    6
C10
A    7
C11
A    8
C12
A    9
C13
A   10
C16
A   11
C19
A   12
C20
A   13
N26
A   14
C27
A   15
C30
A   16
C31
A   17
C35
A   18
C4
A   19
C5
A   20
C6
A   21
O9
A   22
O14
A   23
N15
A   24
C17
A   25
C18
A   26
O21
A   27
N22
A   28
C23
A   29
O24
A   30
C25
A   31
C28
A   32
C29
A   33
S32
A   34
O33
A   35
O34
A   36
C36
A   37
C37
A   38
C38
A   39
C39
A   40
C40
M  END
>  <InstanceId>
1Z1H_HBB_A_201

>  <ChemCompId>
HBB

>  <PdbId>
1Z1H

>  <ChainId>
A

>  <ResidueNumber>
201

>  <InsertionCode>


>  <Model>
1

>  <AltIds>


>  <MissingHeavyAtoms>
0

>  <ObservedFormula>
C30 N3 O6 S

>  <Name>
N-{(2R)-2-HYDROXY-2-[(8S,11S)-8-ISOPROPYL-6,9-DIOXO-2-OXA-7,10-DIAZABICYCLO[11.2.2]HEPTADECA-1(15),13,16-TRIEN-11-YL]ETHYL}-N-ISOPENTYLBENZENESULFONAMIDE

>  <SystematicName>
N-[(2R)-2-[(3S,6S)-5,8-dioxo-6-propan-2-yl-12-oxa-4,7-diazabicyclo[11.2.2]heptadeca-1(16),13(17),14-trien-3-yl]-2-hydroxy-ethyl]-N-(3-methylbutyl)benzenesulfonamide

>  <Synonyms>
N-[2-HYDROXY-2-(8-ISOPROPYL-6,9-DIOXO-2-OXA-7,10-DIAZA-BICYCLO[11.2.2]HEPTADECA-1(16),13(17),14-TRIEN-11-YL)-ETHYL]-N-(3-METHYL-BUTYL)-BENZENESULFONAMIDE, INHIBITOR 3

>  <Type>
NON-POLYMER

>  <Formula>
C30 H43 N3 O6 S

>  <MolecularWeight>
573.744

>  <ModifiedDate>
2011-06-04

>  <Parent>


>  <OneLetterCode>


>  <SubcomponentList>


>  <AmbiguousFlag>
N

>  <InChI>
InChI=1S/C30H43N3O6S/c1-21(2)16-17-33(40(37,38)25-9-6-5-7-10-25)20-27(34)26-19-23-12-14-24(15-13-23)39-18-8-11-28(35)32-29(22(3)4)30(36)31-26/h5-7,9-10,12-15,21-22,26-27,29,34H,8,11,16-20H2,1-4H3,(H,31,36)(H,32,35)/t26-,27+,29-/m0/s1

>  <InChIKey>
WRUVOSYKHXGAQN-GKRYNVPLSA-N

>  <SMILES>
CC(C)CC[N@@](C[C@H]([C@@H]1Cc2ccc(cc2)OCCCC(=O)N[C@H](C(=O)N1)C(C)C)O)S(=O)(=O)c3ccccc3

$$$$
