1Z1H_HBB_A_201


 43 45  0  0  0  0  0  0  0  0999 V2000
    5.5078   -0.3885   14.2045 C   0  0  0  0  0  0  0  0  0  0  0  0
    6.9725    0.0903   14.1222 C   0  0  0  0  0  0  0  0  0  0  0  0
    7.3023    0.7877   12.8190 C   0  0  0  0  0  0  0  0  0  0  0  0
    7.6874    0.7114   10.4271 C   0  0  0  0  0  0  0  0  0  0  0  0
    7.4925    0.0627   11.6347 C   0  0  0  0  0  0  0  0  0  0  0  0
    6.4688    2.9137    8.6712 C   0  0  0  0  0  0  0  0  0  0  0  0
    5.7540    4.1485    9.2676 C   0  0  0  0  0  0  0  0  0  0  0  0
    4.2363    3.9957    9.3753 C   0  0  0  0  0  0  0  0  0  0  0  0
    3.7495    3.4883   10.7214 C   0  0  0  0  0  0  0  0  0  0  0  0
    2.9812    1.5780   12.0634 C   0  0  0  0  0  0  0  0  0  0  0  0
    3.8282    0.3911   12.5645 C   0  0  0  0  0  0  0  0  0  0  0  0
    7.3286    2.1800   12.7519 C   0  0  0  0  0  0  0  0  0  0  0  0
    7.5225    2.8298   11.5524 C   0  0  0  0  0  0  0  0  0  0  0  0
    7.6928    2.0943   10.3909 C   0  0  0  0  0  0  0  0  0  0  0  0
    7.7983    2.7554    9.1845 O   0  0  0  0  0  0  0  0  0  0  0  0
    3.6940    4.2501   11.6940 O   0  0  0  0  0  0  0  0  0  0  0  0
    3.4626    2.1875   10.7984 N   0  0  0  0  0  0  0  0  0  0  0  0
    3.7549   -0.7224   12.0143 O   0  0  0  0  0  0  0  0  0  0  0  0
    4.6119    0.6410   13.6199 N   0  0  0  0  0  0  0  0  0  0  0  0
    3.5722    1.6210   10.0007 H   0  0  0  0  0  0  0  0  0  0  0  0
    4.5938    1.5390   14.0230 H   0  0  0  0  0  0  0  0  0  0  0  0
    0.6209    2.4168   11.7545 C   0  0  0  0  0  0  0  0  0  0  0  0
    1.4919    1.1716   11.9515 C   0  0  0  0  0  0  0  0  0  0  0  0
    1.0362    0.4208   13.1824 C   0  0  0  0  0  0  0  0  0  0  0  0
    5.1237   -0.6787   15.6688 C   0  0  0  0  0  0  0  0  0  0  0  0
    5.2663    0.5075   16.4523 O   0  0  0  0  0  0  0  0  0  0  0  0
    6.1918    0.7973   16.4347 H   0  0  0  0  0  0  0  0  0  0  0  0
    6.0030   -1.7868   16.2683 C   0  0  0  0  0  0  0  0  0  0  0  0
    5.3657   -3.1101   16.2183 N   0  0  0  0  0  0  0  0  0  0  0  0
    3.7741   -3.5424   16.3063 S   0  0  0  0  0  0  0  0  0  0  0  0
    3.1280   -3.2523   15.0239 O   0  0  0  0  0  0  0  0  0  0  0  0
    3.1283   -2.7565   17.3474 O   0  0  0  0  0  0  0  0  0  0  0  0
    3.6006   -5.1680   16.6105 C   0  0  0  0  0  0  0  0  0  0  0  0
    3.4746   -5.6327   17.9250 C   0  0  0  0  0  0  0  0  0  0  0  0
    3.3292   -6.9932   18.1907 C   0  0  0  0  0  0  0  0  0  0  0  0
    3.3181   -7.9062   17.1421 C   0  0  0  0  0  0  0  0  0  0  0  0
    3.4462   -7.4580   15.8267 C   0  0  0  0  0  0  0  0  0  0  0  0
    3.5888   -6.0944   15.5691 C   0  0  0  0  0  0  0  0  0  0  0  0
    6.2389   -3.7453   15.2019 C   0  0  0  0  0  0  0  0  0  0  0  0
    7.4820   -4.1017   15.9998 C   0  0  0  0  0  0  0  0  0  0  0  0
    9.9154   -3.4291   15.9796 C   0  0  0  0  0  0  0  0  0  0  0  0
    9.1446   -5.5363   14.9062 C   0  0  0  0  0  0  0  0  0  0  0  0
    8.7873   -4.0905   15.2031 C   0  0  0  0  0  0  0  0  0  0  0  0
  1  2  1  0  0  0
  1 19  1  0  0  0
  1 25  1  0  0  0
  2  3  1  0  0  0
  3  5  2  0  0  0
  3 12  1  0  0  0
  4  5  1  0  0  0
  4 14  2  0  0  0
  6  7  1  0  0  0
  6 15  1  0  0  0
  7  8  1  0  0  0
  8  9  1  0  0  0
  9 16  2  0  0  0
  9 17  1  0  0  0
 10 11  1  0  0  0
 10 17  1  0  0  0
 10 23  1  0  0  0
 22 23  1  0  0  0
 11 18  2  0  0  0
 11 19  1  0  0  0
 29 39  1  0  0  0
 29 28  1  0  0  0
 29 30  1  0  0  0
 39 40  1  0  0  0
 41 43  1  0  0  0
 42 43  1  0  0  0
 33 30  1  0  0  0
 33 34  2  0  0  0
 33 38  1  0  0  0
 12 13  2  0  0  0
 13 14  1  0  0  0
 14 15  1  0  0  0
 23 24  1  0  0  0
 25 26  1  0  0  0
 25 28  1  0  0  0
 40 43  1  0  0  0
 30 31  2  0  0  0
 30 32  2  0  0  0
 34 35  1  0  0  0
 35 36  2  0  0  0
 36 37  1  0  0  0
 37 38  2  0  0  0
 17 20  1  0  0  0
 19 21  1  0  0  0
 26 27  1  0  0  0
M  END
> <minimizedAffinity>
-11.18041

$$$$
1Z1H_HBB_A_201


 43 45  0  0  0  0  0  0  0  0999 V2000
    5.1221   -2.6066   15.7830 C   0  0  0  0  0  0  0  0  0  0  0  0
    3.7667   -2.9408   16.4408 C   0  0  0  0  0  0  0  0  0  0  0  0
    3.5677   -4.4223   16.6835 C   0  0  0  0  0  0  0  0  0  0  0  0
    3.1765   -6.6614   15.8416 C   0  0  0  0  0  0  0  0  0  0  0  0
    3.2515   -5.2947   15.6330 C   0  0  0  0  0  0  0  0  0  0  0  0
    4.7703   -8.9868   17.0542 C   0  0  0  0  0  0  0  0  0  0  0  0
    5.6941   -8.8074   18.2814 C   0  0  0  0  0  0  0  0  0  0  0  0
    7.1599   -8.5584   17.9242 C   0  0  0  0  0  0  0  0  0  0  0  0
    7.5473   -7.0921   17.8454 C   0  0  0  0  0  0  0  0  0  0  0  0
    7.9608   -5.1295   16.4248 C   0  0  0  0  0  0  0  0  0  0  0  0
    6.9150   -4.3055   15.6475 C   0  0  0  0  0  0  0  0  0  0  0  0
    3.7908   -4.9654   17.9480 C   0  0  0  0  0  0  0  0  0  0  0  0
    3.7169   -6.3249   18.1602 C   0  0  0  0  0  0  0  0  0  0  0  0
    3.4185   -7.1710   17.1047 C   0  0  0  0  0  0  0  0  0  0  0  0
    3.4336   -8.5353   17.3102 O   0  0  0  0  0  0  0  0  0  0  0  0
    7.7376   -6.4391   18.8784 O   0  0  0  0  0  0  0  0  0  0  0  0
    7.5970   -6.5547   16.6252 N   0  0  0  0  0  0  0  0  0  0  0  0
    6.7883   -4.4335   14.4164 O   0  0  0  0  0  0  0  0  0  0  0  0
    6.1880   -3.4518   16.3779 N   0  0  0  0  0  0  0  0  0  0  0  0
    7.3882   -7.1142   15.8425 H   0  0  0  0  0  0  0  0  0  0  0  0
    6.3662   -3.3818   17.3436 H   0  0  0  0  0  0  0  0  0  0  0  0
   10.4089   -5.7139   16.6138 C   0  0  0  0  0  0  0  0  0  0  0  0
    9.3535   -5.0008   15.7619 C   0  0  0  0  0  0  0  0  0  0  0  0
    9.7406   -3.5504   15.5803 C   0  0  0  0  0  0  0  0  0  0  0  0
    5.4473   -1.1108   15.9630 C   0  0  0  0  0  0  0  0  0  0  0  0
    5.2079   -0.7214   17.3167 O   0  0  0  0  0  0  0  0  0  0  0  0
    4.2712   -0.8546   17.5306 H   0  0  0  0  0  0  0  0  0  0  0  0
    4.5952   -0.2372   15.0295 C   0  0  0  0  0  0  0  0  0  0  0  0
    4.5451   -0.7529   13.6542 N   0  0  0  0  0  0  0  0  0  0  0  0
    3.2987   -1.4179   12.7987 S   0  0  0  0  0  0  0  0  0  0  0  0
    2.6207   -2.4112   13.6352 O   0  0  0  0  0  0  0  0  0  0  0  0
    3.8362   -2.0824   11.6206 O   0  0  0  0  0  0  0  0  0  0  0  0
    2.1796   -0.2687   12.3603 C   0  0  0  0  0  0  0  0  0  0  0  0
    1.1936    0.1410   13.2657 C   0  0  0  0  0  0  0  0  0  0  0  0
    0.2508    1.1032   12.9079 C   0  0  0  0  0  0  0  0  0  0  0  0
    0.2786    1.6598   11.6341 C   0  0  0  0  0  0  0  0  0  0  0  0
    1.2536    1.2588   10.7197 C   0  0  0  0  0  0  0  0  0  0  0  0
    2.1951    0.2970   11.0864 C   0  0  0  0  0  0  0  0  0  0  0  0
    5.4242    0.2484   13.0034 C   0  0  0  0  0  0  0  0  0  0  0  0
    6.5897   -0.5938   12.5123 C   0  0  0  0  0  0  0  0  0  0  0  0
    8.4876    0.1015   10.9995 C   0  0  0  0  0  0  0  0  0  0  0  0
    7.6725    1.5857   12.8213 C   0  0  0  0  0  0  0  0  0  0  0  0
    7.9248    0.1453   12.4116 C   0  0  0  0  0  0  0  0  0  0  0  0
  1  2  1  0  0  0
  1 19  1  0  0  0
  1 25  1  0  0  0
  2  3  1  0  0  0
  3  5  2  0  0  0
  3 12  1  0  0  0
  4  5  1  0  0  0
  4 14  2  0  0  0
  6  7  1  0  0  0
  6 15  1  0  0  0
  7  8  1  0  0  0
  8  9  1  0  0  0
  9 16  2  0  0  0
  9 17  1  0  0  0
 10 11  1  0  0  0
 10 17  1  0  0  0
 10 23  1  0  0  0
 22 23  1  0  0  0
 11 18  2  0  0  0
 11 19  1  0  0  0
 29 39  1  0  0  0
 29 28  1  0  0  0
 29 30  1  0  0  0
 39 40  1  0  0  0
 41 43  1  0  0  0
 42 43  1  0  0  0
 33 30  1  0  0  0
 33 34  2  0  0  0
 33 38  1  0  0  0
 12 13  2  0  0  0
 13 14  1  0  0  0
 14 15  1  0  0  0
 23 24  1  0  0  0
 25 26  1  0  0  0
 25 28  1  0  0  0
 40 43  1  0  0  0
 30 31  2  0  0  0
 30 32  2  0  0  0
 34 35  1  0  0  0
 35 36  2  0  0  0
 36 37  1  0  0  0
 37 38  2  0  0  0
 17 20  1  0  0  0
 19 21  1  0  0  0
 26 27  1  0  0  0
M  END
> <minimizedAffinity>
-11.07881

$$$$
1Z1H_HBB_A_201


 43 45  0  0  0  0  0  0  0  0999 V2000
    5.4983   -0.2347   14.1312 C   0  0  0  0  0  0  0  0  0  0  0  0
    6.9668    0.2330   14.0508 C   0  0  0  0  0  0  0  0  0  0  0  0
    7.3121    0.8993   12.7355 C   0  0  0  0  0  0  0  0  0  0  0  0
    7.7169    0.7677   10.3493 C   0  0  0  0  0  0  0  0  0  0  0  0
    7.5077    0.1470   11.5692 C   0  0  0  0  0  0  0  0  0  0  0  0
    6.5275    2.9381    8.5347 C   0  0  0  0  0  0  0  0  0  0  0  0
    5.8157    4.1903    9.0976 C   0  0  0  0  0  0  0  0  0  0  0  0
    4.2962    4.0495    9.1955 C   0  0  0  0  0  0  0  0  0  0  0  0
    3.7948    3.5751   10.5482 C   0  0  0  0  0  0  0  0  0  0  0  0
    3.0028    1.6998   11.9255 C   0  0  0  0  0  0  0  0  0  0  0  0
    3.8378    0.5190   12.4599 C   0  0  0  0  0  0  0  0  0  0  0  0
    7.3480    2.2896   12.6379 C   0  0  0  0  0  0  0  0  0  0  0  0
    7.5563    2.9114   11.4260 C   0  0  0  0  0  0  0  0  0  0  0  0
    7.7316    2.1494   10.2826 C   0  0  0  0  0  0  0  0  0  0  0  0
    7.8517    2.7829    9.0628 O   0  0  0  0  0  0  0  0  0  0  0  0
    3.7360    4.3586   11.5033 O   0  0  0  0  0  0  0  0  0  0  0  0
    3.4988    2.2781   10.6515 N   0  0  0  0  0  0  0  0  0  0  0  0
    3.7619   -0.6060   11.9338 O   0  0  0  0  0  0  0  0  0  0  0  0
    4.6141    0.7872   13.5163 N   0  0  0  0  0  0  0  0  0  0  0  0
    3.6115    1.6934    9.8675 H   0  0  0  0  0  0  0  0  0  0  0  0
    4.5984    1.6940   13.8992 H   0  0  0  0  0  0  0  0  0  0  0  0
    1.2041    0.8259   10.3856 C   0  0  0  0  0  0  0  0  0  0  0  0
    1.5119    1.3004   11.8097 C   0  0  0  0  0  0  0  0  0  0  0  0
    0.6067    2.4574   12.1680 C   0  0  0  0  0  0  0  0  0  0  0  0
    5.1000   -0.4900   15.5981 C   0  0  0  0  0  0  0  0  0  0  0  0
    5.2734    0.7042   16.3631 O   0  0  0  0  0  0  0  0  0  0  0  0
    6.2070    0.9669   16.3451 H   0  0  0  0  0  0  0  0  0  0  0  0
    5.9445   -1.6131   16.2194 C   0  0  0  0  0  0  0  0  0  0  0  0
    5.5636   -2.9473   15.7352 N   0  0  0  0  0  0  0  0  0  0  0  0
    6.4942   -4.2228   15.2507 S   0  0  0  0  0  0  0  0  0  0  0  0
    6.7029   -4.1400   13.8030 O   0  0  0  0  0  0  0  0  0  0  0  0
    5.7932   -5.4615   15.5553 O   0  0  0  0  0  0  0  0  0  0  0  0
    7.9862   -4.2015   15.9847 C   0  0  0  0  0  0  0  0  0  0  0  0
    8.9866   -3.3344   15.5298 C   0  0  0  0  0  0  0  0  0  0  0  0
   10.2406   -3.3091   16.1379 C   0  0  0  0  0  0  0  0  0  0  0  0
   10.5106   -4.1602   17.2037 C   0  0  0  0  0  0  0  0  0  0  0  0
    9.5241   -5.0325   17.6659 C   0  0  0  0  0  0  0  0  0  0  0  0
    8.2709   -5.0499   17.0535 C   0  0  0  0  0  0  0  0  0  0  0  0
    4.4008   -3.1886   16.6233 C   0  0  0  0  0  0  0  0  0  0  0  0
    3.2474   -3.3169   15.6424 C   0  0  0  0  0  0  0  0  0  0  0  0
    2.3954   -5.4645   14.6246 C   0  0  0  0  0  0  0  0  0  0  0  0
    2.8933   -5.2909   17.0553 C   0  0  0  0  0  0  0  0  0  0  0  0
    2.3648   -4.5502   15.8395 C   0  0  0  0  0  0  0  0  0  0  0  0
  1  2  1  0  0  0
  1 19  1  0  0  0
  1 25  1  0  0  0
  2  3  1  0  0  0
  3  5  2  0  0  0
  3 12  1  0  0  0
  4  5  1  0  0  0
  4 14  2  0  0  0
  6  7  1  0  0  0
  6 15  1  0  0  0
  7  8  1  0  0  0
  8  9  1  0  0  0
  9 16  2  0  0  0
  9 17  1  0  0  0
 10 11  1  0  0  0
 10 17  1  0  0  0
 10 23  1  0  0  0
 22 23  1  0  0  0
 11 18  2  0  0  0
 11 19  1  0  0  0
 29 39  1  0  0  0
 29 28  1  0  0  0
 29 30  1  0  0  0
 39 40  1  0  0  0
 41 43  1  0  0  0
 42 43  1  0  0  0
 33 30  1  0  0  0
 33 34  2  0  0  0
 33 38  1  0  0  0
 12 13  2  0  0  0
 13 14  1  0  0  0
 14 15  1  0  0  0
 23 24  1  0  0  0
 25 26  1  0  0  0
 25 28  1  0  0  0
 40 43  1  0  0  0
 30 31  2  0  0  0
 30 32  2  0  0  0
 34 35  1  0  0  0
 35 36  2  0  0  0
 36 37  1  0  0  0
 37 38  2  0  0  0
 17 20  1  0  0  0
 19 21  1  0  0  0
 26 27  1  0  0  0
M  END
> <minimizedAffinity>
-10.98669

$$$$
1Z1H_HBB_A_201


 43 45  0  0  0  0  0  0  0  0999 V2000
    4.9520   -1.7881   14.9492 C   0  0  0  0  0  0  0  0  0  0  0  0
    3.5324   -1.9976   15.5169 C   0  0  0  0  0  0  0  0  0  0  0  0
    3.2241   -3.4446   15.8401 C   0  0  0  0  0  0  0  0  0  0  0  0
    2.7601   -5.7119   15.1192 C   0  0  0  0  0  0  0  0  0  0  0  0
    2.9353   -4.3697   14.8275 C   0  0  0  0  0  0  0  0  0  0  0  0
    4.1099   -8.0324   16.6064 C   0  0  0  0  0  0  0  0  0  0  0  0
    4.9470   -7.8193   17.8891 C   0  0  0  0  0  0  0  0  0  0  0  0
    6.4483   -7.6795   17.6348 C   0  0  0  0  0  0  0  0  0  0  0  0
    6.9307   -6.2467   17.4908 C   0  0  0  0  0  0  0  0  0  0  0  0
    7.5719   -4.4160   15.9814 C   0  0  0  0  0  0  0  0  0  0  0  0
    6.6413   -3.5910   15.0702 C   0  0  0  0  0  0  0  0  0  0  0  0
    3.3163   -3.9089   17.1515 C   0  0  0  0  0  0  0  0  0  0  0  0
    3.1424   -5.2436   17.4463 C   0  0  0  0  0  0  0  0  0  0  0  0
    2.8733   -6.1439   16.4285 C   0  0  0  0  0  0  0  0  0  0  0  0
    2.7881   -7.4889   16.7241 O   0  0  0  0  0  0  0  0  0  0  0  0
    7.0820   -5.5343   18.4903 O   0  0  0  0  0  0  0  0  0  0  0  0
    7.1063   -5.8005   16.2456 N   0  0  0  0  0  0  0  0  0  0  0  0
    6.6009   -3.7983   13.8440 O   0  0  0  0  0  0  0  0  0  0  0  0
    5.9152   -2.6481   15.6820 N   0  0  0  0  0  0  0  0  0  0  0  0
    6.9234   -6.4012   15.4873 H   0  0  0  0  0  0  0  0  0  0  0  0
    6.0234   -2.5202   16.6522 H   0  0  0  0  0  0  0  0  0  0  0  0
    9.2959   -5.7248   14.6834 C   0  0  0  0  0  0  0  0  0  0  0  0
    9.0163   -4.4134   15.4252 C   0  0  0  0  0  0  0  0  0  0  0  0
   10.0285   -4.2292   16.5333 C   0  0  0  0  0  0  0  0  0  0  0  0
    5.3546   -0.3041   15.0556 C   0  0  0  0  0  0  0  0  0  0  0  0
    5.2036    0.1445   16.4037 O   0  0  0  0  0  0  0  0  0  0  0  0
    4.2741    0.0642   16.6690 H   0  0  0  0  0  0  0  0  0  0  0  0
    4.4966    0.5754   14.1332 C   0  0  0  0  0  0  0  0  0  0  0  0
    5.1211    0.8067   12.8231 N   0  0  0  0  0  0  0  0  0  0  0  0
    6.6970    0.6820   12.3448 S   0  0  0  0  0  0  0  0  0  0  0  0
    6.9131   -0.6390   11.7495 O   0  0  0  0  0  0  0  0  0  0  0  0
    7.5567    0.8194   13.5112 O   0  0  0  0  0  0  0  0  0  0  0  0
    7.0785    1.8273   11.2010 C   0  0  0  0  0  0  0  0  0  0  0  0
    7.3682    3.1420   11.5849 C   0  0  0  0  0  0  0  0  0  0  0  0
    7.6887    4.1095   10.6341 C   0  0  0  0  0  0  0  0  0  0  0  0
    7.7131    3.7732    9.2851 C   0  0  0  0  0  0  0  0  0  0  0  0
    7.4231    2.4674    8.8873 C   0  0  0  0  0  0  0  0  0  0  0  0
    7.1057    1.5045    9.8453 C   0  0  0  0  0  0  0  0  0  0  0  0
    4.0506    0.2524   11.9595 C   0  0  0  0  0  0  0  0  0  0  0  0
    2.8678    1.1558   12.2657 C   0  0  0  0  0  0  0  0  0  0  0  0
    0.6050    0.4379   13.1249 C   0  0  0  0  0  0  0  0  0  0  0  0
    0.8621    1.5226   10.9015 C   0  0  0  0  0  0  0  0  0  0  0  0
    1.4999    0.5759   11.9031 C   0  0  0  0  0  0  0  0  0  0  0  0
  1  2  1  0  0  0
  1 19  1  0  0  0
  1 25  1  0  0  0
  2  3  1  0  0  0
  3  5  2  0  0  0
  3 12  1  0  0  0
  4  5  1  0  0  0
  4 14  2  0  0  0
  6  7  1  0  0  0
  6 15  1  0  0  0
  7  8  1  0  0  0
  8  9  1  0  0  0
  9 16  2  0  0  0
  9 17  1  0  0  0
 10 11  1  0  0  0
 10 17  1  0  0  0
 10 23  1  0  0  0
 22 23  1  0  0  0
 11 18  2  0  0  0
 11 19  1  0  0  0
 29 39  1  0  0  0
 29 28  1  0  0  0
 29 30  1  0  0  0
 39 40  1  0  0  0
 41 43  1  0  0  0
 42 43  1  0  0  0
 33 30  1  0  0  0
 33 34  2  0  0  0
 33 38  1  0  0  0
 12 13  2  0  0  0
 13 14  1  0  0  0
 14 15  1  0  0  0
 23 24  1  0  0  0
 25 26  1  0  0  0
 25 28  1  0  0  0
 40 43  1  0  0  0
 30 31  2  0  0  0
 30 32  2  0  0  0
 34 35  1  0  0  0
 35 36  2  0  0  0
 36 37  1  0  0  0
 37 38  2  0  0  0
 17 20  1  0  0  0
 19 21  1  0  0  0
 26 27  1  0  0  0
M  END
> <minimizedAffinity>
-10.94862

$$$$
1Z1H_HBB_A_201


 43 45  0  0  0  0  0  0  0  0999 V2000
    5.0666   -1.5790   15.1285 C   0  0  0  0  0  0  0  0  0  0  0  0
    3.6209   -1.7873   15.6267 C   0  0  0  0  0  0  0  0  0  0  0  0
    3.2731   -3.2418   15.8649 C   0  0  0  0  0  0  0  0  0  0  0  0
    2.7985   -5.4613   15.0143 C   0  0  0  0  0  0  0  0  0  0  0  0
    3.0101   -4.1104   14.7968 C   0  0  0  0  0  0  0  0  0  0  0  0
    4.0426   -7.8783   16.4385 C   0  0  0  0  0  0  0  0  0  0  0  0
    4.8292   -7.7450   17.7633 C   0  0  0  0  0  0  0  0  0  0  0  0
    6.3421   -7.6233   17.5777 C   0  0  0  0  0  0  0  0  0  0  0  0
    6.8561   -6.1953   17.5246 C   0  0  0  0  0  0  0  0  0  0  0  0
    7.5929   -4.3065   16.1352 C   0  0  0  0  0  0  0  0  0  0  0  0
    6.7162   -3.4194   15.2288 C   0  0  0  0  0  0  0  0  0  0  0  0
    3.3020   -3.7711   17.1544 C   0  0  0  0  0  0  0  0  0  0  0  0
    3.0917   -5.1149   17.3754 C   0  0  0  0  0  0  0  0  0  0  0  0
    2.8491   -5.9589   16.3041 C   0  0  0  0  0  0  0  0  0  0  0  0
    2.7272   -7.3147   16.5290 O   0  0  0  0  0  0  0  0  0  0  0  0
    6.9784   -5.5356   18.5635 O   0  0  0  0  0  0  0  0  0  0  0  0
    7.0915   -5.6926   16.3113 N   0  0  0  0  0  0  0  0  0  0  0  0
    6.7233   -3.5659   13.9932 O   0  0  0  0  0  0  0  0  0  0  0  0
    5.9825   -2.4930   15.8564 N   0  0  0  0  0  0  0  0  0  0  0  0
    6.9296   -6.2518   15.5174 H   0  0  0  0  0  0  0  0  0  0  0  0
    6.0524   -2.4148   16.8353 H   0  0  0  0  0  0  0  0  0  0  0  0
    9.8339   -5.4571   16.2891 C   0  0  0  0  0  0  0  0  0  0  0  0
    9.0590   -4.3060   15.6392 C   0  0  0  0  0  0  0  0  0  0  0  0
    9.7410   -2.9930   15.9506 C   0  0  0  0  0  0  0  0  0  0  0  0
    5.4913   -0.1104   15.3245 C   0  0  0  0  0  0  0  0  0  0  0  0
    4.3363    0.7061   15.5267 O   0  0  0  0  0  0  0  0  0  0  0  0
    3.7658    0.6588   14.7437 H   0  0  0  0  0  0  0  0  0  0  0  0
    6.2714    0.4130   14.1088 C   0  0  0  0  0  0  0  0  0  0  0  0
    5.4958    0.3472   12.8622 N   0  0  0  0  0  0  0  0  0  0  0  0
    4.6545    1.5169   12.0548 S   0  0  0  0  0  0  0  0  0  0  0  0
    4.9136    1.3874   10.6188 O   0  0  0  0  0  0  0  0  0  0  0  0
    5.1160    2.8233   12.5007 O   0  0  0  0  0  0  0  0  0  0  0  0
    3.0161    1.3640   12.2949 C   0  0  0  0  0  0  0  0  0  0  0  0
    2.4880    0.1908   12.8467 C   0  0  0  0  0  0  0  0  0  0  0  0
    1.1162    0.0525   13.0516 C   0  0  0  0  0  0  0  0  0  0  0  0
    0.2555    1.0852   12.6966 C   0  0  0  0  0  0  0  0  0  0  0  0
    0.7673    2.2592   12.1424 C   0  0  0  0  0  0  0  0  0  0  0  0
    2.1416    2.3907   11.9429 C   0  0  0  0  0  0  0  0  0  0  0  0
    6.3655   -0.5823   12.1016 C   0  0  0  0  0  0  0  0  0  0  0  0
    7.7600   -0.1961   12.5655 C   0  0  0  0  0  0  0  0  0  0  0  0
    8.1547    0.3008   10.1218 C   0  0  0  0  0  0  0  0  0  0  0  0
    8.3692    2.0716   11.8552 C   0  0  0  0  0  0  0  0  0  0  0  0
    8.5822    0.5992   11.5505 C   0  0  0  0  0  0  0  0  0  0  0  0
  1  2  1  0  0  0
  1 19  1  0  0  0
  1 25  1  0  0  0
  2  3  1  0  0  0
  3  5  2  0  0  0
  3 12  1  0  0  0
  4  5  1  0  0  0
  4 14  2  0  0  0
  6  7  1  0  0  0
  6 15  1  0  0  0
  7  8  1  0  0  0
  8  9  1  0  0  0
  9 16  2  0  0  0
  9 17  1  0  0  0
 10 11  1  0  0  0
 10 17  1  0  0  0
 10 23  1  0  0  0
 22 23  1  0  0  0
 11 18  2  0  0  0
 11 19  1  0  0  0
 29 39  1  0  0  0
 29 28  1  0  0  0
 29 30  1  0  0  0
 39 40  1  0  0  0
 41 43  1  0  0  0
 42 43  1  0  0  0
 33 30  1  0  0  0
 33 34  2  0  0  0
 33 38  1  0  0  0
 12 13  2  0  0  0
 13 14  1  0  0  0
 14 15  1  0  0  0
 23 24  1  0  0  0
 25 26  1  0  0  0
 25 28  1  0  0  0
 40 43  1  0  0  0
 30 31  2  0  0  0
 30 32  2  0  0  0
 34 35  1  0  0  0
 35 36  2  0  0  0
 36 37  1  0  0  0
 37 38  2  0  0  0
 17 20  1  0  0  0
 19 21  1  0  0  0
 26 27  1  0  0  0
M  END
> <minimizedAffinity>
-10.06011

$$$$
1Z1H_HBB_A_201


 43 45  0  0  0  0  0  0  0  0999 V2000
    6.4867    0.4533   12.6069 C   0  0  0  0  0  0  0  0  0  0  0  0
    7.6201    1.3493   12.0646 C   0  0  0  0  0  0  0  0  0  0  0  0
    7.2465    2.0851   10.7948 C   0  0  0  0  0  0  0  0  0  0  0  0
    6.7567    2.0764    8.4209 C   0  0  0  0  0  0  0  0  0  0  0  0
    7.2022    1.4255    9.5589 C   0  0  0  0  0  0  0  0  0  0  0  0
    4.4112    3.7704    7.3977 C   0  0  0  0  0  0  0  0  0  0  0  0
    3.6324    4.7452    8.3114 C   0  0  0  0  0  0  0  0  0  0  0  0
    2.3668    4.1446    8.9244 C   0  0  0  0  0  0  0  0  0  0  0  0
    2.5615    3.5436   10.3054 C   0  0  0  0  0  0  0  0  0  0  0  0
    2.9099    1.5202   11.6565 C   0  0  0  0  0  0  0  0  0  0  0  0
    4.1840    0.6549   11.7262 C   0  0  0  0  0  0  0  0  0  0  0  0
    6.8437    3.4189   10.8459 C   0  0  0  0  0  0  0  0  0  0  0  0
    6.4000    4.0706    9.7157 C   0  0  0  0  0  0  0  0  0  0  0  0
    6.3491    3.3955    8.5072 C   0  0  0  0  0  0  0  0  0  0  0  0
    5.8212    4.0313    7.4023 O   0  0  0  0  0  0  0  0  0  0  0  0
    2.6393    4.2742   11.3002 O   0  0  0  0  0  0  0  0  0  0  0  0
    2.7098    2.2187   10.3621 N   0  0  0  0  0  0  0  0  0  0  0  0
    4.2442   -0.4408   11.1396 O   0  0  0  0  0  0  0  0  0  0  0  0
    5.1848    1.1521   12.4622 N   0  0  0  0  0  0  0  0  0  0  0  0
    2.6862    1.6943    9.5292 H   0  0  0  0  0  0  0  0  0  0  0  0
    5.0531    2.0115   12.9241 H   0  0  0  0  0  0  0  0  0  0  0  0
    0.3871    1.4625   11.7054 C   0  0  0  0  0  0  0  0  0  0  0  0
    1.6644    0.6817   12.0323 C   0  0  0  0  0  0  0  0  0  0  0  0
    1.6752    0.3139   13.4989 C   0  0  0  0  0  0  0  0  0  0  0  0
    6.7521    0.0928   14.0818 C   0  0  0  0  0  0  0  0  0  0  0  0
    7.6774    1.0217   14.6496 O   0  0  0  0  0  0  0  0  0  0  0  0
    8.5195    0.9728   14.1708 H   0  0  0  0  0  0  0  0  0  0  0  0
    7.3189   -1.3288   14.2166 C   0  0  0  0  0  0  0  0  0  0  0  0
    6.3555   -2.2739   14.7985 N   0  0  0  0  0  0  0  0  0  0  0  0
    4.9011   -2.0114   15.5356 S   0  0  0  0  0  0  0  0  0  0  0  0
    4.1903   -0.9454   14.8252 O   0  0  0  0  0  0  0  0  0  0  0  0
    5.1369   -1.5869   16.9077 O   0  0  0  0  0  0  0  0  0  0  0  0
    3.9470   -3.3729   15.5022 C   0  0  0  0  0  0  0  0  0  0  0  0
    4.0227   -4.3159   16.5341 C   0  0  0  0  0  0  0  0  0  0  0  0
    3.2277   -5.4606   16.5153 C   0  0  0  0  0  0  0  0  0  0  0  0
    2.3536   -5.6793   15.4564 C   0  0  0  0  0  0  0  0  0  0  0  0
    2.2698   -4.7497   14.4189 C   0  0  0  0  0  0  0  0  0  0  0  0
    3.0671   -3.6054   14.4464 C   0  0  0  0  0  0  0  0  0  0  0  0
    6.4837   -3.3692   13.8071 C   0  0  0  0  0  0  0  0  0  0  0  0
    7.1696   -4.4669   14.6032 C   0  0  0  0  0  0  0  0  0  0  0  0
    7.6907   -4.7088   17.0616 C   0  0  0  0  0  0  0  0  0  0  0  0
    9.4784   -4.2341   15.3988 C   0  0  0  0  0  0  0  0  0  0  0  0
    8.0284   -3.9790   15.7708 C   0  0  0  0  0  0  0  0  0  0  0  0
  1  2  1  0  0  0
  1 19  1  0  0  0
  1 25  1  0  0  0
  2  3  1  0  0  0
  3  5  2  0  0  0
  3 12  1  0  0  0
  4  5  1  0  0  0
  4 14  2  0  0  0
  6  7  1  0  0  0
  6 15  1  0  0  0
  7  8  1  0  0  0
  8  9  1  0  0  0
  9 16  2  0  0  0
  9 17  1  0  0  0
 10 11  1  0  0  0
 10 17  1  0  0  0
 10 23  1  0  0  0
 22 23  1  0  0  0
 11 18  2  0  0  0
 11 19  1  0  0  0
 29 39  1  0  0  0
 29 28  1  0  0  0
 29 30  1  0  0  0
 39 40  1  0  0  0
 41 43  1  0  0  0
 42 43  1  0  0  0
 33 30  1  0  0  0
 33 34  2  0  0  0
 33 38  1  0  0  0
 12 13  2  0  0  0
 13 14  1  0  0  0
 14 15  1  0  0  0
 23 24  1  0  0  0
 25 26  1  0  0  0
 25 28  1  0  0  0
 40 43  1  0  0  0
 30 31  2  0  0  0
 30 32  2  0  0  0
 34 35  1  0  0  0
 35 36  2  0  0  0
 36 37  1  0  0  0
 37 38  2  0  0  0
 17 20  1  0  0  0
 19 21  1  0  0  0
 26 27  1  0  0  0
M  END
> <minimizedAffinity>
-9.72092

$$$$
1Z1H_HBB_A_201


 43 45  0  0  0  0  0  0  0  0999 V2000
    4.4332   -1.4986   13.2768 C   0  0  0  0  0  0  0  0  0  0  0  0
    3.0841   -1.9141   12.6533 C   0  0  0  0  0  0  0  0  0  0  0  0
    2.2369   -0.7364   12.2189 C   0  0  0  0  0  0  0  0  0  0  0  0
    0.8581    1.1816   12.7624 C   0  0  0  0  0  0  0  0  0  0  0  0
    1.5430    0.0438   13.1540 C   0  0  0  0  0  0  0  0  0  0  0  0
    1.2385    3.7681   11.1550 C   0  0  0  0  0  0  0  0  0  0  0  0
    2.1611    3.8458    9.9163 C   0  0  0  0  0  0  0  0  0  0  0  0
    3.5743    4.3415   10.2248 C   0  0  0  0  0  0  0  0  0  0  0  0
    4.5848    3.2381   10.4849 C   0  0  0  0  0  0  0  0  0  0  0  0
    5.8240    1.9082   12.1392 C   0  0  0  0  0  0  0  0  0  0  0  0
    5.2555    0.8258   13.0785 C   0  0  0  0  0  0  0  0  0  0  0  0
    2.2077   -0.3448   10.8812 C   0  0  0  0  0  0  0  0  0  0  0  0
    1.5270    0.7866   10.4870 C   0  0  0  0  0  0  0  0  0  0  0  0
    0.8609    1.5524   11.4296 C   0  0  0  0  0  0  0  0  0  0  0  0
    0.2571    2.7292   11.0366 O   0  0  0  0  0  0  0  0  0  0  0  0
    5.0665    2.5967    9.5436 O   0  0  0  0  0  0  0  0  0  0  0  0
    4.8550    2.9682   11.7633 N   0  0  0  0  0  0  0  0  0  0  0  0
    5.0660    1.0634   14.2851 O   0  0  0  0  0  0  0  0  0  0  0  0
    5.0071   -0.3616   12.5139 N   0  0  0  0  0  0  0  0  0  0  0  0
    4.4031    3.4820   12.4711 H   0  0  0  0  0  0  0  0  0  0  0  0
    5.2121   -0.4856   11.5590 H   0  0  0  0  0  0  0  0  0  0  0  0
    7.5876    3.6937   11.8714 C   0  0  0  0  0  0  0  0  0  0  0  0
    7.1128    2.5220   12.7373 C   0  0  0  0  0  0  0  0  0  0  0  0
    8.2119    1.4890   12.8436 C   0  0  0  0  0  0  0  0  0  0  0  0
    5.4055   -2.6945   13.2885 C   0  0  0  0  0  0  0  0  0  0  0  0
    5.5209   -3.2392   11.9726 O   0  0  0  0  0  0  0  0  0  0  0  0
    4.6537   -3.5581   11.6775 H   0  0  0  0  0  0  0  0  0  0  0  0
    4.9272   -3.7945   14.2485 C   0  0  0  0  0  0  0  0  0  0  0  0
    5.9837   -4.2540   15.1609 N   0  0  0  0  0  0  0  0  0  0  0  0
    7.2056   -3.4227   15.8985 S   0  0  0  0  0  0  0  0  0  0  0  0
    6.6298   -2.4785   16.8592 O   0  0  0  0  0  0  0  0  0  0  0  0
    7.9449   -2.6770   14.8906 O   0  0  0  0  0  0  0  0  0  0  0  0
    8.2211   -4.4436   16.7301 C   0  0  0  0  0  0  0  0  0  0  0  0
    7.7170   -5.2834   17.7303 C   0  0  0  0  0  0  0  0  0  0  0  0
    8.5598   -6.1424   18.4336 C   0  0  0  0  0  0  0  0  0  0  0  0
    9.9208   -6.1631   18.1495 C   0  0  0  0  0  0  0  0  0  0  0  0
   10.4382   -5.3291   17.1574 C   0  0  0  0  0  0  0  0  0  0  0  0
    9.5876   -4.4741   16.4565 C   0  0  0  0  0  0  0  0  0  0  0  0
    5.1981   -5.2406   15.9409 C   0  0  0  0  0  0  0  0  0  0  0  0
    3.7676   -4.7704   15.7371 C   0  0  0  0  0  0  0  0  0  0  0  0
    3.5222   -5.4425   18.1583 C   0  0  0  0  0  0  0  0  0  0  0  0
    2.9759   -3.1406   17.3908 C   0  0  0  0  0  0  0  0  0  0  0  0
    2.9495   -4.6128   17.0196 C   0  0  0  0  0  0  0  0  0  0  0  0
  1  2  1  0  0  0
  1 19  1  0  0  0
  1 25  1  0  0  0
  2  3  1  0  0  0
  3  5  2  0  0  0
  3 12  1  0  0  0
  4  5  1  0  0  0
  4 14  2  0  0  0
  6  7  1  0  0  0
  6 15  1  0  0  0
  7  8  1  0  0  0
  8  9  1  0  0  0
  9 16  2  0  0  0
  9 17  1  0  0  0
 10 11  1  0  0  0
 10 17  1  0  0  0
 10 23  1  0  0  0
 22 23  1  0  0  0
 11 18  2  0  0  0
 11 19  1  0  0  0
 29 39  1  0  0  0
 29 28  1  0  0  0
 29 30  1  0  0  0
 39 40  1  0  0  0
 41 43  1  0  0  0
 42 43  1  0  0  0
 33 30  1  0  0  0
 33 34  2  0  0  0
 33 38  1  0  0  0
 12 13  2  0  0  0
 13 14  1  0  0  0
 14 15  1  0  0  0
 23 24  1  0  0  0
 25 26  1  0  0  0
 25 28  1  0  0  0
 40 43  1  0  0  0
 30 31  2  0  0  0
 30 32  2  0  0  0
 34 35  1  0  0  0
 35 36  2  0  0  0
 36 37  1  0  0  0
 37 38  2  0  0  0
 17 20  1  0  0  0
 19 21  1  0  0  0
 26 27  1  0  0  0
M  END
> <minimizedAffinity>
-9.58358

$$$$
1Z1H_HBB_A_201


 43 45  0  0  0  0  0  0  0  0999 V2000
    4.8607   -1.6679   13.2587 C   0  0  0  0  0  0  0  0  0  0  0  0
    3.5351   -2.1649   12.6446 C   0  0  0  0  0  0  0  0  0  0  0  0
    2.5737   -1.0444   12.3077 C   0  0  0  0  0  0  0  0  0  0  0  0
    1.0476    0.7041   13.0071 C   0  0  0  0  0  0  0  0  0  0  0  0
    1.8426   -0.3889   13.3079 C   0  0  0  0  0  0  0  0  0  0  0  0
    1.1468    3.4077   11.5584 C   0  0  0  0  0  0  0  0  0  0  0  0
    2.0199    3.6443   10.3042 C   0  0  0  0  0  0  0  0  0  0  0  0
    3.3925    4.2461   10.6075 C   0  0  0  0  0  0  0  0  0  0  0  0
    4.5045    3.2248   10.7710 C   0  0  0  0  0  0  0  0  0  0  0  0
    5.9076    1.9140   12.3053 C   0  0  0  0  0  0  0  0  0  0  0  0
    5.4669    0.7292   13.1879 C   0  0  0  0  0  0  0  0  0  0  0  0
    2.4682   -0.5761   10.9988 C   0  0  0  0  0  0  0  0  0  0  0  0
    1.6779    0.5110   10.6949 C   0  0  0  0  0  0  0  0  0  0  0  0
    0.9760    1.1544   11.7010 C   0  0  0  0  0  0  0  0  0  0  0  0
    0.2583    2.2935   11.3992 O   0  0  0  0  0  0  0  0  0  0  0  0
    5.0118    2.6884    9.7789 O   0  0  0  0  0  0  0  0  0  0  0  0
    4.8372    2.9029   12.0224 N   0  0  0  0  0  0  0  0  0  0  0  0
    5.2947    0.8745   14.4116 O   0  0  0  0  0  0  0  0  0  0  0  0
    5.3075   -0.4391   12.5553 N   0  0  0  0  0  0  0  0  0  0  0  0
    4.3636    3.3294   12.7728 H   0  0  0  0  0  0  0  0  0  0  0  0
    5.4929   -0.4855   11.5896 H   0  0  0  0  0  0  0  0  0  0  0  0
    7.6043    3.7584   12.0061 C   0  0  0  0  0  0  0  0  0  0  0  0
    7.1548    2.6042   12.9083 C   0  0  0  0  0  0  0  0  0  0  0  0
    8.2915    1.6226   13.0839 C   0  0  0  0  0  0  0  0  0  0  0  0
    5.9352   -2.7694   13.1695 C   0  0  0  0  0  0  0  0  0  0  0  0
    5.7757   -3.5060   11.9556 O   0  0  0  0  0  0  0  0  0  0  0  0
    4.9046   -3.9327   11.9485 H   0  0  0  0  0  0  0  0  0  0  0  0
    5.8453   -3.7358   14.3604 C   0  0  0  0  0  0  0  0  0  0  0  0
    5.1720   -3.1444   15.5251 N   0  0  0  0  0  0  0  0  0  0  0  0
    3.7417   -3.5329   16.2538 S   0  0  0  0  0  0  0  0  0  0  0  0
    2.6416   -3.2536   15.3276 O   0  0  0  0  0  0  0  0  0  0  0  0
    3.5778   -2.7084   17.4420 O   0  0  0  0  0  0  0  0  0  0  0  0
    3.6792   -5.1466   16.6508 C   0  0  0  0  0  0  0  0  0  0  0  0
    3.5127   -6.1149   15.6536 C   0  0  0  0  0  0  0  0  0  0  0  0
    3.4586   -7.4699   15.9758 C   0  0  0  0  0  0  0  0  0  0  0  0
    3.5609   -7.8706   17.3033 C   0  0  0  0  0  0  0  0  0  0  0  0
    3.7239   -6.9163   18.3085 C   0  0  0  0  0  0  0  0  0  0  0  0
    3.7795   -5.5624   17.9774 C   0  0  0  0  0  0  0  0  0  0  0  0
    6.3648   -2.8668   16.3612 C   0  0  0  0  0  0  0  0  0  0  0  0
    7.0622   -4.2158   16.4134 C   0  0  0  0  0  0  0  0  0  0  0  0
    9.2561   -5.3531   15.8963 C   0  0  0  0  0  0  0  0  0  0  0  0
    9.0413   -2.8754   15.8613 C   0  0  0  0  0  0  0  0  0  0  0  0
    8.5846   -4.1524   16.5446 C   0  0  0  0  0  0  0  0  0  0  0  0
  1  2  1  0  0  0
  1 19  1  0  0  0
  1 25  1  0  0  0
  2  3  1  0  0  0
  3  5  2  0  0  0
  3 12  1  0  0  0
  4  5  1  0  0  0
  4 14  2  0  0  0
  6  7  1  0  0  0
  6 15  1  0  0  0
  7  8  1  0  0  0
  8  9  1  0  0  0
  9 16  2  0  0  0
  9 17  1  0  0  0
 10 11  1  0  0  0
 10 17  1  0  0  0
 10 23  1  0  0  0
 22 23  1  0  0  0
 11 18  2  0  0  0
 11 19  1  0  0  0
 29 39  1  0  0  0
 29 28  1  0  0  0
 29 30  1  0  0  0
 39 40  1  0  0  0
 41 43  1  0  0  0
 42 43  1  0  0  0
 33 30  1  0  0  0
 33 34  2  0  0  0
 33 38  1  0  0  0
 12 13  2  0  0  0
 13 14  1  0  0  0
 14 15  1  0  0  0
 23 24  1  0  0  0
 25 26  1  0  0  0
 25 28  1  0  0  0
 40 43  1  0  0  0
 30 31  2  0  0  0
 30 32  2  0  0  0
 34 35  1  0  0  0
 35 36  2  0  0  0
 36 37  1  0  0  0
 37 38  2  0  0  0
 17 20  1  0  0  0
 19 21  1  0  0  0
 26 27  1  0  0  0
M  END
> <minimizedAffinity>
-9.56774

$$$$
1Z1H_HBB_A_201


 43 45  0  0  0  0  0  0  0  0999 V2000
    6.2282    3.3082   10.0695 C   0  0  0  0  0  0  0  0  0  0  0  0
    7.4756    2.4568   10.3866 C   0  0  0  0  0  0  0  0  0  0  0  0
    7.3126    1.5909   11.6182 C   0  0  0  0  0  0  0  0  0  0  0  0
    7.1264    1.3631   14.0242 C   0  0  0  0  0  0  0  0  0  0  0  0
    7.3825    2.1389   12.9063 C   0  0  0  0  0  0  0  0  0  0  0  0
    5.0412   -0.5813   15.1596 C   0  0  0  0  0  0  0  0  0  0  0  0
    4.2170   -1.5310   14.2594 C   0  0  0  0  0  0  0  0  0  0  0  0
    2.8486   -0.9771   13.8609 C   0  0  0  0  0  0  0  0  0  0  0  0
    2.8290   -0.2490   12.5283 C   0  0  0  0  0  0  0  0  0  0  0  0
    2.8749    1.9013   11.3388 C   0  0  0  0  0  0  0  0  0  0  0  0
    4.0724    2.8620   11.1974 C   0  0  0  0  0  0  0  0  0  0  0  0
    6.9922    0.2398   11.4923 C   0  0  0  0  0  0  0  0  0  0  0  0
    6.7370   -0.5360   12.6021 C   0  0  0  0  0  0  0  0  0  0  0  0
    6.7959    0.0292   13.8653 C   0  0  0  0  0  0  0  0  0  0  0  0
    6.4531   -0.7349   14.9618 O   0  0  0  0  0  0  0  0  0  0  0  0
    2.8272   -0.8855   11.4679 O   0  0  0  0  0  0  0  0  0  0  0  0
    2.8845    1.0833   12.5774 N   0  0  0  0  0  0  0  0  0  0  0  0
    4.1362    3.9058   11.8717 O   0  0  0  0  0  0  0  0  0  0  0  0
    5.0020    2.5046   10.3037 N   0  0  0  0  0  0  0  0  0  0  0  0
    2.9327    1.5324   13.4522 H   0  0  0  0  0  0  0  0  0  0  0  0
    4.8681    1.6797    9.7833 H   0  0  0  0  0  0  0  0  0  0  0  0
    0.5742    2.2646   12.3107 C   0  0  0  0  0  0  0  0  0  0  0  0
    1.5411    2.6732   11.1944 C   0  0  0  0  0  0  0  0  0  0  0  0
    0.9031    2.4151    9.8480 C   0  0  0  0  0  0  0  0  0  0  0  0
    6.2820    3.8104    8.6133 C   0  0  0  0  0  0  0  0  0  0  0  0
    7.1734    4.9228    8.5160 O   0  0  0  0  0  0  0  0  0  0  0  0
    6.8485    5.6472    9.0732 H   0  0  0  0  0  0  0  0  0  0  0  0
    4.8914    4.2346    8.1164 C   0  0  0  0  0  0  0  0  0  0  0  0
    4.9472    5.0591    6.9012 N   0  0  0  0  0  0  0  0  0  0  0  0
    5.2266    4.6403    5.3281 S   0  0  0  0  0  0  0  0  0  0  0  0
    5.7750    5.7968    4.6155 O   0  0  0  0  0  0  0  0  0  0  0  0
    3.9650    4.2607    4.7093 O   0  0  0  0  0  0  0  0  0  0  0  0
    6.3283    3.3999    5.2148 C   0  0  0  0  0  0  0  0  0  0  0  0
    7.6556    3.6625    4.8556 C   0  0  0  0  0  0  0  0  0  0  0  0
    8.5866    2.6298    4.7573 C   0  0  0  0  0  0  0  0  0  0  0  0
    8.1960    1.3192    5.0083 C   0  0  0  0  0  0  0  0  0  0  0  0
    6.8754    1.0418    5.3641 C   0  0  0  0  0  0  0  0  0  0  0  0
    5.9503    2.0813    5.4627 C   0  0  0  0  0  0  0  0  0  0  0  0
    3.8541    6.0091    7.2200 C   0  0  0  0  0  0  0  0  0  0  0  0
    2.9239    5.1756    8.0854 C   0  0  0  0  0  0  0  0  0  0  0  0
    1.1139    6.8540    7.5556 C   0  0  0  0  0  0  0  0  0  0  0  0
    1.0603    4.5512    6.6174 C   0  0  0  0  0  0  0  0  0  0  0  0
    1.4323    5.3917    7.8262 C   0  0  0  0  0  0  0  0  0  0  0  0
  1  2  1  0  0  0
  1 19  1  0  0  0
  1 25  1  0  0  0
  2  3  1  0  0  0
  3  5  2  0  0  0
  3 12  1  0  0  0
  4  5  1  0  0  0
  4 14  2  0  0  0
  6  7  1  0  0  0
  6 15  1  0  0  0
  7  8  1  0  0  0
  8  9  1  0  0  0
  9 16  2  0  0  0
  9 17  1  0  0  0
 10 11  1  0  0  0
 10 17  1  0  0  0
 10 23  1  0  0  0
 22 23  1  0  0  0
 11 18  2  0  0  0
 11 19  1  0  0  0
 29 39  1  0  0  0
 29 28  1  0  0  0
 29 30  1  0  0  0
 39 40  1  0  0  0
 41 43  1  0  0  0
 42 43  1  0  0  0
 33 30  1  0  0  0
 33 34  2  0  0  0
 33 38  1  0  0  0
 12 13  2  0  0  0
 13 14  1  0  0  0
 14 15  1  0  0  0
 23 24  1  0  0  0
 25 26  1  0  0  0
 25 28  1  0  0  0
 40 43  1  0  0  0
 30 31  2  0  0  0
 30 32  2  0  0  0
 34 35  1  0  0  0
 35 36  2  0  0  0
 36 37  1  0  0  0
 37 38  2  0  0  0
 17 20  1  0  0  0
 19 21  1  0  0  0
 26 27  1  0  0  0
M  END
> <minimizedAffinity>
-9.36253

$$$$
1Z1H_HBB_A_201


 43 45  0  0  0  0  0  0  0  0999 V2000
    5.5970   -0.4056   14.0573 C   0  0  0  0  0  0  0  0  0  0  0  0
    7.0450    0.1238   13.9895 C   0  0  0  0  0  0  0  0  0  0  0  0
    7.3538    0.8609   12.7032 C   0  0  0  0  0  0  0  0  0  0  0  0
    7.7458    0.8512   10.3112 C   0  0  0  0  0  0  0  0  0  0  0  0
    7.5705    0.1693   11.5034 C   0  0  0  0  0  0  0  0  0  0  0  0
    6.4574    3.0502    8.6017 C   0  0  0  0  0  0  0  0  0  0  0  0
    5.7004    4.2468    9.2237 C   0  0  0  0  0  0  0  0  0  0  0  0
    4.1886    4.0408    9.3238 C   0  0  0  0  0  0  0  0  0  0  0  0
    3.7165    3.4874   10.6569 C   0  0  0  0  0  0  0  0  0  0  0  0
    3.0101    1.5227   11.9539 C   0  0  0  0  0  0  0  0  0  0  0  0
    3.8954    0.3540   12.4305 C   0  0  0  0  0  0  0  0  0  0  0  0
    7.3335    2.2544   12.6673 C   0  0  0  0  0  0  0  0  0  0  0  0
    7.5079    2.9371   11.4831 C   0  0  0  0  0  0  0  0  0  0  0  0
    7.7049    2.2340   10.3059 C   0  0  0  0  0  0  0  0  0  0  0  0
    7.7905    2.9251    9.1148 O   0  0  0  0  0  0  0  0  0  0  0  0
    3.6336    4.2249   11.6462 O   0  0  0  0  0  0  0  0  0  0  0  0
    3.4732    2.1763   10.7041 N   0  0  0  0  0  0  0  0  0  0  0  0
    3.8606   -0.7488   11.8554 O   0  0  0  0  0  0  0  0  0  0  0  0
    4.6683    0.6062   13.4934 N   0  0  0  0  0  0  0  0  0  0  0  0
    3.6033    1.6318    9.8943 H   0  0  0  0  0  0  0  0  0  0  0  0
    4.6193    1.4938   13.9164 H   0  0  0  0  0  0  0  0  0  0  0  0
    1.2030    0.7604   10.3654 C   0  0  0  0  0  0  0  0  0  0  0  0
    1.5355    1.0694   11.8289 C   0  0  0  0  0  0  0  0  0  0  0  0
    0.5918    2.1282   12.3531 C   0  0  0  0  0  0  0  0  0  0  0  0
    5.2201   -0.7412   15.5136 C   0  0  0  0  0  0  0  0  0  0  0  0
    5.3103    0.4337   16.3215 O   0  0  0  0  0  0  0  0  0  0  0  0
    6.2230    0.7621   16.3139 H   0  0  0  0  0  0  0  0  0  0  0  0
    6.1427   -1.8238   16.0946 C   0  0  0  0  0  0  0  0  0  0  0  0
    5.4876   -3.1352   16.1990 N   0  0  0  0  0  0  0  0  0  0  0  0
    6.1155   -4.6301   16.5132 S   0  0  0  0  0  0  0  0  0  0  0  0
    7.0199   -4.5373   17.6619 O   0  0  0  0  0  0  0  0  0  0  0  0
    6.8721   -5.0778   15.3531 O   0  0  0  0  0  0  0  0  0  0  0  0
    4.9218   -5.7252   16.8889 C   0  0  0  0  0  0  0  0  0  0  0  0
    4.4568   -6.6249   15.9224 C   0  0  0  0  0  0  0  0  0  0  0  0
    3.4564   -7.5464   16.2271 C   0  0  0  0  0  0  0  0  0  0  0  0
    2.9025   -7.5708   17.5022 C   0  0  0  0  0  0  0  0  0  0  0  0
    3.3536   -6.6777   18.4749 C   0  0  0  0  0  0  0  0  0  0  0  0
    4.3569   -5.7602   18.1627 C   0  0  0  0  0  0  0  0  0  0  0  0
    4.2375   -2.7122   16.8753 C   0  0  0  0  0  0  0  0  0  0  0  0
    3.1839   -3.5852   16.2145 C   0  0  0  0  0  0  0  0  0  0  0  0
    2.3123   -4.5884   14.0679 C   0  0  0  0  0  0  0  0  0  0  0  0
    2.3561   -2.1271   14.4237 C   0  0  0  0  0  0  0  0  0  0  0  0
    3.0786   -3.4347   14.6962 C   0  0  0  0  0  0  0  0  0  0  0  0
  1  2  1  0  0  0
  1 19  1  0  0  0
  1 25  1  0  0  0
  2  3  1  0  0  0
  3  5  2  0  0  0
  3 12  1  0  0  0
  4  5  1  0  0  0
  4 14  2  0  0  0
  6  7  1  0  0  0
  6 15  1  0  0  0
  7  8  1  0  0  0
  8  9  1  0  0  0
  9 16  2  0  0  0
  9 17  1  0  0  0
 10 11  1  0  0  0
 10 17  1  0  0  0
 10 23  1  0  0  0
 22 23  1  0  0  0
 11 18  2  0  0  0
 11 19  1  0  0  0
 29 39  1  0  0  0
 29 28  1  0  0  0
 29 30  1  0  0  0
 39 40  1  0  0  0
 41 43  1  0  0  0
 42 43  1  0  0  0
 33 30  1  0  0  0
 33 34  2  0  0  0
 33 38  1  0  0  0
 12 13  2  0  0  0
 13 14  1  0  0  0
 14 15  1  0  0  0
 23 24  1  0  0  0
 25 26  1  0  0  0
 25 28  1  0  0  0
 40 43  1  0  0  0
 30 31  2  0  0  0
 30 32  2  0  0  0
 34 35  1  0  0  0
 35 36  2  0  0  0
 36 37  1  0  0  0
 37 38  2  0  0  0
 17 20  1  0  0  0
 19 21  1  0  0  0
 26 27  1  0  0  0
M  END
> <minimizedAffinity>
-9.36017

$$$$
