3F80_6HN_A_551


 15 14  0  0  0  0  0  0  0  0999 V2000
   20.0966  -16.3141    6.4000 N   0  0  0  0  0  0  0  0  0  0  0  0
   21.5005  -15.8435    6.2554 C   0  0  0  0  0  0  0  0  0  0  0  0
   19.5134  -15.8662    5.6932 H   0  0  0  0  0  0  0  0  0  0  0  0
   19.7511  -16.0727    7.3288 H   0  0  0  0  0  0  0  0  0  0  0  0
   22.0045  -16.1309    4.8281 C   0  0  0  0  0  0  0  0  0  0  0  0
   22.1932  -15.1720    4.0217 O   0  0  0  0  0  0  0  0  0  0  0  0
   22.2311  -17.3233    4.4626 O   0  0  0  0  0  0  0  0  0  0  0  0
   22.0251  -14.2912    4.2936 H   0  0  0  0  0  0  0  0  0  0  0  0
   22.3780  -16.5263    7.3293 C   0  0  0  0  0  0  0  0  0  0  0  0
   23.1491  -15.5169    8.1804 C   0  0  0  0  0  0  0  0  0  0  0  0
   24.5403  -15.3173    7.6130 C   0  0  0  0  0  0  0  0  0  0  0  0
   24.6109  -13.8964    7.0779 C   0  0  0  0  0  0  0  0  0  0  0  0
   25.9079  -13.2859    7.2438 N   0  0  0  0  0  0  0  0  0  0  0  0
   26.8655  -13.9748    7.8353 O   0  0  0  0  0  0  0  0  0  0  0  0
   26.1366  -12.0481    6.8597 O   0  0  0  0  0  0  0  0  0  0  0  0
 13 12  1  0  0  0
 13 14  2  0  0  0
 13 15  1  0  0  0
  1  2  1  0  0  0
  2  5  1  0  0  0
  2  9  1  0  0  0
  5  6  1  0  0  0
  5  7  2  0  0  0
  9 10  1  0  0  0
 10 11  1  0  0  0
 11 12  1  0  0  0
  1  3  1  0  0  0
  1  4  1  0  0  0
  6  8  1  0  0  0
M  CHG 1  13   1
M  CHG 1  15  -1
M  END
> <minimizedAffinity>
-6.47137

$$$$
3F80_6HN_A_551


 15 14  0  0  0  0  0  0  0  0999 V2000
   21.2579  -16.3246    4.9407 N   0  0  0  0  0  0  0  0  0  0  0  0
   21.0692  -16.6370    6.3830 C   0  0  0  0  0  0  0  0  0  0  0  0
   20.3532  -16.3329    4.4698 H   0  0  0  0  0  0  0  0  0  0  0  0
   21.8676  -17.0247    4.5182 H   0  0  0  0  0  0  0  0  0  0  0  0
   20.0849  -15.6322    7.0117 C   0  0  0  0  0  0  0  0  0  0  0  0
   18.8668  -15.6413    6.6630 O   0  0  0  0  0  0  0  0  0  0  0  0
   20.4927  -14.8000    7.8765 O   0  0  0  0  0  0  0  0  0  0  0  0
   18.5671  -16.2572    6.0235 H   0  0  0  0  0  0  0  0  0  0  0  0
   22.4439  -16.6227    7.0897 C   0  0  0  0  0  0  0  0  0  0  0  0
   23.4397  -15.6830    6.4089 C   0  0  0  0  0  0  0  0  0  0  0  0
   24.3515  -15.0566    7.4449 C   0  0  0  0  0  0  0  0  0  0  0  0
   24.5911  -13.6158    7.0243 C   0  0  0  0  0  0  0  0  0  0  0  0
   25.9563  -13.1854    7.2073 N   0  0  0  0  0  0  0  0  0  0  0  0
   26.8348  -14.0421    7.6930 O   0  0  0  0  0  0  0  0  0  0  0  0
   26.3265  -11.9504    6.9432 O   0  0  0  0  0  0  0  0  0  0  0  0
 13 12  1  0  0  0
 13 14  2  0  0  0
 13 15  1  0  0  0
  1  2  1  0  0  0
  2  5  1  0  0  0
  2  9  1  0  0  0
  5  6  1  0  0  0
  5  7  2  0  0  0
  9 10  1  0  0  0
 10 11  1  0  0  0
 11 12  1  0  0  0
  1  3  1  0  0  0
  1  4  1  0  0  0
  6  8  1  0  0  0
M  CHG 1  13   1
M  CHG 1  15  -1
M  END
> <minimizedAffinity>
-6.11759

$$$$
3F80_6HN_A_551


 15 14  0  0  0  0  0  0  0  0999 V2000
   23.7287  -14.8595    5.9405 N   0  0  0  0  0  0  0  0  0  0  0  0
   24.2008  -14.4455    7.2892 C   0  0  0  0  0  0  0  0  0  0  0  0
   23.6402  -14.0369    5.3439 H   0  0  0  0  0  0  0  0  0  0  0  0
   22.8216  -15.3183    6.0238 H   0  0  0  0  0  0  0  0  0  0  0  0
   25.5318  -13.6795    7.1656 C   0  0  0  0  0  0  0  0  0  0  0  0
   25.5622  -12.5615    6.5700 O   0  0  0  0  0  0  0  0  0  0  0  0
   26.5928  -14.1660    7.6598 O   0  0  0  0  0  0  0  0  0  0  0  0
   24.7769  -12.2035    6.2052 H   0  0  0  0  0  0  0  0  0  0  0  0
   24.3325  -15.6968    8.1872 C   0  0  0  0  0  0  0  0  0  0  0  0
   23.2493  -16.7373    7.9000 C   0  0  0  0  0  0  0  0  0  0  0  0
   21.9345  -16.2982    8.5127 C   0  0  0  0  0  0  0  0  0  0  0  0
   20.8227  -16.8052    7.6089 C   0  0  0  0  0  0  0  0  0  0  0  0
   20.3422  -15.8113    6.6794 N   0  0  0  0  0  0  0  0  0  0  0  0
   20.8326  -15.7948    5.4544 O   0  0  0  0  0  0  0  0  0  0  0  0
   19.4646  -14.9007    7.0433 O   0  0  0  0  0  0  0  0  0  0  0  0
 13 12  1  0  0  0
 13 14  2  0  0  0
 13 15  1  0  0  0
  1  2  1  0  0  0
  2  5  1  0  0  0
  2  9  1  0  0  0
  5  6  1  0  0  0
  5  7  2  0  0  0
  9 10  1  0  0  0
 10 11  1  0  0  0
 11 12  1  0  0  0
  1  3  1  0  0  0
  1  4  1  0  0  0
  6  8  1  0  0  0
M  CHG 1  13   1
M  CHG 1  15  -1
M  END
> <minimizedAffinity>
-6.04473

$$$$
3F80_6HN_A_551


 15 14  0  0  0  0  0  0  0  0999 V2000
   21.1340  -15.7936    4.3829 N   0  0  0  0  0  0  0  0  0  0  0  0
   22.3920  -16.2533    5.0306 C   0  0  0  0  0  0  0  0  0  0  0  0
   21.1150  -16.1111    3.4137 H   0  0  0  0  0  0  0  0  0  0  0  0
   21.0914  -14.7748    4.4079 H   0  0  0  0  0  0  0  0  0  0  0  0
   22.5048  -17.7863    4.9257 C   0  0  0  0  0  0  0  0  0  0  0  0
   22.8778  -18.3175    3.8375 O   0  0  0  0  0  0  0  0  0  0  0  0
   22.2268  -18.5135    5.9260 O   0  0  0  0  0  0  0  0  0  0  0  0
   23.0829  -17.7783    3.0991 H   0  0  0  0  0  0  0  0  0  0  0  0
   22.4137  -15.7687    6.4983 C   0  0  0  0  0  0  0  0  0  0  0  0
   23.8336  -15.5262    7.0114 C   0  0  0  0  0  0  0  0  0  0  0  0
   23.9245  -15.8981    8.4779 C   0  0  0  0  0  0  0  0  0  0  0  0
   22.5994  -16.5331    8.8663 C   0  0  0  0  0  0  0  0  0  0  0  0
   21.9173  -15.8314    9.9270 N   0  0  0  0  0  0  0  0  0  0  0  0
   22.1471  -16.1870   11.1769 O   0  0  0  0  0  0  0  0  0  0  0  0
   21.0434  -14.8820    9.6688 O   0  0  0  0  0  0  0  0  0  0  0  0
 13 12  1  0  0  0
 13 14  2  0  0  0
 13 15  1  0  0  0
  1  2  1  0  0  0
  2  5  1  0  0  0
  2  9  1  0  0  0
  5  6  1  0  0  0
  5  7  2  0  0  0
  9 10  1  0  0  0
 10 11  1  0  0  0
 11 12  1  0  0  0
  1  3  1  0  0  0
  1  4  1  0  0  0
  6  8  1  0  0  0
M  CHG 1  13   1
M  CHG 1  15  -1
M  END
> <minimizedAffinity>
-5.77569

$$$$
3F80_6HN_A_551


 15 14  0  0  0  0  0  0  0  0999 V2000
   20.5111  -14.2786    8.2841 N   0  0  0  0  0  0  0  0  0  0  0  0
   20.3061  -15.0276    7.0151 C   0  0  0  0  0  0  0  0  0  0  0  0
   20.1911  -13.3172    8.1669 H   0  0  0  0  0  0  0  0  0  0  0  0
   21.5027  -14.2802    8.5234 H   0  0  0  0  0  0  0  0  0  0  0  0
   18.8232  -14.9619    6.6023 C   0  0  0  0  0  0  0  0  0  0  0  0
   18.3548  -13.8953    6.1037 O   0  0  0  0  0  0  0  0  0  0  0  0
   18.0748  -15.9727    6.7595 O   0  0  0  0  0  0  0  0  0  0  0  0
   18.9096  -13.1491    5.9883 H   0  0  0  0  0  0  0  0  0  0  0  0
   20.7931  -16.4830    7.2003 C   0  0  0  0  0  0  0  0  0  0  0  0
   21.6119  -16.9800    6.0083 C   0  0  0  0  0  0  0  0  0  0  0  0
   22.8500  -16.1226    5.8374 C   0  0  0  0  0  0  0  0  0  0  0  0
   23.6185  -16.1717    7.1478 C   0  0  0  0  0  0  0  0  0  0  0  0
   24.2270  -14.9121    7.5023 N   0  0  0  0  0  0  0  0  0  0  0  0
   23.5746  -13.7944    7.2444 O   0  0  0  0  0  0  0  0  0  0  0  0
   25.4305  -14.8578    8.0319 O   0  0  0  0  0  0  0  0  0  0  0  0
 13 12  1  0  0  0
 13 14  2  0  0  0
 13 15  1  0  0  0
  1  2  1  0  0  0
  2  5  1  0  0  0
  2  9  1  0  0  0
  5  6  1  0  0  0
  5  7  2  0  0  0
  9 10  1  0  0  0
 10 11  1  0  0  0
 11 12  1  0  0  0
  1  3  1  0  0  0
  1  4  1  0  0  0
  6  8  1  0  0  0
M  CHG 1  13   1
M  CHG 1  15  -1
M  END
> <minimizedAffinity>
-5.61441

$$$$
3F80_6HN_A_551


 15 14  0  0  0  0  0  0  0  0999 V2000
   22.5787  -18.4994    4.3459 N   0  0  0  0  0  0  0  0  0  0  0  0
   21.9598  -17.6668    5.4123 C   0  0  0  0  0  0  0  0  0  0  0  0
   22.1779  -18.2475    3.4424 H   0  0  0  0  0  0  0  0  0  0  0  0
   22.3970  -19.4850    4.5356 H   0  0  0  0  0  0  0  0  0  0  0  0
   22.1588  -16.1730    5.0917 C   0  0  0  0  0  0  0  0  0  0  0  0
   21.3828  -15.5957    4.2731 O   0  0  0  0  0  0  0  0  0  0  0  0
   23.0951  -15.5236    5.6468 O   0  0  0  0  0  0  0  0  0  0  0  0
   20.6912  -16.0774    3.8637 H   0  0  0  0  0  0  0  0  0  0  0  0
   22.5719  -18.0539    6.7779 C   0  0  0  0  0  0  0  0  0  0  0  0
   21.5061  -18.2909    7.8485 C   0  0  0  0  0  0  0  0  0  0  0  0
   22.0748  -17.9890    9.2206 C   0  0  0  0  0  0  0  0  0  0  0  0
   22.6513  -16.5835    9.1719 C   0  0  0  0  0  0  0  0  0  0  0  0
   21.9795  -15.6583   10.0524 N   0  0  0  0  0  0  0  0  0  0  0  0
   20.9938  -14.9238    9.5727 O   0  0  0  0  0  0  0  0  0  0  0  0
   22.3601  -15.5033   11.3026 O   0  0  0  0  0  0  0  0  0  0  0  0
 13 12  1  0  0  0
 13 14  2  0  0  0
 13 15  1  0  0  0
  1  2  1  0  0  0
  2  5  1  0  0  0
  2  9  1  0  0  0
  5  6  1  0  0  0
  5  7  2  0  0  0
  9 10  1  0  0  0
 10 11  1  0  0  0
 11 12  1  0  0  0
  1  3  1  0  0  0
  1  4  1  0  0  0
  6  8  1  0  0  0
M  CHG 1  13   1
M  CHG 1  15  -1
M  END
> <minimizedAffinity>
-5.35852

$$$$
3F80_6HN_A_551


 15 14  0  0  0  0  0  0  0  0999 V2000
   23.9689  -18.7545    8.4504 N   0  0  0  0  0  0  0  0  0  0  0  0
   23.0967  -17.5871    8.1511 C   0  0  0  0  0  0  0  0  0  0  0  0
   23.3894  -19.5726    8.6383 H   0  0  0  0  0  0  0  0  0  0  0  0
   24.5428  -18.5493    9.2683 H   0  0  0  0  0  0  0  0  0  0  0  0
   22.1680  -17.9175    6.9670 C   0  0  0  0  0  0  0  0  0  0  0  0
   20.9193  -17.7310    7.0747 O   0  0  0  0  0  0  0  0  0  0  0  0
   22.6523  -18.3731    5.8879 O   0  0  0  0  0  0  0  0  0  0  0  0
   20.5631  -17.3941    7.8731 H   0  0  0  0  0  0  0  0  0  0  0  0
   23.9816  -16.3518    7.8675 C   0  0  0  0  0  0  0  0  0  0  0  0
   23.1665  -15.1456    7.3995 C   0  0  0  0  0  0  0  0  0  0  0  0
   24.0957  -14.0201    6.9910 C   0  0  0  0  0  0  0  0  0  0  0  0
   25.4821  -14.3683    7.5074 C   0  0  0  0  0  0  0  0  0  0  0  0
   26.3700  -13.2327    7.5748 N   0  0  0  0  0  0  0  0  0  0  0  0
   27.3435  -13.2370    8.4656 O   0  0  0  0  0  0  0  0  0  0  0  0
   26.1988  -12.1824    6.8005 O   0  0  0  0  0  0  0  0  0  0  0  0
 13 12  1  0  0  0
 13 14  2  0  0  0
 13 15  1  0  0  0
  1  2  1  0  0  0
  2  5  1  0  0  0
  2  9  1  0  0  0
  5  6  1  0  0  0
  5  7  2  0  0  0
  9 10  1  0  0  0
 10 11  1  0  0  0
 11 12  1  0  0  0
  1  3  1  0  0  0
  1  4  1  0  0  0
  6  8  1  0  0  0
M  CHG 1  13   1
M  CHG 1  15  -1
M  END
> <minimizedAffinity>
-5.14807

$$$$
3F80_6HN_A_551


 15 14  0  0  0  0  0  0  0  0999 V2000
   24.4673  -19.8192    8.4445 N   0  0  0  0  0  0  0  0  0  0  0  0
   23.2123  -19.0407    8.2657 C   0  0  0  0  0  0  0  0  0  0  0  0
   24.2382  -20.7955    8.6311 H   0  0  0  0  0  0  0  0  0  0  0  0
   24.9951  -19.4379    9.2296 H   0  0  0  0  0  0  0  0  0  0  0  0
   22.3693  -19.6594    7.1342 C   0  0  0  0  0  0  0  0  0  0  0  0
   22.8937  -19.8679    5.9998 O   0  0  0  0  0  0  0  0  0  0  0  0
   21.1550  -19.9603    7.3386 O   0  0  0  0  0  0  0  0  0  0  0  0
   23.7915  -19.6448    5.8505 H   0  0  0  0  0  0  0  0  0  0  0  0
   23.5674  -17.5630    7.9835 C   0  0  0  0  0  0  0  0  0  0  0  0
   22.4152  -16.6132    8.3128 C   0  0  0  0  0  0  0  0  0  0  0  0
   22.2280  -15.6165    7.1864 C   0  0  0  0  0  0  0  0  0  0  0  0
   21.4365  -16.3141    6.0923 C   0  0  0  0  0  0  0  0  0  0  0  0
   22.1464  -16.4011    4.8389 N   0  0  0  0  0  0  0  0  0  0  0  0
   22.4738  -17.5917    4.3733 O   0  0  0  0  0  0  0  0  0  0  0  0
   22.5096  -15.3208    4.1809 O   0  0  0  0  0  0  0  0  0  0  0  0
 13 12  1  0  0  0
 13 14  2  0  0  0
 13 15  1  0  0  0
  1  2  1  0  0  0
  2  5  1  0  0  0
  2  9  1  0  0  0
  5  6  1  0  0  0
  5  7  2  0  0  0
  9 10  1  0  0  0
 10 11  1  0  0  0
 11 12  1  0  0  0
  1  3  1  0  0  0
  1  4  1  0  0  0
  6  8  1  0  0  0
M  CHG 1  13   1
M  CHG 1  15  -1
M  END
> <minimizedAffinity>
-5.02738

$$$$
3F80_6HN_A_551


 15 14  0  0  0  0  0  0  0  0999 V2000
   21.0349  -15.1706    9.1999 N   0  0  0  0  0  0  0  0  0  0  0  0
   20.9840  -15.4522    7.7399 C   0  0  0  0  0  0  0  0  0  0  0  0
   20.0855  -15.0886    9.5636 H   0  0  0  0  0  0  0  0  0  0  0  0
   21.5372  -14.2975    9.3605 H   0  0  0  0  0  0  0  0  0  0  0  0
   20.1574  -16.7263    7.4811 C   0  0  0  0  0  0  0  0  0  0  0  0
   19.2381  -16.7144    6.6091 O   0  0  0  0  0  0  0  0  0  0  0  0
   20.3978  -17.7836    8.1376 O   0  0  0  0  0  0  0  0  0  0  0  0
   19.0619  -15.9320    6.1247 H   0  0  0  0  0  0  0  0  0  0  0  0
   22.4258  -15.5751    7.1961 C   0  0  0  0  0  0  0  0  0  0  0  0
   23.4447  -14.8502    8.0761 C   0  0  0  0  0  0  0  0  0  0  0  0
   24.8507  -15.1583    7.6011 C   0  0  0  0  0  0  0  0  0  0  0  0
   25.2848  -14.0134    6.7007 C   0  0  0  0  0  0  0  0  0  0  0  0
   26.2585  -13.1414    7.3123 N   0  0  0  0  0  0  0  0  0  0  0  0
   26.2839  -11.8694    6.9618 O   0  0  0  0  0  0  0  0  0  0  0  0
   27.1434  -13.5990    8.1722 O   0  0  0  0  0  0  0  0  0  0  0  0
 13 12  1  0  0  0
 13 14  2  0  0  0
 13 15  1  0  0  0
  1  2  1  0  0  0
  2  5  1  0  0  0
  2  9  1  0  0  0
  5  6  1  0  0  0
  5  7  2  0  0  0
  9 10  1  0  0  0
 10 11  1  0  0  0
 11 12  1  0  0  0
  1  3  1  0  0  0
  1  4  1  0  0  0
  6  8  1  0  0  0
M  CHG 1  13   1
M  CHG 1  15  -1
M  END
> <minimizedAffinity>
-4.93747

$$$$
3F80_6HN_A_551


 15 14  0  0  0  0  0  0  0  0999 V2000
   20.2398  -14.0011    8.1343 N   0  0  0  0  0  0  0  0  0  0  0  0
   21.1309  -15.1038    7.6833 C   0  0  0  0  0  0  0  0  0  0  0  0
   20.0216  -13.3952    7.3434 H   0  0  0  0  0  0  0  0  0  0  0  0
   20.7102  -13.4585    8.8587 H   0  0  0  0  0  0  0  0  0  0  0  0
   20.4621  -15.8796    6.5324 C   0  0  0  0  0  0  0  0  0  0  0  0
   19.4287  -16.5767    6.7596 O   0  0  0  0  0  0  0  0  0  0  0  0
   20.9437  -15.8190    5.3615 O   0  0  0  0  0  0  0  0  0  0  0  0
   19.0741  -16.6203    7.6258 H   0  0  0  0  0  0  0  0  0  0  0  0
   21.4570  -16.0174    8.8868 C   0  0  0  0  0  0  0  0  0  0  0  0
   22.8981  -16.5278    8.8577 C   0  0  0  0  0  0  0  0  0  0  0  0
   22.9148  -18.0382    8.9834 C   0  0  0  0  0  0  0  0  0  0  0  0
   22.7908  -18.6101    7.5807 C   0  0  0  0  0  0  0  0  0  0  0  0
   21.7103  -19.5565    7.4417 N   0  0  0  0  0  0  0  0  0  0  0  0
   21.9892  -20.7920    7.0714 O   0  0  0  0  0  0  0  0  0  0  0  0
   20.4581  -19.1993    7.6320 O   0  0  0  0  0  0  0  0  0  0  0  0
 13 12  1  0  0  0
 13 14  2  0  0  0
 13 15  1  0  0  0
  1  2  1  0  0  0
  2  5  1  0  0  0
  2  9  1  0  0  0
  5  6  1  0  0  0
  5  7  2  0  0  0
  9 10  1  0  0  0
 10 11  1  0  0  0
 11 12  1  0  0  0
  1  3  1  0  0  0
  1  4  1  0  0  0
  6  8  1  0  0  0
M  CHG 1  13   1
M  CHG 1  15  -1
M  END
> <minimizedAffinity>
-4.90029

$$$$
