1K6C_MK1_B_902
  RCSB PDB12061703023D
Coordinates from PDB:1K6C:B:902 Model:1 without hydrogens
 45 49  0  0  0  0            999 V2000
    3.2570   -5.4410   16.1630   N 0  0  0  0  0  0  0  0  0  0  0  0
    4.6680   -5.2080   15.6870   C 0  0  0  0  0  0  0  0  0  0  0  0
    5.4710   -4.0700   16.3040   C 0  0  0  0  0  0  0  0  0  0  0  0
    6.8220   -4.0520   15.6490   C 0  0  0  0  0  0  0  0  0  0  0  0
    6.9300   -3.5390   14.5320   O 0  0  0  0  0  0  0  0  0  0  0  0
    7.8690   -4.6000   16.3290   N 0  0  0  0  0  0  0  0  0  0  0  0
    9.2810   -4.7300   15.9960   C 0  0  0  0  0  0  0  0  0  0  0  0
    9.9750   -5.4710   17.1500   C 0  0  0  0  0  0  0  0  0  0  0  0
    9.9180   -3.4980   15.8420   C 0  0  0  0  0  0  0  0  0  0  0  0
    9.5520   -5.5330   14.7940   C 0  0  0  0  0  0  0  0  0  0  0  0
    4.5920   -2.8780   15.9820   N 0  0  0  0  0  0  0  0  0  0  0  0
    3.1280   -2.9740   16.3070   C 0  0  0  0  0  0  0  0  0  0  0  0
    2.5030   -4.2940   15.8350   C 0  0  0  0  0  0  0  0  0  0  0  0
    5.0790   -1.5860   16.4960   C 0  0  0  0  0  0  0  0  0  0  0  0
    5.1070   -0.4850   15.4430   C 0  0  0  0  0  0  0  0  0  0  0  0
    5.1220    0.5580   16.3690   O 0  0  0  0  0  0  0  0  0  0  0  0
    6.3240   -0.2320   14.5380   C 0  0  0  0  0  0  0  0  0  0  0  0
    6.2700    0.8700   13.4720   C 0  0  0  0  0  0  0  0  0  0  0  0
    7.6060    0.9590   12.6720   C 0  0  0  0  0  0  0  0  0  0  0  0
    7.6000    1.9920   11.5890   C 0  0  0  0  0  0  0  0  0  0  0  0
    7.4220    3.3780   11.8960   C 0  0  0  0  0  0  0  0  0  0  0  0
    7.4040    4.3340   10.8500   C 0  0  0  0  0  0  0  0  0  0  0  0
    7.5650    3.8960    9.4960   C 0  0  0  0  0  0  0  0  0  0  0  0
    7.7440    2.5130    9.1910   C 0  0  0  0  0  0  0  0  0  0  0  0
    7.7600    1.5670   10.2430   C 0  0  0  0  0  0  0  0  0  0  0  0
    5.0920    0.6470   12.4780   C 0  0  0  0  0  0  0  0  0  0  0  0
    4.7680   -0.4980   12.0830   O 0  0  0  0  0  0  0  0  0  0  0  0
    4.5110    1.7690   12.0600   N 0  0  0  0  0  0  0  0  0  0  0  0
    3.4330    1.8060   11.0760   C 0  0  0  0  0  0  0  0  0  0  0  0
    3.3590    3.1720   10.3930   C 0  0  0  0  0  0  0  0  0  0  0  0
    3.7700    4.2120   11.2840   O 0  0  0  0  0  0  0  0  0  0  0  0
    1.9360    3.3040    9.9120   C 0  0  0  0  0  0  0  0  0  0  0  0
    0.9990    2.5900   10.8420   C 0  0  0  0  0  0  0  0  0  0  0  0
   -0.3540    2.6130   11.1430   C 0  0  0  0  0  0  0  0  0  0  0  0
   -0.8350    1.7260   12.1380   C 0  0  0  0  0  0  0  0  0  0  0  0
    0.0480    0.8370   12.8270   C 0  0  0  0  0  0  0  0  0  0  0  0
    1.4230    0.7970   12.5400   C 0  0  0  0  0  0  0  0  0  0  0  0
    1.9880    1.6230   11.5920   C 0  0  0  0  0  0  0  0  0  0  0  0
    2.6450   -6.6790   15.6730   C 0  0  0  0  0  0  0  0  0  0  0  0
    3.2420   -8.0430   16.0480   C 0  0  0  0  0  0  0  0  0  0  0  0
    3.2830   -8.5380   17.3800   C 0  0  0  0  0  0  0  0  0  0  0  0
    3.8350   -9.8040   17.7710   N 0  0  0  0  0  0  0  0  0  0  0  0
    4.3530  -10.5370   16.6670   C 0  0  0  0  0  0  0  0  0  0  0  0
    4.3410  -10.1010   15.3220   C 0  0  0  0  0  0  0  0  0  0  0  0
    3.7770   -8.8330   15.0110   C 0  0  0  0  0  0  0  0  0  0  0  0
  1  2  1  0  0  0  0
  1 13  1  0  0  0  0
  1 39  1  0  0  0  0
  2  3  1  0  0  0  0
  3  4  1  0  0  0  0
  3 11  1  0  0  0  0
  4  5  2  0  0  0  0
  4  6  1  0  0  0  0
  6  7  1  0  0  0  0
  7  8  1  0  0  0  0
  7  9  1  0  0  0  0
  7 10  1  0  0  0  0
 11 12  1  0  0  0  0
 11 14  1  0  0  0  0
 12 13  1  0  0  0  0
 14 15  1  0  0  0  0
 15 16  1  0  0  0  0
 15 17  1  0  0  0  0
 17 18  1  0  0  0  0
 18 19  1  0  0  0  0
 18 26  1  0  0  0  0
 19 20  1  0  0  0  0
 20 21  2  0  0  0  0
 20 25  1  0  0  0  0
 21 22  1  0  0  0  0
 22 23  2  0  0  0  0
 23 24  1  0  0  0  0
 24 25  2  0  0  0  0
 26 27  2  0  0  0  0
 26 28  1  0  0  0  0
 28 29  1  0  0  0  0
 29 30  1  0  0  0  0
 29 38  1  0  0  0  0
 30 31  1  0  0  0  0
 30 32  1  0  0  0  0
 32 33  1  0  0  0  0
 33 34  2  0  0  0  0
 33 38  1  0  0  0  0
 34 35  1  0  0  0  0
 35 36  2  0  0  0  0
 36 37  1  0  0  0  0
 37 38  2  0  0  0  0
 39 40  1  0  0  0  0
 40 41  1  0  0  0  0
 40 45  2  0  0  0  0
 41 42  2  0  0  0  0
 42 43  1  0  0  0  0
 43 44  2  0  0  0  0
 44 45  1  0  0  0  0
A    1
N1
A    2
C1
A    3
C2
A    4
C3
A    5
O1
A    6
N2
A    7
C4
A    8
C5
A    9
C6
A   10
C7
A   11
N3
A   12
C8
A   13
C9
A   14
C10
A   15
C11
A   16
O2
A   17
C12
A   18
C13
A   19
C14
A   20
C15
A   21
C16
A   22
C17
A   23
C18
A   24
C19
A   25
C20
A   26
C21
A   27
O3
A   28
N4
A   29
C22
A   30
C23
A   31
O4
A   32
C24
A   33
C25
A   34
C26
A   35
C27
A   36
C28
A   37
C29
A   38
C30
A   39
C31
A   40
C32
A   41
C33
A   42
N5
A   43
C34
A   44
C35
A   45
C36
M  END
>  <InstanceId>
1K6C_MK1_B_902

>  <ChemCompId>
MK1

>  <PdbId>
1K6C

>  <ChainId>
B

>  <ResidueNumber>
902

>  <InsertionCode>


>  <Model>
1

>  <AltIds>


>  <MissingHeavyAtoms>
0

>  <ObservedFormula>
C36 N5 O4

>  <Name>
N-[2(R)-HYDROXY-1(S)-INDANYL]-5-[(2(S)-TERTIARY BUTYLAMINOCARBONYL)-4(3-PYRIDYLMETHYL)PIPERAZINO]-4(S)-HYDROXY-2(R)-PHENYLMETHYLPENTANAMIDE

>  <SystematicName>
(1S,2S,4R)-N-tert-butyl-1-[(2S,4R)-2-hydroxy-5-[[(1S,2R)-2-hydroxy-2,3-dihydro-1H-inden-1-yl]amino]-5-oxo-4-(phenylmethyl)pentyl]-4-(pyridin-3-ylmethyl)piperazine-2-carboxamide

>  <Synonyms>
INDINAVIR

>  <Type>
NON-POLYMER

>  <Formula>
C36 H47 N5 O4

>  <MolecularWeight>
613.789

>  <ModifiedDate>
2011-06-04

>  <Parent>


>  <OneLetterCode>


>  <SubcomponentList>


>  <AmbiguousFlag>
N

>  <InChI>
InChI=1S/C36H47N5O4/c1-36(2,3)39-35(45)31-24-40(22-26-12-9-15-37-21-26)16-17-41(31)23-29(42)19-28(18-25-10-5-4-6-11-25)34(44)38-33-30-14-8-7-13-27(30)20-32(33)43/h4-15,21,28-29,31-33,42-43H,16-20,22-24H2,1-3H3,(H,38,44)(H,39,45)/t28-,29+,31+,32-,33+/m1/s1

>  <InChIKey>
CBVCZFGXHXORBI-PXQQMZJSSA-N

>  <SMILES>
CC(C)(C)NC(=O)[C@@H]1C[N@@](CC[N@]1C[C@H](C[C@@H](Cc2ccccc2)C(=O)N[C@H]3c4ccccc4C[C@H]3O)O)Cc5cccnc5

$$$$
