1K6C_MK1_B_902


 49 53  0  0  0  0  0  0  0  0999 V2000
    5.1881   -0.7969   15.4114 C   0  0  0  0  0  0  0  0  0  0  0  0
    5.1226    0.3276   16.2341 O   0  0  0  0  0  0  0  0  0  0  0  0
    5.9038    0.3539   16.8085 H   0  0  0  0  0  0  0  0  0  0  0  0
    5.1828   -1.7944   16.5633 C   0  0  0  0  0  0  0  0  0  0  0  0
    3.5326   -5.7394   16.6343 N   0  0  0  0  0  0  0  0  0  0  0  0
    4.8806   -5.4753   16.0138 C   0  0  0  0  0  0  0  0  0  0  0  0
    5.6790   -4.2658   16.4832 C   0  0  0  0  0  0  0  0  0  0  0  0
    4.7158   -3.1368   16.1755 N   0  0  0  0  0  0  0  0  0  0  0  0
    3.2944   -3.2764   16.6428 C   0  0  0  0  0  0  0  0  0  0  0  0
    2.6954   -4.6501   16.3115 C   0  0  0  0  0  0  0  0  0  0  0  0
    6.9616   -4.2301   15.7033 C   0  0  0  0  0  0  0  0  0  0  0  0
    6.9045   -4.0881   14.4789 O   0  0  0  0  0  0  0  0  0  0  0  0
    8.1319   -4.3495   16.3925 N   0  0  0  0  0  0  0  0  0  0  0  0
    8.0169   -4.4635   17.3636 H   0  0  0  0  0  0  0  0  0  0  0  0
    9.5212   -4.3394   15.9550 C   0  0  0  0  0  0  0  0  0  0  0  0
   10.4006   -4.7179   17.1574 C   0  0  0  0  0  0  0  0  0  0  0  0
    9.9392   -3.0866   15.5043 C   0  0  0  0  0  0  0  0  0  0  0  0
    9.8382   -5.3250   14.9105 C   0  0  0  0  0  0  0  0  0  0  0  0
    2.9408   -7.0320   16.2790 C   0  0  0  0  0  0  0  0  0  0  0  0
    3.7721   -8.3196   16.3714 C   0  0  0  0  0  0  0  0  0  0  0  0
    4.6010   -8.6361   17.4821 C   0  0  0  0  0  0  0  0  0  0  0  0
    5.3950   -9.8256   17.6042 N   0  0  0  0  0  0  0  0  0  0  0  0
    5.2707  -10.6821   16.4748 C   0  0  0  0  0  0  0  0  0  0  0  0
    4.4639  -10.4250   15.3424 C   0  0  0  0  0  0  0  0  0  0  0  0
    3.7048   -9.2234   15.2923 C   0  0  0  0  0  0  0  0  0  0  0  0
    6.4181   -0.5661   14.5182 C   0  0  0  0  0  0  0  0  0  0  0  0
    6.3937    0.5355   13.4506 C   0  0  0  0  0  0  0  0  0  0  0  0
    5.2172    0.3362   12.4499 C   0  0  0  0  0  0  0  0  0  0  0  0
    5.0588   -0.7367   11.8209 O   0  0  0  0  0  0  0  0  0  0  0  0
    4.4457    1.4094   12.2941 N   0  0  0  0  0  0  0  0  0  0  0  0
    4.6403    2.2044   12.8413 H   0  0  0  0  0  0  0  0  0  0  0  0
    3.3271    1.4750   11.3580 C   0  0  0  0  0  0  0  0  0  0  0  0
    3.1420    2.8948   10.8216 C   0  0  0  0  0  0  0  0  0  0  0  0
    3.5262    3.8649   11.7992 O   0  0  0  0  0  0  0  0  0  0  0  0
    1.6947    2.9822   10.4075 C   0  0  0  0  0  0  0  0  0  0  0  0
    0.8425    2.1199   11.2923 C   0  0  0  0  0  0  0  0  0  0  0  0
   -0.4957    2.0254   11.6419 C   0  0  0  0  0  0  0  0  0  0  0  0
   -0.8799    1.0142   12.5573 C   0  0  0  0  0  0  0  0  0  0  0  0
    0.0834    0.1195   13.1199 C   0  0  0  0  0  0  0  0  0  0  0  0
    1.4450    0.1972   12.7816 C   0  0  0  0  0  0  0  0  0  0  0  0
    1.9188    1.1485   11.9036 C   0  0  0  0  0  0  0  0  0  0  0  0
    2.9969    3.7414   12.6026 H   0  0  0  0  0  0  0  0  0  0  0  0
    7.7360    0.5953   12.6585 C   0  0  0  0  0  0  0  0  0  0  0  0
    7.8147    1.7227   11.6773 C   0  0  0  0  0  0  0  0  0  0  0  0
    7.6528    3.0794   12.1017 C   0  0  0  0  0  0  0  0  0  0  0  0
    7.7157    4.1271   11.1495 C   0  0  0  0  0  0  0  0  0  0  0  0
    7.9414    3.8102    9.7712 C   0  0  0  0  0  0  0  0  0  0  0  0
    8.1042    2.4563    9.3491 C   0  0  0  0  0  0  0  0  0  0  0  0
    8.0393    1.4181   10.3081 C   0  0  0  0  0  0  0  0  0  0  0  0
  5  6  1  0  0  0
  5 10  1  0  0  0
  5 19  1  0  0  0
  6  7  1  0  0  0
  7 11  1  0  0  0
  7  8  1  0  0  0
 11 12  2  0  0  0
 11 13  1  0  0  0
 13 15  1  0  0  0
 15 16  1  0  0  0
 15 17  1  0  0  0
 15 18  1  0  0  0
  8  9  1  0  0  0
  8  4  1  0  0  0
  9 10  1  0  0  0
  4  1  1  0  0  0
  1  2  1  0  0  0
  1 26  1  0  0  0
 26 27  1  0  0  0
 27 43  1  0  0  0
 27 28  1  0  0  0
 43 44  1  0  0  0
 44 45  2  0  0  0
 44 49  1  0  0  0
 45 46  1  0  0  0
 46 47  2  0  0  0
 47 48  1  0  0  0
 48 49  2  0  0  0
 28 29  2  0  0  0
 28 30  1  0  0  0
 30 32  1  0  0  0
 32 33  1  0  0  0
 32 41  1  0  0  0
 33 34  1  0  0  0
 33 35  1  0  0  0
 35 36  1  0  0  0
 36 37  2  0  0  0
 36 41  1  0  0  0
 37 38  1  0  0  0
 38 39  2  0  0  0
 39 40  1  0  0  0
 40 41  2  0  0  0
 19 20  1  0  0  0
 20 21  1  0  0  0
 20 25  2  0  0  0
 21 22  2  0  0  0
 22 23  1  0  0  0
 23 24  2  0  0  0
 24 25  1  0  0  0
 13 14  1  0  0  0
  2  3  1  0  0  0
 30 31  1  0  0  0
 34 42  1  0  0  0
M  END
> <minimizedAffinity>
-11.28521

$$$$
1K6C_MK1_B_902


 49 53  0  0  0  0  0  0  0  0999 V2000
    4.4172   -4.5060   15.1231 C   0  0  0  0  0  0  0  0  0  0  0  0
    3.2008   -4.6936   14.4668 O   0  0  0  0  0  0  0  0  0  0  0  0
    2.4938   -4.2535   14.9642 H   0  0  0  0  0  0  0  0  0  0  0  0
    3.9808   -5.2149   16.3993 C   0  0  0  0  0  0  0  0  0  0  0  0
    4.9434   -9.1402   17.7983 N   0  0  0  0  0  0  0  0  0  0  0  0
    6.0062   -8.0778   17.6815 C   0  0  0  0  0  0  0  0  0  0  0  0
    5.5894   -6.6141   17.7467 C   0  0  0  0  0  0  0  0  0  0  0  0
    4.6169   -6.5305   16.5872 N   0  0  0  0  0  0  0  0  0  0  0  0
    3.5395   -7.5739   16.4948 C   0  0  0  0  0  0  0  0  0  0  0  0
    4.0770   -8.9978   16.6935 C   0  0  0  0  0  0  0  0  0  0  0  0
    6.8259   -5.7761   17.5938 C   0  0  0  0  0  0  0  0  0  0  0  0
    7.2760   -5.2005   18.5881 O   0  0  0  0  0  0  0  0  0  0  0  0
    7.3968   -5.6992   16.3580 N   0  0  0  0  0  0  0  0  0  0  0  0
    6.9198   -6.2070   15.6624 H   0  0  0  0  0  0  0  0  0  0  0  0
    8.5831   -5.0033   15.8786 C   0  0  0  0  0  0  0  0  0  0  0  0
    8.8253   -5.4262   14.4209 C   0  0  0  0  0  0  0  0  0  0  0  0
    9.7303   -5.3216   16.6065 C   0  0  0  0  0  0  0  0  0  0  0  0
    8.4589   -3.5382   15.8472 C   0  0  0  0  0  0  0  0  0  0  0  0
    5.4586  -10.5046   17.9406 C   0  0  0  0  0  0  0  0  0  0  0  0
    6.9504  -10.7485   18.2096 C   0  0  0  0  0  0  0  0  0  0  0  0
    7.5390  -10.6427   19.4993 C   0  0  0  0  0  0  0  0  0  0  0  0
    8.9278  -10.8589   19.7905 N   0  0  0  0  0  0  0  0  0  0  0  0
    9.6812  -11.1979   18.6320 C   0  0  0  0  0  0  0  0  0  0  0  0
    9.1554  -11.3199   17.3252 C   0  0  0  0  0  0  0  0  0  0  0  0
    7.7679  -11.0897   17.1137 C   0  0  0  0  0  0  0  0  0  0  0  0
    4.6743   -2.9913   15.0607 C   0  0  0  0  0  0  0  0  0  0  0  0
    4.0497   -2.1540   13.9371 C   0  0  0  0  0  0  0  0  0  0  0  0
    5.0982   -1.7903   12.8445 C   0  0  0  0  0  0  0  0  0  0  0  0
    5.3725   -2.5734   11.9045 O   0  0  0  0  0  0  0  0  0  0  0  0
    5.6967   -0.6164   13.0319 N   0  0  0  0  0  0  0  0  0  0  0  0
    5.4061   -0.0635   13.7928 H   0  0  0  0  0  0  0  0  0  0  0  0
    6.7597   -0.1020   12.1733 C   0  0  0  0  0  0  0  0  0  0  0  0
    8.0069    0.2413   12.9885 C   0  0  0  0  0  0  0  0  0  0  0  0
    7.6540    0.6756   14.3043 O   0  0  0  0  0  0  0  0  0  0  0  0
    8.7437    1.2776   12.1782 C   0  0  0  0  0  0  0  0  0  0  0  0
    7.7756    2.1294   11.4101 C   0  0  0  0  0  0  0  0  0  0  0  0
    7.7737    3.3734   10.7984 C   0  0  0  0  0  0  0  0  0  0  0  0
    6.5847    3.8050   10.1595 C   0  0  0  0  0  0  0  0  0  0  0  0
    5.4098    2.9900   10.1532 C   0  0  0  0  0  0  0  0  0  0  0  0
    5.3875    1.7265   10.7678 C   0  0  0  0  0  0  0  0  0  0  0  0
    6.4919    1.2196   11.4187 C   0  0  0  0  0  0  0  0  0  0  0  0
    7.0727    1.4498   14.2442 H   0  0  0  0  0  0  0  0  0  0  0  0
    3.4080   -0.8436   14.4882 C   0  0  0  0  0  0  0  0  0  0  0  0
    2.1821   -0.4076   13.7485 C   0  0  0  0  0  0  0  0  0  0  0  0
    0.8768   -0.7590   14.2172 C   0  0  0  0  0  0  0  0  0  0  0  0
   -0.2671   -0.3471   13.4889 C   0  0  0  0  0  0  0  0  0  0  0  0
   -0.0979    0.4177   12.2899 C   0  0  0  0  0  0  0  0  0  0  0  0
    1.2049    0.7689   11.8241 C   0  0  0  0  0  0  0  0  0  0  0  0
    2.3401    0.3522   12.5587 C   0  0  0  0  0  0  0  0  0  0  0  0
  5  6  1  0  0  0
  5 10  1  0  0  0
  5 19  1  0  0  0
  6  7  1  0  0  0
  7 11  1  0  0  0
  7  8  1  0  0  0
 11 12  2  0  0  0
 11 13  1  0  0  0
 13 15  1  0  0  0
 15 16  1  0  0  0
 15 17  1  0  0  0
 15 18  1  0  0  0
  8  9  1  0  0  0
  8  4  1  0  0  0
  9 10  1  0  0  0
  4  1  1  0  0  0
  1  2  1  0  0  0
  1 26  1  0  0  0
 26 27  1  0  0  0
 27 43  1  0  0  0
 27 28  1  0  0  0
 43 44  1  0  0  0
 44 45  2  0  0  0
 44 49  1  0  0  0
 45 46  1  0  0  0
 46 47  2  0  0  0
 47 48  1  0  0  0
 48 49  2  0  0  0
 28 29  2  0  0  0
 28 30  1  0  0  0
 30 32  1  0  0  0
 32 33  1  0  0  0
 32 41  1  0  0  0
 33 34  1  0  0  0
 33 35  1  0  0  0
 35 36  1  0  0  0
 36 37  2  0  0  0
 36 41  1  0  0  0
 37 38  1  0  0  0
 38 39  2  0  0  0
 39 40  1  0  0  0
 40 41  2  0  0  0
 19 20  1  0  0  0
 20 21  1  0  0  0
 20 25  2  0  0  0
 21 22  2  0  0  0
 22 23  1  0  0  0
 23 24  2  0  0  0
 24 25  1  0  0  0
 13 14  1  0  0  0
  2  3  1  0  0  0
 30 31  1  0  0  0
 34 42  1  0  0  0
M  END
> <minimizedAffinity>
-10.45295

$$$$
1K6C_MK1_B_902


 49 53  0  0  0  0  0  0  0  0999 V2000
    3.8733   -4.7528   15.2578 C   0  0  0  0  0  0  0  0  0  0  0  0
    2.7700   -5.3749   14.6737 O   0  0  0  0  0  0  0  0  0  0  0  0
    1.9549   -4.9743   15.0144 H   0  0  0  0  0  0  0  0  0  0  0  0
    3.4997   -5.1476   16.6813 C   0  0  0  0  0  0  0  0  0  0  0  0
    7.2335   -6.9592   17.7151 N   0  0  0  0  0  0  0  0  0  0  0  0
    5.9271   -7.6279   18.0590 C   0  0  0  0  0  0  0  0  0  0  0  0
    4.6948   -7.3009   17.2254 C   0  0  0  0  0  0  0  0  0  0  0  0
    4.5967   -5.8005   17.4167 N   0  0  0  0  0  0  0  0  0  0  0  0
    5.8379   -4.9806   17.2042 C   0  0  0  0  0  0  0  0  0  0  0  0
    7.0653   -5.5718   17.9113 C   0  0  0  0  0  0  0  0  0  0  0  0
    3.5411   -8.0840   17.7825 C   0  0  0  0  0  0  0  0  0  0  0  0
    2.8486   -7.5688   18.6642 O   0  0  0  0  0  0  0  0  0  0  0  0
    3.3112   -9.3294   17.2775 N   0  0  0  0  0  0  0  0  0  0  0  0
    3.9522   -9.6066   16.5836 H   0  0  0  0  0  0  0  0  0  0  0  0
    2.2908  -10.3247   17.5767 C   0  0  0  0  0  0  0  0  0  0  0  0
    2.6969  -11.0472   18.8712 C   0  0  0  0  0  0  0  0  0  0  0  0
    2.1642  -11.2898   16.5768 C   0  0  0  0  0  0  0  0  0  0  0  0
    0.9552   -9.7679   17.8400 C   0  0  0  0  0  0  0  0  0  0  0  0
    8.3977   -7.4937   18.4265 C   0  0  0  0  0  0  0  0  0  0  0  0
    8.6723   -9.0043   18.4440 C   0  0  0  0  0  0  0  0  0  0  0  0
    8.7237   -9.7750   19.6374 C   0  0  0  0  0  0  0  0  0  0  0  0
    8.9809  -11.1860   19.6956 N   0  0  0  0  0  0  0  0  0  0  0  0
    9.1863  -11.7560   18.4082 C   0  0  0  0  0  0  0  0  0  0  0  0
    9.1469  -11.0450   17.1867 C   0  0  0  0  0  0  0  0  0  0  0  0
    8.8867   -9.6469   17.2084 C   0  0  0  0  0  0  0  0  0  0  0  0
    3.8220   -3.2995   14.7584 C   0  0  0  0  0  0  0  0  0  0  0  0
    5.0652   -2.6635   14.1230 C   0  0  0  0  0  0  0  0  0  0  0  0
    4.7228   -1.9597   12.7765 C   0  0  0  0  0  0  0  0  0  0  0  0
    5.1580   -2.3834   11.6797 O   0  0  0  0  0  0  0  0  0  0  0  0
    3.9831   -0.8612   12.9078 N   0  0  0  0  0  0  0  0  0  0  0  0
    3.6770   -0.6127   13.8099 H   0  0  0  0  0  0  0  0  0  0  0  0
    3.5995   -0.0036   11.7901 C   0  0  0  0  0  0  0  0  0  0  0  0
    4.4935    1.2346   11.7155 C   0  0  0  0  0  0  0  0  0  0  0  0
    4.9254    1.6326   13.0192 O   0  0  0  0  0  0  0  0  0  0  0  0
    3.6760    2.2775   10.9959 C   0  0  0  0  0  0  0  0  0  0  0  0
    2.2170    2.1046   11.3027 C   0  0  0  0  0  0  0  0  0  0  0  0
    1.0647    2.8734   11.2472 C   0  0  0  0  0  0  0  0  0  0  0  0
   -0.1569    2.2812   11.6535 C   0  0  0  0  0  0  0  0  0  0  0  0
   -0.2057    0.9311   12.1220 C   0  0  0  0  0  0  0  0  0  0  0  0
    0.9492    0.1333   12.1883 C   0  0  0  0  0  0  0  0  0  0  0  0
    2.1855    0.6189   11.8197 C   0  0  0  0  0  0  0  0  0  0  0  0
    4.1513    1.8145   13.5747 H   0  0  0  0  0  0  0  0  0  0  0  0
    6.1872   -3.7191   13.8789 C   0  0  0  0  0  0  0  0  0  0  0  0
    7.5135   -3.3446   14.4628 C   0  0  0  0  0  0  0  0  0  0  0  0
    7.8006   -1.9912   14.8271 C   0  0  0  0  0  0  0  0  0  0  0  0
    9.0702   -1.6606   15.3629 C   0  0  0  0  0  0  0  0  0  0  0  0
   10.0505   -2.6910   15.5321 C   0  0  0  0  0  0  0  0  0  0  0  0
    9.7624   -4.0413   15.1695 C   0  0  0  0  0  0  0  0  0  0  0  0
    8.4917   -4.3601   14.6352 C   0  0  0  0  0  0  0  0  0  0  0  0
  5  6  1  0  0  0
  5 10  1  0  0  0
  5 19  1  0  0  0
  6  7  1  0  0  0
  7 11  1  0  0  0
  7  8  1  0  0  0
 11 12  2  0  0  0
 11 13  1  0  0  0
 13 15  1  0  0  0
 15 16  1  0  0  0
 15 17  1  0  0  0
 15 18  1  0  0  0
  8  9  1  0  0  0
  8  4  1  0  0  0
  9 10  1  0  0  0
  4  1  1  0  0  0
  1  2  1  0  0  0
  1 26  1  0  0  0
 26 27  1  0  0  0
 27 43  1  0  0  0
 27 28  1  0  0  0
 43 44  1  0  0  0
 44 45  2  0  0  0
 44 49  1  0  0  0
 45 46  1  0  0  0
 46 47  2  0  0  0
 47 48  1  0  0  0
 48 49  2  0  0  0
 28 29  2  0  0  0
 28 30  1  0  0  0
 30 32  1  0  0  0
 32 33  1  0  0  0
 32 41  1  0  0  0
 33 34  1  0  0  0
 33 35  1  0  0  0
 35 36  1  0  0  0
 36 37  2  0  0  0
 36 41  1  0  0  0
 37 38  1  0  0  0
 38 39  2  0  0  0
 39 40  1  0  0  0
 40 41  2  0  0  0
 19 20  1  0  0  0
 20 21  1  0  0  0
 20 25  2  0  0  0
 21 22  2  0  0  0
 22 23  1  0  0  0
 23 24  2  0  0  0
 24 25  1  0  0  0
 13 14  1  0  0  0
  2  3  1  0  0  0
 30 31  1  0  0  0
 34 42  1  0  0  0
M  END
> <minimizedAffinity>
-10.12963

$$$$
1K6C_MK1_B_902


 49 53  0  0  0  0  0  0  0  0999 V2000
    7.1787    0.8001   13.2665 C   0  0  0  0  0  0  0  0  0  0  0  0
    7.0047    1.5917   14.4016 O   0  0  0  0  0  0  0  0  0  0  0  0
    6.2069    1.3078   14.8747 H   0  0  0  0  0  0  0  0  0  0  0  0
    5.8599    1.2121   12.6240 C   0  0  0  0  0  0  0  0  0  0  0  0
    7.1795    3.0510    8.9951 N   0  0  0  0  0  0  0  0  0  0  0  0
    5.7250    3.0729    9.3896 C   0  0  0  0  0  0  0  0  0  0  0  0
    5.3637    2.9493   10.8643 C   0  0  0  0  0  0  0  0  0  0  0  0
    5.9947    1.6163   11.2137 N   0  0  0  0  0  0  0  0  0  0  0  0
    7.4234    1.3856   10.8091 C   0  0  0  0  0  0  0  0  0  0  0  0
    7.6981    1.7883    9.3537 C   0  0  0  0  0  0  0  0  0  0  0  0
    3.8668    2.9866   10.9761 C   0  0  0  0  0  0  0  0  0  0  0  0
    3.3346    3.9956   11.4464 O   0  0  0  0  0  0  0  0  0  0  0  0
    3.1665    1.8999   10.5428 N   0  0  0  0  0  0  0  0  0  0  0  0
    3.7299    1.1692   10.1995 H   0  0  0  0  0  0  0  0  0  0  0  0
    1.7375    1.6223   10.4948 C   0  0  0  0  0  0  0  0  0  0  0  0
    1.0968    2.6004    9.4972 C   0  0  0  0  0  0  0  0  0  0  0  0
    1.1077    1.8034   11.7268 C   0  0  0  0  0  0  0  0  0  0  0  0
    1.3940    0.2791   10.0040 C   0  0  0  0  0  0  0  0  0  0  0  0
    7.4360    3.3899    7.5928 C   0  0  0  0  0  0  0  0  0  0  0  0
    8.6900    4.1849    7.2017 C   0  0  0  0  0  0  0  0  0  0  0  0
    9.0210    4.5102    5.8580 C   0  0  0  0  0  0  0  0  0  0  0  0
   10.1840    5.2471    5.4520 N   0  0  0  0  0  0  0  0  0  0  0  0
   10.9979    5.6312    6.5540 C   0  0  0  0  0  0  0  0  0  0  0  0
   10.7233    5.3400    7.9101 C   0  0  0  0  0  0  0  0  0  0  0  0
    9.5507    4.6040    8.2357 C   0  0  0  0  0  0  0  0  0  0  0  0
    7.4333   -0.6176   13.8045 C   0  0  0  0  0  0  0  0  0  0  0  0
    6.3404   -1.3426   14.6006 C   0  0  0  0  0  0  0  0  0  0  0  0
    6.9391   -2.1477   15.7917 C   0  0  0  0  0  0  0  0  0  0  0  0
    6.6056   -1.9189   16.9784 O   0  0  0  0  0  0  0  0  0  0  0  0
    7.8555   -3.0455   15.4375 N   0  0  0  0  0  0  0  0  0  0  0  0
    8.0432   -3.1637   14.4783 H   0  0  0  0  0  0  0  0  0  0  0  0
    8.5983   -3.8652   16.3904 C   0  0  0  0  0  0  0  0  0  0  0  0
    9.8570   -4.4496   15.7486 C   0  0  0  0  0  0  0  0  0  0  0  0
    9.6547   -4.6911   14.3539 O   0  0  0  0  0  0  0  0  0  0  0  0
   10.1756   -5.6895   16.5453 C   0  0  0  0  0  0  0  0  0  0  0  0
    8.9146   -6.3259   17.0529 C   0  0  0  0  0  0  0  0  0  0  0  0
    8.5142   -7.5698   17.5156 C   0  0  0  0  0  0  0  0  0  0  0  0
    7.1628   -7.7364   17.9081 C   0  0  0  0  0  0  0  0  0  0  0  0
    6.2277   -6.6582   17.8195 C   0  0  0  0  0  0  0  0  0  0  0  0
    6.6100   -5.3893   17.3523 C   0  0  0  0  0  0  0  0  0  0  0  0
    7.9002   -5.1281   16.9431 C   0  0  0  0  0  0  0  0  0  0  0  0
    8.9084   -5.2994   14.2360 H   0  0  0  0  0  0  0  0  0  0  0  0
    5.5151   -2.3065   13.6936 C   0  0  0  0  0  0  0  0  0  0  0  0
    4.2832   -2.8515   14.3459 C   0  0  0  0  0  0  0  0  0  0  0  0
    3.2030   -1.9886   14.7137 C   0  0  0  0  0  0  0  0  0  0  0  0
    2.0546   -2.5282   15.3450 C   0  0  0  0  0  0  0  0  0  0  0  0
    1.9930   -3.9350   15.6061 C   0  0  0  0  0  0  0  0  0  0  0  0
    3.0708   -4.7952   15.2373 C   0  0  0  0  0  0  0  0  0  0  0  0
    4.2127   -4.2459   14.6079 C   0  0  0  0  0  0  0  0  0  0  0  0
  5  6  1  0  0  0
  5 10  1  0  0  0
  5 19  1  0  0  0
  6  7  1  0  0  0
  7 11  1  0  0  0
  7  8  1  0  0  0
 11 12  2  0  0  0
 11 13  1  0  0  0
 13 15  1  0  0  0
 15 16  1  0  0  0
 15 17  1  0  0  0
 15 18  1  0  0  0
  8  9  1  0  0  0
  8  4  1  0  0  0
  9 10  1  0  0  0
  4  1  1  0  0  0
  1  2  1  0  0  0
  1 26  1  0  0  0
 26 27  1  0  0  0
 27 43  1  0  0  0
 27 28  1  0  0  0
 43 44  1  0  0  0
 44 45  2  0  0  0
 44 49  1  0  0  0
 45 46  1  0  0  0
 46 47  2  0  0  0
 47 48  1  0  0  0
 48 49  2  0  0  0
 28 29  2  0  0  0
 28 30  1  0  0  0
 30 32  1  0  0  0
 32 33  1  0  0  0
 32 41  1  0  0  0
 33 34  1  0  0  0
 33 35  1  0  0  0
 35 36  1  0  0  0
 36 37  2  0  0  0
 36 41  1  0  0  0
 37 38  1  0  0  0
 38 39  2  0  0  0
 39 40  1  0  0  0
 40 41  2  0  0  0
 19 20  1  0  0  0
 20 21  1  0  0  0
 20 25  2  0  0  0
 21 22  2  0  0  0
 22 23  1  0  0  0
 23 24  2  0  0  0
 24 25  1  0  0  0
 13 14  1  0  0  0
  2  3  1  0  0  0
 30 31  1  0  0  0
 34 42  1  0  0  0
M  END
> <minimizedAffinity>
-10.05826

$$$$
1K6C_MK1_B_902


 49 53  0  0  0  0  0  0  0  0999 V2000
    4.9438   -1.9500   12.5075 C   0  0  0  0  0  0  0  0  0  0  0  0
    5.4955   -2.8782   11.6245 O   0  0  0  0  0  0  0  0  0  0  0  0
    6.2293   -3.3409   12.0585 H   0  0  0  0  0  0  0  0  0  0  0  0
    6.2266   -1.1412   12.6555 C   0  0  0  0  0  0  0  0  0  0  0  0
    7.1896    2.7381   11.1340 N   0  0  0  0  0  0  0  0  0  0  0  0
    5.7839    2.4010   11.5605 C   0  0  0  0  0  0  0  0  0  0  0  0
    5.5748    1.2942   12.5861 C   0  0  0  0  0  0  0  0  0  0  0  0
    6.2208    0.1152   11.8861 N   0  0  0  0  0  0  0  0  0  0  0  0
    7.5971    0.3039   11.3130 C   0  0  0  0  0  0  0  0  0  0  0  0
    7.7257    1.5981   10.4979 C   0  0  0  0  0  0  0  0  0  0  0  0
    4.0980    1.1563   12.8199 C   0  0  0  0  0  0  0  0  0  0  0  0
    3.6944    1.0094   13.9767 O   0  0  0  0  0  0  0  0  0  0  0  0
    3.2720    1.2084   11.7365 N   0  0  0  0  0  0  0  0  0  0  0  0
    3.7410    1.3226   10.8784 H   0  0  0  0  0  0  0  0  0  0  0  0
    1.8228    1.1260   11.6161 C   0  0  0  0  0  0  0  0  0  0  0  0
    1.4946    0.4819   10.2597 C   0  0  0  0  0  0  0  0  0  0  0  0
    1.2034    2.3760   11.6505 C   0  0  0  0  0  0  0  0  0  0  0  0
    1.1754    0.2722   12.6235 C   0  0  0  0  0  0  0  0  0  0  0  0
    7.3048    3.9485   10.3160 C   0  0  0  0  0  0  0  0  0  0  0  0
    7.2917    3.8554    8.7834 C   0  0  0  0  0  0  0  0  0  0  0  0
    6.1274    3.5431    8.0299 C   0  0  0  0  0  0  0  0  0  0  0  0
    6.0753    3.4432    6.5989 N   0  0  0  0  0  0  0  0  0  0  0  0
    7.3363    3.6927    5.9890 C   0  0  0  0  0  0  0  0  0  0  0  0
    8.5279    4.0087    6.6814 C   0  0  0  0  0  0  0  0  0  0  0  0
    8.5022    4.0894    8.1011 C   0  0  0  0  0  0  0  0  0  0  0  0
    4.3550   -2.7905   13.6525 C   0  0  0  0  0  0  0  0  0  0  0  0
    3.9920   -2.1222   14.9849 C   0  0  0  0  0  0  0  0  0  0  0  0
    5.1622   -2.2141   16.0084 C   0  0  0  0  0  0  0  0  0  0  0  0
    5.2727   -1.4060   16.9607 O   0  0  0  0  0  0  0  0  0  0  0  0
    6.0400   -3.1800   15.7482 N   0  0  0  0  0  0  0  0  0  0  0  0
    5.8630   -3.7745   14.9837 H   0  0  0  0  0  0  0  0  0  0  0  0
    7.2506   -3.4082   16.5320 C   0  0  0  0  0  0  0  0  0  0  0  0
    8.5034   -3.2141   15.6772 C   0  0  0  0  0  0  0  0  0  0  0  0
    8.2563   -3.5803   14.3173 O   0  0  0  0  0  0  0  0  0  0  0  0
    9.5775   -4.0335   16.3469 C   0  0  0  0  0  0  0  0  0  0  0  0
    8.9818   -5.2456   17.0015 C   0  0  0  0  0  0  0  0  0  0  0  0
    9.4198   -6.4824   17.4491 C   0  0  0  0  0  0  0  0  0  0  0  0
    8.4708   -7.3602   18.0297 C   0  0  0  0  0  0  0  0  0  0  0  0
    7.0936   -6.9922   18.1425 C   0  0  0  0  0  0  0  0  0  0  0  0
    6.6264   -5.7449   17.6946 C   0  0  0  0  0  0  0  0  0  0  0  0
    7.4701   -4.8236   17.1118 C   0  0  0  0  0  0  0  0  0  0  0  0
    7.9678   -4.5056   14.2790 H   0  0  0  0  0  0  0  0  0  0  0  0
    2.7113   -2.7540   15.6124 C   0  0  0  0  0  0  0  0  0  0  0  0
    2.8717   -4.1878   16.0107 C   0  0  0  0  0  0  0  0  0  0  0  0
    3.0058   -4.5581   17.3861 C   0  0  0  0  0  0  0  0  0  0  0  0
    3.1728   -5.9215   17.7350 C   0  0  0  0  0  0  0  0  0  0  0  0
    3.2048   -6.9117   16.7008 C   0  0  0  0  0  0  0  0  0  0  0  0
    3.0694   -6.5412   15.3289 C   0  0  0  0  0  0  0  0  0  0  0  0
    2.9036   -5.1771   14.9918 C   0  0  0  0  0  0  0  0  0  0  0  0
  5  6  1  0  0  0
  5 10  1  0  0  0
  5 19  1  0  0  0
  6  7  1  0  0  0
  7 11  1  0  0  0
  7  8  1  0  0  0
 11 12  2  0  0  0
 11 13  1  0  0  0
 13 15  1  0  0  0
 15 16  1  0  0  0
 15 17  1  0  0  0
 15 18  1  0  0  0
  8  9  1  0  0  0
  8  4  1  0  0  0
  9 10  1  0  0  0
  4  1  1  0  0  0
  1  2  1  0  0  0
  1 26  1  0  0  0
 26 27  1  0  0  0
 27 43  1  0  0  0
 27 28  1  0  0  0
 43 44  1  0  0  0
 44 45  2  0  0  0
 44 49  1  0  0  0
 45 46  1  0  0  0
 46 47  2  0  0  0
 47 48  1  0  0  0
 48 49  2  0  0  0
 28 29  2  0  0  0
 28 30  1  0  0  0
 30 32  1  0  0  0
 32 33  1  0  0  0
 32 41  1  0  0  0
 33 34  1  0  0  0
 33 35  1  0  0  0
 35 36  1  0  0  0
 36 37  2  0  0  0
 36 41  1  0  0  0
 37 38  1  0  0  0
 38 39  2  0  0  0
 39 40  1  0  0  0
 40 41  2  0  0  0
 19 20  1  0  0  0
 20 21  1  0  0  0
 20 25  2  0  0  0
 21 22  2  0  0  0
 22 23  1  0  0  0
 23 24  2  0  0  0
 24 25  1  0  0  0
 13 14  1  0  0  0
  2  3  1  0  0  0
 30 31  1  0  0  0
 34 42  1  0  0  0
M  END
> <minimizedAffinity>
-10.00278

$$$$
1K6C_MK1_B_902


 49 53  0  0  0  0  0  0  0  0999 V2000
    6.2408    1.3605   13.2129 C   0  0  0  0  0  0  0  0  0  0  0  0
    6.2246    1.3384   14.6074 O   0  0  0  0  0  0  0  0  0  0  0  0
    7.0375    0.9218   14.9337 H   0  0  0  0  0  0  0  0  0  0  0  0
    6.3001   -0.1549   13.0650 C   0  0  0  0  0  0  0  0  0  0  0  0
    9.0833   -2.6971   15.0855 N   0  0  0  0  0  0  0  0  0  0  0  0
    7.6658   -2.5556   15.5777 C   0  0  0  0  0  0  0  0  0  0  0  0
    6.5835   -2.1458   14.5871 C   0  0  0  0  0  0  0  0  0  0  0  0
    7.1176   -0.8143   14.0982 N   0  0  0  0  0  0  0  0  0  0  0  0
    8.5513   -0.7510   13.6527 C   0  0  0  0  0  0  0  0  0  0  0  0
    9.5089   -1.4259   14.6444 C   0  0  0  0  0  0  0  0  0  0  0  0
    5.2826   -2.0676   15.3328 C   0  0  0  0  0  0  0  0  0  0  0  0
    5.1262   -1.1600   16.1538 O   0  0  0  0  0  0  0  0  0  0  0  0
    4.3313   -3.0048   15.0577 N   0  0  0  0  0  0  0  0  0  0  0  0
    4.6042   -3.6693   14.3846 H   0  0  0  0  0  0  0  0  0  0  0  0
    2.9852   -3.2027   15.5776 C   0  0  0  0  0  0  0  0  0  0  0  0
    2.4869   -4.5747   15.0960 C   0  0  0  0  0  0  0  0  0  0  0  0
    2.0810   -2.2420   15.1228 C   0  0  0  0  0  0  0  0  0  0  0  0
    2.8991   -3.2464   17.0451 C   0  0  0  0  0  0  0  0  0  0  0  0
   10.0067   -3.2987   16.0513 C   0  0  0  0  0  0  0  0  0  0  0  0
    9.7751   -4.7279   16.5624 C   0  0  0  0  0  0  0  0  0  0  0  0
    9.6622   -5.0556   17.9411 C   0  0  0  0  0  0  0  0  0  0  0  0
    9.4497   -6.3776   18.4582 N   0  0  0  0  0  0  0  0  0  0  0  0
    9.3612   -7.3572   17.4301 C   0  0  0  0  0  0  0  0  0  0  0  0
    9.4638   -7.0954   16.0444 C   0  0  0  0  0  0  0  0  0  0  0  0
    9.6754   -5.7588   15.6069 C   0  0  0  0  0  0  0  0  0  0  0  0
    7.4178    2.2779   12.8425 C   0  0  0  0  0  0  0  0  0  0  0  0
    7.4348    2.9918   11.4847 C   0  0  0  0  0  0  0  0  0  0  0  0
    6.1312    3.8119   11.2533 C   0  0  0  0  0  0  0  0  0  0  0  0
    6.0306    5.0088   11.6130 O   0  0  0  0  0  0  0  0  0  0  0  0
    5.1416    3.1180   10.6962 N   0  0  0  0  0  0  0  0  0  0  0  0
    5.3181    2.1851   10.4359 H   0  0  0  0  0  0  0  0  0  0  0  0
    3.8092    3.6613   10.4492 C   0  0  0  0  0  0  0  0  0  0  0  0
    2.7244    2.6686   10.8683 C   0  0  0  0  0  0  0  0  0  0  0  0
    3.1692    1.3211   10.6926 O   0  0  0  0  0  0  0  0  0  0  0  0
    1.5128    3.0263   10.0451 C   0  0  0  0  0  0  0  0  0  0  0  0
    1.9275    3.5598    8.7049 C   0  0  0  0  0  0  0  0  0  0  0  0
    1.3561    3.7303    7.4534 C   0  0  0  0  0  0  0  0  0  0  0  0
    2.1489    4.2994    6.4259 C   0  0  0  0  0  0  0  0  0  0  0  0
    3.5074    4.6780    6.6626 C   0  0  0  0  0  0  0  0  0  0  0  0
    4.1082    4.5134    7.9221 C   0  0  0  0  0  0  0  0  0  0  0  0
    3.4218    3.9653    8.9845 C   0  0  0  0  0  0  0  0  0  0  0  0
    3.4093    1.1784    9.7637 H   0  0  0  0  0  0  0  0  0  0  0  0
    7.6213    1.9832   10.3096 C   0  0  0  0  0  0  0  0  0  0  0  0
    7.8431    2.6319    8.9792 C   0  0  0  0  0  0  0  0  0  0  0  0
    7.1927    2.1399    7.8037 C   0  0  0  0  0  0  0  0  0  0  0  0
    7.4328    2.7625    6.5535 C   0  0  0  0  0  0  0  0  0  0  0  0
    8.3268    3.8794    6.4858 C   0  0  0  0  0  0  0  0  0  0  0  0
    8.9741    4.3704    7.6596 C   0  0  0  0  0  0  0  0  0  0  0  0
    8.7274    3.7410    8.9026 C   0  0  0  0  0  0  0  0  0  0  0  0
  5  6  1  0  0  0
  5 10  1  0  0  0
  5 19  1  0  0  0
  6  7  1  0  0  0
  7 11  1  0  0  0
  7  8  1  0  0  0
 11 12  2  0  0  0
 11 13  1  0  0  0
 13 15  1  0  0  0
 15 16  1  0  0  0
 15 17  1  0  0  0
 15 18  1  0  0  0
  8  9  1  0  0  0
  8  4  1  0  0  0
  9 10  1  0  0  0
  4  1  1  0  0  0
  1  2  1  0  0  0
  1 26  1  0  0  0
 26 27  1  0  0  0
 27 43  1  0  0  0
 27 28  1  0  0  0
 43 44  1  0  0  0
 44 45  2  0  0  0
 44 49  1  0  0  0
 45 46  1  0  0  0
 46 47  2  0  0  0
 47 48  1  0  0  0
 48 49  2  0  0  0
 28 29  2  0  0  0
 28 30  1  0  0  0
 30 32  1  0  0  0
 32 33  1  0  0  0
 32 41  1  0  0  0
 33 34  1  0  0  0
 33 35  1  0  0  0
 35 36  1  0  0  0
 36 37  2  0  0  0
 36 41  1  0  0  0
 37 38  1  0  0  0
 38 39  2  0  0  0
 39 40  1  0  0  0
 40 41  2  0  0  0
 19 20  1  0  0  0
 20 21  1  0  0  0
 20 25  2  0  0  0
 21 22  2  0  0  0
 22 23  1  0  0  0
 23 24  2  0  0  0
 24 25  1  0  0  0
 13 14  1  0  0  0
  2  3  1  0  0  0
 30 31  1  0  0  0
 34 42  1  0  0  0
M  END
> <minimizedAffinity>
-9.67112

$$$$
1K6C_MK1_B_902


 49 53  0  0  0  0  0  0  0  0999 V2000
    7.6660    0.8338   12.9928 C   0  0  0  0  0  0  0  0  0  0  0  0
    8.3664    1.8367   13.6631 O   0  0  0  0  0  0  0  0  0  0  0  0
    9.3194    1.6777   13.5779 H   0  0  0  0  0  0  0  0  0  0  0  0
    8.2165   -0.2980   13.8517 C   0  0  0  0  0  0  0  0  0  0  0  0
    4.9803   -1.7356   16.2501 N   0  0  0  0  0  0  0  0  0  0  0  0
    6.2536   -2.5302   16.1116 C   0  0  0  0  0  0  0  0  0  0  0  0
    7.5423   -1.7949   15.7663 C   0  0  0  0  0  0  0  0  0  0  0  0
    7.1691   -1.1447   14.4490 N   0  0  0  0  0  0  0  0  0  0  0  0
    5.8752   -0.3837   14.3806 C   0  0  0  0  0  0  0  0  0  0  0  0
    4.7004   -1.1588   14.9929 C   0  0  0  0  0  0  0  0  0  0  0  0
    8.6431   -2.8123   15.6774 C   0  0  0  0  0  0  0  0  0  0  0  0
    9.7240   -2.4717   15.1894 O   0  0  0  0  0  0  0  0  0  0  0  0
    8.3935   -4.0665   16.1502 N   0  0  0  0  0  0  0  0  0  0  0  0
    7.4828   -4.1892   16.5035 H   0  0  0  0  0  0  0  0  0  0  0  0
    9.2276   -5.2580   16.2283 C   0  0  0  0  0  0  0  0  0  0  0  0
   10.4695   -4.9144   17.0662 C   0  0  0  0  0  0  0  0  0  0  0  0
    9.6693   -5.6942   14.9785 C   0  0  0  0  0  0  0  0  0  0  0  0
    8.5975   -6.3992   16.9092 C   0  0  0  0  0  0  0  0  0  0  0  0
    3.8466   -2.4904   16.7909 C   0  0  0  0  0  0  0  0  0  0  0  0
    3.5164   -3.8898   16.2525 C   0  0  0  0  0  0  0  0  0  0  0  0
    2.9646   -4.1203   14.9627 C   0  0  0  0  0  0  0  0  0  0  0  0
    2.6390   -5.4109   14.4254 N   0  0  0  0  0  0  0  0  0  0  0  0
    2.9285   -6.4678   15.3328 C   0  0  0  0  0  0  0  0  0  0  0  0
    3.4775   -6.3043   16.6255 C   0  0  0  0  0  0  0  0  0  0  0  0
    3.7739   -4.9933   17.0902 C   0  0  0  0  0  0  0  0  0  0  0  0
    8.0390    1.0092   11.5115 C   0  0  0  0  0  0  0  0  0  0  0  0
    7.4321    2.1610   10.6999 C   0  0  0  0  0  0  0  0  0  0  0  0
    6.0847    2.6450   11.3130 C   0  0  0  0  0  0  0  0  0  0  0  0
    5.9743    3.7650   11.8657 O   0  0  0  0  0  0  0  0  0  0  0  0
    5.1001    1.7526   11.2396 N   0  0  0  0  0  0  0  0  0  0  0  0
    5.2775    0.9029   10.7751 H   0  0  0  0  0  0  0  0  0  0  0  0
    3.7719    1.9620   11.8085 C   0  0  0  0  0  0  0  0  0  0  0  0
    3.1167    0.6310   12.1789 C   0  0  0  0  0  0  0  0  0  0  0  0
    3.5383   -0.4101   11.2941 O   0  0  0  0  0  0  0  0  0  0  0  0
    1.6320    0.8933   12.1530 C   0  0  0  0  0  0  0  0  0  0  0  0
    1.2993    1.9267   11.1165 C   0  0  0  0  0  0  0  0  0  0  0  0
    0.1823    2.3338   10.4035 C   0  0  0  0  0  0  0  0  0  0  0  0
    0.3270    3.4002    9.4816 C   0  0  0  0  0  0  0  0  0  0  0  0
    1.5915    4.0359    9.2771 C   0  0  0  0  0  0  0  0  0  0  0  0
    2.7375    3.6395    9.9871 C   0  0  0  0  0  0  0  0  0  0  0  0
    2.7006    2.6096   10.9026 C   0  0  0  0  0  0  0  0  0  0  0  0
    3.3118   -0.1706   10.3818 H   0  0  0  0  0  0  0  0  0  0  0  0
    7.2014    1.7540    9.2120 C   0  0  0  0  0  0  0  0  0  0  0  0
    7.7680    2.7217    8.2207 C   0  0  0  0  0  0  0  0  0  0  0  0
    7.5234    2.5668    6.8196 C   0  0  0  0  0  0  0  0  0  0  0  0
    8.0853    3.4880    5.9009 C   0  0  0  0  0  0  0  0  0  0  0  0
    8.8929    4.5643    6.3913 C   0  0  0  0  0  0  0  0  0  0  0  0
    9.1351    4.7187    7.7896 C   0  0  0  0  0  0  0  0  0  0  0  0
    8.5695    3.7931    8.6980 C   0  0  0  0  0  0  0  0  0  0  0  0
  5  6  1  0  0  0
  5 10  1  0  0  0
  5 19  1  0  0  0
  6  7  1  0  0  0
  7 11  1  0  0  0
  7  8  1  0  0  0
 11 12  2  0  0  0
 11 13  1  0  0  0
 13 15  1  0  0  0
 15 16  1  0  0  0
 15 17  1  0  0  0
 15 18  1  0  0  0
  8  9  1  0  0  0
  8  4  1  0  0  0
  9 10  1  0  0  0
  4  1  1  0  0  0
  1  2  1  0  0  0
  1 26  1  0  0  0
 26 27  1  0  0  0
 27 43  1  0  0  0
 27 28  1  0  0  0
 43 44  1  0  0  0
 44 45  2  0  0  0
 44 49  1  0  0  0
 45 46  1  0  0  0
 46 47  2  0  0  0
 47 48  1  0  0  0
 48 49  2  0  0  0
 28 29  2  0  0  0
 28 30  1  0  0  0
 30 32  1  0  0  0
 32 33  1  0  0  0
 32 41  1  0  0  0
 33 34  1  0  0  0
 33 35  1  0  0  0
 35 36  1  0  0  0
 36 37  2  0  0  0
 36 41  1  0  0  0
 37 38  1  0  0  0
 38 39  2  0  0  0
 39 40  1  0  0  0
 40 41  2  0  0  0
 19 20  1  0  0  0
 20 21  1  0  0  0
 20 25  2  0  0  0
 21 22  2  0  0  0
 22 23  1  0  0  0
 23 24  2  0  0  0
 24 25  1  0  0  0
 13 14  1  0  0  0
  2  3  1  0  0  0
 30 31  1  0  0  0
 34 42  1  0  0  0
M  END
> <minimizedAffinity>
-9.63926

$$$$
1K6C_MK1_B_902


 49 53  0  0  0  0  0  0  0  0999 V2000
    5.7286    0.7818   13.7565 C   0  0  0  0  0  0  0  0  0  0  0  0
    6.2391    0.6977   15.0519 O   0  0  0  0  0  0  0  0  0  0  0  0
    7.1672    0.4182   15.0161 H   0  0  0  0  0  0  0  0  0  0  0  0
    5.9529   -0.6914   13.4384 C   0  0  0  0  0  0  0  0  0  0  0  0
    8.9837   -3.1504   15.1875 N   0  0  0  0  0  0  0  0  0  0  0  0
    7.5649   -3.1925   15.6942 C   0  0  0  0  0  0  0  0  0  0  0  0
    6.4380   -2.7891   14.7519 C   0  0  0  0  0  0  0  0  0  0  0  0
    6.8400   -1.3711   14.3985 N   0  0  0  0  0  0  0  0  0  0  0  0
    8.2564   -1.1293   13.9588 C   0  0  0  0  0  0  0  0  0  0  0  0
    9.2839   -1.8071   14.8757 C   0  0  0  0  0  0  0  0  0  0  0  0
    5.1440   -2.9083   15.5043 C   0  0  0  0  0  0  0  0  0  0  0  0
    4.9154   -2.1093   16.4164 O   0  0  0  0  0  0  0  0  0  0  0  0
    4.2784   -3.8946   15.1342 N   0  0  0  0  0  0  0  0  0  0  0  0
    4.6027   -4.4576   14.3945 H   0  0  0  0  0  0  0  0  0  0  0  0
    2.9618   -4.2678   15.6330 C   0  0  0  0  0  0  0  0  0  0  0  0
    2.5192   -5.5430   14.8979 C   0  0  0  0  0  0  0  0  0  0  0  0
    1.9952   -3.2889   15.3991 C   0  0  0  0  0  0  0  0  0  0  0  0
    2.9259   -4.6066   17.0638 C   0  0  0  0  0  0  0  0  0  0  0  0
    9.9701   -3.7561   16.0861 C   0  0  0  0  0  0  0  0  0  0  0  0
    9.7014   -5.1258   16.7259 C   0  0  0  0  0  0  0  0  0  0  0  0
    9.5066   -5.3110   18.1219 C   0  0  0  0  0  0  0  0  0  0  0  0
    9.2572   -6.5734   18.7578 N   0  0  0  0  0  0  0  0  0  0  0  0
    9.2233   -7.6529   17.8316 C   0  0  0  0  0  0  0  0  0  0  0  0
    9.4079   -7.5340   16.4348 C   0  0  0  0  0  0  0  0  0  0  0  0
    9.6518   -6.2489   15.8764 C   0  0  0  0  0  0  0  0  0  0  0  0
    6.5308    1.9082   13.0844 C   0  0  0  0  0  0  0  0  0  0  0  0
    6.3232    2.2130   11.5952 C   0  0  0  0  0  0  0  0  0  0  0  0
    5.0307    1.5381   11.0480 C   0  0  0  0  0  0  0  0  0  0  0  0
    5.0544    0.4094   10.5025 O   0  0  0  0  0  0  0  0  0  0  0  0
    3.9340    2.2824   11.1677 N   0  0  0  0  0  0  0  0  0  0  0  0
    4.0107    3.1523   11.6222 H   0  0  0  0  0  0  0  0  0  0  0  0
    2.6235    1.8823   10.6634 C   0  0  0  0  0  0  0  0  0  0  0  0
    1.8209    3.0964   10.1946 C   0  0  0  0  0  0  0  0  0  0  0  0
    2.1480    4.2546   10.9667 O   0  0  0  0  0  0  0  0  0  0  0  0
    0.3740    2.6835   10.2923 C   0  0  0  0  0  0  0  0  0  0  0  0
    0.1776    1.7231   11.4288 C   0  0  0  0  0  0  0  0  0  0  0  0
   -0.8729    1.2699   12.2116 C   0  0  0  0  0  0  0  0  0  0  0  0
   -0.5939    0.3160   13.2218 C   0  0  0  0  0  0  0  0  0  0  0  0
    0.7358   -0.1615   13.4424 C   0  0  0  0  0  0  0  0  0  0  0  0
    1.8164    0.2844   12.6626 C   0  0  0  0  0  0  0  0  0  0  0  0
    1.6485    1.2140   11.6587 C   0  0  0  0  0  0  0  0  0  0  0  0
    1.9691    4.0795   11.9039 H   0  0  0  0  0  0  0  0  0  0  0  0
    7.5437    1.7517   10.7406 C   0  0  0  0  0  0  0  0  0  0  0  0
    7.6995    2.4941    9.4504 C   0  0  0  0  0  0  0  0  0  0  0  0
    8.2285    3.8232    9.4262 C   0  0  0  0  0  0  0  0  0  0  0  0
    8.3504    4.5100    8.1926 C   0  0  0  0  0  0  0  0  0  0  0  0
    7.9405    3.8601    6.9840 C   0  0  0  0  0  0  0  0  0  0  0  0
    7.4141    2.5334    7.0092 C   0  0  0  0  0  0  0  0  0  0  0  0
    7.2964    1.8571    8.2464 C   0  0  0  0  0  0  0  0  0  0  0  0
  5  6  1  0  0  0
  5 10  1  0  0  0
  5 19  1  0  0  0
  6  7  1  0  0  0
  7 11  1  0  0  0
  7  8  1  0  0  0
 11 12  2  0  0  0
 11 13  1  0  0  0
 13 15  1  0  0  0
 15 16  1  0  0  0
 15 17  1  0  0  0
 15 18  1  0  0  0
  8  9  1  0  0  0
  8  4  1  0  0  0
  9 10  1  0  0  0
  4  1  1  0  0  0
  1  2  1  0  0  0
  1 26  1  0  0  0
 26 27  1  0  0  0
 27 43  1  0  0  0
 27 28  1  0  0  0
 43 44  1  0  0  0
 44 45  2  0  0  0
 44 49  1  0  0  0
 45 46  1  0  0  0
 46 47  2  0  0  0
 47 48  1  0  0  0
 48 49  2  0  0  0
 28 29  2  0  0  0
 28 30  1  0  0  0
 30 32  1  0  0  0
 32 33  1  0  0  0
 32 41  1  0  0  0
 33 34  1  0  0  0
 33 35  1  0  0  0
 35 36  1  0  0  0
 36 37  2  0  0  0
 36 41  1  0  0  0
 37 38  1  0  0  0
 38 39  2  0  0  0
 39 40  1  0  0  0
 40 41  2  0  0  0
 19 20  1  0  0  0
 20 21  1  0  0  0
 20 25  2  0  0  0
 21 22  2  0  0  0
 22 23  1  0  0  0
 23 24  2  0  0  0
 24 25  1  0  0  0
 13 14  1  0  0  0
  2  3  1  0  0  0
 30 31  1  0  0  0
 34 42  1  0  0  0
M  END
> <minimizedAffinity>
-9.59017

$$$$
1K6C_MK1_B_902


 49 53  0  0  0  0  0  0  0  0999 V2000
    7.5506   -1.7401   15.1358 C   0  0  0  0  0  0  0  0  0  0  0  0
    8.4296   -0.6578   15.0956 O   0  0  0  0  0  0  0  0  0  0  0  0
    8.9671   -0.7076   14.2897 H   0  0  0  0  0  0  0  0  0  0  0  0
    8.6511   -2.7938   15.1517 C   0  0  0  0  0  0  0  0  0  0  0  0
    8.8259   -6.3394   17.5370 N   0  0  0  0  0  0  0  0  0  0  0  0
    7.5390   -5.5689   17.3887 C   0  0  0  0  0  0  0  0  0  0  0  0
    7.3414   -4.7037   16.1506 C   0  0  0  0  0  0  0  0  0  0  0  0
    8.5229   -3.7603   16.2563 N   0  0  0  0  0  0  0  0  0  0  0  0
    9.8809   -4.3563   16.4988 C   0  0  0  0  0  0  0  0  0  0  0  0
    9.8758   -5.4004   17.6239 C   0  0  0  0  0  0  0  0  0  0  0  0
    5.9968   -4.0444   16.2595 C   0  0  0  0  0  0  0  0  0  0  0  0
    5.8757   -3.0700   17.0068 O   0  0  0  0  0  0  0  0  0  0  0  0
    4.9733   -4.5542   15.5170 N   0  0  0  0  0  0  0  0  0  0  0  0
    5.2213   -5.3372   14.9743 H   0  0  0  0  0  0  0  0  0  0  0  0
    3.5800   -4.1523   15.3797 C   0  0  0  0  0  0  0  0  0  0  0  0
    2.9866   -4.0060   16.7899 C   0  0  0  0  0  0  0  0  0  0  0  0
    2.8094   -5.0914   14.6929 C   0  0  0  0  0  0  0  0  0  0  0  0
    3.3837   -2.8460   14.7332 C   0  0  0  0  0  0  0  0  0  0  0  0
    8.8360   -7.3025   18.6413 C   0  0  0  0  0  0  0  0  0  0  0  0
    8.7203   -8.8078   18.3616 C   0  0  0  0  0  0  0  0  0  0  0  0
    8.4981   -9.3463   17.0648 C   0  0  0  0  0  0  0  0  0  0  0  0
    8.3806  -10.7447   16.7634 N   0  0  0  0  0  0  0  0  0  0  0  0
    8.5103  -11.5642   17.9193 C   0  0  0  0  0  0  0  0  0  0  0  0
    8.7329  -11.0905   19.2328 C   0  0  0  0  0  0  0  0  0  0  0  0
    8.8378   -9.6896   19.4544 C   0  0  0  0  0  0  0  0  0  0  0  0
    6.6127   -1.5366   13.9345 C   0  0  0  0  0  0  0  0  0  0  0  0
    6.5474   -0.1722   13.2361 C   0  0  0  0  0  0  0  0  0  0  0  0
    5.3722   -0.1074   12.2163 C   0  0  0  0  0  0  0  0  0  0  0  0
    5.1354   -1.0463   11.4198 O   0  0  0  0  0  0  0  0  0  0  0  0
    4.6929    1.0369   12.2385 N   0  0  0  0  0  0  0  0  0  0  0  0
    4.9443    1.7129   12.9086 H   0  0  0  0  0  0  0  0  0  0  0  0
    3.5962    1.3467   11.3259 C   0  0  0  0  0  0  0  0  0  0  0  0
    3.5814    2.8335   10.9693 C   0  0  0  0  0  0  0  0  0  0  0  0
    4.0690    3.6247   12.0559 O   0  0  0  0  0  0  0  0  0  0  0  0
    2.1571    3.1390   10.5798 C   0  0  0  0  0  0  0  0  0  0  0  0
    1.2040    2.2795   11.3581 C   0  0  0  0  0  0  0  0  0  0  0  0
   -0.1384    2.2992   11.7034 C   0  0  0  0  0  0  0  0  0  0  0  0
   -0.6442    1.2348   12.4904 C   0  0  0  0  0  0  0  0  0  0  0  0
    0.2044    0.1718   12.9316 C   0  0  0  0  0  0  0  0  0  0  0  0
    1.5682    0.1315   12.5954 C   0  0  0  0  0  0  0  0  0  0  0  0
    2.1556    1.1218   11.8376 C   0  0  0  0  0  0  0  0  0  0  0  0
    3.5233    3.4659   12.8419 H   0  0  0  0  0  0  0  0  0  0  0  0
    7.8826    0.1598   12.5015 C   0  0  0  0  0  0  0  0  0  0  0  0
    7.8461    1.4340   11.7173 C   0  0  0  0  0  0  0  0  0  0  0  0
    7.6634    2.6940   12.3700 C   0  0  0  0  0  0  0  0  0  0  0  0
    7.6163    3.8842   11.6022 C   0  0  0  0  0  0  0  0  0  0  0  0
    7.7528    3.8070   10.1786 C   0  0  0  0  0  0  0  0  0  0  0  0
    7.9365    2.5494    9.5286 C   0  0  0  0  0  0  0  0  0  0  0  0
    7.9817    1.3673   10.3048 C   0  0  0  0  0  0  0  0  0  0  0  0
  5  6  1  0  0  0
  5 10  1  0  0  0
  5 19  1  0  0  0
  6  7  1  0  0  0
  7 11  1  0  0  0
  7  8  1  0  0  0
 11 12  2  0  0  0
 11 13  1  0  0  0
 13 15  1  0  0  0
 15 16  1  0  0  0
 15 17  1  0  0  0
 15 18  1  0  0  0
  8  9  1  0  0  0
  8  4  1  0  0  0
  9 10  1  0  0  0
  4  1  1  0  0  0
  1  2  1  0  0  0
  1 26  1  0  0  0
 26 27  1  0  0  0
 27 43  1  0  0  0
 27 28  1  0  0  0
 43 44  1  0  0  0
 44 45  2  0  0  0
 44 49  1  0  0  0
 45 46  1  0  0  0
 46 47  2  0  0  0
 47 48  1  0  0  0
 48 49  2  0  0  0
 28 29  2  0  0  0
 28 30  1  0  0  0
 30 32  1  0  0  0
 32 33  1  0  0  0
 32 41  1  0  0  0
 33 34  1  0  0  0
 33 35  1  0  0  0
 35 36  1  0  0  0
 36 37  2  0  0  0
 36 41  1  0  0  0
 37 38  1  0  0  0
 38 39  2  0  0  0
 39 40  1  0  0  0
 40 41  2  0  0  0
 19 20  1  0  0  0
 20 21  1  0  0  0
 20 25  2  0  0  0
 21 22  2  0  0  0
 22 23  1  0  0  0
 23 24  2  0  0  0
 24 25  1  0  0  0
 13 14  1  0  0  0
  2  3  1  0  0  0
 30 31  1  0  0  0
 34 42  1  0  0  0
M  END
> <minimizedAffinity>
-9.49650

$$$$
1K6C_MK1_B_902


 49 53  0  0  0  0  0  0  0  0999 V2000
    5.0728    0.3775   13.9430 C   0  0  0  0  0  0  0  0  0  0  0  0
    6.3547    0.8900   13.7442 O   0  0  0  0  0  0  0  0  0  0  0  0
    6.5849    0.8296   12.8039 H   0  0  0  0  0  0  0  0  0  0  0  0
    5.4193   -1.0207   13.4463 C   0  0  0  0  0  0  0  0  0  0  0  0
    3.7717   -3.2023   16.7354 N   0  0  0  0  0  0  0  0  0  0  0  0
    5.2515   -3.2318   16.4505 C   0  0  0  0  0  0  0  0  0  0  0  0
    5.8760   -2.0649   15.6962 C   0  0  0  0  0  0  0  0  0  0  0  0
    5.0804   -2.0857   14.4063 N   0  0  0  0  0  0  0  0  0  0  0  0
    3.5822   -2.1503   14.5035 C   0  0  0  0  0  0  0  0  0  0  0  0
    3.0997   -3.2186   15.4945 C   0  0  0  0  0  0  0  0  0  0  0  0
    7.3414   -2.3509   15.5374 C   0  0  0  0  0  0  0  0  0  0  0  0
    8.1180   -1.4006   15.4092 O   0  0  0  0  0  0  0  0  0  0  0  0
    7.7432   -3.6537   15.5507 N   0  0  0  0  0  0  0  0  0  0  0  0
    7.0080   -4.3002   15.6540 H   0  0  0  0  0  0  0  0  0  0  0  0
    9.0611   -4.2640   15.4400 C   0  0  0  0  0  0  0  0  0  0  0  0
    9.4601   -4.7880   16.8288 C   0  0  0  0  0  0  0  0  0  0  0  0
   10.0442   -3.3621   15.0309 C   0  0  0  0  0  0  0  0  0  0  0  0
    9.1186   -5.4318   14.5479 C   0  0  0  0  0  0  0  0  0  0  0  0
    3.3050   -4.2522   17.6448 C   0  0  0  0  0  0  0  0  0  0  0  0
    3.8392   -5.6860   17.5167 C   0  0  0  0  0  0  0  0  0  0  0  0
    4.8597   -6.2167   18.3521 C   0  0  0  0  0  0  0  0  0  0  0  0
    5.3878   -7.5484   18.2616 N   0  0  0  0  0  0  0  0  0  0  0  0
    4.7758   -8.3081   17.2259 C   0  0  0  0  0  0  0  0  0  0  0  0
    3.7575   -7.8390   16.3643 C   0  0  0  0  0  0  0  0  0  0  0  0
    3.2848   -6.5060   16.5138 C   0  0  0  0  0  0  0  0  0  0  0  0
    4.1404    1.3257   13.1712 C   0  0  0  0  0  0  0  0  0  0  0  0
    4.1356    1.3145   11.6371 C   0  0  0  0  0  0  0  0  0  0  0  0
    3.9477    2.7469   11.0552 C   0  0  0  0  0  0  0  0  0  0  0  0
    3.6978    3.7315   11.7901 O   0  0  0  0  0  0  0  0  0  0  0  0
    4.0257    2.8113    9.7282 N   0  0  0  0  0  0  0  0  0  0  0  0
    4.2384    1.9861    9.2351 H   0  0  0  0  0  0  0  0  0  0  0  0
    3.8140    4.0359    8.9620 C   0  0  0  0  0  0  0  0  0  0  0  0
    2.4027    4.0800    8.3753 C   0  0  0  0  0  0  0  0  0  0  0  0
    1.9331    2.7637    8.0734 O   0  0  0  0  0  0  0  0  0  0  0  0
    2.4948    4.9880    7.1750 C   0  0  0  0  0  0  0  0  0  0  0  0
    3.8488    4.8787    6.5366 C   0  0  0  0  0  0  0  0  0  0  0  0
    4.4217    5.1572    5.3054 C   0  0  0  0  0  0  0  0  0  0  0  0
    5.8009    4.8830    5.1299 C   0  0  0  0  0  0  0  0  0  0  0  0
    6.5845    4.3216    6.1861 C   0  0  0  0  0  0  0  0  0  0  0  0
    6.0254    4.0296    7.4418 C   0  0  0  0  0  0  0  0  0  0  0  0
    4.6924    4.2562    7.7099 C   0  0  0  0  0  0  0  0  0  0  0  0
    2.5404    2.3395    7.4471 H   0  0  0  0  0  0  0  0  0  0  0  0
    3.0190    0.3820   11.0745 C   0  0  0  0  0  0  0  0  0  0  0  0
    1.6792    0.5837   11.7104 C   0  0  0  0  0  0  0  0  0  0  0  0
    1.2886   -0.1754   12.8585 C   0  0  0  0  0  0  0  0  0  0  0  0
    0.0077    0.0235   13.4314 C   0  0  0  0  0  0  0  0  0  0  0  0
   -0.8796    0.9856   12.8498 C   0  0  0  0  0  0  0  0  0  0  0  0
   -0.4882    1.7435   11.7052 C   0  0  0  0  0  0  0  0  0  0  0  0
    0.7928    1.5366   11.1410 C   0  0  0  0  0  0  0  0  0  0  0  0
  5  6  1  0  0  0
  5 10  1  0  0  0
  5 19  1  0  0  0
  6  7  1  0  0  0
  7 11  1  0  0  0
  7  8  1  0  0  0
 11 12  2  0  0  0
 11 13  1  0  0  0
 13 15  1  0  0  0
 15 16  1  0  0  0
 15 17  1  0  0  0
 15 18  1  0  0  0
  8  9  1  0  0  0
  8  4  1  0  0  0
  9 10  1  0  0  0
  4  1  1  0  0  0
  1  2  1  0  0  0
  1 26  1  0  0  0
 26 27  1  0  0  0
 27 43  1  0  0  0
 27 28  1  0  0  0
 43 44  1  0  0  0
 44 45  2  0  0  0
 44 49  1  0  0  0
 45 46  1  0  0  0
 46 47  2  0  0  0
 47 48  1  0  0  0
 48 49  2  0  0  0
 28 29  2  0  0  0
 28 30  1  0  0  0
 30 32  1  0  0  0
 32 33  1  0  0  0
 32 41  1  0  0  0
 33 34  1  0  0  0
 33 35  1  0  0  0
 35 36  1  0  0  0
 36 37  2  0  0  0
 36 41  1  0  0  0
 37 38  1  0  0  0
 38 39  2  0  0  0
 39 40  1  0  0  0
 40 41  2  0  0  0
 19 20  1  0  0  0
 20 21  1  0  0  0
 20 25  2  0  0  0
 21 22  2  0  0  0
 22 23  1  0  0  0
 23 24  2  0  0  0
 24 25  1  0  0  0
 13 14  1  0  0  0
  2  3  1  0  0  0
 30 31  1  0  0  0
 34 42  1  0  0  0
M  END
> <minimizedAffinity>
-9.49453

$$$$
