5U14_7PV_A_301


 30 32  0  0  0  0  0  0  0  0999 V2000
   73.9648    0.0331  102.9685 C   0  0  0  0  0  0  0  0  0  0  0  0
   74.8964    0.8276  102.2504 C   0  0  0  0  0  0  0  0  0  0  0  0
   77.3636    1.4332  104.8439 N   0  0  0  0  0  0  0  0  0  0  0  0
   76.1883    0.9347  104.1878 C   0  0  0  0  0  0  0  0  0  0  0  0
   75.3515    0.1896  104.9042 N   0  0  0  0  0  0  0  0  0  0  0  0
   74.2223   -0.2676  104.2938 C   0  0  0  0  0  0  0  0  0  0  0  0
   73.1894   -0.9997  104.7447 N   0  0  0  0  0  0  0  0  0  0  0  0
   72.3460   -1.1690  103.7648 C   0  0  0  0  0  0  0  0  0  0  0  0
   72.7773   -0.5571  102.6744 N   0  0  0  0  0  0  0  0  0  0  0  0
   74.7485    1.1207  101.0977 O   0  0  0  0  0  0  0  0  0  0  0  0
   75.9604    1.2329  102.8912 N   0  0  0  0  0  0  0  0  0  0  0  0
   78.0069    1.9883  104.3467 H   0  0  0  0  0  0  0  0  0  0  0  0
   77.5264    1.2199  105.7911 H   0  0  0  0  0  0  0  0  0  0  0  0
   73.0870   -1.3488  105.6595 H   0  0  0  0  0  0  0  0  0  0  0  0
   76.6230    1.7782  102.4086 H   0  0  0  0  0  0  0  0  0  0  0  0
   70.8052   -2.0848  103.9215 S   0  0  0  0  0  0  0  0  0  0  0  0
   69.9934   -1.7699  102.3567 C   0  0  0  0  0  0  0  0  0  0  0  0
   68.5141   -1.4638  102.5422 C   0  0  0  0  0  0  0  0  0  0  0  0
   68.1186   -0.8636  101.2166 C   0  0  0  0  0  0  0  0  0  0  0  0
   67.2999    0.1792   98.8005 C   0  0  0  0  0  0  0  0  0  0  0  0
   68.2809    0.5002  100.9820 C   0  0  0  0  0  0  0  0  0  0  0  0
   67.8737    1.0266   99.7665 C   0  0  0  0  0  0  0  0  0  0  0  0
   67.1129   -1.1704   99.0494 C   0  0  0  0  0  0  0  0  0  0  0  0
   67.5134   -1.6861  100.2618 C   0  0  0  0  0  0  0  0  0  0  0  0
   66.7403    0.8312   97.2136 S   0  0  0  0  0  0  0  0  0  0  0  0
   65.7529    2.1885   97.2917 N   0  0  0  0  0  0  0  0  0  0  0  0
   67.8654    1.1055   96.3253 O   0  0  0  0  0  0  0  0  0  0  0  0
   66.1009   -0.3392   96.5711 O   0  0  0  0  0  0  0  0  0  0  0  0
   65.4938    2.4752   96.3478 H   0  0  0  0  0  0  0  0  0  0  0  0
   66.2547    2.9479   97.7521 H   0  0  0  0  0  0  0  0  0  0  0  0
 28 25  2  0  0  0
 27 25  2  0  0  0
 26 25  1  0  0  0
 25 20  1  0  0  0
 20 22  2  0  0  0
 20 23  1  0  0  0
 22 21  1  0  0  0
 23 24  2  0  0  0
 21 19  2  0  0  0
 24 19  1  0  0  0
 10  2  2  0  0  0
 19 18  1  0  0  0
  2 11  1  0  0  0
  2  1  1  0  0  0
 17 18  1  0  0  0
 17 16  1  0  0  0
  9  1  1  0  0  0
  9  8  2  0  0  0
 11  4  1  0  0  0
  1  6  2  0  0  0
  8 16  1  0  0  0
  8  7  1  0  0  0
  4  3  1  0  0  0
  4  5  2  0  0  0
  6  7  1  0  0  0
  6  5  1  0  0  0
  3 12  1  0  0  0
  3 13  1  0  0  0
  7 14  1  0  0  0
 26 29  1  0  0  0
 26 30  1  0  0  0
 11 15  1  0  0  0
M  END
> <minimizedAffinity>
-10.69322

$$$$
5U14_7PV_A_301


 30 32  0  0  0  0  0  0  0  0999 V2000
   73.5428   -0.5583  104.2635 C   0  0  0  0  0  0  0  0  0  0  0  0
   74.7074    0.0993  104.7389 C   0  0  0  0  0  0  0  0  0  0  0  0
   75.8633    1.6632  101.6733 N   0  0  0  0  0  0  0  0  0  0  0  0
   75.0486    0.9019  102.5771 C   0  0  0  0  0  0  0  0  0  0  0  0
   73.9649    0.3113  102.0817 N   0  0  0  0  0  0  0  0  0  0  0  0
   73.1997   -0.4320  102.9295 C   0  0  0  0  0  0  0  0  0  0  0  0
   72.0877   -1.1606  102.7329 N   0  0  0  0  0  0  0  0  0  0  0  0
   71.7386   -1.6941  103.8703 C   0  0  0  0  0  0  0  0  0  0  0  0
   72.5950   -1.3563  104.8200 N   0  0  0  0  0  0  0  0  0  0  0  0
   75.0630    0.0462  105.8822 O   0  0  0  0  0  0  0  0  0  0  0  0
   75.3969    0.7985  103.8772 N   0  0  0  0  0  0  0  0  0  0  0  0
   76.6737    2.1150  102.0026 H   0  0  0  0  0  0  0  0  0  0  0  0
   75.6118    1.7336  100.7241 H   0  0  0  0  0  0  0  0  0  0  0  0
   71.6166   -1.2725  101.8756 H   0  0  0  0  0  0  0  0  0  0  0  0
   76.2035    1.2692  104.1887 H   0  0  0  0  0  0  0  0  0  0  0  0
   70.3049   -2.7621  104.0732 S   0  0  0  0  0  0  0  0  0  0  0  0
   69.3019   -2.3584  102.6456 C   0  0  0  0  0  0  0  0  0  0  0  0
   68.5878   -1.0256  102.8188 C   0  0  0  0  0  0  0  0  0  0  0  0
   68.0530   -0.7403  101.4381 C   0  0  0  0  0  0  0  0  0  0  0  0
   67.1510   -0.1395   98.9042 C   0  0  0  0  0  0  0  0  0  0  0  0
   67.8190   -1.7813  100.5420 C   0  0  0  0  0  0  0  0  0  0  0  0
   67.3616   -1.4824   99.2685 C   0  0  0  0  0  0  0  0  0  0  0  0
   67.4135    0.8940   99.7882 C   0  0  0  0  0  0  0  0  0  0  0  0
   67.8742    0.5907  101.0499 C   0  0  0  0  0  0  0  0  0  0  0  0
   66.5743    0.2902   97.2491 S   0  0  0  0  0  0  0  0  0  0  0  0
   65.1571    1.1904   97.1830 N   0  0  0  0  0  0  0  0  0  0  0  0
   67.6137    0.9728   96.4849 O   0  0  0  0  0  0  0  0  0  0  0  0
   66.4837   -1.0216   96.5690 O   0  0  0  0  0  0  0  0  0  0  0  0
   64.9192    1.3790   96.2092 H   0  0  0  0  0  0  0  0  0  0  0  0
   65.2912    2.0725   97.6772 H   0  0  0  0  0  0  0  0  0  0  0  0
 28 25  2  0  0  0
 27 25  2  0  0  0
 26 25  1  0  0  0
 25 20  1  0  0  0
 20 22  2  0  0  0
 20 23  1  0  0  0
 22 21  1  0  0  0
 23 24  2  0  0  0
 21 19  2  0  0  0
 24 19  1  0  0  0
 10  2  2  0  0  0
 19 18  1  0  0  0
  2 11  1  0  0  0
  2  1  1  0  0  0
 17 18  1  0  0  0
 17 16  1  0  0  0
  9  1  1  0  0  0
  9  8  2  0  0  0
 11  4  1  0  0  0
  1  6  2  0  0  0
  8 16  1  0  0  0
  8  7  1  0  0  0
  4  3  1  0  0  0
  4  5  2  0  0  0
  6  7  1  0  0  0
  6  5  1  0  0  0
  3 12  1  0  0  0
  3 13  1  0  0  0
  7 14  1  0  0  0
 26 29  1  0  0  0
 26 30  1  0  0  0
 11 15  1  0  0  0
M  END
> <minimizedAffinity>
-9.41074

$$$$
5U14_7PV_A_301


 30 32  0  0  0  0  0  0  0  0999 V2000
   74.0504    0.0294  103.0929 C   0  0  0  0  0  0  0  0  0  0  0  0
   74.9495    0.8230  102.3336 C   0  0  0  0  0  0  0  0  0  0  0  0
   77.4749    1.5220  104.8462 N   0  0  0  0  0  0  0  0  0  0  0  0
   76.2908    0.9913  104.2326 C   0  0  0  0  0  0  0  0  0  0  0  0
   75.4856    0.2486  104.9867 N   0  0  0  0  0  0  0  0  0  0  0  0
   74.3481   -0.2390  104.4168 C   0  0  0  0  0  0  0  0  0  0  0  0
   73.3396   -0.9774  104.9106 N   0  0  0  0  0  0  0  0  0  0  0  0
   72.4731   -1.1807  103.9575 C   0  0  0  0  0  0  0  0  0  0  0  0
   72.8653   -0.5854  102.8434 N   0  0  0  0  0  0  0  0  0  0  0  0
   74.7662    1.0892  101.1794 O   0  0  0  0  0  0  0  0  0  0  0  0
   76.0235    1.2584  102.9367 N   0  0  0  0  0  0  0  0  0  0  0  0
   78.0956    2.0765  104.3204 H   0  0  0  0  0  0  0  0  0  0  0  0
   77.6664    1.3315  105.7930 H   0  0  0  0  0  0  0  0  0  0  0  0
   73.2673   -1.3086  105.8349 H   0  0  0  0  0  0  0  0  0  0  0  0
   76.6641    1.8036  102.4252 H   0  0  0  0  0  0  0  0  0  0  0  0
   70.9522   -2.1170  104.1749 S   0  0  0  0  0  0  0  0  0  0  0  0
   70.1439   -1.9385  102.5869 C   0  0  0  0  0  0  0  0  0  0  0  0
   68.6646   -1.6161  102.7419 C   0  0  0  0  0  0  0  0  0  0  0  0
   68.1178   -1.8352  101.3538 C   0  0  0  0  0  0  0  0  0  0  0  0
   67.1127   -2.1264   98.8043 C   0  0  0  0  0  0  0  0  0  0  0  0
   68.7326   -2.7356  100.4862 C   0  0  0  0  0  0  0  0  0  0  0  0
   68.2269   -2.8870   99.2049 C   0  0  0  0  0  0  0  0  0  0  0  0
   66.5232   -1.2106   99.6599 C   0  0  0  0  0  0  0  0  0  0  0  0
   67.0346   -1.0600  100.9296 C   0  0  0  0  0  0  0  0  0  0  0  0
   66.4376   -2.2820   97.1379 S   0  0  0  0  0  0  0  0  0  0  0  0
   66.9827   -3.6016   96.2520 N   0  0  0  0  0  0  0  0  0  0  0  0
   64.9782   -2.2832   97.1538 O   0  0  0  0  0  0  0  0  0  0  0  0
   66.7517   -0.9740   96.5200 O   0  0  0  0  0  0  0  0  0  0  0  0
   66.5439   -3.5976   95.3312 H   0  0  0  0  0  0  0  0  0  0  0  0
   66.7394   -4.4632   96.7408 H   0  0  0  0  0  0  0  0  0  0  0  0
 28 25  2  0  0  0
 27 25  2  0  0  0
 26 25  1  0  0  0
 25 20  1  0  0  0
 20 22  2  0  0  0
 20 23  1  0  0  0
 22 21  1  0  0  0
 23 24  2  0  0  0
 21 19  2  0  0  0
 24 19  1  0  0  0
 10  2  2  0  0  0
 19 18  1  0  0  0
  2 11  1  0  0  0
  2  1  1  0  0  0
 17 18  1  0  0  0
 17 16  1  0  0  0
  9  1  1  0  0  0
  9  8  2  0  0  0
 11  4  1  0  0  0
  1  6  2  0  0  0
  8 16  1  0  0  0
  8  7  1  0  0  0
  4  3  1  0  0  0
  4  5  2  0  0  0
  6  7  1  0  0  0
  6  5  1  0  0  0
  3 12  1  0  0  0
  3 13  1  0  0  0
  7 14  1  0  0  0
 26 29  1  0  0  0
 26 30  1  0  0  0
 11 15  1  0  0  0
M  END
> <minimizedAffinity>
-9.36832

$$$$
5U14_7PV_A_301


 30 32  0  0  0  0  0  0  0  0999 V2000
   71.1644   -2.7545  104.4640 C   0  0  0  0  0  0  0  0  0  0  0  0
   71.7328   -1.6741  105.1883 C   0  0  0  0  0  0  0  0  0  0  0  0
   70.4053   -2.3466  108.4997 N   0  0  0  0  0  0  0  0  0  0  0  0
   70.6805   -2.4963  107.0989 C   0  0  0  0  0  0  0  0  0  0  0  0
   70.1286   -3.5295  106.4692 N   0  0  0  0  0  0  0  0  0  0  0  0
   70.3670   -3.6644  105.1344 C   0  0  0  0  0  0  0  0  0  0  0  0
   69.9386   -4.5615  104.2302 N   0  0  0  0  0  0  0  0  0  0  0  0
   70.4481   -4.2525  103.0703 C   0  0  0  0  0  0  0  0  0  0  0  0
   71.1930   -3.1641  103.1693 N   0  0  0  0  0  0  0  0  0  0  0  0
   72.4423   -0.8525  104.6802 O   0  0  0  0  0  0  0  0  0  0  0  0
   71.4684   -1.6017  106.4657 N   0  0  0  0  0  0  0  0  0  0  0  0
   70.7958   -1.5943  109.0004 H   0  0  0  0  0  0  0  0  0  0  0  0
   69.8261   -2.9963  108.9597 H   0  0  0  0  0  0  0  0  0  0  0  0
   69.3415   -5.3227  104.4125 H   0  0  0  0  0  0  0  0  0  0  0  0
   71.8599   -0.8645  106.9878 H   0  0  0  0  0  0  0  0  0  0  0  0
   70.1322   -5.1817  101.5623 S   0  0  0  0  0  0  0  0  0  0  0  0
   69.2209   -4.0127  100.5574 C   0  0  0  0  0  0  0  0  0  0  0  0
   68.6239   -2.8935  101.3984 C   0  0  0  0  0  0  0  0  0  0  0  0
   68.1285   -1.9137  100.3649 C   0  0  0  0  0  0  0  0  0  0  0  0
   67.1415   -0.1930   98.4517 C   0  0  0  0  0  0  0  0  0  0  0  0
   67.9916   -0.5633  100.6798 C   0  0  0  0  0  0  0  0  0  0  0  0
   67.4993    0.3049   99.7184 C   0  0  0  0  0  0  0  0  0  0  0  0
   67.2510   -1.5409   98.1528 C   0  0  0  0  0  0  0  0  0  0  0  0
   67.7345   -2.3996   99.1147 C   0  0  0  0  0  0  0  0  0  0  0  0
   66.4791    0.9034   97.1806 S   0  0  0  0  0  0  0  0  0  0  0  0
   65.7300    2.2990   97.7412 N   0  0  0  0  0  0  0  0  0  0  0  0
   67.5026    1.2656   96.2052 O   0  0  0  0  0  0  0  0  0  0  0  0
   65.5878    0.0176   96.3979 O   0  0  0  0  0  0  0  0  0  0  0  0
   65.3928    2.8457   96.9489 H   0  0  0  0  0  0  0  0  0  0  0  0
   66.3993    2.8526   98.2761 H   0  0  0  0  0  0  0  0  0  0  0  0
 28 25  2  0  0  0
 27 25  2  0  0  0
 26 25  1  0  0  0
 25 20  1  0  0  0
 20 22  2  0  0  0
 20 23  1  0  0  0
 22 21  1  0  0  0
 23 24  2  0  0  0
 21 19  2  0  0  0
 24 19  1  0  0  0
 10  2  2  0  0  0
 19 18  1  0  0  0
  2 11  1  0  0  0
  2  1  1  0  0  0
 17 18  1  0  0  0
 17 16  1  0  0  0
  9  1  1  0  0  0
  9  8  2  0  0  0
 11  4  1  0  0  0
  1  6  2  0  0  0
  8 16  1  0  0  0
  8  7  1  0  0  0
  4  3  1  0  0  0
  4  5  2  0  0  0
  6  7  1  0  0  0
  6  5  1  0  0  0
  3 12  1  0  0  0
  3 13  1  0  0  0
  7 14  1  0  0  0
 26 29  1  0  0  0
 26 30  1  0  0  0
 11 15  1  0  0  0
M  END
> <minimizedAffinity>
-8.78965

$$$$
5U14_7PV_A_301


 30 32  0  0  0  0  0  0  0  0999 V2000
   73.4653   -0.5719  104.2096 C   0  0  0  0  0  0  0  0  0  0  0  0
   74.6306    0.0740  104.6990 C   0  0  0  0  0  0  0  0  0  0  0  0
   75.7971    1.6887  101.6639 N   0  0  0  0  0  0  0  0  0  0  0  0
   74.9785    0.9138  102.5524 C   0  0  0  0  0  0  0  0  0  0  0  0
   73.8942    0.3350  102.0445 N   0  0  0  0  0  0  0  0  0  0  0  0
   73.1253   -0.4211  102.8774 C   0  0  0  0  0  0  0  0  0  0  0  0
   72.0117   -1.1430  102.6657 N   0  0  0  0  0  0  0  0  0  0  0  0
   71.6588   -1.6956  103.7928 C   0  0  0  0  0  0  0  0  0  0  0  0
   72.5141   -1.3770  104.7501 N   0  0  0  0  0  0  0  0  0  0  0  0
   74.9838   -0.0002  105.8419 O   0  0  0  0  0  0  0  0  0  0  0  0
   75.3239    0.7865  103.8511 N   0  0  0  0  0  0  0  0  0  0  0  0
   76.6080    2.1325  102.0027 H   0  0  0  0  0  0  0  0  0  0  0  0
   75.5477    1.7766  100.7155 H   0  0  0  0  0  0  0  0  0  0  0  0
   71.5421   -1.2385  101.8057 H   0  0  0  0  0  0  0  0  0  0  0  0
   76.1311    1.2494  104.1726 H   0  0  0  0  0  0  0  0  0  0  0  0
   70.2219   -2.7631  103.9739 S   0  0  0  0  0  0  0  0  0  0  0  0
   69.3436   -2.5140  102.4333 C   0  0  0  0  0  0  0  0  0  0  0  0
   69.9485   -3.3331  101.3022 C   0  0  0  0  0  0  0  0  0  0  0  0
   68.9958   -3.0950  100.1579 C   0  0  0  0  0  0  0  0  0  0  0  0
   67.2669   -2.5514   98.0817 C   0  0  0  0  0  0  0  0  0  0  0  0
   69.1495   -3.7827   98.9559 C   0  0  0  0  0  0  0  0  0  0  0  0
   68.2791   -3.5142   97.9115 C   0  0  0  0  0  0  0  0  0  0  0  0
   67.1366   -1.8486   99.2680 C   0  0  0  0  0  0  0  0  0  0  0  0
   68.0088   -2.1152  100.2997 C   0  0  0  0  0  0  0  0  0  0  0  0
   66.1267   -2.1609   96.7385 S   0  0  0  0  0  0  0  0  0  0  0  0
   66.1803   -3.1942   95.4147 N   0  0  0  0  0  0  0  0  0  0  0  0
   64.7519   -2.0662   97.2193 O   0  0  0  0  0  0  0  0  0  0  0  0
   66.4520   -0.7536   96.4143 O   0  0  0  0  0  0  0  0  0  0  0  0
   65.5022   -2.8882   94.7168 H   0  0  0  0  0  0  0  0  0  0  0  0
   65.9551   -4.1428   95.7144 H   0  0  0  0  0  0  0  0  0  0  0  0
 28 25  2  0  0  0
 27 25  2  0  0  0
 26 25  1  0  0  0
 25 20  1  0  0  0
 20 22  2  0  0  0
 20 23  1  0  0  0
 22 21  1  0  0  0
 23 24  2  0  0  0
 21 19  2  0  0  0
 24 19  1  0  0  0
 10  2  2  0  0  0
 19 18  1  0  0  0
  2 11  1  0  0  0
  2  1  1  0  0  0
 17 18  1  0  0  0
 17 16  1  0  0  0
  9  1  1  0  0  0
  9  8  2  0  0  0
 11  4  1  0  0  0
  1  6  2  0  0  0
  8 16  1  0  0  0
  8  7  1  0  0  0
  4  3  1  0  0  0
  4  5  2  0  0  0
  6  7  1  0  0  0
  6  5  1  0  0  0
  3 12  1  0  0  0
  3 13  1  0  0  0
  7 14  1  0  0  0
 26 29  1  0  0  0
 26 30  1  0  0  0
 11 15  1  0  0  0
M  END
> <minimizedAffinity>
-8.49103

$$$$
5U14_7PV_A_301


 30 32  0  0  0  0  0  0  0  0999 V2000
   67.3540   -0.6411   98.7467 C   0  0  0  0  0  0  0  0  0  0  0  0
   67.1557    0.6001   99.4064 C   0  0  0  0  0  0  0  0  0  0  0  0
   65.1268    2.3261   96.9397 N   0  0  0  0  0  0  0  0  0  0  0  0
   65.8899    1.2891   97.5742 C   0  0  0  0  0  0  0  0  0  0  0  0
   66.0398    0.1433   96.9158 N   0  0  0  0  0  0  0  0  0  0  0  0
   66.7824   -0.8370   97.5025 C   0  0  0  0  0  0  0  0  0  0  0  0
   67.1370   -2.0658   97.0897 N   0  0  0  0  0  0  0  0  0  0  0  0
   67.8655   -2.6182   98.0195 C   0  0  0  0  0  0  0  0  0  0  0  0
   68.0223   -1.7874   99.0367 N   0  0  0  0  0  0  0  0  0  0  0  0
   67.6091    0.8404  100.4895 O   0  0  0  0  0  0  0  0  0  0  0  0
   66.4319    1.4981   98.7926 N   0  0  0  0  0  0  0  0  0  0  0  0
   64.9938    3.1885   97.3956 H   0  0  0  0  0  0  0  0  0  0  0  0
   64.7365    2.1750   96.0486 H   0  0  0  0  0  0  0  0  0  0  0  0
   66.8888   -2.4789   96.2312 H   0  0  0  0  0  0  0  0  0  0  0  0
   66.2755    2.3626   99.2370 H   0  0  0  0  0  0  0  0  0  0  0  0
   68.5693   -4.2687   97.8868 S   0  0  0  0  0  0  0  0  0  0  0  0
   69.1728   -4.5791   99.5441 C   0  0  0  0  0  0  0  0  0  0  0  0
   70.5574   -3.9851   99.7589 C   0  0  0  0  0  0  0  0  0  0  0  0
   70.6340   -3.8247  101.2562 C   0  0  0  0  0  0  0  0  0  0  0  0
   70.6996   -3.4506  103.9859 C   0  0  0  0  0  0  0  0  0  0  0  0
   70.5676   -4.9387  102.0905 C   0  0  0  0  0  0  0  0  0  0  0  0
   70.6043   -4.7538  103.4634 C   0  0  0  0  0  0  0  0  0  0  0  0
   70.7351   -2.3441  103.1536 C   0  0  0  0  0  0  0  0  0  0  0  0
   70.6915   -2.5341  101.7904 C   0  0  0  0  0  0  0  0  0  0  0  0
   70.7309   -3.1688  105.7681 S   0  0  0  0  0  0  0  0  0  0  0  0
   71.4788   -1.7495  106.2676 N   0  0  0  0  0  0  0  0  0  0  0  0
   69.3894   -3.2324  106.3397 O   0  0  0  0  0  0  0  0  0  0  0  0
   71.3643   -4.3982  106.2961 O   0  0  0  0  0  0  0  0  0  0  0  0
   71.4428   -1.6861  107.2850 H   0  0  0  0  0  0  0  0  0  0  0  0
   70.9958   -0.9490  105.8598 H   0  0  0  0  0  0  0  0  0  0  0  0
 28 25  2  0  0  0
 27 25  2  0  0  0
 26 25  1  0  0  0
 25 20  1  0  0  0
 20 22  2  0  0  0
 20 23  1  0  0  0
 22 21  1  0  0  0
 23 24  2  0  0  0
 21 19  2  0  0  0
 24 19  1  0  0  0
 10  2  2  0  0  0
 19 18  1  0  0  0
  2 11  1  0  0  0
  2  1  1  0  0  0
 17 18  1  0  0  0
 17 16  1  0  0  0
  9  1  1  0  0  0
  9  8  2  0  0  0
 11  4  1  0  0  0
  1  6  2  0  0  0
  8 16  1  0  0  0
  8  7  1  0  0  0
  4  3  1  0  0  0
  4  5  2  0  0  0
  6  7  1  0  0  0
  6  5  1  0  0  0
  3 12  1  0  0  0
  3 13  1  0  0  0
  7 14  1  0  0  0
 26 29  1  0  0  0
 26 30  1  0  0  0
 11 15  1  0  0  0
M  END
> <minimizedAffinity>
-8.42957

$$$$
5U14_7PV_A_301


 30 32  0  0  0  0  0  0  0  0999 V2000
   71.0252   -3.1570  104.4612 C   0  0  0  0  0  0  0  0  0  0  0  0
   71.4832   -1.9665  105.0839 C   0  0  0  0  0  0  0  0  0  0  0  0
   70.5939   -2.6587  108.5349 N   0  0  0  0  0  0  0  0  0  0  0  0
   70.7564   -2.8379  107.1201 C   0  0  0  0  0  0  0  0  0  0  0  0
   70.3160   -3.9744  106.5881 N   0  0  0  0  0  0  0  0  0  0  0  0
   70.4463   -4.1412  105.2420 C   0  0  0  0  0  0  0  0  0  0  0  0
   70.0804   -5.1390  104.4196 N   0  0  0  0  0  0  0  0  0  0  0  0
   70.4242   -4.8174  103.2036 C   0  0  0  0  0  0  0  0  0  0  0  0
   70.9958   -3.6247  103.1864 N   0  0  0  0  0  0  0  0  0  0  0  0
   72.0048   -1.0744  104.4766 O   0  0  0  0  0  0  0  0  0  0  0  0
   71.3319   -1.8683  106.3779 N   0  0  0  0  0  0  0  0  0  0  0  0
   70.9073   -1.8306  108.9654 H   0  0  0  0  0  0  0  0  0  0  0  0
   70.1691   -3.3638  109.0748 H   0  0  0  0  0  0  0  0  0  0  0  0
   69.6293   -5.9715  104.6893 H   0  0  0  0  0  0  0  0  0  0  0  0
   71.6506   -1.0540  106.8301 H   0  0  0  0  0  0  0  0  0  0  0  0
   70.1172   -5.8613  101.7707 S   0  0  0  0  0  0  0  0  0  0  0  0
   70.3533   -4.7347  100.3988 C   0  0  0  0  0  0  0  0  0  0  0  0
   69.5478   -5.1576   99.1788 C   0  0  0  0  0  0  0  0  0  0  0  0
   68.7726   -3.9121   98.8302 C   0  0  0  0  0  0  0  0  0  0  0  0
   67.2726   -1.6996   98.1592 C   0  0  0  0  0  0  0  0  0  0  0  0
   68.6882   -2.8559   99.7350 C   0  0  0  0  0  0  0  0  0  0  0  0
   67.9379   -1.7405   99.3986 C   0  0  0  0  0  0  0  0  0  0  0  0
   67.3347   -2.7643   97.2754 C   0  0  0  0  0  0  0  0  0  0  0  0
   68.0764   -3.8726   97.6185 C   0  0  0  0  0  0  0  0  0  0  0  0
   66.2708   -0.2726   97.6939 S   0  0  0  0  0  0  0  0  0  0  0  0
   64.6300   -0.5709   97.4888 N   0  0  0  0  0  0  0  0  0  0  0  0
   66.4452    0.8289   98.6356 O   0  0  0  0  0  0  0  0  0  0  0  0
   66.9447    0.2343   96.4772 O   0  0  0  0  0  0  0  0  0  0  0  0
   64.1570    0.2945   97.2286 H   0  0  0  0  0  0  0  0  0  0  0  0
   64.2370   -0.9242   98.3612 H   0  0  0  0  0  0  0  0  0  0  0  0
 28 25  2  0  0  0
 27 25  2  0  0  0
 26 25  1  0  0  0
 25 20  1  0  0  0
 20 22  2  0  0  0
 20 23  1  0  0  0
 22 21  1  0  0  0
 23 24  2  0  0  0
 21 19  2  0  0  0
 24 19  1  0  0  0
 10  2  2  0  0  0
 19 18  1  0  0  0
  2 11  1  0  0  0
  2  1  1  0  0  0
 17 18  1  0  0  0
 17 16  1  0  0  0
  9  1  1  0  0  0
  9  8  2  0  0  0
 11  4  1  0  0  0
  1  6  2  0  0  0
  8 16  1  0  0  0
  8  7  1  0  0  0
  4  3  1  0  0  0
  4  5  2  0  0  0
  6  7  1  0  0  0
  6  5  1  0  0  0
  3 12  1  0  0  0
  3 13  1  0  0  0
  7 14  1  0  0  0
 26 29  1  0  0  0
 26 30  1  0  0  0
 11 15  1  0  0  0
M  END
> <minimizedAffinity>
-8.37627

$$$$
5U14_7PV_A_301


 30 32  0  0  0  0  0  0  0  0999 V2000
   64.2921    0.5192   96.9324 C   0  0  0  0  0  0  0  0  0  0  0  0
   63.1040    0.1006   96.2781 C   0  0  0  0  0  0  0  0  0  0  0  0
   61.8879    3.2906   95.0434 N   0  0  0  0  0  0  0  0  0  0  0  0
   62.7312    2.3248   95.6886 C   0  0  0  0  0  0  0  0  0  0  0  0
   63.8359    2.7691   96.2810 N   0  0  0  0  0  0  0  0  0  0  0  0
   64.6291    1.8606   96.9152 C   0  0  0  0  0  0  0  0  0  0  0  0
   65.7675    1.9949   97.6167 N   0  0  0  0  0  0  0  0  0  0  0  0
   66.1372    0.8151   98.0312 C   0  0  0  0  0  0  0  0  0  0  0  0
   65.2696   -0.1035   97.6405 N   0  0  0  0  0  0  0  0  0  0  0  0
   62.7515   -1.0443   96.2402 O   0  0  0  0  0  0  0  0  0  0  0  0
   62.3881    1.0194   95.6862 N   0  0  0  0  0  0  0  0  0  0  0  0
   61.0614    3.0003   94.5940 H   0  0  0  0  0  0  0  0  0  0  0  0
   62.1358    4.2434   95.0503 H   0  0  0  0  0  0  0  0  0  0  0  0
   66.2417    2.8404   97.7884 H   0  0  0  0  0  0  0  0  0  0  0  0
   61.5647    0.7485   95.2195 H   0  0  0  0  0  0  0  0  0  0  0  0
   67.6100    0.5221   99.0222 S   0  0  0  0  0  0  0  0  0  0  0  0
   67.1909   -0.9638   99.9295 C   0  0  0  0  0  0  0  0  0  0  0  0
   68.1528   -2.1018   99.6201 C   0  0  0  0  0  0  0  0  0  0  0  0
   68.7898   -2.3864  100.9569 C   0  0  0  0  0  0  0  0  0  0  0  0
   69.8533   -2.9138  103.4441 C   0  0  0  0  0  0  0  0  0  0  0  0
   69.8097   -3.3293  101.0672 C   0  0  0  0  0  0  0  0  0  0  0  0
   70.3490   -3.5937  102.3161 C   0  0  0  0  0  0  0  0  0  0  0  0
   68.8190   -1.9993  103.3342 C   0  0  0  0  0  0  0  0  0  0  0  0
   68.2827   -1.7460  102.0914 C   0  0  0  0  0  0  0  0  0  0  0  0
   70.5172   -3.2450  105.0892 S   0  0  0  0  0  0  0  0  0  0  0  0
   71.7941   -2.2644  105.5698 N   0  0  0  0  0  0  0  0  0  0  0  0
   69.4690   -3.2014  106.1039 O   0  0  0  0  0  0  0  0  0  0  0  0
   70.8544   -4.6855  105.0365 O   0  0  0  0  0  0  0  0  0  0  0  0
   72.0937   -2.5315  106.5075 H   0  0  0  0  0  0  0  0  0  0  0  0
   71.4917   -1.2902  105.5741 H   0  0  0  0  0  0  0  0  0  0  0  0
 28 25  2  0  0  0
 27 25  2  0  0  0
 26 25  1  0  0  0
 25 20  1  0  0  0
 20 22  2  0  0  0
 20 23  1  0  0  0
 22 21  1  0  0  0
 23 24  2  0  0  0
 21 19  2  0  0  0
 24 19  1  0  0  0
 10  2  2  0  0  0
 19 18  1  0  0  0
  2 11  1  0  0  0
  2  1  1  0  0  0
 17 18  1  0  0  0
 17 16  1  0  0  0
  9  1  1  0  0  0
  9  8  2  0  0  0
 11  4  1  0  0  0
  1  6  2  0  0  0
  8 16  1  0  0  0
  8  7  1  0  0  0
  4  3  1  0  0  0
  4  5  2  0  0  0
  6  7  1  0  0  0
  6  5  1  0  0  0
  3 12  1  0  0  0
  3 13  1  0  0  0
  7 14  1  0  0  0
 26 29  1  0  0  0
 26 30  1  0  0  0
 11 15  1  0  0  0
M  END
> <minimizedAffinity>
-8.23427

$$$$
5U14_7PV_A_301


 30 32  0  0  0  0  0  0  0  0999 V2000
   67.3018   -1.3698   98.6030 C   0  0  0  0  0  0  0  0  0  0  0  0
   66.7209   -1.1994   97.3191 C   0  0  0  0  0  0  0  0  0  0  0  0
   65.8211    2.3141   97.4781 N   0  0  0  0  0  0  0  0  0  0  0  0
   66.3486    1.0363   97.8641 C   0  0  0  0  0  0  0  0  0  0  0  0
   66.8879    0.9324   99.0753 N   0  0  0  0  0  0  0  0  0  0  0  0
   67.3697   -0.2838   99.4569 C   0  0  0  0  0  0  0  0  0  0  0  0
   67.9315   -0.7102  100.6008 N   0  0  0  0  0  0  0  0  0  0  0  0
   68.2194   -1.9754  100.4713 C   0  0  0  0  0  0  0  0  0  0  0  0
   67.8514   -2.4122   99.2783 N   0  0  0  0  0  0  0  0  0  0  0  0
   66.6363   -2.0891   96.5205 O   0  0  0  0  0  0  0  0  0  0  0  0
   66.2798   -0.0085   97.0122 N   0  0  0  0  0  0  0  0  0  0  0  0
   65.4138    2.4305   96.5893 H   0  0  0  0  0  0  0  0  0  0  0  0
   65.8665    3.0743   98.1020 H   0  0  0  0  0  0  0  0  0  0  0  0
   68.0975   -0.1608  101.4006 H   0  0  0  0  0  0  0  0  0  0  0  0
   65.8810    0.1326   96.1232 H   0  0  0  0  0  0  0  0  0  0  0  0
   68.9802   -2.9633  101.7684 S   0  0  0  0  0  0  0  0  0  0  0  0
   69.5794   -1.7240  102.9138 C   0  0  0  0  0  0  0  0  0  0  0  0
   70.5844   -2.3062  103.8973 C   0  0  0  0  0  0  0  0  0  0  0  0
   71.8142   -1.4634  103.6714 C   0  0  0  0  0  0  0  0  0  0  0  0
   74.1152    0.0149  103.3322 C   0  0  0  0  0  0  0  0  0  0  0  0
   72.2392   -1.1660  102.3782 C   0  0  0  0  0  0  0  0  0  0  0  0
   73.3937   -0.4195  102.2047 C   0  0  0  0  0  0  0  0  0  0  0  0
   73.7056   -0.3085  104.6152 C   0  0  0  0  0  0  0  0  0  0  0  0
   72.5612   -1.0563  104.7807 C   0  0  0  0  0  0  0  0  0  0  0  0
   75.6333    0.9726  103.1460 S   0  0  0  0  0  0  0  0  0  0  0  0
   76.4675    1.2982  104.5678 N   0  0  0  0  0  0  0  0  0  0  0  0
   76.5409    0.3490  102.1881 O   0  0  0  0  0  0  0  0  0  0  0  0
   75.1850    2.1841  102.4230 O   0  0  0  0  0  0  0  0  0  0  0  0
   77.3044    1.8408  104.3543 H   0  0  0  0  0  0  0  0  0  0  0  0
   76.7356    0.4207  105.0133 H   0  0  0  0  0  0  0  0  0  0  0  0
 28 25  2  0  0  0
 27 25  2  0  0  0
 26 25  1  0  0  0
 25 20  1  0  0  0
 20 22  2  0  0  0
 20 23  1  0  0  0
 22 21  1  0  0  0
 23 24  2  0  0  0
 21 19  2  0  0  0
 24 19  1  0  0  0
 10  2  2  0  0  0
 19 18  1  0  0  0
  2 11  1  0  0  0
  2  1  1  0  0  0
 17 18  1  0  0  0
 17 16  1  0  0  0
  9  1  1  0  0  0
  9  8  2  0  0  0
 11  4  1  0  0  0
  1  6  2  0  0  0
  8 16  1  0  0  0
  8  7  1  0  0  0
  4  3  1  0  0  0
  4  5  2  0  0  0
  6  7  1  0  0  0
  6  5  1  0  0  0
  3 12  1  0  0  0
  3 13  1  0  0  0
  7 14  1  0  0  0
 26 29  1  0  0  0
 26 30  1  0  0  0
 11 15  1  0  0  0
M  END
> <minimizedAffinity>
-8.19729

$$$$
5U14_7PV_A_301


 30 32  0  0  0  0  0  0  0  0999 V2000
   67.9577   -0.4378  100.5656 C   0  0  0  0  0  0  0  0  0  0  0  0
   67.7097    0.9268  100.2633 C   0  0  0  0  0  0  0  0  0  0  0  0
   66.5230    0.6264   96.8455 N   0  0  0  0  0  0  0  0  0  0  0  0
   67.0089    0.2549   98.1441 C   0  0  0  0  0  0  0  0  0  0  0  0
   67.2182   -1.0375   98.3775 N   0  0  0  0  0  0  0  0  0  0  0  0
   67.7014   -1.3948   99.6004 C   0  0  0  0  0  0  0  0  0  0  0  0
   68.0391   -2.5868  100.1210 N   0  0  0  0  0  0  0  0  0  0  0  0
   68.4602   -2.3989  101.3408 C   0  0  0  0  0  0  0  0  0  0  0  0
   68.4290   -1.1124  101.6461 N   0  0  0  0  0  0  0  0  0  0  0  0
   67.8963    1.8113  101.0503 O   0  0  0  0  0  0  0  0  0  0  0  0
   67.2443    1.2041   99.0744 N   0  0  0  0  0  0  0  0  0  0  0  0
   66.3559    1.5734   96.6349 H   0  0  0  0  0  0  0  0  0  0  0  0
   66.3568   -0.0659   96.1656 H   0  0  0  0  0  0  0  0  0  0  0  0
   67.9789   -3.4546   99.6599 H   0  0  0  0  0  0  0  0  0  0  0  0
   67.0577    2.1439   98.8479 H   0  0  0  0  0  0  0  0  0  0  0  0
   69.0276   -3.7253  102.4159 S   0  0  0  0  0  0  0  0  0  0  0  0
   70.6914   -3.2135  102.8364 C   0  0  0  0  0  0  0  0  0  0  0  0
   70.7068   -2.2899  104.0459 C   0  0  0  0  0  0  0  0  0  0  0  0
   71.9672   -1.4860  103.8484 C   0  0  0  0  0  0  0  0  0  0  0  0
   74.2158    0.0478  103.4170 C   0  0  0  0  0  0  0  0  0  0  0  0
   72.7156   -1.0645  104.9455 C   0  0  0  0  0  0  0  0  0  0  0  0
   73.8490   -0.2964  104.7313 C   0  0  0  0  0  0  0  0  0  0  0  0
   73.4523   -0.3480  102.3313 C   0  0  0  0  0  0  0  0  0  0  0  0
   72.3235   -1.1054  102.5513 C   0  0  0  0  0  0  0  0  0  0  0  0
   75.6741    1.0624  103.0995 S   0  0  0  0  0  0  0  0  0  0  0  0
   76.4881    1.6135  104.4622 N   0  0  0  0  0  0  0  0  0  0  0  0
   76.6167    0.3777  102.2204 O   0  0  0  0  0  0  0  0  0  0  0  0
   75.1539    2.1444  102.2334 O   0  0  0  0  0  0  0  0  0  0  0  0
   77.2910    2.1733  104.1754 H   0  0  0  0  0  0  0  0  0  0  0  0
   76.8083    0.8166  105.0125 H   0  0  0  0  0  0  0  0  0  0  0  0
 28 25  2  0  0  0
 27 25  2  0  0  0
 26 25  1  0  0  0
 25 20  1  0  0  0
 20 22  2  0  0  0
 20 23  1  0  0  0
 22 21  1  0  0  0
 23 24  2  0  0  0
 21 19  2  0  0  0
 24 19  1  0  0  0
 10  2  2  0  0  0
 19 18  1  0  0  0
  2 11  1  0  0  0
  2  1  1  0  0  0
 17 18  1  0  0  0
 17 16  1  0  0  0
  9  1  1  0  0  0
  9  8  2  0  0  0
 11  4  1  0  0  0
  1  6  2  0  0  0
  8 16  1  0  0  0
  8  7  1  0  0  0
  4  3  1  0  0  0
  4  5  2  0  0  0
  6  7  1  0  0  0
  6  5  1  0  0  0
  3 12  1  0  0  0
  3 13  1  0  0  0
  7 14  1  0  0  0
 26 29  1  0  0  0
 26 30  1  0  0  0
 11 15  1  0  0  0
M  END
> <minimizedAffinity>
-8.09907

$$$$
