4RR6_A3S_A_500
  RCSB PDB12061714413D
Coordinates from PDB:4RR6:A:500 Model:1 without hydrogens
 25 27  0  0  0  0            999 V2000
   15.3090   -2.4730   -5.8320   O 0  0  0  0  0  0  0  0  0  0  0  0
   14.9510   -3.8420   -6.0550   C 0  0  0  0  0  0  0  0  0  0  0  0
   14.7700   -4.5290   -4.7390   C 0  0  0  0  0  0  0  0  0  0  0  0
   16.0290   -4.4600   -4.0160   O 0  0  0  0  0  0  0  0  0  0  0  0
   15.7310   -3.9270   -2.6910   C 0  0  0  0  0  0  0  0  0  0  0  0
   16.5160   -2.6300   -2.5220   N 0  0  0  0  0  0  0  0  0  0  0  0
   16.3740   -1.7930   -1.4920   C 0  0  0  0  0  0  0  0  0  0  0  0
   15.5470   -1.8140   -0.4370   N 0  0  0  0  0  0  0  0  0  0  0  0
   15.6340   -0.8380    0.4740   C 0  0  0  0  0  0  0  0  0  0  0  0
   16.5370    0.1200    0.3500   N 0  0  0  0  0  0  0  0  0  0  0  0
   17.3920    0.2080   -0.6900   C 0  0  0  0  0  0  0  0  0  0  0  0
   18.2800    1.2090   -0.7870   N 0  0  0  0  0  0  0  0  0  0  0  0
   17.3150   -0.7930   -1.6490   C 0  0  0  0  0  0  0  0  0  0  0  0
   17.9690   -1.0290   -2.7940   N 0  0  0  0  0  0  0  0  0  0  0  0
   17.5020   -2.1690   -3.3270   C 0  0  0  0  0  0  0  0  0  0  0  0
   14.2210   -4.0000   -2.5010   C 0  0  0  0  0  0  0  0  0  0  0  0
   13.8330   -5.2990   -2.0720   O 0  0  0  0  0  0  0  0  0  0  0  0
   13.7590   -3.7320   -3.9270   C 0  0  0  0  0  0  0  0  0  0  0  0
   12.4300   -4.2550   -4.0930   N 0  0  0  0  0  0  0  0  0  0  0  0
    9.0940   -3.9600   -2.9500   N 0  0  0  0  0  0  0  0  0  0  0  0
   10.0420   -4.1950   -4.0810   C 0  0  0  0  0  0  0  0  0  0  0  0
    9.3970   -3.7480   -5.4180   C 0  0  0  0  0  0  0  0  0  0  0  0
    8.3330   -4.6810   -5.7630   O 0  0  0  0  0  0  0  0  0  0  0  0
   11.3760   -3.5090   -3.8960   C 0  0  0  0  0  0  0  0  0  0  0  0
   11.4660   -2.1840   -3.6120   O 0  0  0  0  0  0  0  0  0  0  0  0
  1  2  1  0  0  0  0
  2  3  1  0  0  0  0
  3  4  1  0  0  0  0
  3 18  1  0  0  0  0
  4  5  1  0  0  0  0
  5  6  1  0  0  0  0
  5 16  1  0  0  0  0
  6  7  1  0  0  0  0
  6 15  1  0  0  0  0
  7  8  1  0  0  0  0
  7 13  2  0  0  0  0
  8  9  2  0  0  0  0
  9 10  1  0  0  0  0
 10 11  2  0  0  0  0
 11 12  1  0  0  0  0
 11 13  1  0  0  0  0
 13 14  1  0  0  0  0
 14 15  2  0  0  0  0
 16 17  1  0  0  0  0
 16 18  1  0  0  0  0
 18 19  1  0  0  0  0
 19 24  1  0  0  0  0
 20 21  1  0  0  0  0
 21 22  1  0  0  0  0
 21 24  1  0  0  0  0
 22 23  1  0  0  0  0
 24 25  2  0  0  0  0
A    1
O5'
A    2
C5'
A    3
C4'
A    4
O4'
A    5
C1'
A    6
N9
A    7
C4
A    8
N3
A    9
C2
A   10
N1
A   11
C6
A   12
N6
A   13
C5
A   14
N7
A   15
C8
A   16
C2'
A   17
O2'
A   18
C3'
A   19
N8
A   20
N
A   21
CA
A   22
CB
A   23
OG
A   24
C
A   25
O
M  END
>  <InstanceId>
4RR6_A3S_A_500

>  <ChemCompId>
A3S

>  <PdbId>
4RR6

>  <ChainId>
A

>  <ResidueNumber>
500

>  <InsertionCode>


>  <Model>
1

>  <AltIds>


>  <MissingHeavyAtoms>
0

>  <ObservedFormula>
C13 N7 O5

>  <Name>
SERINE-3'-AMINOADENOSINE

>  <SystematicName>
(2S)-2-amino-N-[(2S,3S,4R,5R)-5-(6-aminopurin-9-yl)-4-hydroxy-2-(hydroxymethyl)oxolan-3-yl]-3-hydroxy-propanamide

>  <Synonyms>
N'-L-SERYL-3'-AMINO-(3'-DEOXY)-ADENOSINE

>  <Type>
NON-POLYMER

>  <Formula>
C13 H19 N7 O5

>  <MolecularWeight>
353.334

>  <ModifiedDate>
2011-06-04

>  <Parent>


>  <OneLetterCode>


>  <SubcomponentList>


>  <AmbiguousFlag>
N

>  <InChI>
InChI=1S/C13H19N7O5/c14-5(1-21)12(24)19-7-6(2-22)25-13(9(7)23)20-4-18-8-10(15)16-3-17-11(8)20/h3-7,9,13,21-23H,1-2,14H2,(H,19,24)(H2,15,16,17)/t5-,6+,7+,9+,13+/m0/s1

>  <InChIKey>
ITDKSTILAWHDJI-AYEBZEFBSA-N

>  <SMILES>
c1nc(c2c(n1)n(cn2)[C@H]3[C@@H]([C@@H]([C@H](O3)CO)NC(=O)[C@H](CO)N)O)N

$$$$
