1IGJ_DGX_B_228


 41 46  0  0  0  0  0  0  0  0999 V2000
   30.4479   32.8082   71.5804 C   0  0  0  0  0  0  0  0  0  0  0  0
   31.4556   31.7400   72.0070 C   0  0  0  0  0  0  0  0  0  0  0  0
   31.3691   31.4168   73.4988 C   0  0  0  0  0  0  0  0  0  0  0  0
   31.5861   32.7022   74.2861 C   0  0  0  0  0  0  0  0  0  0  0  0
   30.6302   33.8319   73.9079 C   0  0  0  0  0  0  0  0  0  0  0  0
   30.9016   35.0882   74.7320 C   0  0  0  0  0  0  0  0  0  0  0  0
   32.1896   35.7766   74.2878 C   0  0  0  0  0  0  0  0  0  0  0  0
   32.0846   36.2205   72.8314 C   0  0  0  0  0  0  0  0  0  0  0  0
   31.7152   35.0588   71.9063 C   0  0  0  0  0  0  0  0  0  0  0  0
   30.5360   34.1172   72.3797 C   0  0  0  0  0  0  0  0  0  0  0  0
   31.3807   35.6913   70.5593 C   0  0  0  0  0  0  0  0  0  0  0  0
   32.4794   36.5769   69.9892 C   0  0  0  0  0  0  0  0  0  0  0  0
   31.9980   37.1122   68.7484 O   0  0  0  0  0  0  0  0  0  0  0  0
   32.9863   37.7319   70.9306 C   0  0  0  0  0  0  0  0  0  0  0  0
   33.2872   37.1306   72.3489 C   0  0  0  0  0  0  0  0  0  0  0  0
   33.5627   38.2148   73.3092 O   0  0  0  0  0  0  0  0  0  0  0  0
   34.6708   36.4871   72.1020 C   0  0  0  0  0  0  0  0  0  0  0  0
   35.4501   37.4515   71.2095 C   0  0  0  0  0  0  0  0  0  0  0  0
   34.3998   38.1591   70.3589 C   0  0  0  0  0  0  0  0  0  0  0  0
   31.9555   38.8735   71.0248 C   0  0  0  0  0  0  0  0  0  0  0  0
   29.1458   34.7201   72.0979 C   0  0  0  0  0  0  0  0  0  0  0  0
   31.2168   37.6625   68.9150 H   0  0  0  0  0  0  0  0  0  0  0  0
   32.7365   38.6767   73.5212 H   0  0  0  0  0  0  0  0  0  0  0  0
   34.6871   39.6262   70.2233 C   0  0  0  0  0  0  0  0  0  0  0  0
   35.0141   40.5005   71.3752 C   0  0  0  0  0  0  0  0  0  0  0  0
   35.0798   41.8308   70.8068 O   0  0  0  0  0  0  0  0  0  0  0  0
   34.6470   40.3904   69.1187 C   0  0  0  0  0  0  0  0  0  0  0  0
   34.9277   41.7609   69.4806 C   0  0  0  0  0  0  0  0  0  0  0  0
   34.9704   42.7876   68.7947 O   0  0  0  0  0  0  0  0  0  0  0  0
   30.0896   30.8852   73.8723 O   0  0  0  0  0  0  0  0  0  0  0  0
   29.3082   31.5449   74.8848 C   0  0  0  0  0  0  0  0  0  0  0  0
   27.8772   31.7296   74.3732 C   0  0  0  0  0  0  0  0  0  0  0  0
   26.9619   32.3428   75.4358 C   0  0  0  0  0  0  0  0  0  0  0  0
   27.2728   33.7247   75.7032 O   0  0  0  0  0  0  0  0  0  0  0  0
   27.0457   31.5085   76.7168 C   0  0  0  0  0  0  0  0  0  0  0  0
   26.2882   32.1640   77.7444 O   0  0  0  0  0  0  0  0  0  0  0  0
   28.5024   31.3127   77.1686 C   0  0  0  0  0  0  0  0  0  0  0  0
   29.2838   30.7750   76.0886 O   0  0  0  0  0  0  0  0  0  0  0  0
   28.5966   30.3288   78.3256 C   0  0  0  0  0  0  0  0  0  0  0  0
   28.1761   33.7916   76.0502 H   0  0  0  0  0  0  0  0  0  0  0  0
   26.6629   33.0430   77.9114 H   0  0  0  0  0  0  0  0  0  0  0  0
  1  2  1  0  0  0
  1 10  1  0  0  0
  2  3  1  0  0  0
  3 30  1  0  0  0
  3  4  1  0  0  0
 30 31  1  0  0  0
  4  5  1  0  0  0
  5  6  1  0  0  0
  5 10  1  0  0  0
  6  7  1  0  0  0
  7  8  1  0  0  0
  8  9  1  0  0  0
  8 15  1  0  0  0
  9 10  1  0  0  0
  9 11  1  0  0  0
 10 21  1  0  0  0
 11 12  1  0  0  0
 12 13  1  0  0  0
 12 14  1  0  0  0
 14 15  1  0  0  0
 14 19  1  0  0  0
 14 20  1  0  0  0
 15 16  1  0  0  0
 15 17  1  0  0  0
 17 18  1  0  0  0
 18 19  1  0  0  0
 19 24  1  0  0  0
 31 32  1  0  0  0
 31 38  1  0  0  0
 24 25  1  0  0  0
 24 27  2  0  0  0
 25 26  1  0  0  0
 26 28  1  0  0  0
 27 28  1  0  0  0
 28 29  2  0  0  0
 32 33  1  0  0  0
 33 34  1  0  0  0
 33 35  1  0  0  0
 35 36  1  0  0  0
 35 37  1  0  0  0
 37 38  1  0  0  0
 37 39  1  0  0  0
 13 22  1  0  0  0
 16 23  1  0  0  0
 34 40  1  0  0  0
 36 41  1  0  0  0
M  END
> <minimizedAffinity>
-9.94498

$$$$
1IGJ_DGX_B_228


 41 46  0  0  0  0  0  0  0  0999 V2000
   32.9685   35.5321   70.1212 C   0  0  0  0  0  0  0  0  0  0  0  0
   32.0469   35.7560   68.9215 C   0  0  0  0  0  0  0  0  0  0  0  0
   31.4987   37.1820   68.8632 C   0  0  0  0  0  0  0  0  0  0  0  0
   30.7631   37.4716   70.1648 C   0  0  0  0  0  0  0  0  0  0  0  0
   31.6082   37.2541   71.4184 C   0  0  0  0  0  0  0  0  0  0  0  0
   30.8124   37.5608   72.6846 C   0  0  0  0  0  0  0  0  0  0  0  0
   29.7767   36.4754   72.9667 C   0  0  0  0  0  0  0  0  0  0  0  0
   30.4598   35.1293   73.1922 C   0  0  0  0  0  0  0  0  0  0  0  0
   31.3734   34.7507   72.0244 C   0  0  0  0  0  0  0  0  0  0  0  0
   32.3375   35.8791   71.4781 C   0  0  0  0  0  0  0  0  0  0  0  0
   32.1813   33.5486   72.5026 C   0  0  0  0  0  0  0  0  0  0  0  0
   31.3400   32.3818   72.9995 C   0  0  0  0  0  0  0  0  0  0  0  0
   32.2437   31.3568   73.4362 O   0  0  0  0  0  0  0  0  0  0  0  0
   30.2988   32.7201   74.1304 C   0  0  0  0  0  0  0  0  0  0  0  0
   29.4838   33.9910   73.7012 C   0  0  0  0  0  0  0  0  0  0  0  0
   28.6484   34.4579   74.8227 O   0  0  0  0  0  0  0  0  0  0  0  0
   28.4719   33.3653   72.7143 C   0  0  0  0  0  0  0  0  0  0  0  0
   28.0454   32.0264   73.3136 C   0  0  0  0  0  0  0  0  0  0  0  0
   29.2487   31.5351   74.1122 C   0  0  0  0  0  0  0  0  0  0  0  0
   30.9953   32.9457   75.4863 C   0  0  0  0  0  0  0  0  0  0  0  0
   33.5993   36.0526   72.3459 C   0  0  0  0  0  0  0  0  0  0  0  0
   32.7751   31.6884   74.1768 H   0  0  0  0  0  0  0  0  0  0  0  0
   29.2121   34.8694   75.4963 H   0  0  0  0  0  0  0  0  0  0  0  0
   28.8401   30.9400   75.4284 C   0  0  0  0  0  0  0  0  0  0  0  0
   29.4032   29.6751   75.9586 C   0  0  0  0  0  0  0  0  0  0  0  0
   28.6387   29.4201   77.1617 O   0  0  0  0  0  0  0  0  0  0  0  0
   27.9070   31.3747   76.2921 C   0  0  0  0  0  0  0  0  0  0  0  0
   27.8083   30.4422   77.3915 C   0  0  0  0  0  0  0  0  0  0  0  0
   27.0738   30.4354   78.3849 O   0  0  0  0  0  0  0  0  0  0  0  0
   32.5356   38.1634   68.7185 O   0  0  0  0  0  0  0  0  0  0  0  0
   32.3765   39.4655   69.3104 C   0  0  0  0  0  0  0  0  0  0  0  0
   33.7576   40.0441   69.6287 C   0  0  0  0  0  0  0  0  0  0  0  0
   33.6704   41.4706   70.1767 C   0  0  0  0  0  0  0  0  0  0  0  0
   33.1074   41.5205   71.5028 O   0  0  0  0  0  0  0  0  0  0  0  0
   32.8587   42.3349   69.2081 C   0  0  0  0  0  0  0  0  0  0  0  0
   32.6723   43.6321   69.7930 O   0  0  0  0  0  0  0  0  0  0  0  0
   31.4990   41.6942   68.8836 C   0  0  0  0  0  0  0  0  0  0  0  0
   31.6888   40.3469   68.4200 O   0  0  0  0  0  0  0  0  0  0  0  0
   30.7781   42.4530   67.7791 C   0  0  0  0  0  0  0  0  0  0  0  0
   32.1991   41.1808   71.4815 H   0  0  0  0  0  0  0  0  0  0  0  0
   32.1846   43.5438   70.6267 H   0  0  0  0  0  0  0  0  0  0  0  0
  1  2  1  0  0  0
  1 10  1  0  0  0
  2  3  1  0  0  0
  3 30  1  0  0  0
  3  4  1  0  0  0
 30 31  1  0  0  0
  4  5  1  0  0  0
  5  6  1  0  0  0
  5 10  1  0  0  0
  6  7  1  0  0  0
  7  8  1  0  0  0
  8  9  1  0  0  0
  8 15  1  0  0  0
  9 10  1  0  0  0
  9 11  1  0  0  0
 10 21  1  0  0  0
 11 12  1  0  0  0
 12 13  1  0  0  0
 12 14  1  0  0  0
 14 15  1  0  0  0
 14 19  1  0  0  0
 14 20  1  0  0  0
 15 16  1  0  0  0
 15 17  1  0  0  0
 17 18  1  0  0  0
 18 19  1  0  0  0
 19 24  1  0  0  0
 31 32  1  0  0  0
 31 38  1  0  0  0
 24 25  1  0  0  0
 24 27  2  0  0  0
 25 26  1  0  0  0
 26 28  1  0  0  0
 27 28  1  0  0  0
 28 29  2  0  0  0
 32 33  1  0  0  0
 33 34  1  0  0  0
 33 35  1  0  0  0
 35 36  1  0  0  0
 35 37  1  0  0  0
 37 38  1  0  0  0
 37 39  1  0  0  0
 13 22  1  0  0  0
 16 23  1  0  0  0
 34 40  1  0  0  0
 36 41  1  0  0  0
M  END
> <minimizedAffinity>
-9.80877

$$$$
1IGJ_DGX_B_228


 41 46  0  0  0  0  0  0  0  0999 V2000
   34.6720   35.1222   72.3062 C   0  0  0  0  0  0  0  0  0  0  0  0
   36.1357   34.9417   71.9015 C   0  0  0  0  0  0  0  0  0  0  0  0
   37.0999   35.2171   73.0556 C   0  0  0  0  0  0  0  0  0  0  0  0
   36.8554   36.6318   73.5636 C   0  0  0  0  0  0  0  0  0  0  0  0
   35.4094   36.9043   73.9731 C   0  0  0  0  0  0  0  0  0  0  0  0
   35.2338   38.3369   74.4709 C   0  0  0  0  0  0  0  0  0  0  0  0
   35.2935   39.3367   73.3190 C   0  0  0  0  0  0  0  0  0  0  0  0
   34.1655   39.0757   72.3246 C   0  0  0  0  0  0  0  0  0  0  0  0
   34.1721   37.6306   71.8212 C   0  0  0  0  0  0  0  0  0  0  0  0
   34.3467   36.4968   72.9099 C   0  0  0  0  0  0  0  0  0  0  0  0
   32.8573   37.4469   71.0702 C   0  0  0  0  0  0  0  0  0  0  0  0
   32.6192   38.4603   69.9600 C   0  0  0  0  0  0  0  0  0  0  0  0
   31.3395   38.1692   69.3809 O   0  0  0  0  0  0  0  0  0  0  0  0
   32.7035   39.9738   70.3839 C   0  0  0  0  0  0  0  0  0  0  0  0
   34.0188   40.1928   71.2119 C   0  0  0  0  0  0  0  0  0  0  0  0
   34.0263   41.5447   71.8001 O   0  0  0  0  0  0  0  0  0  0  0  0
   35.0649   40.2713   70.0766 C   0  0  0  0  0  0  0  0  0  0  0  0
   34.4218   41.0668   68.9419 C   0  0  0  0  0  0  0  0  0  0  0  0
   32.9264   40.7815   69.0404 C   0  0  0  0  0  0  0  0  0  0  0  0
   31.4652   40.3997   71.1961 C   0  0  0  0  0  0  0  0  0  0  0  0
   33.0340   36.1809   73.6532 C   0  0  0  0  0  0  0  0  0  0  0  0
   30.6479   38.2818   70.0517 H   0  0  0  0  0  0  0  0  0  0  0  0
   33.3888   41.5833   72.5301 H   0  0  0  0  0  0  0  0  0  0  0  0
   32.1063   42.0198   68.8223 C   0  0  0  0  0  0  0  0  0  0  0  0
   32.4229   43.3256   69.4492 C   0  0  0  0  0  0  0  0  0  0  0  0
   31.3143   44.1793   69.0762 O   0  0  0  0  0  0  0  0  0  0  0  0
   30.9720   42.1612   68.1159 C   0  0  0  0  0  0  0  0  0  0  0  0
   30.4987   43.5202   68.2472 C   0  0  0  0  0  0  0  0  0  0  0  0
   29.4940   44.0760   67.7911 O   0  0  0  0  0  0  0  0  0  0  0  0
   36.9093   34.3173   74.1570 O   0  0  0  0  0  0  0  0  0  0  0  0
   37.7612   33.1657   74.2962 C   0  0  0  0  0  0  0  0  0  0  0  0
   36.9693   31.9083   73.9281 C   0  0  0  0  0  0  0  0  0  0  0  0
   37.8403   30.6501   73.9632 C   0  0  0  0  0  0  0  0  0  0  0  0
   38.2210   30.2779   75.3028 O   0  0  0  0  0  0  0  0  0  0  0  0
   39.0766   30.8672   73.0867 C   0  0  0  0  0  0  0  0  0  0  0  0
   39.9480   29.7361   73.2303 O   0  0  0  0  0  0  0  0  0  0  0  0
   39.8151   32.1625   73.4630 C   0  0  0  0  0  0  0  0  0  0  0  0
   38.9021   33.2724   73.4420 O   0  0  0  0  0  0  0  0  0  0  0  0
   40.9265   32.4750   72.4718 C   0  0  0  0  0  0  0  0  0  0  0  0
   38.7516   30.9877   75.6972 H   0  0  0  0  0  0  0  0  0  0  0  0
   40.2242   29.6563   74.1567 H   0  0  0  0  0  0  0  0  0  0  0  0
  1  2  1  0  0  0
  1 10  1  0  0  0
  2  3  1  0  0  0
  3 30  1  0  0  0
  3  4  1  0  0  0
 30 31  1  0  0  0
  4  5  1  0  0  0
  5  6  1  0  0  0
  5 10  1  0  0  0
  6  7  1  0  0  0
  7  8  1  0  0  0
  8  9  1  0  0  0
  8 15  1  0  0  0
  9 10  1  0  0  0
  9 11  1  0  0  0
 10 21  1  0  0  0
 11 12  1  0  0  0
 12 13  1  0  0  0
 12 14  1  0  0  0
 14 15  1  0  0  0
 14 19  1  0  0  0
 14 20  1  0  0  0
 15 16  1  0  0  0
 15 17  1  0  0  0
 17 18  1  0  0  0
 18 19  1  0  0  0
 19 24  1  0  0  0
 31 32  1  0  0  0
 31 38  1  0  0  0
 24 25  1  0  0  0
 24 27  2  0  0  0
 25 26  1  0  0  0
 26 28  1  0  0  0
 27 28  1  0  0  0
 28 29  2  0  0  0
 32 33  1  0  0  0
 33 34  1  0  0  0
 33 35  1  0  0  0
 35 36  1  0  0  0
 35 37  1  0  0  0
 37 38  1  0  0  0
 37 39  1  0  0  0
 13 22  1  0  0  0
 16 23  1  0  0  0
 34 40  1  0  0  0
 36 41  1  0  0  0
M  END
> <minimizedAffinity>
-9.77616

$$$$
1IGJ_DGX_B_228


 41 46  0  0  0  0  0  0  0  0999 V2000
   34.5427   34.8799   72.4167 C   0  0  0  0  0  0  0  0  0  0  0  0
   35.9687   34.5872   71.9481 C   0  0  0  0  0  0  0  0  0  0  0  0
   37.0037   34.8074   73.0516 C   0  0  0  0  0  0  0  0  0  0  0  0
   36.8867   36.2430   73.5460 C   0  0  0  0  0  0  0  0  0  0  0  0
   35.4851   36.6262   74.0170 C   0  0  0  0  0  0  0  0  0  0  0  0
   35.4374   38.0745   74.4976 C   0  0  0  0  0  0  0  0  0  0  0  0
   35.5149   39.0512   73.3270 C   0  0  0  0  0  0  0  0  0  0  0  0
   34.3253   38.8597   72.3903 C   0  0  0  0  0  0  0  0  0  0  0  0
   34.2034   37.4112   71.9122 C   0  0  0  0  0  0  0  0  0  0  0  0
   34.3466   36.2828   73.0110 C   0  0  0  0  0  0  0  0  0  0  0  0
   32.8447   37.3137   71.2259 C   0  0  0  0  0  0  0  0  0  0  0  0
   32.6284   38.3264   70.1106 C   0  0  0  0  0  0  0  0  0  0  0  0
   31.3050   38.1217   69.5962 O   0  0  0  0  0  0  0  0  0  0  0  0
   32.8420   39.8354   70.5040 C   0  0  0  0  0  0  0  0  0  0  0  0
   34.2073   39.9690   71.2665 C   0  0  0  0  0  0  0  0  0  0  0  0
   34.3406   41.3247   71.8303 O   0  0  0  0  0  0  0  0  0  0  0  0
   35.2016   39.9552   70.0831 C   0  0  0  0  0  0  0  0  0  0  0  0
   34.5649   40.7797   68.9657 C   0  0  0  0  0  0  0  0  0  0  0  0
   33.0591   40.6060   69.1379 C   0  0  0  0  0  0  0  0  0  0  0  0
   31.6775   40.3619   71.3650 C   0  0  0  0  0  0  0  0  0  0  0  0
   33.0511   36.0740   73.8194 C   0  0  0  0  0  0  0  0  0  0  0  0
   30.6559   38.2938   70.2961 H   0  0  0  0  0  0  0  0  0  0  0  0
   33.7427   41.4199   72.5882 H   0  0  0  0  0  0  0  0  0  0  0  0
   32.3214   41.8978   68.9366 C   0  0  0  0  0  0  0  0  0  0  0  0
   32.7425   43.1790   69.5525 C   0  0  0  0  0  0  0  0  0  0  0  0
   31.6868   44.1070   69.2041 O   0  0  0  0  0  0  0  0  0  0  0  0
   31.1828   42.1167   68.2572 C   0  0  0  0  0  0  0  0  0  0  0  0
   30.8078   43.5052   68.3966 C   0  0  0  0  0  0  0  0  0  0  0  0
   29.8331   44.1287   67.9634 O   0  0  0  0  0  0  0  0  0  0  0  0
   36.8008   33.9392   74.1760 O   0  0  0  0  0  0  0  0  0  0  0  0
   37.9079   33.1931   74.7134 C   0  0  0  0  0  0  0  0  0  0  0  0
   38.8749   32.8432   73.5794 C   0  0  0  0  0  0  0  0  0  0  0  0
   40.1271   32.1278   74.0924 C   0  0  0  0  0  0  0  0  0  0  0  0
   39.8499   30.7914   74.5562 O   0  0  0  0  0  0  0  0  0  0  0  0
   40.7693   32.9662   75.2008 C   0  0  0  0  0  0  0  0  0  0  0  0
   41.8634   32.2271   75.7628 O   0  0  0  0  0  0  0  0  0  0  0  0
   39.7517   33.3302   76.2948 C   0  0  0  0  0  0  0  0  0  0  0  0
   38.5992   33.9550   75.7055 O   0  0  0  0  0  0  0  0  0  0  0  0
   40.3391   34.3184   77.2917 C   0  0  0  0  0  0  0  0  0  0  0  0
   39.2327   30.8300   75.3036 H   0  0  0  0  0  0  0  0  0  0  0  0
   41.5327   31.3977   76.1417 H   0  0  0  0  0  0  0  0  0  0  0  0
  1  2  1  0  0  0
  1 10  1  0  0  0
  2  3  1  0  0  0
  3 30  1  0  0  0
  3  4  1  0  0  0
 30 31  1  0  0  0
  4  5  1  0  0  0
  5  6  1  0  0  0
  5 10  1  0  0  0
  6  7  1  0  0  0
  7  8  1  0  0  0
  8  9  1  0  0  0
  8 15  1  0  0  0
  9 10  1  0  0  0
  9 11  1  0  0  0
 10 21  1  0  0  0
 11 12  1  0  0  0
 12 13  1  0  0  0
 12 14  1  0  0  0
 14 15  1  0  0  0
 14 19  1  0  0  0
 14 20  1  0  0  0
 15 16  1  0  0  0
 15 17  1  0  0  0
 17 18  1  0  0  0
 18 19  1  0  0  0
 19 24  1  0  0  0
 31 32  1  0  0  0
 31 38  1  0  0  0
 24 25  1  0  0  0
 24 27  2  0  0  0
 25 26  1  0  0  0
 26 28  1  0  0  0
 27 28  1  0  0  0
 28 29  2  0  0  0
 32 33  1  0  0  0
 33 34  1  0  0  0
 33 35  1  0  0  0
 35 36  1  0  0  0
 35 37  1  0  0  0
 37 38  1  0  0  0
 37 39  1  0  0  0
 13 22  1  0  0  0
 16 23  1  0  0  0
 34 40  1  0  0  0
 36 41  1  0  0  0
M  END
> <minimizedAffinity>
-9.65928

$$$$
1IGJ_DGX_B_228


 41 46  0  0  0  0  0  0  0  0999 V2000
   34.5043   34.7979   72.4227 C   0  0  0  0  0  0  0  0  0  0  0  0
   35.9331   34.4979   71.9674 C   0  0  0  0  0  0  0  0  0  0  0  0
   36.9586   34.7098   73.0814 C   0  0  0  0  0  0  0  0  0  0  0  0
   36.8449   36.1451   73.5777 C   0  0  0  0  0  0  0  0  0  0  0  0
   35.4411   36.5353   74.0358 C   0  0  0  0  0  0  0  0  0  0  0  0
   35.3970   37.9829   74.5189 C   0  0  0  0  0  0  0  0  0  0  0  0
   35.4915   38.9616   73.3513 C   0  0  0  0  0  0  0  0  0  0  0  0
   34.3100   38.7789   72.4026 C   0  0  0  0  0  0  0  0  0  0  0  0
   34.1845   37.3321   71.9202 C   0  0  0  0  0  0  0  0  0  0  0  0
   34.3105   36.2007   73.0180 C   0  0  0  0  0  0  0  0  0  0  0  0
   32.8321   37.2439   71.2205 C   0  0  0  0  0  0  0  0  0  0  0  0
   32.6326   38.2601   70.1053 C   0  0  0  0  0  0  0  0  0  0  0  0
   31.3131   38.0642   69.5776 O   0  0  0  0  0  0  0  0  0  0  0  0
   32.8509   39.7671   70.5040 C   0  0  0  0  0  0  0  0  0  0  0  0
   34.2095   39.8912   71.2801 C   0  0  0  0  0  0  0  0  0  0  0  0
   34.3450   41.2450   71.8480 O   0  0  0  0  0  0  0  0  0  0  0  0
   35.2152   39.8741   70.1064 C   0  0  0  0  0  0  0  0  0  0  0  0
   34.5942   40.7046   68.9846 C   0  0  0  0  0  0  0  0  0  0  0  0
   33.0858   40.5392   69.1417 C   0  0  0  0  0  0  0  0  0  0  0  0
   31.6812   40.2985   71.3547 C   0  0  0  0  0  0  0  0  0  0  0  0
   33.0060   35.9977   73.8133 C   0  0  0  0  0  0  0  0  0  0  0  0
   30.6581   38.2386   70.2715 H   0  0  0  0  0  0  0  0  0  0  0  0
   33.7403   41.3421   72.6003 H   0  0  0  0  0  0  0  0  0  0  0  0
   32.3576   41.8357   68.9359 C   0  0  0  0  0  0  0  0  0  0  0  0
   32.8089   43.1228   69.5171 C   0  0  0  0  0  0  0  0  0  0  0  0
   31.7549   44.0566   69.1793 O   0  0  0  0  0  0  0  0  0  0  0  0
   31.2042   42.0555   68.2825 C   0  0  0  0  0  0  0  0  0  0  0  0
   30.8484   43.4506   68.4060 C   0  0  0  0  0  0  0  0  0  0  0  0
   29.8698   44.0775   67.9869 O   0  0  0  0  0  0  0  0  0  0  0  0
   36.7397   33.8405   74.2019 O   0  0  0  0  0  0  0  0  0  0  0  0
   37.2118   32.4817   74.1568 C   0  0  0  0  0  0  0  0  0  0  0  0
   38.6418   32.4652   73.6108 C   0  0  0  0  0  0  0  0  0  0  0  0
   39.2448   31.0584   73.6218 C   0  0  0  0  0  0  0  0  0  0  0  0
   38.6348   30.1873   72.6486 O   0  0  0  0  0  0  0  0  0  0  0  0
   39.1258   30.4691   75.0298 C   0  0  0  0  0  0  0  0  0  0  0  0
   39.5732   29.1059   74.9984 O   0  0  0  0  0  0  0  0  0  0  0  0
   37.6823   30.5463   75.5540 C   0  0  0  0  0  0  0  0  0  0  0  0
   37.1971   31.8961   75.4604 O   0  0  0  0  0  0  0  0  0  0  0  0
   37.6015   30.1393   77.0180 C   0  0  0  0  0  0  0  0  0  0  0  0
   37.6929   30.0817   72.8546 H   0  0  0  0  0  0  0  0  0  0  0  0
   39.0143   28.5961   74.3912 H   0  0  0  0  0  0  0  0  0  0  0  0
  1  2  1  0  0  0
  1 10  1  0  0  0
  2  3  1  0  0  0
  3 30  1  0  0  0
  3  4  1  0  0  0
 30 31  1  0  0  0
  4  5  1  0  0  0
  5  6  1  0  0  0
  5 10  1  0  0  0
  6  7  1  0  0  0
  7  8  1  0  0  0
  8  9  1  0  0  0
  8 15  1  0  0  0
  9 10  1  0  0  0
  9 11  1  0  0  0
 10 21  1  0  0  0
 11 12  1  0  0  0
 12 13  1  0  0  0
 12 14  1  0  0  0
 14 15  1  0  0  0
 14 19  1  0  0  0
 14 20  1  0  0  0
 15 16  1  0  0  0
 15 17  1  0  0  0
 17 18  1  0  0  0
 18 19  1  0  0  0
 19 24  1  0  0  0
 31 32  1  0  0  0
 31 38  1  0  0  0
 24 25  1  0  0  0
 24 27  2  0  0  0
 25 26  1  0  0  0
 26 28  1  0  0  0
 27 28  1  0  0  0
 28 29  2  0  0  0
 32 33  1  0  0  0
 33 34  1  0  0  0
 33 35  1  0  0  0
 35 36  1  0  0  0
 35 37  1  0  0  0
 37 38  1  0  0  0
 37 39  1  0  0  0
 13 22  1  0  0  0
 16 23  1  0  0  0
 34 40  1  0  0  0
 36 41  1  0  0  0
M  END
> <minimizedAffinity>
-9.52776

$$$$
1IGJ_DGX_B_228


 41 46  0  0  0  0  0  0  0  0999 V2000
   31.1168   37.9810   71.7418 C   0  0  0  0  0  0  0  0  0  0  0  0
   32.5054   38.4737   72.1510 C   0  0  0  0  0  0  0  0  0  0  0  0
   33.5304   38.3351   71.0251 C   0  0  0  0  0  0  0  0  0  0  0  0
   33.5852   36.8745   70.5972 C   0  0  0  0  0  0  0  0  0  0  0  0
   32.2323   36.2951   70.1888 C   0  0  0  0  0  0  0  0  0  0  0  0
   32.3579   34.8315   69.7729 C   0  0  0  0  0  0  0  0  0  0  0  0
   32.5908   33.9285   70.9814 C   0  0  0  0  0  0  0  0  0  0  0  0
   31.4118   34.0114   71.9469 C   0  0  0  0  0  0  0  0  0  0  0  0
   31.1180   35.4536   72.3659 C   0  0  0  0  0  0  0  0  0  0  0  0
   31.0863   36.5382   71.2152 C   0  0  0  0  0  0  0  0  0  0  0  0
   29.7768   35.4100   73.0908 C   0  0  0  0  0  0  0  0  0  0  0  0
   29.7218   34.4316   74.2552 C   0  0  0  0  0  0  0  0  0  0  0  0
   28.3972   34.4907   74.8028 O   0  0  0  0  0  0  0  0  0  0  0  0
   30.1164   32.9451   73.9206 C   0  0  0  0  0  0  0  0  0  0  0  0
   31.4669   32.9500   73.1208 C   0  0  0  0  0  0  0  0  0  0  0  0
   31.7577   31.5972   72.6121 O   0  0  0  0  0  0  0  0  0  0  0  0
   32.4822   33.1454   74.2698 C   0  0  0  0  0  0  0  0  0  0  0  0
   31.9864   32.3001   75.4417 C   0  0  0  0  0  0  0  0  0  0  0  0
   30.4667   32.2732   75.3110 C   0  0  0  0  0  0  0  0  0  0  0  0
   29.0066   32.2353   73.1212 C   0  0  0  0  0  0  0  0  0  0  0  0
   29.7537   36.5428   70.4409 C   0  0  0  0  0  0  0  0  0  0  0  0
   27.7571   34.2050   74.1323 H   0  0  0  0  0  0  0  0  0  0  0  0
   31.1571   31.3915   71.8787 H   0  0  0  0  0  0  0  0  0  0  0  0
   29.9062   30.9091   75.5916 C   0  0  0  0  0  0  0  0  0  0  0  0
   28.6254   30.6874   76.3047 C   0  0  0  0  0  0  0  0  0  0  0  0
   28.5501   29.2502   76.4657 O   0  0  0  0  0  0  0  0  0  0  0  0
   30.4472   29.7085   75.3242 C   0  0  0  0  0  0  0  0  0  0  0  0
   29.5808   28.6733   75.8398 C   0  0  0  0  0  0  0  0  0  0  0  0
   29.6973   27.4434   75.8372 O   0  0  0  0  0  0  0  0  0  0  0  0
   33.1882   39.1168   69.8715 O   0  0  0  0  0  0  0  0  0  0  0  0
   33.4613   40.5297   69.8574 C   0  0  0  0  0  0  0  0  0  0  0  0
   32.1387   41.2973   69.9287 C   0  0  0  0  0  0  0  0  0  0  0  0
   32.3561   42.8101   70.0120 C   0  0  0  0  0  0  0  0  0  0  0  0
   32.8589   43.3655   68.7805 O   0  0  0  0  0  0  0  0  0  0  0  0
   33.3020   43.1209   71.1752 C   0  0  0  0  0  0  0  0  0  0  0  0
   33.6020   44.5242   71.1631 O   0  0  0  0  0  0  0  0  0  0  0  0
   34.5968   42.2963   71.0857 C   0  0  0  0  0  0  0  0  0  0  0  0
   34.2822   40.8988   70.9676 O   0  0  0  0  0  0  0  0  0  0  0  0
   35.4472   42.4621   72.3367 C   0  0  0  0  0  0  0  0  0  0  0  0
   33.7245   42.9764   68.5799 H   0  0  0  0  0  0  0  0  0  0  0  0
   34.0378   44.7545   70.3277 H   0  0  0  0  0  0  0  0  0  0  0  0
  1  2  1  0  0  0
  1 10  1  0  0  0
  2  3  1  0  0  0
  3 30  1  0  0  0
  3  4  1  0  0  0
 30 31  1  0  0  0
  4  5  1  0  0  0
  5  6  1  0  0  0
  5 10  1  0  0  0
  6  7  1  0  0  0
  7  8  1  0  0  0
  8  9  1  0  0  0
  8 15  1  0  0  0
  9 10  1  0  0  0
  9 11  1  0  0  0
 10 21  1  0  0  0
 11 12  1  0  0  0
 12 13  1  0  0  0
 12 14  1  0  0  0
 14 15  1  0  0  0
 14 19  1  0  0  0
 14 20  1  0  0  0
 15 16  1  0  0  0
 15 17  1  0  0  0
 17 18  1  0  0  0
 18 19  1  0  0  0
 19 24  1  0  0  0
 31 32  1  0  0  0
 31 38  1  0  0  0
 24 25  1  0  0  0
 24 27  2  0  0  0
 25 26  1  0  0  0
 26 28  1  0  0  0
 27 28  1  0  0  0
 28 29  2  0  0  0
 32 33  1  0  0  0
 33 34  1  0  0  0
 33 35  1  0  0  0
 35 36  1  0  0  0
 35 37  1  0  0  0
 37 38  1  0  0  0
 37 39  1  0  0  0
 13 22  1  0  0  0
 16 23  1  0  0  0
 34 40  1  0  0  0
 36 41  1  0  0  0
M  END
> <minimizedAffinity>
-9.39866

$$$$
1IGJ_DGX_B_228


 41 46  0  0  0  0  0  0  0  0999 V2000
   33.6738   34.1921   72.0052 C   0  0  0  0  0  0  0  0  0  0  0  0
   35.1012   33.7884   71.6336 C   0  0  0  0  0  0  0  0  0  0  0  0
   36.0288   33.7352   72.8478 C   0  0  0  0  0  0  0  0  0  0  0  0
   36.0173   35.0987   73.5261 C   0  0  0  0  0  0  0  0  0  0  0  0
   34.6237   35.5880   73.9150 C   0  0  0  0  0  0  0  0  0  0  0  0
   34.6837   36.9571   74.5878 C   0  0  0  0  0  0  0  0  0  0  0  0
   34.9940   38.0594   73.5784 C   0  0  0  0  0  0  0  0  0  0  0  0
   33.8988   38.1383   72.5184 C   0  0  0  0  0  0  0  0  0  0  0  0
   33.6710   36.7896   71.8322 C   0  0  0  0  0  0  0  0  0  0  0  0
   33.5698   35.5202   72.7701 C   0  0  0  0  0  0  0  0  0  0  0  0
   32.3920   36.9498   71.0167 C   0  0  0  0  0  0  0  0  0  0  0  0
   32.4102   38.1165   70.0396 C   0  0  0  0  0  0  0  0  0  0  0  0
   31.1357   38.1447   69.3817 O   0  0  0  0  0  0  0  0  0  0  0  0
   32.7443   39.5243   70.6592 C   0  0  0  0  0  0  0  0  0  0  0  0
   34.0256   39.3891   71.5556 C   0  0  0  0  0  0  0  0  0  0  0  0
   34.2452   40.6341   72.3141 O   0  0  0  0  0  0  0  0  0  0  0  0
   35.1344   39.4050   70.4787 C   0  0  0  0  0  0  0  0  0  0  0  0
   34.7167   40.4388   69.4344 C   0  0  0  0  0  0  0  0  0  0  0  0
   33.1912   40.4316   69.4408 C   0  0  0  0  0  0  0  0  0  0  0  0
   31.5586   40.0753   71.4745 C   0  0  0  0  0  0  0  0  0  0  0  0
   32.1795   35.3707   73.4181 C   0  0  0  0  0  0  0  0  0  0  0  0
   30.4375   38.3041   70.0360 H   0  0  0  0  0  0  0  0  0  0  0  0
   33.5830   40.7040   73.0195 H   0  0  0  0  0  0  0  0  0  0  0  0
   32.6259   41.8197   69.3558 C   0  0  0  0  0  0  0  0  0  0  0  0
   33.1606   42.9642   70.1320 C   0  0  0  0  0  0  0  0  0  0  0  0
   32.2452   44.0491   69.8456 O   0  0  0  0  0  0  0  0  0  0  0  0
   31.5629   42.2513   68.6562 C   0  0  0  0  0  0  0  0  0  0  0  0
   31.3489   43.6527   68.9365 C   0  0  0  0  0  0  0  0  0  0  0  0
   30.4824   44.4363   68.5346 O   0  0  0  0  0  0  0  0  0  0  0  0
   35.6114   32.7612   73.8155 O   0  0  0  0  0  0  0  0  0  0  0  0
   35.7002   33.0635   75.2197 C   0  0  0  0  0  0  0  0  0  0  0  0
   34.3954   32.6504   75.9055 C   0  0  0  0  0  0  0  0  0  0  0  0
   34.4525   32.8568   77.4210 C   0  0  0  0  0  0  0  0  0  0  0  0
   34.4554   34.2503   77.7899 O   0  0  0  0  0  0  0  0  0  0  0  0
   35.6854   32.1430   77.9817 C   0  0  0  0  0  0  0  0  0  0  0  0
   35.8012   32.4512   79.3785 O   0  0  0  0  0  0  0  0  0  0  0  0
   36.9648   32.5554   77.2351 C   0  0  0  0  0  0  0  0  0  0  0  0
   36.7919   32.3641   75.8211 O   0  0  0  0  0  0  0  0  0  0  0  0
   38.1538   31.7073   77.6621 C   0  0  0  0  0  0  0  0  0  0  0  0
   35.2458   34.6794   77.4264 H   0  0  0  0  0  0  0  0  0  0  0  0
   35.9089   33.4087   79.4905 H   0  0  0  0  0  0  0  0  0  0  0  0
  1  2  1  0  0  0
  1 10  1  0  0  0
  2  3  1  0  0  0
  3 30  1  0  0  0
  3  4  1  0  0  0
 30 31  1  0  0  0
  4  5  1  0  0  0
  5  6  1  0  0  0
  5 10  1  0  0  0
  6  7  1  0  0  0
  7  8  1  0  0  0
  8  9  1  0  0  0
  8 15  1  0  0  0
  9 10  1  0  0  0
  9 11  1  0  0  0
 10 21  1  0  0  0
 11 12  1  0  0  0
 12 13  1  0  0  0
 12 14  1  0  0  0
 14 15  1  0  0  0
 14 19  1  0  0  0
 14 20  1  0  0  0
 15 16  1  0  0  0
 15 17  1  0  0  0
 17 18  1  0  0  0
 18 19  1  0  0  0
 19 24  1  0  0  0
 31 32  1  0  0  0
 31 38  1  0  0  0
 24 25  1  0  0  0
 24 27  2  0  0  0
 25 26  1  0  0  0
 26 28  1  0  0  0
 27 28  1  0  0  0
 28 29  2  0  0  0
 32 33  1  0  0  0
 33 34  1  0  0  0
 33 35  1  0  0  0
 35 36  1  0  0  0
 35 37  1  0  0  0
 37 38  1  0  0  0
 37 39  1  0  0  0
 13 22  1  0  0  0
 16 23  1  0  0  0
 34 40  1  0  0  0
 36 41  1  0  0  0
M  END
> <minimizedAffinity>
-9.21615

$$$$
1IGJ_DGX_B_228


 41 46  0  0  0  0  0  0  0  0999 V2000
   32.3006   34.2110   75.3429 C   0  0  0  0  0  0  0  0  0  0  0  0
   30.8833   34.2983   75.9106 C   0  0  0  0  0  0  0  0  0  0  0  0
   29.9444   33.2562   75.3023 C   0  0  0  0  0  0  0  0  0  0  0  0
   29.9282   33.4425   73.7909 C   0  0  0  0  0  0  0  0  0  0  0  0
   31.3103   33.3880   73.1429 C   0  0  0  0  0  0  0  0  0  0  0  0
   31.2226   33.5819   71.6311 C   0  0  0  0  0  0  0  0  0  0  0  0
   30.9058   35.0319   71.2742 C   0  0  0  0  0  0  0  0  0  0  0  0
   32.0103   35.9596   71.7729 C   0  0  0  0  0  0  0  0  0  0  0  0
   32.2656   35.7881   73.2720 C   0  0  0  0  0  0  0  0  0  0  0  0
   32.3765   34.3056   73.8116 C   0  0  0  0  0  0  0  0  0  0  0  0
   33.5501   36.5566   73.5647 C   0  0  0  0  0  0  0  0  0  0  0  0
   33.5241   38.0151   73.1309 C   0  0  0  0  0  0  0  0  0  0  0  0
   34.8046   38.5794   73.4469 O   0  0  0  0  0  0  0  0  0  0  0  0
   33.1622   38.2749   71.6213 C   0  0  0  0  0  0  0  0  0  0  0  0
   31.8742   37.4526   71.2631 C   0  0  0  0  0  0  0  0  0  0  0  0
   31.6280   37.5066   69.8105 O   0  0  0  0  0  0  0  0  0  0  0  0
   30.7762   38.3597   71.8639 C   0  0  0  0  0  0  0  0  0  0  0  0
   31.1887   39.8010   71.5701 C   0  0  0  0  0  0  0  0  0  0  0  0
   32.7140   39.7916   71.5447 C   0  0  0  0  0  0  0  0  0  0  0  0
   34.3312   37.8986   70.6904 C   0  0  0  0  0  0  0  0  0  0  0  0
   33.7624   33.6825   73.5535 C   0  0  0  0  0  0  0  0  0  0  0  0
   35.4935   38.1215   72.9404 H   0  0  0  0  0  0  0  0  0  0  0  0
   32.2819   36.9568   69.3511 H   0  0  0  0  0  0  0  0  0  0  0  0
   33.2589   40.6281   70.4235 C   0  0  0  0  0  0  0  0  0  0  0  0
   32.6309   40.6986   69.0823 C   0  0  0  0  0  0  0  0  0  0  0  0
   33.5492   41.4990   68.2994 O   0  0  0  0  0  0  0  0  0  0  0  0
   34.3760   41.3746   70.4001 C   0  0  0  0  0  0  0  0  0  0  0  0
   34.5359   41.9461   69.0825 C   0  0  0  0  0  0  0  0  0  0  0  0
   35.4223   42.6685   68.6148 O   0  0  0  0  0  0  0  0  0  0  0  0
   30.3668   31.9118   75.5733 O   0  0  0  0  0  0  0  0  0  0  0  0
   29.4559   30.9866   76.1940 C   0  0  0  0  0  0  0  0  0  0  0  0
   28.3368   31.7707   76.8841 C   0  0  0  0  0  0  0  0  0  0  0  0
   27.2765   30.8471   77.4886 C   0  0  0  0  0  0  0  0  0  0  0  0
   27.7643   30.1194   78.6334 O   0  0  0  0  0  0  0  0  0  0  0  0
   26.7687   29.8869   76.4096 C   0  0  0  0  0  0  0  0  0  0  0  0
   25.8743   28.9429   77.0163 O   0  0  0  0  0  0  0  0  0  0  0  0
   27.9285   29.1545   75.7146 C   0  0  0  0  0  0  0  0  0  0  0  0
   28.8864   30.1066   75.2225 O   0  0  0  0  0  0  0  0  0  0  0  0
   27.4392   28.3495   74.5196 C   0  0  0  0  0  0  0  0  0  0  0  0
   28.5011   29.5489   78.3640 H   0  0  0  0  0  0  0  0  0  0  0  0
   26.3490   28.4376   77.6946 H   0  0  0  0  0  0  0  0  0  0  0  0
  1  2  1  0  0  0
  1 10  1  0  0  0
  2  3  1  0  0  0
  3 30  1  0  0  0
  3  4  1  0  0  0
 30 31  1  0  0  0
  4  5  1  0  0  0
  5  6  1  0  0  0
  5 10  1  0  0  0
  6  7  1  0  0  0
  7  8  1  0  0  0
  8  9  1  0  0  0
  8 15  1  0  0  0
  9 10  1  0  0  0
  9 11  1  0  0  0
 10 21  1  0  0  0
 11 12  1  0  0  0
 12 13  1  0  0  0
 12 14  1  0  0  0
 14 15  1  0  0  0
 14 19  1  0  0  0
 14 20  1  0  0  0
 15 16  1  0  0  0
 15 17  1  0  0  0
 17 18  1  0  0  0
 18 19  1  0  0  0
 19 24  1  0  0  0
 31 32  1  0  0  0
 31 38  1  0  0  0
 24 25  1  0  0  0
 24 27  2  0  0  0
 25 26  1  0  0  0
 26 28  1  0  0  0
 27 28  1  0  0  0
 28 29  2  0  0  0
 32 33  1  0  0  0
 33 34  1  0  0  0
 33 35  1  0  0  0
 35 36  1  0  0  0
 35 37  1  0  0  0
 37 38  1  0  0  0
 37 39  1  0  0  0
 13 22  1  0  0  0
 16 23  1  0  0  0
 34 40  1  0  0  0
 36 41  1  0  0  0
M  END
> <minimizedAffinity>
-9.12276

$$$$
1IGJ_DGX_B_228


 41 46  0  0  0  0  0  0  0  0999 V2000
   30.3945   32.7279   71.7025 C   0  0  0  0  0  0  0  0  0  0  0  0
   31.4387   31.6969   72.1330 C   0  0  0  0  0  0  0  0  0  0  0  0
   31.3953   31.4124   73.6346 C   0  0  0  0  0  0  0  0  0  0  0  0
   31.5978   32.7238   74.3819 C   0  0  0  0  0  0  0  0  0  0  0  0
   30.6049   33.8187   73.9969 C   0  0  0  0  0  0  0  0  0  0  0  0
   30.8635   35.1032   74.7804 C   0  0  0  0  0  0  0  0  0  0  0  0
   32.1228   35.8110   74.2872 C   0  0  0  0  0  0  0  0  0  0  0  0
   31.9726   36.2124   72.8225 C   0  0  0  0  0  0  0  0  0  0  0  0
   31.6113   35.0172   71.9378 C   0  0  0  0  0  0  0  0  0  0  0  0
   30.4678   34.0599   72.4642 C   0  0  0  0  0  0  0  0  0  0  0  0
   31.2295   35.6043   70.5828 C   0  0  0  0  0  0  0  0  0  0  0  0
   32.2917   36.5010   69.9631 C   0  0  0  0  0  0  0  0  0  0  0  0
   31.7681   36.9902   68.7204 O   0  0  0  0  0  0  0  0  0  0  0  0
   32.7910   37.6934   70.8610 C   0  0  0  0  0  0  0  0  0  0  0  0
   33.1401   37.1386   72.2872 C   0  0  0  0  0  0  0  0  0  0  0  0
   33.4103   38.2550   73.2114 O   0  0  0  0  0  0  0  0  0  0  0  0
   34.5335   36.5231   72.0244 C   0  0  0  0  0  0  0  0  0  0  0  0
   35.2669   37.4818   71.0881 C   0  0  0  0  0  0  0  0  0  0  0  0
   34.1795   38.1397   70.2444 C   0  0  0  0  0  0  0  0  0  0  0  0
   31.7340   38.8112   70.9496 C   0  0  0  0  0  0  0  0  0  0  0  0
   29.0566   34.6202   72.2000 C   0  0  0  0  0  0  0  0  0  0  0  0
   30.9772   37.5253   68.8911 H   0  0  0  0  0  0  0  0  0  0  0  0
   32.5778   38.7018   73.4308 H   0  0  0  0  0  0  0  0  0  0  0  0
   34.4262   39.6093   70.0629 C   0  0  0  0  0  0  0  0  0  0  0  0
   35.0662   40.4598   71.0950 C   0  0  0  0  0  0  0  0  0  0  0  0
   34.9787   41.8015   70.5570 O   0  0  0  0  0  0  0  0  0  0  0  0
   34.0843   40.3959   69.0285 C   0  0  0  0  0  0  0  0  0  0  0  0
   34.4626   41.7587   69.3247 C   0  0  0  0  0  0  0  0  0  0  0  0
   34.3185   42.7993   68.6744 O   0  0  0  0  0  0  0  0  0  0  0  0
   30.1388   30.8596   74.0526 O   0  0  0  0  0  0  0  0  0  0  0  0
   29.1466   30.5129   73.0696 C   0  0  0  0  0  0  0  0  0  0  0  0
   28.8610   29.0112   73.1528 C   0  0  0  0  0  0  0  0  0  0  0  0
   27.7442   28.5850   72.1968 C   0  0  0  0  0  0  0  0  0  0  0  0
   28.1453   28.6495   70.8136 O   0  0  0  0  0  0  0  0  0  0  0  0
   26.5077   29.4528   72.4458 C   0  0  0  0  0  0  0  0  0  0  0  0
   25.5149   29.1345   71.4597 O   0  0  0  0  0  0  0  0  0  0  0  0
   26.8502   30.9510   72.3958 C   0  0  0  0  0  0  0  0  0  0  0  0
   27.9352   31.2373   73.2941 O   0  0  0  0  0  0  0  0  0  0  0  0
   25.6682   31.8048   72.8311 C   0  0  0  0  0  0  0  0  0  0  0  0
   28.3662   29.5655   70.5834 H   0  0  0  0  0  0  0  0  0  0  0  0
   25.8649   29.3248   70.5753 H   0  0  0  0  0  0  0  0  0  0  0  0
  1  2  1  0  0  0
  1 10  1  0  0  0
  2  3  1  0  0  0
  3 30  1  0  0  0
  3  4  1  0  0  0
 30 31  1  0  0  0
  4  5  1  0  0  0
  5  6  1  0  0  0
  5 10  1  0  0  0
  6  7  1  0  0  0
  7  8  1  0  0  0
  8  9  1  0  0  0
  8 15  1  0  0  0
  9 10  1  0  0  0
  9 11  1  0  0  0
 10 21  1  0  0  0
 11 12  1  0  0  0
 12 13  1  0  0  0
 12 14  1  0  0  0
 14 15  1  0  0  0
 14 19  1  0  0  0
 14 20  1  0  0  0
 15 16  1  0  0  0
 15 17  1  0  0  0
 17 18  1  0  0  0
 18 19  1  0  0  0
 19 24  1  0  0  0
 31 32  1  0  0  0
 31 38  1  0  0  0
 24 25  1  0  0  0
 24 27  2  0  0  0
 25 26  1  0  0  0
 26 28  1  0  0  0
 27 28  1  0  0  0
 28 29  2  0  0  0
 32 33  1  0  0  0
 33 34  1  0  0  0
 33 35  1  0  0  0
 35 36  1  0  0  0
 35 37  1  0  0  0
 37 38  1  0  0  0
 37 39  1  0  0  0
 13 22  1  0  0  0
 16 23  1  0  0  0
 34 40  1  0  0  0
 36 41  1  0  0  0
M  END
> <minimizedAffinity>
-9.03451

$$$$
1IGJ_DGX_B_228


 41 46  0  0  0  0  0  0  0  0999 V2000
   33.4284   33.5405   73.1988 C   0  0  0  0  0  0  0  0  0  0  0  0
   32.0228   33.0121   73.4880 C   0  0  0  0  0  0  0  0  0  0  0  0
   31.5184   32.0649   72.3989 C   0  0  0  0  0  0  0  0  0  0  0  0
   31.5503   32.7997   71.0654 C   0  0  0  0  0  0  0  0  0  0  0  0
   32.9178   33.3780   70.7066 C   0  0  0  0  0  0  0  0  0  0  0  0
   32.8798   34.0999   69.3619 C   0  0  0  0  0  0  0  0  0  0  0  0
   32.1361   35.4290   69.4655 C   0  0  0  0  0  0  0  0  0  0  0  0
   32.8416   36.3622   70.4456 C   0  0  0  0  0  0  0  0  0  0  0  0
   33.0313   35.7109   71.8173 C   0  0  0  0  0  0  0  0  0  0  0  0
   33.5784   34.2271   71.8328 C   0  0  0  0  0  0  0  0  0  0  0  0
   33.9729   36.6315   72.5870 C   0  0  0  0  0  0  0  0  0  0  0  0
   33.5062   38.0773   72.6767 C   0  0  0  0  0  0  0  0  0  0  0  0
   34.5085   38.8075   73.3978 O   0  0  0  0  0  0  0  0  0  0  0  0
   33.1881   38.7812   71.3053 C   0  0  0  0  0  0  0  0  0  0  0  0
   32.2653   37.8371   70.4564 C   0  0  0  0  0  0  0  0  0  0  0  0
   32.1189   38.3694   69.0893 O   0  0  0  0  0  0  0  0  0  0  0  0
   30.8926   38.1078   71.1136 C   0  0  0  0  0  0  0  0  0  0  0  0
   30.8352   39.6057   71.4082 C   0  0  0  0  0  0  0  0  0  0  0  0
   32.2788   40.0265   71.6655 C   0  0  0  0  0  0  0  0  0  0  0  0
   34.4790   39.1243   70.5369 C   0  0  0  0  0  0  0  0  0  0  0  0
   35.1060   34.1560   71.6416 C   0  0  0  0  0  0  0  0  0  0  0  0
   35.3430   38.7852   72.9037 H   0  0  0  0  0  0  0  0  0  0  0  0
   32.9467   38.2383   68.6010 H   0  0  0  0  0  0  0  0  0  0  0  0
   32.6013   41.3412   71.0167 C   0  0  0  0  0  0  0  0  0  0  0  0
   33.6239   42.2777   71.5416 C   0  0  0  0  0  0  0  0  0  0  0  0
   33.5036   43.4481   70.6974 O   0  0  0  0  0  0  0  0  0  0  0  0
   32.0246   41.9121   69.9456 C   0  0  0  0  0  0  0  0  0  0  0  0
   32.6148   43.2129   69.7271 C   0  0  0  0  0  0  0  0  0  0  0  0
   32.3743   44.0799   68.8805 O   0  0  0  0  0  0  0  0  0  0  0  0
   32.3336   30.8908   72.2716 O   0  0  0  0  0  0  0  0  0  0  0  0
   31.7972   29.7114   71.6452 C   0  0  0  0  0  0  0  0  0  0  0  0
   30.2847   29.6639   71.8768 C   0  0  0  0  0  0  0  0  0  0  0  0
   29.6303   28.4819   71.1576 C   0  0  0  0  0  0  0  0  0  0  0  0
   29.9765   27.2137   71.7491 O   0  0  0  0  0  0  0  0  0  0  0  0
   30.0169   28.5151   69.6765 C   0  0  0  0  0  0  0  0  0  0  0  0
   29.5074   27.3339   69.0404 O   0  0  0  0  0  0  0  0  0  0  0  0
   31.5409   28.6065   69.4929 C   0  0  0  0  0  0  0  0  0  0  0  0
   32.0601   29.7190   70.2404 O   0  0  0  0  0  0  0  0  0  0  0  0
   31.9110   28.8322   68.0343 C   0  0  0  0  0  0  0  0  0  0  0  0
   30.9345   27.0767   71.6826 H   0  0  0  0  0  0  0  0  0  0  0  0
   29.8991   26.5491   69.4545 H   0  0  0  0  0  0  0  0  0  0  0  0
  1  2  1  0  0  0
  1 10  1  0  0  0
  2  3  1  0  0  0
  3 30  1  0  0  0
  3  4  1  0  0  0
 30 31  1  0  0  0
  4  5  1  0  0  0
  5  6  1  0  0  0
  5 10  1  0  0  0
  6  7  1  0  0  0
  7  8  1  0  0  0
  8  9  1  0  0  0
  8 15  1  0  0  0
  9 10  1  0  0  0
  9 11  1  0  0  0
 10 21  1  0  0  0
 11 12  1  0  0  0
 12 13  1  0  0  0
 12 14  1  0  0  0
 14 15  1  0  0  0
 14 19  1  0  0  0
 14 20  1  0  0  0
 15 16  1  0  0  0
 15 17  1  0  0  0
 17 18  1  0  0  0
 18 19  1  0  0  0
 19 24  1  0  0  0
 31 32  1  0  0  0
 31 38  1  0  0  0
 24 25  1  0  0  0
 24 27  2  0  0  0
 25 26  1  0  0  0
 26 28  1  0  0  0
 27 28  1  0  0  0
 28 29  2  0  0  0
 32 33  1  0  0  0
 33 34  1  0  0  0
 33 35  1  0  0  0
 35 36  1  0  0  0
 35 37  1  0  0  0
 37 38  1  0  0  0
 37 39  1  0  0  0
 13 22  1  0  0  0
 16 23  1  0  0  0
 34 40  1  0  0  0
 36 41  1  0  0  0
M  END
> <minimizedAffinity>
-8.93736

$$$$
