3T70_DU4_A_400


 32 35  0  0  0  0  0  0  0  0999 V2000
   -7.6476   25.6471   -0.7987 C   0  0  0  0  0  0  0  0  0  0  0  0
   -8.1829   26.7437    0.1204 C   0  0  0  0  0  0  0  0  0  0  0  0
   -8.8548   27.7375   -0.8041 C   0  0  0  0  0  0  0  0  0  0  0  0
  -10.0282   28.2369   -0.1427 O   0  0  0  0  0  0  0  0  0  0  0  0
   -9.2639   26.9074   -2.0262 C   0  0  0  0  0  0  0  0  0  0  0  0
   -8.3916   25.7331   -2.0534 O   0  0  0  0  0  0  0  0  0  0  0  0
  -10.6013   27.4942    0.1037 H   0  0  0  0  0  0  0  0  0  0  0  0
   -6.2198   25.7624   -1.2404 N   0  0  0  0  0  0  0  0  0  0  0  0
   -5.5641   24.5867   -1.6342 C   0  0  0  0  0  0  0  0  0  0  0  0
   -6.1315   23.4938   -1.5870 O   0  0  0  0  0  0  0  0  0  0  0  0
   -4.2446   24.6626   -2.0740 N   0  0  0  0  0  0  0  0  0  0  0  0
   -3.5803   25.8900   -2.1400 C   0  0  0  0  0  0  0  0  0  0  0  0
   -2.4200   25.8970   -2.5444 O   0  0  0  0  0  0  0  0  0  0  0  0
   -4.2243   27.0737   -1.7572 C   0  0  0  0  0  0  0  0  0  0  0  0
   -5.5506   27.0050   -1.3089 C   0  0  0  0  0  0  0  0  0  0  0  0
   -3.7739   23.8404   -2.3419 H   0  0  0  0  0  0  0  0  0  0  0  0
   -9.1255   27.7347   -3.3300 C   0  0  0  0  0  0  0  0  0  0  0  0
  -11.0574   27.3113   -4.6685 C   0  0  0  0  0  0  0  0  0  0  0  0
   -9.6171   26.9897   -4.5197 N   0  0  0  0  0  0  0  0  0  0  0  0
   -8.8534   27.3457   -5.7579 C   0  0  0  0  0  0  0  0  0  0  0  0
   -9.4061   26.7021   -7.0584 C   0  0  0  0  0  0  0  0  0  0  0  0
   -9.6467   27.5344   -8.1584 C   0  0  0  0  0  0  0  0  0  0  0  0
  -10.1444   27.0083   -9.3498 C   0  0  0  0  0  0  0  0  0  0  0  0
  -10.3976   25.6414   -9.4430 C   0  0  0  0  0  0  0  0  0  0  0  0
  -10.1559   24.8049   -8.3524 C   0  0  0  0  0  0  0  0  0  0  0  0
   -9.6578   25.3361   -7.1607 C   0  0  0  0  0  0  0  0  0  0  0  0
   -7.3471   27.0278   -5.6633 C   0  0  0  0  0  0  0  0  0  0  0  0
   -6.4333   28.0615   -5.8633 C   0  0  0  0  0  0  0  0  0  0  0  0
   -5.0602   27.8273   -5.7839 C   0  0  0  0  0  0  0  0  0  0  0  0
   -4.5899   26.5446   -5.5080 C   0  0  0  0  0  0  0  0  0  0  0  0
   -5.5025   25.5080   -5.3173 C   0  0  0  0  0  0  0  0  0  0  0  0
   -6.8788   25.7393   -5.3892 C   0  0  0  0  0  0  0  0  0  0  0  0
  8  9  1  0  0  0
  8 15  1  0  0  0
  8  1  1  0  0  0
  9 10  2  0  0  0
  9 11  1  0  0  0
 11 12  1  0  0  0
 12 13  2  0  0  0
 12 14  1  0  0  0
 14 15  2  0  0  0
  1  2  1  0  0  0
  1  6  1  0  0  0
 20 21  1  0  0  0
 20 27  1  0  0  0
 20 19  1  0  0  0
 21 22  2  0  0  0
 21 26  1  0  0  0
 22 23  1  0  0  0
  2  3  1  0  0  0
 23 24  2  0  0  0
 24 25  1  0  0  0
 25 26  2  0  0  0
 27 28  2  0  0  0
 27 32  1  0  0  0
 28 29  1  0  0  0
 29 30  2  0  0  0
 30 31  1  0  0  0
 31 32  2  0  0  0
  3  4  1  0  0  0
  3  5  1  0  0  0
  5  6  1  0  0  0
  5 17  1  0  0  0
 18 19  1  0  0  0
 17 19  1  0  0  0
 11 16  1  0  0  0
  4  7  1  0  0  0
M  END
> <minimizedAffinity>
-9.31144

$$$$
3T70_DU4_A_400


 32 35  0  0  0  0  0  0  0  0999 V2000
   -7.5614   27.5380    0.2300 C   0  0  0  0  0  0  0  0  0  0  0  0
   -7.5929   26.0537   -0.1305 C   0  0  0  0  0  0  0  0  0  0  0  0
   -8.1528   26.0031   -1.5368 C   0  0  0  0  0  0  0  0  0  0  0  0
   -7.4695   24.9600   -2.2500 O   0  0  0  0  0  0  0  0  0  0  0  0
   -7.7926   27.3648   -2.1415 C   0  0  0  0  0  0  0  0  0  0  0  0
   -7.5984   28.2882   -1.0235 O   0  0  0  0  0  0  0  0  0  0  0  0
   -6.5136   25.1228   -2.2234 H   0  0  0  0  0  0  0  0  0  0  0  0
   -8.7347   28.0821    0.9878 N   0  0  0  0  0  0  0  0  0  0  0  0
   -8.6210   28.1758    2.3826 C   0  0  0  0  0  0  0  0  0  0  0  0
   -7.6055   27.7934    2.9667 O   0  0  0  0  0  0  0  0  0  0  0  0
   -9.6837   28.7005    3.1145 N   0  0  0  0  0  0  0  0  0  0  0  0
  -10.8445   29.1441    2.4756 C   0  0  0  0  0  0  0  0  0  0  0  0
  -11.7456   29.6060    3.1717 O   0  0  0  0  0  0  0  0  0  0  0  0
  -10.9698   29.0639    1.0828 C   0  0  0  0  0  0  0  0  0  0  0  0
   -9.9066   28.5326    0.3396 C   0  0  0  0  0  0  0  0  0  0  0  0
   -9.6159   28.7596    4.0948 H   0  0  0  0  0  0  0  0  0  0  0  0
   -8.9132   27.8647   -3.0890 C   0  0  0  0  0  0  0  0  0  0  0  0
  -10.6543   26.8459   -4.3671 C   0  0  0  0  0  0  0  0  0  0  0  0
   -9.1826   26.9039   -4.1920 N   0  0  0  0  0  0  0  0  0  0  0  0
   -8.5027   27.3073   -5.4641 C   0  0  0  0  0  0  0  0  0  0  0  0
   -9.1339   26.7022   -6.7472 C   0  0  0  0  0  0  0  0  0  0  0  0
   -9.4808   27.5723   -7.7880 C   0  0  0  0  0  0  0  0  0  0  0  0
  -10.0523   27.0816   -8.9613 C   0  0  0  0  0  0  0  0  0  0  0  0
  -10.2728   25.7125   -9.0963 C   0  0  0  0  0  0  0  0  0  0  0  0
   -9.9254   24.8386   -8.0652 C   0  0  0  0  0  0  0  0  0  0  0  0
   -9.3536   25.3344   -6.8914 C   0  0  0  0  0  0  0  0  0  0  0  0
   -6.9914   26.9996   -5.4772 C   0  0  0  0  0  0  0  0  0  0  0  0
   -6.0971   28.0553   -5.6492 C   0  0  0  0  0  0  0  0  0  0  0  0
   -4.7202   27.8306   -5.6638 C   0  0  0  0  0  0  0  0  0  0  0  0
   -4.2267   26.5361   -5.5115 C   0  0  0  0  0  0  0  0  0  0  0  0
   -5.1202   25.4783   -5.3492 C   0  0  0  0  0  0  0  0  0  0  0  0
   -6.4999   25.6994   -5.3271 C   0  0  0  0  0  0  0  0  0  0  0  0
  8  9  1  0  0  0
  8 15  1  0  0  0
  8  1  1  0  0  0
  9 10  2  0  0  0
  9 11  1  0  0  0
 11 12  1  0  0  0
 12 13  2  0  0  0
 12 14  1  0  0  0
 14 15  2  0  0  0
  1  2  1  0  0  0
  1  6  1  0  0  0
 20 21  1  0  0  0
 20 27  1  0  0  0
 20 19  1  0  0  0
 21 22  2  0  0  0
 21 26  1  0  0  0
 22 23  1  0  0  0
  2  3  1  0  0  0
 23 24  2  0  0  0
 24 25  1  0  0  0
 25 26  2  0  0  0
 27 28  2  0  0  0
 27 32  1  0  0  0
 28 29  1  0  0  0
 29 30  2  0  0  0
 30 31  1  0  0  0
 31 32  2  0  0  0
  3  4  1  0  0  0
  3  5  1  0  0  0
  5  6  1  0  0  0
  5 17  1  0  0  0
 18 19  1  0  0  0
 17 19  1  0  0  0
 11 16  1  0  0  0
  4  7  1  0  0  0
M  END
> <minimizedAffinity>
-8.18223

$$$$
3T70_DU4_A_400


 32 35  0  0  0  0  0  0  0  0999 V2000
   -7.6895   25.5687   -0.8919 C   0  0  0  0  0  0  0  0  0  0  0  0
   -8.3251   26.7583   -0.1745 C   0  0  0  0  0  0  0  0  0  0  0  0
   -9.0524   27.5272   -1.2579 C   0  0  0  0  0  0  0  0  0  0  0  0
  -10.2733   28.0367   -0.6981 O   0  0  0  0  0  0  0  0  0  0  0  0
   -9.3727   26.4744   -2.3252 C   0  0  0  0  0  0  0  0  0  0  0  0
   -8.4130   25.3844   -2.1481 O   0  0  0  0  0  0  0  0  0  0  0  0
  -10.7929   27.3030   -0.3337 H   0  0  0  0  0  0  0  0  0  0  0  0
   -6.2663   25.7201   -1.3372 N   0  0  0  0  0  0  0  0  0  0  0  0
   -5.5590   24.5534   -1.6622 C   0  0  0  0  0  0  0  0  0  0  0  0
   -6.0791   23.4414   -1.5535 O   0  0  0  0  0  0  0  0  0  0  0  0
   -4.2423   24.6608   -2.1035 N   0  0  0  0  0  0  0  0  0  0  0  0
   -3.6310   25.9100   -2.2384 C   0  0  0  0  0  0  0  0  0  0  0  0
   -2.4705   25.9441   -2.6407 O   0  0  0  0  0  0  0  0  0  0  0  0
   -4.3268   27.0847   -1.9249 C   0  0  0  0  0  0  0  0  0  0  0  0
   -5.6508   26.9846   -1.4755 C   0  0  0  0  0  0  0  0  0  0  0  0
   -3.7356   23.8459   -2.3232 H   0  0  0  0  0  0  0  0  0  0  0  0
   -9.2721   27.0798   -3.7488 C   0  0  0  0  0  0  0  0  0  0  0  0
  -11.0196   27.0627   -5.3764 C   0  0  0  0  0  0  0  0  0  0  0  0
   -9.9522   26.2335   -4.7655 N   0  0  0  0  0  0  0  0  0  0  0  0
   -8.9977   25.7305   -5.8042 C   0  0  0  0  0  0  0  0  0  0  0  0
   -7.5916   26.3872   -5.7533 C   0  0  0  0  0  0  0  0  0  0  0  0
   -6.4926   25.5757   -5.4462 C   0  0  0  0  0  0  0  0  0  0  0  0
   -5.2083   26.1149   -5.3858 C   0  0  0  0  0  0  0  0  0  0  0  0
   -5.0216   27.4722   -5.6393 C   0  0  0  0  0  0  0  0  0  0  0  0
   -6.1115   28.2864   -5.9506 C   0  0  0  0  0  0  0  0  0  0  0  0
   -7.3964   27.7423   -6.0096 C   0  0  0  0  0  0  0  0  0  0  0  0
   -9.5365   25.8523   -7.2442 C   0  0  0  0  0  0  0  0  0  0  0  0
   -9.5347   27.1063   -7.8534 C   0  0  0  0  0  0  0  0  0  0  0  0
  -10.0070   27.2690   -9.1561 C   0  0  0  0  0  0  0  0  0  0  0  0
  -10.4940   26.1691   -9.8600 C   0  0  0  0  0  0  0  0  0  0  0  0
  -10.5054   24.9163   -9.2485 C   0  0  0  0  0  0  0  0  0  0  0  0
  -10.0271   24.7473   -7.9464 C   0  0  0  0  0  0  0  0  0  0  0  0
  8  9  1  0  0  0
  8 15  1  0  0  0
  8  1  1  0  0  0
  9 10  2  0  0  0
  9 11  1  0  0  0
 11 12  1  0  0  0
 12 13  2  0  0  0
 12 14  1  0  0  0
 14 15  2  0  0  0
  1  2  1  0  0  0
  1  6  1  0  0  0
 20 21  1  0  0  0
 20 27  1  0  0  0
 20 19  1  0  0  0
 21 22  2  0  0  0
 21 26  1  0  0  0
 22 23  1  0  0  0
  2  3  1  0  0  0
 23 24  2  0  0  0
 24 25  1  0  0  0
 25 26  2  0  0  0
 27 28  2  0  0  0
 27 32  1  0  0  0
 28 29  1  0  0  0
 29 30  2  0  0  0
 30 31  1  0  0  0
 31 32  2  0  0  0
  3  4  1  0  0  0
  3  5  1  0  0  0
  5  6  1  0  0  0
  5 17  1  0  0  0
 18 19  1  0  0  0
 17 19  1  0  0  0
 11 16  1  0  0  0
  4  7  1  0  0  0
M  END
> <minimizedAffinity>
-8.03046

$$$$
3T70_DU4_A_400


 32 35  0  0  0  0  0  0  0  0999 V2000
   -9.6742   28.1263    0.6167 C   0  0  0  0  0  0  0  0  0  0  0  0
  -11.0830   28.5869    0.2468 C   0  0  0  0  0  0  0  0  0  0  0  0
  -11.1083   28.5954   -1.2676 C   0  0  0  0  0  0  0  0  0  0  0  0
  -12.4072   28.1533   -1.6929 O   0  0  0  0  0  0  0  0  0  0  0  0
  -10.0516   27.5618   -1.6738 C   0  0  0  0  0  0  0  0  0  0  0  0
   -9.1244   27.4376   -0.5489 O   0  0  0  0  0  0  0  0  0  0  0  0
  -12.5930   27.2812   -1.3111 H   0  0  0  0  0  0  0  0  0  0  0  0
   -8.6574   29.1923    0.8938 N   0  0  0  0  0  0  0  0  0  0  0  0
   -7.7508   28.9698    1.9405 C   0  0  0  0  0  0  0  0  0  0  0  0
   -7.8095   27.9492    2.6288 O   0  0  0  0  0  0  0  0  0  0  0  0
   -6.7772   29.9293    2.2081 N   0  0  0  0  0  0  0  0  0  0  0  0
   -6.6875   31.0932    1.4403 C   0  0  0  0  0  0  0  0  0  0  0  0
   -5.8029   31.9000    1.7167 O   0  0  0  0  0  0  0  0  0  0  0  0
   -7.5810   31.3262    0.3869 C   0  0  0  0  0  0  0  0  0  0  0  0
   -8.5667   30.3675    0.1144 C   0  0  0  0  0  0  0  0  0  0  0  0
   -6.1440   29.7855    2.9481 H   0  0  0  0  0  0  0  0  0  0  0  0
   -9.3098   28.0039   -2.9613 C   0  0  0  0  0  0  0  0  0  0  0  0
  -10.8038   26.7369   -4.3271 C   0  0  0  0  0  0  0  0  0  0  0  0
   -9.3698   26.9664   -4.0254 N   0  0  0  0  0  0  0  0  0  0  0  0
   -8.6188   27.3800   -5.2534 C   0  0  0  0  0  0  0  0  0  0  0  0
   -9.1624   26.7681   -6.5729 C   0  0  0  0  0  0  0  0  0  0  0  0
   -9.5105   27.6391   -7.6125 C   0  0  0  0  0  0  0  0  0  0  0  0
  -10.0051   27.1423   -8.8177 C   0  0  0  0  0  0  0  0  0  0  0  0
  -10.1471   25.7665   -8.9857 C   0  0  0  0  0  0  0  0  0  0  0  0
   -9.7979   24.8919   -7.9558 C   0  0  0  0  0  0  0  0  0  0  0  0
   -9.3033   25.3938   -6.7500 C   0  0  0  0  0  0  0  0  0  0  0  0
   -7.1056   27.0923   -5.1742 C   0  0  0  0  0  0  0  0  0  0  0  0
   -6.2246   27.9801   -5.7900 C   0  0  0  0  0  0  0  0  0  0  0  0
   -4.8465   27.7675   -5.7433 C   0  0  0  0  0  0  0  0  0  0  0  0
   -4.3385   26.6520   -5.0798 C   0  0  0  0  0  0  0  0  0  0  0  0
   -5.2190   25.7583   -4.4719 C   0  0  0  0  0  0  0  0  0  0  0  0
   -6.5997   25.9707   -4.5102 C   0  0  0  0  0  0  0  0  0  0  0  0
  8  9  1  0  0  0
  8 15  1  0  0  0
  8  1  1  0  0  0
  9 10  2  0  0  0
  9 11  1  0  0  0
 11 12  1  0  0  0
 12 13  2  0  0  0
 12 14  1  0  0  0
 14 15  2  0  0  0
  1  2  1  0  0  0
  1  6  1  0  0  0
 20 21  1  0  0  0
 20 27  1  0  0  0
 20 19  1  0  0  0
 21 22  2  0  0  0
 21 26  1  0  0  0
 22 23  1  0  0  0
  2  3  1  0  0  0
 23 24  2  0  0  0
 24 25  1  0  0  0
 25 26  2  0  0  0
 27 28  2  0  0  0
 27 32  1  0  0  0
 28 29  1  0  0  0
 29 30  2  0  0  0
 30 31  1  0  0  0
 31 32  2  0  0  0
  3  4  1  0  0  0
  3  5  1  0  0  0
  5  6  1  0  0  0
  5 17  1  0  0  0
 18 19  1  0  0  0
 17 19  1  0  0  0
 11 16  1  0  0  0
  4  7  1  0  0  0
M  END
> <minimizedAffinity>
-7.25080

$$$$
3T70_DU4_A_400


 32 35  0  0  0  0  0  0  0  0999 V2000
   -6.5568   27.2502   -4.6782 C   0  0  0  0  0  0  0  0  0  0  0  0
   -7.2649   27.0028   -6.0090 C   0  0  0  0  0  0  0  0  0  0  0  0
   -8.6840   27.4864   -5.7945 C   0  0  0  0  0  0  0  0  0  0  0  0
   -9.1318   28.1046   -7.0114 O   0  0  0  0  0  0  0  0  0  0  0  0
   -8.5655   28.5434   -4.6906 C   0  0  0  0  0  0  0  0  0  0  0  0
   -7.3358   28.2518   -3.9534 O   0  0  0  0  0  0  0  0  0  0  0  0
   -8.5181   28.8140   -7.2584 H   0  0  0  0  0  0  0  0  0  0  0  0
   -6.4941   26.1041   -3.7141 N   0  0  0  0  0  0  0  0  0  0  0  0
   -5.3010   25.9195   -3.0001 C   0  0  0  0  0  0  0  0  0  0  0  0
   -4.3282   26.6534   -3.1835 O   0  0  0  0  0  0  0  0  0  0  0  0
   -5.2182   24.8789   -2.0780 N   0  0  0  0  0  0  0  0  0  0  0  0
   -6.3082   24.0350   -1.8494 C   0  0  0  0  0  0  0  0  0  0  0  0
   -6.1802   23.1397   -1.0176 O   0  0  0  0  0  0  0  0  0  0  0  0
   -7.5087   24.2114   -2.5492 C   0  0  0  0  0  0  0  0  0  0  0  0
   -7.5984   25.2534   -3.4825 C   0  0  0  0  0  0  0  0  0  0  0  0
   -4.3806   24.7361   -1.5807 H   0  0  0  0  0  0  0  0  0  0  0  0
   -9.7995   28.5067   -3.7529 C   0  0  0  0  0  0  0  0  0  0  0  0
  -10.0620   30.0123   -1.9179 C   0  0  0  0  0  0  0  0  0  0  0  0
   -9.4282   28.7366   -2.3311 N   0  0  0  0  0  0  0  0  0  0  0  0
   -9.8632   27.6068   -1.4493 C   0  0  0  0  0  0  0  0  0  0  0  0
  -11.3821   27.5943   -1.1271 C   0  0  0  0  0  0  0  0  0  0  0  0
  -12.2295   26.8538   -1.9602 C   0  0  0  0  0  0  0  0  0  0  0  0
  -13.6017   26.8101   -1.7168 C   0  0  0  0  0  0  0  0  0  0  0  0
  -14.1281   27.5064   -0.6308 C   0  0  0  0  0  0  0  0  0  0  0  0
  -13.2892   28.2428    0.2067 C   0  0  0  0  0  0  0  0  0  0  0  0
  -11.9153   28.2843   -0.0410 C   0  0  0  0  0  0  0  0  0  0  0  0
   -9.0860   27.5311   -0.1193 C   0  0  0  0  0  0  0  0  0  0  0  0
   -8.0488   26.6065   -0.0043 C   0  0  0  0  0  0  0  0  0  0  0  0
   -7.3121   26.5017    1.1758 C   0  0  0  0  0  0  0  0  0  0  0  0
   -7.6162   27.3243    2.2591 C   0  0  0  0  0  0  0  0  0  0  0  0
   -8.6594   28.2426    2.1488 C   0  0  0  0  0  0  0  0  0  0  0  0
   -9.3957   28.3559    0.9664 C   0  0  0  0  0  0  0  0  0  0  0  0
  8  9  1  0  0  0
  8 15  1  0  0  0
  8  1  1  0  0  0
  9 10  2  0  0  0
  9 11  1  0  0  0
 11 12  1  0  0  0
 12 13  2  0  0  0
 12 14  1  0  0  0
 14 15  2  0  0  0
  1  2  1  0  0  0
  1  6  1  0  0  0
 20 21  1  0  0  0
 20 27  1  0  0  0
 20 19  1  0  0  0
 21 22  2  0  0  0
 21 26  1  0  0  0
 22 23  1  0  0  0
  2  3  1  0  0  0
 23 24  2  0  0  0
 24 25  1  0  0  0
 25 26  2  0  0  0
 27 28  2  0  0  0
 27 32  1  0  0  0
 28 29  1  0  0  0
 29 30  2  0  0  0
 30 31  1  0  0  0
 31 32  2  0  0  0
  3  4  1  0  0  0
  3  5  1  0  0  0
  5  6  1  0  0  0
  5 17  1  0  0  0
 18 19  1  0  0  0
 17 19  1  0  0  0
 11 16  1  0  0  0
  4  7  1  0  0  0
M  END
> <minimizedAffinity>
-7.11839

$$$$
3T70_DU4_A_400


 32 35  0  0  0  0  0  0  0  0999 V2000
   -9.2789   27.1796   -6.3741 C   0  0  0  0  0  0  0  0  0  0  0  0
   -9.9356   25.8748   -6.8214 C   0  0  0  0  0  0  0  0  0  0  0  0
  -10.4472   25.2358   -5.5471 C   0  0  0  0  0  0  0  0  0  0  0  0
  -11.7019   24.6010   -5.8408 O   0  0  0  0  0  0  0  0  0  0  0  0
  -10.6745   26.4138   -4.5927 C   0  0  0  0  0  0  0  0  0  0  0  0
   -9.8219   27.5079   -5.0577 O   0  0  0  0  0  0  0  0  0  0  0  0
  -12.3144   25.2532   -6.2155 H   0  0  0  0  0  0  0  0  0  0  0  0
   -7.7993   27.1533   -6.1357 N   0  0  0  0  0  0  0  0  0  0  0  0
   -7.1148   28.3772   -6.1602 C   0  0  0  0  0  0  0  0  0  0  0  0
   -7.7038   29.4324   -6.4021 O   0  0  0  0  0  0  0  0  0  0  0  0
   -5.7433   28.3907   -5.9177 N   0  0  0  0  0  0  0  0  0  0  0  0
   -5.0531   27.2085   -5.6378 C   0  0  0  0  0  0  0  0  0  0  0  0
   -3.8455   27.2825   -5.4230 O   0  0  0  0  0  0  0  0  0  0  0  0
   -5.7241   25.9794   -5.6023 C   0  0  0  0  0  0  0  0  0  0  0  0
   -7.1036   25.9570   -5.8501 C   0  0  0  0  0  0  0  0  0  0  0  0
   -5.2537   29.2444   -5.9439 H   0  0  0  0  0  0  0  0  0  0  0  0
  -10.3295   26.0197   -3.1336 C   0  0  0  0  0  0  0  0  0  0  0  0
  -11.2544   27.8317   -1.8829 C   0  0  0  0  0  0  0  0  0  0  0  0
   -9.9786   27.2027   -2.3031 N   0  0  0  0  0  0  0  0  0  0  0  0
   -9.1454   26.8265   -1.1168 C   0  0  0  0  0  0  0  0  0  0  0  0
   -8.9327   27.9748   -0.0936 C   0  0  0  0  0  0  0  0  0  0  0  0
   -8.7314   27.6355    1.2499 C   0  0  0  0  0  0  0  0  0  0  0  0
   -8.5371   28.6276    2.2101 C   0  0  0  0  0  0  0  0  0  0  0  0
   -8.5389   29.9661    1.8232 C   0  0  0  0  0  0  0  0  0  0  0  0
   -8.7343   30.3118    0.4854 C   0  0  0  0  0  0  0  0  0  0  0  0
   -8.9290   29.3149   -0.4731 C   0  0  0  0  0  0  0  0  0  0  0  0
   -7.7643   26.2523   -1.4934 C   0  0  0  0  0  0  0  0  0  0  0  0
   -6.7137   27.1391   -1.7250 C   0  0  0  0  0  0  0  0  0  0  0  0
   -5.4440   26.6703   -2.0638 C   0  0  0  0  0  0  0  0  0  0  0  0
   -5.2185   25.2999   -2.1801 C   0  0  0  0  0  0  0  0  0  0  0  0
   -6.2706   24.4125   -1.9583 C   0  0  0  0  0  0  0  0  0  0  0  0
   -7.5423   24.8770   -1.6120 C   0  0  0  0  0  0  0  0  0  0  0  0
  8  9  1  0  0  0
  8 15  1  0  0  0
  8  1  1  0  0  0
  9 10  2  0  0  0
  9 11  1  0  0  0
 11 12  1  0  0  0
 12 13  2  0  0  0
 12 14  1  0  0  0
 14 15  2  0  0  0
  1  2  1  0  0  0
  1  6  1  0  0  0
 20 21  1  0  0  0
 20 27  1  0  0  0
 20 19  1  0  0  0
 21 22  2  0  0  0
 21 26  1  0  0  0
 22 23  1  0  0  0
  2  3  1  0  0  0
 23 24  2  0  0  0
 24 25  1  0  0  0
 25 26  2  0  0  0
 27 28  2  0  0  0
 27 32  1  0  0  0
 28 29  1  0  0  0
 29 30  2  0  0  0
 30 31  1  0  0  0
 31 32  2  0  0  0
  3  4  1  0  0  0
  3  5  1  0  0  0
  5  6  1  0  0  0
  5 17  1  0  0  0
 18 19  1  0  0  0
 17 19  1  0  0  0
 11 16  1  0  0  0
  4  7  1  0  0  0
M  END
> <minimizedAffinity>
-7.08272

$$$$
3T70_DU4_A_400


 32 35  0  0  0  0  0  0  0  0999 V2000
   -7.1689   27.2899   -4.9895 C   0  0  0  0  0  0  0  0  0  0  0  0
   -8.1546   27.0232   -6.1258 C   0  0  0  0  0  0  0  0  0  0  0  0
   -9.4800   27.5636   -5.6306 C   0  0  0  0  0  0  0  0  0  0  0  0
  -10.1634   28.1561   -6.7466 O   0  0  0  0  0  0  0  0  0  0  0  0
   -9.0967   28.6522   -4.6217 C   0  0  0  0  0  0  0  0  0  0  0  0
   -7.7451   28.3422   -4.1553 O   0  0  0  0  0  0  0  0  0  0  0  0
   -9.5985   28.8346   -7.1484 H   0  0  0  0  0  0  0  0  0  0  0  0
   -6.9304   26.1753   -4.0161 N   0  0  0  0  0  0  0  0  0  0  0  0
   -5.6594   26.0847   -3.4300 C   0  0  0  0  0  0  0  0  0  0  0  0
   -4.7612   26.8734   -3.7300 O   0  0  0  0  0  0  0  0  0  0  0  0
   -5.4122   25.0755   -2.5023 N   0  0  0  0  0  0  0  0  0  0  0  0
   -6.4146   24.1710   -2.1427 C   0  0  0  0  0  0  0  0  0  0  0  0
   -6.1417   23.3072   -1.3125 O   0  0  0  0  0  0  0  0  0  0  0  0
   -7.6911   24.2533   -2.7137 C   0  0  0  0  0  0  0  0  0  0  0  0
   -7.9463   25.2632   -3.6518 C   0  0  0  0  0  0  0  0  0  0  0  0
   -4.5195   24.9986   -2.0946 H   0  0  0  0  0  0  0  0  0  0  0  0
  -10.0991   28.6907   -3.4398 C   0  0  0  0  0  0  0  0  0  0  0  0
   -9.9756   30.9404   -2.6484 C   0  0  0  0  0  0  0  0  0  0  0  0
   -9.6115   29.5404   -2.3207 N   0  0  0  0  0  0  0  0  0  0  0  0
  -10.1959   29.1240   -1.0060 C   0  0  0  0  0  0  0  0  0  0  0  0
   -9.2380   28.2865   -0.1161 C   0  0  0  0  0  0  0  0  0  0  0  0
   -9.2460   28.5175    1.2649 C   0  0  0  0  0  0  0  0  0  0  0  0
   -8.4045   27.7943    2.1094 C   0  0  0  0  0  0  0  0  0  0  0  0
   -7.5545   26.8312    1.5700 C   0  0  0  0  0  0  0  0  0  0  0  0
   -7.5442   26.5922    0.1951 C   0  0  0  0  0  0  0  0  0  0  0  0
   -8.3883   27.3191   -0.6473 C   0  0  0  0  0  0  0  0  0  0  0  0
  -11.5263   28.3555   -1.1409 C   0  0  0  0  0  0  0  0  0  0  0  0
  -12.7051   28.9887   -0.7494 C   0  0  0  0  0  0  0  0  0  0  0  0
  -13.9351   28.3388   -0.8558 C   0  0  0  0  0  0  0  0  0  0  0  0
  -13.9918   27.0378   -1.3526 C   0  0  0  0  0  0  0  0  0  0  0  0
  -12.8127   26.4000   -1.7353 C   0  0  0  0  0  0  0  0  0  0  0  0
  -11.5792   27.0495   -1.6370 C   0  0  0  0  0  0  0  0  0  0  0  0
  8  9  1  0  0  0
  8 15  1  0  0  0
  8  1  1  0  0  0
  9 10  2  0  0  0
  9 11  1  0  0  0
 11 12  1  0  0  0
 12 13  2  0  0  0
 12 14  1  0  0  0
 14 15  2  0  0  0
  1  2  1  0  0  0
  1  6  1  0  0  0
 20 21  1  0  0  0
 20 27  1  0  0  0
 20 19  1  0  0  0
 21 22  2  0  0  0
 21 26  1  0  0  0
 22 23  1  0  0  0
  2  3  1  0  0  0
 23 24  2  0  0  0
 24 25  1  0  0  0
 25 26  2  0  0  0
 27 28  2  0  0  0
 27 32  1  0  0  0
 28 29  1  0  0  0
 29 30  2  0  0  0
 30 31  1  0  0  0
 31 32  2  0  0  0
  3  4  1  0  0  0
  3  5  1  0  0  0
  5  6  1  0  0  0
  5 17  1  0  0  0
 18 19  1  0  0  0
 17 19  1  0  0  0
 11 16  1  0  0  0
  4  7  1  0  0  0
M  END
> <minimizedAffinity>
-7.00264

$$$$
3T70_DU4_A_400


 32 35  0  0  0  0  0  0  0  0999 V2000
   -7.0604   27.1347   -0.2790 C   0  0  0  0  0  0  0  0  0  0  0  0
   -7.4043   25.6701   -0.5446 C   0  0  0  0  0  0  0  0  0  0  0  0
   -8.0941   25.6671   -1.8929 C   0  0  0  0  0  0  0  0  0  0  0  0
   -7.6896   24.4819   -2.5966 O   0  0  0  0  0  0  0  0  0  0  0  0
   -7.5429   26.9062   -2.6076 C   0  0  0  0  0  0  0  0  0  0  0  0
   -7.0738   27.8227   -1.5681 O   0  0  0  0  0  0  0  0  0  0  0  0
   -6.7220   24.4583   -2.6607 H   0  0  0  0  0  0  0  0  0  0  0  0
   -8.0334   27.9274    0.5406 N   0  0  0  0  0  0  0  0  0  0  0  0
   -8.0314   27.7244    1.9284 C   0  0  0  0  0  0  0  0  0  0  0  0
   -7.2795   26.8996    2.4511 O   0  0  0  0  0  0  0  0  0  0  0  0
   -8.9060   28.4633    2.7217 N   0  0  0  0  0  0  0  0  0  0  0  0
   -9.7660   29.4067    2.1538 C   0  0  0  0  0  0  0  0  0  0  0  0
  -10.5090   30.0355    2.9038 O   0  0  0  0  0  0  0  0  0  0  0  0
   -9.7742   29.6261    0.7703 C   0  0  0  0  0  0  0  0  0  0  0  0
   -8.9004   28.8829   -0.0354 C   0  0  0  0  0  0  0  0  0  0  0  0
   -8.9183   28.3189    3.6955 H   0  0  0  0  0  0  0  0  0  0  0  0
   -8.6339   27.5710   -3.4858 C   0  0  0  0  0  0  0  0  0  0  0  0
   -7.0150   26.9182   -5.1154 C   0  0  0  0  0  0  0  0  0  0  0  0
   -8.4415   27.2805   -4.9317 N   0  0  0  0  0  0  0  0  0  0  0  0
   -9.3431   26.1831   -5.4069 C   0  0  0  0  0  0  0  0  0  0  0  0
   -9.6702   26.2347   -6.9239 C   0  0  0  0  0  0  0  0  0  0  0  0
  -10.0758   25.0521   -7.5544 C   0  0  0  0  0  0  0  0  0  0  0  0
  -10.3799   25.0426   -8.9150 C   0  0  0  0  0  0  0  0  0  0  0  0
  -10.2830   26.2237   -9.6477 C   0  0  0  0  0  0  0  0  0  0  0  0
   -9.8838   27.4073   -9.0253 C   0  0  0  0  0  0  0  0  0  0  0  0
   -9.5797   27.4123   -7.6622 C   0  0  0  0  0  0  0  0  0  0  0  0
  -10.6718   26.0991   -4.6283 C   0  0  0  0  0  0  0  0  0  0  0  0
  -11.5299   27.1977   -4.6526 C   0  0  0  0  0  0  0  0  0  0  0  0
  -12.7457   27.1705   -3.9687 C   0  0  0  0  0  0  0  0  0  0  0  0
  -13.1095   26.0363   -3.2450 C   0  0  0  0  0  0  0  0  0  0  0  0
  -12.2479   24.9408   -3.2119 C   0  0  0  0  0  0  0  0  0  0  0  0
  -11.0323   24.9608   -3.9009 C   0  0  0  0  0  0  0  0  0  0  0  0
  8  9  1  0  0  0
  8 15  1  0  0  0
  8  1  1  0  0  0
  9 10  2  0  0  0
  9 11  1  0  0  0
 11 12  1  0  0  0
 12 13  2  0  0  0
 12 14  1  0  0  0
 14 15  2  0  0  0
  1  2  1  0  0  0
  1  6  1  0  0  0
 20 21  1  0  0  0
 20 27  1  0  0  0
 20 19  1  0  0  0
 21 22  2  0  0  0
 21 26  1  0  0  0
 22 23  1  0  0  0
  2  3  1  0  0  0
 23 24  2  0  0  0
 24 25  1  0  0  0
 25 26  2  0  0  0
 27 28  2  0  0  0
 27 32  1  0  0  0
 28 29  1  0  0  0
 29 30  2  0  0  0
 30 31  1  0  0  0
 31 32  2  0  0  0
  3  4  1  0  0  0
  3  5  1  0  0  0
  5  6  1  0  0  0
  5 17  1  0  0  0
 18 19  1  0  0  0
 17 19  1  0  0  0
 11 16  1  0  0  0
  4  7  1  0  0  0
M  END
> <minimizedAffinity>
-6.64574

$$$$
3T70_DU4_A_400


 32 35  0  0  0  0  0  0  0  0999 V2000
   -8.8086   27.9267   -6.2142 C   0  0  0  0  0  0  0  0  0  0  0  0
   -7.3948   28.3996   -5.8807 C   0  0  0  0  0  0  0  0  0  0  0  0
   -6.8441   27.3537   -4.9339 C   0  0  0  0  0  0  0  0  0  0  0  0
   -5.4510   27.1720   -5.2338 O   0  0  0  0  0  0  0  0  0  0  0  0
   -7.6186   26.0772   -5.2812 C   0  0  0  0  0  0  0  0  0  0  0  0
   -8.8686   26.4977   -5.9145 O   0  0  0  0  0  0  0  0  0  0  0  0
   -5.3499   26.9343   -6.1687 H   0  0  0  0  0  0  0  0  0  0  0  0
   -9.9296   28.4939   -5.3965 N   0  0  0  0  0  0  0  0  0  0  0  0
  -11.2383   28.2925   -5.8589 C   0  0  0  0  0  0  0  0  0  0  0  0
  -11.4565   27.6992   -6.9168 O   0  0  0  0  0  0  0  0  0  0  0  0
  -12.3042   28.7850   -5.1096 N   0  0  0  0  0  0  0  0  0  0  0  0
  -12.0835   29.4581   -3.9052 C   0  0  0  0  0  0  0  0  0  0  0  0
  -13.0625   29.8625   -3.2824 O   0  0  0  0  0  0  0  0  0  0  0  0
  -10.7826   29.6605   -3.4266 C   0  0  0  0  0  0  0  0  0  0  0  0
   -9.7043   29.1720   -4.1774 C   0  0  0  0  0  0  0  0  0  0  0  0
  -13.2253   28.6572   -5.4329 H   0  0  0  0  0  0  0  0  0  0  0  0
   -7.8940   25.2327   -4.0107 C   0  0  0  0  0  0  0  0  0  0  0  0
   -9.8725   25.8278   -2.8130 C   0  0  0  0  0  0  0  0  0  0  0  0
   -8.4099   26.0622   -2.8890 N   0  0  0  0  0  0  0  0  0  0  0  0
   -7.7409   25.7273   -1.5916 C   0  0  0  0  0  0  0  0  0  0  0  0
   -8.1364   26.6531   -0.4095 C   0  0  0  0  0  0  0  0  0  0  0  0
   -7.5577   26.4121    0.8425 C   0  0  0  0  0  0  0  0  0  0  0  0
   -7.8794   27.2124    1.9379 C   0  0  0  0  0  0  0  0  0  0  0  0
   -8.7805   28.2630    1.7786 C   0  0  0  0  0  0  0  0  0  0  0  0
   -9.3578   28.5123    0.5328 C   0  0  0  0  0  0  0  0  0  0  0  0
   -9.0332   27.7079   -0.5618 C   0  0  0  0  0  0  0  0  0  0  0  0
   -6.2017   25.6927   -1.6849 C   0  0  0  0  0  0  0  0  0  0  0  0
   -5.5104   26.9013   -1.7557 C   0  0  0  0  0  0  0  0  0  0  0  0
   -4.1177   26.9247   -1.8366 C   0  0  0  0  0  0  0  0  0  0  0  0
   -3.4035   25.7279   -1.8540 C   0  0  0  0  0  0  0  0  0  0  0  0
   -4.0943   24.5184   -1.7930 C   0  0  0  0  0  0  0  0  0  0  0  0
   -5.4887   24.4903   -1.7050 C   0  0  0  0  0  0  0  0  0  0  0  0
  8  9  1  0  0  0
  8 15  1  0  0  0
  8  1  1  0  0  0
  9 10  2  0  0  0
  9 11  1  0  0  0
 11 12  1  0  0  0
 12 13  2  0  0  0
 12 14  1  0  0  0
 14 15  2  0  0  0
  1  2  1  0  0  0
  1  6  1  0  0  0
 20 21  1  0  0  0
 20 27  1  0  0  0
 20 19  1  0  0  0
 21 22  2  0  0  0
 21 26  1  0  0  0
 22 23  1  0  0  0
  2  3  1  0  0  0
 23 24  2  0  0  0
 24 25  1  0  0  0
 25 26  2  0  0  0
 27 28  2  0  0  0
 27 32  1  0  0  0
 28 29  1  0  0  0
 29 30  2  0  0  0
 30 31  1  0  0  0
 31 32  2  0  0  0
  3  4  1  0  0  0
  3  5  1  0  0  0
  5  6  1  0  0  0
  5 17  1  0  0  0
 18 19  1  0  0  0
 17 19  1  0  0  0
 11 16  1  0  0  0
  4  7  1  0  0  0
M  END
> <minimizedAffinity>
-6.64018

$$$$
3T70_DU4_A_400


 32 35  0  0  0  0  0  0  0  0999 V2000
   -9.3586   29.0420    1.8514 C   0  0  0  0  0  0  0  0  0  0  0  0
   -8.3281   27.9879    2.2519 C   0  0  0  0  0  0  0  0  0  0  0  0
   -7.8654   27.3752    0.9463 C   0  0  0  0  0  0  0  0  0  0  0  0
   -6.4600   27.0996    1.0580 O   0  0  0  0  0  0  0  0  0  0  0  0
   -8.0953   28.4758   -0.0957 C   0  0  0  0  0  0  0  0  0  0  0  0
   -9.1221   29.3661    0.4462 O   0  0  0  0  0  0  0  0  0  0  0  0
   -5.9878   27.9152    1.2876 H   0  0  0  0  0  0  0  0  0  0  0  0
  -10.7997   28.6299    1.8682 N   0  0  0  0  0  0  0  0  0  0  0  0
  -11.4278   28.5123    3.1168 C   0  0  0  0  0  0  0  0  0  0  0  0
  -10.8076   28.7086    4.1635 O   0  0  0  0  0  0  0  0  0  0  0  0
  -12.7733   28.1554    3.1666 N   0  0  0  0  0  0  0  0  0  0  0  0
  -13.4994   27.9308    1.9942 C   0  0  0  0  0  0  0  0  0  0  0  0
  -14.6855   27.6274    2.0993 O   0  0  0  0  0  0  0  0  0  0  0  0
  -12.8880   28.0517    0.7397 C   0  0  0  0  0  0  0  0  0  0  0  0
  -11.5329   28.4057    0.6813 C   0  0  0  0  0  0  0  0  0  0  0  0
  -13.2185   28.0603    4.0395 H   0  0  0  0  0  0  0  0  0  0  0  0
   -8.5411   27.8712   -1.4518 C   0  0  0  0  0  0  0  0  0  0  0  0
   -8.3890   25.6035   -2.1848 C   0  0  0  0  0  0  0  0  0  0  0  0
   -7.5950   26.8318   -1.9385 N   0  0  0  0  0  0  0  0  0  0  0  0
   -6.8745   27.2669   -3.1773 C   0  0  0  0  0  0  0  0  0  0  0  0
   -7.6333   26.9666   -4.4982 C   0  0  0  0  0  0  0  0  0  0  0  0
   -8.2523   28.0322   -5.1630 C   0  0  0  0  0  0  0  0  0  0  0  0
   -8.9482   27.8176   -6.3520 C   0  0  0  0  0  0  0  0  0  0  0  0
   -9.0205   26.5309   -6.8816 C   0  0  0  0  0  0  0  0  0  0  0  0
   -8.4023   25.4646   -6.2271 C   0  0  0  0  0  0  0  0  0  0  0  0
   -7.7066   25.6839   -5.0361 C   0  0  0  0  0  0  0  0  0  0  0  0
   -5.4501   26.6870   -3.2952 C   0  0  0  0  0  0  0  0  0  0  0  0
   -4.7993   26.2747   -2.1333 C   0  0  0  0  0  0  0  0  0  0  0  0
   -3.5122   25.7390   -2.1865 C   0  0  0  0  0  0  0  0  0  0  0  0
   -2.8610   25.6182   -3.4129 C   0  0  0  0  0  0  0  0  0  0  0  0
   -3.5069   26.0391   -4.5744 C   0  0  0  0  0  0  0  0  0  0  0  0
   -4.7988   26.5699   -4.5268 C   0  0  0  0  0  0  0  0  0  0  0  0
  8  9  1  0  0  0
  8 15  1  0  0  0
  8  1  1  0  0  0
  9 10  2  0  0  0
  9 11  1  0  0  0
 11 12  1  0  0  0
 12 13  2  0  0  0
 12 14  1  0  0  0
 14 15  2  0  0  0
  1  2  1  0  0  0
  1  6  1  0  0  0
 20 21  1  0  0  0
 20 27  1  0  0  0
 20 19  1  0  0  0
 21 22  2  0  0  0
 21 26  1  0  0  0
 22 23  1  0  0  0
  2  3  1  0  0  0
 23 24  2  0  0  0
 24 25  1  0  0  0
 25 26  2  0  0  0
 27 28  2  0  0  0
 27 32  1  0  0  0
 28 29  1  0  0  0
 29 30  2  0  0  0
 30 31  1  0  0  0
 31 32  2  0  0  0
  3  4  1  0  0  0
  3  5  1  0  0  0
  5  6  1  0  0  0
  5 17  1  0  0  0
 18 19  1  0  0  0
 17 19  1  0  0  0
 11 16  1  0  0  0
  4  7  1  0  0  0
M  END
> <minimizedAffinity>
-6.53031

$$$$
