4QF9_35K_A_301


 24 25  0  0  0  0  0  0  0  0999 V2000
   61.6850  -28.1227  -36.2543 C   0  0  0  0  0  0  0  0  0  0  0  0
   58.8594  -25.1558  -37.2467 N   0  0  0  0  0  0  0  0  0  0  0  0
   58.3381  -22.9729  -37.4842 O   0  0  0  0  0  0  0  0  0  0  0  0
   60.3867  -28.4906  -36.6579 C   0  0  0  0  0  0  0  0  0  0  0  0
   61.4430  -24.4351  -36.4519 N   0  0  0  0  0  0  0  0  0  0  0  0
   60.8832  -22.2627  -36.7012 O   0  0  0  0  0  0  0  0  0  0  0  0
   59.4218  -27.5136  -36.9899 C   0  0  0  0  0  0  0  0  0  0  0  0
   62.0568  -26.7692  -36.1816 C   0  0  0  0  0  0  0  0  0  0  0  0
   61.1006  -25.7984  -36.5152 C   0  0  0  0  0  0  0  0  0  0  0  0
   59.7958  -26.1596  -36.9172 C   0  0  0  0  0  0  0  0  0  0  0  0
   59.2145  -23.7924  -37.1796 C   0  0  0  0  0  0  0  0  0  0  0  0
   60.5132  -23.4260  -36.7794 C   0  0  0  0  0  0  0  0  0  0  0  0
   57.9501  -25.4097  -37.5260 H   0  0  0  0  0  0  0  0  0  0  0  0
   62.3519  -24.1797  -36.1728 H   0  0  0  0  0  0  0  0  0  0  0  0
   60.0372  -29.8472  -36.7144 C   0  0  0  0  0  0  0  0  0  0  0  0
   60.7708  -30.6003  -35.6070 C   0  0  0  0  0  0  0  0  0  0  0  0
   59.7466  -31.0802  -33.3849 N   0  0  0  0  0  0  0  0  0  0  0  0
   59.8208  -31.4773  -34.7950 C   0  0  0  0  0  0  0  0  0  0  0  0
   59.1008  -31.6967  -32.8917 H   0  0  0  0  0  0  0  0  0  0  0  0
   59.4149  -30.1179  -33.3197 H   0  0  0  0  0  0  0  0  0  0  0  0
   61.3716  -33.1124  -35.4920 O   0  0  0  0  0  0  0  0  0  0  0  0
   59.7368  -33.7185  -34.0981 O   0  0  0  0  0  0  0  0  0  0  0  0
   60.3622  -32.8979  -34.7949 C   0  0  0  0  0  0  0  0  0  0  0  0
   61.7620  -32.4134  -35.9788 H   0  0  0  0  0  0  0  0  0  0  0  0
  3 11  2  0  0  0
 11  2  1  0  0  0
 11 12  1  0  0  0
  6 12  2  0  0  0
  2 10  1  0  0  0
 12  5  1  0  0  0
 10  7  1  0  0  0
 10  9  2  0  0  0
  5  9  1  0  0  0
  7  4  2  0  0  0
  9  8  1  0  0  0
  4 15  1  0  0  0
  4  1  1  0  0  0
  8  1  2  0  0  0
 15 16  1  0  0  0
 22 23  2  0  0  0
 17 18  1  0  0  0
 23 21  1  0  0  0
 23 18  1  0  0  0
 16 18  1  0  0  0
  2 13  1  0  0  0
  5 14  1  0  0  0
 17 19  1  0  0  0
 17 20  1  0  0  0
 21 24  1  0  0  0
M  END
> <minimizedAffinity>
-8.59065

$$$$
4QF9_35K_A_301


 24 25  0  0  0  0  0  0  0  0999 V2000
   60.5482  -27.7389  -34.1145 C   0  0  0  0  0  0  0  0  0  0  0  0
   60.0627  -24.5567  -36.8367 N   0  0  0  0  0  0  0  0  0  0  0  0
   59.2820  -22.4873  -37.2851 O   0  0  0  0  0  0  0  0  0  0  0  0
   61.0613  -27.8433  -35.4221 C   0  0  0  0  0  0  0  0  0  0  0  0
   59.0543  -24.3551  -34.2349 N   0  0  0  0  0  0  0  0  0  0  0  0
   58.2885  -22.2884  -34.7223 O   0  0  0  0  0  0  0  0  0  0  0  0
   60.9057  -26.7920  -36.3528 C   0  0  0  0  0  0  0  0  0  0  0  0
   59.8751  -26.5771  -33.6991 C   0  0  0  0  0  0  0  0  0  0  0  0
   59.7238  -25.5308  -34.6214 C   0  0  0  0  0  0  0  0  0  0  0  0
   60.2323  -25.6299  -35.9352 C   0  0  0  0  0  0  0  0  0  0  0  0
   59.3899  -23.3831  -36.4375 C   0  0  0  0  0  0  0  0  0  0  0  0
   58.8806  -23.2783  -35.1296 C   0  0  0  0  0  0  0  0  0  0  0  0
   60.4173  -24.6281  -37.7523 H   0  0  0  0  0  0  0  0  0  0  0  0
   58.6992  -24.2822  -33.3196 H   0  0  0  0  0  0  0  0  0  0  0  0
   61.7216  -29.0160  -35.8155 C   0  0  0  0  0  0  0  0  0  0  0  0
   60.6975  -30.1367  -35.9799 C   0  0  0  0  0  0  0  0  0  0  0  0
   61.6643  -32.4327  -35.8767 N   0  0  0  0  0  0  0  0  0  0  0  0
   61.0401  -31.3465  -35.1139 C   0  0  0  0  0  0  0  0  0  0  0  0
   61.8711  -33.2119  -35.2518 H   0  0  0  0  0  0  0  0  0  0  0  0
   62.5297  -32.0973  -36.2999 H   0  0  0  0  0  0  0  0  0  0  0  0
   58.7154  -31.2428  -34.7268 O   0  0  0  0  0  0  0  0  0  0  0  0
   59.8415  -33.0224  -33.9867 O   0  0  0  0  0  0  0  0  0  0  0  0
   59.7460  -31.9221  -34.5613 C   0  0  0  0  0  0  0  0  0  0  0  0
   58.7622  -30.4229  -35.1779 H   0  0  0  0  0  0  0  0  0  0  0  0
  3 11  2  0  0  0
 11  2  1  0  0  0
 11 12  1  0  0  0
  6 12  2  0  0  0
  2 10  1  0  0  0
 12  5  1  0  0  0
 10  7  1  0  0  0
 10  9  2  0  0  0
  5  9  1  0  0  0
  7  4  2  0  0  0
  9  8  1  0  0  0
  4 15  1  0  0  0
  4  1  1  0  0  0
  8  1  2  0  0  0
 15 16  1  0  0  0
 22 23  2  0  0  0
 17 18  1  0  0  0
 23 21  1  0  0  0
 23 18  1  0  0  0
 16 18  1  0  0  0
  2 13  1  0  0  0
  5 14  1  0  0  0
 17 19  1  0  0  0
 17 20  1  0  0  0
 21 24  1  0  0  0
M  END
> <minimizedAffinity>
-7.57282

$$$$
4QF9_35K_A_301


 24 25  0  0  0  0  0  0  0  0999 V2000
   60.0573  -28.8252  -36.5339 C   0  0  0  0  0  0  0  0  0  0  0  0
   60.2314  -25.0136  -34.7412 N   0  0  0  0  0  0  0  0  0  0  0  0
   59.7700  -22.8061  -34.8243 O   0  0  0  0  0  0  0  0  0  0  0  0
   60.6558  -28.6663  -35.2689 C   0  0  0  0  0  0  0  0  0  0  0  0
   59.0374  -25.3405  -37.2500 N   0  0  0  0  0  0  0  0  0  0  0  0
   58.5938  -23.1278  -37.2957 O   0  0  0  0  0  0  0  0  0  0  0  0
   60.7304  -27.3979  -34.6513 C   0  0  0  0  0  0  0  0  0  0  0  0
   59.5083  -27.7226  -37.2110 C   0  0  0  0  0  0  0  0  0  0  0  0
   59.5781  -26.4633  -36.5967 C   0  0  0  0  0  0  0  0  0  0  0  0
   60.1799  -26.2957  -35.3301 C   0  0  0  0  0  0  0  0  0  0  0  0
   59.6858  -23.8956  -35.4059 C   0  0  0  0  0  0  0  0  0  0  0  0
   59.0849  -24.0561  -36.6685 C   0  0  0  0  0  0  0  0  0  0  0  0
   60.6521  -24.8989  -33.8586 H   0  0  0  0  0  0  0  0  0  0  0  0
   58.6164  -25.4538  -38.1327 H   0  0  0  0  0  0  0  0  0  0  0  0
   61.2041  -29.7800  -34.6171 C   0  0  0  0  0  0  0  0  0  0  0  0
   60.5850  -31.0521  -35.1918 C   0  0  0  0  0  0  0  0  0  0  0  0
   62.3084  -32.5519  -36.1904 N   0  0  0  0  0  0  0  0  0  0  0  0
   61.4987  -32.2605  -35.0026 C   0  0  0  0  0  0  0  0  0  0  0  0
   62.8974  -33.3648  -36.0093 H   0  0  0  0  0  0  0  0  0  0  0  0
   62.8967  -31.7472  -36.4067 H   0  0  0  0  0  0  0  0  0  0  0  0
   61.0612  -34.5668  -35.2354 O   0  0  0  0  0  0  0  0  0  0  0  0
   59.5595  -33.2978  -34.1785 O   0  0  0  0  0  0  0  0  0  0  0  0
   60.6298  -33.4888  -34.7850 C   0  0  0  0  0  0  0  0  0  0  0  0
   61.8866  -34.5927  -35.6781 H   0  0  0  0  0  0  0  0  0  0  0  0
  3 11  2  0  0  0
 11  2  1  0  0  0
 11 12  1  0  0  0
  6 12  2  0  0  0
  2 10  1  0  0  0
 12  5  1  0  0  0
 10  7  1  0  0  0
 10  9  2  0  0  0
  5  9  1  0  0  0
  7  4  2  0  0  0
  9  8  1  0  0  0
  4 15  1  0  0  0
  4  1  1  0  0  0
  8  1  2  0  0  0
 15 16  1  0  0  0
 22 23  2  0  0  0
 17 18  1  0  0  0
 23 21  1  0  0  0
 23 18  1  0  0  0
 16 18  1  0  0  0
  2 13  1  0  0  0
  5 14  1  0  0  0
 17 19  1  0  0  0
 17 20  1  0  0  0
 21 24  1  0  0  0
M  END
> <minimizedAffinity>
-7.51192

$$$$
4QF9_35K_A_301


 24 25  0  0  0  0  0  0  0  0999 V2000
   60.5647  -30.6073  -36.3277 C   0  0  0  0  0  0  0  0  0  0  0  0
   61.3923  -26.6021  -35.3050 N   0  0  0  0  0  0  0  0  0  0  0  0
   60.8967  -24.4084  -35.4919 O   0  0  0  0  0  0  0  0  0  0  0  0
   61.6289  -30.3064  -35.4555 C   0  0  0  0  0  0  0  0  0  0  0  0
   59.2755  -27.2101  -37.0301 N   0  0  0  0  0  0  0  0  0  0  0  0
   58.8115  -25.0070  -37.1914 O   0  0  0  0  0  0  0  0  0  0  0  0
   61.9281  -28.9715  -35.1031 C   0  0  0  0  0  0  0  0  0  0  0  0
   59.7648  -29.5830  -36.8629 C   0  0  0  0  0  0  0  0  0  0  0  0
   60.0584  -28.2573  -36.5102 C   0  0  0  0  0  0  0  0  0  0  0  0
   61.1262  -27.9477  -35.6392 C   0  0  0  0  0  0  0  0  0  0  0  0
   60.6002  -25.5610  -35.8324 C   0  0  0  0  0  0  0  0  0  0  0  0
   59.5349  -25.8630  -36.7013 C   0  0  0  0  0  0  0  0  0  0  0  0
   62.1375  -26.3885  -34.6982 H   0  0  0  0  0  0  0  0  0  0  0  0
   58.5299  -27.4223  -37.6371 H   0  0  0  0  0  0  0  0  0  0  0  0
   62.4179  -31.3451  -34.9413 C   0  0  0  0  0  0  0  0  0  0  0  0
   61.9966  -32.6622  -35.5888 C   0  0  0  0  0  0  0  0  0  0  0  0
   62.3050  -35.0270  -34.8612 N   0  0  0  0  0  0  0  0  0  0  0  0
   61.6914  -33.7331  -34.5443 C   0  0  0  0  0  0  0  0  0  0  0  0
   62.0698  -35.7022  -34.1338 H   0  0  0  0  0  0  0  0  0  0  0  0
   63.3182  -34.9198  -34.9108 H   0  0  0  0  0  0  0  0  0  0  0  0
   59.4724  -33.0445  -34.1361 O   0  0  0  0  0  0  0  0  0  0  0  0
   59.8223  -35.1035  -34.9242 O   0  0  0  0  0  0  0  0  0  0  0  0
   60.1913  -33.9799  -34.5352 C   0  0  0  0  0  0  0  0  0  0  0  0
   59.8622  -32.2366  -33.8655 H   0  0  0  0  0  0  0  0  0  0  0  0
  3 11  2  0  0  0
 11  2  1  0  0  0
 11 12  1  0  0  0
  6 12  2  0  0  0
  2 10  1  0  0  0
 12  5  1  0  0  0
 10  7  1  0  0  0
 10  9  2  0  0  0
  5  9  1  0  0  0
  7  4  2  0  0  0
  9  8  1  0  0  0
  4 15  1  0  0  0
  4  1  1  0  0  0
  8  1  2  0  0  0
 15 16  1  0  0  0
 22 23  2  0  0  0
 17 18  1  0  0  0
 23 21  1  0  0  0
 23 18  1  0  0  0
 16 18  1  0  0  0
  2 13  1  0  0  0
  5 14  1  0  0  0
 17 19  1  0  0  0
 17 20  1  0  0  0
 21 24  1  0  0  0
M  END
> <minimizedAffinity>
-7.46725

$$$$
4QF9_35K_A_301


 24 25  0  0  0  0  0  0  0  0999 V2000
   60.1604  -30.0924  -35.0351 C   0  0  0  0  0  0  0  0  0  0  0  0
   62.4244  -33.6394  -34.7803 N   0  0  0  0  0  0  0  0  0  0  0  0
   62.4987  -35.8827  -34.5455 O   0  0  0  0  0  0  0  0  0  0  0  0
   61.5652  -30.0414  -35.1217 C   0  0  0  0  0  0  0  0  0  0  0  0
   59.6331  -33.7316  -34.6175 N   0  0  0  0  0  0  0  0  0  0  0  0
   59.7490  -35.9738  -34.3850 O   0  0  0  0  0  0  0  0  0  0  0  0
   62.3446  -31.2163  -35.0335 C   0  0  0  0  0  0  0  0  0  0  0  0
   59.4964  -31.3199  -34.8682 C   0  0  0  0  0  0  0  0  0  0  0  0
   60.2692  -32.4877  -34.7848 C   0  0  0  0  0  0  0  0  0  0  0  0
   61.6784  -32.4439  -34.8671 C   0  0  0  0  0  0  0  0  0  0  0  0
   61.7753  -34.8804  -34.6128 C   0  0  0  0  0  0  0  0  0  0  0  0
   60.3712  -34.9306  -34.5297 C   0  0  0  0  0  0  0  0  0  0  0  0
   63.4067  -33.6065  -34.8372 H   0  0  0  0  0  0  0  0  0  0  0  0
   58.6508  -33.7659  -34.5604 H   0  0  0  0  0  0  0  0  0  0  0  0
   62.2051  -28.8038  -35.2796 C   0  0  0  0  0  0  0  0  0  0  0  0
   61.5802  -28.0635  -36.4600 C   0  0  0  0  0  0  0  0  0  0  0  0
   60.9559  -26.4814  -34.6368 N   0  0  0  0  0  0  0  0  0  0  0  0
   61.1615  -26.6454  -36.0798 C   0  0  0  0  0  0  0  0  0  0  0  0
   60.6789  -25.5197  -34.4400 H   0  0  0  0  0  0  0  0  0  0  0  0
   61.8232  -26.6931  -34.1435 H   0  0  0  0  0  0  0  0  0  0  0  0
   59.0403  -27.3195  -36.8612 O   0  0  0  0  0  0  0  0  0  0  0  0
   59.6168  -25.1721  -37.0592 O   0  0  0  0  0  0  0  0  0  0  0  0
   59.8153  -26.3544  -36.7233 C   0  0  0  0  0  0  0  0  0  0  0  0
   59.2970  -28.1720  -36.5690 H   0  0  0  0  0  0  0  0  0  0  0  0
  3 11  2  0  0  0
 11  2  1  0  0  0
 11 12  1  0  0  0
  6 12  2  0  0  0
  2 10  1  0  0  0
 12  5  1  0  0  0
 10  7  1  0  0  0
 10  9  2  0  0  0
  5  9  1  0  0  0
  7  4  2  0  0  0
  9  8  1  0  0  0
  4 15  1  0  0  0
  4  1  1  0  0  0
  8  1  2  0  0  0
 15 16  1  0  0  0
 22 23  2  0  0  0
 17 18  1  0  0  0
 23 21  1  0  0  0
 23 18  1  0  0  0
 16 18  1  0  0  0
  2 13  1  0  0  0
  5 14  1  0  0  0
 17 19  1  0  0  0
 17 20  1  0  0  0
 21 24  1  0  0  0
M  END
> <minimizedAffinity>
-7.34280

$$$$
4QF9_35K_A_301


 24 25  0  0  0  0  0  0  0  0999 V2000
   59.7912  -23.8192  -36.9623 C   0  0  0  0  0  0  0  0  0  0  0  0
   61.9702  -27.2847  -35.9554 N   0  0  0  0  0  0  0  0  0  0  0  0
   62.0723  -29.5327  -35.7846 O   0  0  0  0  0  0  0  0  0  0  0  0
   61.1128  -23.7096  -36.4879 C   0  0  0  0  0  0  0  0  0  0  0  0
   59.3474  -27.4929  -36.9063 N   0  0  0  0  0  0  0  0  0  0  0  0
   59.4886  -29.7380  -36.7212 O   0  0  0  0  0  0  0  0  0  0  0  0
   61.8601  -24.8566  -36.1393 C   0  0  0  0  0  0  0  0  0  0  0  0
   59.1847  -25.0784  -37.1106 C   0  0  0  0  0  0  0  0  0  0  0  0
   59.9275  -26.2183  -36.7687 C   0  0  0  0  0  0  0  0  0  0  0  0
   61.2519  -26.1160  -36.2889 C   0  0  0  0  0  0  0  0  0  0  0  0
   61.3779  -28.5569  -36.0977 C   0  0  0  0  0  0  0  0  0  0  0  0
   60.0583  -28.6655  -36.5751 C   0  0  0  0  0  0  0  0  0  0  0  0
   62.8930  -27.2111  -35.6203 H   0  0  0  0  0  0  0  0  0  0  0  0
   58.4247  -27.5680  -37.2411 H   0  0  0  0  0  0  0  0  0  0  0  0
   61.6930  -22.4417  -36.3405 C   0  0  0  0  0  0  0  0  0  0  0  0
   62.7462  -22.2430  -37.4282 C   0  0  0  0  0  0  0  0  0  0  0  0
   61.6978  -20.0070  -37.7720 N   0  0  0  0  0  0  0  0  0  0  0  0
   62.9532  -20.7651  -37.7508 C   0  0  0  0  0  0  0  0  0  0  0  0
   61.8940  -19.0304  -37.9914 H   0  0  0  0  0  0  0  0  0  0  0  0
   61.2491  -20.0666  -36.8579 H   0  0  0  0  0  0  0  0  0  0  0  0
   63.0672  -19.7497  -39.8770 O   0  0  0  0  0  0  0  0  0  0  0  0
   64.3941  -21.4946  -39.4559 O   0  0  0  0  0  0  0  0  0  0  0  0
   63.5236  -20.6567  -39.1558 C   0  0  0  0  0  0  0  0  0  0  0  0
   62.4086  -19.1726  -39.5434 H   0  0  0  0  0  0  0  0  0  0  0  0
  3 11  2  0  0  0
 11  2  1  0  0  0
 11 12  1  0  0  0
  6 12  2  0  0  0
  2 10  1  0  0  0
 12  5  1  0  0  0
 10  7  1  0  0  0
 10  9  2  0  0  0
  5  9  1  0  0  0
  7  4  2  0  0  0
  9  8  1  0  0  0
  4 15  1  0  0  0
  4  1  1  0  0  0
  8  1  2  0  0  0
 15 16  1  0  0  0
 22 23  2  0  0  0
 17 18  1  0  0  0
 23 21  1  0  0  0
 23 18  1  0  0  0
 16 18  1  0  0  0
  2 13  1  0  0  0
  5 14  1  0  0  0
 17 19  1  0  0  0
 17 20  1  0  0  0
 21 24  1  0  0  0
M  END
> <minimizedAffinity>
-7.30729

$$$$
4QF9_35K_A_301


 24 25  0  0  0  0  0  0  0  0999 V2000
   59.9155  -27.9132  -36.8856 C   0  0  0  0  0  0  0  0  0  0  0  0
   62.9467  -29.7934  -34.6386 N   0  0  0  0  0  0  0  0  0  0  0  0
   63.8640  -31.6837  -33.8152 O   0  0  0  0  0  0  0  0  0  0  0  0
   60.9331  -27.1435  -36.2892 C   0  0  0  0  0  0  0  0  0  0  0  0
   60.9258  -31.3146  -35.8338 N   0  0  0  0  0  0  0  0  0  0  0  0
   61.8734  -33.1825  -34.9924 O   0  0  0  0  0  0  0  0  0  0  0  0
   61.9559  -27.7513  -35.5274 C   0  0  0  0  0  0  0  0  0  0  0  0
   59.8985  -29.3116  -36.7452 C   0  0  0  0  0  0  0  0  0  0  0  0
   60.9161  -29.9165  -35.9924 C   0  0  0  0  0  0  0  0  0  0  0  0
   61.9376  -29.1508  -35.3884 C   0  0  0  0  0  0  0  0  0  0  0  0
   62.9458  -31.1956  -34.4868 C   0  0  0  0  0  0  0  0  0  0  0  0
   61.9303  -31.9642  -35.0861 C   0  0  0  0  0  0  0  0  0  0  0  0
   63.6574  -29.2577  -34.2177 H   0  0  0  0  0  0  0  0  0  0  0  0
   60.2157  -31.8515  -36.2541 H   0  0  0  0  0  0  0  0  0  0  0  0
   60.9237  -25.7492  -36.4365 C   0  0  0  0  0  0  0  0  0  0  0  0
   59.5453  -25.2143  -36.0547 C   0  0  0  0  0  0  0  0  0  0  0  0
   60.8982  -24.3122  -34.1646 N   0  0  0  0  0  0  0  0  0  0  0  0
   59.5466  -24.5938  -34.6598 C   0  0  0  0  0  0  0  0  0  0  0  0
   60.8402  -23.9005  -33.2332 H   0  0  0  0  0  0  0  0  0  0  0  0
   61.3627  -23.6598  -34.7963 H   0  0  0  0  0  0  0  0  0  0  0  0
   59.6678  -25.9374  -32.7246 O   0  0  0  0  0  0  0  0  0  0  0  0
   57.8034  -25.9988  -33.9506 O   0  0  0  0  0  0  0  0  0  0  0  0
   58.9530  -25.6002  -33.6871 C   0  0  0  0  0  0  0  0  0  0  0  0
   60.5239  -25.5696  -32.6253 H   0  0  0  0  0  0  0  0  0  0  0  0
  3 11  2  0  0  0
 11  2  1  0  0  0
 11 12  1  0  0  0
  6 12  2  0  0  0
  2 10  1  0  0  0
 12  5  1  0  0  0
 10  7  1  0  0  0
 10  9  2  0  0  0
  5  9  1  0  0  0
  7  4  2  0  0  0
  9  8  1  0  0  0
  4 15  1  0  0  0
  4  1  1  0  0  0
  8  1  2  0  0  0
 15 16  1  0  0  0
 22 23  2  0  0  0
 17 18  1  0  0  0
 23 21  1  0  0  0
 23 18  1  0  0  0
 16 18  1  0  0  0
  2 13  1  0  0  0
  5 14  1  0  0  0
 17 19  1  0  0  0
 17 20  1  0  0  0
 21 24  1  0  0  0
M  END
> <minimizedAffinity>
-7.26304

$$$$
4QF9_35K_A_301


 24 25  0  0  0  0  0  0  0  0999 V2000
   62.3802  -26.5437  -36.2677 C   0  0  0  0  0  0  0  0  0  0  0  0
   59.7719  -29.7382  -35.3939 N   0  0  0  0  0  0  0  0  0  0  0  0
   59.4737  -31.8840  -34.7618 O   0  0  0  0  0  0  0  0  0  0  0  0
   60.9864  -26.3630  -36.3598 C   0  0  0  0  0  0  0  0  0  0  0  0
   62.5415  -30.0852  -35.2057 N   0  0  0  0  0  0  0  0  0  0  0  0
   62.2020  -32.2262  -34.5764 O   0  0  0  0  0  0  0  0  0  0  0  0
   60.0935  -27.4206  -36.0770 C   0  0  0  0  0  0  0  0  0  0  0  0
   62.9185  -27.7830  -35.8807 C   0  0  0  0  0  0  0  0  0  0  0  0
   62.0325  -28.8327  -35.5955 C   0  0  0  0  0  0  0  0  0  0  0  0
   60.6340  -28.6599  -35.6894 C   0  0  0  0  0  0  0  0  0  0  0  0
   60.2940  -30.9891  -35.0040 C   0  0  0  0  0  0  0  0  0  0  0  0
   61.6869  -31.1676  -34.9089 C   0  0  0  0  0  0  0  0  0  0  0  0
   58.7973  -29.6159  -35.4606 H   0  0  0  0  0  0  0  0  0  0  0  0
   63.5159  -30.2090  -35.1386 H   0  0  0  0  0  0  0  0  0  0  0  0
   60.4738  -25.1196  -36.7562 C   0  0  0  0  0  0  0  0  0  0  0  0
   61.0984  -24.0229  -35.8966 C   0  0  0  0  0  0  0  0  0  0  0  0
   58.8993  -24.0279  -34.7215 N   0  0  0  0  0  0  0  0  0  0  0  0
   60.0373  -23.2115  -35.1573 C   0  0  0  0  0  0  0  0  0  0  0  0
   58.2240  -23.4380  -34.2354 H   0  0  0  0  0  0  0  0  0  0  0  0
   59.2274  -24.7597  -34.0912 H   0  0  0  0  0  0  0  0  0  0  0  0
   60.2151  -21.2512  -36.4573 O   0  0  0  0  0  0  0  0  0  0  0  0
   58.2846  -22.3719  -36.4760 O   0  0  0  0  0  0  0  0  0  0  0  0
   59.4627  -22.1844  -36.1196 C   0  0  0  0  0  0  0  0  0  0  0  0
   61.0899  -21.2106  -36.1241 H   0  0  0  0  0  0  0  0  0  0  0  0
  3 11  2  0  0  0
 11  2  1  0  0  0
 11 12  1  0  0  0
  6 12  2  0  0  0
  2 10  1  0  0  0
 12  5  1  0  0  0
 10  7  1  0  0  0
 10  9  2  0  0  0
  5  9  1  0  0  0
  7  4  2  0  0  0
  9  8  1  0  0  0
  4 15  1  0  0  0
  4  1  1  0  0  0
  8  1  2  0  0  0
 15 16  1  0  0  0
 22 23  2  0  0  0
 17 18  1  0  0  0
 23 21  1  0  0  0
 23 18  1  0  0  0
 16 18  1  0  0  0
  2 13  1  0  0  0
  5 14  1  0  0  0
 17 19  1  0  0  0
 17 20  1  0  0  0
 21 24  1  0  0  0
M  END
> <minimizedAffinity>
-7.19504

$$$$
4QF9_35K_A_301


 24 25  0  0  0  0  0  0  0  0999 V2000
   60.4715  -28.4333  -36.2269 C   0  0  0  0  0  0  0  0  0  0  0  0
   61.1654  -24.2789  -36.4060 N   0  0  0  0  0  0  0  0  0  0  0  0
   60.4534  -22.2143  -36.9747 O   0  0  0  0  0  0  0  0  0  0  0  0
   61.6783  -27.8970  -35.7374 C   0  0  0  0  0  0  0  0  0  0  0  0
   58.7679  -25.3525  -37.3684 N   0  0  0  0  0  0  0  0  0  0  0  0
   58.0916  -23.2716  -37.9229 O   0  0  0  0  0  0  0  0  0  0  0  0
   61.9349  -26.5088  -35.7919 C   0  0  0  0  0  0  0  0  0  0  0  0
   59.4847  -27.5957  -36.7747 C   0  0  0  0  0  0  0  0  0  0  0  0
   59.7367  -26.2165  -36.8254 C   0  0  0  0  0  0  0  0  0  0  0  0
   60.9460  -25.6720  -36.3399 C   0  0  0  0  0  0  0  0  0  0  0  0
   60.1865  -23.4229  -36.9523 C   0  0  0  0  0  0  0  0  0  0  0  0
   58.9794  -23.9595  -37.4382 C   0  0  0  0  0  0  0  0  0  0  0  0
   62.0093  -23.9015  -36.0676 H   0  0  0  0  0  0  0  0  0  0  0  0
   57.9235  -25.7285  -37.7071 H   0  0  0  0  0  0  0  0  0  0  0  0
   62.6510  -28.7541  -35.2033 C   0  0  0  0  0  0  0  0  0  0  0  0
   62.0957  -30.1758  -35.1580 C   0  0  0  0  0  0  0  0  0  0  0  0
   64.4752  -30.7430  -34.6750 N   0  0  0  0  0  0  0  0  0  0  0  0
   63.0754  -31.1442  -34.4995 C   0  0  0  0  0  0  0  0  0  0  0  0
   65.0834  -31.4220  -34.2175 H   0  0  0  0  0  0  0  0  0  0  0  0
   64.6198  -29.8227  -34.2594 H   0  0  0  0  0  0  0  0  0  0  0  0
   61.9301  -32.6748  -35.8816 O   0  0  0  0  0  0  0  0  0  0  0  0
   63.8700  -33.3029  -34.9733 O   0  0  0  0  0  0  0  0  0  0  0  0
   62.9456  -32.4958  -35.1832 C   0  0  0  0  0  0  0  0  0  0  0  0
   61.2951  -31.9913  -35.9690 H   0  0  0  0  0  0  0  0  0  0  0  0
  3 11  2  0  0  0
 11  2  1  0  0  0
 11 12  1  0  0  0
  6 12  2  0  0  0
  2 10  1  0  0  0
 12  5  1  0  0  0
 10  7  1  0  0  0
 10  9  2  0  0  0
  5  9  1  0  0  0
  7  4  2  0  0  0
  9  8  1  0  0  0
  4 15  1  0  0  0
  4  1  1  0  0  0
  8  1  2  0  0  0
 15 16  1  0  0  0
 22 23  2  0  0  0
 17 18  1  0  0  0
 23 21  1  0  0  0
 23 18  1  0  0  0
 16 18  1  0  0  0
  2 13  1  0  0  0
  5 14  1  0  0  0
 17 19  1  0  0  0
 17 20  1  0  0  0
 21 24  1  0  0  0
M  END
> <minimizedAffinity>
-7.11510

$$$$
4QF9_35K_A_301


 24 25  0  0  0  0  0  0  0  0999 V2000
   59.6199  -28.0163  -37.1304 C   0  0  0  0  0  0  0  0  0  0  0  0
   62.8841  -28.7984  -34.5798 N   0  0  0  0  0  0  0  0  0  0  0  0
   64.2006  -30.2887  -33.5126 O   0  0  0  0  0  0  0  0  0  0  0  0
   60.3678  -26.9505  -36.5932 C   0  0  0  0  0  0  0  0  0  0  0  0
   61.3978  -30.9090  -35.6582 N   0  0  0  0  0  0  0  0  0  0  0  0
   62.7366  -32.3680  -34.5746 O   0  0  0  0  0  0  0  0  0  0  0  0
   61.4622  -27.1885  -35.7321 C   0  0  0  0  0  0  0  0  0  0  0  0
   59.9520  -29.3485  -36.8295 C   0  0  0  0  0  0  0  0  0  0  0  0
   61.0412  -29.5859  -35.9779 C   0  0  0  0  0  0  0  0  0  0  0  0
   61.7934  -28.5223  -35.4326 C   0  0  0  0  0  0  0  0  0  0  0  0
   63.2320  -30.1290  -34.2668 C   0  0  0  0  0  0  0  0  0  0  0  0
   62.4861  -31.1934  -34.8068 C   0  0  0  0  0  0  0  0  0  0  0  0
   63.4067  -28.0554  -34.2002 H   0  0  0  0  0  0  0  0  0  0  0  0
   60.8761  -31.6530  -36.0371 H   0  0  0  0  0  0  0  0  0  0  0  0
   60.0117  -25.6298  -36.9013 C   0  0  0  0  0  0  0  0  0  0  0  0
   60.9335  -24.6735  -36.1481 C   0  0  0  0  0  0  0  0  0  0  0  0
   58.9563  -24.1150  -34.7355 N   0  0  0  0  0  0  0  0  0  0  0  0
   60.1463  -23.5907  -35.4140 C   0  0  0  0  0  0  0  0  0  0  0  0
   58.4703  -23.3524  -34.2636 H   0  0  0  0  0  0  0  0  0  0  0  0
   59.2370  -24.8155  -34.0493 H   0  0  0  0  0  0  0  0  0  0  0  0
   58.4027  -22.3835  -36.4472 O   0  0  0  0  0  0  0  0  0  0  0  0
   60.4885  -22.0864  -37.1849 O   0  0  0  0  0  0  0  0  0  0  0  0
   59.6301  -22.5948  -36.4401 C   0  0  0  0  0  0  0  0  0  0  0  0
   57.8476  -22.8260  -35.8356 H   0  0  0  0  0  0  0  0  0  0  0  0
  3 11  2  0  0  0
 11  2  1  0  0  0
 11 12  1  0  0  0
  6 12  2  0  0  0
  2 10  1  0  0  0
 12  5  1  0  0  0
 10  7  1  0  0  0
 10  9  2  0  0  0
  5  9  1  0  0  0
  7  4  2  0  0  0
  9  8  1  0  0  0
  4 15  1  0  0  0
  4  1  1  0  0  0
  8  1  2  0  0  0
 15 16  1  0  0  0
 22 23  2  0  0  0
 17 18  1  0  0  0
 23 21  1  0  0  0
 23 18  1  0  0  0
 16 18  1  0  0  0
  2 13  1  0  0  0
  5 14  1  0  0  0
 17 19  1  0  0  0
 17 20  1  0  0  0
 21 24  1  0  0  0
M  END
> <minimizedAffinity>
-7.07513

$$$$
