5Z7B_VNL_A_201


 13 13  0  0  0  0  0  0  0  0999 V2000
   36.7938   -3.6476   10.9667 C   0  0  0  0  0  0  0  0  0  0  0  0
   35.6111   -4.3038   11.2999 C   0  0  0  0  0  0  0  0  0  0  0  0
   37.3256   -2.6500   11.8024 C   0  0  0  0  0  0  0  0  0  0  0  0
   34.9396   -3.9995   12.4749 C   0  0  0  0  0  0  0  0  0  0  0  0
   36.6592   -2.3055   12.9937 C   0  0  0  0  0  0  0  0  0  0  0  0
   35.4124   -3.0122   13.3344 C   0  0  0  0  0  0  0  0  0  0  0  0
   34.7091   -2.7276   14.4721 O   0  0  0  0  0  0  0  0  0  0  0  0
   33.9188   -3.1934   14.6633 H   0  0  0  0  0  0  0  0  0  0  0  0
   37.4559   -4.0359    9.6853 C   0  0  0  0  0  0  0  0  0  0  0  0
   38.0561   -3.2177    8.9847 O   0  0  0  0  0  0  0  0  0  0  0  0
   37.3937   -5.4134    9.2694 O   0  0  0  0  0  0  0  0  0  0  0  0
   37.1279   -1.3450   13.8576 O   0  0  0  0  0  0  0  0  0  0  0  0
   38.4302   -0.7675   13.7087 C   0  0  0  0  0  0  0  0  0  0  0  0
  1  2  2  0  0  0
  1  3  1  0  0  0
  1  9  1  0  0  0
  2  4  1  0  0  0
  3  5  2  0  0  0
  4  6  2  0  0  0
  5 12  1  0  0  0
  5  6  1  0  0  0
 12 13  1  0  0  0
  6  7  1  0  0  0
  9 10  1  0  0  0
  9 11  2  0  0  0
  7  8  1  0  0  0
M  CHG 1  10  -1
M  END
> <minimizedAffinity>
-6.92235

$$$$
5Z7B_VNL_A_201


 13 13  0  0  0  0  0  0  0  0999 V2000
   37.1567   -2.0562   12.8617 C   0  0  0  0  0  0  0  0  0  0  0  0
   36.0844   -2.6350   13.5367 C   0  0  0  0  0  0  0  0  0  0  0  0
   37.5170   -2.4891   11.5736 C   0  0  0  0  0  0  0  0  0  0  0  0
   35.3353   -3.6412   12.9445 C   0  0  0  0  0  0  0  0  0  0  0  0
   36.7878   -3.5202   10.9516 C   0  0  0  0  0  0  0  0  0  0  0  0
   35.6533   -4.1185   11.6764 C   0  0  0  0  0  0  0  0  0  0  0  0
   34.9029   -5.1265   11.1371 O   0  0  0  0  0  0  0  0  0  0  0  0
   34.1868   -5.4880   11.6213 H   0  0  0  0  0  0  0  0  0  0  0  0
   37.9100   -0.9772   13.5686 C   0  0  0  0  0  0  0  0  0  0  0  0
   37.5762   -0.5685   14.6830 O   0  0  0  0  0  0  0  0  0  0  0  0
   39.0664   -0.4105   12.9236 O   0  0  0  0  0  0  0  0  0  0  0  0
   37.0828   -3.9856    9.6927 O   0  0  0  0  0  0  0  0  0  0  0  0
   37.5739   -5.3136    9.4754 C   0  0  0  0  0  0  0  0  0  0  0  0
  1  2  2  0  0  0
  1  3  1  0  0  0
  1  9  1  0  0  0
  2  4  1  0  0  0
  3  5  2  0  0  0
  4  6  2  0  0  0
  5 12  1  0  0  0
  5  6  1  0  0  0
 12 13  1  0  0  0
  6  7  1  0  0  0
  9 10  1  0  0  0
  9 11  2  0  0  0
  7  8  1  0  0  0
M  CHG 1  10  -1
M  END
> <minimizedAffinity>
-6.07693

$$$$
5Z7B_VNL_A_201


 13 13  0  0  0  0  0  0  0  0999 V2000
   36.4930   -3.2088   12.1942 C   0  0  0  0  0  0  0  0  0  0  0  0
   36.3445   -4.5939   12.1958 C   0  0  0  0  0  0  0  0  0  0  0  0
   36.9494   -2.5332   11.0490 C   0  0  0  0  0  0  0  0  0  0  0  0
   36.6272   -5.3373   11.0592 C   0  0  0  0  0  0  0  0  0  0  0  0
   37.2614   -3.2604    9.8845 C   0  0  0  0  0  0  0  0  0  0  0  0
   37.0942   -4.7239    9.9005 C   0  0  0  0  0  0  0  0  0  0  0  0
   37.3817   -5.4953    8.8086 O   0  0  0  0  0  0  0  0  0  0  0  0
   37.2657   -6.4243    8.8476 H   0  0  0  0  0  0  0  0  0  0  0  0
   36.1650   -2.4827   13.4577 C   0  0  0  0  0  0  0  0  0  0  0  0
   35.1171   -2.6847   14.0753 O   0  0  0  0  0  0  0  0  0  0  0  0
   37.1138   -1.5262   13.9668 O   0  0  0  0  0  0  0  0  0  0  0  0
   37.7056   -2.6618    8.7300 O   0  0  0  0  0  0  0  0  0  0  0  0
   37.1385   -1.4376    8.2489 C   0  0  0  0  0  0  0  0  0  0  0  0
  1  2  2  0  0  0
  1  3  1  0  0  0
  1  9  1  0  0  0
  2  4  1  0  0  0
  3  5  2  0  0  0
  4  6  2  0  0  0
  5 12  1  0  0  0
  5  6  1  0  0  0
 12 13  1  0  0  0
  6  7  1  0  0  0
  9 10  1  0  0  0
  9 11  2  0  0  0
  7  8  1  0  0  0
M  CHG 1  10  -1
M  END
> <minimizedAffinity>
-5.77254

$$$$
5Z7B_VNL_A_201


 13 13  0  0  0  0  0  0  0  0999 V2000
   36.8632   -3.6675   11.5330 C   0  0  0  0  0  0  0  0  0  0  0  0
   36.6236   -4.3317   12.7338 C   0  0  0  0  0  0  0  0  0  0  0  0
   37.5862   -2.4622   11.5069 C   0  0  0  0  0  0  0  0  0  0  0  0
   37.1094   -3.8269   13.9311 C   0  0  0  0  0  0  0  0  0  0  0  0
   38.0781   -1.9142   12.7067 C   0  0  0  0  0  0  0  0  0  0  0  0
   37.8207   -2.6313   13.9676 C   0  0  0  0  0  0  0  0  0  0  0  0
   38.2638   -2.1569   15.1712 O   0  0  0  0  0  0  0  0  0  0  0  0
   38.0853   -2.6344   15.9574 H   0  0  0  0  0  0  0  0  0  0  0  0
   36.3077   -4.2790   10.2885 C   0  0  0  0  0  0  0  0  0  0  0  0
   35.1240   -4.6118   10.1950 O   0  0  0  0  0  0  0  0  0  0  0  0
   37.1884   -4.4725    9.1655 O   0  0  0  0  0  0  0  0  0  0  0  0
   38.7972   -0.7439   12.7507 O   0  0  0  0  0  0  0  0  0  0  0  0
   38.6791    0.1730   13.8448 C   0  0  0  0  0  0  0  0  0  0  0  0
  1  2  2  0  0  0
  1  3  1  0  0  0
  1  9  1  0  0  0
  2  4  1  0  0  0
  3  5  2  0  0  0
  4  6  2  0  0  0
  5 12  1  0  0  0
  5  6  1  0  0  0
 12 13  1  0  0  0
  6  7  1  0  0  0
  9 10  1  0  0  0
  9 11  2  0  0  0
  7  8  1  0  0  0
M  CHG 1  10  -1
M  END
> <minimizedAffinity>
-4.09745

$$$$
