4YNB_4EH_A_301


 29 32  0  0  0  0  0  0  0  0999 V2000
   11.0410   43.3749  -34.0962 O   0  0  0  0  0  0  0  0  0  0  0  0
   10.9339   44.3980  -35.0938 C   0  0  0  0  0  0  0  0  0  0  0  0
   12.2434   45.1614  -35.1744 C   0  0  0  0  0  0  0  0  0  0  0  0
    9.9118   45.4120  -34.6030 C   0  0  0  0  0  0  0  0  0  0  0  0
   10.7077   46.1475  -33.6042 N   0  0  0  0  0  0  0  0  0  0  0  0
   12.1032   46.2271  -34.0829 C   0  0  0  0  0  0  0  0  0  0  0  0
   11.6881   42.7111  -34.3819 H   0  0  0  0  0  0  0  0  0  0  0  0
   12.5233   45.9025  -36.4803 C   0  0  0  0  0  0  0  0  0  0  0  0
   12.5277   44.8532  -37.9138 S   0  0  0  0  0  0  0  0  0  0  0  0
   14.0970   44.4270  -38.4490 C   0  0  0  0  0  0  0  0  0  0  0  0
   14.3221   43.5253  -39.4828 C   0  0  0  0  0  0  0  0  0  0  0  0
   15.5916   43.2478  -39.8393 N   0  0  0  0  0  0  0  0  0  0  0  0
   16.6512   43.8148  -39.2348 C   0  0  0  0  0  0  0  0  0  0  0  0
   16.4298   44.7116  -38.2077 C   0  0  0  0  0  0  0  0  0  0  0  0
   15.1711   44.9874  -37.8343 N   0  0  0  0  0  0  0  0  0  0  0  0
   10.1661   47.4639  -33.2822 C   0  0  0  0  0  0  0  0  0  0  0  0
   10.2870   48.6614  -34.2174 C   0  0  0  0  0  0  0  0  0  0  0  0
    9.4512   49.0946  -35.3551 C   0  0  0  0  0  0  0  0  0  0  0  0
    8.4026   48.5035  -35.9705 N   0  0  0  0  0  0  0  0  0  0  0  0
    7.8425   49.1267  -37.0310 C   0  0  0  0  0  0  0  0  0  0  0  0
   11.2092   49.6939  -34.0608 C   0  0  0  0  0  0  0  0  0  0  0  0
   11.0301   50.6696  -35.0015 N   0  0  0  0  0  0  0  0  0  0  0  0
   10.0069   50.3706  -35.7988 C   0  0  0  0  0  0  0  0  0  0  0  0
    9.3571   50.9760  -36.9528 C   0  0  0  0  0  0  0  0  0  0  0  0
    8.2958   50.3136  -37.5240 N   0  0  0  0  0  0  0  0  0  0  0  0
    9.8232   52.1541  -37.4254 N   0  0  0  0  0  0  0  0  0  0  0  0
   11.5817   51.4813  -35.0787 H   0  0  0  0  0  0  0  0  0  0  0  0
    9.3946   52.5760  -38.2048 H   0  0  0  0  0  0  0  0  0  0  0  0
   10.5912   52.5898  -36.9901 H   0  0  0  0  0  0  0  0  0  0  0  0
 14 15  2  0  0  0
 14 13  1  0  0  0
 15 10  1  0  0  0
 13 12  2  0  0  0
 10  9  1  0  0  0
 10 11  2  0  0  0
  9  8  1  0  0  0
 12 11  1  0  0  0
 25 20  2  0  0  0
 25 24  1  0  0  0
 26 24  1  0  0  0
 20 19  1  0  0  0
 24 23  2  0  0  0
  8  3  1  0  0  0
 19 18  2  0  0  0
 23 18  1  0  0  0
 23 22  1  0  0  0
 18 17  1  0  0  0
  3  2  1  0  0  0
  3  6  1  0  0  0
  2  4  1  0  0  0
  2  1  1  0  0  0
 22 21  1  0  0  0
  4  5  1  0  0  0
  6  5  1  0  0  0
 17 21  2  0  0  0
 17 16  1  0  0  0
  5 16  1  0  0  0
  1  7  1  0  0  0
 22 27  1  0  0  0
 26 28  1  0  0  0
 26 29  1  0  0  0
M  END
> <minimizedAffinity>
-10.62346

$$$$
4YNB_4EH_A_301


 29 32  0  0  0  0  0  0  0  0999 V2000
   10.8040   43.6684  -34.9293 O   0  0  0  0  0  0  0  0  0  0  0  0
   11.6737   44.7723  -34.6489 C   0  0  0  0  0  0  0  0  0  0  0  0
   11.0041   46.0634  -35.0835 C   0  0  0  0  0  0  0  0  0  0  0  0
   12.8935   44.6348  -35.5471 C   0  0  0  0  0  0  0  0  0  0  0  0
   12.3441   45.0964  -36.8345 N   0  0  0  0  0  0  0  0  0  0  0  0
   11.3654   46.1708  -36.5683 C   0  0  0  0  0  0  0  0  0  0  0  0
   10.0141   43.7288  -34.3695 H   0  0  0  0  0  0  0  0  0  0  0  0
   11.4959   47.3465  -34.4166 C   0  0  0  0  0  0  0  0  0  0  0  0
   10.1950   48.4819  -33.9990 S   0  0  0  0  0  0  0  0  0  0  0  0
    9.6100   49.3787  -35.3348 C   0  0  0  0  0  0  0  0  0  0  0  0
    8.7564   48.8385  -36.2899 C   0  0  0  0  0  0  0  0  0  0  0  0
    8.3446   49.6175  -37.3095 N   0  0  0  0  0  0  0  0  0  0  0  0
    8.7251   50.9016  -37.4358 C   0  0  0  0  0  0  0  0  0  0  0  0
    9.5727   51.4406  -36.4874 C   0  0  0  0  0  0  0  0  0  0  0  0
   10.0003   50.6724  -35.4741 N   0  0  0  0  0  0  0  0  0  0  0  0
   13.3666   45.5146  -37.7880 C   0  0  0  0  0  0  0  0  0  0  0  0
   14.3385   44.5395  -38.4423 C   0  0  0  0  0  0  0  0  0  0  0  0
   15.7884   44.3362  -38.2499 C   0  0  0  0  0  0  0  0  0  0  0  0
   16.6991   45.0222  -37.5235 N   0  0  0  0  0  0  0  0  0  0  0  0
   17.9894   44.6221  -37.5634 C   0  0  0  0  0  0  0  0  0  0  0  0
   13.9636   43.5146  -39.3082 C   0  0  0  0  0  0  0  0  0  0  0  0
   15.0379   42.7521  -39.6734 N   0  0  0  0  0  0  0  0  0  0  0  0
   16.1472   43.1906  -39.0824 C   0  0  0  0  0  0  0  0  0  0  0  0
   17.5568   42.8256  -39.0819 C   0  0  0  0  0  0  0  0  0  0  0  0
   18.4222   43.5721  -38.3167 N   0  0  0  0  0  0  0  0  0  0  0  0
   17.9644   41.7803  -39.8366 N   0  0  0  0  0  0  0  0  0  0  0  0
   14.9969   41.9846  -40.2885 H   0  0  0  0  0  0  0  0  0  0  0  0
   18.9141   41.5212  -39.8468 H   0  0  0  0  0  0  0  0  0  0  0  0
   17.3114   41.2782  -40.3758 H   0  0  0  0  0  0  0  0  0  0  0  0
 14 15  2  0  0  0
 14 13  1  0  0  0
 15 10  1  0  0  0
 13 12  2  0  0  0
 10  9  1  0  0  0
 10 11  2  0  0  0
  9  8  1  0  0  0
 12 11  1  0  0  0
 25 20  2  0  0  0
 25 24  1  0  0  0
 26 24  1  0  0  0
 20 19  1  0  0  0
 24 23  2  0  0  0
  8  3  1  0  0  0
 19 18  2  0  0  0
 23 18  1  0  0  0
 23 22  1  0  0  0
 18 17  1  0  0  0
  3  2  1  0  0  0
  3  6  1  0  0  0
  2  4  1  0  0  0
  2  1  1  0  0  0
 22 21  1  0  0  0
  4  5  1  0  0  0
  6  5  1  0  0  0
 17 21  2  0  0  0
 17 16  1  0  0  0
  5 16  1  0  0  0
  1  7  1  0  0  0
 22 27  1  0  0  0
 26 28  1  0  0  0
 26 29  1  0  0  0
M  END
> <minimizedAffinity>
-8.16260

$$$$
