3QGW_L7A_B_1


 24 26  0  0  0  0  0  0  0  0999 V2000
   35.9943   49.0597   11.0795 O   0  0  0  0  0  0  0  0  0  0  0  0
   38.2938   49.0180   10.8646 N   0  0  0  0  0  0  0  0  0  0  0  0
   39.5764   49.5254   11.2464 C   0  0  0  0  0  0  0  0  0  0  0  0
   39.5406   50.4953   12.3494 C   0  0  0  0  0  0  0  0  0  0  0  0
   38.3004   50.9561   13.0015 C   0  0  0  0  0  0  0  0  0  0  0  0
   37.0778   50.4477   12.5811 C   0  0  0  0  0  0  0  0  0  0  0  0
   37.0676   49.4599   11.4720 C   0  0  0  0  0  0  0  0  0  0  0  0
   38.2491   48.3367   10.1553 H   0  0  0  0  0  0  0  0  0  0  0  0
   43.3679   52.1440   13.7191 N   0  0  0  0  0  0  0  0  0  0  0  0
   42.1692   52.6974   14.3220 C   0  0  0  0  0  0  0  0  0  0  0  0
   43.4565   51.1295   12.7104 C   0  0  0  0  0  0  0  0  0  0  0  0
   42.1983   50.5953   12.2390 C   0  0  0  0  0  0  0  0  0  0  0  0
   40.8808   51.1250   12.8255 C   0  0  0  0  0  0  0  0  0  0  0  0
   40.8823   52.1875   13.8787 C   0  0  0  0  0  0  0  0  0  0  0  0
   35.8807   50.8078   13.1173 N   0  0  0  0  0  0  0  0  0  0  0  0
   36.1001   49.6104   15.1413 O   0  0  0  0  0  0  0  0  0  0  0  0
   35.5033   50.3561   14.3652 C   0  0  0  0  0  0  0  0  0  0  0  0
   35.2772   51.3971   12.6097 H   0  0  0  0  0  0  0  0  0  0  0  0
   34.1428   50.8904   14.7571 C   0  0  0  0  0  0  0  0  0  0  0  0
   33.0839   50.6205   13.7566 C   0  0  0  0  0  0  0  0  0  0  0  0
   31.7176   51.1071   14.0266 C   0  0  0  0  0  0  0  0  0  0  0  0
   31.4221   51.8288   15.2904 C   0  0  0  0  0  0  0  0  0  0  0  0
   32.4754   52.0759   16.3022 C   0  0  0  0  0  0  0  0  0  0  0  0
   33.8499   51.6209   16.0411 C   0  0  0  0  0  0  0  0  0  0  0  0
 19 20  2  0  0  0
 19 24  1  0  0  0
 19 17  1  0  0  0
  9 10  2  0  0  0
  9 11  1  0  0  0
  1  7  2  0  0  0
 20 21  1  0  0  0
 15 17  1  0  0  0
 15  6  1  0  0  0
 16 17  2  0  0  0
 21 22  2  0  0  0
  2  3  1  0  0  0
  2  7  1  0  0  0
 22 23  1  0  0  0
 23 24  2  0  0  0
  3  4  2  0  0  0
  4  5  1  0  0  0
  4 13  1  0  0  0
  5  6  2  0  0  0
  6  7  1  0  0  0
 10 14  1  0  0  0
 11 12  2  0  0  0
 12 13  1  0  0  0
 13 14  2  0  0  0
 15 18  1  0  0  0
  2  8  1  0  0  0
M  END
> <minimizedAffinity>
-8.90826

$$$$
3QGW_L7A_B_1


 24 26  0  0  0  0  0  0  0  0999 V2000
   37.0440   53.0549   18.0496 O   0  0  0  0  0  0  0  0  0  0  0  0
   39.2854   52.8481   17.5314 N   0  0  0  0  0  0  0  0  0  0  0  0
   40.3052   52.4741   16.5994 C   0  0  0  0  0  0  0  0  0  0  0  0
   39.8025   52.0847   15.2749 C   0  0  0  0  0  0  0  0  0  0  0  0
   38.3720   52.0355   14.9183 C   0  0  0  0  0  0  0  0  0  0  0  0
   37.4192   52.3898   15.8652 C   0  0  0  0  0  0  0  0  0  0  0  0
   37.8834   52.7956   17.2164 C   0  0  0  0  0  0  0  0  0  0  0  0
   39.5556   53.1547   18.4270 H   0  0  0  0  0  0  0  0  0  0  0  0
   42.6727   50.6927   12.2638 N   0  0  0  0  0  0  0  0  0  0  0  0
   43.1517   51.6856   13.2078 C   0  0  0  0  0  0  0  0  0  0  0  0
   41.3619   50.1186   12.1814 C   0  0  0  0  0  0  0  0  0  0  0  0
   40.4040   50.5874   13.1579 C   0  0  0  0  0  0  0  0  0  0  0  0
   40.8291   51.6380   14.1952 C   0  0  0  0  0  0  0  0  0  0  0  0
   42.2222   52.1832   14.2084 C   0  0  0  0  0  0  0  0  0  0  0  0
   36.0786   52.3779   15.6348 N   0  0  0  0  0  0  0  0  0  0  0  0
   35.7305   50.0845   16.0789 O   0  0  0  0  0  0  0  0  0  0  0  0
   35.3504   51.2142   15.7724 C   0  0  0  0  0  0  0  0  0  0  0  0
   35.6232   53.2086   15.3670 H   0  0  0  0  0  0  0  0  0  0  0  0
   33.8843   51.4424   15.4748 C   0  0  0  0  0  0  0  0  0  0  0  0
   33.4513   50.9103   14.1616 C   0  0  0  0  0  0  0  0  0  0  0  0
   32.0432   51.0868   13.7585 C   0  0  0  0  0  0  0  0  0  0  0  0
   31.0881   51.7640   14.6721 C   0  0  0  0  0  0  0  0  0  0  0  0
   31.5155   52.2730   15.9959 C   0  0  0  0  0  0  0  0  0  0  0  0
   32.9209   52.1293   16.4065 C   0  0  0  0  0  0  0  0  0  0  0  0
 19 20  2  0  0  0
 19 24  1  0  0  0
 19 17  1  0  0  0
  9 10  2  0  0  0
  9 11  1  0  0  0
  1  7  2  0  0  0
 20 21  1  0  0  0
 15 17  1  0  0  0
 15  6  1  0  0  0
 16 17  2  0  0  0
 21 22  2  0  0  0
  2  3  1  0  0  0
  2  7  1  0  0  0
 22 23  1  0  0  0
 23 24  2  0  0  0
  3  4  2  0  0  0
  4  5  1  0  0  0
  4 13  1  0  0  0
  5  6  2  0  0  0
  6  7  1  0  0  0
 10 14  1  0  0  0
 11 12  2  0  0  0
 12 13  1  0  0  0
 13 14  2  0  0  0
 15 18  1  0  0  0
  2  8  1  0  0  0
M  END
> <minimizedAffinity>
-8.22405

$$$$
3QGW_L7A_B_1


 24 26  0  0  0  0  0  0  0  0999 V2000
   36.9478   53.0576   17.9647 O   0  0  0  0  0  0  0  0  0  0  0  0
   39.1977   52.8341   17.4920 N   0  0  0  0  0  0  0  0  0  0  0  0
   40.2332   52.4338   16.5886 C   0  0  0  0  0  0  0  0  0  0  0  0
   39.7532   52.0099   15.2663 C   0  0  0  0  0  0  0  0  0  0  0  0
   38.3292   51.9532   14.8858 C   0  0  0  0  0  0  0  0  0  0  0  0
   37.3604   52.3339   15.8059 C   0  0  0  0  0  0  0  0  0  0  0  0
   37.8014   52.7751   17.1537 C   0  0  0  0  0  0  0  0  0  0  0  0
   39.4526   53.1641   18.3838 H   0  0  0  0  0  0  0  0  0  0  0  0
   42.7236   50.7977   12.2746 N   0  0  0  0  0  0  0  0  0  0  0  0
   41.4177   50.1708   12.1846 C   0  0  0  0  0  0  0  0  0  0  0  0
   43.1727   51.7587   13.2386 C   0  0  0  0  0  0  0  0  0  0  0  0
   42.2056   52.1483   14.2405 C   0  0  0  0  0  0  0  0  0  0  0  0
   40.7980   51.5331   14.2173 C   0  0  0  0  0  0  0  0  0  0  0  0
   40.4142   50.5351   13.1710 C   0  0  0  0  0  0  0  0  0  0  0  0
   36.0242   52.3177   15.5521 N   0  0  0  0  0  0  0  0  0  0  0  0
   35.6673   50.0332   16.0340 O   0  0  0  0  0  0  0  0  0  0  0  0
   35.2931   51.1568   15.6992 C   0  0  0  0  0  0  0  0  0  0  0  0
   35.5738   53.1431   15.2604 H   0  0  0  0  0  0  0  0  0  0  0  0
   33.8326   51.3793   15.3714 C   0  0  0  0  0  0  0  0  0  0  0  0
   33.0896   52.1138   16.4219 C   0  0  0  0  0  0  0  0  0  0  0  0
   31.6528   52.3775   16.2163 C   0  0  0  0  0  0  0  0  0  0  0  0
   30.9868   51.9308   14.9664 C   0  0  0  0  0  0  0  0  0  0  0  0
   31.7359   51.2192   13.9049 C   0  0  0  0  0  0  0  0  0  0  0  0
   33.1637   50.9243   14.1012 C   0  0  0  0  0  0  0  0  0  0  0  0
 19 20  2  0  0  0
 19 24  1  0  0  0
 19 17  1  0  0  0
  9 10  2  0  0  0
  9 11  1  0  0  0
  1  7  2  0  0  0
 20 21  1  0  0  0
 15 17  1  0  0  0
 15  6  1  0  0  0
 16 17  2  0  0  0
 21 22  2  0  0  0
  2  3  1  0  0  0
  2  7  1  0  0  0
 22 23  1  0  0  0
 23 24  2  0  0  0
  3  4  2  0  0  0
  4  5  1  0  0  0
  4 13  1  0  0  0
  5  6  2  0  0  0
  6  7  1  0  0  0
 10 14  1  0  0  0
 11 12  2  0  0  0
 12 13  1  0  0  0
 13 14  2  0  0  0
 15 18  1  0  0  0
  2  8  1  0  0  0
M  END
> <minimizedAffinity>
-8.10763

$$$$
3QGW_L7A_B_1


 24 26  0  0  0  0  0  0  0  0999 V2000
   43.8461   51.8276   13.4383 O   0  0  0  0  0  0  0  0  0  0  0  0
   42.1923   50.6630   12.3230 N   0  0  0  0  0  0  0  0  0  0  0  0
   40.8093   50.3260   12.1737 C   0  0  0  0  0  0  0  0  0  0  0  0
   39.9044   51.0751   13.0561 C   0  0  0  0  0  0  0  0  0  0  0  0
   40.3565   52.0676   14.0492 C   0  0  0  0  0  0  0  0  0  0  0  0
   41.7124   52.3454   14.1691 C   0  0  0  0  0  0  0  0  0  0  0  0
   42.6631   51.6150   13.2924 C   0  0  0  0  0  0  0  0  0  0  0  0
   42.8498   50.2240   11.7364 H   0  0  0  0  0  0  0  0  0  0  0  0
   35.6122   50.1718   13.0006 N   0  0  0  0  0  0  0  0  0  0  0  0
   36.4263   49.5198   11.9914 C   0  0  0  0  0  0  0  0  0  0  0  0
   36.0372   51.0958   14.0106 C   0  0  0  0  0  0  0  0  0  0  0  0
   37.4475   51.4144   14.0227 C   0  0  0  0  0  0  0  0  0  0  0  0
   38.3814   50.7668   12.9887 C   0  0  0  0  0  0  0  0  0  0  0  0
   37.8503   49.8101   11.9685 C   0  0  0  0  0  0  0  0  0  0  0  0
   42.2287   53.2422   15.0521 N   0  0  0  0  0  0  0  0  0  0  0  0
   41.0318   52.5006   16.9484 O   0  0  0  0  0  0  0  0  0  0  0  0
   41.8409   53.2304   16.3761 C   0  0  0  0  0  0  0  0  0  0  0  0
   42.8860   53.9068   14.7430 H   0  0  0  0  0  0  0  0  0  0  0  0
   42.5495   54.3077   17.1681 C   0  0  0  0  0  0  0  0  0  0  0  0
   42.6625   55.5996   16.4516 C   0  0  0  0  0  0  0  0  0  0  0  0
   43.3469   56.7210   17.1225 C   0  0  0  0  0  0  0  0  0  0  0  0
   43.8838   56.5487   18.4964 C   0  0  0  0  0  0  0  0  0  0  0  0
   43.7480   55.2648   19.2225 C   0  0  0  0  0  0  0  0  0  0  0  0
   43.0909   54.1264   18.5617 C   0  0  0  0  0  0  0  0  0  0  0  0
 19 20  2  0  0  0
 19 24  1  0  0  0
 19 17  1  0  0  0
  9 10  2  0  0  0
  9 11  1  0  0  0
  1  7  2  0  0  0
 20 21  1  0  0  0
 15 17  1  0  0  0
 15  6  1  0  0  0
 16 17  2  0  0  0
 21 22  2  0  0  0
  2  3  1  0  0  0
  2  7  1  0  0  0
 22 23  1  0  0  0
 23 24  2  0  0  0
  3  4  2  0  0  0
  4  5  1  0  0  0
  4 13  1  0  0  0
  5  6  2  0  0  0
  6  7  1  0  0  0
 10 14  1  0  0  0
 11 12  2  0  0  0
 12 13  1  0  0  0
 13 14  2  0  0  0
 15 18  1  0  0  0
  2  8  1  0  0  0
M  END
> <minimizedAffinity>
-7.97518

$$$$
3QGW_L7A_B_1


 24 26  0  0  0  0  0  0  0  0999 V2000
   36.9226   48.9809   11.5404 O   0  0  0  0  0  0  0  0  0  0  0  0
   34.8452   49.2378   12.5170 N   0  0  0  0  0  0  0  0  0  0  0  0
   34.0286   49.8098   13.5439 C   0  0  0  0  0  0  0  0  0  0  0  0
   34.7281   50.7671   14.4115 C   0  0  0  0  0  0  0  0  0  0  0  0
   36.1592   51.1011   14.2845 C   0  0  0  0  0  0  0  0  0  0  0  0
   36.9140   50.5038   13.2827 C   0  0  0  0  0  0  0  0  0  0  0  0
   36.2456   49.5333   12.3787 C   0  0  0  0  0  0  0  0  0  0  0  0
   34.4299   48.6151   11.8774 H   0  0  0  0  0  0  0  0  0  0  0  0
   32.5208   52.5225   17.7714 N   0  0  0  0  0  0  0  0  0  0  0  0
   31.8160   52.4356   16.5056 C   0  0  0  0  0  0  0  0  0  0  0  0
   33.8660   52.1189   18.0579 C   0  0  0  0  0  0  0  0  0  0  0  0
   34.6071   51.5579   16.9503 C   0  0  0  0  0  0  0  0  0  0  0  0
   33.9352   51.4286   15.5747 C   0  0  0  0  0  0  0  0  0  0  0  0
   32.5230   51.8760   15.3656 C   0  0  0  0  0  0  0  0  0  0  0  0
   38.2377   50.7451   13.0831 N   0  0  0  0  0  0  0  0  0  0  0  0
   38.8848   50.6967   15.3540 O   0  0  0  0  0  0  0  0  0  0  0  0
   39.1103   50.8121   14.1497 C   0  0  0  0  0  0  0  0  0  0  0  0
   38.5767   50.8733   12.1677 H   0  0  0  0  0  0  0  0  0  0  0  0
   40.5263   51.0803   13.6880 C   0  0  0  0  0  0  0  0  0  0  0  0
   41.2125   52.1470   14.4537 C   0  0  0  0  0  0  0  0  0  0  0  0
   42.5951   52.5036   14.0829 C   0  0  0  0  0  0  0  0  0  0  0  0
   43.2781   51.7818   12.9792 C   0  0  0  0  0  0  0  0  0  0  0  0
   42.6006   50.6978   12.2308 C   0  0  0  0  0  0  0  0  0  0  0  0
   41.2131   50.3439   12.5682 C   0  0  0  0  0  0  0  0  0  0  0  0
 19 20  2  0  0  0
 19 24  1  0  0  0
 19 17  1  0  0  0
  9 10  2  0  0  0
  9 11  1  0  0  0
  1  7  2  0  0  0
 20 21  1  0  0  0
 15 17  1  0  0  0
 15  6  1  0  0  0
 16 17  2  0  0  0
 21 22  2  0  0  0
  2  3  1  0  0  0
  2  7  1  0  0  0
 22 23  1  0  0  0
 23 24  2  0  0  0
  3  4  2  0  0  0
  4  5  1  0  0  0
  4 13  1  0  0  0
  5  6  2  0  0  0
  6  7  1  0  0  0
 10 14  1  0  0  0
 11 12  2  0  0  0
 12 13  1  0  0  0
 13 14  2  0  0  0
 15 18  1  0  0  0
  2  8  1  0  0  0
M  END
> <minimizedAffinity>
-7.95675

$$$$
3QGW_L7A_B_1


 24 26  0  0  0  0  0  0  0  0999 V2000
   37.8914   50.1969   12.5054 O   0  0  0  0  0  0  0  0  0  0  0  0
   40.0309   50.5780   13.2882 N   0  0  0  0  0  0  0  0  0  0  0  0
   40.9082   51.2440   14.2022 C   0  0  0  0  0  0  0  0  0  0  0  0
   40.2226   52.0422   15.2276 C   0  0  0  0  0  0  0  0  0  0  0  0
   38.7578   52.1953   15.3097 C   0  0  0  0  0  0  0  0  0  0  0  0
   37.9499   51.5436   14.3863 C   0  0  0  0  0  0  0  0  0  0  0  0
   38.6009   50.7208   13.3351 C   0  0  0  0  0  0  0  0  0  0  0  0
   40.4237   49.9969   12.5974 H   0  0  0  0  0  0  0  0  0  0  0  0
   42.5438   54.3055   18.1826 N   0  0  0  0  0  0  0  0  0  0  0  0
   42.9417   54.4508   16.7944 C   0  0  0  0  0  0  0  0  0  0  0  0
   41.4889   53.4936   18.7143 C   0  0  0  0  0  0  0  0  0  0  0  0
   40.7321   52.7286   17.7485 C   0  0  0  0  0  0  0  0  0  0  0  0
   41.0868   52.8253   16.2567 C   0  0  0  0  0  0  0  0  0  0  0  0
   42.2062   53.7011   15.7896 C   0  0  0  0  0  0  0  0  0  0  0  0
   36.5918   51.6206   14.3777 N   0  0  0  0  0  0  0  0  0  0  0  0
   36.1973   49.9302   15.9793 O   0  0  0  0  0  0  0  0  0  0  0  0
   35.8345   50.8022   15.1903 C   0  0  0  0  0  0  0  0  0  0  0  0
   36.1445   52.2673   13.7853 H   0  0  0  0  0  0  0  0  0  0  0  0
   34.3551   51.0703   15.0183 C   0  0  0  0  0  0  0  0  0  0  0  0
   33.7421   51.7916   16.1580 C   0  0  0  0  0  0  0  0  0  0  0  0
   32.2997   52.0967   16.1061 C   0  0  0  0  0  0  0  0  0  0  0  0
   31.4993   51.7036   14.9186 C   0  0  0  0  0  0  0  0  0  0  0  0
   32.1179   51.0052   13.7680 C   0  0  0  0  0  0  0  0  0  0  0  0
   33.5496   50.6695   13.8106 C   0  0  0  0  0  0  0  0  0  0  0  0
 19 20  2  0  0  0
 19 24  1  0  0  0
 19 17  1  0  0  0
  9 10  2  0  0  0
  9 11  1  0  0  0
  1  7  2  0  0  0
 20 21  1  0  0  0
 15 17  1  0  0  0
 15  6  1  0  0  0
 16 17  2  0  0  0
 21 22  2  0  0  0
  2  3  1  0  0  0
  2  7  1  0  0  0
 22 23  1  0  0  0
 23 24  2  0  0  0
  3  4  2  0  0  0
  4  5  1  0  0  0
  4 13  1  0  0  0
  5  6  2  0  0  0
  6  7  1  0  0  0
 10 14  1  0  0  0
 11 12  2  0  0  0
 12 13  1  0  0  0
 13 14  2  0  0  0
 15 18  1  0  0  0
  2  8  1  0  0  0
M  END
> <minimizedAffinity>
-7.90414

$$$$
3QGW_L7A_B_1


 24 26  0  0  0  0  0  0  0  0999 V2000
   37.3425   51.1004   17.6936 O   0  0  0  0  0  0  0  0  0  0  0  0
   35.0547   51.1105   18.0117 N   0  0  0  0  0  0  0  0  0  0  0  0
   33.7390   51.3239   17.4901 C   0  0  0  0  0  0  0  0  0  0  0  0
   33.6974   51.6113   16.0499 C   0  0  0  0  0  0  0  0  0  0  0  0
   34.8953   51.7164   15.1957 C   0  0  0  0  0  0  0  0  0  0  0  0
   36.1521   51.5199   15.7541 C   0  0  0  0  0  0  0  0  0  0  0  0
   36.2407   51.2213   17.2063 C   0  0  0  0  0  0  0  0  0  0  0  0
   35.1518   50.8777   18.9633 H   0  0  0  0  0  0  0  0  0  0  0  0
   29.7401   52.3090   14.2907 N   0  0  0  0  0  0  0  0  0  0  0  0
   30.7322   51.6881   13.4324 C   0  0  0  0  0  0  0  0  0  0  0  0
   29.8993   52.7424   15.6476 C   0  0  0  0  0  0  0  0  0  0  0  0
   31.2071   52.5344   16.2282 C   0  0  0  0  0  0  0  0  0  0  0  0
   32.3159   51.8818   15.3885 C   0  0  0  0  0  0  0  0  0  0  0  0
   32.0603   51.4585   13.9765 C   0  0  0  0  0  0  0  0  0  0  0  0
   37.3150   51.5947   15.0524 N   0  0  0  0  0  0  0  0  0  0  0  0
   36.8766   49.8035   13.5767 O   0  0  0  0  0  0  0  0  0  0  0  0
   37.5676   50.7240   14.0123 C   0  0  0  0  0  0  0  0  0  0  0  0
   37.9836   52.2775   15.2891 H   0  0  0  0  0  0  0  0  0  0  0  0
   38.9127   50.9998   13.3762 C   0  0  0  0  0  0  0  0  0  0  0  0
   39.7611   51.9332   14.1535 C   0  0  0  0  0  0  0  0  0  0  0  0
   41.0915   52.2858   13.6225 C   0  0  0  0  0  0  0  0  0  0  0  0
   41.5644   51.6899   12.3470 C   0  0  0  0  0  0  0  0  0  0  0  0
   40.7262   50.7369   11.5833 C   0  0  0  0  0  0  0  0  0  0  0  0
   39.3863   50.3912   12.0826 C   0  0  0  0  0  0  0  0  0  0  0  0
 19 20  2  0  0  0
 19 24  1  0  0  0
 19 17  1  0  0  0
  9 10  2  0  0  0
  9 11  1  0  0  0
  1  7  2  0  0  0
 20 21  1  0  0  0
 15 17  1  0  0  0
 15  6  1  0  0  0
 16 17  2  0  0  0
 21 22  2  0  0  0
  2  3  1  0  0  0
  2  7  1  0  0  0
 22 23  1  0  0  0
 23 24  2  0  0  0
  3  4  2  0  0  0
  4  5  1  0  0  0
  4 13  1  0  0  0
  5  6  2  0  0  0
  6  7  1  0  0  0
 10 14  1  0  0  0
 11 12  2  0  0  0
 12 13  1  0  0  0
 13 14  2  0  0  0
 15 18  1  0  0  0
  2  8  1  0  0  0
M  END
> <minimizedAffinity>
-7.75018

$$$$
3QGW_L7A_B_1


 24 26  0  0  0  0  0  0  0  0999 V2000
   36.1381   49.1135   11.8874 O   0  0  0  0  0  0  0  0  0  0  0  0
   34.0978   49.4022   12.9312 N   0  0  0  0  0  0  0  0  0  0  0  0
   33.3216   49.9971   13.9762 C   0  0  0  0  0  0  0  0  0  0  0  0
   34.0576   50.9633   14.8028 C   0  0  0  0  0  0  0  0  0  0  0  0
   35.4857   51.2843   14.6206 C   0  0  0  0  0  0  0  0  0  0  0  0
   36.2009   50.6649   13.6033 C   0  0  0  0  0  0  0  0  0  0  0  0
   35.4946   49.6847   12.7394 C   0  0  0  0  0  0  0  0  0  0  0  0
   33.6562   48.7721   12.3170 H   0  0  0  0  0  0  0  0  0  0  0  0
   31.9217   53.0064   18.0441 N   0  0  0  0  0  0  0  0  0  0  0  0
   33.2704   52.5571   18.3369 C   0  0  0  0  0  0  0  0  0  0  0  0
   31.1883   52.8485   16.8227 C   0  0  0  0  0  0  0  0  0  0  0  0
   31.8782   52.1580   15.7560 C   0  0  0  0  0  0  0  0  0  0  0  0
   33.3104   51.6498   15.9817 C   0  0  0  0  0  0  0  0  0  0  0  0
   34.0014   51.8599   17.2918 C   0  0  0  0  0  0  0  0  0  0  0  0
   37.5185   50.8928   13.3537 N   0  0  0  0  0  0  0  0  0  0  0  0
   38.2573   50.7938   15.5948 O   0  0  0  0  0  0  0  0  0  0  0  0
   38.4349   50.9287   14.3845 C   0  0  0  0  0  0  0  0  0  0  0  0
   37.8215   51.0338   12.4276 H   0  0  0  0  0  0  0  0  0  0  0  0
   39.8343   51.1873   13.8699 C   0  0  0  0  0  0  0  0  0  0  0  0
   40.0624   50.7012   12.4890 C   0  0  0  0  0  0  0  0  0  0  0  0
   41.3962   50.8877   11.8868 C   0  0  0  0  0  0  0  0  0  0  0  0
   42.4685   51.5719   12.6534 C   0  0  0  0  0  0  0  0  0  0  0  0
   42.2323   52.0807   14.0243 C   0  0  0  0  0  0  0  0  0  0  0  0
   40.9168   51.8827   14.6525 C   0  0  0  0  0  0  0  0  0  0  0  0
 19 20  2  0  0  0
 19 24  1  0  0  0
 19 17  1  0  0  0
  9 10  2  0  0  0
  9 11  1  0  0  0
  1  7  2  0  0  0
 20 21  1  0  0  0
 15 17  1  0  0  0
 15  6  1  0  0  0
 16 17  2  0  0  0
 21 22  2  0  0  0
  2  3  1  0  0  0
  2  7  1  0  0  0
 22 23  1  0  0  0
 23 24  2  0  0  0
  3  4  2  0  0  0
  4  5  1  0  0  0
  4 13  1  0  0  0
  5  6  2  0  0  0
  6  7  1  0  0  0
 10 14  1  0  0  0
 11 12  2  0  0  0
 12 13  1  0  0  0
 13 14  2  0  0  0
 15 18  1  0  0  0
  2  8  1  0  0  0
M  END
> <minimizedAffinity>
-7.49501

$$$$
3QGW_L7A_B_1


 24 26  0  0  0  0  0  0  0  0999 V2000
   38.7136   51.6809   18.1443 O   0  0  0  0  0  0  0  0  0  0  0  0
   36.4346   51.7445   18.5156 N   0  0  0  0  0  0  0  0  0  0  0  0
   35.1015   51.7646   17.9952 C   0  0  0  0  0  0  0  0  0  0  0  0
   35.0174   51.5994   16.5377 C   0  0  0  0  0  0  0  0  0  0  0  0
   36.1910   51.4621   15.6549 C   0  0  0  0  0  0  0  0  0  0  0  0
   37.4658   51.4682   16.2071 C   0  0  0  0  0  0  0  0  0  0  0  0
   37.5975   51.6272   17.6779 C   0  0  0  0  0  0  0  0  0  0  0  0
   36.5610   51.8141   19.4895 H   0  0  0  0  0  0  0  0  0  0  0  0
   31.1146   51.7462   14.5404 N   0  0  0  0  0  0  0  0  0  0  0  0
   31.1811   52.3051   15.8782 C   0  0  0  0  0  0  0  0  0  0  0  0
   32.1705   51.1311   13.7912 C   0  0  0  0  0  0  0  0  0  0  0  0
   33.4554   51.0606   14.4507 C   0  0  0  0  0  0  0  0  0  0  0  0
   33.6134   51.6300   15.8689 C   0  0  0  0  0  0  0  0  0  0  0  0
   32.4545   52.2570   16.5774 C   0  0  0  0  0  0  0  0  0  0  0  0
   38.6090   51.3478   15.4798 N   0  0  0  0  0  0  0  0  0  0  0  0
   37.6057   51.4657   13.3449 O   0  0  0  0  0  0  0  0  0  0  0  0
   38.5718   51.3657   14.1007 C   0  0  0  0  0  0  0  0  0  0  0  0
   39.4721   51.2467   15.9424 H   0  0  0  0  0  0  0  0  0  0  0  0
   39.9578   51.2256   13.5095 C   0  0  0  0  0  0  0  0  0  0  0  0
   40.9821   52.0562   14.1848 C   0  0  0  0  0  0  0  0  0  0  0  0
   42.3693   52.0102   13.6849 C   0  0  0  0  0  0  0  0  0  0  0  0
   42.7190   51.1263   12.5439 C   0  0  0  0  0  0  0  0  0  0  0  0
   41.6998   50.2766   11.8855 C   0  0  0  0  0  0  0  0  0  0  0  0
   40.3056   50.3265   12.3526 C   0  0  0  0  0  0  0  0  0  0  0  0
 19 20  2  0  0  0
 19 24  1  0  0  0
 19 17  1  0  0  0
  9 10  2  0  0  0
  9 11  1  0  0  0
  1  7  2  0  0  0
 20 21  1  0  0  0
 15 17  1  0  0  0
 15  6  1  0  0  0
 16 17  2  0  0  0
 21 22  2  0  0  0
  2  3  1  0  0  0
  2  7  1  0  0  0
 22 23  1  0  0  0
 23 24  2  0  0  0
  3  4  2  0  0  0
  4  5  1  0  0  0
  4 13  1  0  0  0
  5  6  2  0  0  0
  6  7  1  0  0  0
 10 14  1  0  0  0
 11 12  2  0  0  0
 12 13  1  0  0  0
 13 14  2  0  0  0
 15 18  1  0  0  0
  2  8  1  0  0  0
M  END
> <minimizedAffinity>
-7.36267

$$$$
3QGW_L7A_B_1


 24 26  0  0  0  0  0  0  0  0999 V2000
   35.3867   50.5658   17.5936 O   0  0  0  0  0  0  0  0  0  0  0  0
   33.0772   50.5452   17.6241 N   0  0  0  0  0  0  0  0  0  0  0  0
   31.8337   50.8220   16.9717 C   0  0  0  0  0  0  0  0  0  0  0  0
   31.9671   51.2762   15.5808 C   0  0  0  0  0  0  0  0  0  0  0  0
   33.2601   51.4771   14.9000 C   0  0  0  0  0  0  0  0  0  0  0  0
   34.4405   51.2129   15.5834 C   0  0  0  0  0  0  0  0  0  0  0  0
   34.3523   50.7461   16.9906 C   0  0  0  0  0  0  0  0  0  0  0  0
   33.0586   50.2023   18.5468 H   0  0  0  0  0  0  0  0  0  0  0  0
   28.3984   52.2710   13.2320 N   0  0  0  0  0  0  0  0  0  0  0  0
   28.6494   53.0837   14.4080 C   0  0  0  0  0  0  0  0  0  0  0  0
   29.1685   51.1630   12.7485 C   0  0  0  0  0  0  0  0  0  0  0  0
   30.3354   50.8158   13.5287 C   0  0  0  0  0  0  0  0  0  0  0  0
   30.6749   51.6262   14.7891 C   0  0  0  0  0  0  0  0  0  0  0  0
   29.8133   52.7706   15.2205 C   0  0  0  0  0  0  0  0  0  0  0  0
   35.6802   51.3661   15.0451 N   0  0  0  0  0  0  0  0  0  0  0  0
   35.8544   49.2066   14.1046 O   0  0  0  0  0  0  0  0  0  0  0  0
   36.2745   50.3388   14.3413 C   0  0  0  0  0  0  0  0  0  0  0  0
   36.1586   52.2190   15.1588 H   0  0  0  0  0  0  0  0  0  0  0  0
   37.6418   50.7387   13.8307 C   0  0  0  0  0  0  0  0  0  0  0  0
   38.3998   51.6023   14.7659 C   0  0  0  0  0  0  0  0  0  0  0  0
   39.7427   52.0653   14.3675 C   0  0  0  0  0  0  0  0  0  0  0  0
   40.3171   51.6452   13.0641 C   0  0  0  0  0  0  0  0  0  0  0  0
   39.5694   50.7607   12.1406 C   0  0  0  0  0  0  0  0  0  0  0  0
   38.2185   50.3082   12.5078 C   0  0  0  0  0  0  0  0  0  0  0  0
 19 20  2  0  0  0
 19 24  1  0  0  0
 19 17  1  0  0  0
  9 10  2  0  0  0
  9 11  1  0  0  0
  1  7  2  0  0  0
 20 21  1  0  0  0
 15 17  1  0  0  0
 15  6  1  0  0  0
 16 17  2  0  0  0
 21 22  2  0  0  0
  2  3  1  0  0  0
  2  7  1  0  0  0
 22 23  1  0  0  0
 23 24  2  0  0  0
  3  4  2  0  0  0
  4  5  1  0  0  0
  4 13  1  0  0  0
  5  6  2  0  0  0
  6  7  1  0  0  0
 10 14  1  0  0  0
 11 12  2  0  0  0
 12 13  1  0  0  0
 13 14  2  0  0  0
 15 18  1  0  0  0
  2  8  1  0  0  0
M  END
> <minimizedAffinity>
-7.30783

$$$$
