4Z07_PCG_A_401
  RCSB PDB12061716323D
Coordinates from PDB:4Z07:A:401 Model:1 without hydrogens
 23 26  0  0  0  0            999 V2000
   25.9040  -21.9010  -27.5290   P 0  0  0  0  0  0  0  0  0  0  0  0
   25.0040  -23.0690  -26.8030   O 0  0  0  0  0  0  0  0  0  0  0  0
   26.1440  -22.0020  -28.9630   O 0  0  0  0  0  0  0  0  0  0  0  0
   25.1600  -20.5930  -27.2600   O 0  0  0  0  0  0  0  0  0  0  0  0
   24.9860  -20.4560  -25.7420   C 0  0  0  0  0  0  0  0  0  0  0  0
   26.3270  -20.1890  -25.1650   C 0  0  0  0  0  0  0  0  0  0  0  0
   26.5650  -19.8220  -23.7900   O 0  0  0  0  0  0  0  0  0  0  0  0
   27.1830  -21.4220  -25.3110   C 0  0  0  0  0  0  0  0  0  0  0  0
   27.3240  -21.8830  -26.6970   O 0  0  0  0  0  0  0  0  0  0  0  0
   28.4640  -21.1260  -24.5610   C 0  0  0  0  0  0  0  0  0  0  0  0
   29.5400  -20.8110  -25.3730   O 0  0  0  0  0  0  0  0  0  0  0  0
   27.9780  -20.1060  -23.5090   C 0  0  0  0  0  0  0  0  0  0  0  0
   28.1000  -20.6180  -22.1170   N 0  0  0  0  0  0  0  0  0  0  0  0
   28.7590  -19.9530  -20.9860   C 0  0  0  0  0  0  0  0  0  0  0  0
   28.7550  -20.8870  -19.8700   N 0  0  0  0  0  0  0  0  0  0  0  0
   27.8540  -21.9900  -20.2480   C 0  0  0  0  0  0  0  0  0  0  0  0
   27.3360  -23.1590  -19.4620   C 0  0  0  0  0  0  0  0  0  0  0  0
   27.7410  -23.3080  -18.1380   O 0  0  0  0  0  0  0  0  0  0  0  0
   26.4710  -24.0660  -20.0390   N 0  0  0  0  0  0  0  0  0  0  0  0
   26.0720  -23.9060  -21.3890   C 0  0  0  0  0  0  0  0  0  0  0  0
   25.1950  -24.8920  -22.0000   N 0  0  0  0  0  0  0  0  0  0  0  0
   26.5840  -22.7370  -22.1900   N 0  0  0  0  0  0  0  0  0  0  0  0
   27.4470  -21.8350  -21.6000   C 0  0  0  0  0  0  0  0  0  0  0  0
  1  2  1  0  0  0  0
  1  3  2  0  0  0  0
  1  4  1  0  0  0  0
  1  9  1  0  0  0  0
  4  5  1  0  0  0  0
  5  6  1  0  0  0  0
  6  7  1  0  0  0  0
  6  8  1  0  0  0  0
  7 12  1  0  0  0  0
  8  9  1  0  0  0  0
  8 10  1  0  0  0  0
 10 11  1  0  0  0  0
 10 12  1  0  0  0  0
 12 13  1  0  0  0  0
 13 14  1  0  0  0  0
 13 23  1  0  0  0  0
 14 15  2  0  0  0  0
 15 16  1  0  0  0  0
 16 17  1  0  0  0  0
 16 23  2  0  0  0  0
 17 18  2  0  0  0  0
 17 19  1  0  0  0  0
 19 20  1  0  0  0  0
 20 21  1  0  0  0  0
 20 22  2  0  0  0  0
 22 23  1  0  0  0  0
A    1
PA
A    2
O1A
A    3
O2A
A    4
O5'
A    5
C5'
A    6
C4'
A    7
O4'
A    8
C3'
A    9
O3'
A   10
C2'
A   11
O2'
A   12
C1'
A   13
N9
A   14
C8
A   15
N7
A   16
C5
A   17
C6
A   18
O6
A   19
N1
A   20
C2
A   21
N2
A   22
N3
A   23
C4
M  END
>  <InstanceId>
4Z07_PCG_A_401

>  <ChemCompId>
PCG

>  <PdbId>
4Z07

>  <ChainId>
A

>  <ResidueNumber>
401

>  <InsertionCode>


>  <Model>
1

>  <AltIds>


>  <MissingHeavyAtoms>
0

>  <ObservedFormula>
C10 N5 O7 P

>  <Name>
CYCLIC GUANOSINE MONOPHOSPHATE

>  <SystematicName>
2-amino-9-[(4R,6S,7R,8R)-4,7-dihydroxy-4-oxo-3,5,9-trioxa-4$l^{5}-phosphabicyclo[4.3.0]nonan-8-yl]-1H-purin-6-one

>  <Synonyms>


>  <Type>
NON-POLYMER

>  <Formula>
C10 H12 N5 O7 P

>  <MolecularWeight>
345.205

>  <ModifiedDate>
2011-06-04

>  <Parent>


>  <OneLetterCode>


>  <SubcomponentList>


>  <AmbiguousFlag>
N

>  <InChI>
InChI=1S/C10H12N5O7P/c11-10-13-7-4(8(17)14-10)12-2-15(7)9-5(16)6-3(21-9)1-20-23(18,19)22-6/h2-3,5-6,9,16H,1H2,(H,18,19)(H3,11,13,14,17)/t3-,5-,6-,9-/m1/s1

>  <InChIKey>
ZOOGRGPOEVQQDX-UUOKFMHZSA-N

>  <SMILES>
c1nc2c(n1[C@H]3[C@@H]([C@H]4C(O3)CO[P@](=O)(O4)O)O)N=C(NC2=O)N

$$$$
