2GZL_2AA_A_901
  RCSB PDB12061705443D
Coordinates from PDB:2GZL:A:901 Model:1 without hydrogens
 44 47  0  0  0  0            999 V2000
    2.0430   21.1520   38.9010   C 0  0  0  0  0  0  0  0  0  0  0  0
    3.2500   20.9920   38.3810   N 0  0  0  0  0  0  0  0  0  0  0  0
    4.3100   21.3390   39.0950   C 0  0  0  0  0  0  0  0  0  0  0  0
    3.3870   20.4910   37.1420   C 0  0  0  0  0  0  0  0  0  0  0  0
    3.1060   21.3230   36.0560   C 0  0  0  0  0  0  0  0  0  0  0  0
    3.2310   20.8520   34.7520   C 0  0  0  0  0  0  0  0  0  0  0  0
    3.6350   19.5390   34.5250   C 0  0  0  0  0  0  0  0  0  0  0  0
    3.9210   18.6770   35.5890   C 0  0  0  0  0  0  0  0  0  0  0  0
    3.7930   19.1610   36.9080   C 0  0  0  0  0  0  0  0  0  0  0  0
    4.0760   18.3050   37.9800   C 0  0  0  0  0  0  0  0  0  0  0  0
    4.4790   16.9910   37.7530   C 0  0  0  0  0  0  0  0  0  0  0  0
    4.6070   16.5170   36.4490   C 0  0  0  0  0  0  0  0  0  0  0  0
    4.3310   17.3450   35.3560   C 0  0  0  0  0  0  0  0  0  0  0  0
    4.5090   16.6820   33.8120   S 0  0  0  0  0  0  0  0  0  0  0  0
    3.9250   15.2930   33.7970   O 0  0  0  0  0  0  0  0  0  0  0  0
    3.8010   17.5150   32.7840   O 0  0  0  0  0  0  0  0  0  0  0  0
    6.1170   16.5780   33.4340   N 0  0  0  0  0  0  0  0  0  0  0  0
    6.3820   16.8480   32.0100   C 0  0  0  0  0  0  0  0  0  0  0  0
    5.9900   15.6310   31.1720   C 0  0  0  0  0  0  0  0  0  0  0  0
    7.1550   14.8740   30.8370   O 0  0  0  0  0  0  0  0  0  0  0  0
    7.6500   14.7930   29.2970   P 0  0  0  0  0  0  0  0  0  0  0  0
    6.7500   15.6350   28.4650   O 0  0  0  0  0  0  0  0  0  0  0  0
    9.1180   15.0230   29.2310   O 0  0  0  0  0  0  0  0  0  0  0  0
    7.3720   13.2060   28.9570   O 0  0  0  0  0  0  0  0  0  0  0  0
    8.5080   12.0420   28.8410   P 0  0  0  0  0  0  0  0  0  0  0  0
    7.8000   10.7440   28.8520   O 0  0  0  0  0  0  0  0  0  0  0  0
    9.4520   12.3280   27.7470   O 0  0  0  0  0  0  0  0  0  0  0  0
    9.3160   12.1810   30.2210   O 0  0  0  0  0  0  0  0  0  0  0  0
    8.9290   11.4290   31.3920   C 0  0  0  0  0  0  0  0  0  0  0  0
   10.1370   11.0050   32.2330   C 0  0  0  0  0  0  0  0  0  0  0  0
   10.4520    9.6410   31.9150   O 0  0  0  0  0  0  0  0  0  0  0  0
   11.3670   11.8100   31.8230   C 0  0  0  0  0  0  0  0  0  0  0  0
   11.4500   12.9790   32.6340   O 0  0  0  0  0  0  0  0  0  0  0  0
   12.5080   10.8680   32.1440   C 0  0  0  0  0  0  0  0  0  0  0  0
   12.9120   11.0640   33.4930   O 0  0  0  0  0  0  0  0  0  0  0  0
   11.8800    9.4760   32.0220   C 0  0  0  0  0  0  0  0  0  0  0  0
   12.2910    8.7070   30.8180   N 0  0  0  0  0  0  0  0  0  0  0  0
   11.9230    9.0820   29.5070   C 0  0  0  0  0  0  0  0  0  0  0  0
   12.3470    8.2880   28.4430   C 0  0  0  0  0  0  0  0  0  0  0  0
   13.1070    7.1480   28.6980   C 0  0  0  0  0  0  0  0  0  0  0  0
   13.5230    6.3730   27.7000   N 0  0  0  0  0  0  0  0  0  0  0  0
   13.4360    6.8090   29.9500   N 0  0  0  0  0  0  0  0  0  0  0  0
   13.0570    7.5510   30.9980   C 0  0  0  0  0  0  0  0  0  0  0  0
   13.3880    7.2080   32.1250   O 0  0  0  0  0  0  0  0  0  0  0  0
  1  2  1  0  0  0  0
  2  3  1  0  0  0  0
  2  4  1  0  0  0  0
  4  5  2  0  0  0  0
  4  9  1  0  0  0  0
  5  6  1  0  0  0  0
  6  7  2  0  0  0  0
  7  8  1  0  0  0  0
  8  9  2  0  0  0  0
  8 13  1  0  0  0  0
  9 10  1  0  0  0  0
 10 11  2  0  0  0  0
 11 12  1  0  0  0  0
 12 13  2  0  0  0  0
 13 14  1  0  0  0  0
 14 15  2  0  0  0  0
 14 16  2  0  0  0  0
 14 17  1  0  0  0  0
 17 18  1  0  0  0  0
 18 19  1  0  0  0  0
 19 20  1  0  0  0  0
 20 21  1  0  0  0  0
 21 22  2  0  0  0  0
 21 23  1  0  0  0  0
 21 24  1  0  0  0  0
 24 25  1  0  0  0  0
 25 26  2  0  0  0  0
 25 27  1  0  0  0  0
 25 28  1  0  0  0  0
 28 29  1  0  0  0  0
 29 30  1  0  0  0  0
 30 31  1  0  0  0  0
 30 32  1  0  0  0  0
 31 36  1  0  0  0  0
 32 33  1  0  0  0  0
 32 34  1  0  0  0  0
 34 35  1  0  0  0  0
 34 36  1  0  0  0  0
 36 37  1  0  0  0  0
 37 38  1  0  0  0  0
 37 43  1  0  0  0  0
 38 39  2  0  0  0  0
 39 40  1  0  0  0  0
 40 41  1  0  0  0  0
 40 42  2  0  0  0  0
 42 43  1  0  0  0  0
 43 44  2  0  0  0  0
A    1
C13
A    2
N5
A    3
C12
A    4
C11
A    5
C10
A    6
C9'
A    7
C8'
A    8
C7'
A    9
C6'
A   10
C5'
A   11
C4'
A   12
C3'
A   13
C2'
A   14
S1
A   15
O3'
A   16
O4'
A   17
N4
A   18
C1'
A   19
C9
A   20
O2'
A   21
P2
A   22
O1'
A   23
O9
A   24
O8
A   25
P1
A   26
O7
A   27
O6
A   28
O5
A   29
C14
A   30
C8
A   31
O2
A   32
C7
A   33
O4
A   34
C6
A   35
O3
A   36
C5
A   37
N3
A   38
C4
A   39
C3
A   40
C2
A   41
N2
A   42
N1
A   43
C1
A   44
O1
M  END
>  <InstanceId>
2GZL_2AA_A_901

>  <ChemCompId>
2AA

>  <PdbId>
2GZL

>  <ChainId>
A

>  <ResidueNumber>
901

>  <InsertionCode>


>  <Model>
1

>  <AltIds>


>  <MissingHeavyAtoms>
0

>  <ObservedFormula>
C23 N5 O13 P2 S

>  <Name>
5'-O-{[({[2-({[5-(DIMETHYLAMINO)NAPHTHALEN-1-YL]SULFONYL}AMINO)ETHYL]OXY}PHOSPHINATO)OXY]PHOSPHINATO}CYT

>  <SystematicName>
[[(2R,3S,4R,5R)-5-(4-amino-2-oxo-pyrimidin-1-yl)-3,4-dihydroxy-oxolan-2-yl]methoxy-hydroxy-phosphoryl] 2-[(5-dimethylaminonaphthalen-1-yl)sulfonylamino]ethyl hydrogen phosphate

>  <Synonyms>


>  <Type>
NON-POLYMER

>  <Formula>
C23 H31 N5 O13 P2 S

>  <MolecularWeight>
679.53

>  <ModifiedDate>
2012-01-05

>  <Parent>


>  <OneLetterCode>


>  <SubcomponentList>


>  <AmbiguousFlag>
N

>  <InChI>
InChI=1S/C23H31N5O13P2S/c1-27(2)16-7-3-6-15-14(16)5-4-8-18(15)44(36,37)25-10-12-38-42(32,33)41-43(34,35)39-13-17-20(29)21(30)22(40-17)28-11-9-19(24)26-23(28)31/h3-9,11,17,20-22,25,29-30H,10,12-13H2,1-2H3,(H,32,33)(H,34,35)(H2,24,26,31)/t17-,20-,21-,22-/m1/s1

>  <InChIKey>
OXPWLEWKRGQJQO-BRKWEVRTSA-N

>  <SMILES>
CN(C)c1cccc2c1cccc2S(=O)(=O)NCCO[P@@](=O)(O)O[P@@](=O)(O)OC[C@@H]3[C@H]([C@H]([C@@H](O3)N4C=CC(=NC4=O)N)O)O

$$$$
