2GZL_2AA_A_901


 51 54  0  0  0  0  0  0  0  0999 V2000
    7.3029   12.9530   28.8969 O   0  0  0  0  0  0  0  0  0  0  0  0
    6.4171   14.3395   28.9638 P   0  0  0  0  0  0  0  0  0  0  0  0
    5.0172   14.0440   28.5588 O   0  0  0  0  0  0  0  0  0  0  0  0
    7.1701   15.3970   28.2379 O   0  0  0  0  0  0  0  0  0  0  0  0
    6.6679   16.2265   28.2628 H   0  0  0  0  0  0  0  0  0  0  0  0
    6.4402   14.6487   30.5535 O   0  0  0  0  0  0  0  0  0  0  0  0
    7.2595   15.7034   31.0623 C   0  0  0  0  0  0  0  0  0  0  0  0
    6.3821   16.8560   31.5508 C   0  0  0  0  0  0  0  0  0  0  0  0
    6.4160   16.9182   33.0225 N   0  0  0  0  0  0  0  0  0  0  0  0
    7.2389   16.4137   33.3521 H   0  0  0  0  0  0  0  0  0  0  0  0
    5.0707   16.2503   33.7180 S   0  0  0  0  0  0  0  0  0  0  0  0
    5.3681   14.8096   34.0441 O   0  0  0  0  0  0  0  0  0  0  0  0
    3.9242   16.3002   32.7510 O   0  0  0  0  0  0  0  0  0  0  0  0
    3.4189   20.3506   36.4227 C   0  0  0  0  0  0  0  0  0  0  0  0
    3.2149   21.0299   35.2195 C   0  0  0  0  0  0  0  0  0  0  0  0
    3.5003   20.4167   34.0028 C   0  0  0  0  0  0  0  0  0  0  0  0
    3.9890   19.1131   33.9814 C   0  0  0  0  0  0  0  0  0  0  0  0
    4.2017   18.4018   35.1670 C   0  0  0  0  0  0  0  0  0  0  0  0
    3.9112   19.0295   36.3967 C   0  0  0  0  0  0  0  0  0  0  0  0
    4.1198   18.3249   37.5891 C   0  0  0  0  0  0  0  0  0  0  0  0
    4.6076   17.0202   37.5677 C   0  0  0  0  0  0  0  0  0  0  0  0
    4.8961   16.4042   36.3517 C   0  0  0  0  0  0  0  0  0  0  0  0
    4.6980   17.0790   35.1426 C   0  0  0  0  0  0  0  0  0  0  0  0
    4.0342   21.0666   38.5313 C   0  0  0  0  0  0  0  0  0  0  0  0
    3.1271   20.9852   37.5703 N   0  0  0  0  0  0  0  0  0  0  0  0
    1.9349   21.5289   37.7623 C   0  0  0  0  0  0  0  0  0  0  0  0
    8.9307   12.8611   28.8734 P   0  0  0  0  0  0  0  0  0  0  0  0
    9.2836   11.6244   28.1439 O   0  0  0  0  0  0  0  0  0  0  0  0
    9.5287   14.1364   28.4423 O   0  0  0  0  0  0  0  0  0  0  0  0
    9.3187   14.2926   27.5082 H   0  0  0  0  0  0  0  0  0  0  0  0
    9.3074   12.6527   30.4197 O   0  0  0  0  0  0  0  0  0  0  0  0
    8.9507   11.4397   31.1183 C   0  0  0  0  0  0  0  0  0  0  0  0
   10.0773   10.9443   32.0303 C   0  0  0  0  0  0  0  0  0  0  0  0
   10.3860    9.5892   31.6708 O   0  0  0  0  0  0  0  0  0  0  0  0
   11.3541   11.7351   31.7595 C   0  0  0  0  0  0  0  0  0  0  0  0
   11.3979   12.8615   32.6317 O   0  0  0  0  0  0  0  0  0  0  0  0
   12.4441   10.7490   32.1227 C   0  0  0  0  0  0  0  0  0  0  0  0
   12.7426   10.8696   33.5075 O   0  0  0  0  0  0  0  0  0  0  0  0
   11.7967    9.3815   31.8822 C   0  0  0  0  0  0  0  0  0  0  0  0
   11.3243   12.5614   33.5512 H   0  0  0  0  0  0  0  0  0  0  0  0
   11.9337   10.7346   34.0256 H   0  0  0  0  0  0  0  0  0  0  0  0
   12.2858    8.6603   30.6778 N   0  0  0  0  0  0  0  0  0  0  0  0
   11.9555    9.0542   29.3623 C   0  0  0  0  0  0  0  0  0  0  0  0
   12.4530    8.3050   28.2977 C   0  0  0  0  0  0  0  0  0  0  0  0
   13.2473    7.1893   28.5559 C   0  0  0  0  0  0  0  0  0  0  0  0
   13.7334    6.4571   27.5574 N   0  0  0  0  0  0  0  0  0  0  0  0
   13.5395    6.8314   29.8118 N   0  0  0  0  0  0  0  0  0  0  0  0
   13.0897    7.5309   30.8610 C   0  0  0  0  0  0  0  0  0  0  0  0
   13.3891    7.1723   31.9920 O   0  0  0  0  0  0  0  0  0  0  0  0
   13.5320    6.7006   26.6250 H   0  0  0  0  0  0  0  0  0  0  0  0
   14.2944    5.6715   27.7507 H   0  0  0  0  0  0  0  0  0  0  0  0
 24 25  1  0  0  0
 25 26  1  0  0  0
 25 14  1  0  0  0
 14 15  2  0  0  0
 14 19  1  0  0  0
 15 16  1  0  0  0
 16 17  2  0  0  0
 17 18  1  0  0  0
 18 19  2  0  0  0
 18 23  1  0  0  0
 19 20  1  0  0  0
 20 21  2  0  0  0
 21 22  1  0  0  0
 22 23  2  0  0  0
 23 11  1  0  0  0
 11 12  2  0  0  0
 11 13  2  0  0  0
 11  9  1  0  0  0
  9  8  1  0  0  0
  8  7  1  0  0  0
  7  6  1  0  0  0
  6  2  1  0  0  0
  2  3  2  0  0  0
  2  4  1  0  0  0
  2  1  1  0  0  0
  1 27  1  0  0  0
 27 28  2  0  0  0
 27 29  1  0  0  0
 27 31  1  0  0  0
 31 32  1  0  0  0
 32 33  1  0  0  0
 33 34  1  0  0  0
 33 35  1  0  0  0
 34 39  1  0  0  0
 35 36  1  0  0  0
 35 37  1  0  0  0
 37 38  1  0  0  0
 37 39  1  0  0  0
 39 42  1  0  0  0
 42 43  1  0  0  0
 42 48  1  0  0  0
 43 44  2  0  0  0
 44 45  1  0  0  0
 45 46  1  0  0  0
 45 47  2  0  0  0
 47 48  1  0  0  0
 48 49  2  0  0  0
  9 10  1  0  0  0
  4  5  1  0  0  0
 29 30  1  0  0  0
 36 40  1  0  0  0
 38 41  1  0  0  0
 46 50  1  0  0  0
 46 51  1  0  0  0
M  END
> <minimizedAffinity>
-11.95767

$$$$
2GZL_2AA_A_901


 51 54  0  0  0  0  0  0  0  0999 V2000
    7.9401   13.5452   29.4542 O   0  0  0  0  0  0  0  0  0  0  0  0
    6.9156   14.5314   28.6240 P   0  0  0  0  0  0  0  0  0  0  0  0
    6.1272   13.7167   27.6617 O   0  0  0  0  0  0  0  0  0  0  0  0
    7.7052   15.6847   28.1154 O   0  0  0  0  0  0  0  0  0  0  0  0
    7.1228   16.2825   27.6212 H   0  0  0  0  0  0  0  0  0  0  0  0
    5.9298   15.0271   29.8096 O   0  0  0  0  0  0  0  0  0  0  0  0
    6.3877   15.9905   30.7608 C   0  0  0  0  0  0  0  0  0  0  0  0
    6.9461   15.2810   31.9944 C   0  0  0  0  0  0  0  0  0  0  0  0
    6.0362   14.1947   32.3981 N   0  0  0  0  0  0  0  0  0  0  0  0
    5.0953   14.4192   32.0746 H   0  0  0  0  0  0  0  0  0  0  0  0
    5.9951   13.9768   34.0383 S   0  0  0  0  0  0  0  0  0  0  0  0
    7.2961   13.3499   34.4686 O   0  0  0  0  0  0  0  0  0  0  0  0
    4.8704   13.0503   34.3970 O   0  0  0  0  0  0  0  0  0  0  0  0
    3.3020   18.1319   35.5672 C   0  0  0  0  0  0  0  0  0  0  0  0
    2.1670   17.5869   34.9628 C   0  0  0  0  0  0  0  0  0  0  0  0
    2.2329   16.3597   34.3090 C   0  0  0  0  0  0  0  0  0  0  0  0
    3.4384   15.6647   34.2592 C   0  0  0  0  0  0  0  0  0  0  0  0
    4.5940   16.1791   34.8569 C   0  0  0  0  0  0  0  0  0  0  0  0
    4.5203   17.4236   35.5172 C   0  0  0  0  0  0  0  0  0  0  0  0
    5.6717   17.9463   36.1197 C   0  0  0  0  0  0  0  0  0  0  0  0
    6.8776   17.2504   36.0710 C   0  0  0  0  0  0  0  0  0  0  0  0
    6.9475   16.0228   35.4157 C   0  0  0  0  0  0  0  0  0  0  0  0
    5.8162   15.4719   34.8048 C   0  0  0  0  0  0  0  0  0  0  0  0
    2.9775   19.3655   37.4934 C   0  0  0  0  0  0  0  0  0  0  0  0
    3.1866   19.3183   36.1870 N   0  0  0  0  0  0  0  0  0  0  0  0
    3.2713   20.4516   35.5070 C   0  0  0  0  0  0  0  0  0  0  0  0
    9.3022   12.8704   28.8640 P   0  0  0  0  0  0  0  0  0  0  0  0
    9.0241   12.4895   27.4627 O   0  0  0  0  0  0  0  0  0  0  0  0
   10.4787   13.7084   29.1531 O   0  0  0  0  0  0  0  0  0  0  0  0
   10.4213   14.5326   28.6449 H   0  0  0  0  0  0  0  0  0  0  0  0
    9.4473   11.5249   29.7272 O   0  0  0  0  0  0  0  0  0  0  0  0
    9.0335   11.4767   31.1103 C   0  0  0  0  0  0  0  0  0  0  0  0
   10.1374   10.9393   32.0263 C   0  0  0  0  0  0  0  0  0  0  0  0
   10.4242    9.5863   31.6418 O   0  0  0  0  0  0  0  0  0  0  0  0
   11.4332   11.7100   31.7899 C   0  0  0  0  0  0  0  0  0  0  0  0
   11.4873   12.8163   32.6867 O   0  0  0  0  0  0  0  0  0  0  0  0
   12.4983   10.6946   32.1462 C   0  0  0  0  0  0  0  0  0  0  0  0
   12.7800   10.7796   33.5372 O   0  0  0  0  0  0  0  0  0  0  0  0
   11.8274    9.3459   31.8676 C   0  0  0  0  0  0  0  0  0  0  0  0
   11.3949   12.4983   33.5984 H   0  0  0  0  0  0  0  0  0  0  0  0
   11.9615   10.6499   34.0413 H   0  0  0  0  0  0  0  0  0  0  0  0
   12.3187    8.6409   30.6545 N   0  0  0  0  0  0  0  0  0  0  0  0
   12.0156    9.0701   29.3435 C   0  0  0  0  0  0  0  0  0  0  0  0
   12.5127    8.3338   28.2697 C   0  0  0  0  0  0  0  0  0  0  0  0
   13.2799    7.1964   28.5144 C   0  0  0  0  0  0  0  0  0  0  0  0
   13.7651    6.4759   27.5068 N   0  0  0  0  0  0  0  0  0  0  0  0
   13.5466    6.8052   29.7660 N   0  0  0  0  0  0  0  0  0  0  0  0
   13.0963    7.4910   30.8240 C   0  0  0  0  0  0  0  0  0  0  0  0
   13.3718    7.1017   31.9509 O   0  0  0  0  0  0  0  0  0  0  0  0
   13.5823    6.7438   26.5773 H   0  0  0  0  0  0  0  0  0  0  0  0
   14.3069    5.6747   27.6907 H   0  0  0  0  0  0  0  0  0  0  0  0
 24 25  1  0  0  0
 25 26  1  0  0  0
 25 14  1  0  0  0
 14 15  2  0  0  0
 14 19  1  0  0  0
 15 16  1  0  0  0
 16 17  2  0  0  0
 17 18  1  0  0  0
 18 19  2  0  0  0
 18 23  1  0  0  0
 19 20  1  0  0  0
 20 21  2  0  0  0
 21 22  1  0  0  0
 22 23  2  0  0  0
 23 11  1  0  0  0
 11 12  2  0  0  0
 11 13  2  0  0  0
 11  9  1  0  0  0
  9  8  1  0  0  0
  8  7  1  0  0  0
  7  6  1  0  0  0
  6  2  1  0  0  0
  2  3  2  0  0  0
  2  4  1  0  0  0
  2  1  1  0  0  0
  1 27  1  0  0  0
 27 28  2  0  0  0
 27 29  1  0  0  0
 27 31  1  0  0  0
 31 32  1  0  0  0
 32 33  1  0  0  0
 33 34  1  0  0  0
 33 35  1  0  0  0
 34 39  1  0  0  0
 35 36  1  0  0  0
 35 37  1  0  0  0
 37 38  1  0  0  0
 37 39  1  0  0  0
 39 42  1  0  0  0
 42 43  1  0  0  0
 42 48  1  0  0  0
 43 44  2  0  0  0
 44 45  1  0  0  0
 45 46  1  0  0  0
 45 47  2  0  0  0
 47 48  1  0  0  0
 48 49  2  0  0  0
  9 10  1  0  0  0
  4  5  1  0  0  0
 29 30  1  0  0  0
 36 40  1  0  0  0
 38 41  1  0  0  0
 46 50  1  0  0  0
 46 51  1  0  0  0
M  END
> <minimizedAffinity>
-11.72915

$$$$
2GZL_2AA_A_901


 51 54  0  0  0  0  0  0  0  0999 V2000
    7.3572   13.2300   29.1481 O   0  0  0  0  0  0  0  0  0  0  0  0
    7.6664   14.8070   29.5069 P   0  0  0  0  0  0  0  0  0  0  0  0
    6.9578   15.6772   28.5312 O   0  0  0  0  0  0  0  0  0  0  0  0
    9.1369   14.9571   29.6722 O   0  0  0  0  0  0  0  0  0  0  0  0
    9.3459   15.8802   29.8847 H   0  0  0  0  0  0  0  0  0  0  0  0
    6.9395   14.9481   30.9473 O   0  0  0  0  0  0  0  0  0  0  0  0
    5.6365   15.5287   31.0340 C   0  0  0  0  0  0  0  0  0  0  0  0
    5.7250   16.9164   31.6693 C   0  0  0  0  0  0  0  0  0  0  0  0
    4.5383   17.1559   32.5090 N   0  0  0  0  0  0  0  0  0  0  0  0
    4.1481   18.0678   32.2710 H   0  0  0  0  0  0  0  0  0  0  0  0
    4.8894   17.1352   34.1263 S   0  0  0  0  0  0  0  0  0  0  0  0
    6.3872   17.1021   34.2885 O   0  0  0  0  0  0  0  0  0  0  0  0
    4.3081   15.9023   34.7540 O   0  0  0  0  0  0  0  0  0  0  0  0
    3.7402   20.1419   38.1877 C   0  0  0  0  0  0  0  0  0  0  0  0
    4.2615   19.1583   39.0310 C   0  0  0  0  0  0  0  0  0  0  0  0
    4.7802   17.9778   38.5063 C   0  0  0  0  0  0  0  0  0  0  0  0
    4.7850   17.7748   37.1288 C   0  0  0  0  0  0  0  0  0  0  0  0
    4.2744   18.7401   36.2545 C   0  0  0  0  0  0  0  0  0  0  0  0
    3.7496   19.9339   36.7930 C   0  0  0  0  0  0  0  0  0  0  0  0
    3.2371   20.9070   35.9256 C   0  0  0  0  0  0  0  0  0  0  0  0
    3.2431   20.7045   34.5473 C   0  0  0  0  0  0  0  0  0  0  0  0
    3.7597   19.5232   34.0190 C   0  0  0  0  0  0  0  0  0  0  0  0
    4.2802   18.5317   34.8570 C   0  0  0  0  0  0  0  0  0  0  0  0
    4.0509   22.0615   39.4351 C   0  0  0  0  0  0  0  0  0  0  0  0
    3.2525   21.2641   38.7425 N   0  0  0  0  0  0  0  0  0  0  0  0
    1.9743   21.5859   38.6144 C   0  0  0  0  0  0  0  0  0  0  0  0
    8.4603   12.1241   28.6800 P   0  0  0  0  0  0  0  0  0  0  0  0
    7.7420   10.8435   28.5061 O   0  0  0  0  0  0  0  0  0  0  0  0
    9.2854   12.6331   27.5711 O   0  0  0  0  0  0  0  0  0  0  0  0
    8.7373   12.7251   26.7761 H   0  0  0  0  0  0  0  0  0  0  0  0
    9.4126   11.9911   29.9653 O   0  0  0  0  0  0  0  0  0  0  0  0
    8.9575   11.3311   31.1669 C   0  0  0  0  0  0  0  0  0  0  0  0
   10.1211   10.8639   32.0468 C   0  0  0  0  0  0  0  0  0  0  0  0
   10.4497    9.5149   31.6818 O   0  0  0  0  0  0  0  0  0  0  0  0
   11.3713   11.6824   31.7370 C   0  0  0  0  0  0  0  0  0  0  0  0
   11.4151   12.8121   32.6048 O   0  0  0  0  0  0  0  0  0  0  0  0
   12.4933   10.7221   32.0706 C   0  0  0  0  0  0  0  0  0  0  0  0
   12.8292   10.8537   33.4459 O   0  0  0  0  0  0  0  0  0  0  0  0
   11.8702    9.3397   31.8525 C   0  0  0  0  0  0  0  0  0  0  0  0
   11.3750   12.5134   33.5267 H   0  0  0  0  0  0  0  0  0  0  0  0
   12.0390   10.7022   33.9876 H   0  0  0  0  0  0  0  0  0  0  0  0
   12.3401    8.6259   30.6361 N   0  0  0  0  0  0  0  0  0  0  0  0
   12.0305    9.0570   29.3273 C   0  0  0  0  0  0  0  0  0  0  0  0
   12.5071    8.3121   28.2501 C   0  0  0  0  0  0  0  0  0  0  0  0
   13.2609    7.1647   28.4896 C   0  0  0  0  0  0  0  0  0  0  0  0
   13.7265    6.4359   27.4788 N   0  0  0  0  0  0  0  0  0  0  0  0
   13.5342    6.7720   29.7393 N   0  0  0  0  0  0  0  0  0  0  0  0
   13.1035    7.4658   30.8003 C   0  0  0  0  0  0  0  0  0  0  0  0
   13.3844    7.0747   31.9252 O   0  0  0  0  0  0  0  0  0  0  0  0
   13.5385    6.7047   26.5505 H   0  0  0  0  0  0  0  0  0  0  0  0
   14.2590    5.6276   27.6589 H   0  0  0  0  0  0  0  0  0  0  0  0
 24 25  1  0  0  0
 25 26  1  0  0  0
 25 14  1  0  0  0
 14 15  2  0  0  0
 14 19  1  0  0  0
 15 16  1  0  0  0
 16 17  2  0  0  0
 17 18  1  0  0  0
 18 19  2  0  0  0
 18 23  1  0  0  0
 19 20  1  0  0  0
 20 21  2  0  0  0
 21 22  1  0  0  0
 22 23  2  0  0  0
 23 11  1  0  0  0
 11 12  2  0  0  0
 11 13  2  0  0  0
 11  9  1  0  0  0
  9  8  1  0  0  0
  8  7  1  0  0  0
  7  6  1  0  0  0
  6  2  1  0  0  0
  2  3  2  0  0  0
  2  4  1  0  0  0
  2  1  1  0  0  0
  1 27  1  0  0  0
 27 28  2  0  0  0
 27 29  1  0  0  0
 27 31  1  0  0  0
 31 32  1  0  0  0
 32 33  1  0  0  0
 33 34  1  0  0  0
 33 35  1  0  0  0
 34 39  1  0  0  0
 35 36  1  0  0  0
 35 37  1  0  0  0
 37 38  1  0  0  0
 37 39  1  0  0  0
 39 42  1  0  0  0
 42 43  1  0  0  0
 42 48  1  0  0  0
 43 44  2  0  0  0
 44 45  1  0  0  0
 45 46  1  0  0  0
 45 47  2  0  0  0
 47 48  1  0  0  0
 48 49  2  0  0  0
  9 10  1  0  0  0
  4  5  1  0  0  0
 29 30  1  0  0  0
 36 40  1  0  0  0
 38 41  1  0  0  0
 46 50  1  0  0  0
 46 51  1  0  0  0
M  END
> <minimizedAffinity>
-11.64014

$$$$
2GZL_2AA_A_901


 51 54  0  0  0  0  0  0  0  0999 V2000
    7.4326   13.2051   29.0717 O   0  0  0  0  0  0  0  0  0  0  0  0
    6.7858   14.3789   28.1151 P   0  0  0  0  0  0  0  0  0  0  0  0
    6.8655   13.9488   26.6939 O   0  0  0  0  0  0  0  0  0  0  0  0
    7.3947   15.6768   28.5112 O   0  0  0  0  0  0  0  0  0  0  0  0
    7.0291   16.3869   27.9607 H   0  0  0  0  0  0  0  0  0  0  0  0
    5.2346   14.3411   28.5796 O   0  0  0  0  0  0  0  0  0  0  0  0
    4.6680   13.1252   29.0726 C   0  0  0  0  0  0  0  0  0  0  0  0
    4.6161   13.1558   30.6001 C   0  0  0  0  0  0  0  0  0  0  0  0
    4.1456   14.4756   31.0558 N   0  0  0  0  0  0  0  0  0  0  0  0
    4.0114   15.0740   30.2408 H   0  0  0  0  0  0  0  0  0  0  0  0
    5.2142   15.2111   32.0836 S   0  0  0  0  0  0  0  0  0  0  0  0
    6.0421   16.1890   31.2906 O   0  0  0  0  0  0  0  0  0  0  0  0
    6.1262   14.1825   32.6854 O   0  0  0  0  0  0  0  0  0  0  0  0
    4.8266   17.9133   36.4886 C   0  0  0  0  0  0  0  0  0  0  0  0
    6.2128   17.8248   36.6349 C   0  0  0  0  0  0  0  0  0  0  0  0
    6.9832   17.1531   35.6899 C   0  0  0  0  0  0  0  0  0  0  0  0
    6.3702   16.5672   34.5855 C   0  0  0  0  0  0  0  0  0  0  0  0
    4.9848   16.6396   34.4053 C   0  0  0  0  0  0  0  0  0  0  0  0
    4.2099   17.3213   35.3672 C   0  0  0  0  0  0  0  0  0  0  0  0
    2.8221   17.4002   35.1948 C   0  0  0  0  0  0  0  0  0  0  0  0
    2.2088   16.8151   34.0893 C   0  0  0  0  0  0  0  0  0  0  0  0
    2.9769   16.1404   33.1425 C   0  0  0  0  0  0  0  0  0  0  0  0
    4.3651   16.0441   33.2837 C   0  0  0  0  0  0  0  0  0  0  0  0
    4.5772   18.6293   38.6709 C   0  0  0  0  0  0  0  0  0  0  0  0
    4.1275   18.5734   37.4269 N   0  0  0  0  0  0  0  0  0  0  0  0
    2.9824   19.1680   37.1287 C   0  0  0  0  0  0  0  0  0  0  0  0
    8.4451   12.0249   28.5811 P   0  0  0  0  0  0  0  0  0  0  0  0
    7.6434   10.7879   28.4646 O   0  0  0  0  0  0  0  0  0  0  0  0
    9.2508   12.4614   27.4278 O   0  0  0  0  0  0  0  0  0  0  0  0
    8.6754   12.5724   26.6548 H   0  0  0  0  0  0  0  0  0  0  0  0
    9.4424   11.8572   29.8276 O   0  0  0  0  0  0  0  0  0  0  0  0
    8.9712   11.3602   31.0994 C   0  0  0  0  0  0  0  0  0  0  0  0
   10.1180   10.8790   31.9937 C   0  0  0  0  0  0  0  0  0  0  0  0
   10.4354    9.5265   31.6319 O   0  0  0  0  0  0  0  0  0  0  0  0
   11.3815   11.6830   31.7003 C   0  0  0  0  0  0  0  0  0  0  0  0
   11.4275   12.8117   32.5693 O   0  0  0  0  0  0  0  0  0  0  0  0
   12.4880   10.7096   32.0475 C   0  0  0  0  0  0  0  0  0  0  0  0
   12.8079   10.8365   33.4269 O   0  0  0  0  0  0  0  0  0  0  0  0
   11.8516    9.3346   31.8205 C   0  0  0  0  0  0  0  0  0  0  0  0
   11.3722   12.5130   33.4905 H   0  0  0  0  0  0  0  0  0  0  0  0
   12.0092   10.6939   33.9586 H   0  0  0  0  0  0  0  0  0  0  0  0
   12.3285    8.6161   30.6097 N   0  0  0  0  0  0  0  0  0  0  0  0
   11.9894    9.0159   29.2983 C   0  0  0  0  0  0  0  0  0  0  0  0
   12.4757    8.2688   28.2271 C   0  0  0  0  0  0  0  0  0  0  0  0
   13.2680    7.1493   28.4750 C   0  0  0  0  0  0  0  0  0  0  0  0
   13.7435    6.4189   27.4700 N   0  0  0  0  0  0  0  0  0  0  0  0
   13.5688    6.7858   29.7272 N   0  0  0  0  0  0  0  0  0  0  0  0
   13.1298    7.4831   30.7825 C   0  0  0  0  0  0  0  0  0  0  0  0
   13.4367    7.1192   31.9098 O   0  0  0  0  0  0  0  0  0  0  0  0
   13.5358    6.6667   26.5401 H   0  0  0  0  0  0  0  0  0  0  0  0
   14.3032    5.6307   27.6562 H   0  0  0  0  0  0  0  0  0  0  0  0
 24 25  1  0  0  0
 25 26  1  0  0  0
 25 14  1  0  0  0
 14 15  2  0  0  0
 14 19  1  0  0  0
 15 16  1  0  0  0
 16 17  2  0  0  0
 17 18  1  0  0  0
 18 19  2  0  0  0
 18 23  1  0  0  0
 19 20  1  0  0  0
 20 21  2  0  0  0
 21 22  1  0  0  0
 22 23  2  0  0  0
 23 11  1  0  0  0
 11 12  2  0  0  0
 11 13  2  0  0  0
 11  9  1  0  0  0
  9  8  1  0  0  0
  8  7  1  0  0  0
  7  6  1  0  0  0
  6  2  1  0  0  0
  2  3  2  0  0  0
  2  4  1  0  0  0
  2  1  1  0  0  0
  1 27  1  0  0  0
 27 28  2  0  0  0
 27 29  1  0  0  0
 27 31  1  0  0  0
 31 32  1  0  0  0
 32 33  1  0  0  0
 33 34  1  0  0  0
 33 35  1  0  0  0
 34 39  1  0  0  0
 35 36  1  0  0  0
 35 37  1  0  0  0
 37 38  1  0  0  0
 37 39  1  0  0  0
 39 42  1  0  0  0
 42 43  1  0  0  0
 42 48  1  0  0  0
 43 44  2  0  0  0
 44 45  1  0  0  0
 45 46  1  0  0  0
 45 47  2  0  0  0
 47 48  1  0  0  0
 48 49  2  0  0  0
  9 10  1  0  0  0
  4  5  1  0  0  0
 29 30  1  0  0  0
 36 40  1  0  0  0
 38 41  1  0  0  0
 46 50  1  0  0  0
 46 51  1  0  0  0
M  END
> <minimizedAffinity>
-11.41459

$$$$
2GZL_2AA_A_901


 51 54  0  0  0  0  0  0  0  0999 V2000
    5.5845   10.3221   32.2776 O   0  0  0  0  0  0  0  0  0  0  0  0
    4.9942   11.8051   32.6822 P   0  0  0  0  0  0  0  0  0  0  0  0
    3.6476   11.6442   33.2922 O   0  0  0  0  0  0  0  0  0  0  0  0
    5.1493   12.6953   31.5008 O   0  0  0  0  0  0  0  0  0  0  0  0
    4.8078   13.5779   31.7140 H   0  0  0  0  0  0  0  0  0  0  0  0
    6.0354   12.2506   33.8400 O   0  0  0  0  0  0  0  0  0  0  0  0
    6.4445   13.6161   33.9433 C   0  0  0  0  0  0  0  0  0  0  0  0
    5.4063   14.4132   34.7330 C   0  0  0  0  0  0  0  0  0  0  0  0
    5.1988   13.7906   36.0521 N   0  0  0  0  0  0  0  0  0  0  0  0
    5.1935   12.7771   35.9380 H   0  0  0  0  0  0  0  0  0  0  0  0
    3.7736   14.2525   36.7557 S   0  0  0  0  0  0  0  0  0  0  0  0
    4.0119   14.4494   38.2305 O   0  0  0  0  0  0  0  0  0  0  0  0
    2.7464   13.1740   36.5720 O   0  0  0  0  0  0  0  0  0  0  0  0
    3.6490   19.4167   36.3412 C   0  0  0  0  0  0  0  0  0  0  0  0
    4.5662   19.4975   37.3913 C   0  0  0  0  0  0  0  0  0  0  0  0
    5.0430   18.3430   38.0058 C   0  0  0  0  0  0  0  0  0  0  0  0
    4.6072   17.0948   37.5689 C   0  0  0  0  0  0  0  0  0  0  0  0
    3.6921   16.9765   36.5175 C   0  0  0  0  0  0  0  0  0  0  0  0
    3.2124   18.1506   35.8997 C   0  0  0  0  0  0  0  0  0  0  0  0
    2.2968   18.0423   34.8452 C   0  0  0  0  0  0  0  0  0  0  0  0
    1.8616   16.7935   34.4073 C   0  0  0  0  0  0  0  0  0  0  0  0
    2.3354   15.6360   35.0214 C   0  0  0  0  0  0  0  0  0  0  0  0
    3.2512   15.7086   36.0761 C   0  0  0  0  0  0  0  0  0  0  0  0
    3.4833   20.8123   34.5076 C   0  0  0  0  0  0  0  0  0  0  0  0
    3.2200   20.5595   35.7802 N   0  0  0  0  0  0  0  0  0  0  0  0
    2.5388   21.4493   36.4860 C   0  0  0  0  0  0  0  0  0  0  0  0
    6.9756   10.0350   31.4767 P   0  0  0  0  0  0  0  0  0  0  0  0
    8.0595   10.0256   32.4822 O   0  0  0  0  0  0  0  0  0  0  0  0
    6.8379    8.8836   30.5685 O   0  0  0  0  0  0  0  0  0  0  0  0
    6.7299    8.0723   31.0890 H   0  0  0  0  0  0  0  0  0  0  0  0
    7.1507   11.3459   30.5670 O   0  0  0  0  0  0  0  0  0  0  0  0
    7.7470   11.2692   29.2536 C   0  0  0  0  0  0  0  0  0  0  0  0
    7.1336   12.2796   28.2794 C   0  0  0  0  0  0  0  0  0  0  0  0
    6.0885   12.9880   28.9626 O   0  0  0  0  0  0  0  0  0  0  0  0
    8.1659   13.3407   27.9089 C   0  0  0  0  0  0  0  0  0  0  0  0
    8.8653   12.9218   26.7399 O   0  0  0  0  0  0  0  0  0  0  0  0
    7.3094   14.5506   27.6013 C   0  0  0  0  0  0  0  0  0  0  0  0
    6.9401   14.5264   26.2285 O   0  0  0  0  0  0  0  0  0  0  0  0
    6.0506   14.3337   28.4472 C   0  0  0  0  0  0  0  0  0  0  0  0
    8.2297   12.7451   26.0288 H   0  0  0  0  0  0  0  0  0  0  0  0
    6.4869   13.6920   26.0303 H   0  0  0  0  0  0  0  0  0  0  0  0
    5.9340   15.2200   29.6349 N   0  0  0  0  0  0  0  0  0  0  0  0
    7.0561   15.6988   30.3466 C   0  0  0  0  0  0  0  0  0  0  0  0
    6.8429   16.5147   31.4562 C   0  0  0  0  0  0  0  0  0  0  0  0
    5.5394   16.8255   31.8388 C   0  0  0  0  0  0  0  0  0  0  0  0
    5.3093   17.6013   32.8948 N   0  0  0  0  0  0  0  0  0  0  0  0
    4.4921   16.3528   31.1530 N   0  0  0  0  0  0  0  0  0  0  0  0
    4.6552   15.5748   30.0757 C   0  0  0  0  0  0  0  0  0  0  0  0
    3.6690   15.1721   29.4735 O   0  0  0  0  0  0  0  0  0  0  0  0
    6.0637   17.9610   33.4151 H   0  0  0  0  0  0  0  0  0  0  0  0
    4.3846   17.8157   33.1559 H   0  0  0  0  0  0  0  0  0  0  0  0
 24 25  1  0  0  0
 25 26  1  0  0  0
 25 14  1  0  0  0
 14 15  2  0  0  0
 14 19  1  0  0  0
 15 16  1  0  0  0
 16 17  2  0  0  0
 17 18  1  0  0  0
 18 19  2  0  0  0
 18 23  1  0  0  0
 19 20  1  0  0  0
 20 21  2  0  0  0
 21 22  1  0  0  0
 22 23  2  0  0  0
 23 11  1  0  0  0
 11 12  2  0  0  0
 11 13  2  0  0  0
 11  9  1  0  0  0
  9  8  1  0  0  0
  8  7  1  0  0  0
  7  6  1  0  0  0
  6  2  1  0  0  0
  2  3  2  0  0  0
  2  4  1  0  0  0
  2  1  1  0  0  0
  1 27  1  0  0  0
 27 28  2  0  0  0
 27 29  1  0  0  0
 27 31  1  0  0  0
 31 32  1  0  0  0
 32 33  1  0  0  0
 33 34  1  0  0  0
 33 35  1  0  0  0
 34 39  1  0  0  0
 35 36  1  0  0  0
 35 37  1  0  0  0
 37 38  1  0  0  0
 37 39  1  0  0  0
 39 42  1  0  0  0
 42 43  1  0  0  0
 42 48  1  0  0  0
 43 44  2  0  0  0
 44 45  1  0  0  0
 45 46  1  0  0  0
 45 47  2  0  0  0
 47 48  1  0  0  0
 48 49  2  0  0  0
  9 10  1  0  0  0
  4  5  1  0  0  0
 29 30  1  0  0  0
 36 40  1  0  0  0
 38 41  1  0  0  0
 46 50  1  0  0  0
 46 51  1  0  0  0
M  END
> <minimizedAffinity>
-11.13445

$$$$
2GZL_2AA_A_901


 51 54  0  0  0  0  0  0  0  0999 V2000
    6.9909   11.9397   28.8563 O   0  0  0  0  0  0  0  0  0  0  0  0
    7.9273   12.7637   27.7813 P   0  0  0  0  0  0  0  0  0  0  0  0
    7.1338   13.0395   26.5543 O   0  0  0  0  0  0  0  0  0  0  0  0
    9.2213   12.0410   27.6562 O   0  0  0  0  0  0  0  0  0  0  0  0
    9.7928   12.5078   27.0266 H   0  0  0  0  0  0  0  0  0  0  0  0
    8.1570   14.1585   28.5719 O   0  0  0  0  0  0  0  0  0  0  0  0
    7.1021   15.1201   28.6414 C   0  0  0  0  0  0  0  0  0  0  0  0
    7.0366   15.7219   30.0452 C   0  0  0  0  0  0  0  0  0  0  0  0
    6.9106   14.6451   31.0429 N   0  0  0  0  0  0  0  0  0  0  0  0
    6.9359   13.7471   30.5596 H   0  0  0  0  0  0  0  0  0  0  0  0
    5.5032   14.7421   31.9084 S   0  0  0  0  0  0  0  0  0  0  0  0
    5.1187   13.3538   32.3503 O   0  0  0  0  0  0  0  0  0  0  0  0
    4.4114   15.2919   31.0379 O   0  0  0  0  0  0  0  0  0  0  0  0
    3.9033   17.6555   35.8844 C   0  0  0  0  0  0  0  0  0  0  0  0
    2.5833   17.4141   35.4970 C   0  0  0  0  0  0  0  0  0  0  0  0
    2.3048   16.6246   34.3847 C   0  0  0  0  0  0  0  0  0  0  0  0
    3.3489   16.0654   33.6526 C   0  0  0  0  0  0  0  0  0  0  0  0
    4.6825   16.2833   34.0143 C   0  0  0  0  0  0  0  0  0  0  0  0
    4.9578   17.0850   35.1421 C   0  0  0  0  0  0  0  0  0  0  0  0
    6.2900   17.3079   35.5127 C   0  0  0  0  0  0  0  0  0  0  0  0
    7.3346   16.7475   34.7811 C   0  0  0  0  0  0  0  0  0  0  0  0
    7.0593   15.9584   33.6662 C   0  0  0  0  0  0  0  0  0  0  0  0
    5.7403   15.7148   33.2696 C   0  0  0  0  0  0  0  0  0  0  0  0
    4.4721   17.8653   38.1137 C   0  0  0  0  0  0  0  0  0  0  0  0
    4.1200   18.4229   36.9656 N   0  0  0  0  0  0  0  0  0  0  0  0
    3.9789   19.7383   36.9050 C   0  0  0  0  0  0  0  0  0  0  0  0
    7.2828   10.4381   29.4209 P   0  0  0  0  0  0  0  0  0  0  0  0
    6.2705   10.1635   30.4631 O   0  0  0  0  0  0  0  0  0  0  0  0
    7.4451    9.4773   28.3163 O   0  0  0  0  0  0  0  0  0  0  0  0
    6.5970    9.3633   27.8596 H   0  0  0  0  0  0  0  0  0  0  0  0
    8.7101   10.5890   30.1397 O   0  0  0  0  0  0  0  0  0  0  0  0
    8.8738   11.4231   31.3076 C   0  0  0  0  0  0  0  0  0  0  0  0
   10.0776   11.0017   32.1558 C   0  0  0  0  0  0  0  0  0  0  0  0
   10.4061    9.6428   31.8297 O   0  0  0  0  0  0  0  0  0  0  0  0
   11.3048   11.8195   31.7632 C   0  0  0  0  0  0  0  0  0  0  0  0
   11.3715   12.9826   32.5843 O   0  0  0  0  0  0  0  0  0  0  0  0
   12.4503   10.8839   32.0868 C   0  0  0  0  0  0  0  0  0  0  0  0
   12.8408   11.0721   33.4408 O   0  0  0  0  0  0  0  0  0  0  0  0
   11.8343    9.4881   31.9481 C   0  0  0  0  0  0  0  0  0  0  0  0
   11.3726   12.7196   33.5179 H   0  0  0  0  0  0  0  0  0  0  0  0
   12.0753   10.9342   34.0203 H   0  0  0  0  0  0  0  0  0  0  0  0
   12.2619    8.7320   30.7416 N   0  0  0  0  0  0  0  0  0  0  0  0
   11.8900    9.1061   29.4315 C   0  0  0  0  0  0  0  0  0  0  0  0
   12.3308    8.3246   28.3649 C   0  0  0  0  0  0  0  0  0  0  0  0
   13.1109    7.1976   28.6167 C   0  0  0  0  0  0  0  0  0  0  0  0
   13.5432    6.4347   27.6162 N   0  0  0  0  0  0  0  0  0  0  0  0
   13.4433    6.8591   29.8679 N   0  0  0  0  0  0  0  0  0  0  0  0
   13.0485    7.5894   30.9183 C   0  0  0  0  0  0  0  0  0  0  0  0
   13.3833    7.2475   32.0445 O   0  0  0  0  0  0  0  0  0  0  0  0
   13.3115    6.6636   26.6871 H   0  0  0  0  0  0  0  0  0  0  0  0
   14.0947    5.6414   27.8049 H   0  0  0  0  0  0  0  0  0  0  0  0
 24 25  1  0  0  0
 25 26  1  0  0  0
 25 14  1  0  0  0
 14 15  2  0  0  0
 14 19  1  0  0  0
 15 16  1  0  0  0
 16 17  2  0  0  0
 17 18  1  0  0  0
 18 19  2  0  0  0
 18 23  1  0  0  0
 19 20  1  0  0  0
 20 21  2  0  0  0
 21 22  1  0  0  0
 22 23  2  0  0  0
 23 11  1  0  0  0
 11 12  2  0  0  0
 11 13  2  0  0  0
 11  9  1  0  0  0
  9  8  1  0  0  0
  8  7  1  0  0  0
  7  6  1  0  0  0
  6  2  1  0  0  0
  2  3  2  0  0  0
  2  4  1  0  0  0
  2  1  1  0  0  0
  1 27  1  0  0  0
 27 28  2  0  0  0
 27 29  1  0  0  0
 27 31  1  0  0  0
 31 32  1  0  0  0
 32 33  1  0  0  0
 33 34  1  0  0  0
 33 35  1  0  0  0
 34 39  1  0  0  0
 35 36  1  0  0  0
 35 37  1  0  0  0
 37 38  1  0  0  0
 37 39  1  0  0  0
 39 42  1  0  0  0
 42 43  1  0  0  0
 42 48  1  0  0  0
 43 44  2  0  0  0
 44 45  1  0  0  0
 45 46  1  0  0  0
 45 47  2  0  0  0
 47 48  1  0  0  0
 48 49  2  0  0  0
  9 10  1  0  0  0
  4  5  1  0  0  0
 29 30  1  0  0  0
 36 40  1  0  0  0
 38 41  1  0  0  0
 46 50  1  0  0  0
 46 51  1  0  0  0
M  END
> <minimizedAffinity>
-10.95903

$$$$
2GZL_2AA_A_901


 51 54  0  0  0  0  0  0  0  0999 V2000
    4.3448   14.4499   31.1696 O   0  0  0  0  0  0  0  0  0  0  0  0
    4.2066   12.8676   31.6039 P   0  0  0  0  0  0  0  0  0  0  0  0
    5.4298   12.1366   31.1791 O   0  0  0  0  0  0  0  0  0  0  0  0
    2.8790   12.3822   31.1412 O   0  0  0  0  0  0  0  0  0  0  0  0
    2.7726   11.4495   31.3856 H   0  0  0  0  0  0  0  0  0  0  0  0
    4.2104   12.9855   33.2192 O   0  0  0  0  0  0  0  0  0  0  0  0
    5.4508   13.0607   33.9251 C   0  0  0  0  0  0  0  0  0  0  0  0
    5.4920   14.3321   34.7730 C   0  0  0  0  0  0  0  0  0  0  0  0
    5.3234   13.9873   36.1955 N   0  0  0  0  0  0  0  0  0  0  0  0
    5.5084   12.9913   36.3146 H   0  0  0  0  0  0  0  0  0  0  0  0
    3.7994   14.3139   36.7522 S   0  0  0  0  0  0  0  0  0  0  0  0
    3.8497   14.4021   38.2556 O   0  0  0  0  0  0  0  0  0  0  0  0
    2.8703   13.2011   36.3643 O   0  0  0  0  0  0  0  0  0  0  0  0
    3.6054   19.4890   36.5607 C   0  0  0  0  0  0  0  0  0  0  0  0
    4.4967   19.5367   37.6349 C   0  0  0  0  0  0  0  0  0  0  0  0
    4.9767   18.3631   38.2095 C   0  0  0  0  0  0  0  0  0  0  0  0
    4.5703   17.1293   37.7083 C   0  0  0  0  0  0  0  0  0  0  0  0
    3.6817   17.0443   36.6312 C   0  0  0  0  0  0  0  0  0  0  0  0
    3.1985   18.2375   36.0541 C   0  0  0  0  0  0  0  0  0  0  0  0
    2.3093   18.1627   34.9744 C   0  0  0  0  0  0  0  0  0  0  0  0
    1.9036   16.9283   34.4721 C   0  0  0  0  0  0  0  0  0  0  0  0
    2.3806   15.7517   35.0462 C   0  0  0  0  0  0  0  0  0  0  0  0
    3.2706   15.7910   36.1245 C   0  0  0  0  0  0  0  0  0  0  0  0
    3.3616   20.9109   34.7562 C   0  0  0  0  0  0  0  0  0  0  0  0
    3.1720   20.6492   36.0401 N   0  0  0  0  0  0  0  0  0  0  0  0
    2.5598   21.5472   36.7968 C   0  0  0  0  0  0  0  0  0  0  0  0
    4.0480   15.0619   29.6876 P   0  0  0  0  0  0  0  0  0  0  0  0
    3.8151   13.9145   28.7845 O   0  0  0  0  0  0  0  0  0  0  0  0
    3.0412   16.1353   29.7478 O   0  0  0  0  0  0  0  0  0  0  0  0
    2.1808   15.7585   29.9901 H   0  0  0  0  0  0  0  0  0  0  0  0
    5.4470   15.7379   29.2844 O   0  0  0  0  0  0  0  0  0  0  0  0
    6.6860   15.3084   29.8902 C   0  0  0  0  0  0  0  0  0  0  0  0
    7.6635   14.7310   28.8620 C   0  0  0  0  0  0  0  0  0  0  0  0
    8.9446   14.5804   29.4920 O   0  0  0  0  0  0  0  0  0  0  0  0
    7.2367   13.3188   28.4714 C   0  0  0  0  0  0  0  0  0  0  0  0
    6.3776   13.3892   27.3365 O   0  0  0  0  0  0  0  0  0  0  0  0
    8.5483   12.6628   28.0954 C   0  0  0  0  0  0  0  0  0  0  0  0
    8.8092   12.8932   26.7169 O   0  0  0  0  0  0  0  0  0  0  0  0
    9.5897   13.4247   28.9212 C   0  0  0  0  0  0  0  0  0  0  0  0
    6.8275   13.8624   26.6192 H   0  0  0  0  0  0  0  0  0  0  0  0
    8.8094   13.8474   26.5430 H   0  0  0  0  0  0  0  0  0  0  0  0
   10.1550   12.6673   30.0687 N   0  0  0  0  0  0  0  0  0  0  0  0
   10.3713   13.2480   31.3378 C   0  0  0  0  0  0  0  0  0  0  0  0
   10.9187   12.4584   32.3474 C   0  0  0  0  0  0  0  0  0  0  0  0
   11.2465   11.1308   32.0783 C   0  0  0  0  0  0  0  0  0  0  0  0
   11.7712   10.3567   33.0244 N   0  0  0  0  0  0  0  0  0  0  0  0
   11.0397   10.6057   30.8650 N   0  0  0  0  0  0  0  0  0  0  0  0
   10.5064   11.3282   29.8719 C   0  0  0  0  0  0  0  0  0  0  0  0
   10.3268   10.8045   28.7807 O   0  0  0  0  0  0  0  0  0  0  0  0
   11.9326   10.7206   33.9248 H   0  0  0  0  0  0  0  0  0  0  0  0
   11.9981    9.4199   32.8241 H   0  0  0  0  0  0  0  0  0  0  0  0
 24 25  1  0  0  0
 25 26  1  0  0  0
 25 14  1  0  0  0
 14 15  2  0  0  0
 14 19  1  0  0  0
 15 16  1  0  0  0
 16 17  2  0  0  0
 17 18  1  0  0  0
 18 19  2  0  0  0
 18 23  1  0  0  0
 19 20  1  0  0  0
 20 21  2  0  0  0
 21 22  1  0  0  0
 22 23  2  0  0  0
 23 11  1  0  0  0
 11 12  2  0  0  0
 11 13  2  0  0  0
 11  9  1  0  0  0
  9  8  1  0  0  0
  8  7  1  0  0  0
  7  6  1  0  0  0
  6  2  1  0  0  0
  2  3  2  0  0  0
  2  4  1  0  0  0
  2  1  1  0  0  0
  1 27  1  0  0  0
 27 28  2  0  0  0
 27 29  1  0  0  0
 27 31  1  0  0  0
 31 32  1  0  0  0
 32 33  1  0  0  0
 33 34  1  0  0  0
 33 35  1  0  0  0
 34 39  1  0  0  0
 35 36  1  0  0  0
 35 37  1  0  0  0
 37 38  1  0  0  0
 37 39  1  0  0  0
 39 42  1  0  0  0
 42 43  1  0  0  0
 42 48  1  0  0  0
 43 44  2  0  0  0
 44 45  1  0  0  0
 45 46  1  0  0  0
 45 47  2  0  0  0
 47 48  1  0  0  0
 48 49  2  0  0  0
  9 10  1  0  0  0
  4  5  1  0  0  0
 29 30  1  0  0  0
 36 40  1  0  0  0
 38 41  1  0  0  0
 46 50  1  0  0  0
 46 51  1  0  0  0
M  END
> <minimizedAffinity>
-10.94443

$$$$
2GZL_2AA_A_901


 51 54  0  0  0  0  0  0  0  0999 V2000
    6.8503   13.4555   29.5594 O   0  0  0  0  0  0  0  0  0  0  0  0
    7.0949   14.7129   28.5246 P   0  0  0  0  0  0  0  0  0  0  0  0
    6.4693   14.3945   27.2137 O   0  0  0  0  0  0  0  0  0  0  0  0
    8.5395   15.0646   28.5679 O   0  0  0  0  0  0  0  0  0  0  0  0
    8.7102   15.8050   27.9650 H   0  0  0  0  0  0  0  0  0  0  0  0
    6.2289   15.8795   29.2402 O   0  0  0  0  0  0  0  0  0  0  0  0
    6.4957   16.2332   30.5989 C   0  0  0  0  0  0  0  0  0  0  0  0
    5.2467   16.0084   31.4513 C   0  0  0  0  0  0  0  0  0  0  0  0
    4.8903   17.2553   32.1506 N   0  0  0  0  0  0  0  0  0  0  0  0
    5.4987   18.0028   31.8165 H   0  0  0  0  0  0  0  0  0  0  0  0
    5.0544   17.1321   33.7929 S   0  0  0  0  0  0  0  0  0  0  0  0
    6.5234   17.0636   34.1214 O   0  0  0  0  0  0  0  0  0  0  0  0
    4.3926   15.8741   34.2740 O   0  0  0  0  0  0  0  0  0  0  0  0
    3.7060   20.0195   37.8795 C   0  0  0  0  0  0  0  0  0  0  0  0
    4.2408   19.0381   38.7171 C   0  0  0  0  0  0  0  0  0  0  0  0
    4.8121   17.8863   38.1836 C   0  0  0  0  0  0  0  0  0  0  0  0
    4.8567   17.7100   36.8031 C   0  0  0  0  0  0  0  0  0  0  0  0
    4.3340   18.6740   35.9346 C   0  0  0  0  0  0  0  0  0  0  0  0
    3.7557   19.8387   36.4819 C   0  0  0  0  0  0  0  0  0  0  0  0
    3.2308   20.8102   35.6202 C   0  0  0  0  0  0  0  0  0  0  0  0
    3.2764   20.6346   34.2391 C   0  0  0  0  0  0  0  0  0  0  0  0
    3.8459   19.4819   33.7019 C   0  0  0  0  0  0  0  0  0  0  0  0
    4.3803   18.4927   34.5340 C   0  0  0  0  0  0  0  0  0  0  0  0
    1.8971   21.4155   38.2208 C   0  0  0  0  0  0  0  0  0  0  0  0
    3.1669   21.1136   38.4428 N   0  0  0  0  0  0  0  0  0  0  0  0
    3.8917   21.9068   39.2170 C   0  0  0  0  0  0  0  0  0  0  0  0
    6.1100   12.0494   29.1939 P   0  0  0  0  0  0  0  0  0  0  0  0
    4.8781   12.3896   28.4504 O   0  0  0  0  0  0  0  0  0  0  0  0
    7.0565   11.0891   28.6007 O   0  0  0  0  0  0  0  0  0  0  0  0
    7.3351   11.4071   27.7277 H   0  0  0  0  0  0  0  0  0  0  0  0
    5.6829   11.4768   30.6314 O   0  0  0  0  0  0  0  0  0  0  0  0
    5.5109   12.3561   31.7644 C   0  0  0  0  0  0  0  0  0  0  0  0
    5.9526   11.7018   33.0771 C   0  0  0  0  0  0  0  0  0  0  0  0
    7.0624   10.8350   32.7984 O   0  0  0  0  0  0  0  0  0  0  0  0
    6.4969   12.7613   34.0312 C   0  0  0  0  0  0  0  0  0  0  0  0
    5.4329   13.2433   34.8478 O   0  0  0  0  0  0  0  0  0  0  0  0
    7.4882   11.9820   34.8692 C   0  0  0  0  0  0  0  0  0  0  0  0
    6.8151   11.4172   35.9869 O   0  0  0  0  0  0  0  0  0  0  0  0
    7.9354   10.8447   33.9454 C   0  0  0  0  0  0  0  0  0  0  0  0
    5.0139   12.4981   35.3061 H   0  0  0  0  0  0  0  0  0  0  0  0
    6.0792   10.8666   35.6767 H   0  0  0  0  0  0  0  0  0  0  0  0
    9.3136   10.9818   33.4053 N   0  0  0  0  0  0  0  0  0  0  0  0
    9.6530   11.9133   32.3994 C   0  0  0  0  0  0  0  0  0  0  0  0
   10.9711   11.9568   31.9489 C   0  0  0  0  0  0  0  0  0  0  0  0
   11.9102   11.0803   32.4895 C   0  0  0  0  0  0  0  0  0  0  0  0
   13.1743   11.1012   32.0758 N   0  0  0  0  0  0  0  0  0  0  0  0
   11.5621   10.2009   33.4361 N   0  0  0  0  0  0  0  0  0  0  0  0
   10.3090   10.1348   33.9027 C   0  0  0  0  0  0  0  0  0  0  0  0
   10.0374    9.3210   34.7752 O   0  0  0  0  0  0  0  0  0  0  0  0
   13.4542   11.7394   31.3803 H   0  0  0  0  0  0  0  0  0  0  0  0
   13.8300   10.4784   32.4650 H   0  0  0  0  0  0  0  0  0  0  0  0
 24 25  1  0  0  0
 25 26  1  0  0  0
 25 14  1  0  0  0
 14 15  2  0  0  0
 14 19  1  0  0  0
 15 16  1  0  0  0
 16 17  2  0  0  0
 17 18  1  0  0  0
 18 19  2  0  0  0
 18 23  1  0  0  0
 19 20  1  0  0  0
 20 21  2  0  0  0
 21 22  1  0  0  0
 22 23  2  0  0  0
 23 11  1  0  0  0
 11 12  2  0  0  0
 11 13  2  0  0  0
 11  9  1  0  0  0
  9  8  1  0  0  0
  8  7  1  0  0  0
  7  6  1  0  0  0
  6  2  1  0  0  0
  2  3  2  0  0  0
  2  4  1  0  0  0
  2  1  1  0  0  0
  1 27  1  0  0  0
 27 28  2  0  0  0
 27 29  1  0  0  0
 27 31  1  0  0  0
 31 32  1  0  0  0
 32 33  1  0  0  0
 33 34  1  0  0  0
 33 35  1  0  0  0
 34 39  1  0  0  0
 35 36  1  0  0  0
 35 37  1  0  0  0
 37 38  1  0  0  0
 37 39  1  0  0  0
 39 42  1  0  0  0
 42 43  1  0  0  0
 42 48  1  0  0  0
 43 44  2  0  0  0
 44 45  1  0  0  0
 45 46  1  0  0  0
 45 47  2  0  0  0
 47 48  1  0  0  0
 48 49  2  0  0  0
  9 10  1  0  0  0
  4  5  1  0  0  0
 29 30  1  0  0  0
 36 40  1  0  0  0
 38 41  1  0  0  0
 46 50  1  0  0  0
 46 51  1  0  0  0
M  END
> <minimizedAffinity>
-10.55009

$$$$
2GZL_2AA_A_901


 51 54  0  0  0  0  0  0  0  0999 V2000
    8.4396   13.5067   29.3689 O   0  0  0  0  0  0  0  0  0  0  0  0
    9.3489   14.8653   29.5667 P   0  0  0  0  0  0  0  0  0  0  0  0
    9.9347   15.2550   28.2567 O   0  0  0  0  0  0  0  0  0  0  0  0
   10.2554   14.6425   30.7246 O   0  0  0  0  0  0  0  0  0  0  0  0
   10.8036   15.4309   30.8624 H   0  0  0  0  0  0  0  0  0  0  0  0
    8.2116   15.9471   29.9659 O   0  0  0  0  0  0  0  0  0  0  0  0
    7.1860   15.5924   30.8958 C   0  0  0  0  0  0  0  0  0  0  0  0
    6.5934   16.8534   31.5248 C   0  0  0  0  0  0  0  0  0  0  0  0
    6.5193   16.6924   32.9875 N   0  0  0  0  0  0  0  0  0  0  0  0
    7.1928   15.9814   33.2726 H   0  0  0  0  0  0  0  0  0  0  0  0
    5.0143   16.2333   33.5008 S   0  0  0  0  0  0  0  0  0  0  0  0
    5.0089   14.7377   33.6845 O   0  0  0  0  0  0  0  0  0  0  0  0
    3.9936   16.5963   32.4623 O   0  0  0  0  0  0  0  0  0  0  0  0
    3.4675   20.1886   36.4706 C   0  0  0  0  0  0  0  0  0  0  0  0
    3.2727   20.9473   35.3143 C   0  0  0  0  0  0  0  0  0  0  0  0
    3.5383   20.4065   34.0594 C   0  0  0  0  0  0  0  0  0  0  0  0
    3.9978   19.0965   33.9522 C   0  0  0  0  0  0  0  0  0  0  0  0
    4.2005   18.3068   35.0889 C   0  0  0  0  0  0  0  0  0  0  0  0
    3.9301   18.8613   36.3577 C   0  0  0  0  0  0  0  0  0  0  0  0
    4.1288   18.0779   37.5017 C   0  0  0  0  0  0  0  0  0  0  0  0
    4.5874   16.7669   37.3945 C   0  0  0  0  0  0  0  0  0  0  0  0
    4.8561   16.2232   36.1400 C   0  0  0  0  0  0  0  0  0  0  0  0
    4.6671   16.9777   34.9775 C   0  0  0  0  0  0  0  0  0  0  0  0
    1.9583   21.1283   37.9460 C   0  0  0  0  0  0  0  0  0  0  0  0
    3.1955   20.7551   37.6581 N   0  0  0  0  0  0  0  0  0  0  0  0
    4.1530   20.9558   38.5507 C   0  0  0  0  0  0  0  0  0  0  0  0
    7.9425   12.8906   27.9434 P   0  0  0  0  0  0  0  0  0  0  0  0
    6.7829   13.6962   27.5048 O   0  0  0  0  0  0  0  0  0  0  0  0
    9.0748   12.7112   27.0184 O   0  0  0  0  0  0  0  0  0  0  0  0
    9.4196   13.5795   26.7573 H   0  0  0  0  0  0  0  0  0  0  0  0
    7.4121   11.4289   28.3421 O   0  0  0  0  0  0  0  0  0  0  0  0
    6.0637   11.2284   28.8195 C   0  0  0  0  0  0  0  0  0  0  0  0
    6.0287   10.7816   30.2843 C   0  0  0  0  0  0  0  0  0  0  0  0
    7.2202   10.0280   30.5549 O   0  0  0  0  0  0  0  0  0  0  0  0
    6.1023   11.9980   31.2030 C   0  0  0  0  0  0  0  0  0  0  0  0
    4.7797   12.4372   31.5011 O   0  0  0  0  0  0  0  0  0  0  0  0
    6.7617   11.4408   32.4468 C   0  0  0  0  0  0  0  0  0  0  0  0
    5.7617   10.9274   33.3173 O   0  0  0  0  0  0  0  0  0  0  0  0
    7.5996   10.2694   31.9245 C   0  0  0  0  0  0  0  0  0  0  0  0
    4.2733   11.7028   31.8823 H   0  0  0  0  0  0  0  0  0  0  0  0
    5.2350   10.2618   32.8478 H   0  0  0  0  0  0  0  0  0  0  0  0
    9.0665   10.5093   31.9030 N   0  0  0  0  0  0  0  0  0  0  0  0
    9.7523   10.9597   30.7534 C   0  0  0  0  0  0  0  0  0  0  0  0
   11.1318   11.1427   30.8294 C   0  0  0  0  0  0  0  0  0  0  0  0
   11.7955   10.8681   32.0238 C   0  0  0  0  0  0  0  0  0  0  0  0
   13.1118   11.0335   32.1217 N   0  0  0  0  0  0  0  0  0  0  0  0
   11.1245   10.4343   33.0971 N   0  0  0  0  0  0  0  0  0  0  0  0
    9.7979   10.2559   33.0676 C   0  0  0  0  0  0  0  0  0  0  0  0
    9.2240    9.8660   34.0756 O   0  0  0  0  0  0  0  0  0  0  0  0
   13.6271   11.3517   31.3455 H   0  0  0  0  0  0  0  0  0  0  0  0
   13.5707   10.8378   32.9704 H   0  0  0  0  0  0  0  0  0  0  0  0
 24 25  1  0  0  0
 25 26  1  0  0  0
 25 14  1  0  0  0
 14 15  2  0  0  0
 14 19  1  0  0  0
 15 16  1  0  0  0
 16 17  2  0  0  0
 17 18  1  0  0  0
 18 19  2  0  0  0
 18 23  1  0  0  0
 19 20  1  0  0  0
 20 21  2  0  0  0
 21 22  1  0  0  0
 22 23  2  0  0  0
 23 11  1  0  0  0
 11 12  2  0  0  0
 11 13  2  0  0  0
 11  9  1  0  0  0
  9  8  1  0  0  0
  8  7  1  0  0  0
  7  6  1  0  0  0
  6  2  1  0  0  0
  2  3  2  0  0  0
  2  4  1  0  0  0
  2  1  1  0  0  0
  1 27  1  0  0  0
 27 28  2  0  0  0
 27 29  1  0  0  0
 27 31  1  0  0  0
 31 32  1  0  0  0
 32 33  1  0  0  0
 33 34  1  0  0  0
 33 35  1  0  0  0
 34 39  1  0  0  0
 35 36  1  0  0  0
 35 37  1  0  0  0
 37 38  1  0  0  0
 37 39  1  0  0  0
 39 42  1  0  0  0
 42 43  1  0  0  0
 42 48  1  0  0  0
 43 44  2  0  0  0
 44 45  1  0  0  0
 45 46  1  0  0  0
 45 47  2  0  0  0
 47 48  1  0  0  0
 48 49  2  0  0  0
  9 10  1  0  0  0
  4  5  1  0  0  0
 29 30  1  0  0  0
 36 40  1  0  0  0
 38 41  1  0  0  0
 46 50  1  0  0  0
 46 51  1  0  0  0
M  END
> <minimizedAffinity>
-10.28982

$$$$
2GZL_2AA_A_901


 51 54  0  0  0  0  0  0  0  0999 V2000
    5.1374    9.3572   30.7222 O   0  0  0  0  0  0  0  0  0  0  0  0
    5.0823   10.4708   31.9339 P   0  0  0  0  0  0  0  0  0  0  0  0
    4.1208   10.0144   32.9724 O   0  0  0  0  0  0  0  0  0  0  0  0
    4.8933   11.8097   31.3144 O   0  0  0  0  0  0  0  0  0  0  0  0
    4.8575   12.4854   32.0093 H   0  0  0  0  0  0  0  0  0  0  0  0
    6.5826   10.3551   32.5330 O   0  0  0  0  0  0  0  0  0  0  0  0
    6.8339   10.7016   33.8966 C   0  0  0  0  0  0  0  0  0  0  0  0
    7.5061   12.0727   33.9708 C   0  0  0  0  0  0  0  0  0  0  0  0
    6.7688   12.9383   34.9078 N   0  0  0  0  0  0  0  0  0  0  0  0
    6.2916   12.3494   35.5903 H   0  0  0  0  0  0  0  0  0  0  0  0
    5.6449   13.8860   34.1472 S   0  0  0  0  0  0  0  0  0  0  0  0
    4.3040   13.2054   34.2433 O   0  0  0  0  0  0  0  0  0  0  0  0
    6.0077   14.0365   32.6989 O   0  0  0  0  0  0  0  0  0  0  0  0
    3.2339   18.2256   35.6341 C   0  0  0  0  0  0  0  0  0  0  0  0
    2.0720   17.7625   35.0129 C   0  0  0  0  0  0  0  0  0  0  0  0
    2.0596   16.5328   34.3605 C   0  0  0  0  0  0  0  0  0  0  0  0
    3.2128   15.7531   34.3291 C   0  0  0  0  0  0  0  0  0  0  0  0
    4.3931   16.1842   34.9439 C   0  0  0  0  0  0  0  0  0  0  0  0
    4.3989   17.4317   35.6027 C   0  0  0  0  0  0  0  0  0  0  0  0
    5.5757   17.8713   36.2223 C   0  0  0  0  0  0  0  0  0  0  0  0
    6.7292   17.0908   36.1921 C   0  0  0  0  0  0  0  0  0  0  0  0
    6.7208   15.8604   35.5382 C   0  0  0  0  0  0  0  0  0  0  0  0
    5.5622   15.3912   34.9105 C   0  0  0  0  0  0  0  0  0  0  0  0
    3.2999   20.5332   35.5460 C   0  0  0  0  0  0  0  0  0  0  0  0
    3.1946   19.4180   36.2517 N   0  0  0  0  0  0  0  0  0  0  0  0
    3.0588   19.4984   37.5666 C   0  0  0  0  0  0  0  0  0  0  0  0
    5.1094    9.6833   29.1248 P   0  0  0  0  0  0  0  0  0  0  0  0
    5.6562    8.4973   28.4315 O   0  0  0  0  0  0  0  0  0  0  0  0
    3.7954   10.2055   28.7120 O   0  0  0  0  0  0  0  0  0  0  0  0
    3.1298    9.5041   28.7897 H   0  0  0  0  0  0  0  0  0  0  0  0
    6.1693   10.8797   28.9774 O   0  0  0  0  0  0  0  0  0  0  0  0
    5.9811   11.9282   28.0018 C   0  0  0  0  0  0  0  0  0  0  0  0
    6.4636   13.2888   28.5139 C   0  0  0  0  0  0  0  0  0  0  0  0
    7.0769   13.0964   29.7975 O   0  0  0  0  0  0  0  0  0  0  0  0
    7.5729   13.8227   27.6120 C   0  0  0  0  0  0  0  0  0  0  0  0
    6.9935   14.6249   26.5863 O   0  0  0  0  0  0  0  0  0  0  0  0
    8.3868   14.6846   28.5538 C   0  0  0  0  0  0  0  0  0  0  0  0
    7.8522   16.0020   28.5634 O   0  0  0  0  0  0  0  0  0  0  0  0
    8.1473   14.0528   29.9287 C   0  0  0  0  0  0  0  0  0  0  0  0
    6.4592   15.3275   26.9884 H   0  0  0  0  0  0  0  0  0  0  0  0
    6.9144   15.9686   28.8093 H   0  0  0  0  0  0  0  0  0  0  0  0
    9.3022   13.2962   30.4799 N   0  0  0  0  0  0  0  0  0  0  0  0
    9.8958   12.2061   29.8059 C   0  0  0  0  0  0  0  0  0  0  0  0
   10.9671   11.5519   30.4113 C   0  0  0  0  0  0  0  0  0  0  0  0
   11.4144   11.9787   31.6603 C   0  0  0  0  0  0  0  0  0  0  0  0
   12.4344   11.3703   32.2597 N   0  0  0  0  0  0  0  0  0  0  0  0
   10.8301   13.0091   32.2827 N   0  0  0  0  0  0  0  0  0  0  0  0
    9.8054   13.6701   31.7299 C   0  0  0  0  0  0  0  0  0  0  0  0
    9.3070   14.6123   32.3310 O   0  0  0  0  0  0  0  0  0  0  0  0
   12.8803   10.6098   31.8214 H   0  0  0  0  0  0  0  0  0  0  0  0
   12.7432   11.6805   33.1415 H   0  0  0  0  0  0  0  0  0  0  0  0
 24 25  1  0  0  0
 25 26  1  0  0  0
 25 14  1  0  0  0
 14 15  2  0  0  0
 14 19  1  0  0  0
 15 16  1  0  0  0
 16 17  2  0  0  0
 17 18  1  0  0  0
 18 19  2  0  0  0
 18 23  1  0  0  0
 19 20  1  0  0  0
 20 21  2  0  0  0
 21 22  1  0  0  0
 22 23  2  0  0  0
 23 11  1  0  0  0
 11 12  2  0  0  0
 11 13  2  0  0  0
 11  9  1  0  0  0
  9  8  1  0  0  0
  8  7  1  0  0  0
  7  6  1  0  0  0
  6  2  1  0  0  0
  2  3  2  0  0  0
  2  4  1  0  0  0
  2  1  1  0  0  0
  1 27  1  0  0  0
 27 28  2  0  0  0
 27 29  1  0  0  0
 27 31  1  0  0  0
 31 32  1  0  0  0
 32 33  1  0  0  0
 33 34  1  0  0  0
 33 35  1  0  0  0
 34 39  1  0  0  0
 35 36  1  0  0  0
 35 37  1  0  0  0
 37 38  1  0  0  0
 37 39  1  0  0  0
 39 42  1  0  0  0
 42 43  1  0  0  0
 42 48  1  0  0  0
 43 44  2  0  0  0
 44 45  1  0  0  0
 45 46  1  0  0  0
 45 47  2  0  0  0
 47 48  1  0  0  0
 48 49  2  0  0  0
  9 10  1  0  0  0
  4  5  1  0  0  0
 29 30  1  0  0  0
 36 40  1  0  0  0
 38 41  1  0  0  0
 46 50  1  0  0  0
 46 51  1  0  0  0
M  END
> <minimizedAffinity>
-10.15681

$$$$
