1MU8_CDB_B_248
  RCSB PDB12061703193D
Coordinates from PDB:1MU8:B:248 Model:1 without hydrogens
 32 34  0  0  0  0            999 V2000
   21.1780  -16.7010   25.4070   N 0  3  0  0  0  0  0  0  0  0  0  0
   20.0330  -16.0520   25.9220   C 0  0  0  0  0  0  0  0  0  0  0  0
   20.0650  -14.6260   26.2280   C 0  0  0  0  0  0  0  0  0  0  0  0
   21.3150  -13.9430   25.9570   C 0  0  0  0  0  0  0  0  0  0  0  0
   22.4530  -14.6530   25.3870   C 0  0  0  0  0  0  0  0  0  0  0  0
   22.3790  -16.0760   25.1120   C 0  0  0  0  0  0  0  0  0  0  0  0
   18.7470  -16.8750   26.0440   C 0  0  0  0  0  0  0  0  0  0  0  0
   18.1550  -17.2280   24.6820   C 0  0  0  0  0  0  0  0  0  0  0  0
   17.7800  -16.2900   26.7950   F 0  0  0  0  0  0  0  0  0  0  0  0
   19.0610  -18.0500   26.6110   F 0  0  0  0  0  0  0  0  0  0  0  0
   17.5530  -16.0680   23.9960   N 0  0  0  0  0  0  0  0  0  0  0  0
   18.1460  -15.3600   22.9720   C 0  0  0  0  0  0  0  0  0  0  0  0
   17.4540  -14.1250   22.4830   C 0  0  0  0  0  0  0  0  0  0  0  0
   18.1050  -13.4120   21.4820   N 0  0  0  0  0  0  0  0  0  0  0  0
   19.3510  -13.8850   20.9220   C 0  0  0  0  0  0  0  0  0  0  0  0
   19.9300  -15.0650   21.4330   C 0  0  0  0  0  0  0  0  0  0  0  0
   19.3360  -15.7330   22.4270   N 0  3  0  0  0  0  0  0  0  0  0  0
   16.3690  -13.7490   22.9310   O 0  0  0  0  0  0  0  0  0  0  0  0
   20.0650  -13.1800   19.8330   C 0  0  0  0  0  0  0  0  0  0  0  0
   17.4600  -12.1780   20.9700   C 0  0  0  0  0  0  0  0  0  0  0  0
   16.0350  -12.4860   20.5320   C 0  0  0  0  0  0  0  0  0  0  0  0
   15.0910  -11.5730   20.9010   N 0  0  0  0  0  0  0  0  0  0  0  0
   15.7950  -13.4930   19.8760   O 0  0  0  0  0  0  0  0  0  0  0  0
   13.6630  -11.7940   20.5840   C 0  0  0  0  0  0  0  0  0  0  0  0
   12.7380  -11.6840   21.7980   C 0  0  0  0  0  0  0  0  0  0  0  0
   12.8360  -10.5670   22.6690   C 0  0  0  0  0  0  0  0  0  0  0  0
   11.9870  -10.4830   23.8270   C 0  0  0  0  0  0  0  0  0  0  0  0
   11.0360  -11.5280   24.1130   C 0  0  0  0  0  0  0  0  0  0  0  0
   11.8020  -12.6630   22.0970   N 0  0  0  0  0  0  0  0  0  0  0  0
   13.7300   -9.6110   22.3840   F 0  0  0  0  0  0  0  0  0  0  0  0
   10.9610  -12.6350   23.1990   C 0  0  0  0  0  0  0  0  0  0  0  0
   12.0660   -9.3140   24.7450   C 0  0  0  0  0  0  0  0  0  0  0  0
  1  2  2  0  0  0  0
  1  6  1  0  0  0  0
  2  3  1  0  0  0  0
  2  7  1  0  0  0  0
  3  4  2  0  0  0  0
  4  5  1  0  0  0  0
  5  6  2  0  0  0  0
  7  8  1  0  0  0  0
  7  9  1  0  0  0  0
  7 10  1  0  0  0  0
  8 11  1  0  0  0  0
 11 12  1  0  0  0  0
 12 13  1  0  0  0  0
 12 17  2  0  0  0  0
 13 14  1  0  0  0  0
 13 18  2  0  0  0  0
 14 15  1  0  0  0  0
 14 20  1  0  0  0  0
 15 16  2  0  0  0  0
 15 19  1  0  0  0  0
 16 17  1  0  0  0  0
 20 21  1  0  0  0  0
 21 22  1  0  0  0  0
 21 23  2  0  0  0  0
 22 24  1  0  0  0  0
 24 25  1  0  0  0  0
 25 26  2  0  0  0  0
 25 29  1  0  0  0  0
 26 27  1  0  0  0  0
 26 30  1  0  0  0  0
 27 28  2  0  0  0  0
 27 32  1  0  0  0  0
 28 31  1  0  0  0  0
 29 31  2  0  0  0  0
M  CHG  2   1   1  17   1
A    1
N1
A    2
C2
A    3
C3
A    4
C4
A    5
C5
A    6
C6
A    7
C11
A    8
C12
A    9
F13
A   10
F1
A   11
N18
A   12
C21
A   13
C22
A   14
N23
A   15
C24
A   16
C25
A   17
N26
A   18
O28
A   19
C29
A   20
C33
A   21
C34
A   22
N37
A   23
O38
A   24
C39
A   25
C40
A   26
C43
A   27
C44
A   28
C45
A   29
N46
A   30
F47
A   31
C50
A   32
C1
M  END
>  <InstanceId>
1MU8_CDB_B_248

>  <ChemCompId>
CDB

>  <PdbId>
1MU8

>  <ChainId>
B

>  <ResidueNumber>
248

>  <InsertionCode>


>  <Model>
1

>  <AltIds>


>  <MissingHeavyAtoms>
0

>  <ObservedFormula>
C21 N6 O2 F3

>  <Name>
2-(6-CHLORO-3-{[2,2-DIFLUORO-2-(2-PYRIDINYL)ETHYL]AMINO}-2-OXO-1(2H)-PYRAZINYL)-N-[(2-FLUORO-3-METHYL-6-PYRIDINYL)METHYL]ACETAMIDE

>  <SystematicName>
2-[3-[(2,2-difluoro-2-pyridin-1-ium-2-yl-ethyl)amino]-6-methyl-2-oxo-pyrazin-4-ium-1-yl]-N-[(3-fluoro-4-methyl-pyridin-2-yl)methyl]ethanamide

>  <Synonyms>


>  <Type>
NON-POLYMER

>  <Formula>
C21 H23 F3 N6 O2

>  <MolecularWeight>
448.442

>  <ModifiedDate>
2011-06-04

>  <Parent>


>  <OneLetterCode>


>  <SubcomponentList>


>  <AmbiguousFlag>
N

>  <InChI>
InChI=1S/C21H21F3N6O2/c1-13-6-8-25-15(18(13)22)10-27-17(31)11-30-14(2)9-28-19(20(30)32)29-12-21(23,24)16-5-3-4-7-26-16/h3-9H,10-12H2,1-2H3,(H,27,31)(H,28,29)/p+2

>  <InChIKey>
WOYBPRBUPLYTPY-UHFFFAOYSA-P

>  <SMILES>
Cc1ccnc(c1F)CNC(=O)CN2C(=C[NH+]=C(C2=O)NCC(c3cccc[nH+]3)(F)F)C

$$$$
