2R75_01G_1_614


 47 50  0  0  0  0  0  0  0  0999 V2000
   -5.8963   -4.9123   14.6386 C   0  0  0  0  0  0  0  0  0  0  0  0
   -6.0358   -4.5316   13.1885 O   0  0  0  0  0  0  0  0  0  0  0  0
   -6.9167   -5.9846   14.8621 C   0  0  0  0  0  0  0  0  0  0  0  0
   -6.2426   -7.1897   15.2585 O   0  0  0  0  0  0  0  0  0  0  0  0
   -7.6866   -6.1021   13.5251 C   0  0  0  0  0  0  0  0  0  0  0  0
   -8.1332   -7.4106   13.2743 O   0  0  0  0  0  0  0  0  0  0  0  0
   -6.7066   -5.6596   12.5153 C   0  0  0  0  0  0  0  0  0  0  0  0
   -5.5933   -7.4349   14.5809 H   0  0  0  0  0  0  0  0  0  0  0  0
   -7.3740   -8.0141   13.2590 H   0  0  0  0  0  0  0  0  0  0  0  0
   -7.0199   -2.9017   15.7422 C   0  0  0  0  0  0  0  0  0  0  0  0
   -6.6319   -1.8755   16.4959 N   0  0  0  0  0  0  0  0  0  0  0  0
   -5.2956   -1.9984   16.6151 C   0  0  0  0  0  0  0  0  0  0  0  0
   -4.3435   -1.2806   17.3170 C   0  0  0  0  0  0  0  0  0  0  0  0
   -4.5903   -0.2055   17.9297 O   0  0  0  0  0  0  0  0  0  0  0  0
   -3.0809   -1.7394   17.2460 N   0  0  0  0  0  0  0  0  0  0  0  0
   -2.7164   -2.8323   16.5880 C   0  0  0  0  0  0  0  0  0  0  0  0
   -1.4071   -3.1537   16.6047 N   0  0  0  0  0  0  0  0  0  0  0  0
   -3.5916   -3.5557   15.9214 N   0  0  0  0  0  0  0  0  0  0  0  0
   -4.8855   -3.1443   15.9445 C   0  0  0  0  0  0  0  0  0  0  0  0
   -5.9576   -3.6992   15.3755 N   0  0  0  0  0  0  0  0  0  0  0  0
   -2.3802   -1.2300   17.7138 H   0  0  0  0  0  0  0  0  0  0  0  0
   -1.0912   -3.9562   16.1300 H   0  0  0  0  0  0  0  0  0  0  0  0
   -0.7670   -2.5859   17.0916 H   0  0  0  0  0  0  0  0  0  0  0  0
   -8.8147   -2.3586   14.3388 C   0  0  0  0  0  0  0  0  0  0  0  0
  -10.1773   -2.8664   14.0397 C   0  0  0  0  0  0  0  0  0  0  0  0
  -11.0926   -2.7328   15.1033 O   0  0  0  0  0  0  0  0  0  0  0  0
  -10.6797   -3.4950   16.2428 C   0  0  0  0  0  0  0  0  0  0  0  0
   -9.2430   -3.1660   16.6540 C   0  0  0  0  0  0  0  0  0  0  0  0
   -8.3056   -2.9861   15.5053 N   0  0  0  0  0  0  0  0  0  0  0  0
   -7.3474   -5.0913   11.2398 C   0  0  0  0  0  0  0  0  0  0  0  0
   -7.9433   -3.8666   11.5021 O   0  0  0  0  0  0  0  0  0  0  0  0
   -7.5820   -2.6059   10.6297 P   0  0  0  0  0  0  0  0  0  0  0  0
   -8.2063   -1.4087   11.2786 O   0  0  0  0  0  0  0  0  0  0  0  0
   -6.1214   -2.5304   10.3672 O   0  0  0  0  0  0  0  0  0  0  0  0
   -7.9992   -0.6153   10.7604 H   0  0  0  0  0  0  0  0  0  0  0  0
   -8.3634   -2.8959    9.2520 O   0  0  0  0  0  0  0  0  0  0  0  0
   -7.8078   -2.5470    7.7993 P   0  0  0  0  0  0  0  0  0  0  0  0
   -7.2436   -1.1701    7.8051 O   0  0  0  0  0  0  0  0  0  0  0  0
   -6.8941   -3.6032    7.3188 O   0  0  0  0  0  0  0  0  0  0  0  0
   -6.9049   -0.9558    6.9217 H   0  0  0  0  0  0  0  0  0  0  0  0
   -9.1305   -2.6003    6.9558 O   0  0  0  0  0  0  0  0  0  0  0  0
  -10.3466   -1.4797    6.6108 P   0  0  0  0  0  0  0  0  0  0  0  0
  -10.9129   -1.1742    8.0437 O   0  0  0  0  0  0  0  0  0  0  0  0
   -9.6243   -0.2219    5.9910 O   0  0  0  0  0  0  0  0  0  0  0  0
  -11.1957   -2.2534    5.6774 O   0  0  0  0  0  0  0  0  0  0  0  0
  -11.6336   -0.5286    7.9756 H   0  0  0  0  0  0  0  0  0  0  0  0
  -10.7281   -2.3693    4.8354 H   0  0  0  0  0  0  0  0  0  0  0  0
 44 42  2  0  0  0
 45 42  1  0  0  0
 42 41  1  0  0  0
 42 43  1  0  0  0
 41 37  1  0  0  0
 39 37  2  0  0  0
 37 38  1  0  0  0
 37 36  1  0  0  0
 36 32  1  0  0  0
 34 32  2  0  0  0
 32 31  1  0  0  0
 32 33  1  0  0  0
 30 31  1  0  0  0
 30  7  1  0  0  0
  7  2  1  0  0  0
  7  5  1  0  0  0
  2  1  1  0  0  0
  6  5  1  0  0  0
  5  3  1  0  0  0
 25 24  1  0  0  0
 25 26  1  0  0  0
 24 29  1  0  0  0
  1  3  1  0  0  0
  1 20  1  0  0  0
  3  4  1  0  0  0
 26 27  1  0  0  0
 20 10  1  0  0  0
 20 19  1  0  0  0
 29 10  1  0  0  0
 29 28  1  0  0  0
 10 11  2  0  0  0
 18 19  1  0  0  0
 18 16  2  0  0  0
 19 12  2  0  0  0
 11 12  1  0  0  0
 27 28  1  0  0  0
 17 16  1  0  0  0
 16 15  1  0  0  0
 12 13  1  0  0  0
 15 13  1  0  0  0
 13 14  2  0  0  0
 15 21  1  0  0  0
 17 22  1  0  0  0
 17 23  1  0  0  0
  4  8  1  0  0  0
  6  9  1  0  0  0
 33 35  1  0  0  0
 38 40  1  0  0  0
 43 46  1  0  0  0
 45 47  1  0  0  0
M  END
> <minimizedAffinity>
-11.39955

$$$$
2R75_01G_1_614


 47 50  0  0  0  0  0  0  0  0999 V2000
   -8.6726   -4.2420   15.1936 C   0  0  0  0  0  0  0  0  0  0  0  0
   -8.9648   -4.3652   13.7217 O   0  0  0  0  0  0  0  0  0  0  0  0
   -9.6898   -3.2755   15.7154 C   0  0  0  0  0  0  0  0  0  0  0  0
  -10.4994   -3.9409   16.6980 O   0  0  0  0  0  0  0  0  0  0  0  0
  -10.4739   -2.7949   14.4712 C   0  0  0  0  0  0  0  0  0  0  0  0
  -11.8166   -2.4996   14.7620 O   0  0  0  0  0  0  0  0  0  0  0  0
  -10.3577   -3.9215   13.5260 C   0  0  0  0  0  0  0  0  0  0  0  0
  -10.9075   -4.7269   16.3021 H   0  0  0  0  0  0  0  0  0  0  0  0
  -12.2492   -3.2874   15.1268 H   0  0  0  0  0  0  0  0  0  0  0  0
   -6.6152   -2.8085   15.6784 C   0  0  0  0  0  0  0  0  0  0  0  0
   -5.2971   -2.9926   15.7011 N   0  0  0  0  0  0  0  0  0  0  0  0
   -5.1031   -4.2710   15.3231 C   0  0  0  0  0  0  0  0  0  0  0  0
   -3.9707   -5.0582   15.2125 C   0  0  0  0  0  0  0  0  0  0  0  0
   -2.7967   -4.6167   15.3504 O   0  0  0  0  0  0  0  0  0  0  0  0
   -4.1694   -6.3389   14.8519 N   0  0  0  0  0  0  0  0  0  0  0  0
   -5.3612   -6.8812   14.6384 C   0  0  0  0  0  0  0  0  0  0  0  0
   -5.3913   -8.1784   14.2721 N   0  0  0  0  0  0  0  0  0  0  0  0
   -6.4665   -6.1743   14.7496 N   0  0  0  0  0  0  0  0  0  0  0  0
   -6.3379   -4.8697   15.1039 C   0  0  0  0  0  0  0  0  0  0  0  0
   -7.2860   -3.9513   15.3005 N   0  0  0  0  0  0  0  0  0  0  0  0
   -3.3771   -6.9123   14.7389 H   0  0  0  0  0  0  0  0  0  0  0  0
   -6.2536   -8.6223   14.1031 H   0  0  0  0  0  0  0  0  0  0  0  0
   -4.5509   -8.6817   14.1737 H   0  0  0  0  0  0  0  0  0  0  0  0
   -7.1765   -0.6326   15.0178 C   0  0  0  0  0  0  0  0  0  0  0  0
   -7.9997    0.4970   15.5181 C   0  0  0  0  0  0  0  0  0  0  0  0
   -7.5185    1.0840   16.7058 O   0  0  0  0  0  0  0  0  0  0  0  0
   -7.5215    0.1458   17.7873 C   0  0  0  0  0  0  0  0  0  0  0  0
   -6.7806   -1.1422   17.4218 C   0  0  0  0  0  0  0  0  0  0  0  0
   -7.0347   -1.6180   16.0291 N   0  0  0  0  0  0  0  0  0  0  0  0
  -10.4834   -3.5068   12.0520 C   0  0  0  0  0  0  0  0  0  0  0  0
   -9.2762   -3.6886   11.3936 O   0  0  0  0  0  0  0  0  0  0  0  0
   -8.6143   -2.4953   10.6070 P   0  0  0  0  0  0  0  0  0  0  0  0
   -9.5602   -1.3349   10.6591 O   0  0  0  0  0  0  0  0  0  0  0  0
   -7.2277   -2.2409   11.0769 O   0  0  0  0  0  0  0  0  0  0  0  0
   -9.1765   -0.5833   10.1808 H   0  0  0  0  0  0  0  0  0  0  0  0
   -8.5786   -3.0476    9.0949 O   0  0  0  0  0  0  0  0  0  0  0  0
   -7.7215   -2.4090    7.9124 P   0  0  0  0  0  0  0  0  0  0  0  0
   -7.3665   -1.0070    8.2625 O   0  0  0  0  0  0  0  0  0  0  0  0
   -6.5829   -3.2807    7.5590 O   0  0  0  0  0  0  0  0  0  0  0  0
   -6.8448   -0.6166    7.5440 H   0  0  0  0  0  0  0  0  0  0  0  0
   -8.7651   -2.4401    6.7402 O   0  0  0  0  0  0  0  0  0  0  0  0
  -10.1645   -1.5600    6.3932 P   0  0  0  0  0  0  0  0  0  0  0  0
  -10.6108   -1.0950    7.8257 O   0  0  0  0  0  0  0  0  0  0  0  0
   -9.7091   -0.3408    5.5021 O   0  0  0  0  0  0  0  0  0  0  0  0
  -10.9855   -2.5821    5.7062 O   0  0  0  0  0  0  0  0  0  0  0  0
  -11.4226   -0.5686    7.7564 H   0  0  0  0  0  0  0  0  0  0  0  0
  -10.6003   -2.7757    4.8373 H   0  0  0  0  0  0  0  0  0  0  0  0
 44 42  2  0  0  0
 45 42  1  0  0  0
 42 41  1  0  0  0
 42 43  1  0  0  0
 41 37  1  0  0  0
 39 37  2  0  0  0
 37 38  1  0  0  0
 37 36  1  0  0  0
 36 32  1  0  0  0
 34 32  2  0  0  0
 32 31  1  0  0  0
 32 33  1  0  0  0
 30 31  1  0  0  0
 30  7  1  0  0  0
  7  2  1  0  0  0
  7  5  1  0  0  0
  2  1  1  0  0  0
  6  5  1  0  0  0
  5  3  1  0  0  0
 25 24  1  0  0  0
 25 26  1  0  0  0
 24 29  1  0  0  0
  1  3  1  0  0  0
  1 20  1  0  0  0
  3  4  1  0  0  0
 26 27  1  0  0  0
 20 10  1  0  0  0
 20 19  1  0  0  0
 29 10  1  0  0  0
 29 28  1  0  0  0
 10 11  2  0  0  0
 18 19  1  0  0  0
 18 16  2  0  0  0
 19 12  2  0  0  0
 11 12  1  0  0  0
 27 28  1  0  0  0
 17 16  1  0  0  0
 16 15  1  0  0  0
 12 13  1  0  0  0
 15 13  1  0  0  0
 13 14  2  0  0  0
 15 21  1  0  0  0
 17 22  1  0  0  0
 17 23  1  0  0  0
  4  8  1  0  0  0
  6  9  1  0  0  0
 33 35  1  0  0  0
 38 40  1  0  0  0
 43 46  1  0  0  0
 45 47  1  0  0  0
M  END
> <minimizedAffinity>
-10.42567

$$$$
2R75_01G_1_614


 47 50  0  0  0  0  0  0  0  0999 V2000
   -8.6431   -4.8846   13.2919 C   0  0  0  0  0  0  0  0  0  0  0  0
   -8.4919   -4.4230   11.8668 O   0  0  0  0  0  0  0  0  0  0  0  0
   -9.9845   -4.3818   13.7265 C   0  0  0  0  0  0  0  0  0  0  0  0
  -10.8126   -5.5056   14.0658 O   0  0  0  0  0  0  0  0  0  0  0  0
  -10.5126   -3.5443   12.5374 C   0  0  0  0  0  0  0  0  0  0  0  0
  -11.9123   -3.5942   12.4234 O   0  0  0  0  0  0  0  0  0  0  0  0
   -9.8501   -4.1439   11.3638 C   0  0  0  0  0  0  0  0  0  0  0  0
  -10.8726   -6.1044   13.3050 H   0  0  0  0  0  0  0  0  0  0  0  0
  -12.1952   -4.5157   12.3149 H   0  0  0  0  0  0  0  0  0  0  0  0
   -7.1101   -3.2615   14.5320 C   0  0  0  0  0  0  0  0  0  0  0  0
   -5.9251   -3.3263   15.1350 N   0  0  0  0  0  0  0  0  0  0  0  0
   -5.4968   -4.5912   14.9572 C   0  0  0  0  0  0  0  0  0  0  0  0
   -4.3780   -5.2765   15.3967 C   0  0  0  0  0  0  0  0  0  0  0  0
   -3.4164   -4.7285   16.0025 O   0  0  0  0  0  0  0  0  0  0  0  0
   -4.3093   -6.5783   15.0646 N   0  0  0  0  0  0  0  0  0  0  0  0
   -5.2469   -7.2300   14.3890 C   0  0  0  0  0  0  0  0  0  0  0  0
   -5.0233   -8.5333   14.1259 N   0  0  0  0  0  0  0  0  0  0  0  0
   -6.3360   -6.6222   13.9669 N   0  0  0  0  0  0  0  0  0  0  0  0
   -6.4665   -5.3031   14.2615 C   0  0  0  0  0  0  0  0  0  0  0  0
   -7.4667   -4.4686   13.9712 N   0  0  0  0  0  0  0  0  0  0  0  0
   -3.5095   -7.0811   15.3414 H   0  0  0  0  0  0  0  0  0  0  0  0
   -5.6917   -9.0565   13.6273 H   0  0  0  0  0  0  0  0  0  0  0  0
   -4.1916   -8.9617   14.4324 H   0  0  0  0  0  0  0  0  0  0  0  0
   -7.7192   -1.2832   13.4359 C   0  0  0  0  0  0  0  0  0  0  0  0
   -8.7509   -0.2230   13.5603 C   0  0  0  0  0  0  0  0  0  0  0  0
   -8.6320    0.5688   14.7203 O   0  0  0  0  0  0  0  0  0  0  0  0
   -8.7969   -0.2176   15.9053 C   0  0  0  0  0  0  0  0  0  0  0  0
   -7.8605   -1.4277   15.9168 C   0  0  0  0  0  0  0  0  0  0  0  0
   -7.7225   -2.1050   14.5928 N   0  0  0  0  0  0  0  0  0  0  0  0
   -9.6902   -3.1747   10.1823 C   0  0  0  0  0  0  0  0  0  0  0  0
   -8.3925   -3.2166    9.6945 O   0  0  0  0  0  0  0  0  0  0  0  0
   -8.0694   -2.6713    8.2525 P   0  0  0  0  0  0  0  0  0  0  0  0
   -7.7410   -1.2152    8.3790 O   0  0  0  0  0  0  0  0  0  0  0  0
   -7.0610   -3.5204    7.5666 O   0  0  0  0  0  0  0  0  0  0  0  0
   -7.5372   -0.8524    7.5028 H   0  0  0  0  0  0  0  0  0  0  0  0
   -9.4871   -2.8036    7.5006 O   0  0  0  0  0  0  0  0  0  0  0  0
  -10.1269   -1.6866    6.5606 P   0  0  0  0  0  0  0  0  0  0  0  0
   -9.0727   -0.7150    6.1620 O   0  0  0  0  0  0  0  0  0  0  0  0
  -10.8735   -2.3032    5.4454 O   0  0  0  0  0  0  0  0  0  0  0  0
   -9.4601   -0.0343    5.5898 H   0  0  0  0  0  0  0  0  0  0  0  0
  -11.1501   -1.0202    7.5470 O   0  0  0  0  0  0  0  0  0  0  0  0
  -12.1171    0.3630    7.4747 P   0  0  0  0  0  0  0  0  0  0  0  0
  -12.9994    0.0679    6.2091 O   0  0  0  0  0  0  0  0  0  0  0  0
  -12.9791    0.3680    8.7956 O   0  0  0  0  0  0  0  0  0  0  0  0
  -11.0926    1.4266    7.3761 O   0  0  0  0  0  0  0  0  0  0  0  0
  -13.6095    0.8073    6.0607 H   0  0  0  0  0  0  0  0  0  0  0  0
  -10.6240    1.5036    8.2219 H   0  0  0  0  0  0  0  0  0  0  0  0
 44 42  2  0  0  0
 45 42  1  0  0  0
 42 41  1  0  0  0
 42 43  1  0  0  0
 41 37  1  0  0  0
 39 37  2  0  0  0
 37 38  1  0  0  0
 37 36  1  0  0  0
 36 32  1  0  0  0
 34 32  2  0  0  0
 32 31  1  0  0  0
 32 33  1  0  0  0
 30 31  1  0  0  0
 30  7  1  0  0  0
  7  2  1  0  0  0
  7  5  1  0  0  0
  2  1  1  0  0  0
  6  5  1  0  0  0
  5  3  1  0  0  0
 25 24  1  0  0  0
 25 26  1  0  0  0
 24 29  1  0  0  0
  1  3  1  0  0  0
  1 20  1  0  0  0
  3  4  1  0  0  0
 26 27  1  0  0  0
 20 10  1  0  0  0
 20 19  1  0  0  0
 29 10  1  0  0  0
 29 28  1  0  0  0
 10 11  2  0  0  0
 18 19  1  0  0  0
 18 16  2  0  0  0
 19 12  2  0  0  0
 11 12  1  0  0  0
 27 28  1  0  0  0
 17 16  1  0  0  0
 16 15  1  0  0  0
 12 13  1  0  0  0
 15 13  1  0  0  0
 13 14  2  0  0  0
 15 21  1  0  0  0
 17 22  1  0  0  0
 17 23  1  0  0  0
  4  8  1  0  0  0
  6  9  1  0  0  0
 33 35  1  0  0  0
 38 40  1  0  0  0
 43 46  1  0  0  0
 45 47  1  0  0  0
M  END
> <minimizedAffinity>
-10.06660

$$$$
2R75_01G_1_614


 47 50  0  0  0  0  0  0  0  0999 V2000
   -7.3503   -2.2529   15.1009 C   0  0  0  0  0  0  0  0  0  0  0  0
   -8.4503   -3.1087   14.5314 O   0  0  0  0  0  0  0  0  0  0  0  0
   -7.3463   -1.0116   14.2641 C   0  0  0  0  0  0  0  0  0  0  0  0
   -7.6346    0.1157   15.1065 O   0  0  0  0  0  0  0  0  0  0  0  0
   -8.4001   -1.2600   13.1587 C   0  0  0  0  0  0  0  0  0  0  0  0
   -9.0440   -0.0784   12.7537 O   0  0  0  0  0  0  0  0  0  0  0  0
   -9.3443   -2.2078   13.7799 C   0  0  0  0  0  0  0  0  0  0  0  0
   -8.4838   -0.0238   15.5541 H   0  0  0  0  0  0  0  0  0  0  0  0
   -9.4755    0.3332   13.5187 H   0  0  0  0  0  0  0  0  0  0  0  0
   -5.8498   -4.2240   14.4798 C   0  0  0  0  0  0  0  0  0  0  0  0
   -4.6299   -4.6455   14.8053 N   0  0  0  0  0  0  0  0  0  0  0  0
   -4.1764   -3.7691   15.7225 C   0  0  0  0  0  0  0  0  0  0  0  0
   -2.9684   -3.6406   16.3848 C   0  0  0  0  0  0  0  0  0  0  0  0
   -2.0385   -4.4904   16.3131 O   0  0  0  0  0  0  0  0  0  0  0  0
   -2.8510   -2.5831   17.2080 N   0  0  0  0  0  0  0  0  0  0  0  0
   -3.7907   -1.6636   17.3858 C   0  0  0  0  0  0  0  0  0  0  0  0
   -3.5225   -0.6686   18.2552 N   0  0  0  0  0  0  0  0  0  0  0  0
   -4.9483   -1.7362   16.7626 N   0  0  0  0  0  0  0  0  0  0  0  0
   -5.1371   -2.7847   15.9206 C   0  0  0  0  0  0  0  0  0  0  0  0
   -6.1962   -3.0791   15.1639 N   0  0  0  0  0  0  0  0  0  0  0  0
   -2.0113   -2.4850   17.7125 H   0  0  0  0  0  0  0  0  0  0  0  0
   -4.1907    0.0358   18.4186 H   0  0  0  0  0  0  0  0  0  0  0  0
   -2.6585   -0.6464   18.7267 H   0  0  0  0  0  0  0  0  0  0  0  0
   -6.6397   -6.3255   13.8121 C   0  0  0  0  0  0  0  0  0  0  0  0
   -7.6768   -6.8800   12.9061 C   0  0  0  0  0  0  0  0  0  0  0  0
   -7.4399   -6.6401   11.5375 O   0  0  0  0  0  0  0  0  0  0  0  0
   -7.4393   -5.2379   11.2484 C   0  0  0  0  0  0  0  0  0  0  0  0
   -6.4763   -4.4724   12.1584 C   0  0  0  0  0  0  0  0  0  0  0  0
   -6.4812   -4.9348   13.5785 N   0  0  0  0  0  0  0  0  0  0  0  0
  -10.0983   -3.0825   12.7665 C   0  0  0  0  0  0  0  0  0  0  0  0
  -10.8672   -2.2933   11.9239 O   0  0  0  0  0  0  0  0  0  0  0  0
  -10.6741   -2.3781   10.3630 P   0  0  0  0  0  0  0  0  0  0  0  0
   -9.4359   -1.6104   10.0146 O   0  0  0  0  0  0  0  0  0  0  0  0
  -10.7379   -3.7839    9.8857 O   0  0  0  0  0  0  0  0  0  0  0  0
   -9.2923   -1.6460    9.0560 H   0  0  0  0  0  0  0  0  0  0  0  0
  -11.9454   -1.5614    9.8065 O   0  0  0  0  0  0  0  0  0  0  0  0
  -12.2831   -1.3429    8.2642 P   0  0  0  0  0  0  0  0  0  0  0  0
  -12.8236   -2.6067    7.6942 O   0  0  0  0  0  0  0  0  0  0  0  0
  -13.1330   -0.1497    8.0765 O   0  0  0  0  0  0  0  0  0  0  0  0
  -13.0298   -2.4758    6.7554 H   0  0  0  0  0  0  0  0  0  0  0  0
  -10.8543   -1.0419    7.6881 O   0  0  0  0  0  0  0  0  0  0  0  0
   -9.9876   -1.6024    6.3508 P   0  0  0  0  0  0  0  0  0  0  0  0
  -11.0720   -2.4616    5.6070 O   0  0  0  0  0  0  0  0  0  0  0  0
   -9.5870   -0.3244    5.5177 O   0  0  0  0  0  0  0  0  0  0  0  0
   -8.8684   -2.3127    7.0092 O   0  0  0  0  0  0  0  0  0  0  0  0
  -10.6857   -2.8451    4.8041 H   0  0  0  0  0  0  0  0  0  0  0  0
   -8.2770   -1.6673    7.4270 H   0  0  0  0  0  0  0  0  0  0  0  0
 44 42  2  0  0  0
 45 42  1  0  0  0
 42 41  1  0  0  0
 42 43  1  0  0  0
 41 37  1  0  0  0
 39 37  2  0  0  0
 37 38  1  0  0  0
 37 36  1  0  0  0
 36 32  1  0  0  0
 34 32  2  0  0  0
 32 31  1  0  0  0
 32 33  1  0  0  0
 30 31  1  0  0  0
 30  7  1  0  0  0
  7  2  1  0  0  0
  7  5  1  0  0  0
  2  1  1  0  0  0
  6  5  1  0  0  0
  5  3  1  0  0  0
 25 24  1  0  0  0
 25 26  1  0  0  0
 24 29  1  0  0  0
  1  3  1  0  0  0
  1 20  1  0  0  0
  3  4  1  0  0  0
 26 27  1  0  0  0
 20 10  1  0  0  0
 20 19  1  0  0  0
 29 10  1  0  0  0
 29 28  1  0  0  0
 10 11  2  0  0  0
 18 19  1  0  0  0
 18 16  2  0  0  0
 19 12  2  0  0  0
 11 12  1  0  0  0
 27 28  1  0  0  0
 17 16  1  0  0  0
 16 15  1  0  0  0
 12 13  1  0  0  0
 15 13  1  0  0  0
 13 14  2  0  0  0
 15 21  1  0  0  0
 17 22  1  0  0  0
 17 23  1  0  0  0
  4  8  1  0  0  0
  6  9  1  0  0  0
 33 35  1  0  0  0
 38 40  1  0  0  0
 43 46  1  0  0  0
 45 47  1  0  0  0
M  END
> <minimizedAffinity>
-9.77760

$$$$
2R75_01G_1_614


 47 50  0  0  0  0  0  0  0  0999 V2000
   -7.1735   -4.4175   13.6537 C   0  0  0  0  0  0  0  0  0  0  0  0
   -6.4489   -4.3169   12.3377 O   0  0  0  0  0  0  0  0  0  0  0  0
   -8.6286   -4.3796   13.3036 C   0  0  0  0  0  0  0  0  0  0  0  0
   -9.2395   -5.6079   13.7302 O   0  0  0  0  0  0  0  0  0  0  0  0
   -8.6758   -4.1484   11.7745 C   0  0  0  0  0  0  0  0  0  0  0  0
   -9.7857   -4.7637   11.1711 O   0  0  0  0  0  0  0  0  0  0  0  0
   -7.4064   -4.7249   11.2926 C   0  0  0  0  0  0  0  0  0  0  0  0
   -8.7811   -6.3570   13.3185 H   0  0  0  0  0  0  0  0  0  0  0  0
   -9.7632   -5.7170   11.3488 H   0  0  0  0  0  0  0  0  0  0  0  0
   -7.0841   -2.1894   14.8989 C   0  0  0  0  0  0  0  0  0  0  0  0
   -6.2525   -1.5961   15.7523 N   0  0  0  0  0  0  0  0  0  0  0  0
   -5.2174   -2.4456   15.8995 C   0  0  0  0  0  0  0  0  0  0  0  0
   -4.0824   -2.4181   16.6905 C   0  0  0  0  0  0  0  0  0  0  0  0
   -3.7418   -1.4241   17.3892 O   0  0  0  0  0  0  0  0  0  0  0  0
   -3.2792   -3.4947   16.6160 N   0  0  0  0  0  0  0  0  0  0  0  0
   -3.5285   -4.5659   15.8741 C   0  0  0  0  0  0  0  0  0  0  0  0
   -2.6173   -5.5593   15.9006 N   0  0  0  0  0  0  0  0  0  0  0  0
   -4.6051   -4.6428   15.1199 N   0  0  0  0  0  0  0  0  0  0  0  0
   -5.4569   -3.5855   15.1416 C   0  0  0  0  0  0  0  0  0  0  0  0
   -6.6118   -3.4190   14.4939 N   0  0  0  0  0  0  0  0  0  0  0  0
   -2.4508   -3.4871   17.1479 H   0  0  0  0  0  0  0  0  0  0  0  0
   -2.7608   -6.3732   15.3655 H   0  0  0  0  0  0  0  0  0  0  0  0
   -1.8086   -5.4709   16.4549 H   0  0  0  0  0  0  0  0  0  0  0  0
   -9.3799   -1.9181   15.2746 C   0  0  0  0  0  0  0  0  0  0  0  0
  -10.4061   -0.8551   15.1289 C   0  0  0  0  0  0  0  0  0  0  0  0
  -10.6782   -0.4906   13.7947 O   0  0  0  0  0  0  0  0  0  0  0  0
   -9.5180    0.0564   13.1586 C   0  0  0  0  0  0  0  0  0  0  0  0
   -8.3114   -0.8764   13.2825 C   0  0  0  0  0  0  0  0  0  0  0  0
   -8.1825   -1.5332   14.6176 N   0  0  0  0  0  0  0  0  0  0  0  0
   -6.9083   -4.1089    9.9762 C   0  0  0  0  0  0  0  0  0  0  0  0
   -7.9209   -3.3809    9.3691 O   0  0  0  0  0  0  0  0  0  0  0  0
   -7.6007   -2.4499    8.1396 P   0  0  0  0  0  0  0  0  0  0  0  0
   -7.7547   -1.0299    8.5911 O   0  0  0  0  0  0  0  0  0  0  0  0
   -6.3016   -2.8085    7.5136 O   0  0  0  0  0  0  0  0  0  0  0  0
   -7.5628   -0.4327    7.8511 H   0  0  0  0  0  0  0  0  0  0  0  0
   -8.8015   -2.7869    7.1211 O   0  0  0  0  0  0  0  0  0  0  0  0
   -9.9159   -1.7483    6.6520 P   0  0  0  0  0  0  0  0  0  0  0  0
   -9.2591   -0.4948    6.1922 O   0  0  0  0  0  0  0  0  0  0  0  0
  -10.8394   -2.3713    5.6823 O   0  0  0  0  0  0  0  0  0  0  0  0
   -9.9357    0.1386    5.9062 H   0  0  0  0  0  0  0  0  0  0  0  0
  -10.6838   -1.5092    8.0000 O   0  0  0  0  0  0  0  0  0  0  0  0
  -12.0097   -2.2486    8.7408 P   0  0  0  0  0  0  0  0  0  0  0  0
  -13.0429   -2.3055    7.5591 O   0  0  0  0  0  0  0  0  0  0  0  0
  -11.5308   -3.6907    9.1639 O   0  0  0  0  0  0  0  0  0  0  0  0
  -12.2776   -1.3118    9.8549 O   0  0  0  0  0  0  0  0  0  0  0  0
  -13.8643   -2.7192    7.8674 H   0  0  0  0  0  0  0  0  0  0  0  0
  -11.5664   -1.3779   10.5111 H   0  0  0  0  0  0  0  0  0  0  0  0
 44 42  2  0  0  0
 45 42  1  0  0  0
 42 41  1  0  0  0
 42 43  1  0  0  0
 41 37  1  0  0  0
 39 37  2  0  0  0
 37 38  1  0  0  0
 37 36  1  0  0  0
 36 32  1  0  0  0
 34 32  2  0  0  0
 32 31  1  0  0  0
 32 33  1  0  0  0
 30 31  1  0  0  0
 30  7  1  0  0  0
  7  2  1  0  0  0
  7  5  1  0  0  0
  2  1  1  0  0  0
  6  5  1  0  0  0
  5  3  1  0  0  0
 25 24  1  0  0  0
 25 26  1  0  0  0
 24 29  1  0  0  0
  1  3  1  0  0  0
  1 20  1  0  0  0
  3  4  1  0  0  0
 26 27  1  0  0  0
 20 10  1  0  0  0
 20 19  1  0  0  0
 29 10  1  0  0  0
 29 28  1  0  0  0
 10 11  2  0  0  0
 18 19  1  0  0  0
 18 16  2  0  0  0
 19 12  2  0  0  0
 11 12  1  0  0  0
 27 28  1  0  0  0
 17 16  1  0  0  0
 16 15  1  0  0  0
 12 13  1  0  0  0
 15 13  1  0  0  0
 13 14  2  0  0  0
 15 21  1  0  0  0
 17 22  1  0  0  0
 17 23  1  0  0  0
  4  8  1  0  0  0
  6  9  1  0  0  0
 33 35  1  0  0  0
 38 40  1  0  0  0
 43 46  1  0  0  0
 45 47  1  0  0  0
M  END
> <minimizedAffinity>
-9.76677

$$$$
2R75_01G_1_614


 47 50  0  0  0  0  0  0  0  0999 V2000
   -8.6967   -4.2814   14.3743 C   0  0  0  0  0  0  0  0  0  0  0  0
   -8.8193   -3.5745   13.0506 O   0  0  0  0  0  0  0  0  0  0  0  0
   -9.7992   -3.7241   15.2198 C   0  0  0  0  0  0  0  0  0  0  0  0
  -10.6886   -4.7919   15.5837 O   0  0  0  0  0  0  0  0  0  0  0  0
  -10.4571   -2.6198   14.3586 C   0  0  0  0  0  0  0  0  0  0  0  0
  -11.8335   -2.4893   14.6103 O   0  0  0  0  0  0  0  0  0  0  0  0
  -10.1969   -3.0532   12.9729 C   0  0  0  0  0  0  0  0  0  0  0  0
  -11.0220   -5.2227   14.7812 H   0  0  0  0  0  0  0  0  0  0  0  0
  -12.2756   -3.3350   14.4364 H   0  0  0  0  0  0  0  0  0  0  0  0
   -6.6580   -3.0808   15.3361 C   0  0  0  0  0  0  0  0  0  0  0  0
   -5.3978   -3.4008   15.6211 N   0  0  0  0  0  0  0  0  0  0  0  0
   -5.2530   -4.6829   15.2337 C   0  0  0  0  0  0  0  0  0  0  0  0
   -4.2036   -5.5802   15.3229 C   0  0  0  0  0  0  0  0  0  0  0  0
   -3.0475   -5.2661   15.7191 O   0  0  0  0  0  0  0  0  0  0  0  0
   -4.4448   -6.8244   14.8717 N   0  0  0  0  0  0  0  0  0  0  0  0
   -5.6121   -7.2350   14.3933 C   0  0  0  0  0  0  0  0  0  0  0  0
   -5.6896   -8.5129   13.9705 N   0  0  0  0  0  0  0  0  0  0  0  0
   -6.6430   -6.4204   14.3067 N   0  0  0  0  0  0  0  0  0  0  0  0
   -6.4664   -5.1451   14.7384 C   0  0  0  0  0  0  0  0  0  0  0  0
   -7.3418   -4.1385   14.7771 N   0  0  0  0  0  0  0  0  0  0  0  0
   -3.7054   -7.4738   14.8983 H   0  0  0  0  0  0  0  0  0  0  0  0
   -6.5361   -8.8610   13.6079 H   0  0  0  0  0  0  0  0  0  0  0  0
   -4.8997   -9.0980   14.0244 H   0  0  0  0  0  0  0  0  0  0  0  0
   -7.6301   -1.6460   16.9117 C   0  0  0  0  0  0  0  0  0  0  0  0
   -7.6282   -0.1976   17.2374 C   0  0  0  0  0  0  0  0  0  0  0  0
   -8.2367    0.6172   16.2614 O   0  0  0  0  0  0  0  0  0  0  0  0
   -7.5400    0.5406   15.0129 C   0  0  0  0  0  0  0  0  0  0  0  0
   -7.3655   -0.9072   14.5496 C   0  0  0  0  0  0  0  0  0  0  0  0
   -7.0250   -1.8620   15.6464 N   0  0  0  0  0  0  0  0  0  0  0  0
  -10.1731   -1.8993   11.9587 C   0  0  0  0  0  0  0  0  0  0  0  0
  -10.8020   -2.2768   10.7815 O   0  0  0  0  0  0  0  0  0  0  0  0
   -9.9721   -2.9313    9.6137 P   0  0  0  0  0  0  0  0  0  0  0  0
   -9.3625   -4.1943   10.1402 O   0  0  0  0  0  0  0  0  0  0  0  0
  -10.7847   -3.0542    8.3756 O   0  0  0  0  0  0  0  0  0  0  0  0
   -8.8439   -4.6196    9.4394 H   0  0  0  0  0  0  0  0  0  0  0  0
   -8.7909   -1.8623    9.3796 O   0  0  0  0  0  0  0  0  0  0  0  0
   -7.6802   -1.9674    8.2413 P   0  0  0  0  0  0  0  0  0  0  0  0
   -7.9847   -3.1281    7.3613 O   0  0  0  0  0  0  0  0  0  0  0  0
   -7.5146   -0.6739    7.5479 O   0  0  0  0  0  0  0  0  0  0  0  0
   -7.3098   -3.1938    6.6677 H   0  0  0  0  0  0  0  0  0  0  0  0
   -6.3984   -2.2470    9.1032 O   0  0  0  0  0  0  0  0  0  0  0  0
   -5.7737   -3.6200    9.8635 P   0  0  0  0  0  0  0  0  0  0  0  0
   -4.2411   -3.4899    9.5449 O   0  0  0  0  0  0  0  0  0  0  0  0
   -6.0642   -3.4419   11.4036 O   0  0  0  0  0  0  0  0  0  0  0  0
   -6.5357   -4.6951    9.1896 O   0  0  0  0  0  0  0  0  0  0  0  0
   -3.7645   -4.2378    9.9379 H   0  0  0  0  0  0  0  0  0  0  0  0
   -7.4624   -4.6619    9.4744 H   0  0  0  0  0  0  0  0  0  0  0  0
 44 42  2  0  0  0
 45 42  1  0  0  0
 42 41  1  0  0  0
 42 43  1  0  0  0
 41 37  1  0  0  0
 39 37  2  0  0  0
 37 38  1  0  0  0
 37 36  1  0  0  0
 36 32  1  0  0  0
 34 32  2  0  0  0
 32 31  1  0  0  0
 32 33  1  0  0  0
 30 31  1  0  0  0
 30  7  1  0  0  0
  7  2  1  0  0  0
  7  5  1  0  0  0
  2  1  1  0  0  0
  6  5  1  0  0  0
  5  3  1  0  0  0
 25 24  1  0  0  0
 25 26  1  0  0  0
 24 29  1  0  0  0
  1  3  1  0  0  0
  1 20  1  0  0  0
  3  4  1  0  0  0
 26 27  1  0  0  0
 20 10  1  0  0  0
 20 19  1  0  0  0
 29 10  1  0  0  0
 29 28  1  0  0  0
 10 11  2  0  0  0
 18 19  1  0  0  0
 18 16  2  0  0  0
 19 12  2  0  0  0
 11 12  1  0  0  0
 27 28  1  0  0  0
 17 16  1  0  0  0
 16 15  1  0  0  0
 12 13  1  0  0  0
 15 13  1  0  0  0
 13 14  2  0  0  0
 15 21  1  0  0  0
 17 22  1  0  0  0
 17 23  1  0  0  0
  4  8  1  0  0  0
  6  9  1  0  0  0
 33 35  1  0  0  0
 38 40  1  0  0  0
 43 46  1  0  0  0
 45 47  1  0  0  0
M  END
> <minimizedAffinity>
-9.73110

$$$$
2R75_01G_1_614


 47 50  0  0  0  0  0  0  0  0999 V2000
   -8.7595   -4.2491   14.1393 C   0  0  0  0  0  0  0  0  0  0  0  0
   -8.8693   -3.4266   12.8829 O   0  0  0  0  0  0  0  0  0  0  0  0
   -9.9261   -3.8358   14.9815 C   0  0  0  0  0  0  0  0  0  0  0  0
  -10.7657   -4.9802   15.2031 O   0  0  0  0  0  0  0  0  0  0  0  0
  -10.6119   -2.6916   14.1975 C   0  0  0  0  0  0  0  0  0  0  0  0
  -12.0026   -2.6608   14.3967 O   0  0  0  0  0  0  0  0  0  0  0  0
  -10.2707   -2.9759   12.7909 C   0  0  0  0  0  0  0  0  0  0  0  0
  -11.0405   -5.3499   14.3494 H   0  0  0  0  0  0  0  0  0  0  0  0
  -12.3871   -3.5087   14.1247 H   0  0  0  0  0  0  0  0  0  0  0  0
   -6.8062   -2.9957   15.2053 C   0  0  0  0  0  0  0  0  0  0  0  0
   -5.5565   -3.2841   15.5613 N   0  0  0  0  0  0  0  0  0  0  0  0
   -5.3601   -4.5641   15.1897 C   0  0  0  0  0  0  0  0  0  0  0  0
   -4.2962   -5.4355   15.3419 C   0  0  0  0  0  0  0  0  0  0  0  0
   -3.1717   -5.0920   15.7995 O   0  0  0  0  0  0  0  0  0  0  0  0
   -4.4825   -6.6871   14.8851 N   0  0  0  0  0  0  0  0  0  0  0  0
   -5.6115   -7.1277   14.3454 C   0  0  0  0  0  0  0  0  0  0  0  0
   -5.6352   -8.4090   13.9262 N   0  0  0  0  0  0  0  0  0  0  0  0
   -6.6550   -6.3385   14.1974 N   0  0  0  0  0  0  0  0  0  0  0  0
   -6.5329   -5.0574   14.6308 C   0  0  0  0  0  0  0  0  0  0  0  0
   -7.4327   -4.0720   14.6154 N   0  0  0  0  0  0  0  0  0  0  0  0
   -3.7305   -7.3185   14.9562 H   0  0  0  0  0  0  0  0  0  0  0  0
   -6.4518   -8.7788   13.5194 H   0  0  0  0  0  0  0  0  0  0  0  0
   -4.8358   -8.9747   14.0270 H   0  0  0  0  0  0  0  0  0  0  0  0
   -7.2346   -0.8219   14.4457 C   0  0  0  0  0  0  0  0  0  0  0  0
   -8.0646    0.3439   14.8408 C   0  0  0  0  0  0  0  0  0  0  0  0
   -7.6776    0.9467   16.0547 O   0  0  0  0  0  0  0  0  0  0  0  0
   -7.8108    0.0370   17.1522 C   0  0  0  0  0  0  0  0  0  0  0  0
   -7.0802   -1.2811   16.8871 C   0  0  0  0  0  0  0  0  0  0  0  0
   -7.2187   -1.7848   15.4879 N   0  0  0  0  0  0  0  0  0  0  0  0
  -10.2732   -1.7307   11.8907 C   0  0  0  0  0  0  0  0  0  0  0  0
  -10.6690   -2.0648   10.6040 O   0  0  0  0  0  0  0  0  0  0  0  0
  -11.4675   -1.0292    9.7260 P   0  0  0  0  0  0  0  0  0  0  0  0
  -12.8494   -1.5716    9.5255 O   0  0  0  0  0  0  0  0  0  0  0  0
  -11.3698    0.3437   10.2861 O   0  0  0  0  0  0  0  0  0  0  0  0
  -13.3649   -0.9518    8.9861 H   0  0  0  0  0  0  0  0  0  0  0  0
  -10.6929   -1.0927    8.3157 O   0  0  0  0  0  0  0  0  0  0  0  0
  -10.7588   -2.3151    7.2950 P   0  0  0  0  0  0  0  0  0  0  0  0
  -11.4106   -3.4766    7.9584 O   0  0  0  0  0  0  0  0  0  0  0  0
  -11.3628   -1.8974    6.0136 O   0  0  0  0  0  0  0  0  0  0  0  0
  -11.4517   -4.2217    7.3388 H   0  0  0  0  0  0  0  0  0  0  0  0
   -9.2308   -2.5931    7.0670 O   0  0  0  0  0  0  0  0  0  0  0  0
   -7.8850   -2.6502    8.0863 P   0  0  0  0  0  0  0  0  0  0  0  0
   -6.9263   -3.6090    7.2932 O   0  0  0  0  0  0  0  0  0  0  0  0
   -7.3159   -1.1805    8.1482 O   0  0  0  0  0  0  0  0  0  0  0  0
   -8.4924   -3.1536    9.3386 O   0  0  0  0  0  0  0  0  0  0  0  0
   -6.1002   -3.7227    7.7888 H   0  0  0  0  0  0  0  0  0  0  0  0
   -9.0576   -2.4655    9.7232 H   0  0  0  0  0  0  0  0  0  0  0  0
 44 42  2  0  0  0
 45 42  1  0  0  0
 42 41  1  0  0  0
 42 43  1  0  0  0
 41 37  1  0  0  0
 39 37  2  0  0  0
 37 38  1  0  0  0
 37 36  1  0  0  0
 36 32  1  0  0  0
 34 32  2  0  0  0
 32 31  1  0  0  0
 32 33  1  0  0  0
 30 31  1  0  0  0
 30  7  1  0  0  0
  7  2  1  0  0  0
  7  5  1  0  0  0
  2  1  1  0  0  0
  6  5  1  0  0  0
  5  3  1  0  0  0
 25 24  1  0  0  0
 25 26  1  0  0  0
 24 29  1  0  0  0
  1  3  1  0  0  0
  1 20  1  0  0  0
  3  4  1  0  0  0
 26 27  1  0  0  0
 20 10  1  0  0  0
 20 19  1  0  0  0
 29 10  1  0  0  0
 29 28  1  0  0  0
 10 11  2  0  0  0
 18 19  1  0  0  0
 18 16  2  0  0  0
 19 12  2  0  0  0
 11 12  1  0  0  0
 27 28  1  0  0  0
 17 16  1  0  0  0
 16 15  1  0  0  0
 12 13  1  0  0  0
 15 13  1  0  0  0
 13 14  2  0  0  0
 15 21  1  0  0  0
 17 22  1  0  0  0
 17 23  1  0  0  0
  4  8  1  0  0  0
  6  9  1  0  0  0
 33 35  1  0  0  0
 38 40  1  0  0  0
 43 46  1  0  0  0
 45 47  1  0  0  0
M  END
> <minimizedAffinity>
-9.73071

$$$$
2R75_01G_1_614


 47 50  0  0  0  0  0  0  0  0999 V2000
  -10.7232   -3.0378   12.7257 C   0  0  0  0  0  0  0  0  0  0  0  0
  -11.5014   -2.9849   11.4378 O   0  0  0  0  0  0  0  0  0  0  0  0
  -11.4294   -2.0947   13.6492 C   0  0  0  0  0  0  0  0  0  0  0  0
  -11.9100   -2.8317   14.7849 O   0  0  0  0  0  0  0  0  0  0  0  0
  -12.5470   -1.4475   12.7972 C   0  0  0  0  0  0  0  0  0  0  0  0
  -13.6874   -1.1320   13.5552 O   0  0  0  0  0  0  0  0  0  0  0  0
  -12.8411   -2.4660   11.7714 C   0  0  0  0  0  0  0  0  0  0  0  0
  -12.4858   -3.5516   14.4830 H   0  0  0  0  0  0  0  0  0  0  0  0
  -14.0309   -1.9373   13.9730 H   0  0  0  0  0  0  0  0  0  0  0  0
   -8.6367   -1.6591   12.2077 C   0  0  0  0  0  0  0  0  0  0  0  0
   -7.3570   -1.9117   11.9429 N   0  0  0  0  0  0  0  0  0  0  0  0
   -7.2479   -3.2544   11.9298 C   0  0  0  0  0  0  0  0  0  0  0  0
   -6.1717   -4.1097   11.7718 C   0  0  0  0  0  0  0  0  0  0  0  0
   -5.0114   -3.7228   11.4620 O   0  0  0  0  0  0  0  0  0  0  0  0
   -6.4364   -5.4245   11.8770 N   0  0  0  0  0  0  0  0  0  0  0  0
   -7.6324   -5.9286   12.1523 C   0  0  0  0  0  0  0  0  0  0  0  0
   -7.7357   -7.2715   12.2136 N   0  0  0  0  0  0  0  0  0  0  0  0
   -8.6807   -5.1514   12.3280 N   0  0  0  0  0  0  0  0  0  0  0  0
   -8.4856   -3.8113   12.2279 C   0  0  0  0  0  0  0  0  0  0  0  0
   -9.3635   -2.8174   12.3777 N   0  0  0  0  0  0  0  0  0  0  0  0
   -5.6927   -6.0549   11.7406 H   0  0  0  0  0  0  0  0  0  0  0  0
   -8.6039   -7.6897   12.4149 H   0  0  0  0  0  0  0  0  0  0  0  0
   -6.9430   -7.8339   12.0571 H   0  0  0  0  0  0  0  0  0  0  0  0
   -9.6446    0.1862   11.1756 C   0  0  0  0  0  0  0  0  0  0  0  0
  -10.2625    1.4755   11.5752 C   0  0  0  0  0  0  0  0  0  0  0  0
   -9.3602    2.4023   12.1352 O   0  0  0  0  0  0  0  0  0  0  0  0
   -8.7864    1.9011   13.3475 C   0  0  0  0  0  0  0  0  0  0  0  0
   -8.1657    0.5165   13.1502 C   0  0  0  0  0  0  0  0  0  0  0  0
   -8.9690   -0.3939   12.2805 N   0  0  0  0  0  0  0  0  0  0  0  0
  -13.4229   -1.8855   10.4733 C   0  0  0  0  0  0  0  0  0  0  0  0
  -12.4061   -1.4158    9.6550 O   0  0  0  0  0  0  0  0  0  0  0  0
  -12.1607   -2.0669    8.2420 P   0  0  0  0  0  0  0  0  0  0  0  0
  -11.9885   -3.5413    8.4433 O   0  0  0  0  0  0  0  0  0  0  0  0
  -13.2004   -1.6489    7.2660 O   0  0  0  0  0  0  0  0  0  0  0  0
  -11.8353   -3.9690    7.5862 H   0  0  0  0  0  0  0  0  0  0  0  0
  -10.7375   -1.4485    7.8120 O   0  0  0  0  0  0  0  0  0  0  0  0
  -10.0916   -1.5735    6.3602 P   0  0  0  0  0  0  0  0  0  0  0  0
  -10.8994   -2.5173    5.5411 O   0  0  0  0  0  0  0  0  0  0  0  0
   -9.8793   -0.2394    5.7632 O   0  0  0  0  0  0  0  0  0  0  0  0
  -10.5079   -2.5948    4.6570 H   0  0  0  0  0  0  0  0  0  0  0  0
   -8.6952   -2.1990    6.7103 O   0  0  0  0  0  0  0  0  0  0  0  0
   -7.9156   -2.5903    8.1569 P   0  0  0  0  0  0  0  0  0  0  0  0
   -9.0295   -3.4044    8.9078 O   0  0  0  0  0  0  0  0  0  0  0  0
   -6.6919   -3.5050    7.7650 O   0  0  0  0  0  0  0  0  0  0  0  0
   -7.5699   -1.2463    8.6714 O   0  0  0  0  0  0  0  0  0  0  0  0
   -8.6940   -3.6905    9.7718 H   0  0  0  0  0  0  0  0  0  0  0  0
   -6.8734   -0.8580    8.1192 H   0  0  0  0  0  0  0  0  0  0  0  0
 44 42  2  0  0  0
 45 42  1  0  0  0
 42 41  1  0  0  0
 42 43  1  0  0  0
 41 37  1  0  0  0
 39 37  2  0  0  0
 37 38  1  0  0  0
 37 36  1  0  0  0
 36 32  1  0  0  0
 34 32  2  0  0  0
 32 31  1  0  0  0
 32 33  1  0  0  0
 30 31  1  0  0  0
 30  7  1  0  0  0
  7  2  1  0  0  0
  7  5  1  0  0  0
  2  1  1  0  0  0
  6  5  1  0  0  0
  5  3  1  0  0  0
 25 24  1  0  0  0
 25 26  1  0  0  0
 24 29  1  0  0  0
  1  3  1  0  0  0
  1 20  1  0  0  0
  3  4  1  0  0  0
 26 27  1  0  0  0
 20 10  1  0  0  0
 20 19  1  0  0  0
 29 10  1  0  0  0
 29 28  1  0  0  0
 10 11  2  0  0  0
 18 19  1  0  0  0
 18 16  2  0  0  0
 19 12  2  0  0  0
 11 12  1  0  0  0
 27 28  1  0  0  0
 17 16  1  0  0  0
 16 15  1  0  0  0
 12 13  1  0  0  0
 15 13  1  0  0  0
 13 14  2  0  0  0
 15 21  1  0  0  0
 17 22  1  0  0  0
 17 23  1  0  0  0
  4  8  1  0  0  0
  6  9  1  0  0  0
 33 35  1  0  0  0
 38 40  1  0  0  0
 43 46  1  0  0  0
 45 47  1  0  0  0
M  END
> <minimizedAffinity>
-9.65222

$$$$
2R75_01G_1_614


 47 50  0  0  0  0  0  0  0  0999 V2000
   -9.2595   -4.5374   13.6202 C   0  0  0  0  0  0  0  0  0  0  0  0
   -9.4987   -3.7359   12.3683 O   0  0  0  0  0  0  0  0  0  0  0  0
  -10.4769   -4.3192   14.4637 C   0  0  0  0  0  0  0  0  0  0  0  0
  -11.1240   -5.5837   14.6785 O   0  0  0  0  0  0  0  0  0  0  0  0
  -11.3357   -3.2942   13.6855 C   0  0  0  0  0  0  0  0  0  0  0  0
  -12.7136   -3.4856   13.8838 O   0  0  0  0  0  0  0  0  0  0  0  0
  -10.9539   -3.5128   12.2776 C   0  0  0  0  0  0  0  0  0  0  0  0
  -11.3368   -5.9875   13.8226 H   0  0  0  0  0  0  0  0  0  0  0  0
  -12.9586   -4.3824   13.6068 H   0  0  0  0  0  0  0  0  0  0  0  0
   -7.4923   -2.9487   14.5560 C   0  0  0  0  0  0  0  0  0  0  0  0
   -6.2325   -3.0486   14.9742 N   0  0  0  0  0  0  0  0  0  0  0  0
   -5.8864   -4.3357   14.7779 C   0  0  0  0  0  0  0  0  0  0  0  0
   -4.7414   -5.0568   15.0663 C   0  0  0  0  0  0  0  0  0  0  0  0
   -3.6776   -4.5347   15.4998 O   0  0  0  0  0  0  0  0  0  0  0  0
   -4.7754   -6.3693   14.7733 N   0  0  0  0  0  0  0  0  0  0  0  0
   -5.8302   -6.9980   14.2710 C   0  0  0  0  0  0  0  0  0  0  0  0
   -5.7008   -8.3169   14.0227 N   0  0  0  0  0  0  0  0  0  0  0  0
   -6.9463   -6.3551   13.9978 N   0  0  0  0  0  0  0  0  0  0  0  0
   -6.9783   -5.0236   14.2625 C   0  0  0  0  0  0  0  0  0  0  0  0
   -7.9776   -4.1545   14.0983 N   0  0  0  0  0  0  0  0  0  0  0  0
   -3.9630   -6.8989   14.9430 H   0  0  0  0  0  0  0  0  0  0  0  0
   -6.4577   -8.8242   13.6498 H   0  0  0  0  0  0  0  0  0  0  0  0
   -4.8495   -8.7727   14.2143 H   0  0  0  0  0  0  0  0  0  0  0  0
   -8.8868   -1.5217   15.7827 C   0  0  0  0  0  0  0  0  0  0  0  0
   -9.1047   -0.0626   15.9485 C   0  0  0  0  0  0  0  0  0  0  0  0
   -9.6129    0.5819   14.8025 O   0  0  0  0  0  0  0  0  0  0  0  0
   -8.6975    0.4894   13.7056 C   0  0  0  0  0  0  0  0  0  0  0  0
   -8.2824   -0.9583   13.4348 C   0  0  0  0  0  0  0  0  0  0  0  0
   -8.0424   -1.7651   14.6685 N   0  0  0  0  0  0  0  0  0  0  0  0
  -11.1541   -2.2790   11.3842 C   0  0  0  0  0  0  0  0  0  0  0  0
  -10.7030   -2.5348   10.0978 O   0  0  0  0  0  0  0  0  0  0  0  0
  -11.6538   -2.3038    8.8634 P   0  0  0  0  0  0  0  0  0  0  0  0
  -11.7530   -3.5983    8.1161 O   0  0  0  0  0  0  0  0  0  0  0  0
  -12.9365   -1.6788    9.2783 O   0  0  0  0  0  0  0  0  0  0  0  0
  -12.3346   -3.4845    7.3482 H   0  0  0  0  0  0  0  0  0  0  0  0
  -10.8147   -1.2660    7.9625 O   0  0  0  0  0  0  0  0  0  0  0  0
  -10.1151   -1.6231    6.5755 P   0  0  0  0  0  0  0  0  0  0  0  0
  -11.0738   -2.3713    5.7181 O   0  0  0  0  0  0  0  0  0  0  0  0
   -9.5233   -0.4179    5.9602 O   0  0  0  0  0  0  0  0  0  0  0  0
  -10.6498   -2.5896    4.8735 H   0  0  0  0  0  0  0  0  0  0  0  0
   -8.9563   -2.5635    7.0621 O   0  0  0  0  0  0  0  0  0  0  0  0
   -7.6088   -2.3449    8.0571 P   0  0  0  0  0  0  0  0  0  0  0  0
   -8.1860   -2.7374    9.4642 O   0  0  0  0  0  0  0  0  0  0  0  0
   -6.5245   -3.3791    7.5646 O   0  0  0  0  0  0  0  0  0  0  0  0
   -7.2934   -0.9205    7.8071 O   0  0  0  0  0  0  0  0  0  0  0  0
   -7.4905   -2.6502   10.1347 H   0  0  0  0  0  0  0  0  0  0  0  0
   -6.9476   -0.8192    6.9065 H   0  0  0  0  0  0  0  0  0  0  0  0
 44 42  2  0  0  0
 45 42  1  0  0  0
 42 41  1  0  0  0
 42 43  1  0  0  0
 41 37  1  0  0  0
 39 37  2  0  0  0
 37 38  1  0  0  0
 37 36  1  0  0  0
 36 32  1  0  0  0
 34 32  2  0  0  0
 32 31  1  0  0  0
 32 33  1  0  0  0
 30 31  1  0  0  0
 30  7  1  0  0  0
  7  2  1  0  0  0
  7  5  1  0  0  0
  2  1  1  0  0  0
  6  5  1  0  0  0
  5  3  1  0  0  0
 25 24  1  0  0  0
 25 26  1  0  0  0
 24 29  1  0  0  0
  1  3  1  0  0  0
  1 20  1  0  0  0
  3  4  1  0  0  0
 26 27  1  0  0  0
 20 10  1  0  0  0
 20 19  1  0  0  0
 29 10  1  0  0  0
 29 28  1  0  0  0
 10 11  2  0  0  0
 18 19  1  0  0  0
 18 16  2  0  0  0
 19 12  2  0  0  0
 11 12  1  0  0  0
 27 28  1  0  0  0
 17 16  1  0  0  0
 16 15  1  0  0  0
 12 13  1  0  0  0
 15 13  1  0  0  0
 13 14  2  0  0  0
 15 21  1  0  0  0
 17 22  1  0  0  0
 17 23  1  0  0  0
  4  8  1  0  0  0
  6  9  1  0  0  0
 33 35  1  0  0  0
 38 40  1  0  0  0
 43 46  1  0  0  0
 45 47  1  0  0  0
M  END
> <minimizedAffinity>
-9.59665

$$$$
2R75_01G_1_614


 47 50  0  0  0  0  0  0  0  0999 V2000
  -10.2661   -2.8217   12.0759 C   0  0  0  0  0  0  0  0  0  0  0  0
  -10.8427   -1.9539   10.9889 O   0  0  0  0  0  0  0  0  0  0  0  0
  -11.4435   -3.2733   12.8826 C   0  0  0  0  0  0  0  0  0  0  0  0
  -11.5256   -4.7062   12.8197 O   0  0  0  0  0  0  0  0  0  0  0  0
  -12.6629   -2.5432   12.2712 C   0  0  0  0  0  0  0  0  0  0  0  0
  -13.8434   -3.3004   12.3593 O   0  0  0  0  0  0  0  0  0  0  0  0
  -12.2680   -2.3138   10.8686 C   0  0  0  0  0  0  0  0  0  0  0  0
  -11.5852   -4.9862   11.8929 H   0  0  0  0  0  0  0  0  0  0  0  0
  -13.7185   -4.1481   11.9047 H   0  0  0  0  0  0  0  0  0  0  0  0
   -8.0298   -2.4363   13.2477 C   0  0  0  0  0  0  0  0  0  0  0  0
   -7.3202   -1.3827   13.6455 N   0  0  0  0  0  0  0  0  0  0  0  0
   -8.0714   -0.3055   13.3451 C   0  0  0  0  0  0  0  0  0  0  0  0
   -7.8526    1.0559   13.4595 C   0  0  0  0  0  0  0  0  0  0  0  0
   -6.8493    1.5560   14.0385 O   0  0  0  0  0  0  0  0  0  0  0  0
   -8.8278    1.8563   12.9925 N   0  0  0  0  0  0  0  0  0  0  0  0
   -9.9393    1.4232   12.4120 C   0  0  0  0  0  0  0  0  0  0  0  0
  -10.8257    2.3545   12.0061 N   0  0  0  0  0  0  0  0  0  0  0  0
  -10.1808    0.1371   12.2659 N   0  0  0  0  0  0  0  0  0  0  0  0
   -9.2398   -0.7286   12.7230 C   0  0  0  0  0  0  0  0  0  0  0  0
   -9.2297   -2.0625   12.6825 N   0  0  0  0  0  0  0  0  0  0  0  0
   -8.7086    2.8289   13.0879 H   0  0  0  0  0  0  0  0  0  0  0  0
  -11.6645    2.0790   11.5704 H   0  0  0  0  0  0  0  0  0  0  0  0
  -10.6342    3.3101   12.1454 H   0  0  0  0  0  0  0  0  0  0  0  0
   -6.8127   -3.8450   14.6690 C   0  0  0  0  0  0  0  0  0  0  0  0
   -6.5853   -5.3004   14.8537 C   0  0  0  0  0  0  0  0  0  0  0  0
   -5.8826   -5.9162   13.7984 O   0  0  0  0  0  0  0  0  0  0  0  0
   -6.6121   -5.8314   12.5694 C   0  0  0  0  0  0  0  0  0  0  0  0
   -7.0169   -4.3909   12.2492 C   0  0  0  0  0  0  0  0  0  0  0  0
   -7.4734   -3.6073   13.4359 N   0  0  0  0  0  0  0  0  0  0  0  0
  -12.9706   -1.1125   10.2175 C   0  0  0  0  0  0  0  0  0  0  0  0
  -13.0284   -1.2737    8.8410 O   0  0  0  0  0  0  0  0  0  0  0  0
  -12.1334   -0.3823    7.9000 P   0  0  0  0  0  0  0  0  0  0  0  0
  -12.8069   -0.3115    6.5638 O   0  0  0  0  0  0  0  0  0  0  0  0
  -11.7985    0.9152    8.5423 O   0  0  0  0  0  0  0  0  0  0  0  0
  -12.2755    0.2333    5.9624 H   0  0  0  0  0  0  0  0  0  0  0  0
  -10.7974   -1.2674    7.7435 O   0  0  0  0  0  0  0  0  0  0  0  0
  -10.1108   -1.6418    6.3546 P   0  0  0  0  0  0  0  0  0  0  0  0
  -11.0293   -2.5097    5.5689 O   0  0  0  0  0  0  0  0  0  0  0  0
   -9.6373   -0.4282    5.6588 O   0  0  0  0  0  0  0  0  0  0  0  0
  -10.6132   -2.7387    4.7232 H   0  0  0  0  0  0  0  0  0  0  0  0
   -8.8656   -2.4587    6.8507 O   0  0  0  0  0  0  0  0  0  0  0  0
   -7.6431   -2.1628    7.9783 P   0  0  0  0  0  0  0  0  0  0  0  0
   -8.3542   -2.5458    9.3255 O   0  0  0  0  0  0  0  0  0  0  0  0
   -6.4736   -3.1635    7.6336 O   0  0  0  0  0  0  0  0  0  0  0  0
   -7.3563   -0.7331    7.7248 O   0  0  0  0  0  0  0  0  0  0  0  0
   -7.7393   -2.4150   10.0642 H   0  0  0  0  0  0  0  0  0  0  0  0
   -6.9190   -0.6387    6.8641 H   0  0  0  0  0  0  0  0  0  0  0  0
 44 42  2  0  0  0
 45 42  1  0  0  0
 42 41  1  0  0  0
 42 43  1  0  0  0
 41 37  1  0  0  0
 39 37  2  0  0  0
 37 38  1  0  0  0
 37 36  1  0  0  0
 36 32  1  0  0  0
 34 32  2  0  0  0
 32 31  1  0  0  0
 32 33  1  0  0  0
 30 31  1  0  0  0
 30  7  1  0  0  0
  7  2  1  0  0  0
  7  5  1  0  0  0
  2  1  1  0  0  0
  6  5  1  0  0  0
  5  3  1  0  0  0
 25 24  1  0  0  0
 25 26  1  0  0  0
 24 29  1  0  0  0
  1  3  1  0  0  0
  1 20  1  0  0  0
  3  4  1  0  0  0
 26 27  1  0  0  0
 20 10  1  0  0  0
 20 19  1  0  0  0
 29 10  1  0  0  0
 29 28  1  0  0  0
 10 11  2  0  0  0
 18 19  1  0  0  0
 18 16  2  0  0  0
 19 12  2  0  0  0
 11 12  1  0  0  0
 27 28  1  0  0  0
 17 16  1  0  0  0
 16 15  1  0  0  0
 12 13  1  0  0  0
 15 13  1  0  0  0
 13 14  2  0  0  0
 15 21  1  0  0  0
 17 22  1  0  0  0
 17 23  1  0  0  0
  4  8  1  0  0  0
  6  9  1  0  0  0
 33 35  1  0  0  0
 38 40  1  0  0  0
 43 46  1  0  0  0
 45 47  1  0  0  0
M  END
> <minimizedAffinity>
-9.25969

$$$$
