2R75_01G_1_614
  RCSB PDB12061706533D
Coordinates from PDB:2R75:1:614 Model:1 without hydrogens
 38 41  0  0  0  0            999 V2000
   -8.7420   -2.9100   14.4070   C 0  0  0  0  0  0  0  0  0  0  0  0
  -10.1330   -3.4170   14.2970   C 0  0  0  0  0  0  0  0  0  0  0  0
  -11.0180   -2.8970   15.2630   O 0  0  0  0  0  0  0  0  0  0  0  0
  -10.6170   -3.2660   16.5870   C 0  0  0  0  0  0  0  0  0  0  0  0
   -9.1580   -2.8950   16.8610   C 0  0  0  0  0  0  0  0  0  0  0  0
   -8.2380   -3.1480   15.7120   N 0  0  0  0  0  0  0  0  0  0  0  0
   -6.9450   -3.0570   15.9020   C 0  0  0  0  0  0  0  0  0  0  0  0
   -6.5290   -1.9910   16.5820   N 0  0  0  0  0  0  0  0  0  0  0  0
   -5.1900   -2.1140   16.6650   C 0  0  0  0  0  0  0  0  0  0  0  0
   -4.2130   -1.3620   17.2930   C 0  0  0  0  0  0  0  0  0  0  0  0
   -4.4360   -0.2520   17.8500   O 0  0  0  0  0  0  0  0  0  0  0  0
   -2.9550   -1.8310   17.2080   N 0  0  0  0  0  0  0  0  0  0  0  0
   -2.6160   -2.9620   16.6030   C 0  0  0  0  0  0  0  0  0  0  0  0
   -1.3080   -3.2890   16.5960   N 0  0  0  0  0  0  0  0  0  0  0  0
   -3.5150   -3.7180   16.0080   N 0  0  0  0  0  0  0  0  0  0  0  0
   -4.8060   -3.2990   16.0490   C 0  0  0  0  0  0  0  0  0  0  0  0
   -5.8980   -3.8800   15.5480   N 0  0  0  0  0  0  0  0  0  0  0  0
   -5.8650   -5.1340   14.8810   C 0  0  0  0  0  0  0  0  0  0  0  0
   -5.8630   -4.8270   13.4070   O 0  0  0  0  0  0  0  0  0  0  0  0
   -6.9730   -6.1220   15.0740   C 0  0  0  0  0  0  0  0  0  0  0  0
   -6.4190   -7.3450   15.5850   O 0  0  0  0  0  0  0  0  0  0  0  0
   -7.6420   -6.2630   13.6860   C 0  0  0  0  0  0  0  0  0  0  0  0
   -8.1590   -7.5510   13.4660   O 0  0  0  0  0  0  0  0  0  0  0  0
   -6.5570   -5.9440   12.7390   C 0  0  0  0  0  0  0  0  0  0  0  0
   -7.0540   -5.4070   11.3880   C 0  0  0  0  0  0  0  0  0  0  0  0
   -7.8640   -4.2970   11.5770   O 0  0  0  0  0  0  0  0  0  0  0  0
   -7.4970   -2.9230   10.9000   P 0  0  0  0  0  0  0  0  0  0  0  0
   -8.2600   -1.8470   11.6100   O 0  0  0  0  0  0  0  0  0  0  0  0
   -6.0250   -2.7410   10.8090   O 0  0  0  0  0  0  0  0  0  0  0  0
   -8.1130   -3.0840    9.4210   O 0  0  0  0  0  0  0  0  0  0  0  0
   -7.5550   -2.3550    8.1180   P 0  0  0  0  0  0  0  0  0  0  0  0
   -7.4880   -0.8890    8.3640   O 0  0  0  0  0  0  0  0  0  0  0  0
   -6.2950   -2.9790    7.6660   O 0  0  0  0  0  0  0  0  0  0  0  0
   -8.6860   -2.6920    7.0830   O 0  0  0  0  0  0  0  0  0  0  0  0
  -10.0510   -1.8660    6.5280   P 0  0  0  0  0  0  0  0  0  0  0  0
  -10.4190   -0.9860    7.7760   O 0  0  0  0  0  0  0  0  0  0  0  0
   -9.5680   -0.9810    5.3150   O 0  0  0  0  0  0  0  0  0  0  0  0
  -10.9480   -2.9910    6.1810   O 0  0  0  0  0  0  0  0  0  0  0  0
 37 35  2  0  0  0  0
 38 35  1  0  0  0  0
 35 34  1  0  0  0  0
 35 36  1  0  0  0  0
 34 31  1  0  0  0  0
 33 31  2  0  0  0  0
 31 32  1  0  0  0  0
 31 30  1  0  0  0  0
 30 27  1  0  0  0  0
 29 27  2  0  0  0  0
 27 26  1  0  0  0  0
 27 28  1  0  0  0  0
 25 26  1  0  0  0  0
 25 24  1  0  0  0  0
 24 19  1  0  0  0  0
 24 22  1  0  0  0  0
 19 18  1  0  0  0  0
 23 22  1  0  0  0  0
 22 20  1  0  0  0  0
  2  1  1  0  0  0  0
  2  3  1  0  0  0  0
  1  6  1  0  0  0  0
 18 20  1  0  0  0  0
 18 17  1  0  0  0  0
 20 21  1  0  0  0  0
  3  4  1  0  0  0  0
 17  7  1  0  0  0  0
 17 16  1  0  0  0  0
  6  7  1  0  0  0  0
  6  5  1  0  0  0  0
  7  8  2  0  0  0  0
 15 16  1  0  0  0  0
 15 13  2  0  0  0  0
 16  9  2  0  0  0  0
  8  9  1  0  0  0  0
  4  5  1  0  0  0  0
 14 13  1  0  0  0  0
 13 12  1  0  0  0  0
  9 10  1  0  0  0  0
 12 10  1  0  0  0  0
 10 11  2  0  0  0  0
A    1
CAA
A    2
CAC
A    3
OAF
A    4
CAD
A    5
CAB
A    6
NAE
A    7
C8
A    8
N7
A    9
C5
A   10
C6
A   11
O6
A   12
N1
A   13
C2
A   14
N2
A   15
N3
A   16
C4
A   17
N9
A   18
C1'
A   19
O4'
A   20
C2'
A   21
O2'
A   22
C3'
A   23
O3'
A   24
C4'
A   25
C5'
A   26
O5'
A   27
PA
A   28
O2A
A   29
O1A
A   30
O3A
A   31
PB
A   32
O2B
A   33
O1B
A   34
O3B
A   35
PG
A   36
O2G
A   37
O3G
A   38
O1G
M  END
>  <InstanceId>
2R75_01G_1_614

>  <ChemCompId>
01G

>  <PdbId>
2R75

>  <ChainId>
1

>  <ResidueNumber>
614

>  <InsertionCode>


>  <Model>
1

>  <AltIds>


>  <MissingHeavyAtoms>
0

>  <ObservedFormula>
C14 N6 O15 P3

>  <Name>
8-morpholin-4-ylguanosine 5'-(tetrahydrogen triphosphate)

>  <SystematicName>
[(2R,3S,4R,5R)-5-(2-amino-8-morpholin-4-yl-6-oxo-1H-purin-9-yl)-3,4-dihydroxy-oxolan-2-yl]methyl (hydroxy-phosphonooxy-phosphoryl) hydrogen phosphate

>  <Synonyms>


>  <Type>
NON-POLYMER

>  <Formula>
C14 H23 N6 O15 P3

>  <MolecularWeight>
608.285

>  <ModifiedDate>
2011-06-04

>  <Parent>


>  <OneLetterCode>


>  <SubcomponentList>


>  <AmbiguousFlag>


>  <InChI>
InChI=1S/C14H23N6O15P3/c15-13-17-10-7(11(23)18-13)16-14(19-1-3-31-4-2-19)20(10)12-9(22)8(21)6(33-12)5-32-37(27,28)35-38(29,30)34-36(24,25)26/h6,8-9,12,21-22H,1-5H2,(H,27,28)(H,29,30)(H2,24,25,26)(H3,15,17,18,23)/t6-,8-,9-,12-/m1/s1

>  <InChIKey>
YYAPYNUGMUZNGD-WOUKDFQISA-N

>  <SMILES>
C1COCCN1c2nc3c(n2[C@H]4[C@@H]([C@@H]([C@H](O4)CO[P@](=O)(O)O[P@](=O)(O)OP(=O)(O)O)O)O)N=C(NC3=O)N

$$$$
