1QBO_711_A_300


 39 43  0  0  0  0  0  0  0  0999 V2000
   28.0887    3.0720   57.0423 N   0  0  0  0  0  0  0  0  0  0  0  0
   28.9764    3.3734   58.2261 C   0  0  0  0  0  0  0  0  0  0  0  0
   28.7459    4.4361   59.1548 C   0  0  0  0  0  0  0  0  0  0  0  0
   30.0217    2.5490   58.3090 N   0  0  0  0  0  0  0  0  0  0  0  0
   29.9212    1.7267   57.3095 C   0  0  0  0  0  0  0  0  0  0  0  0
   30.7643    0.6649   56.9719 C   0  0  0  0  0  0  0  0  0  0  0  0
   30.5112   -0.1143   55.8388 C   0  0  0  0  0  0  0  0  0  0  0  0
   29.3773    0.1451   55.0436 C   0  0  0  0  0  0  0  0  0  0  0  0
   28.5141    1.2056   55.3786 C   0  0  0  0  0  0  0  0  0  0  0  0
   28.7888    2.0102   56.5141 C   0  0  0  0  0  0  0  0  0  0  0  0
   30.7297    2.5616   58.9930 H   0  0  0  0  0  0  0  0  0  0  0  0
   26.8559    3.7618   56.6352 C   0  0  0  0  0  0  0  0  0  0  0  0
   21.2558    1.3990   56.4188 C   0  0  0  0  0  0  0  0  0  0  0  0
   22.3888    2.0918   55.9624 C   0  0  0  0  0  0  0  0  0  0  0  0
   23.5114    2.2542   56.7937 C   0  0  0  0  0  0  0  0  0  0  0  0
   24.5744    2.9371   56.3030 C   0  0  0  0  0  0  0  0  0  0  0  0
   25.7151    3.0547   57.1388 C   0  0  0  0  0  0  0  0  0  0  0  0
   25.7152    2.4905   58.4230 C   0  0  0  0  0  0  0  0  0  0  0  0
   24.5898    1.8059   58.9010 C   0  0  0  0  0  0  0  0  0  0  0  0
   23.5048    1.6946   58.0889 C   0  0  0  0  0  0  0  0  0  0  0  0
   22.3692    1.0043   58.5549 C   0  0  0  0  0  0  0  0  0  0  0  0
   21.2387    0.8726   57.7339 C   0  0  0  0  0  0  0  0  0  0  0  0
   19.9595    2.1108   54.7029 N   0  0  0  0  0  0  0  0  0  0  0  0
   20.1987    1.2641   55.6109 C   0  0  0  0  0  0  0  0  0  0  0  0
   19.3266    0.2182   55.8048 N   0  0  0  0  0  0  0  0  0  0  0  0
   19.1768    1.9962   54.1168 H   0  0  0  0  0  0  0  0  0  0  0  0
   18.5461    0.1121   55.2142 H   0  0  0  0  0  0  0  0  0  0  0  0
   19.4829   -0.4243   56.5342 H   0  0  0  0  0  0  0  0  0  0  0  0
   29.2564   -0.6903   53.9704 O   0  0  0  0  0  0  0  0  0  0  0  0
   30.2878   -1.6818   53.9869 C   0  0  0  0  0  0  0  0  0  0  0  0
   31.4978   -1.2797   53.1599 C   0  0  0  0  0  0  0  0  0  0  0  0
   31.4883   -1.7673   51.7038 C   0  0  0  0  0  0  0  0  0  0  0  0
   31.1023   -3.1913   51.6562 N   0  0  0  0  0  0  0  0  0  0  0  0
   29.7880   -3.5380   52.2536 C   0  0  0  0  0  0  0  0  0  0  0  0
   29.7160   -3.0594   53.6878 C   0  0  0  0  0  0  0  0  0  0  0  0
   31.9012   -4.1140   51.1000 C   0  0  0  0  0  0  0  0  0  0  0  0
   33.3107   -3.8719   50.8939 N   0  0  0  0  0  0  0  0  0  0  0  0
   31.3526   -5.3710   50.6735 C   0  0  0  0  0  0  0  0  0  0  0  0
   33.7102   -3.0180   51.1777 H   0  0  0  0  0  0  0  0  0  0  0  0
 23 24  2  0  0  0
 24 25  1  0  0  0
 24 13  1  0  0  0
 13 14  2  0  0  0
 13 22  1  0  0  0
 14 15  1  0  0  0
 15 16  2  0  0  0
 15 20  1  0  0  0
 16 17  1  0  0  0
 17 18  2  0  0  0
 17 12  1  0  0  0
 18 19  1  0  0  0
 19 20  2  0  0  0
 20 21  1  0  0  0
 21 22  2  0  0  0
 12  1  1  0  0  0
  1  2  2  0  0  0
  1 10  1  0  0  0
  2  3  1  0  0  0
  2  4  1  0  0  0
  4  5  1  0  0  0
  5  6  2  0  0  0
  5 10  1  0  0  0
  6  7  1  0  0  0
  7  8  2  0  0  0
  8  9  1  0  0  0
  8 29  1  0  0  0
  9 10  2  0  0  0
 29 30  1  0  0  0
 30 31  1  0  0  0
 30 35  1  0  0  0
 31 32  1  0  0  0
 32 33  1  0  0  0
 33 34  1  0  0  0
 33 36  1  0  0  0
 34 35  1  0  0  0
 36 37  2  0  0  0
 36 38  1  0  0  0
 23 26  1  0  0  0
 25 27  1  0  0  0
 25 28  1  0  0  0
  4 11  1  0  0  0
 37 39  1  0  0  0
M  CHG 1   1   1
M  END
> <minimizedAffinity>
-10.23172

$$$$
1QBO_711_A_300


 39 43  0  0  0  0  0  0  0  0999 V2000
   26.2251    5.2902   55.0318 N   0  0  0  0  0  0  0  0  0  0  0  0
   25.3646    6.2624   54.2608 C   0  0  0  0  0  0  0  0  0  0  0  0
   24.4787    7.2080   54.8659 C   0  0  0  0  0  0  0  0  0  0  0  0
   25.5019    6.1363   52.9400 N   0  0  0  0  0  0  0  0  0  0  0  0
   26.3669    5.1873   52.7496 C   0  0  0  0  0  0  0  0  0  0  0  0
   26.8605    4.6938   51.5391 C   0  0  0  0  0  0  0  0  0  0  0  0
   27.7851    3.6452   51.5205 C   0  0  0  0  0  0  0  0  0  0  0  0
   28.2556    3.0982   52.7308 C   0  0  0  0  0  0  0  0  0  0  0  0
   27.7740    3.5933   53.9575 C   0  0  0  0  0  0  0  0  0  0  0  0
   26.8163    4.6396   53.9716 C   0  0  0  0  0  0  0  0  0  0  0  0
   25.0386    6.6595   52.2465 H   0  0  0  0  0  0  0  0  0  0  0  0
   26.3382    5.1391   56.4898 C   0  0  0  0  0  0  0  0  0  0  0  0
   21.4270    1.5548   56.3374 C   0  0  0  0  0  0  0  0  0  0  0  0
   22.2951    2.5819   55.9330 C   0  0  0  0  0  0  0  0  0  0  0  0
   23.4715    2.8505   56.6552 C   0  0  0  0  0  0  0  0  0  0  0  0
   24.2689    3.8576   56.2229 C   0  0  0  0  0  0  0  0  0  0  0  0
   25.4733    4.0872   56.9374 C   0  0  0  0  0  0  0  0  0  0  0  0
   25.7986    3.2998   58.0517 C   0  0  0  0  0  0  0  0  0  0  0  0
   24.9395    2.2781   58.4779 C   0  0  0  0  0  0  0  0  0  0  0  0
   23.7911    2.0637   57.7820 C   0  0  0  0  0  0  0  0  0  0  0  0
   22.9215    1.0363   58.1965 C   0  0  0  0  0  0  0  0  0  0  0  0
   21.7324    0.7930   57.4921 C   0  0  0  0  0  0  0  0  0  0  0  0
   19.9782    2.0738   54.6752 N   0  0  0  0  0  0  0  0  0  0  0  0
   20.3114    1.3240   55.6371 C   0  0  0  0  0  0  0  0  0  0  0  0
   19.4840    0.2876   56.0026 N   0  0  0  0  0  0  0  0  0  0  0  0
   19.1535    1.8895   54.1701 H   0  0  0  0  0  0  0  0  0  0  0  0
   18.6609    0.1113   55.4921 H   0  0  0  0  0  0  0  0  0  0  0  0
   19.7150   -0.2778   56.7747 H   0  0  0  0  0  0  0  0  0  0  0  0
   29.1512    2.0814   52.5626 O   0  0  0  0  0  0  0  0  0  0  0  0
   28.4802    0.8178   52.5512 C   0  0  0  0  0  0  0  0  0  0  0  0
   28.7194    0.0180   53.8212 C   0  0  0  0  0  0  0  0  0  0  0  0
   29.8989   -0.9637   53.7655 C   0  0  0  0  0  0  0  0  0  0  0  0
   29.8526   -1.7294   52.5043 N   0  0  0  0  0  0  0  0  0  0  0  0
   29.8710   -0.9350   51.2501 C   0  0  0  0  0  0  0  0  0  0  0  0
   28.7463    0.0779   51.2489 C   0  0  0  0  0  0  0  0  0  0  0  0
   29.7988   -3.0696   52.5017 C   0  0  0  0  0  0  0  0  0  0  0  0
   29.4435   -3.8168   53.6862 N   0  0  0  0  0  0  0  0  0  0  0  0
   30.1205   -3.7956   51.3048 C   0  0  0  0  0  0  0  0  0  0  0  0
   29.2189   -3.3418   54.5189 H   0  0  0  0  0  0  0  0  0  0  0  0
 23 24  2  0  0  0
 24 25  1  0  0  0
 24 13  1  0  0  0
 13 14  2  0  0  0
 13 22  1  0  0  0
 14 15  1  0  0  0
 15 16  2  0  0  0
 15 20  1  0  0  0
 16 17  1  0  0  0
 17 18  2  0  0  0
 17 12  1  0  0  0
 18 19  1  0  0  0
 19 20  2  0  0  0
 20 21  1  0  0  0
 21 22  2  0  0  0
 12  1  1  0  0  0
  1  2  2  0  0  0
  1 10  1  0  0  0
  2  3  1  0  0  0
  2  4  1  0  0  0
  4  5  1  0  0  0
  5  6  2  0  0  0
  5 10  1  0  0  0
  6  7  1  0  0  0
  7  8  2  0  0  0
  8  9  1  0  0  0
  8 29  1  0  0  0
  9 10  2  0  0  0
 29 30  1  0  0  0
 30 31  1  0  0  0
 30 35  1  0  0  0
 31 32  1  0  0  0
 32 33  1  0  0  0
 33 34  1  0  0  0
 33 36  1  0  0  0
 34 35  1  0  0  0
 36 37  2  0  0  0
 36 38  1  0  0  0
 23 26  1  0  0  0
 25 27  1  0  0  0
 25 28  1  0  0  0
  4 11  1  0  0  0
 37 39  1  0  0  0
M  CHG 1   1   1
M  END
> <minimizedAffinity>
-9.92670

$$$$
1QBO_711_A_300


 39 43  0  0  0  0  0  0  0  0999 V2000
   26.6398    4.6716   55.0690 N   0  0  0  0  0  0  0  0  0  0  0  0
   26.4941    5.2257   53.6718 C   0  0  0  0  0  0  0  0  0  0  0  0
   25.6897    6.3592   53.3355 C   0  0  0  0  0  0  0  0  0  0  0  0
   27.1858    4.5307   52.7675 N   0  0  0  0  0  0  0  0  0  0  0  0
   27.7816    3.5762   53.4150 C   0  0  0  0  0  0  0  0  0  0  0  0
   28.6379    2.5919   52.9148 C   0  0  0  0  0  0  0  0  0  0  0  0
   29.1817    1.6219   53.7624 C   0  0  0  0  0  0  0  0  0  0  0  0
   28.8962    1.6508   55.1419 C   0  0  0  0  0  0  0  0  0  0  0  0
   28.0430    2.6434   55.6603 C   0  0  0  0  0  0  0  0  0  0  0  0
   27.4726    3.6100   54.7929 C   0  0  0  0  0  0  0  0  0  0  0  0
   27.2349    4.7068   51.8001 H   0  0  0  0  0  0  0  0  0  0  0  0
   26.0318    5.1724   56.3103 C   0  0  0  0  0  0  0  0  0  0  0  0
   21.2617    1.4005   56.4065 C   0  0  0  0  0  0  0  0  0  0  0  0
   22.1270    2.3830   55.8990 C   0  0  0  0  0  0  0  0  0  0  0  0
   23.2332    2.8195   56.6498 C   0  0  0  0  0  0  0  0  0  0  0  0
   24.0310    3.7747   56.1129 C   0  0  0  0  0  0  0  0  0  0  0  0
   25.1668    4.1726   56.8647 C   0  0  0  0  0  0  0  0  0  0  0  0
   25.4263    3.5968   58.1171 C   0  0  0  0  0  0  0  0  0  0  0  0
   24.5680    2.6236   58.6459 C   0  0  0  0  0  0  0  0  0  0  0  0
   23.4859    2.2460   57.9139 C   0  0  0  0  0  0  0  0  0  0  0  0
   22.6183    1.2648   58.4313 C   0  0  0  0  0  0  0  0  0  0  0  0
   21.4973    0.8557   57.6928 C   0  0  0  0  0  0  0  0  0  0  0  0
   19.7616    1.7304   54.7415 N   0  0  0  0  0  0  0  0  0  0  0  0
   20.2131    1.0075   55.6753 C   0  0  0  0  0  0  0  0  0  0  0  0
   19.5810   -0.1760   55.9784 N   0  0  0  0  0  0  0  0  0  0  0  0
   18.9888    1.4258   54.2130 H   0  0  0  0  0  0  0  0  0  0  0  0
   18.8084   -0.4721   55.4448 H   0  0  0  0  0  0  0  0  0  0  0  0
   19.9011   -0.7269   56.7289 H   0  0  0  0  0  0  0  0  0  0  0  0
   29.4914    0.6445   55.8471 O   0  0  0  0  0  0  0  0  0  0  0  0
   30.4380    1.1759   56.7791 C   0  0  0  0  0  0  0  0  0  0  0  0
   31.8500    0.6728   56.5285 C   0  0  0  0  0  0  0  0  0  0  0  0
   32.2496   -0.5809   57.3201 C   0  0  0  0  0  0  0  0  0  0  0  0
   31.8453   -0.4305   58.7318 N   0  0  0  0  0  0  0  0  0  0  0  0
   30.4027   -0.1837   58.9813 C   0  0  0  0  0  0  0  0  0  0  0  0
   29.9312    1.0277   58.2058 C   0  0  0  0  0  0  0  0  0  0  0  0
   32.7395   -0.5154   59.7279 C   0  0  0  0  0  0  0  0  0  0  0  0
   33.2860   -1.7845   60.1505 N   0  0  0  0  0  0  0  0  0  0  0  0
   33.1580    0.6738   60.4161 C   0  0  0  0  0  0  0  0  0  0  0  0
   33.0146   -2.6137   59.6944 H   0  0  0  0  0  0  0  0  0  0  0  0
 23 24  2  0  0  0
 24 25  1  0  0  0
 24 13  1  0  0  0
 13 14  2  0  0  0
 13 22  1  0  0  0
 14 15  1  0  0  0
 15 16  2  0  0  0
 15 20  1  0  0  0
 16 17  1  0  0  0
 17 18  2  0  0  0
 17 12  1  0  0  0
 18 19  1  0  0  0
 19 20  2  0  0  0
 20 21  1  0  0  0
 21 22  2  0  0  0
 12  1  1  0  0  0
  1  2  2  0  0  0
  1 10  1  0  0  0
  2  3  1  0  0  0
  2  4  1  0  0  0
  4  5  1  0  0  0
  5  6  2  0  0  0
  5 10  1  0  0  0
  6  7  1  0  0  0
  7  8  2  0  0  0
  8  9  1  0  0  0
  8 29  1  0  0  0
  9 10  2  0  0  0
 29 30  1  0  0  0
 30 31  1  0  0  0
 30 35  1  0  0  0
 31 32  1  0  0  0
 32 33  1  0  0  0
 33 34  1  0  0  0
 33 36  1  0  0  0
 34 35  1  0  0  0
 36 37  2  0  0  0
 36 38  1  0  0  0
 23 26  1  0  0  0
 25 27  1  0  0  0
 25 28  1  0  0  0
  4 11  1  0  0  0
 37 39  1  0  0  0
M  CHG 1   1   1
M  END
> <minimizedAffinity>
-9.47668

$$$$
1QBO_711_A_300


 39 43  0  0  0  0  0  0  0  0999 V2000
   27.6981    3.8757   56.8606 N   0  0  0  0  0  0  0  0  0  0  0  0
   28.8493    4.0136   57.8281 C   0  0  0  0  0  0  0  0  0  0  0  0
   28.8594    4.9070   58.9447 C   0  0  0  0  0  0  0  0  0  0  0  0
   29.8773    3.2209   57.5215 N   0  0  0  0  0  0  0  0  0  0  0  0
   29.5307    2.5653   56.4560 C   0  0  0  0  0  0  0  0  0  0  0  0
   30.2586    1.5987   55.7574 C   0  0  0  0  0  0  0  0  0  0  0  0
   29.7317    1.0019   54.6079 C   0  0  0  0  0  0  0  0  0  0  0  0
   28.4404    1.3475   54.1626 C   0  0  0  0  0  0  0  0  0  0  0  0
   27.6924    2.3126   54.8633 C   0  0  0  0  0  0  0  0  0  0  0  0
   28.2409    2.9348   56.0141 C   0  0  0  0  0  0  0  0  0  0  0  0
   30.7305    3.1475   58.0073 H   0  0  0  0  0  0  0  0  0  0  0  0
   26.4083    4.5811   56.8804 C   0  0  0  0  0  0  0  0  0  0  0  0
   21.2441    1.4087   56.3741 C   0  0  0  0  0  0  0  0  0  0  0  0
   22.2715    2.2832   55.9847 C   0  0  0  0  0  0  0  0  0  0  0  0
   23.3301    2.5793   56.8618 C   0  0  0  0  0  0  0  0  0  0  0  0
   24.2909    3.4349   56.4353 C   0  0  0  0  0  0  0  0  0  0  0  0
   25.3740    3.6893   57.3161 C   0  0  0  0  0  0  0  0  0  0  0  0
   25.4208    3.0792   58.5782 C   0  0  0  0  0  0  0  0  0  0  0  0
   24.3991    2.2131   58.9897 C   0  0  0  0  0  0  0  0  0  0  0  0
   23.3692    1.9724   58.1349 C   0  0  0  0  0  0  0  0  0  0  0  0
   22.3385    1.0995   58.5339 C   0  0  0  0  0  0  0  0  0  0  0  0
   21.2672    0.8321   57.6678 C   0  0  0  0  0  0  0  0  0  0  0  0
   19.3414    0.3139   55.8148 N   0  0  0  0  0  0  0  0  0  0  0  0
   20.2453    1.1486   55.5236 C   0  0  0  0  0  0  0  0  0  0  0  0
   20.2298    1.7571   54.2901 N   0  0  0  0  0  0  0  0  0  0  0  0
   18.6133    0.1343   55.1770 H   0  0  0  0  0  0  0  0  0  0  0  0
   19.4980    1.5709   53.6585 H   0  0  0  0  0  0  0  0  0  0  0  0
   20.9505    2.3790   54.0389 H   0  0  0  0  0  0  0  0  0  0  0  0
   28.0559    0.6901   53.0293 O   0  0  0  0  0  0  0  0  0  0  0  0
   28.8568    1.0977   51.9160 C   0  0  0  0  0  0  0  0  0  0  0  0
   28.6029    2.5404   51.5110 C   0  0  0  0  0  0  0  0  0  0  0  0
   27.5433    2.7376   50.4172 C   0  0  0  0  0  0  0  0  0  0  0  0
   27.7725    1.7767   49.3203 N   0  0  0  0  0  0  0  0  0  0  0  0
   27.7704    0.3394   49.6924 C   0  0  0  0  0  0  0  0  0  0  0  0
   28.7770    0.0760   50.7918 C   0  0  0  0  0  0  0  0  0  0  0  0
   27.9692    2.1891   48.0593 C   0  0  0  0  0  0  0  0  0  0  0  0
   26.9163    2.1369   47.0712 N   0  0  0  0  0  0  0  0  0  0  0  0
   29.2596    2.6773   47.6600 C   0  0  0  0  0  0  0  0  0  0  0  0
   26.0232    1.8060   47.3205 H   0  0  0  0  0  0  0  0  0  0  0  0
 23 24  2  0  0  0
 24 25  1  0  0  0
 24 13  1  0  0  0
 13 14  2  0  0  0
 13 22  1  0  0  0
 14 15  1  0  0  0
 15 16  2  0  0  0
 15 20  1  0  0  0
 16 17  1  0  0  0
 17 18  2  0  0  0
 17 12  1  0  0  0
 18 19  1  0  0  0
 19 20  2  0  0  0
 20 21  1  0  0  0
 21 22  2  0  0  0
 12  1  1  0  0  0
  1  2  2  0  0  0
  1 10  1  0  0  0
  2  3  1  0  0  0
  2  4  1  0  0  0
  4  5  1  0  0  0
  5  6  2  0  0  0
  5 10  1  0  0  0
  6  7  1  0  0  0
  7  8  2  0  0  0
  8  9  1  0  0  0
  8 29  1  0  0  0
  9 10  2  0  0  0
 29 30  1  0  0  0
 30 31  1  0  0  0
 30 35  1  0  0  0
 31 32  1  0  0  0
 32 33  1  0  0  0
 33 34  1  0  0  0
 33 36  1  0  0  0
 34 35  1  0  0  0
 36 37  2  0  0  0
 36 38  1  0  0  0
 23 26  1  0  0  0
 25 27  1  0  0  0
 25 28  1  0  0  0
  4 11  1  0  0  0
 37 39  1  0  0  0
M  CHG 1   1   1
M  END
> <minimizedAffinity>
-9.19789

$$$$
1QBO_711_A_300


 39 43  0  0  0  0  0  0  0  0999 V2000
   27.1977    5.1872   55.4398 N   0  0  0  0  0  0  0  0  0  0  0  0
   28.2676    6.1351   55.9269 C   0  0  0  0  0  0  0  0  0  0  0  0
   28.0153    7.4653   56.3873 C   0  0  0  0  0  0  0  0  0  0  0  0
   29.4906    5.6062   55.8661 N   0  0  0  0  0  0  0  0  0  0  0  0
   29.3482    4.4045   55.3960 C   0  0  0  0  0  0  0  0  0  0  0  0
   30.3338    3.4417   55.1639 C   0  0  0  0  0  0  0  0  0  0  0  0
   29.9993    2.1927   54.6318 C   0  0  0  0  0  0  0  0  0  0  0  0
   28.6530    1.8811   54.3567 C   0  0  0  0  0  0  0  0  0  0  0  0
   27.6491    2.8386   54.5956 C   0  0  0  0  0  0  0  0  0  0  0  0
   27.9956    4.1139   55.1110 C   0  0  0  0  0  0  0  0  0  0  0  0
   30.3346    6.0411   56.1264 H   0  0  0  0  0  0  0  0  0  0  0  0
   25.7479    5.4192   55.3634 C   0  0  0  0  0  0  0  0  0  0  0  0
   21.4488    1.2956   56.5895 C   0  0  0  0  0  0  0  0  0  0  0  0
   22.1456    2.2584   55.8416 C   0  0  0  0  0  0  0  0  0  0  0  0
   23.2701    2.9077   56.3814 C   0  0  0  0  0  0  0  0  0  0  0  0
   23.9001    3.8328   55.6168 C   0  0  0  0  0  0  0  0  0  0  0  0
   25.0582    4.4472   56.1599 C   0  0  0  0  0  0  0  0  0  0  0  0
   25.5070    4.1053   57.4441 C   0  0  0  0  0  0  0  0  0  0  0  0
   24.8184    3.1558   58.2107 C   0  0  0  0  0  0  0  0  0  0  0  0
   23.7133    2.5695   57.6776 C   0  0  0  0  0  0  0  0  0  0  0  0
   23.0150    1.6095   58.4353 C   0  0  0  0  0  0  0  0  0  0  0  0
   21.8741    0.9876   57.9052 C   0  0  0  0  0  0  0  0  0  0  0  0
   19.9768   -0.4229   56.4825 N   0  0  0  0  0  0  0  0  0  0  0  0
   20.3785    0.6973   56.0556 C   0  0  0  0  0  0  0  0  0  0  0  0
   19.7367    1.2826   54.9890 N   0  0  0  0  0  0  0  0  0  0  0  0
   19.1871   -0.8494   56.0780 H   0  0  0  0  0  0  0  0  0  0  0  0
   18.9482    0.8483   54.5904 H   0  0  0  0  0  0  0  0  0  0  0  0
   20.0658    2.1357   54.6242 H   0  0  0  0  0  0  0  0  0  0  0  0
   28.4734    0.6302   53.8393 O   0  0  0  0  0  0  0  0  0  0  0  0
   29.7295    0.0565   53.4649 C   0  0  0  0  0  0  0  0  0  0  0  0
   29.9392    0.0414   51.9597 C   0  0  0  0  0  0  0  0  0  0  0  0
   29.4971   -1.2459   51.2488 C   0  0  0  0  0  0  0  0  0  0  0  0
   29.9885   -2.4219   51.9936 N   0  0  0  0  0  0  0  0  0  0  0  0
   29.5664   -2.5262   53.4133 C   0  0  0  0  0  0  0  0  0  0  0  0
   29.9469   -1.2729   54.1718 C   0  0  0  0  0  0  0  0  0  0  0  0
   30.7716   -3.3416   51.4105 C   0  0  0  0  0  0  0  0  0  0  0  0
   32.0833   -3.0095   50.9039 N   0  0  0  0  0  0  0  0  0  0  0  0
   30.3000   -4.6898   51.2592 C   0  0  0  0  0  0  0  0  0  0  0  0
   32.4288   -2.0922   50.9957 H   0  0  0  0  0  0  0  0  0  0  0  0
 23 24  2  0  0  0
 24 25  1  0  0  0
 24 13  1  0  0  0
 13 14  2  0  0  0
 13 22  1  0  0  0
 14 15  1  0  0  0
 15 16  2  0  0  0
 15 20  1  0  0  0
 16 17  1  0  0  0
 17 18  2  0  0  0
 17 12  1  0  0  0
 18 19  1  0  0  0
 19 20  2  0  0  0
 20 21  1  0  0  0
 21 22  2  0  0  0
 12  1  1  0  0  0
  1  2  2  0  0  0
  1 10  1  0  0  0
  2  3  1  0  0  0
  2  4  1  0  0  0
  4  5  1  0  0  0
  5  6  2  0  0  0
  5 10  1  0  0  0
  6  7  1  0  0  0
  7  8  2  0  0  0
  8  9  1  0  0  0
  8 29  1  0  0  0
  9 10  2  0  0  0
 29 30  1  0  0  0
 30 31  1  0  0  0
 30 35  1  0  0  0
 31 32  1  0  0  0
 32 33  1  0  0  0
 33 34  1  0  0  0
 33 36  1  0  0  0
 34 35  1  0  0  0
 36 37  2  0  0  0
 36 38  1  0  0  0
 23 26  1  0  0  0
 25 27  1  0  0  0
 25 28  1  0  0  0
  4 11  1  0  0  0
 37 39  1  0  0  0
M  CHG 1   1   1
M  END
> <minimizedAffinity>
-9.18458

$$$$
1QBO_711_A_300


 39 43  0  0  0  0  0  0  0  0999 V2000
   26.4668    4.9693   54.9589 N   0  0  0  0  0  0  0  0  0  0  0  0
   25.9835    5.8114   53.8024 C   0  0  0  0  0  0  0  0  0  0  0  0
   25.1860    6.9901   53.9433 C   0  0  0  0  0  0  0  0  0  0  0  0
   26.3647    5.3284   52.6189 N   0  0  0  0  0  0  0  0  0  0  0  0
   27.0557    4.2573   52.8647 C   0  0  0  0  0  0  0  0  0  0  0  0
   27.6869    3.4048   51.9552 C   0  0  0  0  0  0  0  0  0  0  0  0
   28.3808    2.2753   52.3999 C   0  0  0  0  0  0  0  0  0  0  0  0
   28.4790    2.0058   53.7794 C   0  0  0  0  0  0  0  0  0  0  0  0
   27.8562    2.8624   54.7068 C   0  0  0  0  0  0  0  0  0  0  0  0
   27.1311    3.9929   54.2502 C   0  0  0  0  0  0  0  0  0  0  0  0
   26.1621    5.7090   51.7338 H   0  0  0  0  0  0  0  0  0  0  0  0
   26.2453    5.1900   56.3954 C   0  0  0  0  0  0  0  0  0  0  0  0
   21.4176    1.4911   56.4359 C   0  0  0  0  0  0  0  0  0  0  0  0
   22.2788    2.4930   55.9601 C   0  0  0  0  0  0  0  0  0  0  0  0
   23.4220    2.8610   56.6918 C   0  0  0  0  0  0  0  0  0  0  0  0
   24.2140    3.8386   56.1878 C   0  0  0  0  0  0  0  0  0  0  0  0
   25.3862    4.1677   56.9167 C   0  0  0  0  0  0  0  0  0  0  0  0
   25.6862    3.5042   58.1155 C   0  0  0  0  0  0  0  0  0  0  0  0
   24.8331    2.5100   58.6129 C   0  0  0  0  0  0  0  0  0  0  0  0
   23.7158    2.1991   57.9028 C   0  0  0  0  0  0  0  0  0  0  0  0
   22.8527    1.1979   58.3886 C   0  0  0  0  0  0  0  0  0  0  0  0
   21.6957    0.8566   57.6715 C   0  0  0  0  0  0  0  0  0  0  0  0
   19.7582    0.0502   55.8866 N   0  0  0  0  0  0  0  0  0  0  0  0
   20.3336    1.1643   55.7242 C   0  0  0  0  0  0  0  0  0  0  0  0
   19.8686    2.0298   54.7615 N   0  0  0  0  0  0  0  0  0  0  0  0
   18.9611   -0.1744   55.3543 H   0  0  0  0  0  0  0  0  0  0  0  0
   19.0712    1.7964   54.2335 H   0  0  0  0  0  0  0  0  0  0  0  0
   20.3333    2.8827   54.6006 H   0  0  0  0  0  0  0  0  0  0  0  0
   29.1820    0.8716   54.0688 O   0  0  0  0  0  0  0  0  0  0  0  0
   30.2685    1.1657   54.9520 C   0  0  0  0  0  0  0  0  0  0  0  0
   31.3321    2.0341   54.3006 C   0  0  0  0  0  0  0  0  0  0  0  0
   32.4891    1.2698   53.6408 C   0  0  0  0  0  0  0  0  0  0  0  0
   32.9701    0.2101   54.5489 N   0  0  0  0  0  0  0  0  0  0  0  0
   31.9635   -0.7901   54.9858 C   0  0  0  0  0  0  0  0  0  0  0  0
   30.7757   -0.1018   55.6232 C   0  0  0  0  0  0  0  0  0  0  0  0
   34.2489    0.1608   54.9505 C   0  0  0  0  0  0  0  0  0  0  0  0
   34.7749   -0.9769   55.6692 N   0  0  0  0  0  0  0  0  0  0  0  0
   35.1243    1.2683   54.6859 C   0  0  0  0  0  0  0  0  0  0  0  0
   34.1944   -1.7482   55.8627 H   0  0  0  0  0  0  0  0  0  0  0  0
 23 24  2  0  0  0
 24 25  1  0  0  0
 24 13  1  0  0  0
 13 14  2  0  0  0
 13 22  1  0  0  0
 14 15  1  0  0  0
 15 16  2  0  0  0
 15 20  1  0  0  0
 16 17  1  0  0  0
 17 18  2  0  0  0
 17 12  1  0  0  0
 18 19  1  0  0  0
 19 20  2  0  0  0
 20 21  1  0  0  0
 21 22  2  0  0  0
 12  1  1  0  0  0
  1  2  2  0  0  0
  1 10  1  0  0  0
  2  3  1  0  0  0
  2  4  1  0  0  0
  4  5  1  0  0  0
  5  6  2  0  0  0
  5 10  1  0  0  0
  6  7  1  0  0  0
  7  8  2  0  0  0
  8  9  1  0  0  0
  8 29  1  0  0  0
  9 10  2  0  0  0
 29 30  1  0  0  0
 30 31  1  0  0  0
 30 35  1  0  0  0
 31 32  1  0  0  0
 32 33  1  0  0  0
 33 34  1  0  0  0
 33 36  1  0  0  0
 34 35  1  0  0  0
 36 37  2  0  0  0
 36 38  1  0  0  0
 23 26  1  0  0  0
 25 27  1  0  0  0
 25 28  1  0  0  0
  4 11  1  0  0  0
 37 39  1  0  0  0
M  CHG 1   1   1
M  END
> <minimizedAffinity>
-8.91714

$$$$
1QBO_711_A_300


 39 43  0  0  0  0  0  0  0  0999 V2000
   28.7241    3.5505   52.3347 N   0  0  0  0  0  0  0  0  0  0  0  0
   29.9720    4.3955   52.2405 C   0  0  0  0  0  0  0  0  0  0  0  0
   31.0291    4.1680   51.3045 C   0  0  0  0  0  0  0  0  0  0  0  0
   29.9983    5.3776   53.1428 N   0  0  0  0  0  0  0  0  0  0  0  0
   28.8976    5.2801   53.8239 C   0  0  0  0  0  0  0  0  0  0  0  0
   28.4504    6.0912   54.8702 C   0  0  0  0  0  0  0  0  0  0  0  0
   27.2345    5.8270   55.5077 C   0  0  0  0  0  0  0  0  0  0  0  0
   26.4292    4.7551   55.0742 C   0  0  0  0  0  0  0  0  0  0  0  0
   26.8634    3.9364   54.0144 C   0  0  0  0  0  0  0  0  0  0  0  0
   28.1098    4.1919   53.3874 C   0  0  0  0  0  0  0  0  0  0  0  0
   30.7116    6.0446   53.2675 H   0  0  0  0  0  0  0  0  0  0  0  0
   28.3496    2.3922   51.5104 C   0  0  0  0  0  0  0  0  0  0  0  0
   30.2353   -3.3668   52.0283 C   0  0  0  0  0  0  0  0  0  0  0  0
   29.9041   -2.1645   51.3828 C   0  0  0  0  0  0  0  0  0  0  0  0
   29.4232   -1.0664   52.1180 C   0  0  0  0  0  0  0  0  0  0  0  0
   29.1134    0.0668   51.4419 C   0  0  0  0  0  0  0  0  0  0  0  0
   28.6706    1.1791   52.2036 C   0  0  0  0  0  0  0  0  0  0  0  0
   28.5529    1.0829   53.5980 C   0  0  0  0  0  0  0  0  0  0  0  0
   28.8671   -0.1120   54.2592 C   0  0  0  0  0  0  0  0  0  0  0  0
   29.2959   -1.1694   53.5194 C   0  0  0  0  0  0  0  0  0  0  0  0
   29.6203   -2.3745   54.1720 C   0  0  0  0  0  0  0  0  0  0  0  0
   30.0688   -3.4784   53.4307 C   0  0  0  0  0  0  0  0  0  0  0  0
   30.0038   -5.4575   51.1876 N   0  0  0  0  0  0  0  0  0  0  0  0
   30.6844   -4.3985   51.3055 C   0  0  0  0  0  0  0  0  0  0  0  0
   31.9299   -4.3287   50.7259 N   0  0  0  0  0  0  0  0  0  0  0  0
   30.3494   -6.2075   50.6516 H   0  0  0  0  0  0  0  0  0  0  0  0
   32.2675   -5.0841   50.1922 H   0  0  0  0  0  0  0  0  0  0  0  0
   32.4837   -3.5235   50.8447 H   0  0  0  0  0  0  0  0  0  0  0  0
   25.2734    4.6130   55.7872 O   0  0  0  0  0  0  0  0  0  0  0  0
   24.8644    3.2422   55.8128 C   0  0  0  0  0  0  0  0  0  0  0  0
   23.3907    3.0662   55.4856 C   0  0  0  0  0  0  0  0  0  0  0  0
   22.4482    3.0421   56.6976 C   0  0  0  0  0  0  0  0  0  0  0  0
   23.0005    2.1578   57.7427 N   0  0  0  0  0  0  0  0  0  0  0  0
   24.3595    2.4924   58.2382 C   0  0  0  0  0  0  0  0  0  0  0  0
   25.3402    2.5614   57.0873 C   0  0  0  0  0  0  0  0  0  0  0  0
   22.3044    1.1125   58.2137 C   0  0  0  0  0  0  0  0  0  0  0  0
   22.8262    0.2630   59.2594 N   0  0  0  0  0  0  0  0  0  0  0  0
   21.0155    0.8041   57.6599 C   0  0  0  0  0  0  0  0  0  0  0  0
   23.7073    0.4538   59.6549 H   0  0  0  0  0  0  0  0  0  0  0  0
 23 24  2  0  0  0
 24 25  1  0  0  0
 24 13  1  0  0  0
 13 14  2  0  0  0
 13 22  1  0  0  0
 14 15  1  0  0  0
 15 16  2  0  0  0
 15 20  1  0  0  0
 16 17  1  0  0  0
 17 18  2  0  0  0
 17 12  1  0  0  0
 18 19  1  0  0  0
 19 20  2  0  0  0
 20 21  1  0  0  0
 21 22  2  0  0  0
 12  1  1  0  0  0
  1  2  2  0  0  0
  1 10  1  0  0  0
  2  3  1  0  0  0
  2  4  1  0  0  0
  4  5  1  0  0  0
  5  6  2  0  0  0
  5 10  1  0  0  0
  6  7  1  0  0  0
  7  8  2  0  0  0
  8  9  1  0  0  0
  8 29  1  0  0  0
  9 10  2  0  0  0
 29 30  1  0  0  0
 30 31  1  0  0  0
 30 35  1  0  0  0
 31 32  1  0  0  0
 32 33  1  0  0  0
 33 34  1  0  0  0
 33 36  1  0  0  0
 34 35  1  0  0  0
 36 37  2  0  0  0
 36 38  1  0  0  0
 23 26  1  0  0  0
 25 27  1  0  0  0
 25 28  1  0  0  0
  4 11  1  0  0  0
 37 39  1  0  0  0
M  CHG 1   1   1
M  END
> <minimizedAffinity>
-8.87591

$$$$
1QBO_711_A_300


 39 43  0  0  0  0  0  0  0  0999 V2000
   27.6826    4.3954   56.5439 N   0  0  0  0  0  0  0  0  0  0  0  0
   27.2009    5.7895   56.2201 C   0  0  0  0  0  0  0  0  0  0  0  0
   26.2300    6.0921   55.2147 C   0  0  0  0  0  0  0  0  0  0  0  0
   27.7938    6.7249   56.9635 N   0  0  0  0  0  0  0  0  0  0  0  0
   28.6149    6.1012   57.7523 C   0  0  0  0  0  0  0  0  0  0  0  0
   29.4536    6.6393   58.7319 C   0  0  0  0  0  0  0  0  0  0  0  0
   30.2931    5.8124   59.4844 C   0  0  0  0  0  0  0  0  0  0  0  0
   30.2741    4.4179   59.2835 C   0  0  0  0  0  0  0  0  0  0  0  0
   29.4263    3.8621   58.3067 C   0  0  0  0  0  0  0  0  0  0  0  0
   28.5951    4.7069   57.5273 C   0  0  0  0  0  0  0  0  0  0  0  0
   27.6393    7.6963   56.9223 H   0  0  0  0  0  0  0  0  0  0  0  0
   27.2574    3.1258   55.9366 C   0  0  0  0  0  0  0  0  0  0  0  0
   21.4457    1.4354   56.5344 C   0  0  0  0  0  0  0  0  0  0  0  0
   22.5910    1.9345   55.8931 C   0  0  0  0  0  0  0  0  0  0  0  0
   23.8070    2.0525   56.5896 C   0  0  0  0  0  0  0  0  0  0  0  0
   24.8784    2.5465   55.9223 C   0  0  0  0  0  0  0  0  0  0  0  0
   26.1080    2.6186   56.6269 C   0  0  0  0  0  0  0  0  0  0  0  0
   26.1851    2.2025   57.9642 C   0  0  0  0  0  0  0  0  0  0  0  0
   25.0505    1.7129   58.6250 C   0  0  0  0  0  0  0  0  0  0  0  0
   23.8792    1.6430   57.9378 C   0  0  0  0  0  0  0  0  0  0  0  0
   22.7326    1.1476   58.5885 C   0  0  0  0  0  0  0  0  0  0  0  0
   21.5132    1.0620   57.8992 C   0  0  0  0  0  0  0  0  0  0  0  0
   19.5031    0.3772   56.0466 N   0  0  0  0  0  0  0  0  0  0  0  0
   20.2999    1.3393   55.8515 C   0  0  0  0  0  0  0  0  0  0  0  0
   20.0082    2.2710   54.8825 N   0  0  0  0  0  0  0  0  0  0  0  0
   18.6637    0.3217   55.5352 H   0  0  0  0  0  0  0  0  0  0  0  0
   19.1668    2.2070   54.3755 H   0  0  0  0  0  0  0  0  0  0  0  0
   20.6410    3.0018   54.6960 H   0  0  0  0  0  0  0  0  0  0  0  0
   31.1448    3.7357   60.0841 O   0  0  0  0  0  0  0  0  0  0  0  0
   31.2679    2.3780   59.6499 C   0  0  0  0  0  0  0  0  0  0  0  0
   30.6769    1.3912   60.6434 C   0  0  0  0  0  0  0  0  0  0  0  0
   31.6669    0.8217   61.6698 C   0  0  0  0  0  0  0  0  0  0  0  0
   32.9089    0.4059   60.9888 N   0  0  0  0  0  0  0  0  0  0  0  0
   33.6193    1.4555   60.2155 C   0  0  0  0  0  0  0  0  0  0  0  0
   32.6905    2.0833   59.1985 C   0  0  0  0  0  0  0  0  0  0  0  0
   33.3636   -0.8532   61.0715 C   0  0  0  0  0  0  0  0  0  0  0  0
   33.2539   -1.7736   59.9631 N   0  0  0  0  0  0  0  0  0  0  0  0
   33.9577   -1.3199   62.2930 C   0  0  0  0  0  0  0  0  0  0  0  0
   32.8504   -1.4773   59.1154 H   0  0  0  0  0  0  0  0  0  0  0  0
 23 24  2  0  0  0
 24 25  1  0  0  0
 24 13  1  0  0  0
 13 14  2  0  0  0
 13 22  1  0  0  0
 14 15  1  0  0  0
 15 16  2  0  0  0
 15 20  1  0  0  0
 16 17  1  0  0  0
 17 18  2  0  0  0
 17 12  1  0  0  0
 18 19  1  0  0  0
 19 20  2  0  0  0
 20 21  1  0  0  0
 21 22  2  0  0  0
 12  1  1  0  0  0
  1  2  2  0  0  0
  1 10  1  0  0  0
  2  3  1  0  0  0
  2  4  1  0  0  0
  4  5  1  0  0  0
  5  6  2  0  0  0
  5 10  1  0  0  0
  6  7  1  0  0  0
  7  8  2  0  0  0
  8  9  1  0  0  0
  8 29  1  0  0  0
  9 10  2  0  0  0
 29 30  1  0  0  0
 30 31  1  0  0  0
 30 35  1  0  0  0
 31 32  1  0  0  0
 32 33  1  0  0  0
 33 34  1  0  0  0
 33 36  1  0  0  0
 34 35  1  0  0  0
 36 37  2  0  0  0
 36 38  1  0  0  0
 23 26  1  0  0  0
 25 27  1  0  0  0
 25 28  1  0  0  0
  4 11  1  0  0  0
 37 39  1  0  0  0
M  CHG 1   1   1
M  END
> <minimizedAffinity>
-8.44754

$$$$
1QBO_711_A_300


 39 43  0  0  0  0  0  0  0  0999 V2000
   31.7675    0.0143   53.8115 N   0  0  0  0  0  0  0  0  0  0  0  0
   33.2264    0.0542   54.1993 C   0  0  0  0  0  0  0  0  0  0  0  0
   34.3090   -0.0269   53.2685 C   0  0  0  0  0  0  0  0  0  0  0  0
   33.4063    0.1554   55.5171 N   0  0  0  0  0  0  0  0  0  0  0  0
   32.2221    0.1931   56.0477 C   0  0  0  0  0  0  0  0  0  0  0  0
   31.8799    0.3137   57.3970 C   0  0  0  0  0  0  0  0  0  0  0  0
   30.5395    0.3202   57.7949 C   0  0  0  0  0  0  0  0  0  0  0  0
   29.5168    0.2399   56.8290 C   0  0  0  0  0  0  0  0  0  0  0  0
   29.8480    0.1283   55.4653 C   0  0  0  0  0  0  0  0  0  0  0  0
   31.2093    0.0958   55.0679 C   0  0  0  0  0  0  0  0  0  0  0  0
   34.2671    0.1938   55.9934 H   0  0  0  0  0  0  0  0  0  0  0  0
   31.1908   -0.0894   52.4632 C   0  0  0  0  0  0  0  0  0  0  0  0
   32.8885   -5.3924   50.0163 C   0  0  0  0  0  0  0  0  0  0  0  0
   32.9931   -4.0400   50.3796 C   0  0  0  0  0  0  0  0  0  0  0  0
   31.9425   -3.3981   51.0592 C   0  0  0  0  0  0  0  0  0  0  0  0
   32.0957   -2.0900   51.3794 C   0  0  0  0  0  0  0  0  0  0  0  0
   31.0445   -1.4691   52.1026 C   0  0  0  0  0  0  0  0  0  0  0  0
   29.8961   -2.1959   52.4499 C   0  0  0  0  0  0  0  0  0  0  0  0
   29.7677   -3.5429   52.0859 C   0  0  0  0  0  0  0  0  0  0  0  0
   30.7840   -4.1287   51.3980 C   0  0  0  0  0  0  0  0  0  0  0  0
   30.6702   -5.4836   51.0309 C   0  0  0  0  0  0  0  0  0  0  0  0
   31.7074   -6.1114   50.3242 C   0  0  0  0  0  0  0  0  0  0  0  0
   33.8005   -7.1639   48.9387 N   0  0  0  0  0  0  0  0  0  0  0  0
   33.8992   -5.9777   49.3649 C   0  0  0  0  0  0  0  0  0  0  0  0
   35.0847   -5.2991   49.2034 N   0  0  0  0  0  0  0  0  0  0  0  0
   34.5543   -7.5796   48.4610 H   0  0  0  0  0  0  0  0  0  0  0  0
   35.8334   -5.7232   48.7250 H   0  0  0  0  0  0  0  0  0  0  0  0
   35.1846   -4.3894   49.5662 H   0  0  0  0  0  0  0  0  0  0  0  0
   28.2585    0.2546   57.3589 O   0  0  0  0  0  0  0  0  0  0  0  0
   27.7802    1.5976   57.4801 C   0  0  0  0  0  0  0  0  0  0  0  0
   26.7418    1.7508   58.5792 C   0  0  0  0  0  0  0  0  0  0  0  0
   25.2816    1.6065   58.1265 C   0  0  0  0  0  0  0  0  0  0  0  0
   25.0595    2.3927   56.8970 N   0  0  0  0  0  0  0  0  0  0  0  0
   25.9236    2.0591   55.7367 C   0  0  0  0  0  0  0  0  0  0  0  0
   27.3847    2.1538   56.1205 C   0  0  0  0  0  0  0  0  0  0  0  0
   24.1246    3.3527   56.8404 C   0  0  0  0  0  0  0  0  0  0  0  0
   24.4753    4.7439   56.6690 N   0  0  0  0  0  0  0  0  0  0  0  0
   22.7367    3.0077   56.9737 C   0  0  0  0  0  0  0  0  0  0  0  0
   25.4198    5.0055   56.5755 H   0  0  0  0  0  0  0  0  0  0  0  0
 23 24  2  0  0  0
 24 25  1  0  0  0
 24 13  1  0  0  0
 13 14  2  0  0  0
 13 22  1  0  0  0
 14 15  1  0  0  0
 15 16  2  0  0  0
 15 20  1  0  0  0
 16 17  1  0  0  0
 17 18  2  0  0  0
 17 12  1  0  0  0
 18 19  1  0  0  0
 19 20  2  0  0  0
 20 21  1  0  0  0
 21 22  2  0  0  0
 12  1  1  0  0  0
  1  2  2  0  0  0
  1 10  1  0  0  0
  2  3  1  0  0  0
  2  4  1  0  0  0
  4  5  1  0  0  0
  5  6  2  0  0  0
  5 10  1  0  0  0
  6  7  1  0  0  0
  7  8  2  0  0  0
  8  9  1  0  0  0
  8 29  1  0  0  0
  9 10  2  0  0  0
 29 30  1  0  0  0
 30 31  1  0  0  0
 30 35  1  0  0  0
 31 32  1  0  0  0
 32 33  1  0  0  0
 33 34  1  0  0  0
 33 36  1  0  0  0
 34 35  1  0  0  0
 36 37  2  0  0  0
 36 38  1  0  0  0
 23 26  1  0  0  0
 25 27  1  0  0  0
 25 28  1  0  0  0
  4 11  1  0  0  0
 37 39  1  0  0  0
M  CHG 1   1   1
M  END
> <minimizedAffinity>
-7.80761

$$$$
1QBO_711_A_300


 39 43  0  0  0  0  0  0  0  0999 V2000
   31.7537    0.1441   58.4130 N   0  0  0  0  0  0  0  0  0  0  0  0
   32.9954    0.7634   59.0087 C   0  0  0  0  0  0  0  0  0  0  0  0
   33.1291    1.1353   60.3831 C   0  0  0  0  0  0  0  0  0  0  0  0
   33.9616    0.9484   58.1079 N   0  0  0  0  0  0  0  0  0  0  0  0
   33.4973    0.5125   56.9766 C   0  0  0  0  0  0  0  0  0  0  0  0
   34.1367    0.4717   55.7349 C   0  0  0  0  0  0  0  0  0  0  0  0
   33.4729   -0.0202   54.6069 C   0  0  0  0  0  0  0  0  0  0  0  0
   32.1582   -0.5140   54.7218 C   0  0  0  0  0  0  0  0  0  0  0  0
   31.5064   -0.4880   55.9692 C   0  0  0  0  0  0  0  0  0  0  0  0
   32.1739    0.0360   57.1059 C   0  0  0  0  0  0  0  0  0  0  0  0
   34.8510    1.3385   58.2690 H   0  0  0  0  0  0  0  0  0  0  0  0
   30.4989   -0.2053   59.0947 C   0  0  0  0  0  0  0  0  0  0  0  0
   24.9104    2.0193   58.1948 C   0  0  0  0  0  0  0  0  0  0  0  0
   25.8979    1.0453   58.4140 C   0  0  0  0  0  0  0  0  0  0  0  0
   27.2524    1.4096   58.5153 C   0  0  0  0  0  0  0  0  0  0  0  0
   28.1631    0.4270   58.7209 C   0  0  0  0  0  0  0  0  0  0  0  0
   29.5202    0.8163   58.8636 C   0  0  0  0  0  0  0  0  0  0  0  0
   29.8834    2.1684   58.7783 C   0  0  0  0  0  0  0  0  0  0  0  0
   28.9142    3.1538   58.5480 C   0  0  0  0  0  0  0  0  0  0  0  0
   27.6162    2.7694   58.4185 C   0  0  0  0  0  0  0  0  0  0  0  0
   26.6314    3.7504   58.1923 C   0  0  0  0  0  0  0  0  0  0  0  0
   25.2846    3.3789   58.0595 C   0  0  0  0  0  0  0  0  0  0  0  0
   23.1845    0.6631   58.7548 N   0  0  0  0  0  0  0  0  0  0  0  0
   23.6300    1.6459   58.0959 C   0  0  0  0  0  0  0  0  0  0  0  0
   22.7972    2.3061   57.2226 N   0  0  0  0  0  0  0  0  0  0  0  0
   22.2391    0.4017   58.6701 H   0  0  0  0  0  0  0  0  0  0  0  0
   21.8534    2.0371   57.1440 H   0  0  0  0  0  0  0  0  0  0  0  0
   23.1448    3.0475   56.6761 H   0  0  0  0  0  0  0  0  0  0  0  0
   31.6339   -0.9595   53.5424 O   0  0  0  0  0  0  0  0  0  0  0  0
   30.2501   -0.6093   53.4438 C   0  0  0  0  0  0  0  0  0  0  0  0
   29.5041   -1.4572   52.4267 C   0  0  0  0  0  0  0  0  0  0  0  0
   29.4292   -0.8680   51.0106 C   0  0  0  0  0  0  0  0  0  0  0  0
   29.0528    0.5576   51.0818 N   0  0  0  0  0  0  0  0  0  0  0  0
   29.9415    1.4343   51.8856 C   0  0  0  0  0  0  0  0  0  0  0  0
   30.0844    0.8953   53.2928 C   0  0  0  0  0  0  0  0  0  0  0  0
   27.9665    1.0263   50.4500 C   0  0  0  0  0  0  0  0  0  0  0  0
   27.3547    2.2812   50.8225 N   0  0  0  0  0  0  0  0  0  0  0  0
   27.3718    0.2628   49.3887 C   0  0  0  0  0  0  0  0  0  0  0  0
   27.7438    2.8226   51.5469 H   0  0  0  0  0  0  0  0  0  0  0  0
 23 24  2  0  0  0
 24 25  1  0  0  0
 24 13  1  0  0  0
 13 14  2  0  0  0
 13 22  1  0  0  0
 14 15  1  0  0  0
 15 16  2  0  0  0
 15 20  1  0  0  0
 16 17  1  0  0  0
 17 18  2  0  0  0
 17 12  1  0  0  0
 18 19  1  0  0  0
 19 20  2  0  0  0
 20 21  1  0  0  0
 21 22  2  0  0  0
 12  1  1  0  0  0
  1  2  2  0  0  0
  1 10  1  0  0  0
  2  3  1  0  0  0
  2  4  1  0  0  0
  4  5  1  0  0  0
  5  6  2  0  0  0
  5 10  1  0  0  0
  6  7  1  0  0  0
  7  8  2  0  0  0
  8  9  1  0  0  0
  8 29  1  0  0  0
  9 10  2  0  0  0
 29 30  1  0  0  0
 30 31  1  0  0  0
 30 35  1  0  0  0
 31 32  1  0  0  0
 32 33  1  0  0  0
 33 34  1  0  0  0
 33 36  1  0  0  0
 34 35  1  0  0  0
 36 37  2  0  0  0
 36 38  1  0  0  0
 23 26  1  0  0  0
 25 27  1  0  0  0
 25 28  1  0  0  0
  4 11  1  0  0  0
 37 39  1  0  0  0
M  CHG 1   1   1
M  END
> <minimizedAffinity>
-7.56702

$$$$
