4E7R_0NW_H_302


 46 49  0  0  0  0  0  0  0  0999 V2000
   20.1180   -0.0901   20.4584 C   0  0  0  0  0  0  0  0  0  0  0  0
   20.1588    1.3396   20.9405 C   0  0  0  0  0  0  0  0  0  0  0  0
   20.4882    3.6893   20.6286 C   0  0  0  0  0  0  0  0  0  0  0  0
   21.7463    4.4251   20.1675 C   0  0  0  0  0  0  0  0  0  0  0  0
   21.9110    4.3288   18.6640 C   0  0  0  0  0  0  0  0  0  0  0  0
   22.1249    2.8553   18.3669 C   0  0  0  0  0  0  0  0  0  0  0  0
   20.8502    2.0955   18.7052 C   0  0  0  0  0  0  0  0  0  0  0  0
   20.5061    2.3194   20.1154 N   0  0  0  0  0  0  0  0  0  0  0  0
   19.8525    1.5990   22.0902 O   0  0  0  0  0  0  0  0  0  0  0  0
   23.1238    5.1413   18.2243 C   0  0  0  0  0  0  0  0  0  0  0  0
   23.2736    5.1925   16.7049 C   0  0  0  0  0  0  0  0  0  0  0  0
   22.7884    6.4557   16.1820 N   0  0  0  0  0  0  0  0  0  0  0  0
   21.7999    6.5610   16.4103 H   0  0  0  0  0  0  0  0  0  0  0  0
   22.9071    6.4725   15.1691 H   0  0  0  0  0  0  0  0  0  0  0  0
   20.5078   -0.9869   21.5369 N   0  0  0  0  0  0  0  0  0  0  0  0
   20.3769   -0.4738   22.4086 H   0  0  0  0  0  0  0  0  0  0  0  0
   21.9983   -1.5983   21.5759 S   0  0  0  0  0  0  0  0  0  0  0  0
   22.1384   -2.3901   22.7763 O   0  0  0  0  0  0  0  0  0  0  0  0
   22.1598   -2.4242   20.4214 O   0  0  0  0  0  0  0  0  0  0  0  0
   24.9025    0.7523   20.5139 C   0  0  0  0  0  0  0  0  0  0  0  0
   24.9311    1.7013   21.5400 C   0  0  0  0  0  0  0  0  0  0  0  0
   24.0399    1.5907   22.5965 C   0  0  0  0  0  0  0  0  0  0  0  0
   23.1069    0.5484   22.5779 C   0  0  0  0  0  0  0  0  0  0  0  0
   23.0725   -0.4041   21.5583 C   0  0  0  0  0  0  0  0  0  0  0  0
   23.9883   -0.2961   20.5185 C   0  0  0  0  0  0  0  0  0  0  0  0
   23.9893    2.5874   23.7114 C   0  0  0  0  0  0  0  0  0  0  0  0
   24.1699    2.2161   25.0358 C   0  0  0  0  0  0  0  0  0  0  0  0
   23.6983    3.9164   23.4303 C   0  0  0  0  0  0  0  0  0  0  0  0
   23.6172    4.8540   24.4614 C   0  0  0  0  0  0  0  0  0  0  0  0
   23.8083    4.4628   25.7760 C   0  0  0  0  0  0  0  0  0  0  0  0
   23.6958    5.6149   27.1433 Cl  0  0  0  0  0  0  0  0  0  0  0  0
   24.0836    3.1439   26.0614 C   0  0  0  0  0  0  0  0  0  0  0  0
   24.5506    0.5362   25.5084 Cl  0  0  0  0  0  0  0  0  0  0  0  0
   18.7383   -0.4791   19.9029 C   0  0  0  0  0  0  0  0  0  0  0  0
   16.1463    2.1607   20.7967 C   0  0  0  0  0  0  0  0  0  0  0  0
   15.5728    1.6154   21.9410 C   0  0  0  0  0  0  0  0  0  0  0  0
   16.0283    0.4019   22.4197 C   0  0  0  0  0  0  0  0  0  0  0  0
   17.0415   -0.2708   21.7591 C   0  0  0  0  0  0  0  0  0  0  0  0
   17.6176    0.2666   20.6148 C   0  0  0  0  0  0  0  0  0  0  0  0
   17.1597    1.4883   20.1300 C   0  0  0  0  0  0  0  0  0  0  0  0
   15.4059   -0.1874   23.6424 C   0  0  0  0  0  0  0  0  0  0  0  0
   14.4783    0.4886   24.3043 N   0  0  0  0  0  0  0  0  0  0  0  0
   15.7421   -1.3332   24.0292 N   0  0  0  0  0  0  0  0  0  0  0  0
   14.0676    0.1005   25.1105 H   0  0  0  0  0  0  0  0  0  0  0  0
   15.3312   -1.7209   24.8354 H   0  0  0  0  0  0  0  0  0  0  0  0
   16.4168   -1.8442   23.5262 H   0  0  0  0  0  0  0  0  0  0  0  0
 31 30  1  0  0  0
 33 27  1  0  0  0
 32 30  2  0  0  0
 32 27  1  0  0  0
 30 29  1  0  0  0
 27 26  2  0  0  0
 42 41  2  0  0  0
 43 41  1  0  0  0
 41 37  1  0  0  0
 29 28  2  0  0  0
 26 28  1  0  0  0
 26 22  1  0  0  0
 18 17  2  0  0  0
 37 36  2  0  0  0
 37 38  1  0  0  0
 22 23  2  0  0  0
 22 21  1  0  0  0
 23 24  1  0  0  0
 36 35  1  0  0  0
  9  2  2  0  0  0
 38 39  2  0  0  0
 15 17  1  0  0  0
 15  1  1  0  0  0
 17 24  1  0  0  0
 17 19  2  0  0  0
 24 25  2  0  0  0
 21 20  2  0  0  0
 35 40  2  0  0  0
  2  1  1  0  0  0
  2  8  1  0  0  0
 25 20  1  0  0  0
 39 40  1  0  0  0
 39 34  1  0  0  0
  1 34  1  0  0  0
  3  8  1  0  0  0
  3  4  1  0  0  0
  8  7  1  0  0  0
  4  5  1  0  0  0
  7  6  1  0  0  0
  5  6  1  0  0  0
  5 10  1  0  0  0
 10 11  1  0  0  0
 11 12  1  0  0  0
 42 44  1  0  0  0
 43 45  1  0  0  0
 43 46  1  0  0  0
 15 16  1  0  0  0
 12 13  1  0  0  0
 12 14  1  0  0  0
M  END
> <minimizedAffinity>
-11.09151

$$$$
4E7R_0NW_H_302


 46 49  0  0  0  0  0  0  0  0999 V2000
   23.6658    1.0905   21.3615 C   0  0  0  0  0  0  0  0  0  0  0  0
   23.9420    0.7388   22.8031 C   0  0  0  0  0  0  0  0  0  0  0  0
   23.8078    1.1312   25.1599 C   0  0  0  0  0  0  0  0  0  0  0  0
   24.3307    2.3231   25.9617 C   0  0  0  0  0  0  0  0  0  0  0  0
   23.3992    3.5120   25.8367 C   0  0  0  0  0  0  0  0  0  0  0  0
   23.4363    3.9118   24.3724 C   0  0  0  0  0  0  0  0  0  0  0  0
   22.8169    2.7963   23.5424 C   0  0  0  0  0  0  0  0  0  0  0  0
   23.5475    1.5448   23.7809 N   0  0  0  0  0  0  0  0  0  0  0  0
   24.5145   -0.3017   23.0725 O   0  0  0  0  0  0  0  0  0  0  0  0
   23.9001    4.6548   26.7126 C   0  0  0  0  0  0  0  0  0  0  0  0
   24.7383    5.6657   25.9320 C   0  0  0  0  0  0  0  0  0  0  0  0
   26.1524    5.4708   26.1906 N   0  0  0  0  0  0  0  0  0  0  0  0
   26.3373    5.6012   27.1852 H   0  0  0  0  0  0  0  0  0  0  0  0
   26.6929    6.1481   25.6526 H   0  0  0  0  0  0  0  0  0  0  0  0
   24.9151    1.3934   20.6782 N   0  0  0  0  0  0  0  0  0  0  0  0
   25.6198    0.7622   21.0593 H   0  0  0  0  0  0  0  0  0  0  0  0
   25.5328    2.8799   20.7522 S   0  0  0  0  0  0  0  0  0  0  0  0
   25.8499    3.1772   22.1302 O   0  0  0  0  0  0  0  0  0  0  0  0
   26.7217    2.8966   19.9602 O   0  0  0  0  0  0  0  0  0  0  0  0
   22.9846    5.8003   20.4960 C   0  0  0  0  0  0  0  0  0  0  0  0
   22.6213    5.7840   19.1462 C   0  0  0  0  0  0  0  0  0  0  0  0
   23.1663    4.8263   18.3046 C   0  0  0  0  0  0  0  0  0  0  0  0
   24.1011    3.9280   18.8305 C   0  0  0  0  0  0  0  0  0  0  0  0
   24.4682    3.9364   20.1770 C   0  0  0  0  0  0  0  0  0  0  0  0
   23.8948    4.8854   21.0151 C   0  0  0  0  0  0  0  0  0  0  0  0
   22.8508    4.7692   16.8431 C   0  0  0  0  0  0  0  0  0  0  0  0
   21.9633    3.8399   16.3201 C   0  0  0  0  0  0  0  0  0  0  0  0
   23.5010    5.6293   15.9671 C   0  0  0  0  0  0  0  0  0  0  0  0
   23.2413    5.5693   14.5968 C   0  0  0  0  0  0  0  0  0  0  0  0
   22.3460    4.6386   14.0970 C   0  0  0  0  0  0  0  0  0  0  0  0
   21.9876    4.4990   12.3472 Cl  0  0  0  0  0  0  0  0  0  0  0  0
   21.7087    3.7745   14.9595 C   0  0  0  0  0  0  0  0  0  0  0  0
   21.0718    2.6897   17.3557 Cl  0  0  0  0  0  0  0  0  0  0  0  0
   22.9023   -0.0226   20.6255 C   0  0  0  0  0  0  0  0  0  0  0  0
   19.2049   -0.7757   21.1235 C   0  0  0  0  0  0  0  0  0  0  0  0
   18.6401    0.4889   20.9904 C   0  0  0  0  0  0  0  0  0  0  0  0
   19.4545    1.5758   20.7368 C   0  0  0  0  0  0  0  0  0  0  0  0
   20.8239    1.4086   20.6259 C   0  0  0  0  0  0  0  0  0  0  0  0
   21.3952    0.1493   20.7595 C   0  0  0  0  0  0  0  0  0  0  0  0
   20.5770   -0.9470   21.0162 C   0  0  0  0  0  0  0  0  0  0  0  0
   18.8488    2.9342   20.6037 C   0  0  0  0  0  0  0  0  0  0  0  0
   19.6143    3.9741   20.3070 N   0  0  0  0  0  0  0  0  0  0  0  0
   17.6113    3.0876   20.7474 N   0  0  0  0  0  0  0  0  0  0  0  0
   19.2155    4.8698   20.2191 H   0  0  0  0  0  0  0  0  0  0  0  0
   17.2129    3.9836   20.6594 H   0  0  0  0  0  0  0  0  0  0  0  0
   17.0392    2.3120   20.9481 H   0  0  0  0  0  0  0  0  0  0  0  0
 31 30  1  0  0  0
 33 27  1  0  0  0
 32 30  2  0  0  0
 32 27  1  0  0  0
 30 29  1  0  0  0
 27 26  2  0  0  0
 42 41  2  0  0  0
 43 41  1  0  0  0
 41 37  1  0  0  0
 29 28  2  0  0  0
 26 28  1  0  0  0
 26 22  1  0  0  0
 18 17  2  0  0  0
 37 36  2  0  0  0
 37 38  1  0  0  0
 22 23  2  0  0  0
 22 21  1  0  0  0
 23 24  1  0  0  0
 36 35  1  0  0  0
  9  2  2  0  0  0
 38 39  2  0  0  0
 15 17  1  0  0  0
 15  1  1  0  0  0
 17 24  1  0  0  0
 17 19  2  0  0  0
 24 25  2  0  0  0
 21 20  2  0  0  0
 35 40  2  0  0  0
  2  1  1  0  0  0
  2  8  1  0  0  0
 25 20  1  0  0  0
 39 40  1  0  0  0
 39 34  1  0  0  0
  1 34  1  0  0  0
  3  8  1  0  0  0
  3  4  1  0  0  0
  8  7  1  0  0  0
  4  5  1  0  0  0
  7  6  1  0  0  0
  5  6  1  0  0  0
  5 10  1  0  0  0
 10 11  1  0  0  0
 11 12  1  0  0  0
 42 44  1  0  0  0
 43 45  1  0  0  0
 43 46  1  0  0  0
 15 16  1  0  0  0
 12 13  1  0  0  0
 12 14  1  0  0  0
M  END
> <minimizedAffinity>
-10.62483

$$$$
4E7R_0NW_H_302


 46 49  0  0  0  0  0  0  0  0999 V2000
   20.1624   -0.3972   20.2361 C   0  0  0  0  0  0  0  0  0  0  0  0
   21.0170   -1.5330   19.7285 C   0  0  0  0  0  0  0  0  0  0  0  0
   22.4035   -3.4604   20.0275 C   0  0  0  0  0  0  0  0  0  0  0  0
   23.7273   -3.5776   20.7830 C   0  0  0  0  0  0  0  0  0  0  0  0
   23.4931   -3.6683   22.2776 C   0  0  0  0  0  0  0  0  0  0  0  0
   22.8698   -2.3429   22.6777 C   0  0  0  0  0  0  0  0  0  0  0  0
   21.4935   -2.2335   22.0368 C   0  0  0  0  0  0  0  0  0  0  0  0
   21.6213   -2.3537   20.5786 N   0  0  0  0  0  0  0  0  0  0  0  0
   21.1381   -1.7097   18.5297 O   0  0  0  0  0  0  0  0  0  0  0  0
   24.8218   -3.8697   22.9972 C   0  0  0  0  0  0  0  0  0  0  0  0
   24.7284   -4.9019   24.1195 C   0  0  0  0  0  0  0  0  0  0  0  0
   23.4040   -4.9001   24.7117 N   0  0  0  0  0  0  0  0  0  0  0  0
   23.2091   -3.9797   25.1057 H   0  0  0  0  0  0  0  0  0  0  0  0
   23.3608   -5.6023   25.4502 H   0  0  0  0  0  0  0  0  0  0  0  0
   20.7910    0.8762   19.9156 N   0  0  0  0  0  0  0  0  0  0  0  0
   21.4883    0.6875   19.1955 H   0  0  0  0  0  0  0  0  0  0  0  0
   21.5314    1.7213   21.0707 S   0  0  0  0  0  0  0  0  0  0  0  0
   20.5804    1.9885   22.1251 O   0  0  0  0  0  0  0  0  0  0  0  0
   22.6073    0.9251   21.5701 O   0  0  0  0  0  0  0  0  0  0  0  0
   23.1879    5.2182   20.7307 C   0  0  0  0  0  0  0  0  0  0  0  0
   23.0897    5.4816   19.3613 C   0  0  0  0  0  0  0  0  0  0  0  0
   22.4727    4.5579   18.5315 C   0  0  0  0  0  0  0  0  0  0  0  0
   22.0031    3.3649   19.0914 C   0  0  0  0  0  0  0  0  0  0  0  0
   22.0957    3.0946   20.4575 C   0  0  0  0  0  0  0  0  0  0  0  0
   22.6935    4.0406   21.2819 C   0  0  0  0  0  0  0  0  0  0  0  0
   22.3617    4.7561   17.0526 C   0  0  0  0  0  0  0  0  0  0  0  0
   21.2749    4.2868   16.3292 C   0  0  0  0  0  0  0  0  0  0  0  0
   23.3966    5.3769   16.3644 C   0  0  0  0  0  0  0  0  0  0  0  0
   23.3234    5.5430   14.9802 C   0  0  0  0  0  0  0  0  0  0  0  0
   22.2257    5.0733   14.2788 C   0  0  0  0  0  0  0  0  0  0  0  0
   22.0843    5.2376   12.5005 Cl  0  0  0  0  0  0  0  0  0  0  0  0
   21.2031    4.4450   14.9545 C   0  0  0  0  0  0  0  0  0  0  0  0
   19.8895    3.4770   17.1135 Cl  0  0  0  0  0  0  0  0  0  0  0  0
   18.7308   -0.4499   19.6779 C   0  0  0  0  0  0  0  0  0  0  0  0
   16.6873    2.4482   21.0601 C   0  0  0  0  0  0  0  0  0  0  0  0
   16.0070    1.8375   22.1089 C   0  0  0  0  0  0  0  0  0  0  0  0
   16.2147    0.4959   22.3665 C   0  0  0  0  0  0  0  0  0  0  0  0
   17.0861   -0.2370   21.5799 C   0  0  0  0  0  0  0  0  0  0  0  0
   17.7674    0.3655   20.5297 C   0  0  0  0  0  0  0  0  0  0  0  0
   17.5590    1.7165   20.2675 C   0  0  0  0  0  0  0  0  0  0  0  0
   15.4771   -0.1612   23.4863 C   0  0  0  0  0  0  0  0  0  0  0  0
   14.5575    0.5144   24.1597 N   0  0  0  0  0  0  0  0  0  0  0  0
   15.7092   -1.3608   23.7736 N   0  0  0  0  0  0  0  0  0  0  0  0
   14.0709    0.0816   24.8980 H   0  0  0  0  0  0  0  0  0  0  0  0
   15.2224   -1.7932   24.5120 H   0  0  0  0  0  0  0  0  0  0  0  0
   16.3781   -1.8693   23.2606 H   0  0  0  0  0  0  0  0  0  0  0  0
 31 30  1  0  0  0
 33 27  1  0  0  0
 32 30  2  0  0  0
 32 27  1  0  0  0
 30 29  1  0  0  0
 27 26  2  0  0  0
 42 41  2  0  0  0
 43 41  1  0  0  0
 41 37  1  0  0  0
 29 28  2  0  0  0
 26 28  1  0  0  0
 26 22  1  0  0  0
 18 17  2  0  0  0
 37 36  2  0  0  0
 37 38  1  0  0  0
 22 23  2  0  0  0
 22 21  1  0  0  0
 23 24  1  0  0  0
 36 35  1  0  0  0
  9  2  2  0  0  0
 38 39  2  0  0  0
 15 17  1  0  0  0
 15  1  1  0  0  0
 17 24  1  0  0  0
 17 19  2  0  0  0
 24 25  2  0  0  0
 21 20  2  0  0  0
 35 40  2  0  0  0
  2  1  1  0  0  0
  2  8  1  0  0  0
 25 20  1  0  0  0
 39 40  1  0  0  0
 39 34  1  0  0  0
  1 34  1  0  0  0
  3  8  1  0  0  0
  3  4  1  0  0  0
  8  7  1  0  0  0
  4  5  1  0  0  0
  7  6  1  0  0  0
  5  6  1  0  0  0
  5 10  1  0  0  0
 10 11  1  0  0  0
 11 12  1  0  0  0
 42 44  1  0  0  0
 43 45  1  0  0  0
 43 46  1  0  0  0
 15 16  1  0  0  0
 12 13  1  0  0  0
 12 14  1  0  0  0
M  END
> <minimizedAffinity>
-10.40867

$$$$
4E7R_0NW_H_302


 46 49  0  0  0  0  0  0  0  0999 V2000
   22.1070    1.8372   20.5698 C   0  0  0  0  0  0  0  0  0  0  0  0
   21.2778    0.5983   20.8061 C   0  0  0  0  0  0  0  0  0  0  0  0
   19.2108   -0.6054   20.8791 C   0  0  0  0  0  0  0  0  0  0  0  0
   17.9708   -0.3248   21.7280 C   0  0  0  0  0  0  0  0  0  0  0  0
   17.1499    0.8021   21.1337 C   0  0  0  0  0  0  0  0  0  0  0  0
   18.0294    2.0373   21.2112 C   0  0  0  0  0  0  0  0  0  0  0  0
   19.2247    1.8484   20.2880 C   0  0  0  0  0  0  0  0  0  0  0  0
   19.9574    0.6364   20.6770 N   0  0  0  0  0  0  0  0  0  0  0  0
   21.8256   -0.4491   21.0988 O   0  0  0  0  0  0  0  0  0  0  0  0
   15.8791    1.0022   21.9517 C   0  0  0  0  0  0  0  0  0  0  0  0
   15.7794    0.0286   23.1247 C   0  0  0  0  0  0  0  0  0  0  0  0
   14.6457    0.3543   23.9691 N   0  0  0  0  0  0  0  0  0  0  0  0
   14.7599    1.2962   24.3433 H   0  0  0  0  0  0  0  0  0  0  0  0
   14.5920   -0.3131   24.7387 H   0  0  0  0  0  0  0  0  0  0  0  0
   22.9759    2.0761   21.7130 N   0  0  0  0  0  0  0  0  0  0  0  0
   22.4733    1.7498   22.5385 H   0  0  0  0  0  0  0  0  0  0  0  0
   23.4852    3.5699   22.0384 S   0  0  0  0  0  0  0  0  0  0  0  0
   24.6853    3.8223   21.2744 O   0  0  0  0  0  0  0  0  0  0  0  0
   22.4533    4.4763   21.6452 O   0  0  0  0  0  0  0  0  0  0  0  0
   23.5502    4.9027   25.6862 C   0  0  0  0  0  0  0  0  0  0  0  0
   24.2858    3.9269   26.3652 C   0  0  0  0  0  0  0  0  0  0  0  0
   24.7911    2.8427   25.6641 C   0  0  0  0  0  0  0  0  0  0  0  0
   24.5092    2.7400   24.2976 C   0  0  0  0  0  0  0  0  0  0  0  0
   23.7771    3.7103   23.6117 C   0  0  0  0  0  0  0  0  0  0  0  0
   23.2984    4.8051   24.3217 C   0  0  0  0  0  0  0  0  0  0  0  0
   25.5572    1.7432   26.3295 C   0  0  0  0  0  0  0  0  0  0  0  0
   26.9441    1.7084   26.3243 C   0  0  0  0  0  0  0  0  0  0  0  0
   24.8710    0.6921   26.9247 C   0  0  0  0  0  0  0  0  0  0  0  0
   25.5701   -0.3574   27.5236 C   0  0  0  0  0  0  0  0  0  0  0  0
   26.9548   -0.3683   27.5132 C   0  0  0  0  0  0  0  0  0  0  0  0
   27.9069   -1.6972   28.2460 Cl  0  0  0  0  0  0  0  0  0  0  0  0
   27.6399    0.6645   26.9126 C   0  0  0  0  0  0  0  0  0  0  0  0
   27.9246    3.0082   25.5899 Cl  0  0  0  0  0  0  0  0  0  0  0  0
   22.9292    1.7502   19.2736 C   0  0  0  0  0  0  0  0  0  0  0  0
   23.2523    5.0801   17.4589 C   0  0  0  0  0  0  0  0  0  0  0  0
   22.1085    5.0807   16.6668 C   0  0  0  0  0  0  0  0  0  0  0  0
   21.2380    4.0093   16.7259 C   0  0  0  0  0  0  0  0  0  0  0  0
   21.5078    2.9385   17.5603 C   0  0  0  0  0  0  0  0  0  0  0  0
   22.6490    2.9300   18.3526 C   0  0  0  0  0  0  0  0  0  0  0  0
   23.5280    4.0076   18.2940 C   0  0  0  0  0  0  0  0  0  0  0  0
   20.0155    4.0061   15.8684 C   0  0  0  0  0  0  0  0  0  0  0  0
   18.8453    4.3545   16.3829 N   0  0  0  0  0  0  0  0  0  0  0  0
   20.0998    3.6983   14.6545 N   0  0  0  0  0  0  0  0  0  0  0  0
   18.0390    4.3526   15.8180 H   0  0  0  0  0  0  0  0  0  0  0  0
   19.2932    3.6965   14.0900 H   0  0  0  0  0  0  0  0  0  0  0  0
   20.9725    3.4587   14.2669 H   0  0  0  0  0  0  0  0  0  0  0  0
 31 30  1  0  0  0
 33 27  1  0  0  0
 32 30  2  0  0  0
 32 27  1  0  0  0
 30 29  1  0  0  0
 27 26  2  0  0  0
 42 41  2  0  0  0
 43 41  1  0  0  0
 41 37  1  0  0  0
 29 28  2  0  0  0
 26 28  1  0  0  0
 26 22  1  0  0  0
 18 17  2  0  0  0
 37 36  2  0  0  0
 37 38  1  0  0  0
 22 23  2  0  0  0
 22 21  1  0  0  0
 23 24  1  0  0  0
 36 35  1  0  0  0
  9  2  2  0  0  0
 38 39  2  0  0  0
 15 17  1  0  0  0
 15  1  1  0  0  0
 17 24  1  0  0  0
 17 19  2  0  0  0
 24 25  2  0  0  0
 21 20  2  0  0  0
 35 40  2  0  0  0
  2  1  1  0  0  0
  2  8  1  0  0  0
 25 20  1  0  0  0
 39 40  1  0  0  0
 39 34  1  0  0  0
  1 34  1  0  0  0
  3  8  1  0  0  0
  3  4  1  0  0  0
  8  7  1  0  0  0
  4  5  1  0  0  0
  7  6  1  0  0  0
  5  6  1  0  0  0
  5 10  1  0  0  0
 10 11  1  0  0  0
 11 12  1  0  0  0
 42 44  1  0  0  0
 43 45  1  0  0  0
 43 46  1  0  0  0
 15 16  1  0  0  0
 12 13  1  0  0  0
 12 14  1  0  0  0
M  END
> <minimizedAffinity>
-10.09739

$$$$
4E7R_0NW_H_302


 46 49  0  0  0  0  0  0  0  0999 V2000
   20.2943   -0.4189   20.7369 C   0  0  0  0  0  0  0  0  0  0  0  0
   20.8989   -1.7814   20.9741 C   0  0  0  0  0  0  0  0  0  0  0  0
   21.9113   -3.8240   20.2464 C   0  0  0  0  0  0  0  0  0  0  0  0
   21.3498   -4.8847   19.2996 C   0  0  0  0  0  0  0  0  0  0  0  0
   21.4846   -4.4484   17.8545 C   0  0  0  0  0  0  0  0  0  0  0  0
   20.6069   -3.2177   17.7125 C   0  0  0  0  0  0  0  0  0  0  0  0
   21.1960   -2.0941   18.5534 C   0  0  0  0  0  0  0  0  0  0  0  0
   21.2958   -2.5298   19.9524 N   0  0  0  0  0  0  0  0  0  0  0  0
   21.0414   -2.1897   22.1125 O   0  0  0  0  0  0  0  0  0  0  0  0
   20.9958   -5.5593   16.9320 C   0  0  0  0  0  0  0  0  0  0  0  0
   22.0686   -6.0126   15.9432 C   0  0  0  0  0  0  0  0  0  0  0  0
   23.2545   -5.1845   16.0549 N   0  0  0  0  0  0  0  0  0  0  0  0
   23.0138   -4.2158   15.8449 H   0  0  0  0  0  0  0  0  0  0  0  0
   23.9601   -5.5104   15.3944 H   0  0  0  0  0  0  0  0  0  0  0  0
   21.2389    0.4227   20.0168 N   0  0  0  0  0  0  0  0  0  0  0  0
   21.6177   -0.1428   19.2571 H   0  0  0  0  0  0  0  0  0  0  0  0
   22.4976    1.0646   20.7916 S   0  0  0  0  0  0  0  0  0  0  0  0
   22.2564    0.9740   22.2133 O   0  0  0  0  0  0  0  0  0  0  0  0
   23.6566    0.3064   20.4411 O   0  0  0  0  0  0  0  0  0  0  0  0
   23.2019    4.8836   20.8733 C   0  0  0  0  0  0  0  0  0  0  0  0
   23.0136    5.2673   19.5423 C   0  0  0  0  0  0  0  0  0  0  0  0
   22.6365    4.3174   18.6053 C   0  0  0  0  0  0  0  0  0  0  0  0
   22.4971    2.9884   19.0194 C   0  0  0  0  0  0  0  0  0  0  0  0
   22.6816    2.5970   20.3464 C   0  0  0  0  0  0  0  0  0  0  0  0
   23.0345    3.5640   21.2803 C   0  0  0  0  0  0  0  0  0  0  0  0
   22.4504    4.6477   17.1579 C   0  0  0  0  0  0  0  0  0  0  0  0
   21.3163    4.2625   16.4577 C   0  0  0  0  0  0  0  0  0  0  0  0
   23.4598    5.3096   16.4704 C   0  0  0  0  0  0  0  0  0  0  0  0
   23.3158    5.5989   15.1123 C   0  0  0  0  0  0  0  0  0  0  0  0
   22.1720    5.2116   14.4345 C   0  0  0  0  0  0  0  0  0  0  0  0
   21.9388    5.5352   12.6879 Cl  0  0  0  0  0  0  0  0  0  0  0  0
   21.1741    4.5431   15.1082 C   0  0  0  0  0  0  0  0  0  0  0  0
   19.9581    3.4096   17.2438 Cl  0  0  0  0  0  0  0  0  0  0  0  0
   18.9562   -0.4978   19.9838 C   0  0  0  0  0  0  0  0  0  0  0  0
   16.5588    2.2955   20.9513 C   0  0  0  0  0  0  0  0  0  0  0  0
   15.8749    1.7219   22.0186 C   0  0  0  0  0  0  0  0  0  0  0  0
   16.1940    0.4396   22.4223 C   0  0  0  0  0  0  0  0  0  0  0  0
   17.1805   -0.2726   21.7626 C   0  0  0  0  0  0  0  0  0  0  0  0
   17.8662    0.2929   20.6949 C   0  0  0  0  0  0  0  0  0  0  0  0
   17.5458    1.5840   20.2856 C   0  0  0  0  0  0  0  0  0  0  0  0
   15.4530   -0.1791   23.5616 C   0  0  0  0  0  0  0  0  0  0  0  0
   14.5086    0.5076   24.1877 N   0  0  0  0  0  0  0  0  0  0  0  0
   15.7064   -1.3579   23.9103 N   0  0  0  0  0  0  0  0  0  0  0  0
   14.0198    0.1002   24.9390 H   0  0  0  0  0  0  0  0  0  0  0  0
   15.2174   -1.7649   24.6616 H   0  0  0  0  0  0  0  0  0  0  0  0
   16.3942   -1.8755   23.4325 H   0  0  0  0  0  0  0  0  0  0  0  0
 31 30  1  0  0  0
 33 27  1  0  0  0
 32 30  2  0  0  0
 32 27  1  0  0  0
 30 29  1  0  0  0
 27 26  2  0  0  0
 42 41  2  0  0  0
 43 41  1  0  0  0
 41 37  1  0  0  0
 29 28  2  0  0  0
 26 28  1  0  0  0
 26 22  1  0  0  0
 18 17  2  0  0  0
 37 36  2  0  0  0
 37 38  1  0  0  0
 22 23  2  0  0  0
 22 21  1  0  0  0
 23 24  1  0  0  0
 36 35  1  0  0  0
  9  2  2  0  0  0
 38 39  2  0  0  0
 15 17  1  0  0  0
 15  1  1  0  0  0
 17 24  1  0  0  0
 17 19  2  0  0  0
 24 25  2  0  0  0
 21 20  2  0  0  0
 35 40  2  0  0  0
  2  1  1  0  0  0
  2  8  1  0  0  0
 25 20  1  0  0  0
 39 40  1  0  0  0
 39 34  1  0  0  0
  1 34  1  0  0  0
  3  8  1  0  0  0
  3  4  1  0  0  0
  8  7  1  0  0  0
  4  5  1  0  0  0
  7  6  1  0  0  0
  5  6  1  0  0  0
  5 10  1  0  0  0
 10 11  1  0  0  0
 11 12  1  0  0  0
 42 44  1  0  0  0
 43 45  1  0  0  0
 43 46  1  0  0  0
 15 16  1  0  0  0
 12 13  1  0  0  0
 12 14  1  0  0  0
M  END
> <minimizedAffinity>
-9.65302

$$$$
4E7R_0NW_H_302


 46 49  0  0  0  0  0  0  0  0999 V2000
   23.2075    0.4634   20.9684 C   0  0  0  0  0  0  0  0  0  0  0  0
   23.9003   -0.7258   21.5882 C   0  0  0  0  0  0  0  0  0  0  0  0
   24.5832   -2.0689   23.4473 C   0  0  0  0  0  0  0  0  0  0  0  0
   25.4600   -1.6789   24.6373 C   0  0  0  0  0  0  0  0  0  0  0  0
   24.6678   -0.8883   25.6591 C   0  0  0  0  0  0  0  0  0  0  0  0
   24.2670    0.3998   24.9623 C   0  0  0  0  0  0  0  0  0  0  0  0
   23.2983    0.0685   23.8359 C   0  0  0  0  0  0  0  0  0  0  0  0
   23.9322   -0.8755   22.9065 N   0  0  0  0  0  0  0  0  0  0  0  0
   24.4177   -1.5645   20.8728 O   0  0  0  0  0  0  0  0  0  0  0  0
   25.5429   -0.5873   26.8706 C   0  0  0  0  0  0  0  0  0  0  0  0
   26.1973   -1.8424   27.4454 C   0  0  0  0  0  0  0  0  0  0  0  0
   25.7768   -2.0602   28.8166 N   0  0  0  0  0  0  0  0  0  0  0  0
   26.0555   -1.2629   29.3884 H   0  0  0  0  0  0  0  0  0  0  0  0
   26.2167   -2.9071   29.1766 H   0  0  0  0  0  0  0  0  0  0  0  0
   24.1493    1.2131   20.1497 N   0  0  0  0  0  0  0  0  0  0  0  0
   24.9222    0.5823   19.9374 H   0  0  0  0  0  0  0  0  0  0  0  0
   24.8010    2.5741   20.7150 S   0  0  0  0  0  0  0  0  0  0  0  0
   24.6431    2.5968   22.1511 O   0  0  0  0  0  0  0  0  0  0  0  0
   26.1883    2.5663   20.3738 O   0  0  0  0  0  0  0  0  0  0  0  0
   23.1249    6.0424   20.2159 C   0  0  0  0  0  0  0  0  0  0  0  0
   22.8135    6.0487   18.8531 C   0  0  0  0  0  0  0  0  0  0  0  0
   23.1126    4.9374   18.0799 C   0  0  0  0  0  0  0  0  0  0  0  0
   23.7594    3.8552   18.6864 C   0  0  0  0  0  0  0  0  0  0  0  0
   24.0725    3.8400   20.0465 C   0  0  0  0  0  0  0  0  0  0  0  0
   23.7439    4.9504   20.8153 C   0  0  0  0  0  0  0  0  0  0  0  0
   22.8401    4.8858   16.6096 C   0  0  0  0  0  0  0  0  0  0  0  0
   21.8686    4.0538   16.0724 C   0  0  0  0  0  0  0  0  0  0  0  0
   23.6134    5.6467   15.7418 C   0  0  0  0  0  0  0  0  0  0  0  0
   23.3930    5.5878   14.3645 C   0  0  0  0  0  0  0  0  0  0  0  0
   22.4128    4.7557   13.8503 C   0  0  0  0  0  0  0  0  0  0  0  0
   22.0975    4.6210   12.0919 Cl  0  0  0  0  0  0  0  0  0  0  0  0
   21.6524    3.9891   14.7052 C   0  0  0  0  0  0  0  0  0  0  0  0
   20.8172    3.0359   17.0964 Cl  0  0  0  0  0  0  0  0  0  0  0  0
   21.9767    0.0560   20.1421 C   0  0  0  0  0  0  0  0  0  0  0  0
   19.7336    3.0949   20.6105 C   0  0  0  0  0  0  0  0  0  0  0  0
   18.5578    2.5085   21.0682 C   0  0  0  0  0  0  0  0  0  0  0  0
   18.4969    1.1373   21.2269 C   0  0  0  0  0  0  0  0  0  0  0  0
   19.5954    0.3520   20.9230 C   0  0  0  0  0  0  0  0  0  0  0  0
   20.7721    0.9303   20.4637 C   0  0  0  0  0  0  0  0  0  0  0  0
   20.8355    2.3113   20.3019 C   0  0  0  0  0  0  0  0  0  0  0  0
   17.2316    0.5076   21.7089 C   0  0  0  0  0  0  0  0  0  0  0  0
   17.2281   -0.7601   22.0940 N   0  0  0  0  0  0  0  0  0  0  0  0
   16.1771    1.1852   21.7737 N   0  0  0  0  0  0  0  0  0  0  0  0
   16.3942   -1.1757   22.4119 H   0  0  0  0  0  0  0  0  0  0  0  0
   15.3434    0.7692   22.0916 H   0  0  0  0  0  0  0  0  0  0  0  0
   16.1837    2.1328   21.5065 H   0  0  0  0  0  0  0  0  0  0  0  0
 31 30  1  0  0  0
 33 27  1  0  0  0
 32 30  2  0  0  0
 32 27  1  0  0  0
 30 29  1  0  0  0
 27 26  2  0  0  0
 42 41  2  0  0  0
 43 41  1  0  0  0
 41 37  1  0  0  0
 29 28  2  0  0  0
 26 28  1  0  0  0
 26 22  1  0  0  0
 18 17  2  0  0  0
 37 36  2  0  0  0
 37 38  1  0  0  0
 22 23  2  0  0  0
 22 21  1  0  0  0
 23 24  1  0  0  0
 36 35  1  0  0  0
  9  2  2  0  0  0
 38 39  2  0  0  0
 15 17  1  0  0  0
 15  1  1  0  0  0
 17 24  1  0  0  0
 17 19  2  0  0  0
 24 25  2  0  0  0
 21 20  2  0  0  0
 35 40  2  0  0  0
  2  1  1  0  0  0
  2  8  1  0  0  0
 25 20  1  0  0  0
 39 40  1  0  0  0
 39 34  1  0  0  0
  1 34  1  0  0  0
  3  8  1  0  0  0
  3  4  1  0  0  0
  8  7  1  0  0  0
  4  5  1  0  0  0
  7  6  1  0  0  0
  5  6  1  0  0  0
  5 10  1  0  0  0
 10 11  1  0  0  0
 11 12  1  0  0  0
 42 44  1  0  0  0
 43 45  1  0  0  0
 43 46  1  0  0  0
 15 16  1  0  0  0
 12 13  1  0  0  0
 12 14  1  0  0  0
M  END
> <minimizedAffinity>
-9.40201

$$$$
4E7R_0NW_H_302


 46 49  0  0  0  0  0  0  0  0999 V2000
   24.7943    1.8798   22.8083 C   0  0  0  0  0  0  0  0  0  0  0  0
   23.9407    0.6574   23.0432 C   0  0  0  0  0  0  0  0  0  0  0  0
   23.1797   -1.5490   22.5143 C   0  0  0  0  0  0  0  0  0  0  0  0
   22.5093   -2.0476   21.2342 C   0  0  0  0  0  0  0  0  0  0  0  0
   23.5315   -2.2719   20.1380 C   0  0  0  0  0  0  0  0  0  0  0  0
   24.1124   -0.9033   19.8305 C   0  0  0  0  0  0  0  0  0  0  0  0
   24.8900   -0.4152   21.0446 C   0  0  0  0  0  0  0  0  0  0  0  0
   24.0005   -0.3761   22.2127 N   0  0  0  0  0  0  0  0  0  0  0  0
   23.2053    0.6107   24.0127 O   0  0  0  0  0  0  0  0  0  0  0  0
   22.8471   -2.8485   18.9039 C   0  0  0  0  0  0  0  0  0  0  0  0
   21.7180   -1.9563   18.3910 C   0  0  0  0  0  0  0  0  0  0  0  0
   20.8753   -2.6785   17.4567 N   0  0  0  0  0  0  0  0  0  0  0  0
   21.4336   -2.9798   16.6580 H   0  0  0  0  0  0  0  0  0  0  0  0
   20.1236   -2.0685   17.1353 H   0  0  0  0  0  0  0  0  0  0  0  0
   23.9577    2.9929   22.3834 N   0  0  0  0  0  0  0  0  0  0  0  0
   23.0119    2.6264   22.2760 H   0  0  0  0  0  0  0  0  0  0  0  0
   24.3056    3.7885   21.0259 S   0  0  0  0  0  0  0  0  0  0  0  0
   24.1954    5.2059   21.2836 O   0  0  0  0  0  0  0  0  0  0  0  0
   25.6467    3.4588   20.6603 O   0  0  0  0  0  0  0  0  0  0  0  0
   21.6520    1.8219   18.9819 C   0  0  0  0  0  0  0  0  0  0  0  0
   21.5055    2.5969   17.8276 C   0  0  0  0  0  0  0  0  0  0  0  0
   22.2684    3.7445   17.6751 C   0  0  0  0  0  0  0  0  0  0  0  0
   23.1354    4.1134   18.7094 C   0  0  0  0  0  0  0  0  0  0  0  0
   23.2889    3.3448   19.8642 C   0  0  0  0  0  0  0  0  0  0  0  0
   22.5367    2.1830   19.9926 C   0  0  0  0  0  0  0  0  0  0  0  0
   22.1407    4.6407   16.4838 C   0  0  0  0  0  0  0  0  0  0  0  0
   20.9487    4.7668   15.7853 C   0  0  0  0  0  0  0  0  0  0  0  0
   23.2553    5.3284   16.0204 C   0  0  0  0  0  0  0  0  0  0  0  0
   23.1614    6.1452   14.8922 C   0  0  0  0  0  0  0  0  0  0  0  0
   21.9596    6.2623   14.2143 C   0  0  0  0  0  0  0  0  0  0  0  0
   21.7824    7.2774   12.7489 Cl  0  0  0  0  0  0  0  0  0  0  0  0
   20.8549    5.5720   14.6615 C   0  0  0  0  0  0  0  0  0  0  0  0
   19.4554    3.9299   16.2951 Cl  0  0  0  0  0  0  0  0  0  0  0  0
   25.6171    2.2637   24.0489 C   0  0  0  0  0  0  0  0  0  0  0  0
   23.9403    5.2057   25.7864 C   0  0  0  0  0  0  0  0  0  0  0  0
   24.7242    6.2711   25.3547 C   0  0  0  0  0  0  0  0  0  0  0  0
   25.7860    6.0347   24.5028 C   0  0  0  0  0  0  0  0  0  0  0  0
   26.0733    4.7453   24.0899 C   0  0  0  0  0  0  0  0  0  0  0  0
   25.2963    3.6763   24.5183 C   0  0  0  0  0  0  0  0  0  0  0  0
   24.2269    3.9118   25.3775 C   0  0  0  0  0  0  0  0  0  0  0  0
   26.6328    7.1773   24.0475 C   0  0  0  0  0  0  0  0  0  0  0  0
   26.1978    8.4208   24.1885 N   0  0  0  0  0  0  0  0  0  0  0  0
   27.7669    6.9621   23.5547 N   0  0  0  0  0  0  0  0  0  0  0  0
   26.7556    9.1744   23.8884 H   0  0  0  0  0  0  0  0  0  0  0  0
   28.3244    7.7160   23.2548 H   0  0  0  0  0  0  0  0  0  0  0  0
   28.0989    6.0393   23.4680 H   0  0  0  0  0  0  0  0  0  0  0  0
 31 30  1  0  0  0
 33 27  1  0  0  0
 32 30  2  0  0  0
 32 27  1  0  0  0
 30 29  1  0  0  0
 27 26  2  0  0  0
 42 41  2  0  0  0
 43 41  1  0  0  0
 41 37  1  0  0  0
 29 28  2  0  0  0
 26 28  1  0  0  0
 26 22  1  0  0  0
 18 17  2  0  0  0
 37 36  2  0  0  0
 37 38  1  0  0  0
 22 23  2  0  0  0
 22 21  1  0  0  0
 23 24  1  0  0  0
 36 35  1  0  0  0
  9  2  2  0  0  0
 38 39  2  0  0  0
 15 17  1  0  0  0
 15  1  1  0  0  0
 17 24  1  0  0  0
 17 19  2  0  0  0
 24 25  2  0  0  0
 21 20  2  0  0  0
 35 40  2  0  0  0
  2  1  1  0  0  0
  2  8  1  0  0  0
 25 20  1  0  0  0
 39 40  1  0  0  0
 39 34  1  0  0  0
  1 34  1  0  0  0
  3  8  1  0  0  0
  3  4  1  0  0  0
  8  7  1  0  0  0
  4  5  1  0  0  0
  7  6  1  0  0  0
  5  6  1  0  0  0
  5 10  1  0  0  0
 10 11  1  0  0  0
 11 12  1  0  0  0
 42 44  1  0  0  0
 43 45  1  0  0  0
 43 46  1  0  0  0
 15 16  1  0  0  0
 12 13  1  0  0  0
 12 14  1  0  0  0
M  END
> <minimizedAffinity>
-9.37742

$$$$
4E7R_0NW_H_302


 46 49  0  0  0  0  0  0  0  0999 V2000
   21.8733   -0.9940   20.4449 C   0  0  0  0  0  0  0  0  0  0  0  0
   20.5175   -1.4145   20.9579 C   0  0  0  0  0  0  0  0  0  0  0  0
   18.1496   -1.1587   21.1911 C   0  0  0  0  0  0  0  0  0  0  0  0
   17.3696    0.0057   21.8015 C   0  0  0  0  0  0  0  0  0  0  0  0
   17.2736    1.1639   20.8288 C   0  0  0  0  0  0  0  0  0  0  0  0
   18.6983    1.6454   20.6200 C   0  0  0  0  0  0  0  0  0  0  0  0
   19.4862    0.5551   19.9077 C   0  0  0  0  0  0  0  0  0  0  0  0
   19.4425   -0.6794   20.7021 N   0  0  0  0  0  0  0  0  0  0  0  0
   20.4055   -2.4461   21.5953 O   0  0  0  0  0  0  0  0  0  0  0  0
   16.4200    2.2744   21.4308 C   0  0  0  0  0  0  0  0  0  0  0  0
   15.2334    1.7336   22.2266 C   0  0  0  0  0  0  0  0  0  0  0  0
   15.0999    2.4327   23.4907 N   0  0  0  0  0  0  0  0  0  0  0  0
   15.9456    2.2978   24.0448 H   0  0  0  0  0  0  0  0  0  0  0  0
   14.2971    2.0635   24.0003 H   0  0  0  0  0  0  0  0  0  0  0  0
   22.6450   -0.3923   21.5227 N   0  0  0  0  0  0  0  0  0  0  0  0
   21.9737   -0.0490   22.2096 H   0  0  0  0  0  0  0  0  0  0  0  0
   23.6530    0.8250   21.2082 S   0  0  0  0  0  0  0  0  0  0  0  0
   24.4687    1.0594   22.3775 O   0  0  0  0  0  0  0  0  0  0  0  0
   24.4748    0.4353   20.1064 O   0  0  0  0  0  0  0  0  0  0  0  0
   21.3818    3.9650   21.4716 C   0  0  0  0  0  0  0  0  0  0  0  0
   21.3583    4.4479   20.1600 C   0  0  0  0  0  0  0  0  0  0  0  0
   22.0474    3.7652   19.1692 C   0  0  0  0  0  0  0  0  0  0  0  0
   22.7832    2.6304   19.5273 C   0  0  0  0  0  0  0  0  0  0  0  0
   22.8108    2.1406   20.8339 C   0  0  0  0  0  0  0  0  0  0  0  0
   22.0947    2.8202   21.8123 C   0  0  0  0  0  0  0  0  0  0  0  0
   22.0956    4.2413   17.7516 C   0  0  0  0  0  0  0  0  0  0  0  0
   21.0573    4.0043   16.8626 C   0  0  0  0  0  0  0  0  0  0  0  0
   23.2312    4.8914   17.2848 C   0  0  0  0  0  0  0  0  0  0  0  0
   23.3055    5.3155   15.9569 C   0  0  0  0  0  0  0  0  0  0  0  0
   22.2541    5.0750   15.0884 C   0  0  0  0  0  0  0  0  0  0  0  0
   22.2995    5.5757   13.3688 Cl  0  0  0  0  0  0  0  0  0  0  0  0
   21.1316    4.4188   15.5424 C   0  0  0  0  0  0  0  0  0  0  0  0
   19.5520    3.1800   17.3575 Cl  0  0  0  0  0  0  0  0  0  0  0  0
   22.6462   -2.1633   19.8131 C   0  0  0  0  0  0  0  0  0  0  0  0
   22.9079   -1.5845   16.0605 C   0  0  0  0  0  0  0  0  0  0  0  0
   21.9150   -2.4301   15.5757 C   0  0  0  0  0  0  0  0  0  0  0  0
   21.1645   -3.1784   16.4622 C   0  0  0  0  0  0  0  0  0  0  0  0
   21.4060   -3.0944   17.8224 C   0  0  0  0  0  0  0  0  0  0  0  0
   22.3971   -2.2538   18.3136 C   0  0  0  0  0  0  0  0  0  0  0  0
   23.1552   -1.4998   17.4225 C   0  0  0  0  0  0  0  0  0  0  0  0
   20.1055   -4.0930   15.9407 C   0  0  0  0  0  0  0  0  0  0  0  0
   19.3538   -4.7844   16.7846 N   0  0  0  0  0  0  0  0  0  0  0  0
   19.9098   -4.1880   14.7045 N   0  0  0  0  0  0  0  0  0  0  0  0
   18.6555   -5.3875   16.4413 H   0  0  0  0  0  0  0  0  0  0  0  0
   19.2113   -4.7912   14.3616 H   0  0  0  0  0  0  0  0  0  0  0  0
   20.4547   -3.6593   14.0778 H   0  0  0  0  0  0  0  0  0  0  0  0
 31 30  1  0  0  0
 33 27  1  0  0  0
 32 30  2  0  0  0
 32 27  1  0  0  0
 30 29  1  0  0  0
 27 26  2  0  0  0
 42 41  2  0  0  0
 43 41  1  0  0  0
 41 37  1  0  0  0
 29 28  2  0  0  0
 26 28  1  0  0  0
 26 22  1  0  0  0
 18 17  2  0  0  0
 37 36  2  0  0  0
 37 38  1  0  0  0
 22 23  2  0  0  0
 22 21  1  0  0  0
 23 24  1  0  0  0
 36 35  1  0  0  0
  9  2  2  0  0  0
 38 39  2  0  0  0
 15 17  1  0  0  0
 15  1  1  0  0  0
 17 24  1  0  0  0
 17 19  2  0  0  0
 24 25  2  0  0  0
 21 20  2  0  0  0
 35 40  2  0  0  0
  2  1  1  0  0  0
  2  8  1  0  0  0
 25 20  1  0  0  0
 39 40  1  0  0  0
 39 34  1  0  0  0
  1 34  1  0  0  0
  3  8  1  0  0  0
  3  4  1  0  0  0
  8  7  1  0  0  0
  4  5  1  0  0  0
  7  6  1  0  0  0
  5  6  1  0  0  0
  5 10  1  0  0  0
 10 11  1  0  0  0
 11 12  1  0  0  0
 42 44  1  0  0  0
 43 45  1  0  0  0
 43 46  1  0  0  0
 15 16  1  0  0  0
 12 13  1  0  0  0
 12 14  1  0  0  0
M  END
> <minimizedAffinity>
-9.34144

$$$$
4E7R_0NW_H_302


 46 49  0  0  0  0  0  0  0  0999 V2000
   21.2045    2.7026   19.7428 C   0  0  0  0  0  0  0  0  0  0  0  0
   20.1790    3.2661   18.7895 C   0  0  0  0  0  0  0  0  0  0  0  0
   19.3692    3.8167   16.6059 C   0  0  0  0  0  0  0  0  0  0  0  0
   19.9903    4.7449   15.5621 C   0  0  0  0  0  0  0  0  0  0  0  0
   21.1261    4.0571   14.8315 C   0  0  0  0  0  0  0  0  0  0  0  0
   22.1912    3.7940   15.8811 C   0  0  0  0  0  0  0  0  0  0  0  0
   21.6545    2.7817   16.8831 C   0  0  0  0  0  0  0  0  0  0  0  0
   20.4171    3.2962   17.4842 N   0  0  0  0  0  0  0  0  0  0  0  0
   19.1168    3.6789   19.2188 O   0  0  0  0  0  0  0  0  0  0  0  0
   21.6691    4.9741   13.7413 C   0  0  0  0  0  0  0  0  0  0  0  0
   22.0898    6.3396   14.2818 C   0  0  0  0  0  0  0  0  0  0  0  0
   21.3791    7.4045   13.5995 N   0  0  0  0  0  0  0  0  0  0  0  0
   21.5953    7.3737   12.6032 H   0  0  0  0  0  0  0  0  0  0  0  0
   21.6670    8.3051   13.9823 H   0  0  0  0  0  0  0  0  0  0  0  0
   22.3069    3.6413   19.8947 N   0  0  0  0  0  0  0  0  0  0  0  0
   22.4106    4.1211   19.0006 H   0  0  0  0  0  0  0  0  0  0  0  0
   23.7693    3.1050   20.3076 S   0  0  0  0  0  0  0  0  0  0  0  0
   23.7323    1.6614   20.3552 O   0  0  0  0  0  0  0  0  0  0  0  0
   24.6906    3.5397   19.3060 O   0  0  0  0  0  0  0  0  0  0  0  0
   24.5850    5.5846   23.1840 C   0  0  0  0  0  0  0  0  0  0  0  0
   24.8876    4.7374   24.2541 C   0  0  0  0  0  0  0  0  0  0  0  0
   24.8585    3.3640   24.0661 C   0  0  0  0  0  0  0  0  0  0  0  0
   24.4832    2.8684   22.8128 C   0  0  0  0  0  0  0  0  0  0  0  0
   24.1810    3.7071   21.7388 C   0  0  0  0  0  0  0  0  0  0  0  0
   24.2391    5.0820   21.9340 C   0  0  0  0  0  0  0  0  0  0  0  0
   25.1370    2.3965   25.1729 C   0  0  0  0  0  0  0  0  0  0  0  0
   26.3824    1.8075   25.3363 C   0  0  0  0  0  0  0  0  0  0  0  0
   24.1118    2.0266   26.0344 C   0  0  0  0  0  0  0  0  0  0  0  0
   24.3463    1.1021   27.0539 C   0  0  0  0  0  0  0  0  0  0  0  0
   25.5993    0.5320   27.2034 C   0  0  0  0  0  0  0  0  0  0  0  0
   25.9556   -0.6753   28.4782 Cl  0  0  0  0  0  0  0  0  0  0  0  0
   26.6156    0.8850   26.3436 C   0  0  0  0  0  0  0  0  0  0  0  0
   27.7701    2.2126   24.2872 Cl  0  0  0  0  0  0  0  0  0  0  0  0
   20.5984    2.3534   21.1119 C   0  0  0  0  0  0  0  0  0  0  0  0
   19.2874   -1.1181   20.2660 C   0  0  0  0  0  0  0  0  0  0  0  0
   18.0432   -1.1082   20.8887 C   0  0  0  0  0  0  0  0  0  0  0  0
   17.6330    0.0194   21.5739 C   0  0  0  0  0  0  0  0  0  0  0  0
   18.4589    1.1275   21.6482 C   0  0  0  0  0  0  0  0  0  0  0  0
   19.7034    1.1242   21.0307 C   0  0  0  0  0  0  0  0  0  0  0  0
   20.1193   -0.0109   20.3409 C   0  0  0  0  0  0  0  0  0  0  0  0
   16.3016    0.0260   22.2500 C   0  0  0  0  0  0  0  0  0  0  0  0
   15.9745   -0.9561   23.0770 N   0  0  0  0  0  0  0  0  0  0  0  0
   15.5024    0.9740   22.0555 N   0  0  0  0  0  0  0  0  0  0  0  0
   15.0968   -0.9522   23.5231 H   0  0  0  0  0  0  0  0  0  0  0  0
   14.6248    0.9775   22.5017 H   0  0  0  0  0  0  0  0  0  0  0  0
   15.7530    1.7141   21.4566 H   0  0  0  0  0  0  0  0  0  0  0  0
 31 30  1  0  0  0
 33 27  1  0  0  0
 32 30  2  0  0  0
 32 27  1  0  0  0
 30 29  1  0  0  0
 27 26  2  0  0  0
 42 41  2  0  0  0
 43 41  1  0  0  0
 41 37  1  0  0  0
 29 28  2  0  0  0
 26 28  1  0  0  0
 26 22  1  0  0  0
 18 17  2  0  0  0
 37 36  2  0  0  0
 37 38  1  0  0  0
 22 23  2  0  0  0
 22 21  1  0  0  0
 23 24  1  0  0  0
 36 35  1  0  0  0
  9  2  2  0  0  0
 38 39  2  0  0  0
 15 17  1  0  0  0
 15  1  1  0  0  0
 17 24  1  0  0  0
 17 19  2  0  0  0
 24 25  2  0  0  0
 21 20  2  0  0  0
 35 40  2  0  0  0
  2  1  1  0  0  0
  2  8  1  0  0  0
 25 20  1  0  0  0
 39 40  1  0  0  0
 39 34  1  0  0  0
  1 34  1  0  0  0
  3  8  1  0  0  0
  3  4  1  0  0  0
  8  7  1  0  0  0
  4  5  1  0  0  0
  7  6  1  0  0  0
  5  6  1  0  0  0
  5 10  1  0  0  0
 10 11  1  0  0  0
 11 12  1  0  0  0
 42 44  1  0  0  0
 43 45  1  0  0  0
 43 46  1  0  0  0
 15 16  1  0  0  0
 12 13  1  0  0  0
 12 14  1  0  0  0
M  END
> <minimizedAffinity>
-9.32469

$$$$
4E7R_0NW_H_302


 46 49  0  0  0  0  0  0  0  0999 V2000
   23.5033    0.0157   22.1160 C   0  0  0  0  0  0  0  0  0  0  0  0
   24.3443    0.3708   23.3179 C   0  0  0  0  0  0  0  0  0  0  0  0
   24.7971    1.6053   25.3174 C   0  0  0  0  0  0  0  0  0  0  0  0
   24.9561    3.1155   25.4929 C   0  0  0  0  0  0  0  0  0  0  0  0
   23.6062    3.8036   25.5222 C   0  0  0  0  0  0  0  0  0  0  0  0
   22.9993    3.5781   24.1489 C   0  0  0  0  0  0  0  0  0  0  0  0
   22.7164    2.0927   23.9743 C   0  0  0  0  0  0  0  0  0  0  0  0
   23.9615    1.3333   24.1476 N   0  0  0  0  0  0  0  0  0  0  0  0
   25.3725   -0.2430   23.5390 O   0  0  0  0  0  0  0  0  0  0  0  0
   23.7919    5.2941   25.7831 C   0  0  0  0  0  0  0  0  0  0  0  0
   25.2425    5.7414   25.6113 C   0  0  0  0  0  0  0  0  0  0  0  0
   25.4404    6.3596   24.3140 N   0  0  0  0  0  0  0  0  0  0  0  0
   25.2238    5.6857   23.5796 H   0  0  0  0  0  0  0  0  0  0  0  0
   26.4113    6.6594   24.2247 H   0  0  0  0  0  0  0  0  0  0  0  0
   23.7674    0.9525   21.0334 N   0  0  0  0  0  0  0  0  0  0  0  0
   24.1571    1.7931   21.4597 H   0  0  0  0  0  0  0  0  0  0  0  0
   22.5654    1.4319   20.0730 S   0  0  0  0  0  0  0  0  0  0  0  0
   22.5306    0.5682   18.9152 O   0  0  0  0  0  0  0  0  0  0  0  0
   21.3471    1.3146   20.8098 O   0  0  0  0  0  0  0  0  0  0  0  0
   23.4677    5.2091   20.1501 C   0  0  0  0  0  0  0  0  0  0  0  0
   23.2252    5.6179   18.8354 C   0  0  0  0  0  0  0  0  0  0  0  0
   22.7480    4.6997   17.9125 C   0  0  0  0  0  0  0  0  0  0  0  0
   22.5642    3.3745   18.3216 C   0  0  0  0  0  0  0  0  0  0  0  0
   22.8024    2.9583   19.6323 C   0  0  0  0  0  0  0  0  0  0  0  0
   23.2560    3.8948   20.5536 C   0  0  0  0  0  0  0  0  0  0  0  0
   22.4983    5.0564   16.4811 C   0  0  0  0  0  0  0  0  0  0  0  0
   21.3099    4.7350   15.8416 C   0  0  0  0  0  0  0  0  0  0  0  0
   23.4992    5.6776   15.7446 C   0  0  0  0  0  0  0  0  0  0  0  0
   23.2944    5.9903   14.3995 C   0  0  0  0  0  0  0  0  0  0  0  0
   22.0974    5.6668   13.7830 C   0  0  0  0  0  0  0  0  0  0  0  0
   21.7838    6.0229   12.0555 Cl  0  0  0  0  0  0  0  0  0  0  0  0
   21.1069    5.0387   14.5050 C   0  0  0  0  0  0  0  0  0  0  0  0
   19.9573    3.9387   16.6941 Cl  0  0  0  0  0  0  0  0  0  0  0  0
   23.7348   -1.4307   21.6489 C   0  0  0  0  0  0  0  0  0  0  0  0
   21.2008   -4.1079   20.7020 C   0  0  0  0  0  0  0  0  0  0  0  0
   20.0076   -3.3937   20.7459 C   0  0  0  0  0  0  0  0  0  0  0  0
   20.0280   -2.0522   21.0765 C   0  0  0  0  0  0  0  0  0  0  0  0
   21.2267   -1.4263   21.3715 C   0  0  0  0  0  0  0  0  0  0  0  0
   22.4218   -2.1335   21.3316 C   0  0  0  0  0  0  0  0  0  0  0  0
   22.4037   -3.4852   21.0000 C   0  0  0  0  0  0  0  0  0  0  0  0
   18.7461   -1.2885   21.1328 C   0  0  0  0  0  0  0  0  0  0  0  0
   18.0786   -1.0327   20.0172 N   0  0  0  0  0  0  0  0  0  0  0  0
   18.2873   -0.9108   22.2383 N   0  0  0  0  0  0  0  0  0  0  0  0
   17.2334   -0.5292   20.0538 H   0  0  0  0  0  0  0  0  0  0  0  0
   17.4421   -0.4073   22.2744 H   0  0  0  0  0  0  0  0  0  0  0  0
   18.7728   -1.1180   23.0694 H   0  0  0  0  0  0  0  0  0  0  0  0
 31 30  1  0  0  0
 33 27  1  0  0  0
 32 30  2  0  0  0
 32 27  1  0  0  0
 30 29  1  0  0  0
 27 26  2  0  0  0
 42 41  2  0  0  0
 43 41  1  0  0  0
 41 37  1  0  0  0
 29 28  2  0  0  0
 26 28  1  0  0  0
 26 22  1  0  0  0
 18 17  2  0  0  0
 37 36  2  0  0  0
 37 38  1  0  0  0
 22 23  2  0  0  0
 22 21  1  0  0  0
 23 24  1  0  0  0
 36 35  1  0  0  0
  9  2  2  0  0  0
 38 39  2  0  0  0
 15 17  1  0  0  0
 15  1  1  0  0  0
 17 24  1  0  0  0
 17 19  2  0  0  0
 24 25  2  0  0  0
 21 20  2  0  0  0
 35 40  2  0  0  0
  2  1  1  0  0  0
  2  8  1  0  0  0
 25 20  1  0  0  0
 39 40  1  0  0  0
 39 34  1  0  0  0
  1 34  1  0  0  0
  3  8  1  0  0  0
  3  4  1  0  0  0
  8  7  1  0  0  0
  4  5  1  0  0  0
  7  6  1  0  0  0
  5  6  1  0  0  0
  5 10  1  0  0  0
 10 11  1  0  0  0
 11 12  1  0  0  0
 42 44  1  0  0  0
 43 45  1  0  0  0
 43 46  1  0  0  0
 15 16  1  0  0  0
 12 13  1  0  0  0
 12 14  1  0  0  0
M  END
> <minimizedAffinity>
-9.27543

$$$$
