4E7R_0NW_H_302
  RCSB PDB12061712203D
Coordinates from PDB:4E7R:H:302 Model:1 without hydrogens
 40 43  0  0  0  0            999 V2000
   16.2890    2.4740   21.1970   C 0  0  0  0  0  0  0  0  0  0  0  0
   15.7060    1.8320   22.2850   C 0  0  0  0  0  0  0  0  0  0  0  0
   16.0880    0.5420   22.6000   C 0  0  0  0  0  0  0  0  0  0  0  0
   18.6720   -0.2010   19.9120   C 0  0  0  0  0  0  0  0  0  0  0  0
   20.0910    0.0560   20.4450   C 0  0  0  0  0  0  0  0  0  0  0  0
   20.2890    1.4880   20.8790   C 0  0  0  0  0  0  0  0  0  0  0  0
   20.7310    3.8030   20.4640   C 0  0  0  0  0  0  0  0  0  0  0  0
   21.9650    4.4410   19.8260   C 0  0  0  0  0  0  0  0  0  0  0  0
   21.9270    4.3060   18.3170   C 0  0  0  0  0  0  0  0  0  0  0  0
   22.0020    2.8160   18.0350   C 0  0  0  0  0  0  0  0  0  0  0  0
   20.7340    2.1530   18.5540   C 0  0  0  0  0  0  0  0  0  0  0  0
   25.0800    0.2470   20.6660   C 0  0  0  0  0  0  0  0  0  0  0  0
   25.0990    1.3140   21.5690   C 0  0  0  0  0  0  0  0  0  0  0  0
   24.0790    1.4380   22.5000   C 0  0  0  0  0  0  0  0  0  0  0  0
   23.0350    0.5070   22.4760   C 0  0  0  0  0  0  0  0  0  0  0  0
   24.0150    2.5720   23.4740   C 0  0  0  0  0  0  0  0  0  0  0  0
   23.7530    2.3680   24.8210   C 0  0  0  0  0  0  0  0  0  0  0  0
   15.4550   -0.1500   23.7620   C 0  0  0  0  0  0  0  0  0  0  0  0
   14.5580    0.4850   24.5020   N 0  0  0  0  0  0  0  0  0  0  0  0
   15.7530   -1.3410   24.0230   N 0  0  0  0  0  0  0  0  0  0  0  0
   17.0370   -0.1100   21.8320   C 0  0  0  0  0  0  0  0  0  0  0  0
   17.6220    0.5240   20.7430   C 0  0  0  0  0  0  0  0  0  0  0  0
   20.3940   -0.8420   21.5500   N 0  0  0  0  0  0  0  0  0  0  0  0
   21.8030   -1.6230   21.5890   S 0  0  0  0  0  0  0  0  0  0  0  0
   23.0090   -0.5620   21.5790   C 0  0  0  0  0  0  0  0  0  0  0  0
   24.1650    3.8760   23.0190   C 0  0  0  0  0  0  0  0  0  0  0  0
   24.0780    4.9480   23.9090   C 0  0  0  0  0  0  0  0  0  0  0  0
   23.8230    4.7210   25.2510   C 0  0  0  0  0  0  0  0  0  0  0  0
   23.6790    6.0560   26.4370  Cl 0  0  0  0  0  0  0  0  0  0  0  0
   23.6600    3.4310   25.7050   C 0  0  0  0  0  0  0  0  0  0  0  0
   23.5460    0.7340   25.5120  Cl 0  0  0  0  0  0  0  0  0  0  0  0
   24.0510   -0.6890   20.6680   C 0  0  0  0  0  0  0  0  0  0  0  0
   21.8470   -2.4310   22.7860   O 0  0  0  0  0  0  0  0  0  0  0  0
   21.8700   -2.4570   20.4310   O 0  0  0  0  0  0  0  0  0  0  0  0
   20.5910    2.4260   19.9900   N 0  0  0  0  0  0  0  0  0  0  0  0
   23.1240    5.0240   17.7040   C 0  0  0  0  0  0  0  0  0  0  0  0
   22.7240    5.9590   16.5640   C 0  0  0  0  0  0  0  0  0  0  0  0
   22.5560    5.2200   15.3270   N 0  0  0  0  0  0  0  0  0  0  0  0
   20.1520    1.7890   22.0510   O 0  0  0  0  0  0  0  0  0  0  0  0
   17.2380    1.8230   20.4230   C 0  0  0  0  0  0  0  0  0  0  0  0
 29 28  1  0  0  0  0
 31 17  1  0  0  0  0
 30 28  2  0  0  0  0
 30 17  1  0  0  0  0
 28 27  1  0  0  0  0
 17 16  2  0  0  0  0
 19 18  2  0  0  0  0
 20 18  1  0  0  0  0
 18  3  1  0  0  0  0
 27 26  2  0  0  0  0
 16 26  1  0  0  0  0
 16 14  1  0  0  0  0
 33 24  2  0  0  0  0
  3  2  2  0  0  0  0
  3 21  1  0  0  0  0
 14 15  2  0  0  0  0
 14 13  1  0  0  0  0
 15 25  1  0  0  0  0
  2  1  1  0  0  0  0
 39  6  2  0  0  0  0
 21 22  2  0  0  0  0
 23 24  1  0  0  0  0
 23  5  1  0  0  0  0
 24 25  1  0  0  0  0
 24 34  2  0  0  0  0
 25 32  2  0  0  0  0
 13 12  2  0  0  0  0
  1 40  2  0  0  0  0
  6  5  1  0  0  0  0
  6 35  1  0  0  0  0
 32 12  1  0  0  0  0
 22 40  1  0  0  0  0
 22  4  1  0  0  0  0
  5  4  1  0  0  0  0
  7 35  1  0  0  0  0
  7  8  1  0  0  0  0
 35 11  1  0  0  0  0
  8  9  1  0  0  0  0
 11 10  1  0  0  0  0
  9 10  1  0  0  0  0
  9 36  1  0  0  0  0
 36 37  1  0  0  0  0
 37 38  1  0  0  0  0
A    1
C1
A    2
C2
A    3
C3
A    4
C7
A    5
C8
A    6
C9
A    7
C12
A    8
C13
A    9
C14
A   10
C15
A   11
C16
A   12
C30
A   13
C31
A   14
C32
A   15
C33
A   16
C34
A   17
C35
A   18
C44
A   19
N46
A   20
N45
A   21
C4
A   22
C5
A   23
N24
A   24
S25
A   25
C28
A   26
C39
A   27
C38
A   28
C37
A   29
CL2
A   30
C36
A   31
CL1
A   32
C29
A   33
O27
A   34
O26
A   35
N11
A   36
C17
A   37
C18
A   38
N19
A   39
O10
A   40
C6
M  END
>  <InstanceId>
4E7R_0NW_H_302

>  <ChemCompId>
0NW

>  <PdbId>
4E7R

>  <ChainId>
H

>  <ResidueNumber>
302

>  <InsertionCode>


>  <Model>
1

>  <AltIds>


>  <MissingHeavyAtoms>
0

>  <ObservedFormula>
C29 N5 O3 S Cl2

>  <Name>
3-[(2S)-3-[4-(2-aminoethyl)piperidin-1-yl]-2-{[(2',4'-dichlorobiphenyl-3-yl)sulfonyl]amino}-3-oxopropyl]benzenecarboximidamide

>  <SystematicName>
3-[(2S)-3-[4-(2-azanylethyl)piperidin-1-yl]-2-[[3-(2,4-dichlorophenyl)phenyl]sulfonylamino]-3-oxidanylidene-propyl]benzenecarboximidamide

>  <Synonyms>


>  <Type>
NON-POLYMER

>  <Formula>
C29 H33 Cl2 N5 O3 S

>  <MolecularWeight>
602.575

>  <ModifiedDate>
2012-06-15

>  <Parent>


>  <OneLetterCode>


>  <SubcomponentList>


>  <AmbiguousFlag>
N

>  <InChI>
InChI=1S/C29H33Cl2N5O3S/c30-23-7-8-25(26(31)18-23)21-4-2-6-24(17-21)40(38,39)35-27(16-20-3-1-5-22(15-20)28(33)34)29(37)36-13-10-19(9-12-32)11-14-36/h1-8,15,17-19,27,35H,9-14,16,32H2,(H3,33,34)/t27-/m0/s1

>  <InChIKey>
ZLCINVZAICQINL-MHZLTWQESA-N

>  <SMILES>
[H]/N=C(\c1cccc(c1)C[C@@H](C(=O)N2CCC(CC2)CCN)NS(=O)(=O)c3cccc(c3)c4ccc(cc4Cl)Cl)/N

$$$$
