5K9W_OTA_A_402
  RCSB PDB12061718343D
Coordinates from PDB:5K9W:A:402 Model:1 without hydrogens
 18 19  0  0  0  0            999 V2000
   32.0670  -34.5270  -17.4040   N 0  0  0  0  0  0  0  0  0  0  0  0
   32.4760  -34.6160  -15.9990   C 0  0  0  0  0  0  0  0  0  0  0  0
   33.4500  -33.5490  -15.4930   C 0  0  0  0  0  0  0  0  0  0  0  0
   33.7610  -32.4940  -16.4130   C 0  0  0  0  0  0  0  0  0  0  0  0
   33.1420  -32.3430  -17.7680   C 0  0  0  0  0  0  0  0  0  0  0  0
   31.9310  -33.1680  -17.9770   C 0  0  0  0  0  0  0  0  0  0  0  0
   34.2800  -33.3910  -14.1330   S 0  0  0  0  0  0  0  0  0  0  0  0
   35.0470  -32.0480  -14.4250   C 0  0  0  0  0  0  0  0  0  0  0  0
   34.7910  -31.5580  -15.7110   C 0  0  0  0  0  0  0  0  0  0  0  0
   35.3860  -30.2670  -16.3530   C 0  0  0  0  0  0  0  0  0  0  0  0
   36.0300  -29.4660  -15.6460   O 0  0  0  0  0  0  0  0  0  0  0  0
   35.2010  -30.0150  -17.6110   O 0  0  0  0  0  0  0  0  0  0  0  0
   35.9570  -31.3140  -13.6440   N 0  0  0  0  0  0  0  0  0  0  0  0
   36.4120  -31.7500  -12.4100   C 0  0  0  0  0  0  0  0  0  0  0  0
   37.4310  -30.8200  -11.8080   C 0  0  0  0  0  0  0  0  0  0  0  0
   38.3940  -31.4070  -11.2100   O 0  0  0  0  0  0  0  0  0  0  0  0
   37.2960  -29.5930  -12.0130   O 0  0  0  0  0  0  0  0  0  0  0  0
   36.0560  -32.7960  -11.8450   O 0  0  0  0  0  0  0  0  0  0  0  0
  1  2  1  0  0  0  0
  1  6  1  0  0  0  0
  2  3  1  0  0  0  0
  3  4  2  0  0  0  0
  3  7  1  0  0  0  0
  4  5  1  0  0  0  0
  4  9  1  0  0  0  0
  5  6  1  0  0  0  0
  7  8  1  0  0  0  0
  8  9  2  0  0  0  0
  8 13  1  0  0  0  0
  9 10  1  0  0  0  0
 10 11  1  0  0  0  0
 10 12  2  0  0  0  0
 13 14  1  0  0  0  0
 14 15  1  0  0  0  0
 14 18  2  0  0  0  0
 15 16  1  0  0  0  0
 15 17  2  0  0  0  0
A    1
N1
A    2
C2
A    3
C3
A    4
C4
A    5
C5
A    6
C6
A    7
S13
A    8
C14
A    9
C15
A   10
C16
A   11
O17
A   12
O18
A   13
N19
A   14
C20
A   15
C21
A   16
O22
A   17
O23
A   18
O24
M  END
>  <InstanceId>
5K9W_OTA_A_402

>  <ChemCompId>
OTA

>  <PdbId>
5K9W

>  <ChainId>
A

>  <ResidueNumber>
402

>  <InsertionCode>


>  <Model>
1

>  <AltIds>


>  <MissingHeavyAtoms>
0

>  <ObservedFormula>
C10 N2 O5 S

>  <Name>
2-(OXALYL-AMINO)-4,5,6,7-TETRAHYDRO-THIENO[2,3-C]PYRIDINE-3-CARBOXYLIC ACID

>  <SystematicName>
2-(carboxycarbonylamino)-4,5,6,7-tetrahydrothieno[5,4-c]pyridine-3-carboxylic acid

>  <Synonyms>


>  <Type>
NON-POLYMER

>  <Formula>
C10 H10 N2 O5 S

>  <MolecularWeight>
270.262

>  <ModifiedDate>
2011-06-04

>  <Parent>


>  <OneLetterCode>


>  <SubcomponentList>


>  <AmbiguousFlag>
N

>  <InChI>
InChI=1S/C10H10N2O5S/c13-7(10(16)17)12-8-6(9(14)15)4-1-2-11-3-5(4)18-8/h11H,1-3H2,(H,12,13)(H,14,15)(H,16,17)

>  <InChIKey>
ZIBMATWHOAGNTR-UHFFFAOYSA-N

>  <SMILES>
C1CNCc2c1c(c(s2)NC(=O)C(=O)O)C(=O)O

$$$$
