2AQU_DR7_B_300


 56 58  0  0  0  0  0  0  0  0999 V2000
  -42.3649   69.5433   29.1292 N   0  0  0  0  0  0  0  0  0  0  0  0
  -41.8477   69.4189   30.4393 N   0  0  0  0  0  0  0  0  0  0  0  0
  -40.9119   68.8392   31.1274 C   0  0  0  0  0  0  0  0  0  0  0  0
  -40.0834   68.1284   30.7503 O   0  0  0  0  0  0  0  0  0  0  0  0
  -42.3924   69.9690   31.0476 H   0  0  0  0  0  0  0  0  0  0  0  0
  -41.0989   69.1974   32.5861 C   0  0  0  0  0  0  0  0  0  0  0  0
  -41.9301   68.1720   33.2261 N   0  0  0  0  0  0  0  0  0  0  0  0
  -43.1180   68.3038   33.7367 C   0  0  0  0  0  0  0  0  0  0  0  0
  -43.7408   69.2923   33.7767 O   0  0  0  0  0  0  0  0  0  0  0  0
  -41.5387   67.2700   33.2750 H   0  0  0  0  0  0  0  0  0  0  0  0
  -43.6849   67.1271   34.3008 O   0  0  0  0  0  0  0  0  0  0  0  0
  -43.6197   66.9489   35.6868 C   0  0  0  0  0  0  0  0  0  0  0  0
  -39.8366   69.5072   33.4084 C   0  0  0  0  0  0  0  0  0  0  0  0
  -39.2171   68.2200   33.8847 C   0  0  0  0  0  0  0  0  0  0  0  0
  -40.1709   70.2915   34.6372 C   0  0  0  0  0  0  0  0  0  0  0  0
  -38.8473   70.2687   32.5790 C   0  0  0  0  0  0  0  0  0  0  0  0
  -41.8847   70.4285   28.1064 C   0  0  0  0  0  0  0  0  0  0  0  0
  -40.6809   71.1237   28.4150 C   0  0  0  0  0  0  0  0  0  0  0  0
  -41.2238   72.3488   28.0985 O   0  0  0  0  0  0  0  0  0  0  0  0
  -41.5482   72.3323   27.1845 H   0  0  0  0  0  0  0  0  0  0  0  0
  -39.4176   70.7803   27.6727 C   0  0  0  0  0  0  0  0  0  0  0  0
  -39.2558   69.9067   25.3462 C   0  0  0  0  0  0  0  0  0  0  0  0
  -38.9879   68.7989   25.5983 O   0  0  0  0  0  0  0  0  0  0  0  0
  -39.4622   70.8391   26.2285 N   0  0  0  0  0  0  0  0  0  0  0  0
  -39.6833   71.7228   25.8552 H   0  0  0  0  0  0  0  0  0  0  0  0
  -39.3553   70.4985   23.7573 C   0  0  0  0  0  0  0  0  0  0  0  0
  -37.3912   71.4970   23.1194 C   0  0  0  0  0  0  0  0  0  0  0  0
  -38.0174   72.4918   22.9762 O   0  0  0  0  0  0  0  0  0  0  0  0
  -37.9483   70.1680   23.5864 N   0  0  0  0  0  0  0  0  0  0  0  0
  -37.4842   69.3125   23.7343 H   0  0  0  0  0  0  0  0  0  0  0  0
  -35.3544   72.7392   22.8132 C   0  0  0  0  0  0  0  0  0  0  0  0
  -36.0167   71.5166   22.7706 O   0  0  0  0  0  0  0  0  0  0  0  0
  -40.1977   69.5022   23.0948 C   0  0  0  0  0  0  0  0  0  0  0  0
  -39.5161   68.1611   22.8147 C   0  0  0  0  0  0  0  0  0  0  0  0
  -40.5183   70.2009   21.8581 C   0  0  0  0  0  0  0  0  0  0  0  0
  -41.5212   69.2665   23.7660 C   0  0  0  0  0  0  0  0  0  0  0  0
  -38.3875   71.7862   28.0413 C   0  0  0  0  0  0  0  0  0  0  0  0
  -36.9737   71.4688   27.6487 C   0  0  0  0  0  0  0  0  0  0  0  0
  -36.3036   72.1163   26.6460 C   0  0  0  0  0  0  0  0  0  0  0  0
  -34.9905   71.7848   26.3497 C   0  0  0  0  0  0  0  0  0  0  0  0
  -34.3225   70.7838   27.0699 C   0  0  0  0  0  0  0  0  0  0  0  0
  -34.9825   70.1332   28.0641 C   0  0  0  0  0  0  0  0  0  0  0  0
  -36.2976   70.4797   28.3544 C   0  0  0  0  0  0  0  0  0  0  0  0
  -43.6287   68.8656   28.8358 C   0  0  0  0  0  0  0  0  0  0  0  0
  -43.7717   67.4781   29.3939 C   0  0  0  0  0  0  0  0  0  0  0  0
  -43.1709   66.3292   28.8690 C   0  0  0  0  0  0  0  0  0  0  0  0
  -43.3560   65.0840   29.4881 C   0  0  0  0  0  0  0  0  0  0  0  0
  -44.5525   67.3762   30.5089 C   0  0  0  0  0  0  0  0  0  0  0  0
  -44.7302   66.1657   31.0968 C   0  0  0  0  0  0  0  0  0  0  0  0
  -44.1455   65.0141   30.6134 C   0  0  0  0  0  0  0  0  0  0  0  0
  -44.4348   63.8715   31.3353 C   0  0  0  0  0  0  0  0  0  0  0  0
  -43.3803   62.9424   31.6360 C   0  0  0  0  0  0  0  0  0  0  0  0
  -43.5675   61.7694   32.3557 C   0  0  0  0  0  0  0  0  0  0  0  0
  -44.8153   61.4998   32.7976 C   0  0  0  0  0  0  0  0  0  0  0  0
  -45.8371   62.3980   32.5166 C   0  0  0  0  0  0  0  0  0  0  0  0
  -45.6631   63.5464   31.8155 N   0  0  0  0  0  0  0  0  0  0  0  0
 31 32  1  0  0  0
 32 27  1  0  0  0
 27 28  2  0  0  0
 27 29  1  0  0  0
 29 26  1  0  0  0
 26 33  1  0  0  0
 26 22  1  0  0  0
 33 34  1  0  0  0
 33 35  1  0  0  0
 33 36  1  0  0  0
 22 23  2  0  0  0
 22 24  1  0  0  0
 24 21  1  0  0  0
 21 37  1  0  0  0
 21 18  1  0  0  0
 37 38  1  0  0  0
 38 39  2  0  0  0
 38 43  1  0  0  0
 39 40  1  0  0  0
 40 41  2  0  0  0
 41 42  1  0  0  0
 42 43  2  0  0  0
 18 19  1  0  0  0
 18 17  1  0  0  0
 17  1  1  0  0  0
  1  2  1  0  0  0
  1 44  1  0  0  0
  2  3  1  0  0  0
  3  4  2  0  0  0
  3  6  1  0  0  0
  6 13  1  0  0  0
  6  7  1  0  0  0
 13 14  1  0  0  0
 13 15  1  0  0  0
 13 16  1  0  0  0
  7  8  1  0  0  0
  8  9  2  0  0  0
  8 11  1  0  0  0
 11 12  1  0  0  0
 44 45  1  0  0  0
 45 46  1  0  0  0
 45 48  2  0  0  0
 46 47  2  0  0  0
 47 50  1  0  0  0
 48 49  1  0  0  0
 49 50  2  0  0  0
 50 51  1  0  0  0
 51 52  1  0  0  0
 51 56  2  0  0  0
 52 53  2  0  0  0
 53 54  1  0  0  0
 54 55  2  0  0  0
 55 56  1  0  0  0
 29 30  1  0  0  0
 24 25  1  0  0  0
 19 20  1  0  0  0
  2  5  1  0  0  0
  7 10  1  0  0  0
M  END
> <minimizedAffinity>
-11.18119

$$$$
2AQU_DR7_B_300


 56 58  0  0  0  0  0  0  0  0999 V2000
  -39.0292   71.4588   27.7067 N   0  0  0  0  0  0  0  0  0  0  0  0
  -39.1980   70.9415   26.4016 N   0  0  0  0  0  0  0  0  0  0  0  0
  -39.0600   69.8613   25.6951 C   0  0  0  0  0  0  0  0  0  0  0  0
  -38.6875   68.8241   26.0404 O   0  0  0  0  0  0  0  0  0  0  0  0
  -39.5441   71.6570   25.8205 H   0  0  0  0  0  0  0  0  0  0  0  0
  -39.4212   70.1789   24.2598 C   0  0  0  0  0  0  0  0  0  0  0  0
  -38.1889   70.2948   23.4725 N   0  0  0  0  0  0  0  0  0  0  0  0
  -37.6980   71.3528   22.8992 C   0  0  0  0  0  0  0  0  0  0  0  0
  -38.1724   72.4213   22.9115 O   0  0  0  0  0  0  0  0  0  0  0  0
  -37.6679   69.4665   23.3647 H   0  0  0  0  0  0  0  0  0  0  0  0
  -36.4787   71.1653   22.1904 O   0  0  0  0  0  0  0  0  0  0  0  0
  -36.5175   71.1026   20.7934 C   0  0  0  0  0  0  0  0  0  0  0  0
  -40.4578   69.2745   23.5719 C   0  0  0  0  0  0  0  0  0  0  0  0
  -39.8096   67.9733   23.1794 C   0  0  0  0  0  0  0  0  0  0  0  0
  -40.9584   69.8924   22.3053 C   0  0  0  0  0  0  0  0  0  0  0  0
  -41.6107   69.0085   24.4921 C   0  0  0  0  0  0  0  0  0  0  0  0
  -40.0447   71.5692   28.7151 C   0  0  0  0  0  0  0  0  0  0  0  0
  -41.2553   70.8708   28.4428 C   0  0  0  0  0  0  0  0  0  0  0  0
  -42.0389   71.9398   28.8156 O   0  0  0  0  0  0  0  0  0  0  0  0
  -41.8258   72.1946   29.7270 H   0  0  0  0  0  0  0  0  0  0  0  0
  -41.5483   69.5868   29.1710 C   0  0  0  0  0  0  0  0  0  0  0  0
  -40.9349   68.9972   31.5116 C   0  0  0  0  0  0  0  0  0  0  0  0
  -40.1006   68.2150   31.2773 O   0  0  0  0  0  0  0  0  0  0  0  0
  -41.6166   69.6457   30.6143 N   0  0  0  0  0  0  0  0  0  0  0  0
  -42.2831   70.2750   30.9735 H   0  0  0  0  0  0  0  0  0  0  0  0
  -41.4419   69.3681   33.0896 C   0  0  0  0  0  0  0  0  0  0  0  0
  -43.3211   68.1808   33.6560 C   0  0  0  0  0  0  0  0  0  0  0  0
  -43.8625   69.2251   33.7924 O   0  0  0  0  0  0  0  0  0  0  0  0
  -41.8795   67.9875   33.2329 N   0  0  0  0  0  0  0  0  0  0  0  0
  -41.3751   67.1537   33.0927 H   0  0  0  0  0  0  0  0  0  0  0  0
  -45.4264   67.0241   33.7779 C   0  0  0  0  0  0  0  0  0  0  0  0
  -44.0488   67.0048   33.9702 O   0  0  0  0  0  0  0  0  0  0  0  0
  -40.1764   69.5782   33.7934 C   0  0  0  0  0  0  0  0  0  0  0  0
  -39.3907   68.3032   34.1073 C   0  0  0  0  0  0  0  0  0  0  0  0
  -40.6498   70.2209   35.0113 C   0  0  0  0  0  0  0  0  0  0  0  0
  -39.2685   70.5855   33.1462 C   0  0  0  0  0  0  0  0  0  0  0  0
  -42.9048   69.1349   28.7656 C   0  0  0  0  0  0  0  0  0  0  0  0
  -43.2104   67.6785   28.9637 C   0  0  0  0  0  0  0  0  0  0  0  0
  -42.7898   66.6945   28.1102 C   0  0  0  0  0  0  0  0  0  0  0  0
  -43.0919   65.3658   28.3656 C   0  0  0  0  0  0  0  0  0  0  0  0
  -43.8308   65.0028   29.5010 C   0  0  0  0  0  0  0  0  0  0  0  0
  -44.2559   65.9744   30.3510 C   0  0  0  0  0  0  0  0  0  0  0  0
  -43.9408   67.3027   30.0856 C   0  0  0  0  0  0  0  0  0  0  0  0
  -37.7651   72.1332   28.0068 C   0  0  0  0  0  0  0  0  0  0  0  0
  -36.5722   71.6655   27.2223 C   0  0  0  0  0  0  0  0  0  0  0  0
  -36.1083   72.2416   26.0352 C   0  0  0  0  0  0  0  0  0  0  0  0
  -34.9661   71.7345   25.3977 C   0  0  0  0  0  0  0  0  0  0  0  0
  -35.9108   70.5946   27.7506 C   0  0  0  0  0  0  0  0  0  0  0  0
  -34.8103   70.1077   27.1228 C   0  0  0  0  0  0  0  0  0  0  0  0
  -34.3184   70.6564   25.9571 C   0  0  0  0  0  0  0  0  0  0  0  0
  -33.1910   70.0340   25.4555 C   0  0  0  0  0  0  0  0  0  0  0  0
  -32.1180   70.8346   24.9326 C   0  0  0  0  0  0  0  0  0  0  0  0
  -30.9450   70.3060   24.4097 C   0  0  0  0  0  0  0  0  0  0  0  0
  -30.8143   68.9615   24.4021 C   0  0  0  0  0  0  0  0  0  0  0  0
  -31.8449   68.1826   24.9132 C   0  0  0  0  0  0  0  0  0  0  0  0
  -32.9934   68.6903   25.4269 N   0  0  0  0  0  0  0  0  0  0  0  0
 31 32  1  0  0  0
 32 27  1  0  0  0
 27 28  2  0  0  0
 27 29  1  0  0  0
 29 26  1  0  0  0
 26 33  1  0  0  0
 26 22  1  0  0  0
 33 34  1  0  0  0
 33 35  1  0  0  0
 33 36  1  0  0  0
 22 23  2  0  0  0
 22 24  1  0  0  0
 24 21  1  0  0  0
 21 37  1  0  0  0
 21 18  1  0  0  0
 37 38  1  0  0  0
 38 39  2  0  0  0
 38 43  1  0  0  0
 39 40  1  0  0  0
 40 41  2  0  0  0
 41 42  1  0  0  0
 42 43  2  0  0  0
 18 19  1  0  0  0
 18 17  1  0  0  0
 17  1  1  0  0  0
  1  2  1  0  0  0
  1 44  1  0  0  0
  2  3  1  0  0  0
  3  4  2  0  0  0
  3  6  1  0  0  0
  6 13  1  0  0  0
  6  7  1  0  0  0
 13 14  1  0  0  0
 13 15  1  0  0  0
 13 16  1  0  0  0
  7  8  1  0  0  0
  8  9  2  0  0  0
  8 11  1  0  0  0
 11 12  1  0  0  0
 44 45  1  0  0  0
 45 46  1  0  0  0
 45 48  2  0  0  0
 46 47  2  0  0  0
 47 50  1  0  0  0
 48 49  1  0  0  0
 49 50  2  0  0  0
 50 51  1  0  0  0
 51 52  1  0  0  0
 51 56  2  0  0  0
 52 53  2  0  0  0
 53 54  1  0  0  0
 54 55  2  0  0  0
 55 56  1  0  0  0
 29 30  1  0  0  0
 24 25  1  0  0  0
 19 20  1  0  0  0
  2  5  1  0  0  0
  7 10  1  0  0  0
M  END
> <minimizedAffinity>
-11.13932

$$$$
2AQU_DR7_B_300


 56 58  0  0  0  0  0  0  0  0999 V2000
  -41.7228   70.0941   29.1038 N   0  0  0  0  0  0  0  0  0  0  0  0
  -41.4993   69.7899   30.4665 N   0  0  0  0  0  0  0  0  0  0  0  0
  -40.7814   69.0469   31.2525 C   0  0  0  0  0  0  0  0  0  0  0  0
  -39.9613   68.2864   30.9650 O   0  0  0  0  0  0  0  0  0  0  0  0
  -42.1051   70.3379   31.0160 H   0  0  0  0  0  0  0  0  0  0  0  0
  -41.2309   69.2850   32.6781 C   0  0  0  0  0  0  0  0  0  0  0  0
  -42.0664   68.1588   33.1091 N   0  0  0  0  0  0  0  0  0  0  0  0
  -43.2703   68.1920   33.5974 C   0  0  0  0  0  0  0  0  0  0  0  0
  -43.9074   69.1542   33.7849 O   0  0  0  0  0  0  0  0  0  0  0  0
  -41.6643   67.2650   33.0167 H   0  0  0  0  0  0  0  0  0  0  0  0
  -43.8375   66.9319   33.9362 O   0  0  0  0  0  0  0  0  0  0  0  0
  -45.2307   66.8097   33.9670 C   0  0  0  0  0  0  0  0  0  0  0  0
  -40.1482   69.6254   33.7162 C   0  0  0  0  0  0  0  0  0  0  0  0
  -40.7889   70.2574   34.9235 C   0  0  0  0  0  0  0  0  0  0  0  0
  -39.1818   70.6325   33.1790 C   0  0  0  0  0  0  0  0  0  0  0  0
  -39.4094   68.3870   34.1250 C   0  0  0  0  0  0  0  0  0  0  0  0
  -41.0747   71.1267   28.3461 C   0  0  0  0  0  0  0  0  0  0  0  0
  -39.6802   70.9404   28.1265 C   0  0  0  0  0  0  0  0  0  0  0  0
  -39.3493   72.1054   28.7814 O   0  0  0  0  0  0  0  0  0  0  0  0
  -39.8059   72.8522   28.3634 H   0  0  0  0  0  0  0  0  0  0  0  0
  -39.1608   70.8367   26.7178 C   0  0  0  0  0  0  0  0  0  0  0  0
  -37.1896   71.5276   25.3617 C   0  0  0  0  0  0  0  0  0  0  0  0
  -37.6723   71.4402   24.3024 O   0  0  0  0  0  0  0  0  0  0  0  0
  -37.8032   71.2741   26.4795 N   0  0  0  0  0  0  0  0  0  0  0  0
  -37.2587   71.3994   27.2901 H   0  0  0  0  0  0  0  0  0  0  0  0
  -35.5616   71.9444   25.6077 C   0  0  0  0  0  0  0  0  0  0  0  0
  -34.1699   70.1449   25.9025 C   0  0  0  0  0  0  0  0  0  0  0  0
  -33.8481   70.6425   26.9278 O   0  0  0  0  0  0  0  0  0  0  0  0
  -35.1833   70.7130   24.9305 N   0  0  0  0  0  0  0  0  0  0  0  0
  -35.5003   70.3479   24.0728 H   0  0  0  0  0  0  0  0  0  0  0  0
  -32.2308   69.0546   24.9882 C   0  0  0  0  0  0  0  0  0  0  0  0
  -33.5176   68.9497   25.5061 O   0  0  0  0  0  0  0  0  0  0  0  0
  -35.3848   73.0918   24.7171 C   0  0  0  0  0  0  0  0  0  0  0  0
  -35.2710   72.7463   23.2307 C   0  0  0  0  0  0  0  0  0  0  0  0
  -34.1369   73.6401   25.2295 C   0  0  0  0  0  0  0  0  0  0  0  0
  -36.3995   74.1838   24.9062 C   0  0  0  0  0  0  0  0  0  0  0  0
  -39.1453   69.3982   26.3450 C   0  0  0  0  0  0  0  0  0  0  0  0
  -39.8855   69.0247   25.0935 C   0  0  0  0  0  0  0  0  0  0  0  0
  -41.1263   69.5077   24.7759 C   0  0  0  0  0  0  0  0  0  0  0  0
  -41.7439   69.1353   23.5919 C   0  0  0  0  0  0  0  0  0  0  0  0
  -41.1118   68.2601   22.6966 C   0  0  0  0  0  0  0  0  0  0  0  0
  -39.8816   67.7727   23.0068 C   0  0  0  0  0  0  0  0  0  0  0  0
  -39.2713   68.1591   24.1952 C   0  0  0  0  0  0  0  0  0  0  0  0
  -42.8567   69.4442   28.4447 C   0  0  0  0  0  0  0  0  0  0  0  0
  -43.2644   68.1121   29.0073 C   0  0  0  0  0  0  0  0  0  0  0  0
  -42.6903   66.8819   28.6705 C   0  0  0  0  0  0  0  0  0  0  0  0
  -43.1369   65.6988   29.2781 C   0  0  0  0  0  0  0  0  0  0  0  0
  -44.2743   68.1516   29.9248 C   0  0  0  0  0  0  0  0  0  0  0  0
  -44.7032   67.0005   30.5023 C   0  0  0  0  0  0  0  0  0  0  0  0
  -44.1541   65.7715   30.2026 C   0  0  0  0  0  0  0  0  0  0  0  0
  -44.7130   64.7066   30.8835 C   0  0  0  0  0  0  0  0  0  0  0  0
  -43.8526   63.7175   31.4727 C   0  0  0  0  0  0  0  0  0  0  0  0
  -44.3152   62.6139   32.1777 C   0  0  0  0  0  0  0  0  0  0  0  0
  -45.6519   62.4758   32.3153 C   0  0  0  0  0  0  0  0  0  0  0  0
  -46.4884   63.4327   31.7545 C   0  0  0  0  0  0  0  0  0  0  0  0
  -46.0453   64.5142   31.0655 N   0  0  0  0  0  0  0  0  0  0  0  0
 31 32  1  0  0  0
 32 27  1  0  0  0
 27 28  2  0  0  0
 27 29  1  0  0  0
 29 26  1  0  0  0
 26 33  1  0  0  0
 26 22  1  0  0  0
 33 34  1  0  0  0
 33 35  1  0  0  0
 33 36  1  0  0  0
 22 23  2  0  0  0
 22 24  1  0  0  0
 24 21  1  0  0  0
 21 37  1  0  0  0
 21 18  1  0  0  0
 37 38  1  0  0  0
 38 39  2  0  0  0
 38 43  1  0  0  0
 39 40  1  0  0  0
 40 41  2  0  0  0
 41 42  1  0  0  0
 42 43  2  0  0  0
 18 19  1  0  0  0
 18 17  1  0  0  0
 17  1  1  0  0  0
  1  2  1  0  0  0
  1 44  1  0  0  0
  2  3  1  0  0  0
  3  4  2  0  0  0
  3  6  1  0  0  0
  6 13  1  0  0  0
  6  7  1  0  0  0
 13 14  1  0  0  0
 13 15  1  0  0  0
 13 16  1  0  0  0
  7  8  1  0  0  0
  8  9  2  0  0  0
  8 11  1  0  0  0
 11 12  1  0  0  0
 44 45  1  0  0  0
 45 46  1  0  0  0
 45 48  2  0  0  0
 46 47  2  0  0  0
 47 50  1  0  0  0
 48 49  1  0  0  0
 49 50  2  0  0  0
 50 51  1  0  0  0
 51 52  1  0  0  0
 51 56  2  0  0  0
 52 53  2  0  0  0
 53 54  1  0  0  0
 54 55  2  0  0  0
 55 56  1  0  0  0
 29 30  1  0  0  0
 24 25  1  0  0  0
 19 20  1  0  0  0
  2  5  1  0  0  0
  7 10  1  0  0  0
M  END
> <minimizedAffinity>
-10.47708

$$$$
2AQU_DR7_B_300


 56 58  0  0  0  0  0  0  0  0999 V2000
  -41.9730   68.5671   28.2774 N   0  0  0  0  0  0  0  0  0  0  0  0
  -42.9957   68.0545   29.1085 N   0  0  0  0  0  0  0  0  0  0  0  0
  -44.2858   67.9564   29.2141 C   0  0  0  0  0  0  0  0  0  0  0  0
  -45.0942   68.3468   28.4876 O   0  0  0  0  0  0  0  0  0  0  0  0
  -42.5808   67.6144   29.8852 H   0  0  0  0  0  0  0  0  0  0  0  0
  -44.6077   67.2700   30.5242 C   0  0  0  0  0  0  0  0  0  0  0  0
  -45.9748   67.6216   30.9235 N   0  0  0  0  0  0  0  0  0  0  0  0
  -46.3616   68.2693   31.9817 C   0  0  0  0  0  0  0  0  0  0  0  0
  -45.6644   68.6895   32.8208 O   0  0  0  0  0  0  0  0  0  0  0  0
  -46.6897   67.3301   30.3125 H   0  0  0  0  0  0  0  0  0  0  0  0
  -47.7652   68.4617   32.1130 O   0  0  0  0  0  0  0  0  0  0  0  0
  -48.6096   67.9340   31.1304 C   0  0  0  0  0  0  0  0  0  0  0  0
  -44.3568   65.7551   30.6123 C   0  0  0  0  0  0  0  0  0  0  0  0
  -43.6507   65.2881   29.3670 C   0  0  0  0  0  0  0  0  0  0  0  0
  -45.6443   64.9965   30.6736 C   0  0  0  0  0  0  0  0  0  0  0  0
  -43.5250   65.4331   31.8169 C   0  0  0  0  0  0  0  0  0  0  0  0
  -41.5594   69.9386   28.1862 C   0  0  0  0  0  0  0  0  0  0  0  0
  -41.6186   70.6773   29.4021 C   0  0  0  0  0  0  0  0  0  0  0  0
  -42.0066   71.8337   28.7634 O   0  0  0  0  0  0  0  0  0  0  0  0
  -41.3483   72.0679   28.0906 H   0  0  0  0  0  0  0  0  0  0  0  0
  -40.3817   70.8068   30.2497 C   0  0  0  0  0  0  0  0  0  0  0  0
  -40.7720   69.2373   32.1435 C   0  0  0  0  0  0  0  0  0  0  0  0
  -41.0093   68.2773   31.5232 O   0  0  0  0  0  0  0  0  0  0  0  0
  -40.4819   70.3973   31.6330 N   0  0  0  0  0  0  0  0  0  0  0  0
  -40.3025   71.1076   32.2906 H   0  0  0  0  0  0  0  0  0  0  0  0
  -40.8341   69.2844   33.8402 C   0  0  0  0  0  0  0  0  0  0  0  0
  -42.6911   68.3859   34.8432 C   0  0  0  0  0  0  0  0  0  0  0  0
  -42.7703   69.3958   35.4564 O   0  0  0  0  0  0  0  0  0  0  0  0
  -41.6329   68.0682   33.8069 N   0  0  0  0  0  0  0  0  0  0  0  0
  -41.5169   67.2584   33.2592 H   0  0  0  0  0  0  0  0  0  0  0  0
  -43.7393   66.9450   36.4588 C   0  0  0  0  0  0  0  0  0  0  0  0
  -43.6182   67.3529   35.1343 O   0  0  0  0  0  0  0  0  0  0  0  0
  -39.4548   68.9788   34.2214 C   0  0  0  0  0  0  0  0  0  0  0  0
  -39.0659   67.5026   34.1167 C   0  0  0  0  0  0  0  0  0  0  0  0
  -39.4527   69.4292   35.6062 C   0  0  0  0  0  0  0  0  0  0  0  0
  -38.4210   69.8243   33.5329 C   0  0  0  0  0  0  0  0  0  0  0  0
  -39.3465   69.9041   29.6821 C   0  0  0  0  0  0  0  0  0  0  0  0
  -38.2168   70.5635   28.9456 C   0  0  0  0  0  0  0  0  0  0  0  0
  -37.0644   69.9154   28.5912 C   0  0  0  0  0  0  0  0  0  0  0  0
  -36.0690   70.5818   27.8933 C   0  0  0  0  0  0  0  0  0  0  0  0
  -36.2220   71.9291   27.5351 C   0  0  0  0  0  0  0  0  0  0  0  0
  -37.3615   72.5809   27.8871 C   0  0  0  0  0  0  0  0  0  0  0  0
  -38.3542   71.8986   28.5821 C   0  0  0  0  0  0  0  0  0  0  0  0
  -41.4129   67.6699   27.2655 C   0  0  0  0  0  0  0  0  0  0  0  0
  -40.8124   68.3367   26.0606 C   0  0  0  0  0  0  0  0  0  0  0  0
  -41.5166   68.7258   24.9164 C   0  0  0  0  0  0  0  0  0  0  0  0
  -40.8547   69.3640   23.8568 C   0  0  0  0  0  0  0  0  0  0  0  0
  -39.4697   68.5716   26.1333 C   0  0  0  0  0  0  0  0  0  0  0  0
  -38.8376   69.1843   25.1001 C   0  0  0  0  0  0  0  0  0  0  0  0
  -39.5010   69.5908   23.9615 C   0  0  0  0  0  0  0  0  0  0  0  0
  -38.7012   70.1967   23.0111 C   0  0  0  0  0  0  0  0  0  0  0  0
  -38.5491   69.5804   21.7217 C   0  0  0  0  0  0  0  0  0  0  0  0
  -37.7715   70.1102   20.7002 C   0  0  0  0  0  0  0  0  0  0  0  0
  -37.1304   71.2744   20.9424 C   0  0  0  0  0  0  0  0  0  0  0  0
  -37.2798   71.8788   22.1843 C   0  0  0  0  0  0  0  0  0  0  0  0
  -38.0380   71.3691   23.1872 N   0  0  0  0  0  0  0  0  0  0  0  0
 31 32  1  0  0  0
 32 27  1  0  0  0
 27 28  2  0  0  0
 27 29  1  0  0  0
 29 26  1  0  0  0
 26 33  1  0  0  0
 26 22  1  0  0  0
 33 34  1  0  0  0
 33 35  1  0  0  0
 33 36  1  0  0  0
 22 23  2  0  0  0
 22 24  1  0  0  0
 24 21  1  0  0  0
 21 37  1  0  0  0
 21 18  1  0  0  0
 37 38  1  0  0  0
 38 39  2  0  0  0
 38 43  1  0  0  0
 39 40  1  0  0  0
 40 41  2  0  0  0
 41 42  1  0  0  0
 42 43  2  0  0  0
 18 19  1  0  0  0
 18 17  1  0  0  0
 17  1  1  0  0  0
  1  2  1  0  0  0
  1 44  1  0  0  0
  2  3  1  0  0  0
  3  4  2  0  0  0
  3  6  1  0  0  0
  6 13  1  0  0  0
  6  7  1  0  0  0
 13 14  1  0  0  0
 13 15  1  0  0  0
 13 16  1  0  0  0
  7  8  1  0  0  0
  8  9  2  0  0  0
  8 11  1  0  0  0
 11 12  1  0  0  0
 44 45  1  0  0  0
 45 46  1  0  0  0
 45 48  2  0  0  0
 46 47  2  0  0  0
 47 50  1  0  0  0
 48 49  1  0  0  0
 49 50  2  0  0  0
 50 51  1  0  0  0
 51 52  1  0  0  0
 51 56  2  0  0  0
 52 53  2  0  0  0
 53 54  1  0  0  0
 54 55  2  0  0  0
 55 56  1  0  0  0
 29 30  1  0  0  0
 24 25  1  0  0  0
 19 20  1  0  0  0
  2  5  1  0  0  0
  7 10  1  0  0  0
M  END
> <minimizedAffinity>
-10.13217

$$$$
2AQU_DR7_B_300


 56 58  0  0  0  0  0  0  0  0999 V2000
  -42.4769   68.8642   29.6878 N   0  0  0  0  0  0  0  0  0  0  0  0
  -41.8788   68.9827   30.9636 N   0  0  0  0  0  0  0  0  0  0  0  0
  -40.8052   68.6862   31.6303 C   0  0  0  0  0  0  0  0  0  0  0  0
  -39.8619   68.1342   31.2574 O   0  0  0  0  0  0  0  0  0  0  0  0
  -42.4987   69.4618   31.5598 H   0  0  0  0  0  0  0  0  0  0  0  0
  -40.9912   69.1389   33.0627 C   0  0  0  0  0  0  0  0  0  0  0  0
  -41.5741   68.0387   33.8385 N   0  0  0  0  0  0  0  0  0  0  0  0
  -42.7426   67.9856   34.4048 C   0  0  0  0  0  0  0  0  0  0  0  0
  -43.5483   68.8327   34.3944 O   0  0  0  0  0  0  0  0  0  0  0  0
  -41.0086   67.2397   33.9435 H   0  0  0  0  0  0  0  0  0  0  0  0
  -43.0396   66.7820   35.1030 O   0  0  0  0  0  0  0  0  0  0  0  0
  -44.0699   66.7919   36.0492 C   0  0  0  0  0  0  0  0  0  0  0  0
  -39.7777   69.7614   33.7736 C   0  0  0  0  0  0  0  0  0  0  0  0
  -39.1726   70.8266   32.8980 C   0  0  0  0  0  0  0  0  0  0  0  0
  -38.7040   68.7452   34.0004 C   0  0  0  0  0  0  0  0  0  0  0  0
  -40.1908   70.3582   35.0850 C   0  0  0  0  0  0  0  0  0  0  0  0
  -42.0181   69.4770   28.4737 C   0  0  0  0  0  0  0  0  0  0  0  0
  -41.5425   68.5784   27.4769 C   0  0  0  0  0  0  0  0  0  0  0  0
  -40.7168   67.9219   28.3617 O   0  0  0  0  0  0  0  0  0  0  0  0
  -40.1059   68.5575   28.7663 H   0  0  0  0  0  0  0  0  0  0  0  0
  -40.8541   69.1256   26.2555 C   0  0  0  0  0  0  0  0  0  0  0  0
  -38.9961   70.6701   26.8594 C   0  0  0  0  0  0  0  0  0  0  0  0
  -39.6375   71.5650   27.2471 O   0  0  0  0  0  0  0  0  0  0  0  0
  -39.4805   69.5521   26.4058 N   0  0  0  0  0  0  0  0  0  0  0  0
  -38.8072   68.8930   26.1201 H   0  0  0  0  0  0  0  0  0  0  0  0
  -37.3009   70.7159   26.7651 C   0  0  0  0  0  0  0  0  0  0  0  0
  -36.3796   71.8330   24.9861 C   0  0  0  0  0  0  0  0  0  0  0  0
  -35.7168   70.8685   24.8053 O   0  0  0  0  0  0  0  0  0  0  0  0
  -37.4113   71.9969   26.0830 N   0  0  0  0  0  0  0  0  0  0  0  0
  -37.9977   72.7625   26.2810 H   0  0  0  0  0  0  0  0  0  0  0  0
  -36.4882   74.2138   24.6617 C   0  0  0  0  0  0  0  0  0  0  0  0
  -36.1589   72.9608   24.1550 O   0  0  0  0  0  0  0  0  0  0  0  0
  -36.9061   70.9128   28.1602 C   0  0  0  0  0  0  0  0  0  0  0  0
  -36.9607   72.3614   28.6504 C   0  0  0  0  0  0  0  0  0  0  0  0
  -35.5370   70.4181   28.1245 C   0  0  0  0  0  0  0  0  0  0  0  0
  -37.6196   70.0212   29.1368 C   0  0  0  0  0  0  0  0  0  0  0  0
  -40.7834   68.0354   25.2481 C   0  0  0  0  0  0  0  0  0  0  0  0
  -40.5977   68.4574   23.8194 C   0  0  0  0  0  0  0  0  0  0  0  0
  -41.5350   69.1587   23.1100 C   0  0  0  0  0  0  0  0  0  0  0  0
  -41.2885   69.5335   21.7982 C   0  0  0  0  0  0  0  0  0  0  0  0
  -40.0770   69.2046   21.1730 C   0  0  0  0  0  0  0  0  0  0  0  0
  -39.1430   68.5045   21.8693 C   0  0  0  0  0  0  0  0  0  0  0  0
  -39.4012   68.1400   23.1863 C   0  0  0  0  0  0  0  0  0  0  0  0
  -43.7949   68.2313   29.6169 C   0  0  0  0  0  0  0  0  0  0  0  0
  -43.9113   66.8871   30.2778 C   0  0  0  0  0  0  0  0  0  0  0  0
  -43.3453   65.6999   29.8017 C   0  0  0  0  0  0  0  0  0  0  0  0
  -43.4998   64.5022   30.5157 C   0  0  0  0  0  0  0  0  0  0  0  0
  -44.6284   66.8690   31.4392 C   0  0  0  0  0  0  0  0  0  0  0  0
  -44.7771   65.7037   32.1192 C   0  0  0  0  0  0  0  0  0  0  0  0
  -44.2249   64.5168   31.6856 C   0  0  0  0  0  0  0  0  0  0  0  0
  -44.4771   63.4295   32.5007 C   0  0  0  0  0  0  0  0  0  0  0  0
  -43.8655   63.3659   33.7997 C   0  0  0  0  0  0  0  0  0  0  0  0
  -44.0574   62.3194   34.6924 C   0  0  0  0  0  0  0  0  0  0  0  0
  -44.8716   61.3121   34.3087 C   0  0  0  0  0  0  0  0  0  0  0  0
  -45.4717   61.3717   33.0572 C   0  0  0  0  0  0  0  0  0  0  0  0
  -45.2908   62.3903   32.1795 N   0  0  0  0  0  0  0  0  0  0  0  0
 31 32  1  0  0  0
 32 27  1  0  0  0
 27 28  2  0  0  0
 27 29  1  0  0  0
 29 26  1  0  0  0
 26 33  1  0  0  0
 26 22  1  0  0  0
 33 34  1  0  0  0
 33 35  1  0  0  0
 33 36  1  0  0  0
 22 23  2  0  0  0
 22 24  1  0  0  0
 24 21  1  0  0  0
 21 37  1  0  0  0
 21 18  1  0  0  0
 37 38  1  0  0  0
 38 39  2  0  0  0
 38 43  1  0  0  0
 39 40  1  0  0  0
 40 41  2  0  0  0
 41 42  1  0  0  0
 42 43  2  0  0  0
 18 19  1  0  0  0
 18 17  1  0  0  0
 17  1  1  0  0  0
  1  2  1  0  0  0
  1 44  1  0  0  0
  2  3  1  0  0  0
  3  4  2  0  0  0
  3  6  1  0  0  0
  6 13  1  0  0  0
  6  7  1  0  0  0
 13 14  1  0  0  0
 13 15  1  0  0  0
 13 16  1  0  0  0
  7  8  1  0  0  0
  8  9  2  0  0  0
  8 11  1  0  0  0
 11 12  1  0  0  0
 44 45  1  0  0  0
 45 46  1  0  0  0
 45 48  2  0  0  0
 46 47  2  0  0  0
 47 50  1  0  0  0
 48 49  1  0  0  0
 49 50  2  0  0  0
 50 51  1  0  0  0
 51 52  1  0  0  0
 51 56  2  0  0  0
 52 53  2  0  0  0
 53 54  1  0  0  0
 54 55  2  0  0  0
 55 56  1  0  0  0
 29 30  1  0  0  0
 24 25  1  0  0  0
 19 20  1  0  0  0
  2  5  1  0  0  0
  7 10  1  0  0  0
M  END
> <minimizedAffinity>
-10.05833

$$$$
2AQU_DR7_B_300


 56 58  0  0  0  0  0  0  0  0999 V2000
  -42.2170   68.4638   28.6287 N   0  0  0  0  0  0  0  0  0  0  0  0
  -43.2106   67.9058   29.4659 N   0  0  0  0  0  0  0  0  0  0  0  0
  -43.6536   67.9132   30.6861 C   0  0  0  0  0  0  0  0  0  0  0  0
  -43.2582   68.5188   31.5864 O   0  0  0  0  0  0  0  0  0  0  0  0
  -43.7651   67.2919   28.9322 H   0  0  0  0  0  0  0  0  0  0  0  0
  -44.7903   66.9189   30.7884 C   0  0  0  0  0  0  0  0  0  0  0  0
  -44.2441   65.6054   31.1469 N   0  0  0  0  0  0  0  0  0  0  0  0
  -43.6349   64.7517   30.3795 C   0  0  0  0  0  0  0  0  0  0  0  0
  -43.4169   64.8892   29.2392 O   0  0  0  0  0  0  0  0  0  0  0  0
  -44.3528   65.3368   32.0878 H   0  0  0  0  0  0  0  0  0  0  0  0
  -43.2151   63.5446   31.0049 O   0  0  0  0  0  0  0  0  0  0  0  0
  -43.8194   63.1673   32.2088 C   0  0  0  0  0  0  0  0  0  0  0  0
  -45.9903   67.3010   31.6714 C   0  0  0  0  0  0  0  0  0  0  0  0
  -47.2509   66.7207   31.0869 C   0  0  0  0  0  0  0  0  0  0  0  0
  -46.1870   68.7832   31.7043 C   0  0  0  0  0  0  0  0  0  0  0  0
  -45.7960   66.7879   33.0662 C   0  0  0  0  0  0  0  0  0  0  0  0
  -41.9778   69.8619   28.4089 C   0  0  0  0  0  0  0  0  0  0  0  0
  -41.8969   70.6607   29.5849 C   0  0  0  0  0  0  0  0  0  0  0  0
  -42.3122   71.7968   28.9271 O   0  0  0  0  0  0  0  0  0  0  0  0
  -41.7163   71.9757   28.1830 H   0  0  0  0  0  0  0  0  0  0  0  0
  -40.5801   70.7901   30.3019 C   0  0  0  0  0  0  0  0  0  0  0  0
  -40.3932   69.2408   32.2427 C   0  0  0  0  0  0  0  0  0  0  0  0
  -40.2442   68.2450   31.6522 O   0  0  0  0  0  0  0  0  0  0  0  0
  -40.5465   70.4108   31.6970 N   0  0  0  0  0  0  0  0  0  0  0  0
  -40.6570   71.1545   32.3325 H   0  0  0  0  0  0  0  0  0  0  0  0
  -40.5002   69.3077   33.9365 C   0  0  0  0  0  0  0  0  0  0  0  0
  -42.4342   68.5541   34.9129 C   0  0  0  0  0  0  0  0  0  0  0  0
  -42.4413   69.5647   35.5300 O   0  0  0  0  0  0  0  0  0  0  0  0
  -41.3916   68.1583   33.8878 N   0  0  0  0  0  0  0  0  0  0  0  0
  -41.3328   67.3440   33.3375 H   0  0  0  0  0  0  0  0  0  0  0  0
  -43.5723   67.1490   36.4990 C   0  0  0  0  0  0  0  0  0  0  0  0
  -43.4430   67.5960   35.1880 O   0  0  0  0  0  0  0  0  0  0  0  0
  -39.1610   68.8976   34.3601 C   0  0  0  0  0  0  0  0  0  0  0  0
  -38.8612   67.4052   34.2040 C   0  0  0  0  0  0  0  0  0  0  0  0
  -39.1920   69.2868   35.7630 C   0  0  0  0  0  0  0  0  0  0  0  0
  -38.0468   69.7034   33.7545 C   0  0  0  0  0  0  0  0  0  0  0  0
  -39.6178   69.8612   29.6540 C   0  0  0  0  0  0  0  0  0  0  0  0
  -38.4298   70.4900   28.9854 C   0  0  0  0  0  0  0  0  0  0  0  0
  -37.2508   69.8312   28.7625 C   0  0  0  0  0  0  0  0  0  0  0  0
  -36.2000   70.4682   28.1205 C   0  0  0  0  0  0  0  0  0  0  0  0
  -36.3230   71.7959   27.6857 C   0  0  0  0  0  0  0  0  0  0  0  0
  -37.4889   72.4582   27.9072 C   0  0  0  0  0  0  0  0  0  0  0  0
  -38.5368   71.8053   28.5473 C   0  0  0  0  0  0  0  0  0  0  0  0
  -41.4911   67.5519   27.7432 C   0  0  0  0  0  0  0  0  0  0  0  0
  -40.9849   68.1499   26.4613 C   0  0  0  0  0  0  0  0  0  0  0  0
  -41.7824   68.5411   25.3808 C   0  0  0  0  0  0  0  0  0  0  0  0
  -41.2016   69.1117   24.2383 C   0  0  0  0  0  0  0  0  0  0  0  0
  -39.6319   68.3159   26.3902 C   0  0  0  0  0  0  0  0  0  0  0  0
  -39.0793   68.8633   25.2778 C   0  0  0  0  0  0  0  0  0  0  0  0
  -39.8349   69.2700   24.1982 C   0  0  0  0  0  0  0  0  0  0  0  0
  -39.1076   69.8044   23.1515 C   0  0  0  0  0  0  0  0  0  0  0  0
  -39.0531   69.1003   21.8997 C   0  0  0  0  0  0  0  0  0  0  0  0
  -38.3533   69.5540   20.7891 C   0  0  0  0  0  0  0  0  0  0  0  0
  -37.6945   70.7278   20.9024 C   0  0  0  0  0  0  0  0  0  0  0  0
  -37.7498   71.4167   22.1075 C   0  0  0  0  0  0  0  0  0  0  0  0
  -38.4316   70.9817   23.1968 N   0  0  0  0  0  0  0  0  0  0  0  0
 31 32  1  0  0  0
 32 27  1  0  0  0
 27 28  2  0  0  0
 27 29  1  0  0  0
 29 26  1  0  0  0
 26 33  1  0  0  0
 26 22  1  0  0  0
 33 34  1  0  0  0
 33 35  1  0  0  0
 33 36  1  0  0  0
 22 23  2  0  0  0
 22 24  1  0  0  0
 24 21  1  0  0  0
 21 37  1  0  0  0
 21 18  1  0  0  0
 37 38  1  0  0  0
 38 39  2  0  0  0
 38 43  1  0  0  0
 39 40  1  0  0  0
 40 41  2  0  0  0
 41 42  1  0  0  0
 42 43  2  0  0  0
 18 19  1  0  0  0
 18 17  1  0  0  0
 17  1  1  0  0  0
  1  2  1  0  0  0
  1 44  1  0  0  0
  2  3  1  0  0  0
  3  4  2  0  0  0
  3  6  1  0  0  0
  6 13  1  0  0  0
  6  7  1  0  0  0
 13 14  1  0  0  0
 13 15  1  0  0  0
 13 16  1  0  0  0
  7  8  1  0  0  0
  8  9  2  0  0  0
  8 11  1  0  0  0
 11 12  1  0  0  0
 44 45  1  0  0  0
 45 46  1  0  0  0
 45 48  2  0  0  0
 46 47  2  0  0  0
 47 50  1  0  0  0
 48 49  1  0  0  0
 49 50  2  0  0  0
 50 51  1  0  0  0
 51 52  1  0  0  0
 51 56  2  0  0  0
 52 53  2  0  0  0
 53 54  1  0  0  0
 54 55  2  0  0  0
 55 56  1  0  0  0
 29 30  1  0  0  0
 24 25  1  0  0  0
 19 20  1  0  0  0
  2  5  1  0  0  0
  7 10  1  0  0  0
M  END
> <minimizedAffinity>
-9.94291

$$$$
2AQU_DR7_B_300


 56 58  0  0  0  0  0  0  0  0999 V2000
  -39.1551   69.5533   30.7526 N   0  0  0  0  0  0  0  0  0  0  0  0
  -40.4429   69.0109   30.5367 N   0  0  0  0  0  0  0  0  0  0  0  0
  -41.6043   69.2846   30.0255 C   0  0  0  0  0  0  0  0  0  0  0  0
  -41.9424   70.2548   29.4981 O   0  0  0  0  0  0  0  0  0  0  0  0
  -40.4676   68.0988   30.9067 H   0  0  0  0  0  0  0  0  0  0  0  0
  -42.5272   68.1120   30.2794 C   0  0  0  0  0  0  0  0  0  0  0  0
  -43.5954   68.5347   31.1918 N   0  0  0  0  0  0  0  0  0  0  0  0
  -44.0088   67.9446   32.2734 C   0  0  0  0  0  0  0  0  0  0  0  0
  -43.5892   66.9454   32.7120 O   0  0  0  0  0  0  0  0  0  0  0  0
  -44.0574   69.3711   30.9548 H   0  0  0  0  0  0  0  0  0  0  0  0
  -45.0760   68.5866   32.9613 O   0  0  0  0  0  0  0  0  0  0  0  0
  -46.3590   68.5359   32.4061 C   0  0  0  0  0  0  0  0  0  0  0  0
  -43.0822   67.3670   29.0536 C   0  0  0  0  0  0  0  0  0  0  0  0
  -43.3105   65.9204   29.4040 C   0  0  0  0  0  0  0  0  0  0  0  0
  -42.1000   67.3752   27.9257 C   0  0  0  0  0  0  0  0  0  0  0  0
  -44.3699   67.9885   28.6041 C   0  0  0  0  0  0  0  0  0  0  0  0
  -38.1411   69.7573   29.7574 C   0  0  0  0  0  0  0  0  0  0  0  0
  -38.5640   69.5838   28.4089 C   0  0  0  0  0  0  0  0  0  0  0  0
  -38.6044   68.2123   28.5234 O   0  0  0  0  0  0  0  0  0  0  0  0
  -37.7341   67.8852   28.7998 H   0  0  0  0  0  0  0  0  0  0  0  0
  -37.6996   70.1004   27.2904 C   0  0  0  0  0  0  0  0  0  0  0  0
  -38.8212   69.4404   25.1671 C   0  0  0  0  0  0  0  0  0  0  0  0
  -38.8315   68.2847   25.3318 O   0  0  0  0  0  0  0  0  0  0  0  0
  -38.3320   70.3047   26.0061 N   0  0  0  0  0  0  0  0  0  0  0  0
  -38.4031   71.2449   25.7228 H   0  0  0  0  0  0  0  0  0  0  0  0
  -39.3956   70.1806   23.7505 C   0  0  0  0  0  0  0  0  0  0  0  0
  -37.7070   71.1797   22.5620 C   0  0  0  0  0  0  0  0  0  0  0  0
  -38.3005   72.1957   22.6951 O   0  0  0  0  0  0  0  0  0  0  0  0
  -38.1387   69.8328   23.1044 N   0  0  0  0  0  0  0  0  0  0  0  0
  -37.6904   68.9588   23.0378 H   0  0  0  0  0  0  0  0  0  0  0  0
  -35.4382   71.9194   22.2614 C   0  0  0  0  0  0  0  0  0  0  0  0
  -36.5237   71.1944   21.7805 O   0  0  0  0  0  0  0  0  0  0  0  0
  -40.4590   69.2720   23.3209 C   0  0  0  0  0  0  0  0  0  0  0  0
  -39.9888   67.8782   22.8994 C   0  0  0  0  0  0  0  0  0  0  0  0
  -41.0031   70.0108   22.1901 C   0  0  0  0  0  0  0  0  0  0  0  0
  -41.5979   69.1491   24.2931 C   0  0  0  0  0  0  0  0  0  0  0  0
  -37.2218   71.4541   27.6748 C   0  0  0  0  0  0  0  0  0  0  0  0
  -36.0270   71.9765   26.9311 C   0  0  0  0  0  0  0  0  0  0  0  0
  -34.8671   71.2678   26.7698 C   0  0  0  0  0  0  0  0  0  0  0  0
  -33.8088   71.8048   26.0529 C   0  0  0  0  0  0  0  0  0  0  0  0
  -33.9047   73.0806   25.4783 C   0  0  0  0  0  0  0  0  0  0  0  0
  -35.0515   73.7924   25.6378 C   0  0  0  0  0  0  0  0  0  0  0  0
  -36.1072   73.2392   26.3544 C   0  0  0  0  0  0  0  0  0  0  0  0
  -38.7258   69.7407   32.1394 C   0  0  0  0  0  0  0  0  0  0  0  0
  -39.6627   69.2165   33.1905 C   0  0  0  0  0  0  0  0  0  0  0  0
  -40.8493   69.8350   33.5976 C   0  0  0  0  0  0  0  0  0  0  0  0
  -41.6613   69.2413   34.5755 C   0  0  0  0  0  0  0  0  0  0  0  0
  -39.2928   68.0337   33.7630 C   0  0  0  0  0  0  0  0  0  0  0  0
  -40.0825   67.4707   34.7126 C   0  0  0  0  0  0  0  0  0  0  0  0
  -41.2637   68.0464   35.1311 C   0  0  0  0  0  0  0  0  0  0  0  0
  -41.9396   67.3369   36.1058 C   0  0  0  0  0  0  0  0  0  0  0  0
  -43.0921   67.9236   36.7326 C   0  0  0  0  0  0  0  0  0  0  0  0
  -43.8395   67.2923   37.7184 C   0  0  0  0  0  0  0  0  0  0  0  0
  -43.4545   66.0542   38.0978 C   0  0  0  0  0  0  0  0  0  0  0  0
  -42.3457   65.4788   37.4900 C   0  0  0  0  0  0  0  0  0  0  0  0
  -41.6108   66.0876   36.5257 N   0  0  0  0  0  0  0  0  0  0  0  0
 31 32  1  0  0  0
 32 27  1  0  0  0
 27 28  2  0  0  0
 27 29  1  0  0  0
 29 26  1  0  0  0
 26 33  1  0  0  0
 26 22  1  0  0  0
 33 34  1  0  0  0
 33 35  1  0  0  0
 33 36  1  0  0  0
 22 23  2  0  0  0
 22 24  1  0  0  0
 24 21  1  0  0  0
 21 37  1  0  0  0
 21 18  1  0  0  0
 37 38  1  0  0  0
 38 39  2  0  0  0
 38 43  1  0  0  0
 39 40  1  0  0  0
 40 41  2  0  0  0
 41 42  1  0  0  0
 42 43  2  0  0  0
 18 19  1  0  0  0
 18 17  1  0  0  0
 17  1  1  0  0  0
  1  2  1  0  0  0
  1 44  1  0  0  0
  2  3  1  0  0  0
  3  4  2  0  0  0
  3  6  1  0  0  0
  6 13  1  0  0  0
  6  7  1  0  0  0
 13 14  1  0  0  0
 13 15  1  0  0  0
 13 16  1  0  0  0
  7  8  1  0  0  0
  8  9  2  0  0  0
  8 11  1  0  0  0
 11 12  1  0  0  0
 44 45  1  0  0  0
 45 46  1  0  0  0
 45 48  2  0  0  0
 46 47  2  0  0  0
 47 50  1  0  0  0
 48 49  1  0  0  0
 49 50  2  0  0  0
 50 51  1  0  0  0
 51 52  1  0  0  0
 51 56  2  0  0  0
 52 53  2  0  0  0
 53 54  1  0  0  0
 54 55  2  0  0  0
 55 56  1  0  0  0
 29 30  1  0  0  0
 24 25  1  0  0  0
 19 20  1  0  0  0
  2  5  1  0  0  0
  7 10  1  0  0  0
M  END
> <minimizedAffinity>
-9.88939

$$$$
2AQU_DR7_B_300


 56 58  0  0  0  0  0  0  0  0999 V2000
  -41.4390   69.2201   26.9196 N   0  0  0  0  0  0  0  0  0  0  0  0
  -40.7855   69.3628   25.6738 N   0  0  0  0  0  0  0  0  0  0  0  0
  -39.6983   69.0481   25.0380 C   0  0  0  0  0  0  0  0  0  0  0  0
  -38.8004   68.4304   25.4199 O   0  0  0  0  0  0  0  0  0  0  0  0
  -41.3614   69.8894   25.0735 H   0  0  0  0  0  0  0  0  0  0  0  0
  -39.7447   69.6861   23.6662 C   0  0  0  0  0  0  0  0  0  0  0  0
  -38.3751   69.9805   23.2307 N   0  0  0  0  0  0  0  0  0  0  0  0
  -37.8278   71.1420   23.0299 C   0  0  0  0  0  0  0  0  0  0  0  0
  -38.3519   72.1786   23.1625 O   0  0  0  0  0  0  0  0  0  0  0  0
  -37.7976   69.1995   23.0703 H   0  0  0  0  0  0  0  0  0  0  0  0
  -36.4715   71.1229   22.6002 O   0  0  0  0  0  0  0  0  0  0  0  0
  -35.7364   72.3122   22.6460 C   0  0  0  0  0  0  0  0  0  0  0  0
  -40.5503   68.9628   22.5738 C   0  0  0  0  0  0  0  0  0  0  0  0
  -40.4395   67.4738   22.7687 C   0  0  0  0  0  0  0  0  0  0  0  0
  -39.9969   69.2500   21.2144 C   0  0  0  0  0  0  0  0  0  0  0  0
  -41.9904   69.3748   22.6283 C   0  0  0  0  0  0  0  0  0  0  0  0
  -40.8284   69.3141   28.2152 C   0  0  0  0  0  0  0  0  0  0  0  0
  -41.0922   70.5172   28.9298 C   0  0  0  0  0  0  0  0  0  0  0  0
  -41.0284   71.2904   27.7923 O   0  0  0  0  0  0  0  0  0  0  0  0
  -40.1671   71.1650   27.3641 H   0  0  0  0  0  0  0  0  0  0  0  0
  -40.1626   70.9397   30.0354 C   0  0  0  0  0  0  0  0  0  0  0  0
  -40.6991   69.3907   31.9102 C   0  0  0  0  0  0  0  0  0  0  0  0
  -40.5740   68.3809   31.3381 O   0  0  0  0  0  0  0  0  0  0  0  0
  -40.5269   70.5672   31.3844 N   0  0  0  0  0  0  0  0  0  0  0  0
  -40.6662   71.3223   32.0006 H   0  0  0  0  0  0  0  0  0  0  0  0
  -41.1980   69.4830   33.5311 C   0  0  0  0  0  0  0  0  0  0  0  0
  -43.1481   68.2914   33.7291 C   0  0  0  0  0  0  0  0  0  0  0  0
  -43.6793   69.3224   33.9680 O   0  0  0  0  0  0  0  0  0  0  0  0
  -41.6754   68.1124   33.4226 N   0  0  0  0  0  0  0  0  0  0  0  0
  -41.1764   67.2913   33.2081 H   0  0  0  0  0  0  0  0  0  0  0  0
  -45.3110   67.2393   33.7385 C   0  0  0  0  0  0  0  0  0  0  0  0
  -43.9271   67.1079   33.7916 O   0  0  0  0  0  0  0  0  0  0  0  0
  -39.9283   69.5254   34.2569 C   0  0  0  0  0  0  0  0  0  0  0  0
  -39.0813   68.2551   34.1547 C   0  0  0  0  0  0  0  0  0  0  0  0
  -40.4033   69.7360   35.6173 C   0  0  0  0  0  0  0  0  0  0  0  0
  -39.0790   70.7258   33.9482 C   0  0  0  0  0  0  0  0  0  0  0  0
  -38.8587   70.2616   29.8153 C   0  0  0  0  0  0  0  0  0  0  0  0
  -37.9307   70.9040   28.8255 C   0  0  0  0  0  0  0  0  0  0  0  0
  -37.8674   72.2549   28.6143 C   0  0  0  0  0  0  0  0  0  0  0  0
  -36.9712   72.7821   27.6972 C   0  0  0  0  0  0  0  0  0  0  0  0
  -36.1121   71.9452   26.9702 C   0  0  0  0  0  0  0  0  0  0  0  0
  -36.1719   70.6023   27.1710 C   0  0  0  0  0  0  0  0  0  0  0  0
  -37.0716   70.0876   28.0981 C   0  0  0  0  0  0  0  0  0  0  0  0
  -42.8190   68.7322   26.9055 C   0  0  0  0  0  0  0  0  0  0  0  0
  -43.1829   67.7681   27.9989 C   0  0  0  0  0  0  0  0  0  0  0  0
  -43.8281   68.1055   29.1931 C   0  0  0  0  0  0  0  0  0  0  0  0
  -44.1405   67.1155   30.1367 C   0  0  0  0  0  0  0  0  0  0  0  0
  -42.8468   66.4662   27.7634 C   0  0  0  0  0  0  0  0  0  0  0  0
  -43.1481   65.5169   28.6855 C   0  0  0  0  0  0  0  0  0  0  0  0
  -43.7924   65.8110   29.8688 C   0  0  0  0  0  0  0  0  0  0  0  0
  -44.0188   64.7228   30.6902 C   0  0  0  0  0  0  0  0  0  0  0  0
  -45.3280   64.5214   31.2479 C   0  0  0  0  0  0  0  0  0  0  0  0
  -45.6569   63.4597   32.0807 C   0  0  0  0  0  0  0  0  0  0  0  0
  -44.6837   62.5692   32.3719 C   0  0  0  0  0  0  0  0  0  0  0  0
  -43.4182   62.7545   31.8297 C   0  0  0  0  0  0  0  0  0  0  0  0
  -43.0884   63.7877   31.0146 N   0  0  0  0  0  0  0  0  0  0  0  0
 31 32  1  0  0  0
 32 27  1  0  0  0
 27 28  2  0  0  0
 27 29  1  0  0  0
 29 26  1  0  0  0
 26 33  1  0  0  0
 26 22  1  0  0  0
 33 34  1  0  0  0
 33 35  1  0  0  0
 33 36  1  0  0  0
 22 23  2  0  0  0
 22 24  1  0  0  0
 24 21  1  0  0  0
 21 37  1  0  0  0
 21 18  1  0  0  0
 37 38  1  0  0  0
 38 39  2  0  0  0
 38 43  1  0  0  0
 39 40  1  0  0  0
 40 41  2  0  0  0
 41 42  1  0  0  0
 42 43  2  0  0  0
 18 19  1  0  0  0
 18 17  1  0  0  0
 17  1  1  0  0  0
  1  2  1  0  0  0
  1 44  1  0  0  0
  2  3  1  0  0  0
  3  4  2  0  0  0
  3  6  1  0  0  0
  6 13  1  0  0  0
  6  7  1  0  0  0
 13 14  1  0  0  0
 13 15  1  0  0  0
 13 16  1  0  0  0
  7  8  1  0  0  0
  8  9  2  0  0  0
  8 11  1  0  0  0
 11 12  1  0  0  0
 44 45  1  0  0  0
 45 46  1  0  0  0
 45 48  2  0  0  0
 46 47  2  0  0  0
 47 50  1  0  0  0
 48 49  1  0  0  0
 49 50  2  0  0  0
 50 51  1  0  0  0
 51 52  1  0  0  0
 51 56  2  0  0  0
 52 53  2  0  0  0
 53 54  1  0  0  0
 54 55  2  0  0  0
 55 56  1  0  0  0
 29 30  1  0  0  0
 24 25  1  0  0  0
 19 20  1  0  0  0
  2  5  1  0  0  0
  7 10  1  0  0  0
M  END
> <minimizedAffinity>
-9.84696

$$$$
2AQU_DR7_B_300


 56 58  0  0  0  0  0  0  0  0999 V2000
  -40.7955   68.6459   26.3188 N   0  0  0  0  0  0  0  0  0  0  0  0
  -39.6735   69.4795   26.5327 N   0  0  0  0  0  0  0  0  0  0  0  0
  -39.3276   70.6471   26.9824 C   0  0  0  0  0  0  0  0  0  0  0  0
  -40.0046   71.4729   27.4221 O   0  0  0  0  0  0  0  0  0  0  0  0
  -38.8650   69.0041   26.2334 H   0  0  0  0  0  0  0  0  0  0  0  0
  -37.8355   70.8115   26.7888 C   0  0  0  0  0  0  0  0  0  0  0  0
  -37.5956   71.8967   25.8312 N   0  0  0  0  0  0  0  0  0  0  0  0
  -36.8454   71.8810   24.7701 C   0  0  0  0  0  0  0  0  0  0  0  0
  -36.2132   70.9734   24.3913 O   0  0  0  0  0  0  0  0  0  0  0  0
  -38.0619   72.7439   26.0157 H   0  0  0  0  0  0  0  0  0  0  0  0
  -36.7977   73.0927   24.0260 O   0  0  0  0  0  0  0  0  0  0  0  0
  -35.5649   73.5244   23.5252 C   0  0  0  0  0  0  0  0  0  0  0  0
  -36.9679   70.9583   28.0503 C   0  0  0  0  0  0  0  0  0  0  0  0
  -36.8083   72.4178   28.3850 C   0  0  0  0  0  0  0  0  0  0  0  0
  -35.5885   70.4272   27.8226 C   0  0  0  0  0  0  0  0  0  0  0  0
  -37.5995   70.2403   29.2044 C   0  0  0  0  0  0  0  0  0  0  0  0
  -41.4527   67.8358   27.3047 C   0  0  0  0  0  0  0  0  0  0  0  0
  -41.1605   68.1637   28.6592 C   0  0  0  0  0  0  0  0  0  0  0  0
  -39.9109   67.5884   28.6032 O   0  0  0  0  0  0  0  0  0  0  0  0
  -39.9946   66.6581   28.3415 H   0  0  0  0  0  0  0  0  0  0  0  0
  -42.0496   67.6407   29.7551 C   0  0  0  0  0  0  0  0  0  0  0  0
  -40.9910   68.3588   31.8919 C   0  0  0  0  0  0  0  0  0  0  0  0
  -39.9462   67.8608   31.7404 O   0  0  0  0  0  0  0  0  0  0  0  0
  -41.9718   68.2986   31.0406 N   0  0  0  0  0  0  0  0  0  0  0  0
  -42.7888   68.7751   31.3135 H   0  0  0  0  0  0  0  0  0  0  0  0
  -41.4218   69.1998   33.3032 C   0  0  0  0  0  0  0  0  0  0  0  0
  -43.3330   68.1692   34.0429 C   0  0  0  0  0  0  0  0  0  0  0  0
  -43.9093   69.1561   33.7327 O   0  0  0  0  0  0  0  0  0  0  0  0
  -41.8452   67.9337   33.8830 N   0  0  0  0  0  0  0  0  0  0  0  0
  -41.3096   67.1394   34.1099 H   0  0  0  0  0  0  0  0  0  0  0  0
  -43.4123   66.3541   35.6191 C   0  0  0  0  0  0  0  0  0  0  0  0
  -44.0703   67.1355   34.6747 O   0  0  0  0  0  0  0  0  0  0  0  0
  -40.1244   69.6018   33.8472 C   0  0  0  0  0  0  0  0  0  0  0  0
  -39.2142   68.4473   34.2714 C   0  0  0  0  0  0  0  0  0  0  0  0
  -40.5473   70.3911   34.9955 C   0  0  0  0  0  0  0  0  0  0  0  0
  -39.3577   70.5567   32.9765 C   0  0  0  0  0  0  0  0  0  0  0  0
  -43.4593   67.8453   29.3318 C   0  0  0  0  0  0  0  0  0  0  0  0
  -44.5139   67.2170   30.1959 C   0  0  0  0  0  0  0  0  0  0  0  0
  -44.4763   65.9119   30.6070 C   0  0  0  0  0  0  0  0  0  0  0  0
  -45.4754   65.4023   31.4219 C   0  0  0  0  0  0  0  0  0  0  0  0
  -46.5413   66.2110   31.8425 C   0  0  0  0  0  0  0  0  0  0  0  0
  -46.5881   67.5068   31.4350 C   0  0  0  0  0  0  0  0  0  0  0  0
  -45.5762   68.0064   30.6223 C   0  0  0  0  0  0  0  0  0  0  0  0
  -41.2127   68.4185   24.9343 C   0  0  0  0  0  0  0  0  0  0  0  0
  -40.2862   68.9481   23.8767 C   0  0  0  0  0  0  0  0  0  0  0  0
  -40.2205   70.2790   23.4517 C   0  0  0  0  0  0  0  0  0  0  0  0
  -39.2972   70.6668   22.4692 C   0  0  0  0  0  0  0  0  0  0  0  0
  -39.4518   68.0239   23.3173 C   0  0  0  0  0  0  0  0  0  0  0  0
  -38.5663   68.4083   22.3630 C   0  0  0  0  0  0  0  0  0  0  0  0
  -38.4663   69.7128   21.9270 C   0  0  0  0  0  0  0  0  0  0  0  0
  -37.5118   69.9246   20.9502 C   0  0  0  0  0  0  0  0  0  0  0  0
  -37.2345   71.2661   20.5153 C   0  0  0  0  0  0  0  0  0  0  0  0
  -36.2941   71.5835   19.5437 C   0  0  0  0  0  0  0  0  0  0  0  0
  -35.6033   70.5651   18.9866 C   0  0  0  0  0  0  0  0  0  0  0  0
  -35.8615   69.2669   19.4083 C   0  0  0  0  0  0  0  0  0  0  0  0
  -36.7772   68.9479   20.3572 N   0  0  0  0  0  0  0  0  0  0  0  0
 31 32  1  0  0  0
 32 27  1  0  0  0
 27 28  2  0  0  0
 27 29  1  0  0  0
 29 26  1  0  0  0
 26 33  1  0  0  0
 26 22  1  0  0  0
 33 34  1  0  0  0
 33 35  1  0  0  0
 33 36  1  0  0  0
 22 23  2  0  0  0
 22 24  1  0  0  0
 24 21  1  0  0  0
 21 37  1  0  0  0
 21 18  1  0  0  0
 37 38  1  0  0  0
 38 39  2  0  0  0
 38 43  1  0  0  0
 39 40  1  0  0  0
 40 41  2  0  0  0
 41 42  1  0  0  0
 42 43  2  0  0  0
 18 19  1  0  0  0
 18 17  1  0  0  0
 17  1  1  0  0  0
  1  2  1  0  0  0
  1 44  1  0  0  0
  2  3  1  0  0  0
  3  4  2  0  0  0
  3  6  1  0  0  0
  6 13  1  0  0  0
  6  7  1  0  0  0
 13 14  1  0  0  0
 13 15  1  0  0  0
 13 16  1  0  0  0
  7  8  1  0  0  0
  8  9  2  0  0  0
  8 11  1  0  0  0
 11 12  1  0  0  0
 44 45  1  0  0  0
 45 46  1  0  0  0
 45 48  2  0  0  0
 46 47  2  0  0  0
 47 50  1  0  0  0
 48 49  1  0  0  0
 49 50  2  0  0  0
 50 51  1  0  0  0
 51 52  1  0  0  0
 51 56  2  0  0  0
 52 53  2  0  0  0
 53 54  1  0  0  0
 54 55  2  0  0  0
 55 56  1  0  0  0
 29 30  1  0  0  0
 24 25  1  0  0  0
 19 20  1  0  0  0
  2  5  1  0  0  0
  7 10  1  0  0  0
M  END
> <minimizedAffinity>
-9.73279

$$$$
2AQU_DR7_B_300


 56 58  0  0  0  0  0  0  0  0999 V2000
  -41.3246   69.8442   29.1378 N   0  0  0  0  0  0  0  0  0  0  0  0
  -41.1278   69.5701   30.5109 N   0  0  0  0  0  0  0  0  0  0  0  0
  -40.4785   68.7943   31.3245 C   0  0  0  0  0  0  0  0  0  0  0  0
  -39.7301   67.9537   31.0661 O   0  0  0  0  0  0  0  0  0  0  0  0
  -41.6815   70.1894   31.0393 H   0  0  0  0  0  0  0  0  0  0  0  0
  -40.9033   69.1225   32.7398 C   0  0  0  0  0  0  0  0  0  0  0  0
  -41.8291   68.0871   33.2120 N   0  0  0  0  0  0  0  0  0  0  0  0
  -43.0483   68.2328   33.6379 C   0  0  0  0  0  0  0  0  0  0  0  0
  -43.6281   69.2445   33.7229 O   0  0  0  0  0  0  0  0  0  0  0  0
  -41.4832   67.1655   33.2053 H   0  0  0  0  0  0  0  0  0  0  0  0
  -43.7114   67.0404   34.0412 O   0  0  0  0  0  0  0  0  0  0  0  0
  -43.7121   66.6990   35.3978 C   0  0  0  0  0  0  0  0  0  0  0  0
  -39.7937   69.4099   33.7653 C   0  0  0  0  0  0  0  0  0  0  0  0
  -38.6578   70.1315   33.0897 C   0  0  0  0  0  0  0  0  0  0  0  0
  -39.2194   68.1410   34.3102 C   0  0  0  0  0  0  0  0  0  0  0  0
  -40.3264   70.2451   34.8902 C   0  0  0  0  0  0  0  0  0  0  0  0
  -40.5506   70.7446   28.3314 C   0  0  0  0  0  0  0  0  0  0  0  0
  -39.3392   70.2095   27.8082 C   0  0  0  0  0  0  0  0  0  0  0  0
  -38.5646   71.1544   28.4430 O   0  0  0  0  0  0  0  0  0  0  0  0
  -38.8528   72.0413   28.1760 H   0  0  0  0  0  0  0  0  0  0  0  0
  -39.1480   70.1320   26.3174 C   0  0  0  0  0  0  0  0  0  0  0  0
  -36.9169   71.0859   25.7565 C   0  0  0  0  0  0  0  0  0  0  0  0
  -37.1062   72.1819   26.1108 O   0  0  0  0  0  0  0  0  0  0  0  0
  -37.7885   70.1236   25.8245 N   0  0  0  0  0  0  0  0  0  0  0  0
  -37.4740   69.2535   25.4879 H   0  0  0  0  0  0  0  0  0  0  0  0
  -35.4690   70.5848   25.0237 C   0  0  0  0  0  0  0  0  0  0  0  0
  -34.8392   71.5311   23.0313 C   0  0  0  0  0  0  0  0  0  0  0  0
  -34.6044   70.4326   22.6566 O   0  0  0  0  0  0  0  0  0  0  0  0
  -35.3747   71.8966   24.4003 N   0  0  0  0  0  0  0  0  0  0  0  0
  -35.5985   72.7817   24.7687 H   0  0  0  0  0  0  0  0  0  0  0  0
  -33.7495   72.3490   21.0492 C   0  0  0  0  0  0  0  0  0  0  0  0
  -34.5423   72.6115   22.1618 O   0  0  0  0  0  0  0  0  0  0  0  0
  -34.5495   70.4915   26.1580 C   0  0  0  0  0  0  0  0  0  0  0  0
  -35.2202   70.3233   27.5231 C   0  0  0  0  0  0  0  0  0  0  0  0
  -33.8684   71.7747   26.0582 C   0  0  0  0  0  0  0  0  0  0  0  0
  -33.4687   69.4605   25.9951 C   0  0  0  0  0  0  0  0  0  0  0  0
  -39.7054   68.8341   25.8556 C   0  0  0  0  0  0  0  0  0  0  0  0
  -40.1610   68.7737   24.4265 C   0  0  0  0  0  0  0  0  0  0  0  0
  -39.5082   68.0656   23.4538 C   0  0  0  0  0  0  0  0  0  0  0  0
  -39.9969   68.0376   22.1567 C   0  0  0  0  0  0  0  0  0  0  0  0
  -41.1675   68.7304   21.8153 C   0  0  0  0  0  0  0  0  0  0  0  0
  -41.8190   69.4395   22.7744 C   0  0  0  0  0  0  0  0  0  0  0  0
  -41.3208   69.4542   24.0727 C   0  0  0  0  0  0  0  0  0  0  0  0
  -42.5453   69.3292   28.5153 C   0  0  0  0  0  0  0  0  0  0  0  0
  -43.0516   68.0208   29.0528 C   0  0  0  0  0  0  0  0  0  0  0  0
  -42.6108   66.7560   28.6499 C   0  0  0  0  0  0  0  0  0  0  0  0
  -43.1398   65.5978   29.2388 C   0  0  0  0  0  0  0  0  0  0  0  0
  -44.0127   68.1198   30.0170 C   0  0  0  0  0  0  0  0  0  0  0  0
  -44.5224   66.9929   30.5762 C   0  0  0  0  0  0  0  0  0  0  0  0
  -44.1047   65.7302   30.2115 C   0  0  0  0  0  0  0  0  0  0  0  0
  -44.7312   64.6972   30.8827 C   0  0  0  0  0  0  0  0  0  0  0  0
  -43.9348   63.6674   31.4917 C   0  0  0  0  0  0  0  0  0  0  0  0
  -44.4676   62.5910   32.1891 C   0  0  0  0  0  0  0  0  0  0  0  0
  -45.8122   62.5215   32.2991 C   0  0  0  0  0  0  0  0  0  0  0  0
  -46.5869   63.5182   31.7191 C   0  0  0  0  0  0  0  0  0  0  0  0
  -46.0751   64.5735   31.0373 N   0  0  0  0  0  0  0  0  0  0  0  0
 31 32  1  0  0  0
 32 27  1  0  0  0
 27 28  2  0  0  0
 27 29  1  0  0  0
 29 26  1  0  0  0
 26 33  1  0  0  0
 26 22  1  0  0  0
 33 34  1  0  0  0
 33 35  1  0  0  0
 33 36  1  0  0  0
 22 23  2  0  0  0
 22 24  1  0  0  0
 24 21  1  0  0  0
 21 37  1  0  0  0
 21 18  1  0  0  0
 37 38  1  0  0  0
 38 39  2  0  0  0
 38 43  1  0  0  0
 39 40  1  0  0  0
 40 41  2  0  0  0
 41 42  1  0  0  0
 42 43  2  0  0  0
 18 19  1  0  0  0
 18 17  1  0  0  0
 17  1  1  0  0  0
  1  2  1  0  0  0
  1 44  1  0  0  0
  2  3  1  0  0  0
  3  4  2  0  0  0
  3  6  1  0  0  0
  6 13  1  0  0  0
  6  7  1  0  0  0
 13 14  1  0  0  0
 13 15  1  0  0  0
 13 16  1  0  0  0
  7  8  1  0  0  0
  8  9  2  0  0  0
  8 11  1  0  0  0
 11 12  1  0  0  0
 44 45  1  0  0  0
 45 46  1  0  0  0
 45 48  2  0  0  0
 46 47  2  0  0  0
 47 50  1  0  0  0
 48 49  1  0  0  0
 49 50  2  0  0  0
 50 51  1  0  0  0
 51 52  1  0  0  0
 51 56  2  0  0  0
 52 53  2  0  0  0
 53 54  1  0  0  0
 54 55  2  0  0  0
 55 56  1  0  0  0
 29 30  1  0  0  0
 24 25  1  0  0  0
 19 20  1  0  0  0
  2  5  1  0  0  0
  7 10  1  0  0  0
M  END
> <minimizedAffinity>
-9.33240

$$$$
