3DJK_G55_B_401


 40 42  0  0  0  0  0  0  0  0999 V2000
   15.1570   23.8778   17.9805 C   0  0  0  0  0  0  0  0  0  0  0  0
   13.9960   24.6546   18.3844 O   0  0  0  0  0  0  0  0  0  0  0  0
   13.5675   25.0281   17.5984 H   0  0  0  0  0  0  0  0  0  0  0  0
   16.1595   24.8075   17.3137 C   0  0  0  0  0  0  0  0  0  0  0  0
   17.5227   24.3051   17.3661 N   0  0  0  0  0  0  0  0  0  0  0  0
   18.2422   23.7976   15.9880 S   0  0  0  0  0  0  0  0  0  0  0  0
   17.2071   23.5293   15.0066 O   0  0  0  0  0  0  0  0  0  0  0  0
   19.1201   22.7505   16.3720 O   0  0  0  0  0  0  0  0  0  0  0  0
   20.7976   27.2798   14.5928 C   0  0  0  0  0  0  0  0  0  0  0  0
   21.3540   26.0245   14.8214 C   0  0  0  0  0  0  0  0  0  0  0  0
   20.5982   24.9515   15.2096 C   0  0  0  0  0  0  0  0  0  0  0  0
   19.1997   25.1426   15.3314 C   0  0  0  0  0  0  0  0  0  0  0  0
   18.6027   26.3234   14.9840 C   0  0  0  0  0  0  0  0  0  0  0  0
   19.3872   27.3729   14.5763 C   0  0  0  0  0  0  0  0  0  0  0  0
   21.4525   28.3868   14.2087 O   0  0  0  0  0  0  0  0  0  0  0  0
   22.1866   29.0623   15.2235 C   0  0  0  0  0  0  0  0  0  0  0  0
   18.3853   24.8852   18.3655 C   0  0  0  0  0  0  0  0  0  0  0  0
   18.2371   24.3123   19.8051 C   0  0  0  0  0  0  0  0  0  0  0  0
   18.2126   22.7993   19.7555 C   0  0  0  0  0  0  0  0  0  0  0  0
   19.4596   24.8368   20.5507 C   0  0  0  0  0  0  0  0  0  0  0  0
   14.6874   22.6845   17.1041 C   0  0  0  0  0  0  0  0  0  0  0  0
   13.8001   21.8144   17.8891 N   0  0  0  0  0  0  0  0  0  0  0  0
   14.2243   20.8940   18.7344 C   0  0  0  0  0  0  0  0  0  0  0  0
   15.3553   20.6910   18.9924 O   0  0  0  0  0  0  0  0  0  0  0  0
   12.8282   21.9253   17.7773 H   0  0  0  0  0  0  0  0  0  0  0  0
   13.2118   20.2218   19.3342 O   0  0  0  0  0  0  0  0  0  0  0  0
   13.4884   18.8538   19.6539 C   0  0  0  0  0  0  0  0  0  0  0  0
   12.4451   18.4066   20.6496 C   0  0  0  0  0  0  0  0  0  0  0  0
   11.1179   18.5128   20.1977 O   0  0  0  0  0  0  0  0  0  0  0  0
   10.5547   17.4611   19.4655 C   0  0  0  0  0  0  0  0  0  0  0  0
   11.4155   16.8604   18.5454 O   0  0  0  0  0  0  0  0  0  0  0  0
   12.0833   17.8372   17.7378 C   0  0  0  0  0  0  0  0  0  0  0  0
   13.4479   18.0794   18.3466 C   0  0  0  0  0  0  0  0  0  0  0  0
   13.9058   23.0877   15.8634 C   0  0  0  0  0  0  0  0  0  0  0  0
   14.4412   21.1456   14.3504 C   0  0  0  0  0  0  0  0  0  0  0  0
   14.0479   20.1692   13.4665 C   0  0  0  0  0  0  0  0  0  0  0  0
   12.7077   19.8217   13.3002 C   0  0  0  0  0  0  0  0  0  0  0  0
   11.7548   20.4908   14.0641 C   0  0  0  0  0  0  0  0  0  0  0  0
   12.1494   21.5341   14.9244 C   0  0  0  0  0  0  0  0  0  0  0  0
   13.4945   21.8903   15.0530 C   0  0  0  0  0  0  0  0  0  0  0  0
  9 15  1  0  0  0
  9 10  2  0  0  0
  9 14  1  0  0  0
 15 16  1  0  0  0
 10 11  1  0  0  0
 11 12  2  0  0  0
 12 13  1  0  0  0
 12  6  1  0  0  0
 13 14  2  0  0  0
  6  7  2  0  0  0
  6  8  2  0  0  0
  6  5  1  0  0  0
  5 17  1  0  0  0
  5  4  1  0  0  0
 17 18  1  0  0  0
 18 19  1  0  0  0
 18 20  1  0  0  0
  4  1  1  0  0  0
  1  2  1  0  0  0
  1 21  1  0  0  0
 21 22  1  0  0  0
 21 34  1  0  0  0
 22 23  1  0  0  0
 23 24  2  0  0  0
 23 26  1  0  0  0
 26 27  1  0  0  0
 27 28  1  0  0  0
 27 33  1  0  0  0
 28 29  1  0  0  0
 29 30  1  0  0  0
 30 31  1  0  0  0
 31 32  1  0  0  0
 32 33  1  0  0  0
 34 40  1  0  0  0
 35 36  2  0  0  0
 35 40  1  0  0  0
 36 37  1  0  0  0
 37 38  2  0  0  0
 38 39  1  0  0  0
 39 40  2  0  0  0
  2  3  1  0  0  0
 22 25  1  0  0  0
M  END
> <minimizedAffinity>
-9.73439

$$$$
3DJK_G55_B_401


 40 42  0  0  0  0  0  0  0  0999 V2000
   17.0876   24.9264   17.3264 C   0  0  0  0  0  0  0  0  0  0  0  0
   16.2824   26.0556   17.7635 O   0  0  0  0  0  0  0  0  0  0  0  0
   16.7372   26.8827   17.5402 H   0  0  0  0  0  0  0  0  0  0  0  0
   18.4049   24.9415   18.0870 C   0  0  0  0  0  0  0  0  0  0  0  0
   18.4725   23.9277   19.1267 N   0  0  0  0  0  0  0  0  0  0  0  0
   18.4916   22.3480   18.7042 S   0  0  0  0  0  0  0  0  0  0  0  0
   19.1308   21.5995   19.7708 O   0  0  0  0  0  0  0  0  0  0  0  0
   19.0458   22.3027   17.3983 O   0  0  0  0  0  0  0  0  0  0  0  0
   14.2058   20.9271   18.2394 C   0  0  0  0  0  0  0  0  0  0  0  0
   15.2763   20.1228   17.8590 C   0  0  0  0  0  0  0  0  0  0  0  0
   16.5773   20.5159   18.0208 C   0  0  0  0  0  0  0  0  0  0  0  0
   16.8133   21.7681   18.6398 C   0  0  0  0  0  0  0  0  0  0  0  0
   15.7915   22.5222   19.1484 C   0  0  0  0  0  0  0  0  0  0  0  0
   14.4993   22.0885   18.9900 C   0  0  0  0  0  0  0  0  0  0  0  0
   12.9019   20.6297   18.1246 O   0  0  0  0  0  0  0  0  0  0  0  0
   12.5965   19.2881   17.7617 C   0  0  0  0  0  0  0  0  0  0  0  0
   19.1917   24.2811   20.3255 C   0  0  0  0  0  0  0  0  0  0  0  0
   20.3125   25.3475   20.1550 C   0  0  0  0  0  0  0  0  0  0  0  0
   20.5555   26.0522   21.4728 C   0  0  0  0  0  0  0  0  0  0  0  0
   21.5312   24.5494   19.7041 C   0  0  0  0  0  0  0  0  0  0  0  0
   17.2240   24.9709   15.7798 C   0  0  0  0  0  0  0  0  0  0  0  0
   18.5115   25.5792   15.4150 N   0  0  0  0  0  0  0  0  0  0  0  0
   18.6405   26.5969   14.5847 C   0  0  0  0  0  0  0  0  0  0  0  0
   17.7431   27.1641   14.0750 O   0  0  0  0  0  0  0  0  0  0  0  0
   19.3290   25.2038   15.8151 H   0  0  0  0  0  0  0  0  0  0  0  0
   19.9303   26.9741   14.4089 O   0  0  0  0  0  0  0  0  0  0  0  0
   20.3281   28.1501   15.1223 C   0  0  0  0  0  0  0  0  0  0  0  0
   20.3639   27.7937   16.5891 C   0  0  0  0  0  0  0  0  0  0  0  0
   21.2366   26.7411   16.9169 O   0  0  0  0  0  0  0  0  0  0  0  0
   22.5836   27.0202   17.1760 C   0  0  0  0  0  0  0  0  0  0  0  0
   23.1535   27.9841   16.3426 O   0  0  0  0  0  0  0  0  0  0  0  0
   22.8711   27.7172   14.9637 C   0  0  0  0  0  0  0  0  0  0  0  0
   21.6811   28.5648   14.5674 C   0  0  0  0  0  0  0  0  0  0  0  0
   17.1878   23.6070   15.1080 C   0  0  0  0  0  0  0  0  0  0  0  0
   15.5671   21.7445   14.6063 C   0  0  0  0  0  0  0  0  0  0  0  0
   14.2825   21.2819   14.4480 C   0  0  0  0  0  0  0  0  0  0  0  0
   13.1763   22.0184   14.8705 C   0  0  0  0  0  0  0  0  0  0  0  0
   13.3996   23.2541   15.4727 C   0  0  0  0  0  0  0  0  0  0  0  0
   14.7108   23.7575   15.5796 C   0  0  0  0  0  0  0  0  0  0  0  0
   15.8044   23.0189   15.1201 C   0  0  0  0  0  0  0  0  0  0  0  0
  9 15  1  0  0  0
  9 10  2  0  0  0
  9 14  1  0  0  0
 15 16  1  0  0  0
 10 11  1  0  0  0
 11 12  2  0  0  0
 12 13  1  0  0  0
 12  6  1  0  0  0
 13 14  2  0  0  0
  6  7  2  0  0  0
  6  8  2  0  0  0
  6  5  1  0  0  0
  5 17  1  0  0  0
  5  4  1  0  0  0
 17 18  1  0  0  0
 18 19  1  0  0  0
 18 20  1  0  0  0
  4  1  1  0  0  0
  1  2  1  0  0  0
  1 21  1  0  0  0
 21 22  1  0  0  0
 21 34  1  0  0  0
 22 23  1  0  0  0
 23 24  2  0  0  0
 23 26  1  0  0  0
 26 27  1  0  0  0
 27 28  1  0  0  0
 27 33  1  0  0  0
 28 29  1  0  0  0
 29 30  1  0  0  0
 30 31  1  0  0  0
 31 32  1  0  0  0
 32 33  1  0  0  0
 34 40  1  0  0  0
 35 36  2  0  0  0
 35 40  1  0  0  0
 36 37  1  0  0  0
 37 38  2  0  0  0
 38 39  1  0  0  0
 39 40  2  0  0  0
  2  3  1  0  0  0
 22 25  1  0  0  0
M  END
> <minimizedAffinity>
-9.21902

$$$$
3DJK_G55_B_401


 40 42  0  0  0  0  0  0  0  0999 V2000
   18.6796   24.3158   15.8950 C   0  0  0  0  0  0  0  0  0  0  0  0
   17.9803   24.4444   14.6265 O   0  0  0  0  0  0  0  0  0  0  0  0
   17.5078   25.2912   14.6022 H   0  0  0  0  0  0  0  0  0  0  0  0
   17.6547   24.2980   17.0189 C   0  0  0  0  0  0  0  0  0  0  0  0
   17.5389   22.9993   17.6618 N   0  0  0  0  0  0  0  0  0  0  0  0
   16.9651   21.7302   16.8047 S   0  0  0  0  0  0  0  0  0  0  0  0
   17.9075   20.6335   16.9297 O   0  0  0  0  0  0  0  0  0  0  0  0
   16.6620   22.2390   15.5148 O   0  0  0  0  0  0  0  0  0  0  0  0
   13.2161   20.0179   18.7063 C   0  0  0  0  0  0  0  0  0  0  0  0
   14.4336   20.0104   19.3811 C   0  0  0  0  0  0  0  0  0  0  0  0
   15.5695   20.5511   18.8419 C   0  0  0  0  0  0  0  0  0  0  0  0
   15.4633   21.1723   17.5731 C   0  0  0  0  0  0  0  0  0  0  0  0
   14.2579   21.3183   16.9431 C   0  0  0  0  0  0  0  0  0  0  0  0
   13.1337   20.7848   17.5217 C   0  0  0  0  0  0  0  0  0  0  0  0
   12.0525   19.5179   19.1510 O   0  0  0  0  0  0  0  0  0  0  0  0
   12.1107   18.7918   20.3734 C   0  0  0  0  0  0  0  0  0  0  0  0
   18.5096   22.6978   18.6847 C   0  0  0  0  0  0  0  0  0  0  0  0
   18.0112   22.8299   20.1533 C   0  0  0  0  0  0  0  0  0  0  0  0
   18.6036   21.7220   20.9981 C   0  0  0  0  0  0  0  0  0  0  0  0
   18.4976   24.2053   20.5974 C   0  0  0  0  0  0  0  0  0  0  0  0
   19.7471   25.4391   16.0002 C   0  0  0  0  0  0  0  0  0  0  0  0
   20.3156   25.4548   17.3557 N   0  0  0  0  0  0  0  0  0  0  0  0
   20.4651   26.5457   18.0831 C   0  0  0  0  0  0  0  0  0  0  0  0
   20.1228   27.6233   17.7535 O   0  0  0  0  0  0  0  0  0  0  0  0
   20.6027   24.5975   17.7454 H   0  0  0  0  0  0  0  0  0  0  0  0
   21.0143   26.2990   19.2973 O   0  0  0  0  0  0  0  0  0  0  0  0
   21.8469   27.3415   19.8171 C   0  0  0  0  0  0  0  0  0  0  0  0
   21.7147   27.3125   21.3209 C   0  0  0  0  0  0  0  0  0  0  0  0
   22.0785   26.0934   21.9194 O   0  0  0  0  0  0  0  0  0  0  0  0
   23.4188   25.8634   22.2515 C   0  0  0  0  0  0  0  0  0  0  0  0
   24.3430   26.3272   21.3139 O   0  0  0  0  0  0  0  0  0  0  0  0
   23.9950   25.9144   19.9870 C   0  0  0  0  0  0  0  0  0  0  0  0
   23.2589   27.0617   19.3286 C   0  0  0  0  0  0  0  0  0  0  0  0
   20.9196   25.2809   15.0446 C   0  0  0  0  0  0  0  0  0  0  0  0
   22.9998   26.6095   15.5495 C   0  0  0  0  0  0  0  0  0  0  0  0
   23.6676   27.8081   15.6310 C   0  0  0  0  0  0  0  0  0  0  0  0
   23.1631   28.9738   15.0555 C   0  0  0  0  0  0  0  0  0  0  0  0
   21.9484   28.9010   14.3783 C   0  0  0  0  0  0  0  0  0  0  0  0
   21.2325   27.6883   14.3470 C   0  0  0  0  0  0  0  0  0  0  0  0
   21.7389   26.5383   14.9582 C   0  0  0  0  0  0  0  0  0  0  0  0
  9 15  1  0  0  0
  9 10  2  0  0  0
  9 14  1  0  0  0
 15 16  1  0  0  0
 10 11  1  0  0  0
 11 12  2  0  0  0
 12 13  1  0  0  0
 12  6  1  0  0  0
 13 14  2  0  0  0
  6  7  2  0  0  0
  6  8  2  0  0  0
  6  5  1  0  0  0
  5 17  1  0  0  0
  5  4  1  0  0  0
 17 18  1  0  0  0
 18 19  1  0  0  0
 18 20  1  0  0  0
  4  1  1  0  0  0
  1  2  1  0  0  0
  1 21  1  0  0  0
 21 22  1  0  0  0
 21 34  1  0  0  0
 22 23  1  0  0  0
 23 24  2  0  0  0
 23 26  1  0  0  0
 26 27  1  0  0  0
 27 28  1  0  0  0
 27 33  1  0  0  0
 28 29  1  0  0  0
 29 30  1  0  0  0
 30 31  1  0  0  0
 31 32  1  0  0  0
 32 33  1  0  0  0
 34 40  1  0  0  0
 35 36  2  0  0  0
 35 40  1  0  0  0
 36 37  1  0  0  0
 37 38  2  0  0  0
 38 39  1  0  0  0
 39 40  2  0  0  0
  2  3  1  0  0  0
 22 25  1  0  0  0
M  END
> <minimizedAffinity>
-9.15604

$$$$
3DJK_G55_B_401


 40 42  0  0  0  0  0  0  0  0999 V2000
   14.7245   23.5235   15.6340 C   0  0  0  0  0  0  0  0  0  0  0  0
   13.6944   24.5003   15.3191 O   0  0  0  0  0  0  0  0  0  0  0  0
   13.5472   25.0740   16.0873 H   0  0  0  0  0  0  0  0  0  0  0  0
   14.2317   22.6428   16.7722 C   0  0  0  0  0  0  0  0  0  0  0  0
   14.8555   21.3297   16.7859 N   0  0  0  0  0  0  0  0  0  0  0  0
   15.3628   20.6995   18.2071 S   0  0  0  0  0  0  0  0  0  0  0  0
   15.2773   21.7351   19.2203 O   0  0  0  0  0  0  0  0  0  0  0  0
   16.6193   20.0969   17.9373 O   0  0  0  0  0  0  0  0  0  0  0  0
   12.3292   17.4648   19.1751 C   0  0  0  0  0  0  0  0  0  0  0  0
   13.5445   17.1548   18.5713 C   0  0  0  0  0  0  0  0  0  0  0  0
   14.4885   18.1081   18.3007 C   0  0  0  0  0  0  0  0  0  0  0  0
   14.2117   19.4389   18.7001 C   0  0  0  0  0  0  0  0  0  0  0  0
   13.0899   19.7558   19.4160 C   0  0  0  0  0  0  0  0  0  0  0  0
   12.1739   18.7718   19.6910 C   0  0  0  0  0  0  0  0  0  0  0  0
   11.3462   16.6038   19.4821 O   0  0  0  0  0  0  0  0  0  0  0  0
   10.4395   16.2901   18.4312 C   0  0  0  0  0  0  0  0  0  0  0  0
   14.3999   20.3896   15.7920 C   0  0  0  0  0  0  0  0  0  0  0  0
   13.0212   20.7043   15.1417 C   0  0  0  0  0  0  0  0  0  0  0  0
   13.0544   20.3485   13.6704 C   0  0  0  0  0  0  0  0  0  0  0  0
   12.0306   19.8391   15.9134 C   0  0  0  0  0  0  0  0  0  0  0  0
   16.0592   24.2675   15.9126 C   0  0  0  0  0  0  0  0  0  0  0  0
   16.4906   24.0074   17.2935 N   0  0  0  0  0  0  0  0  0  0  0  0
   16.6887   24.9489   18.1968 C   0  0  0  0  0  0  0  0  0  0  0  0
   16.5021   26.0980   18.0194 O   0  0  0  0  0  0  0  0  0  0  0  0
   16.6413   23.0721   17.5613 H   0  0  0  0  0  0  0  0  0  0  0  0
   17.0858   24.4552   19.3949 O   0  0  0  0  0  0  0  0  0  0  0  0
   18.2254   23.5893   19.3542 C   0  0  0  0  0  0  0  0  0  0  0  0
   19.2887   24.2862   18.5396 C   0  0  0  0  0  0  0  0  0  0  0  0
   19.6830   25.5404   19.0380 O   0  0  0  0  0  0  0  0  0  0  0  0
   20.6902   25.6092   20.0078 C   0  0  0  0  0  0  0  0  0  0  0  0
   20.6370   24.6091   20.9801 O   0  0  0  0  0  0  0  0  0  0  0  0
   19.3178   24.4754   21.5224 C   0  0  0  0  0  0  0  0  0  0  0  0
   18.6370   23.3356   20.7953 C   0  0  0  0  0  0  0  0  0  0  0  0
   17.2118   23.8439   15.0155 C   0  0  0  0  0  0  0  0  0  0  0  0
   18.0053   26.2105   14.6729 C   0  0  0  0  0  0  0  0  0  0  0  0
   19.0149   27.1184   14.4595 C   0  0  0  0  0  0  0  0  0  0  0  0
   20.3576   26.7806   14.6258 C   0  0  0  0  0  0  0  0  0  0  0  0
   20.6649   25.4823   15.0249 C   0  0  0  0  0  0  0  0  0  0  0  0
   19.6360   24.5333   15.1836 C   0  0  0  0  0  0  0  0  0  0  0  0
   18.2983   24.8822   14.9802 C   0  0  0  0  0  0  0  0  0  0  0  0
  9 15  1  0  0  0
  9 10  2  0  0  0
  9 14  1  0  0  0
 15 16  1  0  0  0
 10 11  1  0  0  0
 11 12  2  0  0  0
 12 13  1  0  0  0
 12  6  1  0  0  0
 13 14  2  0  0  0
  6  7  2  0  0  0
  6  8  2  0  0  0
  6  5  1  0  0  0
  5 17  1  0  0  0
  5  4  1  0  0  0
 17 18  1  0  0  0
 18 19  1  0  0  0
 18 20  1  0  0  0
  4  1  1  0  0  0
  1  2  1  0  0  0
  1 21  1  0  0  0
 21 22  1  0  0  0
 21 34  1  0  0  0
 22 23  1  0  0  0
 23 24  2  0  0  0
 23 26  1  0  0  0
 26 27  1  0  0  0
 27 28  1  0  0  0
 27 33  1  0  0  0
 28 29  1  0  0  0
 29 30  1  0  0  0
 30 31  1  0  0  0
 31 32  1  0  0  0
 32 33  1  0  0  0
 34 40  1  0  0  0
 35 36  2  0  0  0
 35 40  1  0  0  0
 36 37  1  0  0  0
 37 38  2  0  0  0
 38 39  1  0  0  0
 39 40  2  0  0  0
  2  3  1  0  0  0
 22 25  1  0  0  0
M  END
> <minimizedAffinity>
-9.15086

$$$$
3DJK_G55_B_401


 40 42  0  0  0  0  0  0  0  0999 V2000
   18.1188   23.1697   17.3265 C   0  0  0  0  0  0  0  0  0  0  0  0
   18.7138   21.9747   16.7501 O   0  0  0  0  0  0  0  0  0  0  0  0
   18.6984   22.0403   15.7824 H   0  0  0  0  0  0  0  0  0  0  0  0
   16.6611   23.2454   16.8985 C   0  0  0  0  0  0  0  0  0  0  0  0
   15.9350   22.0079   17.1327 N   0  0  0  0  0  0  0  0  0  0  0  0
   15.2399   21.7514   18.5906 S   0  0  0  0  0  0  0  0  0  0  0  0
   14.2776   22.8116   18.8285 O   0  0  0  0  0  0  0  0  0  0  0  0
   16.3110   21.5709   19.5043 O   0  0  0  0  0  0  0  0  0  0  0  0
   12.9388   17.8725   18.0791 C   0  0  0  0  0  0  0  0  0  0  0  0
   14.3022   17.8693   18.3595 C   0  0  0  0  0  0  0  0  0  0  0  0
   15.0100   19.0249   18.5513 C   0  0  0  0  0  0  0  0  0  0  0  0
   14.2970   20.2481   18.5016 C   0  0  0  0  0  0  0  0  0  0  0  0
   12.9363   20.2817   18.3640 C   0  0  0  0  0  0  0  0  0  0  0  0
   12.2534   19.1032   18.1970 C   0  0  0  0  0  0  0  0  0  0  0  0
   12.1610   16.7969   17.8793 O   0  0  0  0  0  0  0  0  0  0  0  0
   10.8597   16.8515   18.4525 C   0  0  0  0  0  0  0  0  0  0  0  0
   15.2720   21.4241   15.9930 C   0  0  0  0  0  0  0  0  0  0  0  0
   14.8767   22.4130   14.8579 C   0  0  0  0  0  0  0  0  0  0  0  0
   15.1195   21.7699   13.5090 C   0  0  0  0  0  0  0  0  0  0  0  0
   13.3966   22.6928   15.0960 C   0  0  0  0  0  0  0  0  0  0  0  0
   18.9803   24.4021   16.9371 C   0  0  0  0  0  0  0  0  0  0  0  0
   20.1445   24.4928   17.8300 N   0  0  0  0  0  0  0  0  0  0  0  0
   20.0776   24.8457   19.0999 C   0  0  0  0  0  0  0  0  0  0  0  0
   19.0797   25.0854   19.6773 O   0  0  0  0  0  0  0  0  0  0  0  0
   21.0297   24.2767   17.4572 H   0  0  0  0  0  0  0  0  0  0  0  0
   21.2883   24.8559   19.7090 O   0  0  0  0  0  0  0  0  0  0  0  0
   21.5750   26.0251   20.4841 C   0  0  0  0  0  0  0  0  0  0  0  0
   22.7656   25.7040   21.3556 C   0  0  0  0  0  0  0  0  0  0  0  0
   23.9227   25.3242   20.6529 O   0  0  0  0  0  0  0  0  0  0  0  0
   24.8023   26.3110   20.1922 C   0  0  0  0  0  0  0  0  0  0  0  0
   24.1853   27.4548   19.6829 O   0  0  0  0  0  0  0  0  0  0  0  0
   23.1493   27.1206   18.7517 C   0  0  0  0  0  0  0  0  0  0  0  0
   21.8333   27.1537   19.4992 C   0  0  0  0  0  0  0  0  0  0  0  0
   19.5287   24.3605   15.5192 C   0  0  0  0  0  0  0  0  0  0  0  0
   21.3861   25.9611   14.9400 C   0  0  0  0  0  0  0  0  0  0  0  0
   21.8433   27.2376   14.7148 C   0  0  0  0  0  0  0  0  0  0  0  0
   20.9723   28.3098   14.5242 C   0  0  0  0  0  0  0  0  0  0  0  0
   19.6029   28.0598   14.5616 C   0  0  0  0  0  0  0  0  0  0  0  0
   19.1323   26.7647   14.8539 C   0  0  0  0  0  0  0  0  0  0  0  0
   20.0212   25.7094   15.0748 C   0  0  0  0  0  0  0  0  0  0  0  0
  9 15  1  0  0  0
  9 10  2  0  0  0
  9 14  1  0  0  0
 15 16  1  0  0  0
 10 11  1  0  0  0
 11 12  2  0  0  0
 12 13  1  0  0  0
 12  6  1  0  0  0
 13 14  2  0  0  0
  6  7  2  0  0  0
  6  8  2  0  0  0
  6  5  1  0  0  0
  5 17  1  0  0  0
  5  4  1  0  0  0
 17 18  1  0  0  0
 18 19  1  0  0  0
 18 20  1  0  0  0
  4  1  1  0  0  0
  1  2  1  0  0  0
  1 21  1  0  0  0
 21 22  1  0  0  0
 21 34  1  0  0  0
 22 23  1  0  0  0
 23 24  2  0  0  0
 23 26  1  0  0  0
 26 27  1  0  0  0
 27 28  1  0  0  0
 27 33  1  0  0  0
 28 29  1  0  0  0
 29 30  1  0  0  0
 30 31  1  0  0  0
 31 32  1  0  0  0
 32 33  1  0  0  0
 34 40  1  0  0  0
 35 36  2  0  0  0
 35 40  1  0  0  0
 36 37  1  0  0  0
 37 38  2  0  0  0
 38 39  1  0  0  0
 39 40  2  0  0  0
  2  3  1  0  0  0
 22 25  1  0  0  0
M  END
> <minimizedAffinity>
-9.02174

$$$$
3DJK_G55_B_401


 40 42  0  0  0  0  0  0  0  0999 V2000
   15.7118   23.5517   15.9437 C   0  0  0  0  0  0  0  0  0  0  0  0
   15.2010   24.8463   15.5220 O   0  0  0  0  0  0  0  0  0  0  0  0
   14.9070   25.3467   16.2992 H   0  0  0  0  0  0  0  0  0  0  0  0
   14.5803   22.7665   16.5897 C   0  0  0  0  0  0  0  0  0  0  0  0
   14.8808   21.3515   16.7343 N   0  0  0  0  0  0  0  0  0  0  0  0
   14.7527   20.6526   18.2072 S   0  0  0  0  0  0  0  0  0  0  0  0
   14.3749   21.6757   19.1649 O   0  0  0  0  0  0  0  0  0  0  0  0
   15.9614   19.9345   18.4020 O   0  0  0  0  0  0  0  0  0  0  0  0
   11.3952   17.6228   17.8195 C   0  0  0  0  0  0  0  0  0  0  0  0
   12.6803   17.2309   18.1834 C   0  0  0  0  0  0  0  0  0  0  0  0
   13.7002   18.1301   18.3396 C   0  0  0  0  0  0  0  0  0  0  0  0
   13.3986   19.5030   18.1625 C   0  0  0  0  0  0  0  0  0  0  0  0
   12.1201   19.9349   17.9389 C   0  0  0  0  0  0  0  0  0  0  0  0
   11.1158   19.0085   17.8104 C   0  0  0  0  0  0  0  0  0  0  0  0
   10.3335   16.8200   17.6455 O   0  0  0  0  0  0  0  0  0  0  0  0
   10.1569   16.2926   16.3357 C   0  0  0  0  0  0  0  0  0  0  0  0
   14.5935   20.5122   15.5974 C   0  0  0  0  0  0  0  0  0  0  0  0
   13.8670   21.2057   14.4084 C   0  0  0  0  0  0  0  0  0  0  0  0
   14.7900   21.2700   13.2100 C   0  0  0  0  0  0  0  0  0  0  0  0
   12.6498   20.3266   14.1418 C   0  0  0  0  0  0  0  0  0  0  0  0
   16.9568   23.7688   16.8466 C   0  0  0  0  0  0  0  0  0  0  0  0
   17.8462   24.7639   16.2305 N   0  0  0  0  0  0  0  0  0  0  0  0
   19.1347   24.5740   16.0180 C   0  0  0  0  0  0  0  0  0  0  0  0
   19.7130   23.5756   16.2539 O   0  0  0  0  0  0  0  0  0  0  0  0
   17.4560   25.6261   15.9594 H   0  0  0  0  0  0  0  0  0  0  0  0
   19.7368   25.6414   15.4393 O   0  0  0  0  0  0  0  0  0  0  0  0
   19.3515   26.9190   15.9585 C   0  0  0  0  0  0  0  0  0  0  0  0
   20.2812   27.2353   17.1055 C   0  0  0  0  0  0  0  0  0  0  0  0
   21.6446   27.2710   16.7640 O   0  0  0  0  0  0  0  0  0  0  0  0
   22.1996   28.4588   16.2733 C   0  0  0  0  0  0  0  0  0  0  0  0
   21.3809   29.1688   15.3936 O   0  0  0  0  0  0  0  0  0  0  0  0
   20.8422   28.3164   14.3759 C   0  0  0  0  0  0  0  0  0  0  0  0
   19.4502   27.9089   14.8093 C   0  0  0  0  0  0  0  0  0  0  0  0
   16.6372   24.2837   18.2415 C   0  0  0  0  0  0  0  0  0  0  0  0
   17.9100   22.3891   19.3082 C   0  0  0  0  0  0  0  0  0  0  0  0
   18.6397   21.8712   20.3515 C   0  0  0  0  0  0  0  0  0  0  0  0
   19.1714   22.6823   21.3536 C   0  0  0  0  0  0  0  0  0  0  0  0
   18.9504   24.0550   21.2754 C   0  0  0  0  0  0  0  0  0  0  0  0
   18.1508   24.5807   20.2417 C   0  0  0  0  0  0  0  0  0  0  0  0
   17.5990   23.7477   19.2649 C   0  0  0  0  0  0  0  0  0  0  0  0
  9 15  1  0  0  0
  9 10  2  0  0  0
  9 14  1  0  0  0
 15 16  1  0  0  0
 10 11  1  0  0  0
 11 12  2  0  0  0
 12 13  1  0  0  0
 12  6  1  0  0  0
 13 14  2  0  0  0
  6  7  2  0  0  0
  6  8  2  0  0  0
  6  5  1  0  0  0
  5 17  1  0  0  0
  5  4  1  0  0  0
 17 18  1  0  0  0
 18 19  1  0  0  0
 18 20  1  0  0  0
  4  1  1  0  0  0
  1  2  1  0  0  0
  1 21  1  0  0  0
 21 22  1  0  0  0
 21 34  1  0  0  0
 22 23  1  0  0  0
 23 24  2  0  0  0
 23 26  1  0  0  0
 26 27  1  0  0  0
 27 28  1  0  0  0
 27 33  1  0  0  0
 28 29  1  0  0  0
 29 30  1  0  0  0
 30 31  1  0  0  0
 31 32  1  0  0  0
 32 33  1  0  0  0
 34 40  1  0  0  0
 35 36  2  0  0  0
 35 40  1  0  0  0
 36 37  1  0  0  0
 37 38  2  0  0  0
 38 39  1  0  0  0
 39 40  2  0  0  0
  2  3  1  0  0  0
 22 25  1  0  0  0
M  END
> <minimizedAffinity>
-8.87207

$$$$
3DJK_G55_B_401


 40 42  0  0  0  0  0  0  0  0999 V2000
   15.5919   24.0495   17.9439 C   0  0  0  0  0  0  0  0  0  0  0  0
   14.4465   24.8036   18.4276 O   0  0  0  0  0  0  0  0  0  0  0  0
   14.0065   25.2381   17.6803 H   0  0  0  0  0  0  0  0  0  0  0  0
   16.5903   25.0180   17.3282 C   0  0  0  0  0  0  0  0  0  0  0  0
   17.9716   24.6752   17.6247 N   0  0  0  0  0  0  0  0  0  0  0  0
   18.3352   23.9932   19.0659 S   0  0  0  0  0  0  0  0  0  0  0  0
   18.7239   22.6146   18.8316 O   0  0  0  0  0  0  0  0  0  0  0  0
   17.2303   24.2664   19.9138 O   0  0  0  0  0  0  0  0  0  0  0  0
   22.1003   25.7917   20.8527 C   0  0  0  0  0  0  0  0  0  0  0  0
   22.1496   25.0232   19.6931 C   0  0  0  0  0  0  0  0  0  0  0  0
   21.0241   24.4990   19.1173 C   0  0  0  0  0  0  0  0  0  0  0  0
   19.7770   24.8022   19.7171 C   0  0  0  0  0  0  0  0  0  0  0  0
   19.6790   25.6637   20.7752 C   0  0  0  0  0  0  0  0  0  0  0  0
   20.8254   26.1906   21.3150 C   0  0  0  0  0  0  0  0  0  0  0  0
   23.1435   26.3488   21.4877 O   0  0  0  0  0  0  0  0  0  0  0  0
   23.7646   25.5505   22.4887 C   0  0  0  0  0  0  0  0  0  0  0  0
   18.7943   24.2892   16.5051 C   0  0  0  0  0  0  0  0  0  0  0  0
   19.3493   25.4556   15.6368 C   0  0  0  0  0  0  0  0  0  0  0  0
   19.6248   26.6605   16.5112 C   0  0  0  0  0  0  0  0  0  0  0  0
   20.6273   24.8963   15.0209 C   0  0  0  0  0  0  0  0  0  0  0  0
   15.0938   22.9287   16.9909 C   0  0  0  0  0  0  0  0  0  0  0  0
   14.1639   22.0462   17.7099 N   0  0  0  0  0  0  0  0  0  0  0  0
   14.5345   21.1609   18.6158 C   0  0  0  0  0  0  0  0  0  0  0  0
   15.6413   21.0039   18.9861 O   0  0  0  0  0  0  0  0  0  0  0  0
   13.2043   22.1201   17.5027 H   0  0  0  0  0  0  0  0  0  0  0  0
   13.4914   20.4674   19.1333 O   0  0  0  0  0  0  0  0  0  0  0  0
   13.8078   19.1608   19.6263 C   0  0  0  0  0  0  0  0  0  0  0  0
   12.8072   18.8363   20.7095 C   0  0  0  0  0  0  0  0  0  0  0  0
   11.4641   18.8572   20.2942 O   0  0  0  0  0  0  0  0  0  0  0  0
   10.9002   17.7058   19.7320 C   0  0  0  0  0  0  0  0  0  0  0  0
   11.7436   16.9997   18.8725 O   0  0  0  0  0  0  0  0  0  0  0  0
   12.3635   17.8682   17.9166 C   0  0  0  0  0  0  0  0  0  0  0  0
   13.7416   18.2145   18.4386 C   0  0  0  0  0  0  0  0  0  0  0  0
   14.3466   23.4337   15.7663 C   0  0  0  0  0  0  0  0  0  0  0  0
   12.4652   21.9583   14.9718 C   0  0  0  0  0  0  0  0  0  0  0  0
   12.0152   20.8139   14.3578 C   0  0  0  0  0  0  0  0  0  0  0  0
   12.8604   20.0009   13.6032 C   0  0  0  0  0  0  0  0  0  0  0  0
   14.1948   20.3783   13.4752 C   0  0  0  0  0  0  0  0  0  0  0  0
   14.6719   21.5164   14.1544 C   0  0  0  0  0  0  0  0  0  0  0  0
   13.8165   22.3003   14.9331 C   0  0  0  0  0  0  0  0  0  0  0  0
  9 15  1  0  0  0
  9 10  2  0  0  0
  9 14  1  0  0  0
 15 16  1  0  0  0
 10 11  1  0  0  0
 11 12  2  0  0  0
 12 13  1  0  0  0
 12  6  1  0  0  0
 13 14  2  0  0  0
  6  7  2  0  0  0
  6  8  2  0  0  0
  6  5  1  0  0  0
  5 17  1  0  0  0
  5  4  1  0  0  0
 17 18  1  0  0  0
 18 19  1  0  0  0
 18 20  1  0  0  0
  4  1  1  0  0  0
  1  2  1  0  0  0
  1 21  1  0  0  0
 21 22  1  0  0  0
 21 34  1  0  0  0
 22 23  1  0  0  0
 23 24  2  0  0  0
 23 26  1  0  0  0
 26 27  1  0  0  0
 27 28  1  0  0  0
 27 33  1  0  0  0
 28 29  1  0  0  0
 29 30  1  0  0  0
 30 31  1  0  0  0
 31 32  1  0  0  0
 32 33  1  0  0  0
 34 40  1  0  0  0
 35 36  2  0  0  0
 35 40  1  0  0  0
 36 37  1  0  0  0
 37 38  2  0  0  0
 38 39  1  0  0  0
 39 40  2  0  0  0
  2  3  1  0  0  0
 22 25  1  0  0  0
M  END
> <minimizedAffinity>
-8.84837

$$$$
3DJK_G55_B_401


 40 42  0  0  0  0  0  0  0  0999 V2000
   17.4670   24.1176   18.0604 C   0  0  0  0  0  0  0  0  0  0  0  0
   16.7206   24.3473   19.2870 O   0  0  0  0  0  0  0  0  0  0  0  0
   15.8969   24.8166   19.0811 H   0  0  0  0  0  0  0  0  0  0  0  0
   17.8470   25.4626   17.4600 C   0  0  0  0  0  0  0  0  0  0  0  0
   19.2646   25.5689   17.1554 N   0  0  0  0  0  0  0  0  0  0  0  0
   19.7428   25.6644   15.5945 S   0  0  0  0  0  0  0  0  0  0  0  0
   18.6472   26.2120   14.8157 O   0  0  0  0  0  0  0  0  0  0  0  0
   20.2519   24.3809   15.2659 O   0  0  0  0  0  0  0  0  0  0  0  0
   23.1557   28.6568   15.6182 C   0  0  0  0  0  0  0  0  0  0  0  0
   23.3996   27.2864   15.6021 C   0  0  0  0  0  0  0  0  0  0  0  0
   22.3875   26.3660   15.5605 C   0  0  0  0  0  0  0  0  0  0  0  0
   21.0592   26.8529   15.4867 C   0  0  0  0  0  0  0  0  0  0  0  0
   20.7890   28.1883   15.3635 C   0  0  0  0  0  0  0  0  0  0  0  0
   21.8284   29.0840   15.3852 C   0  0  0  0  0  0  0  0  0  0  0  0
   24.0767   29.6325   15.6552 O   0  0  0  0  0  0  0  0  0  0  0  0
   25.2154   29.3864   16.4724 C   0  0  0  0  0  0  0  0  0  0  0  0
   20.0810   26.2616   18.1213 C   0  0  0  0  0  0  0  0  0  0  0  0
   21.0507   25.3721   18.9526 C   0  0  0  0  0  0  0  0  0  0  0  0
   22.3498   26.1124   19.1906 C   0  0  0  0  0  0  0  0  0  0  0  0
   20.3014   25.1063   20.2539 C   0  0  0  0  0  0  0  0  0  0  0  0
   16.6355   23.1956   17.1272 C   0  0  0  0  0  0  0  0  0  0  0  0
   15.8485   22.2541   17.9367 N   0  0  0  0  0  0  0  0  0  0  0  0
   16.1719   20.9883   18.1229 C   0  0  0  0  0  0  0  0  0  0  0  0
   17.1457   20.4764   17.7028 O   0  0  0  0  0  0  0  0  0  0  0  0
   15.0288   22.5890   18.3669 H   0  0  0  0  0  0  0  0  0  0  0  0
   15.2855   20.3272   18.9065 O   0  0  0  0  0  0  0  0  0  0  0  0
   14.7331   19.1353   18.3369 C   0  0  0  0  0  0  0  0  0  0  0  0
   14.2732   18.2636   19.4808 C   0  0  0  0  0  0  0  0  0  0  0  0
   13.3157   18.8560   20.3228 O   0  0  0  0  0  0  0  0  0  0  0  0
   11.9584   18.7625   19.9934 C   0  0  0  0  0  0  0  0  0  0  0  0
   11.6743   18.9014   18.6338 O   0  0  0  0  0  0  0  0  0  0  0  0
   12.3290   20.0472   18.0763 C   0  0  0  0  0  0  0  0  0  0  0  0
   13.6047   19.5697   17.4159 C   0  0  0  0  0  0  0  0  0  0  0  0
   15.6439   23.9322   16.2400 C   0  0  0  0  0  0  0  0  0  0  0  0
   13.4973   22.8623   15.4688 C   0  0  0  0  0  0  0  0  0  0  0  0
   12.8257   21.8708   14.7942 C   0  0  0  0  0  0  0  0  0  0  0  0
   13.4749   21.0118   13.9080 C   0  0  0  0  0  0  0  0  0  0  0  0
   14.8428   21.1818   13.7099 C   0  0  0  0  0  0  0  0  0  0  0  0
   15.5442   22.1563   14.4466 C   0  0  0  0  0  0  0  0  0  0  0  0
   14.8816   22.9860   15.3549 C   0  0  0  0  0  0  0  0  0  0  0  0
  9 15  1  0  0  0
  9 10  2  0  0  0
  9 14  1  0  0  0
 15 16  1  0  0  0
 10 11  1  0  0  0
 11 12  2  0  0  0
 12 13  1  0  0  0
 12  6  1  0  0  0
 13 14  2  0  0  0
  6  7  2  0  0  0
  6  8  2  0  0  0
  6  5  1  0  0  0
  5 17  1  0  0  0
  5  4  1  0  0  0
 17 18  1  0  0  0
 18 19  1  0  0  0
 18 20  1  0  0  0
  4  1  1  0  0  0
  1  2  1  0  0  0
  1 21  1  0  0  0
 21 22  1  0  0  0
 21 34  1  0  0  0
 22 23  1  0  0  0
 23 24  2  0  0  0
 23 26  1  0  0  0
 26 27  1  0  0  0
 27 28  1  0  0  0
 27 33  1  0  0  0
 28 29  1  0  0  0
 29 30  1  0  0  0
 30 31  1  0  0  0
 31 32  1  0  0  0
 32 33  1  0  0  0
 34 40  1  0  0  0
 35 36  2  0  0  0
 35 40  1  0  0  0
 36 37  1  0  0  0
 37 38  2  0  0  0
 38 39  1  0  0  0
 39 40  2  0  0  0
  2  3  1  0  0  0
 22 25  1  0  0  0
M  END
> <minimizedAffinity>
-8.80103

$$$$
3DJK_G55_B_401


 40 42  0  0  0  0  0  0  0  0999 V2000
   19.8947   25.4501   19.2418 C   0  0  0  0  0  0  0  0  0  0  0  0
   20.1182   25.1448   20.6458 O   0  0  0  0  0  0  0  0  0  0  0  0
   20.9834   24.7188   20.7503 H   0  0  0  0  0  0  0  0  0  0  0  0
   19.8583   24.1470   18.4578 C   0  0  0  0  0  0  0  0  0  0  0  0
   18.5170   23.6034   18.3208 N   0  0  0  0  0  0  0  0  0  0  0  0
   17.9331   22.6111   19.4822 S   0  0  0  0  0  0  0  0  0  0  0  0
   17.4151   23.4305   20.5624 O   0  0  0  0  0  0  0  0  0  0  0  0
   18.9702   21.6812   19.7548 O   0  0  0  0  0  0  0  0  0  0  0  0
   14.2975   20.2887   18.0712 C   0  0  0  0  0  0  0  0  0  0  0  0
   14.1646   21.5301   18.6867 C   0  0  0  0  0  0  0  0  0  0  0  0
   15.2473   22.2638   19.0899 C   0  0  0  0  0  0  0  0  0  0  0  0
   16.5348   21.7387   18.8185 C   0  0  0  0  0  0  0  0  0  0  0  0
   16.7046   20.5896   18.0959 C   0  0  0  0  0  0  0  0  0  0  0  0
   15.5977   19.8894   17.6863 C   0  0  0  0  0  0  0  0  0  0  0  0
   13.3011   19.4994   17.6398 O   0  0  0  0  0  0  0  0  0  0  0  0
   12.4536   20.0531   16.6398 C   0  0  0  0  0  0  0  0  0  0  0  0
   17.5531   24.4304   17.6379 C   0  0  0  0  0  0  0  0  0  0  0  0
   17.6351   24.4256   16.0836 C   0  0  0  0  0  0  0  0  0  0  0  0
   16.8894   23.2282   15.5339 C   0  0  0  0  0  0  0  0  0  0  0  0
   16.9863   25.7406   15.6646 C   0  0  0  0  0  0  0  0  0  0  0  0
   20.9671   26.4691   18.7686 C   0  0  0  0  0  0  0  0  0  0  0  0
   22.0230   26.5825   19.7850 N   0  0  0  0  0  0  0  0  0  0  0  0
   22.0994   27.5611   20.6670 C   0  0  0  0  0  0  0  0  0  0  0  0
   21.3120   28.4304   20.7736 O   0  0  0  0  0  0  0  0  0  0  0  0
   22.7168   25.8844   19.8093 H   0  0  0  0  0  0  0  0  0  0  0  0
   23.1654   27.4426   21.4955 O   0  0  0  0  0  0  0  0  0  0  0  0
   23.8766   26.2031   21.4063 C   0  0  0  0  0  0  0  0  0  0  0  0
   25.3189   26.5348   21.1069 C   0  0  0  0  0  0  0  0  0  0  0  0
   25.9440   27.3547   22.0628 O   0  0  0  0  0  0  0  0  0  0  0  0
   26.5399   26.7696   23.1863 C   0  0  0  0  0  0  0  0  0  0  0  0
   25.8281   25.7037   23.7390 O   0  0  0  0  0  0  0  0  0  0  0  0
   24.4464   26.0350   23.9216 C   0  0  0  0  0  0  0  0  0  0  0  0
   23.6835   25.4884   22.7338 C   0  0  0  0  0  0  0  0  0  0  0  0
   21.6608   26.0909   17.4691 C   0  0  0  0  0  0  0  0  0  0  0  0
   20.0741   27.3082   15.9368 C   0  0  0  0  0  0  0  0  0  0  0  0
   19.8344   28.0752   14.8217 C   0  0  0  0  0  0  0  0  0  0  0  0
   20.8611   28.7310   14.1432 C   0  0  0  0  0  0  0  0  0  0  0  0
   22.1601   28.5971   14.6271 C   0  0  0  0  0  0  0  0  0  0  0  0
   22.4162   27.7617   15.7320 C   0  0  0  0  0  0  0  0  0  0  0  0
   21.3779   27.0863   16.3788 C   0  0  0  0  0  0  0  0  0  0  0  0
  9 15  1  0  0  0
  9 10  2  0  0  0
  9 14  1  0  0  0
 15 16  1  0  0  0
 10 11  1  0  0  0
 11 12  2  0  0  0
 12 13  1  0  0  0
 12  6  1  0  0  0
 13 14  2  0  0  0
  6  7  2  0  0  0
  6  8  2  0  0  0
  6  5  1  0  0  0
  5 17  1  0  0  0
  5  4  1  0  0  0
 17 18  1  0  0  0
 18 19  1  0  0  0
 18 20  1  0  0  0
  4  1  1  0  0  0
  1  2  1  0  0  0
  1 21  1  0  0  0
 21 22  1  0  0  0
 21 34  1  0  0  0
 22 23  1  0  0  0
 23 24  2  0  0  0
 23 26  1  0  0  0
 26 27  1  0  0  0
 27 28  1  0  0  0
 27 33  1  0  0  0
 28 29  1  0  0  0
 29 30  1  0  0  0
 30 31  1  0  0  0
 31 32  1  0  0  0
 32 33  1  0  0  0
 34 40  1  0  0  0
 35 36  2  0  0  0
 35 40  1  0  0  0
 36 37  1  0  0  0
 37 38  2  0  0  0
 38 39  1  0  0  0
 39 40  2  0  0  0
  2  3  1  0  0  0
 22 25  1  0  0  0
M  END
> <minimizedAffinity>
-8.73794

$$$$
3DJK_G55_B_401


 40 42  0  0  0  0  0  0  0  0999 V2000
   16.2342   23.2636   18.4936 C   0  0  0  0  0  0  0  0  0  0  0  0
   16.4573   23.1186   19.9231 O   0  0  0  0  0  0  0  0  0  0  0  0
   17.3294   22.7223   20.0757 H   0  0  0  0  0  0  0  0  0  0  0  0
   16.2239   21.8818   17.8577 C   0  0  0  0  0  0  0  0  0  0  0  0
   15.0444   21.6399   17.0429 N   0  0  0  0  0  0  0  0  0  0  0  0
   14.9750   22.2599   15.5312 S   0  0  0  0  0  0  0  0  0  0  0  0
   16.1791   21.8667   14.8226 O   0  0  0  0  0  0  0  0  0  0  0  0
   14.6855   23.6402   15.6914 O   0  0  0  0  0  0  0  0  0  0  0  0
   11.4612   20.1347   13.5976 C   0  0  0  0  0  0  0  0  0  0  0  0
   11.2712   21.2544   14.4024 C   0  0  0  0  0  0  0  0  0  0  0  0
   12.3173   21.9316   14.9683 C   0  0  0  0  0  0  0  0  0  0  0  0
   13.6279   21.4830   14.6717 C   0  0  0  0  0  0  0  0  0  0  0  0
   13.8567   20.4726   13.7783 C   0  0  0  0  0  0  0  0  0  0  0  0
   12.7859   19.8291   13.2103 C   0  0  0  0  0  0  0  0  0  0  0  0
   10.5040   19.4089   12.9985 O   0  0  0  0  0  0  0  0  0  0  0  0
   10.7200   19.1013   11.6260 C   0  0  0  0  0  0  0  0  0  0  0  0
   14.3588   20.3895   17.2568 C   0  0  0  0  0  0  0  0  0  0  0  0
   13.2505   20.4015   18.3496 C   0  0  0  0  0  0  0  0  0  0  0  0
   12.0150   19.6933   17.8356 C   0  0  0  0  0  0  0  0  0  0  0  0
   13.8749   19.6689   19.5324 C   0  0  0  0  0  0  0  0  0  0  0  0
   17.2906   24.2434   17.9134 C   0  0  0  0  0  0  0  0  0  0  0  0
   18.0965   24.8049   19.0070 N   0  0  0  0  0  0  0  0  0  0  0  0
   19.0033   24.1248   19.6829 C   0  0  0  0  0  0  0  0  0  0  0  0
   19.3049   23.0078   19.4631 O   0  0  0  0  0  0  0  0  0  0  0  0
   17.9505   25.7475   19.2506 H   0  0  0  0  0  0  0  0  0  0  0  0
   19.6097   24.8642   20.6433 O   0  0  0  0  0  0  0  0  0  0  0  0
   21.0269   25.0110   20.5008 C   0  0  0  0  0  0  0  0  0  0  0  0
   21.2966   25.3805   19.0618 C   0  0  0  0  0  0  0  0  0  0  0  0
   20.6673   26.5615   18.6306 O   0  0  0  0  0  0  0  0  0  0  0  0
   21.3005   27.7928   18.8368 C   0  0  0  0  0  0  0  0  0  0  0  0
   21.9513   27.9188   20.0653 O   0  0  0  0  0  0  0  0  0  0  0  0
   21.1077   27.5116   21.1491 C   0  0  0  0  0  0  0  0  0  0  0  0
   21.4603   26.0797   21.4910 C   0  0  0  0  0  0  0  0  0  0  0  0
   18.2708   23.6046   16.9418 C   0  0  0  0  0  0  0  0  0  0  0  0
   20.1078   24.6810   15.5949 C   0  0  0  0  0  0  0  0  0  0  0  0
   20.5711   25.6992   14.7962 C   0  0  0  0  0  0  0  0  0  0  0  0
   19.7094   26.6209   14.2025 C   0  0  0  0  0  0  0  0  0  0  0  0
   18.3426   26.4869   14.4329 C   0  0  0  0  0  0  0  0  0  0  0  0
   17.8709   25.4826   15.3006 C   0  0  0  0  0  0  0  0  0  0  0  0
   18.7532   24.5885   15.9128 C   0  0  0  0  0  0  0  0  0  0  0  0
  9 15  1  0  0  0
  9 10  2  0  0  0
  9 14  1  0  0  0
 15 16  1  0  0  0
 10 11  1  0  0  0
 11 12  2  0  0  0
 12 13  1  0  0  0
 12  6  1  0  0  0
 13 14  2  0  0  0
  6  7  2  0  0  0
  6  8  2  0  0  0
  6  5  1  0  0  0
  5 17  1  0  0  0
  5  4  1  0  0  0
 17 18  1  0  0  0
 18 19  1  0  0  0
 18 20  1  0  0  0
  4  1  1  0  0  0
  1  2  1  0  0  0
  1 21  1  0  0  0
 21 22  1  0  0  0
 21 34  1  0  0  0
 22 23  1  0  0  0
 23 24  2  0  0  0
 23 26  1  0  0  0
 26 27  1  0  0  0
 27 28  1  0  0  0
 27 33  1  0  0  0
 28 29  1  0  0  0
 29 30  1  0  0  0
 30 31  1  0  0  0
 31 32  1  0  0  0
 32 33  1  0  0  0
 34 40  1  0  0  0
 35 36  2  0  0  0
 35 40  1  0  0  0
 36 37  1  0  0  0
 37 38  2  0  0  0
 38 39  1  0  0  0
 39 40  2  0  0  0
  2  3  1  0  0  0
 22 25  1  0  0  0
M  END
> <minimizedAffinity>
-8.73791

$$$$
