4HDP_G52_B_401
  RCSB PDB12061712513D
Coordinates from PDB:4HDP:B:401 Model:1 without hydrogens
 42 46  0  0  0  0            999 V2000
  -17.2540   24.9080  -20.2510   C 0  0  0  0  0  0  0  0  0  0  0  0
  -16.4880   24.0820  -21.0780   C 0  0  0  0  0  0  0  0  0  0  0  0
  -15.4070   23.3140  -20.6100   C 0  0  0  0  0  0  0  0  0  0  0  0
  -15.0140   23.5160  -19.2830   C 0  0  0  0  0  0  0  0  0  0  0  0
  -15.6730   24.4350  -18.5180   C 0  0  0  0  0  0  0  0  0  0  0  0
  -16.7460   25.1980  -18.9810   C 0  0  0  0  0  0  0  0  0  0  0  0
  -13.7030   22.5840  -18.5840   S 0  0  0  0  0  0  0  0  0  0  0  0
  -12.8120   22.1600  -19.6690   O 0  0  0  0  0  0  0  0  0  0  0  0
  -13.0730   23.3180  -17.4990   O 0  0  0  0  0  0  0  0  0  0  0  0
  -14.3170   21.2050  -17.9160   N 0  0  0  0  0  0  0  0  0  0  0  0
  -15.3260   21.4500  -16.9080   C 0  0  0  0  0  0  0  0  0  0  0  0
  -15.3280   20.3740  -15.8110   C 0  0  0  0  0  0  0  0  0  0  0  0
  -14.0010   20.4110  -15.0660   C 0  0  0  0  0  0  0  0  0  0  0  0
  -16.4290   20.7680  -14.8130   C 0  0  0  0  0  0  0  0  0  0  0  0
  -14.5100   20.0520  -18.7950   C 0  0  0  0  0  0  0  0  0  0  0  0
  -13.6010   18.8910  -18.4080   C 0  0  0  0  0  0  0  0  0  0  0  0
  -14.0640   17.7250  -19.1040   O 0  0  0  0  0  0  0  0  0  0  0  0
  -12.1180   19.0830  -18.6990   C 0  0  0  0  0  0  0  0  0  0  0  0
  -11.3430   18.0370  -18.0500   N 0  0  0  0  0  0  0  0  0  0  0  0
  -10.6090   18.1370  -16.9440   C 0  0  0  0  0  0  0  0  0  0  0  0
  -10.5420   19.1240  -16.2070   O 0  0  0  0  0  0  0  0  0  0  0  0
   -9.9550   16.9890  -16.6920   O 0  0  0  0  0  0  0  0  0  0  0  0
   -8.9890   16.9880  -15.6380   C 0  0  0  0  0  0  0  0  0  0  0  0
   -9.2460   15.7290  -14.7990   C 0  0  0  0  0  0  0  0  0  0  0  0
   -8.5850   14.6310  -15.4580   O 0  0  0  0  0  0  0  0  0  0  0  0
   -7.6520   15.1600  -16.3850   C 0  0  0  0  0  0  0  0  0  0  0  0
   -8.0800   14.8920  -17.7670   O 0  0  0  0  0  0  0  0  0  0  0  0
   -7.8270   16.0110  -18.5640   C 0  0  0  0  0  0  0  0  0  0  0  0
   -7.3710   17.1620  -17.6640   C 0  0  0  0  0  0  0  0  0  0  0  0
   -7.5900   16.6600  -16.2260   C 0  0  0  0  0  0  0  0  0  0  0  0
  -11.7730   19.1950  -20.1880   C 0  0  0  0  0  0  0  0  0  0  0  0
   -9.4280   18.5000  -20.7730   C 0  0  0  0  0  0  0  0  0  0  0  0
   -8.0610   18.7240  -20.7950   C 0  0  0  0  0  0  0  0  0  0  0  0
   -7.5690   20.0060  -20.4830   C 0  0  0  0  0  0  0  0  0  0  0  0
   -8.4380   21.0050  -20.1140   C 0  0  0  0  0  0  0  0  0  0  0  0
   -9.7930   20.7630  -20.0420   C 0  0  0  0  0  0  0  0  0  0  0  0
  -10.2860   19.5030  -20.3560   C 0  0  0  0  0  0  0  0  0  0  0  0
  -18.2660   25.5430  -20.8520   O 0  0  0  0  0  0  0  0  0  0  0  0
  -18.9600   26.4280  -19.9650   C 0  0  0  0  0  0  0  0  0  0  0  0
   -6.7800   15.7690  -19.4990   O 0  0  0  0  0  0  0  0  0  0  0  0
   -5.5630   15.9820  -18.7660   C 0  0  0  0  0  0  0  0  0  0  0  0
   -5.8830   17.2890  -18.0450   C 0  0  0  0  0  0  0  0  0  0  0  0
  2  1  2  0  0  0  0
 38  1  1  0  0  0  0
  1  6  1  0  0  0  0
  2  3  1  0  0  0  0
  3  4  2  0  0  0  0
  4  5  1  0  0  0  0
  4  7  1  0  0  0  0
  6  5  2  0  0  0  0
  8  7  2  0  0  0  0
  7  9  2  0  0  0  0
  7 10  1  0  0  0  0
 10 15  1  0  0  0  0
 10 11  1  0  0  0  0
 11 12  1  0  0  0  0
 13 12  1  0  0  0  0
 12 14  1  0  0  0  0
 15 16  1  0  0  0  0
 18 16  1  0  0  0  0
 16 17  1  0  0  0  0
 31 18  1  0  0  0  0
 18 19  1  0  0  0  0
 19 20  1  0  0  0  0
 21 20  2  0  0  0  0
 20 22  1  0  0  0  0
 22 23  1  0  0  0  0
 30 23  1  0  0  0  0
 23 24  1  0  0  0  0
 25 24  1  0  0  0  0
 26 25  1  0  0  0  0
 30 26  1  0  0  0  0
 27 26  1  0  0  0  0
 28 27  1  0  0  0  0
 40 28  1  0  0  0  0
 29 28  1  0  0  0  0
 42 29  1  0  0  0  0
 29 30  1  0  0  0  0
 37 31  1  0  0  0  0
 33 32  2  0  0  0  0
 32 37  1  0  0  0  0
 34 33  1  0  0  0  0
 34 35  2  0  0  0  0
 35 36  1  0  0  0  0
 36 37  2  0  0  0  0
 38 39  1  0  0  0  0
 41 40  1  0  0  0  0
 42 41  1  0  0  0  0
A    1
C2
A    2
C3
A    3
C4
A    4
C5
A    5
C6
A    6
C7
A    7
S8
A    8
O9
A    9
O10
A   10
N11
A   11
C12
A   12
C13
A   13
C14
A   14
C15
A   15
C16
A   16
C17
A   17
O18
A   18
C19
A   19
N20
A   20
C21
A   21
O22
A   22
O23
A   23
C24
A   24
C25
A   25
O26
A   26
C27
A   27
O28
A   28
C29
A   29
C30
A   30
C31
A   31
C32
A   32
C33
A   33
C34
A   34
C35
A   35
C36
A   36
C37
A   37
C38
A   38
O39
A   39
C40
A   40
O41
A   41
C42
A   42
C43
M  END
>  <InstanceId>
4HDP_G52_B_401

>  <ChemCompId>
G52

>  <PdbId>
4HDP

>  <ChainId>
B

>  <ResidueNumber>
401

>  <InsertionCode>


>  <Model>
1

>  <AltIds>


>  <MissingHeavyAtoms>
0

>  <ObservedFormula>
C30 N2 O9 S

>  <Name>
(3R,3aS,3bR,6aS,7aS)-octahydrodifuro[2,3-b:3',2'-d]furan-3-yl [(1S,2R)-1-benzyl-2-hydroxy-3-{[(4-methoxyphenyl)sulfonyl](2-methylpropyl)amino}propyl]carbamate

>  <SystematicName>


>  <Synonyms>


>  <Type>
NON-POLYMER

>  <Formula>
C30 H40 N2 O9 S

>  <MolecularWeight>
604.712

>  <ModifiedDate>
2011-06-04

>  <Parent>


>  <OneLetterCode>


>  <SubcomponentList>


>  <AmbiguousFlag>
N

>  <InChI>
InChI=1S/C30H40N2O9S/c1-19(2)16-32(42(35,36)22-11-9-21(37-3)10-12-22)17-25(33)24(15-20-7-5-4-6-8-20)31-30(34)40-26-18-39-29-27(26)23-13-14-38-28(23)41-29/h4-12,19,23-29,33H,13-18H2,1-3H3,(H,31,34)/t23-,24+,25-,26+,27+,28+,29+/m1/s1

>  <InChIKey>
QWMNYFXRFHGYGS-DDGGWZRMSA-N

>  <SMILES>
CC(C)C[N@@](C[C@H]([C@H](Cc1ccccc1)NC(=O)O[C@H]2CO[C@@H]3[C@H]2[C@H]4CCO[C@H]4O3)O)S(=O)(=O)c5ccc(cc5)OC

$$$$
