4HDP_G52_B_401


 44 48  0  0  0  0  0  0  0  0999 V2000
  -11.7318   18.9428  -18.6899 C   0  0  0  0  0  0  0  0  0  0  0  0
  -11.0061   17.8561  -18.0508 N   0  0  0  0  0  0  0  0  0  0  0  0
  -10.3110   17.8998  -16.9164 C   0  0  0  0  0  0  0  0  0  0  0  0
  -10.2477   18.8589  -16.1432 O   0  0  0  0  0  0  0  0  0  0  0  0
  -11.0321   16.9864  -18.5113 H   0  0  0  0  0  0  0  0  0  0  0  0
   -9.6941   16.7278  -16.6817 O   0  0  0  0  0  0  0  0  0  0  0  0
   -8.7982   16.6554  -15.5699 C   0  0  0  0  0  0  0  0  0  0  0  0
   -9.1227   15.3566  -14.8198 C   0  0  0  0  0  0  0  0  0  0  0  0
   -8.4328   14.2865  -15.4948 O   0  0  0  0  0  0  0  0  0  0  0  0
   -7.4361   14.8514  -16.3298 C   0  0  0  0  0  0  0  0  0  0  0  0
   -7.7770   14.6652  -17.7490 O   0  0  0  0  0  0  0  0  0  0  0  0
   -7.4607   15.8220  -18.4652 C   0  0  0  0  0  0  0  0  0  0  0  0
   -7.0510   16.9156  -17.4758 C   0  0  0  0  0  0  0  0  0  0  0  0
   -7.3679   16.3394  -16.0846 C   0  0  0  0  0  0  0  0  0  0  0  0
   -6.3583   15.6159  -19.3434 O   0  0  0  0  0  0  0  0  0  0  0  0
   -5.1888   15.7709  -18.5236 C   0  0  0  0  0  0  0  0  0  0  0  0
   -5.5402   17.0414  -17.7535 C   0  0  0  0  0  0  0  0  0  0  0  0
  -13.2089   18.8706  -18.3242 C   0  0  0  0  0  0  0  0  0  0  0  0
  -13.7692   17.6757  -18.8871 O   0  0  0  0  0  0  0  0  0  0  0  0
  -13.7220   17.7213  -19.8548 H   0  0  0  0  0  0  0  0  0  0  0  0
  -14.0658   20.0444  -18.7843 C   0  0  0  0  0  0  0  0  0  0  0  0
  -14.0055   21.1597  -17.8400 N   0  0  0  0  0  0  0  0  0  0  0  0
  -13.3704   22.5856  -18.3771 S   0  0  0  0  0  0  0  0  0  0  0  0
  -12.3191   22.2371  -19.3384 O   0  0  0  0  0  0  0  0  0  0  0  0
  -12.9315   23.3083  -17.1947 O   0  0  0  0  0  0  0  0  0  0  0  0
  -16.7597   24.8300  -20.4421 C   0  0  0  0  0  0  0  0  0  0  0  0
  -15.9305   23.9663  -21.1627 C   0  0  0  0  0  0  0  0  0  0  0  0
  -14.8956   23.2208  -20.5706 C   0  0  0  0  0  0  0  0  0  0  0  0
  -14.6144   23.4842  -19.2261 C   0  0  0  0  0  0  0  0  0  0  0  0
  -15.3315   24.4379  -18.5625 C   0  0  0  0  0  0  0  0  0  0  0  0
  -16.3588   25.1787  -19.1488 C   0  0  0  0  0  0  0  0  0  0  0  0
  -17.7152   25.4365  -21.1547 O   0  0  0  0  0  0  0  0  0  0  0  0
  -18.6387   26.1564  -20.3298 C   0  0  0  0  0  0  0  0  0  0  0  0
  -15.1233   21.3282  -16.9365 C   0  0  0  0  0  0  0  0  0  0  0  0
  -15.0336   20.3968  -15.7176 C   0  0  0  0  0  0  0  0  0  0  0  0
  -13.7883   20.7392  -14.9119 C   0  0  0  0  0  0  0  0  0  0  0  0
  -16.2541   20.7095  -14.8366 C   0  0  0  0  0  0  0  0  0  0  0  0
  -11.4530   18.9943  -20.1960 C   0  0  0  0  0  0  0  0  0  0  0  0
   -9.1558   18.2232  -20.8688 C   0  0  0  0  0  0  0  0  0  0  0  0
   -7.7863   18.4114  -20.9608 C   0  0  0  0  0  0  0  0  0  0  0  0
   -7.2491   19.6885  -20.7094 C   0  0  0  0  0  0  0  0  0  0  0  0
   -8.0752   20.7194  -20.3297 C   0  0  0  0  0  0  0  0  0  0  0  0
   -9.4308   20.5144  -20.1878 C   0  0  0  0  0  0  0  0  0  0  0  0
   -9.9685   19.2592  -20.4418 C   0  0  0  0  0  0  0  0  0  0  0  0
 27 26  2  0  0  0
 32 26  1  0  0  0
 26 31  1  0  0  0
 27 28  1  0  0  0
 28 29  2  0  0  0
 29 30  1  0  0  0
 29 23  1  0  0  0
 31 30  2  0  0  0
 24 23  2  0  0  0
 23 25  2  0  0  0
 23 22  1  0  0  0
 22 21  1  0  0  0
 22 34  1  0  0  0
 34 35  1  0  0  0
 36 35  1  0  0  0
 35 37  1  0  0  0
 21 18  1  0  0  0
  1 18  1  0  0  0
 18 19  1  0  0  0
 38  1  1  0  0  0
  1  2  1  0  0  0
  2  3  1  0  0  0
  4  3  2  0  0  0
  3  6  1  0  0  0
  6  7  1  0  0  0
 14  7  1  0  0  0
  7  8  1  0  0  0
  9  8  1  0  0  0
 10  9  1  0  0  0
 14 10  1  0  0  0
 11 10  1  0  0  0
 12 11  1  0  0  0
 15 12  1  0  0  0
 13 12  1  0  0  0
 17 13  1  0  0  0
 13 14  1  0  0  0
 44 38  1  0  0  0
 40 39  2  0  0  0
 39 44  1  0  0  0
 41 40  1  0  0  0
 41 42  2  0  0  0
 42 43  1  0  0  0
 43 44  2  0  0  0
 32 33  1  0  0  0
 16 15  1  0  0  0
 17 16  1  0  0  0
 19 20  1  0  0  0
  2  5  1  0  0  0
M  END
> <minimizedAffinity>
-10.53920

$$$$
4HDP_G52_B_401


 44 48  0  0  0  0  0  0  0  0999 V2000
  -13.4156   20.8812  -17.9843 C   0  0  0  0  0  0  0  0  0  0  0  0
  -14.4683   21.7519  -18.4840 N   0  0  0  0  0  0  0  0  0  0  0  0
  -14.5835   23.0673  -18.3149 C   0  0  0  0  0  0  0  0  0  0  0  0
  -13.7481   23.8045  -17.7852 O   0  0  0  0  0  0  0  0  0  0  0  0
  -15.1790   21.3174  -19.0088 H   0  0  0  0  0  0  0  0  0  0  0  0
  -15.7361   23.5230  -18.8373 O   0  0  0  0  0  0  0  0  0  0  0  0
  -15.6718   24.6470  -19.7187 C   0  0  0  0  0  0  0  0  0  0  0  0
  -16.1600   24.1654  -21.0915 C   0  0  0  0  0  0  0  0  0  0  0  0
  -17.6003   24.2113  -21.0758 O   0  0  0  0  0  0  0  0  0  0  0  0
  -18.0117   25.0206  -19.9871 C   0  0  0  0  0  0  0  0  0  0  0  0
  -18.6665   24.2075  -18.9503 O   0  0  0  0  0  0  0  0  0  0  0  0
  -18.2665   24.6454  -17.6856 C   0  0  0  0  0  0  0  0  0  0  0  0
  -17.1553   25.6843  -17.8543 C   0  0  0  0  0  0  0  0  0  0  0  0
  -16.7969   25.6514  -19.3504 C   0  0  0  0  0  0  0  0  0  0  0  0
  -19.3315   25.2798  -16.9839 O   0  0  0  0  0  0  0  0  0  0  0  0
  -19.3546   26.6300  -17.4740 C   0  0  0  0  0  0  0  0  0  0  0  0
  -17.8698   26.9815  -17.4274 C   0  0  0  0  0  0  0  0  0  0  0  0
  -12.4548   20.5237  -19.1112 C   0  0  0  0  0  0  0  0  0  0  0  0
  -12.6473   19.1472  -19.4669 O   0  0  0  0  0  0  0  0  0  0  0  0
  -12.4167   18.5830  -18.7123 H   0  0  0  0  0  0  0  0  0  0  0  0
  -10.9736   20.7206  -18.8093 C   0  0  0  0  0  0  0  0  0  0  0  0
  -10.2252   19.4708  -18.9401 N   0  0  0  0  0  0  0  0  0  0  0  0
   -9.3186   19.2592  -20.3033 S   0  0  0  0  0  0  0  0  0  0  0  0
   -8.7248   20.5635  -20.6149 O   0  0  0  0  0  0  0  0  0  0  0  0
  -10.2155   18.7162  -21.3101 O   0  0  0  0  0  0  0  0  0  0  0  0
   -6.0810   16.2218  -19.2633 C   0  0  0  0  0  0  0  0  0  0  0  0
   -5.8658   17.5896  -19.0741 C   0  0  0  0  0  0  0  0  0  0  0  0
   -6.8414   18.5663  -19.3416 C   0  0  0  0  0  0  0  0  0  0  0  0
   -8.0191   18.1328  -19.9591 C   0  0  0  0  0  0  0  0  0  0  0  0
   -8.1658   16.8134  -20.2783 C   0  0  0  0  0  0  0  0  0  0  0  0
   -7.1984   15.8429  -20.0135 C   0  0  0  0  0  0  0  0  0  0  0  0
   -5.0584   15.4277  -18.9281 O   0  0  0  0  0  0  0  0  0  0  0  0
   -4.8273   15.4011  -17.5148 C   0  0  0  0  0  0  0  0  0  0  0  0
   -9.6071   18.9367  -17.7456 C   0  0  0  0  0  0  0  0  0  0  0  0
  -10.3589   17.7142  -17.1965 C   0  0  0  0  0  0  0  0  0  0  0  0
   -9.3553   16.6364  -16.8112 C   0  0  0  0  0  0  0  0  0  0  0  0
  -11.0604   18.1738  -15.9081 C   0  0  0  0  0  0  0  0  0  0  0  0
  -13.9932   19.6747  -17.2364 C   0  0  0  0  0  0  0  0  0  0  0  0
  -15.7922   19.8378  -15.4867 C   0  0  0  0  0  0  0  0  0  0  0  0
  -16.2928   20.3437  -14.2981 C   0  0  0  0  0  0  0  0  0  0  0  0
  -15.4317   21.0451  -13.4323 C   0  0  0  0  0  0  0  0  0  0  0  0
  -14.1233   21.2637  -13.7923 C   0  0  0  0  0  0  0  0  0  0  0  0
  -13.6434   20.8046  -15.0000 C   0  0  0  0  0  0  0  0  0  0  0  0
  -14.4850   20.1051  -15.8554 C   0  0  0  0  0  0  0  0  0  0  0  0
 27 26  2  0  0  0
 32 26  1  0  0  0
 26 31  1  0  0  0
 27 28  1  0  0  0
 28 29  2  0  0  0
 29 30  1  0  0  0
 29 23  1  0  0  0
 31 30  2  0  0  0
 24 23  2  0  0  0
 23 25  2  0  0  0
 23 22  1  0  0  0
 22 21  1  0  0  0
 22 34  1  0  0  0
 34 35  1  0  0  0
 36 35  1  0  0  0
 35 37  1  0  0  0
 21 18  1  0  0  0
  1 18  1  0  0  0
 18 19  1  0  0  0
 38  1  1  0  0  0
  1  2  1  0  0  0
  2  3  1  0  0  0
  4  3  2  0  0  0
  3  6  1  0  0  0
  6  7  1  0  0  0
 14  7  1  0  0  0
  7  8  1  0  0  0
  9  8  1  0  0  0
 10  9  1  0  0  0
 14 10  1  0  0  0
 11 10  1  0  0  0
 12 11  1  0  0  0
 15 12  1  0  0  0
 13 12  1  0  0  0
 17 13  1  0  0  0
 13 14  1  0  0  0
 44 38  1  0  0  0
 40 39  2  0  0  0
 39 44  1  0  0  0
 41 40  1  0  0  0
 41 42  2  0  0  0
 42 43  1  0  0  0
 43 44  2  0  0  0
 32 33  1  0  0  0
 16 15  1  0  0  0
 17 16  1  0  0  0
 19 20  1  0  0  0
  2  5  1  0  0  0
M  END
> <minimizedAffinity>
-9.71848

$$$$
4HDP_G52_B_401


 44 48  0  0  0  0  0  0  0  0999 V2000
  -11.8216   19.0987  -18.6503 C   0  0  0  0  0  0  0  0  0  0  0  0
  -11.0847   17.9993  -18.0465 N   0  0  0  0  0  0  0  0  0  0  0  0
  -10.3025   18.0395  -16.9702 C   0  0  0  0  0  0  0  0  0  0  0  0
  -10.1476   19.0098  -16.2243 O   0  0  0  0  0  0  0  0  0  0  0  0
  -11.1752   17.1228  -18.4855 H   0  0  0  0  0  0  0  0  0  0  0  0
   -9.7083   16.8514  -16.7595 O   0  0  0  0  0  0  0  0  0  0  0  0
   -8.8459   16.7275  -15.6259 C   0  0  0  0  0  0  0  0  0  0  0  0
   -9.2447   15.4347  -14.9016 C   0  0  0  0  0  0  0  0  0  0  0  0
   -8.5829   14.3444  -15.5726 O   0  0  0  0  0  0  0  0  0  0  0  0
   -7.5416   14.8765  -16.3740 C   0  0  0  0  0  0  0  0  0  0  0  0
   -7.8524   14.7222  -17.8039 O   0  0  0  0  0  0  0  0  0  0  0  0
   -7.4688   15.8731  -18.4964 C   0  0  0  0  0  0  0  0  0  0  0  0
   -7.0396   16.9362  -17.4823 C   0  0  0  0  0  0  0  0  0  0  0  0
   -7.4171   16.3573  -16.1075 C   0  0  0  0  0  0  0  0  0  0  0  0
   -6.3532   15.6310  -19.3484 O   0  0  0  0  0  0  0  0  0  0  0  0
   -5.2004   15.7262  -18.4966 C   0  0  0  0  0  0  0  0  0  0  0  0
   -5.5180   17.0010  -17.7191 C   0  0  0  0  0  0  0  0  0  0  0  0
  -13.2962   19.0049  -18.2796 C   0  0  0  0  0  0  0  0  0  0  0  0
  -13.8032   17.7331  -18.7085 O   0  0  0  0  0  0  0  0  0  0  0  0
  -13.7529   17.6744  -19.6754 H   0  0  0  0  0  0  0  0  0  0  0  0
  -14.1989   20.0842  -18.8662 C   0  0  0  0  0  0  0  0  0  0  0  0
  -14.4665   21.1484  -17.8991 N   0  0  0  0  0  0  0  0  0  0  0  0
  -14.5941   20.7249  -16.3088 S   0  0  0  0  0  0  0  0  0  0  0  0
  -13.2525   20.8623  -15.7325 O   0  0  0  0  0  0  0  0  0  0  0  0
  -15.1574   19.3851  -16.2868 O   0  0  0  0  0  0  0  0  0  0  0  0
  -17.3090   23.8256  -14.3583 C   0  0  0  0  0  0  0  0  0  0  0  0
  -16.2662   23.2348  -13.6396 C   0  0  0  0  0  0  0  0  0  0  0  0
  -15.3760   22.3024  -14.2014 C   0  0  0  0  0  0  0  0  0  0  0  0
  -15.6588   21.8577  -15.4969 C   0  0  0  0  0  0  0  0  0  0  0  0
  -16.7657   22.3275  -16.1436 C   0  0  0  0  0  0  0  0  0  0  0  0
  -17.6502   23.2529  -15.5874 C   0  0  0  0  0  0  0  0  0  0  0  0
  -18.0412   24.7163  -13.6807 O   0  0  0  0  0  0  0  0  0  0  0  0
  -17.3841   25.1738  -12.4930 C   0  0  0  0  0  0  0  0  0  0  0  0
  -13.8068   22.4194  -18.1082 C   0  0  0  0  0  0  0  0  0  0  0  0
  -14.5832   23.3276  -19.0743 C   0  0  0  0  0  0  0  0  0  0  0  0
  -14.5977   24.7487  -18.5287 C   0  0  0  0  0  0  0  0  0  0  0  0
  -13.7897   23.3465  -20.3910 C   0  0  0  0  0  0  0  0  0  0  0  0
  -11.5508   19.1959  -20.1556 C   0  0  0  0  0  0  0  0  0  0  0  0
   -9.2279   18.4325  -20.7435 C   0  0  0  0  0  0  0  0  0  0  0  0
   -7.8617   18.6451  -20.8313 C   0  0  0  0  0  0  0  0  0  0  0  0
   -7.3563   19.9487  -20.6639 C   0  0  0  0  0  0  0  0  0  0  0  0
   -8.2102   20.9845  -20.3682 C   0  0  0  0  0  0  0  0  0  0  0  0
   -9.5628   20.7589  -20.2292 C   0  0  0  0  0  0  0  0  0  0  0  0
  -10.0691   19.4769  -20.4008 C   0  0  0  0  0  0  0  0  0  0  0  0
 27 26  2  0  0  0
 32 26  1  0  0  0
 26 31  1  0  0  0
 27 28  1  0  0  0
 28 29  2  0  0  0
 29 30  1  0  0  0
 29 23  1  0  0  0
 31 30  2  0  0  0
 24 23  2  0  0  0
 23 25  2  0  0  0
 23 22  1  0  0  0
 22 21  1  0  0  0
 22 34  1  0  0  0
 34 35  1  0  0  0
 36 35  1  0  0  0
 35 37  1  0  0  0
 21 18  1  0  0  0
  1 18  1  0  0  0
 18 19  1  0  0  0
 38  1  1  0  0  0
  1  2  1  0  0  0
  2  3  1  0  0  0
  4  3  2  0  0  0
  3  6  1  0  0  0
  6  7  1  0  0  0
 14  7  1  0  0  0
  7  8  1  0  0  0
  9  8  1  0  0  0
 10  9  1  0  0  0
 14 10  1  0  0  0
 11 10  1  0  0  0
 12 11  1  0  0  0
 15 12  1  0  0  0
 13 12  1  0  0  0
 17 13  1  0  0  0
 13 14  1  0  0  0
 44 38  1  0  0  0
 40 39  2  0  0  0
 39 44  1  0  0  0
 41 40  1  0  0  0
 41 42  2  0  0  0
 42 43  1  0  0  0
 43 44  2  0  0  0
 32 33  1  0  0  0
 16 15  1  0  0  0
 17 16  1  0  0  0
 19 20  1  0  0  0
  2  5  1  0  0  0
M  END
> <minimizedAffinity>
-9.67184

$$$$
4HDP_G52_B_401


 44 48  0  0  0  0  0  0  0  0999 V2000
   -9.6206   19.9255  -18.9585 C   0  0  0  0  0  0  0  0  0  0  0  0
  -10.7339   20.8203  -19.2337 N   0  0  0  0  0  0  0  0  0  0  0  0
  -11.4803   21.4834  -18.3532 C   0  0  0  0  0  0  0  0  0  0  0  0
  -11.2870   21.5370  -17.1360 O   0  0  0  0  0  0  0  0  0  0  0  0
  -10.9623   20.9508  -20.1824 H   0  0  0  0  0  0  0  0  0  0  0  0
  -12.4814   22.1407  -18.9654 O   0  0  0  0  0  0  0  0  0  0  0  0
  -13.4726   21.3656  -19.6444 C   0  0  0  0  0  0  0  0  0  0  0  0
  -14.0469   20.3792  -18.6186 C   0  0  0  0  0  0  0  0  0  0  0  0
  -15.0557   21.0808  -17.8658 O   0  0  0  0  0  0  0  0  0  0  0  0
  -15.4104   22.2552  -18.5763 C   0  0  0  0  0  0  0  0  0  0  0  0
  -14.9542   23.4566  -17.8598 O   0  0  0  0  0  0  0  0  0  0  0  0
  -14.4557   24.3889  -18.7728 C   0  0  0  0  0  0  0  0  0  0  0  0
  -14.3992   23.7387  -20.1573 C   0  0  0  0  0  0  0  0  0  0  0  0
  -14.7174   22.2524  -19.9175 C   0  0  0  0  0  0  0  0  0  0  0  0
  -15.3016   25.5300  -18.8792 O   0  0  0  0  0  0  0  0  0  0  0  0
  -16.3391   25.1464  -19.7958 C   0  0  0  0  0  0  0  0  0  0  0  0
  -15.5197   24.4890  -20.9035 C   0  0  0  0  0  0  0  0  0  0  0  0
   -8.4869   20.1845  -19.9427 C   0  0  0  0  0  0  0  0  0  0  0  0
   -8.8432   21.2932  -20.7807 O   0  0  0  0  0  0  0  0  0  0  0  0
   -9.6244   21.0625  -21.3074 H   0  0  0  0  0  0  0  0  0  0  0  0
   -8.1164   19.0181  -20.8516 C   0  0  0  0  0  0  0  0  0  0  0  0
   -6.8151   18.4510  -20.4989 N   0  0  0  0  0  0  0  0  0  0  0  0
   -6.6935   16.8071  -20.4114 S   0  0  0  0  0  0  0  0  0  0  0  0
   -5.4143   16.4506  -21.0340 O   0  0  0  0  0  0  0  0  0  0  0  0
   -7.8814   16.2747  -21.0582 O   0  0  0  0  0  0  0  0  0  0  0  0
   -6.7384   15.6744  -15.9951 C   0  0  0  0  0  0  0  0  0  0  0  0
   -5.6370   16.3275  -16.5548 C   0  0  0  0  0  0  0  0  0  0  0  0
   -5.5851   16.7337  -17.9000 C   0  0  0  0  0  0  0  0  0  0  0  0
   -6.6370   16.3248  -18.7262 C   0  0  0  0  0  0  0  0  0  0  0  0
   -7.6413   15.5586  -18.2082 C   0  0  0  0  0  0  0  0  0  0  0  0
   -7.6943   15.1547  -16.8733 C   0  0  0  0  0  0  0  0  0  0  0  0
   -6.6356   15.3881  -14.6927 O   0  0  0  0  0  0  0  0  0  0  0  0
   -7.9129   15.2069  -14.0703 C   0  0  0  0  0  0  0  0  0  0  0  0
   -5.6392   19.0897  -21.0498 C   0  0  0  0  0  0  0  0  0  0  0  0
   -4.5582   19.3385  -19.9864 C   0  0  0  0  0  0  0  0  0  0  0  0
   -3.2702   19.7762  -20.6695 C   0  0  0  0  0  0  0  0  0  0  0  0
   -5.0498   20.5165  -19.1295 C   0  0  0  0  0  0  0  0  0  0  0  0
  -10.0787   18.4647  -18.8888 C   0  0  0  0  0  0  0  0  0  0  0  0
  -11.6935   17.7076  -17.1158 C   0  0  0  0  0  0  0  0  0  0  0  0
  -12.0374   17.5009  -15.7897 C   0  0  0  0  0  0  0  0  0  0  0  0
  -11.0407   17.5896  -14.7989 C   0  0  0  0  0  0  0  0  0  0  0  0
   -9.7540   17.9262  -15.1460 C   0  0  0  0  0  0  0  0  0  0  0  0
   -9.4279   18.1831  -16.4603 C   0  0  0  0  0  0  0  0  0  0  0  0
  -10.4042   18.0898  -17.4439 C   0  0  0  0  0  0  0  0  0  0  0  0
 27 26  2  0  0  0
 32 26  1  0  0  0
 26 31  1  0  0  0
 27 28  1  0  0  0
 28 29  2  0  0  0
 29 30  1  0  0  0
 29 23  1  0  0  0
 31 30  2  0  0  0
 24 23  2  0  0  0
 23 25  2  0  0  0
 23 22  1  0  0  0
 22 21  1  0  0  0
 22 34  1  0  0  0
 34 35  1  0  0  0
 36 35  1  0  0  0
 35 37  1  0  0  0
 21 18  1  0  0  0
  1 18  1  0  0  0
 18 19  1  0  0  0
 38  1  1  0  0  0
  1  2  1  0  0  0
  2  3  1  0  0  0
  4  3  2  0  0  0
  3  6  1  0  0  0
  6  7  1  0  0  0
 14  7  1  0  0  0
  7  8  1  0  0  0
  9  8  1  0  0  0
 10  9  1  0  0  0
 14 10  1  0  0  0
 11 10  1  0  0  0
 12 11  1  0  0  0
 15 12  1  0  0  0
 13 12  1  0  0  0
 17 13  1  0  0  0
 13 14  1  0  0  0
 44 38  1  0  0  0
 40 39  2  0  0  0
 39 44  1  0  0  0
 41 40  1  0  0  0
 41 42  2  0  0  0
 42 43  1  0  0  0
 43 44  2  0  0  0
 32 33  1  0  0  0
 16 15  1  0  0  0
 17 16  1  0  0  0
 19 20  1  0  0  0
  2  5  1  0  0  0
M  END
> <minimizedAffinity>
-9.41236

$$$$
4HDP_G52_B_401


 44 48  0  0  0  0  0  0  0  0999 V2000
  -10.0092   19.3243  -18.0542 C   0  0  0  0  0  0  0  0  0  0  0  0
  -10.9873   20.3147  -18.4766 N   0  0  0  0  0  0  0  0  0  0  0  0
  -11.5596   21.2596  -17.7340 C   0  0  0  0  0  0  0  0  0  0  0  0
  -11.2768   21.5308  -16.5642 O   0  0  0  0  0  0  0  0  0  0  0  0
  -11.2577   20.2823  -19.4227 H   0  0  0  0  0  0  0  0  0  0  0  0
  -12.4871   21.9328  -18.4382 O   0  0  0  0  0  0  0  0  0  0  0  0
  -13.3698   21.1786  -19.2725 C   0  0  0  0  0  0  0  0  0  0  0  0
  -14.1516   20.2311  -18.3527 C   0  0  0  0  0  0  0  0  0  0  0  0
  -15.2518   20.9797  -17.7995 O   0  0  0  0  0  0  0  0  0  0  0  0
  -15.4326   22.1518  -18.5762 C   0  0  0  0  0  0  0  0  0  0  0  0
  -15.0674   23.3505  -17.8050 O   0  0  0  0  0  0  0  0  0  0  0  0
  -14.3820   24.2486  -18.6267 C   0  0  0  0  0  0  0  0  0  0  0  0
  -14.1050   23.5712  -19.9710 C   0  0  0  0  0  0  0  0  0  0  0  0
  -14.5140   22.1010  -19.7731 C   0  0  0  0  0  0  0  0  0  0  0  0
  -15.1541   25.4150  -18.8955 O   0  0  0  0  0  0  0  0  0  0  0  0
  -16.0263   25.0491  -19.9768 C   0  0  0  0  0  0  0  0  0  0  0  0
  -15.0482   24.3443  -20.9134 C   0  0  0  0  0  0  0  0  0  0  0  0
   -8.8570   19.2708  -19.0494 C   0  0  0  0  0  0  0  0  0  0  0  0
   -9.0277   20.3184  -20.0147 O   0  0  0  0  0  0  0  0  0  0  0  0
   -9.8414   20.1635  -20.5194 H   0  0  0  0  0  0  0  0  0  0  0  0
   -8.6978   17.9605  -19.8122 C   0  0  0  0  0  0  0  0  0  0  0  0
   -7.3279   17.4540  -19.7352 N   0  0  0  0  0  0  0  0  0  0  0  0
   -7.1125   15.9017  -19.2166 S   0  0  0  0  0  0  0  0  0  0  0  0
   -6.6485   15.1355  -20.3779 O   0  0  0  0  0  0  0  0  0  0  0  0
   -8.3824   15.4811  -18.6481 O   0  0  0  0  0  0  0  0  0  0  0  0
   -3.8925   16.0393  -15.9913 C   0  0  0  0  0  0  0  0  0  0  0  0
   -3.5555   15.8183  -17.3294 C   0  0  0  0  0  0  0  0  0  0  0  0
   -4.5022   15.8039  -18.3691 C   0  0  0  0  0  0  0  0  0  0  0  0
   -5.8495   15.8732  -18.0001 C   0  0  0  0  0  0  0  0  0  0  0  0
   -6.1829   15.9403  -16.6778 C   0  0  0  0  0  0  0  0  0  0  0  0
   -5.2445   15.9547  -15.6447 C   0  0  0  0  0  0  0  0  0  0  0  0
   -2.8653   16.0533  -15.1351 O   0  0  0  0  0  0  0  0  0  0  0  0
   -1.7721   16.8502  -15.6057 C   0  0  0  0  0  0  0  0  0  0  0  0
   -6.4135   17.8449  -20.7865 C   0  0  0  0  0  0  0  0  0  0  0  0
   -5.7252   19.1868  -20.4918 C   0  0  0  0  0  0  0  0  0  0  0  0
   -5.3391   19.2431  -19.0204 C   0  0  0  0  0  0  0  0  0  0  0  0
   -4.4246   19.2013  -21.3114 C   0  0  0  0  0  0  0  0  0  0  0  0
  -10.6680   17.9695  -17.7731 C   0  0  0  0  0  0  0  0  0  0  0  0
   -9.2203   17.3842  -15.8018 C   0  0  0  0  0  0  0  0  0  0  0  0
   -9.0549   16.9141  -14.5091 C   0  0  0  0  0  0  0  0  0  0  0  0
  -10.1858   16.7547  -13.6853 C   0  0  0  0  0  0  0  0  0  0  0  0
  -11.4405   17.0176  -14.1813 C   0  0  0  0  0  0  0  0  0  0  0  0
  -11.6048   17.4343  -15.4848 C   0  0  0  0  0  0  0  0  0  0  0  0
  -10.4932   17.6012  -16.3007 C   0  0  0  0  0  0  0  0  0  0  0  0
 27 26  2  0  0  0
 32 26  1  0  0  0
 26 31  1  0  0  0
 27 28  1  0  0  0
 28 29  2  0  0  0
 29 30  1  0  0  0
 29 23  1  0  0  0
 31 30  2  0  0  0
 24 23  2  0  0  0
 23 25  2  0  0  0
 23 22  1  0  0  0
 22 21  1  0  0  0
 22 34  1  0  0  0
 34 35  1  0  0  0
 36 35  1  0  0  0
 35 37  1  0  0  0
 21 18  1  0  0  0
  1 18  1  0  0  0
 18 19  1  0  0  0
 38  1  1  0  0  0
  1  2  1  0  0  0
  2  3  1  0  0  0
  4  3  2  0  0  0
  3  6  1  0  0  0
  6  7  1  0  0  0
 14  7  1  0  0  0
  7  8  1  0  0  0
  9  8  1  0  0  0
 10  9  1  0  0  0
 14 10  1  0  0  0
 11 10  1  0  0  0
 12 11  1  0  0  0
 15 12  1  0  0  0
 13 12  1  0  0  0
 17 13  1  0  0  0
 13 14  1  0  0  0
 44 38  1  0  0  0
 40 39  2  0  0  0
 39 44  1  0  0  0
 41 40  1  0  0  0
 41 42  2  0  0  0
 42 43  1  0  0  0
 43 44  2  0  0  0
 32 33  1  0  0  0
 16 15  1  0  0  0
 17 16  1  0  0  0
 19 20  1  0  0  0
  2  5  1  0  0  0
M  END
> <minimizedAffinity>
-9.40718

$$$$
4HDP_G52_B_401


 44 48  0  0  0  0  0  0  0  0999 V2000
  -14.8375   21.6069  -16.2503 C   0  0  0  0  0  0  0  0  0  0  0  0
  -15.6423   22.2651  -17.2676 N   0  0  0  0  0  0  0  0  0  0  0  0
  -15.2912   23.2855  -18.0471 C   0  0  0  0  0  0  0  0  0  0  0  0
  -14.1677   23.7901  -18.1159 O   0  0  0  0  0  0  0  0  0  0  0  0
  -16.5536   21.9149  -17.3946 H   0  0  0  0  0  0  0  0  0  0  0  0
  -16.3253   23.6942  -18.8039 O   0  0  0  0  0  0  0  0  0  0  0  0
  -16.1465   24.8667  -19.6023 C   0  0  0  0  0  0  0  0  0  0  0  0
  -16.7017   24.5457  -20.9964 C   0  0  0  0  0  0  0  0  0  0  0  0
  -18.1276   24.7489  -20.9485 O   0  0  0  0  0  0  0  0  0  0  0  0
  -18.4332   25.5153  -19.7957 C   0  0  0  0  0  0  0  0  0  0  0  0
  -19.1622   24.7044  -18.8079 O   0  0  0  0  0  0  0  0  0  0  0  0
  -18.7009   25.0000  -17.5229 C   0  0  0  0  0  0  0  0  0  0  0  0
  -17.4828   25.9196  -17.6379 C   0  0  0  0  0  0  0  0  0  0  0  0
  -17.1481   25.9590  -19.1394 C   0  0  0  0  0  0  0  0  0  0  0  0
  -19.6800   25.6940  -16.7557 O   0  0  0  0  0  0  0  0  0  0  0  0
  -19.5582   27.0712  -17.1458 C   0  0  0  0  0  0  0  0  0  0  0  0
  -18.0429   27.2523  -17.1035 C   0  0  0  0  0  0  0  0  0  0  0  0
  -13.9017   20.5947  -16.8988 C   0  0  0  0  0  0  0  0  0  0  0  0
  -14.5099   19.2966  -16.8420 O   0  0  0  0  0  0  0  0  0  0  0  0
  -14.6140   19.0286  -15.9156 H   0  0  0  0  0  0  0  0  0  0  0  0
  -12.5128   20.4822  -16.2804 C   0  0  0  0  0  0  0  0  0  0  0  0
  -11.7256   19.4226  -16.9103 N   0  0  0  0  0  0  0  0  0  0  0  0
  -11.9094   17.8862  -16.3355 S   0  0  0  0  0  0  0  0  0  0  0  0
  -12.4880   17.0989  -17.4293 O   0  0  0  0  0  0  0  0  0  0  0  0
  -12.7223   17.9936  -15.1352 O   0  0  0  0  0  0  0  0  0  0  0  0
   -7.8763   15.9590  -15.4357 C   0  0  0  0  0  0  0  0  0  0  0  0
   -8.6289   16.5514  -14.4180 C   0  0  0  0  0  0  0  0  0  0  0  0
   -9.8945   17.1259  -14.6316 C   0  0  0  0  0  0  0  0  0  0  0  0
  -10.3308   17.2224  -15.9569 C   0  0  0  0  0  0  0  0  0  0  0  0
   -9.5260   16.7753  -16.9651 C   0  0  0  0  0  0  0  0  0  0  0  0
   -8.2696   16.2050  -16.7548 C   0  0  0  0  0  0  0  0  0  0  0  0
   -6.7084   15.4312  -15.0536 O   0  0  0  0  0  0  0  0  0  0  0  0
   -5.5890   16.0707  -15.6777 C   0  0  0  0  0  0  0  0  0  0  0  0
  -11.5510   19.4864  -18.3454 C   0  0  0  0  0  0  0  0  0  0  0  0
  -10.2874   20.2639  -18.7453 C   0  0  0  0  0  0  0  0  0  0  0  0
   -9.4298   19.3976  -19.6572 C   0  0  0  0  0  0  0  0  0  0  0  0
  -10.7595   21.4738  -19.5680 C   0  0  0  0  0  0  0  0  0  0  0  0
  -15.7101   21.0355  -15.1274 C   0  0  0  0  0  0  0  0  0  0  0  0
  -16.5542   23.2571  -14.3051 C   0  0  0  0  0  0  0  0  0  0  0  0
  -17.5767   24.0906  -13.8819 C   0  0  0  0  0  0  0  0  0  0  0  0
  -18.9133   23.6856  -14.0620 C   0  0  0  0  0  0  0  0  0  0  0  0
  -19.1913   22.4548  -14.6071 C   0  0  0  0  0  0  0  0  0  0  0  0
  -18.1702   21.6065  -14.9778 C   0  0  0  0  0  0  0  0  0  0  0  0
  -16.8495   22.0027  -14.8103 C   0  0  0  0  0  0  0  0  0  0  0  0
 27 26  2  0  0  0
 32 26  1  0  0  0
 26 31  1  0  0  0
 27 28  1  0  0  0
 28 29  2  0  0  0
 29 30  1  0  0  0
 29 23  1  0  0  0
 31 30  2  0  0  0
 24 23  2  0  0  0
 23 25  2  0  0  0
 23 22  1  0  0  0
 22 21  1  0  0  0
 22 34  1  0  0  0
 34 35  1  0  0  0
 36 35  1  0  0  0
 35 37  1  0  0  0
 21 18  1  0  0  0
  1 18  1  0  0  0
 18 19  1  0  0  0
 38  1  1  0  0  0
  1  2  1  0  0  0
  2  3  1  0  0  0
  4  3  2  0  0  0
  3  6  1  0  0  0
  6  7  1  0  0  0
 14  7  1  0  0  0
  7  8  1  0  0  0
  9  8  1  0  0  0
 10  9  1  0  0  0
 14 10  1  0  0  0
 11 10  1  0  0  0
 12 11  1  0  0  0
 15 12  1  0  0  0
 13 12  1  0  0  0
 17 13  1  0  0  0
 13 14  1  0  0  0
 44 38  1  0  0  0
 40 39  2  0  0  0
 39 44  1  0  0  0
 41 40  1  0  0  0
 41 42  2  0  0  0
 42 43  1  0  0  0
 43 44  2  0  0  0
 32 33  1  0  0  0
 16 15  1  0  0  0
 17 16  1  0  0  0
 19 20  1  0  0  0
  2  5  1  0  0  0
M  END
> <minimizedAffinity>
-9.38546

$$$$
4HDP_G52_B_401


 44 48  0  0  0  0  0  0  0  0999 V2000
  -13.9007   20.6850  -16.1906 C   0  0  0  0  0  0  0  0  0  0  0  0
  -14.4664   21.4537  -17.2884 N   0  0  0  0  0  0  0  0  0  0  0  0
  -13.9927   22.5772  -17.8226 C   0  0  0  0  0  0  0  0  0  0  0  0
  -12.9173   23.1135  -17.5438 O   0  0  0  0  0  0  0  0  0  0  0  0
  -15.2971   21.1017  -17.6825 H   0  0  0  0  0  0  0  0  0  0  0  0
  -14.8302   23.0584  -18.7586 O   0  0  0  0  0  0  0  0  0  0  0  0
  -14.4744   24.2812  -19.4083 C   0  0  0  0  0  0  0  0  0  0  0  0
  -14.3345   23.9671  -20.9039 C   0  0  0  0  0  0  0  0  0  0  0  0
  -15.6566   24.0029  -21.4761 O   0  0  0  0  0  0  0  0  0  0  0  0
  -16.5191   24.6720  -20.5717 C   0  0  0  0  0  0  0  0  0  0  0  0
  -17.4936   23.7355  -19.9900 O   0  0  0  0  0  0  0  0  0  0  0  0
  -17.6676   24.0190  -18.6333 C   0  0  0  0  0  0  0  0  0  0  0  0
  -16.6426   25.0768  -18.2171 C   0  0  0  0  0  0  0  0  0  0  0  0
  -15.7051   25.2275  -19.4280 C   0  0  0  0  0  0  0  0  0  0  0  0
  -18.9589   24.5578  -18.3665 O   0  0  0  0  0  0  0  0  0  0  0  0
  -18.8544   25.9573  -18.6735 C   0  0  0  0  0  0  0  0  0  0  0  0
  -17.5388   26.3087  -17.9834 C   0  0  0  0  0  0  0  0  0  0  0  0
  -12.9433   19.6302  -16.7307 C   0  0  0  0  0  0  0  0  0  0  0  0
  -13.0487   18.4495  -15.9224 O   0  0  0  0  0  0  0  0  0  0  0  0
  -12.7628   18.6506  -15.0175 H   0  0  0  0  0  0  0  0  0  0  0  0
  -11.4727   20.0289  -16.7773 C   0  0  0  0  0  0  0  0  0  0  0  0
  -10.7341   19.2528  -17.7730 N   0  0  0  0  0  0  0  0  0  0  0  0
  -10.5842   19.8931  -19.2870 S   0  0  0  0  0  0  0  0  0  0  0  0
  -10.4680   21.3450  -19.1154 O   0  0  0  0  0  0  0  0  0  0  0  0
  -11.7405   19.4362  -20.0401 O   0  0  0  0  0  0  0  0  0  0  0  0
   -6.7326   18.1881  -21.0327 C   0  0  0  0  0  0  0  0  0  0  0  0
   -6.7640   19.4764  -20.4923 C   0  0  0  0  0  0  0  0  0  0  0  0
   -7.9129   20.0377  -19.9071 C   0  0  0  0  0  0  0  0  0  0  0  0
   -9.1001   19.3059  -20.0140 C   0  0  0  0  0  0  0  0  0  0  0  0
   -9.0974   18.1110  -20.6744 C   0  0  0  0  0  0  0  0  0  0  0  0
   -7.9580   17.5526  -21.2557 C   0  0  0  0  0  0  0  0  0  0  0  0
   -5.5497   17.7981  -21.5198 O   0  0  0  0  0  0  0  0  0  0  0  0
   -4.7465   17.1329  -20.5379 C   0  0  0  0  0  0  0  0  0  0  0  0
   -9.5539   18.5457  -17.3244 C   0  0  0  0  0  0  0  0  0  0  0  0
   -9.8382   17.0648  -17.0290 C   0  0  0  0  0  0  0  0  0  0  0  0
   -8.6885   16.2162  -17.5538 C   0  0  0  0  0  0  0  0  0  0  0  0
   -9.8584   16.9194  -15.4987 C   0  0  0  0  0  0  0  0  0  0  0  0
  -14.9943   20.1362  -15.2679 C   0  0  0  0  0  0  0  0  0  0  0  0
  -17.2335   21.2800  -15.2228 C   0  0  0  0  0  0  0  0  0  0  0  0
  -18.0383   22.3711  -14.9378 C   0  0  0  0  0  0  0  0  0  0  0  0
  -17.5232   23.4184  -14.1500 C   0  0  0  0  0  0  0  0  0  0  0  0
  -16.2205   23.3743  -13.7138 C   0  0  0  0  0  0  0  0  0  0  0  0
  -15.4072   22.3118  -14.0444 C   0  0  0  0  0  0  0  0  0  0  0  0
  -15.9109   21.2714  -14.8146 C   0  0  0  0  0  0  0  0  0  0  0  0
 27 26  2  0  0  0
 32 26  1  0  0  0
 26 31  1  0  0  0
 27 28  1  0  0  0
 28 29  2  0  0  0
 29 30  1  0  0  0
 29 23  1  0  0  0
 31 30  2  0  0  0
 24 23  2  0  0  0
 23 25  2  0  0  0
 23 22  1  0  0  0
 22 21  1  0  0  0
 22 34  1  0  0  0
 34 35  1  0  0  0
 36 35  1  0  0  0
 35 37  1  0  0  0
 21 18  1  0  0  0
  1 18  1  0  0  0
 18 19  1  0  0  0
 38  1  1  0  0  0
  1  2  1  0  0  0
  2  3  1  0  0  0
  4  3  2  0  0  0
  3  6  1  0  0  0
  6  7  1  0  0  0
 14  7  1  0  0  0
  7  8  1  0  0  0
  9  8  1  0  0  0
 10  9  1  0  0  0
 14 10  1  0  0  0
 11 10  1  0  0  0
 12 11  1  0  0  0
 15 12  1  0  0  0
 13 12  1  0  0  0
 17 13  1  0  0  0
 13 14  1  0  0  0
 44 38  1  0  0  0
 40 39  2  0  0  0
 39 44  1  0  0  0
 41 40  1  0  0  0
 41 42  2  0  0  0
 42 43  1  0  0  0
 43 44  2  0  0  0
 32 33  1  0  0  0
 16 15  1  0  0  0
 17 16  1  0  0  0
 19 20  1  0  0  0
  2  5  1  0  0  0
M  END
> <minimizedAffinity>
-9.31504

$$$$
4HDP_G52_B_401


 44 48  0  0  0  0  0  0  0  0999 V2000
  -13.8490   21.1200  -19.4034 C   0  0  0  0  0  0  0  0  0  0  0  0
  -14.9265   22.0655  -19.6504 N   0  0  0  0  0  0  0  0  0  0  0  0
  -15.0358   23.3107  -19.1928 C   0  0  0  0  0  0  0  0  0  0  0  0
  -14.1770   23.9250  -18.5548 O   0  0  0  0  0  0  0  0  0  0  0  0
  -15.6611   21.7470  -20.2234 H   0  0  0  0  0  0  0  0  0  0  0  0
  -16.2134   23.8550  -19.5480 O   0  0  0  0  0  0  0  0  0  0  0  0
  -16.2394   25.2521  -19.8505 C   0  0  0  0  0  0  0  0  0  0  0  0
  -16.9780   25.4050  -21.1870 C   0  0  0  0  0  0  0  0  0  0  0  0
  -18.3903   25.4014  -20.9005 O   0  0  0  0  0  0  0  0  0  0  0  0
  -18.5678   25.6435  -19.5150 C   0  0  0  0  0  0  0  0  0  0  0  0
  -19.0800   24.4426  -18.8366 O   0  0  0  0  0  0  0  0  0  0  0  0
  -18.4489   24.2952  -17.5991 C   0  0  0  0  0  0  0  0  0  0  0  0
  -17.3286   25.3326  -17.4925 C   0  0  0  0  0  0  0  0  0  0  0  0
  -17.2309   25.9652  -18.8919 C   0  0  0  0  0  0  0  0  0  0  0  0
  -19.3444   24.5316  -16.5169 O   0  0  0  0  0  0  0  0  0  0  0  0
  -19.3782   25.9592  -16.3603 C   0  0  0  0  0  0  0  0  0  0  0  0
  -17.8903   26.2942  -16.4271 C   0  0  0  0  0  0  0  0  0  0  0  0
  -14.2173   20.1990  -18.2472 C   0  0  0  0  0  0  0  0  0  0  0  0
  -14.7003   18.9568  -18.7782 O   0  0  0  0  0  0  0  0  0  0  0  0
  -15.5146   19.1149  -19.2809 H   0  0  0  0  0  0  0  0  0  0  0  0
  -15.2718   20.7311  -17.2834 C   0  0  0  0  0  0  0  0  0  0  0  0
  -14.9214   20.4508  -15.8913 N   0  0  0  0  0  0  0  0  0  0  0  0
  -13.4287   20.9214  -15.3667 S   0  0  0  0  0  0  0  0  0  0  0  0
  -13.5165   21.0326  -13.9070 O   0  0  0  0  0  0  0  0  0  0  0  0
  -13.1151   22.1505  -16.0766 O   0  0  0  0  0  0  0  0  0  0  0  0
  -10.4208   17.7212  -16.5916 C   0  0  0  0  0  0  0  0  0  0  0  0
  -11.5764   17.3826  -15.8826 C   0  0  0  0  0  0  0  0  0  0  0  0
  -12.5554   18.3220  -15.5128 C   0  0  0  0  0  0  0  0  0  0  0  0
  -12.2636   19.6687  -15.7526 C   0  0  0  0  0  0  0  0  0  0  0  0
  -11.0658   20.0087  -16.3128 C   0  0  0  0  0  0  0  0  0  0  0  0
  -10.0932   19.0777  -16.6802 C   0  0  0  0  0  0  0  0  0  0  0  0
   -9.6106   16.7001  -16.8909 O   0  0  0  0  0  0  0  0  0  0  0  0
   -8.5488   17.0847  -17.7718 C   0  0  0  0  0  0  0  0  0  0  0  0
  -15.9612   20.6118  -14.8977 C   0  0  0  0  0  0  0  0  0  0  0  0
  -16.8792   21.8058  -15.2023 C   0  0  0  0  0  0  0  0  0  0  0  0
  -18.2999   21.4731  -14.7683 C   0  0  0  0  0  0  0  0  0  0  0  0
  -16.3892   22.9698  -14.3257 C   0  0  0  0  0  0  0  0  0  0  0  0
  -12.5024   21.8336  -19.2418 C   0  0  0  0  0  0  0  0  0  0  0  0
  -11.6340   19.6272  -20.0796 C   0  0  0  0  0  0  0  0  0  0  0  0
  -10.5952   18.7876  -20.4475 C   0  0  0  0  0  0  0  0  0  0  0  0
   -9.3051   19.3247  -20.6206 C   0  0  0  0  0  0  0  0  0  0  0  0
   -9.0771   20.6583  -20.3776 C   0  0  0  0  0  0  0  0  0  0  0  0
  -10.1027   21.4792  -19.9603 C   0  0  0  0  0  0  0  0  0  0  0  0
  -11.3795   20.9578  -19.7951 C   0  0  0  0  0  0  0  0  0  0  0  0
 27 26  2  0  0  0
 32 26  1  0  0  0
 26 31  1  0  0  0
 27 28  1  0  0  0
 28 29  2  0  0  0
 29 30  1  0  0  0
 29 23  1  0  0  0
 31 30  2  0  0  0
 24 23  2  0  0  0
 23 25  2  0  0  0
 23 22  1  0  0  0
 22 21  1  0  0  0
 22 34  1  0  0  0
 34 35  1  0  0  0
 36 35  1  0  0  0
 35 37  1  0  0  0
 21 18  1  0  0  0
  1 18  1  0  0  0
 18 19  1  0  0  0
 38  1  1  0  0  0
  1  2  1  0  0  0
  2  3  1  0  0  0
  4  3  2  0  0  0
  3  6  1  0  0  0
  6  7  1  0  0  0
 14  7  1  0  0  0
  7  8  1  0  0  0
  9  8  1  0  0  0
 10  9  1  0  0  0
 14 10  1  0  0  0
 11 10  1  0  0  0
 12 11  1  0  0  0
 15 12  1  0  0  0
 13 12  1  0  0  0
 17 13  1  0  0  0
 13 14  1  0  0  0
 44 38  1  0  0  0
 40 39  2  0  0  0
 39 44  1  0  0  0
 41 40  1  0  0  0
 41 42  2  0  0  0
 42 43  1  0  0  0
 43 44  2  0  0  0
 32 33  1  0  0  0
 16 15  1  0  0  0
 17 16  1  0  0  0
 19 20  1  0  0  0
  2  5  1  0  0  0
M  END
> <minimizedAffinity>
-9.18159

$$$$
4HDP_G52_B_401


 44 48  0  0  0  0  0  0  0  0999 V2000
  -13.1343   21.3921  -19.1765 C   0  0  0  0  0  0  0  0  0  0  0  0
  -14.0688   21.5317  -18.0705 N   0  0  0  0  0  0  0  0  0  0  0  0
  -14.8374   20.5876  -17.5321 C   0  0  0  0  0  0  0  0  0  0  0  0
  -14.8128   19.3868  -17.8139 O   0  0  0  0  0  0  0  0  0  0  0  0
  -14.1414   22.4297  -17.6737 H   0  0  0  0  0  0  0  0  0  0  0  0
  -15.6457   21.1019  -16.5881 O   0  0  0  0  0  0  0  0  0  0  0  0
  -15.7748   20.3864  -15.3570 C   0  0  0  0  0  0  0  0  0  0  0  0
  -14.5686   20.7706  -14.4895 C   0  0  0  0  0  0  0  0  0  0  0  0
  -14.8850   22.0186  -13.8420 O   0  0  0  0  0  0  0  0  0  0  0  0
  -16.2845   22.2274  -13.9294 C   0  0  0  0  0  0  0  0  0  0  0  0
  -16.5892   23.3540  -14.8255 O   0  0  0  0  0  0  0  0  0  0  0  0
  -17.7060   23.0463  -15.6062 C   0  0  0  0  0  0  0  0  0  0  0  0
  -18.0822   21.5816  -15.3695 C   0  0  0  0  0  0  0  0  0  0  0  0
  -16.9331   21.0018  -14.5262 C   0  0  0  0  0  0  0  0  0  0  0  0
  -18.8369   23.8338  -15.2459 O   0  0  0  0  0  0  0  0  0  0  0  0
  -19.4134   23.1687  -14.1105 C   0  0  0  0  0  0  0  0  0  0  0  0
  -19.4031   21.7185  -14.5872 C   0  0  0  0  0  0  0  0  0  0  0  0
  -11.8676   20.6897  -18.7044 C   0  0  0  0  0  0  0  0  0  0  0  0
  -10.7394   21.5330  -18.9770 O   0  0  0  0  0  0  0  0  0  0  0  0
  -10.6514   21.6556  -19.9352 H   0  0  0  0  0  0  0  0  0  0  0  0
  -11.5895   19.3283  -19.3314 C   0  0  0  0  0  0  0  0  0  0  0  0
  -10.4413   18.6710  -18.7078 N   0  0  0  0  0  0  0  0  0  0  0  0
   -9.0458   18.5716  -19.5838 S   0  0  0  0  0  0  0  0  0  0  0  0
   -8.4659   19.9186  -19.5972 O   0  0  0  0  0  0  0  0  0  0  0  0
   -9.4155   18.0296  -20.8809 O   0  0  0  0  0  0  0  0  0  0  0  0
   -6.0012   15.7963  -17.6300 C   0  0  0  0  0  0  0  0  0  0  0  0
   -7.3283   15.3938  -17.8028 C   0  0  0  0  0  0  0  0  0  0  0  0
   -8.2990   16.1930  -18.4324 C   0  0  0  0  0  0  0  0  0  0  0  0
   -7.9269   17.5005  -18.7611 C   0  0  0  0  0  0  0  0  0  0  0  0
   -6.6708   17.9401  -18.4559 C   0  0  0  0  0  0  0  0  0  0  0  0
   -5.7063   17.1482  -17.8311 C   0  0  0  0  0  0  0  0  0  0  0  0
   -5.2016   14.9008  -17.0406 O   0  0  0  0  0  0  0  0  0  0  0  0
   -4.7888   15.3138  -15.7327 C   0  0  0  0  0  0  0  0  0  0  0  0
  -10.2232   18.9090  -17.2971 C   0  0  0  0  0  0  0  0  0  0  0  0
  -10.8153   17.7955  -16.4192 C   0  0  0  0  0  0  0  0  0  0  0  0
   -9.8305   17.4496  -15.3111 C   0  0  0  0  0  0  0  0  0  0  0  0
  -12.0709   18.3828  -15.7544 C   0  0  0  0  0  0  0  0  0  0  0  0
  -12.8921   22.7325  -19.8789 C   0  0  0  0  0  0  0  0  0  0  0  0
  -15.0958   23.3824  -20.9015 C   0  0  0  0  0  0  0  0  0  0  0  0
  -16.1955   24.2199  -20.9945 C   0  0  0  0  0  0  0  0  0  0  0  0
  -16.4148   25.1814  -19.9893 C   0  0  0  0  0  0  0  0  0  0  0  0
  -15.5168   25.3143  -18.9572 C   0  0  0  0  0  0  0  0  0  0  0  0
  -14.3958   24.5146  -18.8972 C   0  0  0  0  0  0  0  0  0  0  0  0
  -14.1773   23.5587  -19.8810 C   0  0  0  0  0  0  0  0  0  0  0  0
 27 26  2  0  0  0
 32 26  1  0  0  0
 26 31  1  0  0  0
 27 28  1  0  0  0
 28 29  2  0  0  0
 29 30  1  0  0  0
 29 23  1  0  0  0
 31 30  2  0  0  0
 24 23  2  0  0  0
 23 25  2  0  0  0
 23 22  1  0  0  0
 22 21  1  0  0  0
 22 34  1  0  0  0
 34 35  1  0  0  0
 36 35  1  0  0  0
 35 37  1  0  0  0
 21 18  1  0  0  0
  1 18  1  0  0  0
 18 19  1  0  0  0
 38  1  1  0  0  0
  1  2  1  0  0  0
  2  3  1  0  0  0
  4  3  2  0  0  0
  3  6  1  0  0  0
  6  7  1  0  0  0
 14  7  1  0  0  0
  7  8  1  0  0  0
  9  8  1  0  0  0
 10  9  1  0  0  0
 14 10  1  0  0  0
 11 10  1  0  0  0
 12 11  1  0  0  0
 15 12  1  0  0  0
 13 12  1  0  0  0
 17 13  1  0  0  0
 13 14  1  0  0  0
 44 38  1  0  0  0
 40 39  2  0  0  0
 39 44  1  0  0  0
 41 40  1  0  0  0
 41 42  2  0  0  0
 42 43  1  0  0  0
 43 44  2  0  0  0
 32 33  1  0  0  0
 16 15  1  0  0  0
 17 16  1  0  0  0
 19 20  1  0  0  0
  2  5  1  0  0  0
M  END
> <minimizedAffinity>
-9.13581

$$$$
4HDP_G52_B_401


 44 48  0  0  0  0  0  0  0  0999 V2000
  -14.0656   20.9055  -15.9167 C   0  0  0  0  0  0  0  0  0  0  0  0
  -14.5524   21.7131  -17.0243 N   0  0  0  0  0  0  0  0  0  0  0  0
  -14.9451   21.2933  -18.2249 C   0  0  0  0  0  0  0  0  0  0  0  0
  -15.0655   20.1169  -18.5763 O   0  0  0  0  0  0  0  0  0  0  0  0
  -14.5966   22.6840  -16.8675 H   0  0  0  0  0  0  0  0  0  0  0  0
  -15.2413   22.3314  -19.0273 O   0  0  0  0  0  0  0  0  0  0  0  0
  -14.4127   23.4939  -18.9489 C   0  0  0  0  0  0  0  0  0  0  0  0
  -13.5505   23.5131  -20.2183 C   0  0  0  0  0  0  0  0  0  0  0  0
  -14.3436   24.1018  -21.2677 O   0  0  0  0  0  0  0  0  0  0  0  0
  -15.4401   24.7779  -20.6760 C   0  0  0  0  0  0  0  0  0  0  0  0
  -16.7045   24.0914  -20.9843 O   0  0  0  0  0  0  0  0  0  0  0  0
  -17.5262   24.0876  -19.8545 C   0  0  0  0  0  0  0  0  0  0  0  0
  -16.7306   24.6344  -18.6668 C   0  0  0  0  0  0  0  0  0  0  0  0
  -15.2834   24.7594  -19.1746 C   0  0  0  0  0  0  0  0  0  0  0  0
  -18.6617   24.9308  -20.0231 O   0  0  0  0  0  0  0  0  0  0  0  0
  -18.1975   26.2548  -19.7146 C   0  0  0  0  0  0  0  0  0  0  0  0
  -17.4131   25.9959  -18.4307 C   0  0  0  0  0  0  0  0  0  0  0  0
  -13.1309   19.8193  -16.4337 C   0  0  0  0  0  0  0  0  0  0  0  0
  -13.1959   18.6909  -15.5499 O   0  0  0  0  0  0  0  0  0  0  0  0
  -12.8695   18.9476  -14.6733 H   0  0  0  0  0  0  0  0  0  0  0  0
  -11.6650   20.2144  -16.5722 C   0  0  0  0  0  0  0  0  0  0  0  0
  -10.9316   19.2780  -17.4233 N   0  0  0  0  0  0  0  0  0  0  0  0
   -9.9843   18.1479  -16.6813 S   0  0  0  0  0  0  0  0  0  0  0  0
  -10.8679   17.0326  -16.3260 O   0  0  0  0  0  0  0  0  0  0  0  0
   -9.3396   18.8233  -15.5673 O   0  0  0  0  0  0  0  0  0  0  0  0
   -6.7815   16.5046  -19.4796 C   0  0  0  0  0  0  0  0  0  0  0  0
   -6.9662   17.8823  -19.3346 C   0  0  0  0  0  0  0  0  0  0  0  0
   -7.9118   18.4439  -18.4584 C   0  0  0  0  0  0  0  0  0  0  0  0
   -8.7907   17.5601  -17.8239 C   0  0  0  0  0  0  0  0  0  0  0  0
   -8.7034   16.2223  -18.0822 C   0  0  0  0  0  0  0  0  0  0  0  0
   -7.7655   15.6633  -18.9515 C   0  0  0  0  0  0  0  0  0  0  0  0
   -5.8167   16.1410  -20.3315 O   0  0  0  0  0  0  0  0  0  0  0  0
   -5.3599   17.2326  -21.1385 C   0  0  0  0  0  0  0  0  0  0  0  0
  -11.6064   18.7824  -18.6037 C   0  0  0  0  0  0  0  0  0  0  0  0
  -11.3992   19.6966  -19.8212 C   0  0  0  0  0  0  0  0  0  0  0  0
  -10.4293   20.8114  -19.4555 C   0  0  0  0  0  0  0  0  0  0  0  0
  -10.7279   18.8374  -20.9049 C   0  0  0  0  0  0  0  0  0  0  0  0
  -15.2187   20.3899  -15.0489 C   0  0  0  0  0  0  0  0  0  0  0  0
  -17.4329   21.5815  -15.0890 C   0  0  0  0  0  0  0  0  0  0  0  0
  -18.2219   22.6940  -14.8458 C   0  0  0  0  0  0  0  0  0  0  0  0
  -17.7076   23.7434  -14.0601 C   0  0  0  0  0  0  0  0  0  0  0  0
  -16.4195   23.6790  -13.5847 C   0  0  0  0  0  0  0  0  0  0  0  0
  -15.6201   22.5940  -13.8737 C   0  0  0  0  0  0  0  0  0  0  0  0
  -16.1234   21.5518  -14.6415 C   0  0  0  0  0  0  0  0  0  0  0  0
 27 26  2  0  0  0
 32 26  1  0  0  0
 26 31  1  0  0  0
 27 28  1  0  0  0
 28 29  2  0  0  0
 29 30  1  0  0  0
 29 23  1  0  0  0
 31 30  2  0  0  0
 24 23  2  0  0  0
 23 25  2  0  0  0
 23 22  1  0  0  0
 22 21  1  0  0  0
 22 34  1  0  0  0
 34 35  1  0  0  0
 36 35  1  0  0  0
 35 37  1  0  0  0
 21 18  1  0  0  0
  1 18  1  0  0  0
 18 19  1  0  0  0
 38  1  1  0  0  0
  1  2  1  0  0  0
  2  3  1  0  0  0
  4  3  2  0  0  0
  3  6  1  0  0  0
  6  7  1  0  0  0
 14  7  1  0  0  0
  7  8  1  0  0  0
  9  8  1  0  0  0
 10  9  1  0  0  0
 14 10  1  0  0  0
 11 10  1  0  0  0
 12 11  1  0  0  0
 15 12  1  0  0  0
 13 12  1  0  0  0
 17 13  1  0  0  0
 13 14  1  0  0  0
 44 38  1  0  0  0
 40 39  2  0  0  0
 39 44  1  0  0  0
 41 40  1  0  0  0
 41 42  2  0  0  0
 42 43  1  0  0  0
 43 44  2  0  0  0
 32 33  1  0  0  0
 16 15  1  0  0  0
 17 16  1  0  0  0
 19 20  1  0  0  0
  2  5  1  0  0  0
M  END
> <minimizedAffinity>
-9.09416

$$$$
