3W9R_A8S_A_201
  RCSB PDB12061711203D
Coordinates from PDB:3W9R:A:201 Model:1 without hydrogens
 19 19  0  0  0  0            999 V2000
   38.3560  -40.9270   -6.7730   C 0  0  0  0  0  0  0  0  0  0  0  0
   37.3830  -41.4280   -7.7860   C 0  0  0  0  0  0  0  0  0  0  0  0
   37.1140  -42.7330   -8.0660   C 0  0  0  0  0  0  0  0  0  0  0  0
   37.7400  -43.8870   -7.4050   C 0  0  0  0  0  0  0  0  0  0  0  0
   37.5860  -45.1540   -7.8870   C 0  0  0  0  0  0  0  0  0  0  0  0
   36.1210  -42.9670   -9.1800   C 0  0  0  0  0  0  0  0  0  0  0  0
   38.2680  -46.3410   -7.2470   C 0  0  0  0  0  0  0  0  0  0  0  0
   39.2770  -45.8470   -6.3680   O 0  0  0  0  0  0  0  0  0  0  0  0
   37.2500  -47.1040   -6.4100   C 0  0  0  0  0  0  0  0  0  0  0  0
   36.5970  -48.1610   -6.9320   C 0  0  0  0  0  0  0  0  0  0  0  0
   36.8340  -48.6240   -8.3180   C 0  0  0  0  0  0  0  0  0  0  0  0
   36.1630  -49.5450   -8.7960   O 0  0  0  0  0  0  0  0  0  0  0  0
   37.8960  -47.9430   -9.1760   C 0  0  0  0  0  0  0  0  0  0  0  0
   38.8720  -41.7100   -5.9710   O 0  0  0  0  0  0  0  0  0  0  0  0
   38.9450  -47.2510   -8.2950   C 0  0  0  0  0  0  0  0  0  0  0  0
   38.6710  -39.7160   -6.7850   O 0  0  0  0  0  0  0  0  0  0  0  0
   36.9880  -46.6390   -4.9980   C 0  0  0  0  0  0  0  0  0  0  0  0
   39.8280  -48.3000   -7.6390   C 0  0  0  0  0  0  0  0  0  0  0  0
   39.7920  -46.3940   -9.2480   C 0  0  0  0  0  0  0  0  0  0  0  0
 14  1  1  0  0  0  0
 16  1  2  0  0  0  0
  1  2  1  0  0  0  0
  2  3  2  0  0  0  0
  3  4  1  0  0  0  0
  3  6  1  0  0  0  0
  4  5  2  0  0  0  0
  5  7  1  0  0  0  0
  8  7  1  0  0  0  0
  7 15  1  0  0  0  0
  7  9  1  0  0  0  0
  9 17  1  0  0  0  0
  9 10  2  0  0  0  0
 10 11  1  0  0  0  0
 13 11  1  0  0  0  0
 11 12  2  0  0  0  0
 15 13  1  0  0  0  0
 19 15  1  0  0  0  0
 18 15  1  0  0  0  0
A    1
C1
A    2
C2
A    3
C3
A    4
C4
A    5
C5
A    6
C6
A    7
C7
A    8
O7
A    9
C8
A   10
C9
A   11
C10
A   12
O10
A   13
C11
A   14
O11
A   15
C12
A   16
O12
A   17
C13
A   18
C14
A   19
C15
M  END
>  <InstanceId>
3W9R_A8S_A_201

>  <ChemCompId>
A8S

>  <PdbId>
3W9R

>  <ChainId>
A

>  <ResidueNumber>
201

>  <InsertionCode>


>  <Model>
1

>  <AltIds>


>  <MissingHeavyAtoms>
0

>  <ObservedFormula>
C15 O4

>  <Name>
(2Z,4E)-5-[(1S)-1-hydroxy-2,6,6-trimethyl-4-oxocyclohex-2-en-1-yl]-3-methylpenta-2,4-dienoic acid

>  <SystematicName>
(4E)-5-[(1S)-1-hydroxy-2,6,6-trimethyl-4-oxo-cyclohex-2-en-1-yl]-3-methyl-penta-2,4-dienoic acid

>  <Synonyms>
(+)-abscisic acid,  (2Z,4E)-5-[(1S)-1-hydroxy-2,6,6-trimethyl-4-oxo-2-cyclohexen-1-yl]-3-methyl-2,4-pentadienoic acid

>  <Type>
NON-POLYMER

>  <Formula>
C15 H20 O4

>  <MolecularWeight>
264.317

>  <ModifiedDate>
2011-06-04

>  <Parent>


>  <OneLetterCode>


>  <SubcomponentList>


>  <AmbiguousFlag>
N

>  <InChI>
InChI=1S/C15H20O4/c1-10(7-13(17)18)5-6-15(19)11(2)8-12(16)9-14(15,3)4/h5-8,19H,9H2,1-4H3,(H,17,18)/b6-5+,10-7-/t15-/m1/s1

>  <InChIKey>
JLIDBLDQVAYHNE-YKALOCIXSA-N

>  <SMILES>
CC1=CC(=O)CC([C@]1(/C=C/C(=CC(=O)O)C)O)(C)C

$$$$
