4M2V_BZ1_A_302
  RCSB PDB12061713403D
Coordinates from PDB:4M2V:A:302 Model:1 without hydrogens
 23 24  0  0  0  0            999 V2000
    1.6400    8.3000   84.3460   C 0  0  0  0  0  0  0  0  0  0  0  0
   -0.2140    3.8410   85.0740   C 0  0  0  0  0  0  0  0  0  0  0  0
   -1.2870    4.5570   85.4550   C 0  0  0  0  0  0  0  0  0  0  0  0
    0.9490    4.0960   84.1630   C 0  0  0  0  0  0  0  0  0  0  0  0
    0.5350    5.3890   83.4140   C 0  0  0  0  0  0  0  0  0  0  0  0
   -1.9470    0.9640   87.5100   S 0  0  0  0  0  0  0  0  0  0  0  0
    0.7240    9.4680   84.4920   C 0  0  0  0  0  0  0  0  0  0  0  0
    2.3470    1.9880   81.3530   C 0  0  0  0  0  0  0  0  0  0  0  0
    2.1170    3.1300   82.2920   C 0  0  0  0  0  0  0  0  0  0  0  0
   -2.3230    3.7370   86.4750   S 0  0  0  0  0  0  0  0  0  0  0  0
   -1.3560   -0.3860   86.8720   N 0  0  0  0  0  0  0  0  0  0  0  0
   -1.4030    1.1870   88.8390   O 0  0  0  0  0  0  0  0  0  0  0  0
   -3.4040    1.0910   87.4970   O 0  0  0  0  0  0  0  0  0  0  0  0
   -1.4120    2.2920   86.5380   C 0  0  0  0  0  0  0  0  0  0  0  0
   -0.1670    2.4150   85.6700   C 0  0  0  0  0  0  0  0  0  0  0  0
   -1.5120    6.1680   84.9070   S 0  0  0  0  0  0  0  0  0  0  0  0
   -1.7720    7.0580   86.0420   O 0  0  0  0  0  0  0  0  0  0  0  0
   -2.5480    6.2810   83.8780   O 0  0  0  0  0  0  0  0  0  0  0  0
   -0.0200    6.4180   84.3100   N 0  0  0  0  0  0  0  0  0  0  0  0
    1.0170    3.0070   83.2040   N 0  0  0  0  0  0  0  0  0  0  0  0
    1.1610    6.9930   84.8810   C 0  0  0  0  0  0  0  0  0  0  0  0
    1.2680   10.7170   84.6820   O 0  0  0  0  0  0  0  0  0  0  0  0
    0.6640   11.8230   84.1200   C 0  0  0  0  0  0  0  0  0  0  0  0
  1  7  1  0  0  0  0
  1 21  1  0  0  0  0
  2  3  2  0  0  0  0
  2  4  1  0  0  0  0
  2 15  1  0  0  0  0
  3 10  1  0  0  0  0
  3 16  1  0  0  0  0
  4  5  1  0  0  0  0
  4 20  1  0  0  0  0
  5 19  1  0  0  0  0
  6 11  1  0  0  0  0
  6 12  2  0  0  0  0
  6 13  2  0  0  0  0
  6 14  1  0  0  0  0
  7 22  1  0  0  0  0
  8  9  1  0  0  0  0
  9 20  1  0  0  0  0
 10 14  1  0  0  0  0
 14 15  2  0  0  0  0
 16 17  2  0  0  0  0
 16 18  2  0  0  0  0
 16 19  1  0  0  0  0
 19 21  1  0  0  0  0
 22 23  1  0  0  0  0
A    1
C3
A    2
C9
A    3
C10
A    4
C11
A    5
C12
A    6
S1
A    7
C4
A    8
C5
A    9
C6
A   10
S2
A   11
N2
A   12
O3
A   13
O4
A   14
C7
A   15
C8
A   16
S3
A   17
O2
A   18
O5
A   19
N3
A   20
N1
A   21
C2
A   22
O1
A   23
C1
M  END
>  <InstanceId>
4M2V_BZ1_A_302

>  <ChemCompId>
BZ1

>  <PdbId>
4M2V

>  <ChainId>
A

>  <ResidueNumber>
302

>  <InsertionCode>


>  <Model>
1

>  <AltIds>


>  <MissingHeavyAtoms>
0

>  <ObservedFormula>
C12 N3 O5 S3

>  <Name>
(+)-4-ETHYLAMINO-3,4-DIHYDRO-2-(METHOXY)PROPYL-2H-THIENO[3,2-E]-1,2-THIAZINE-6-SULFONAMIDE-1,1-DIOXIDE

>  <SystematicName>
(4R)-4-(ethylamino)-2-(3-methoxypropyl)-1,1-bis(oxidanylidene)-3,4-dihydrothieno[3,2-e][1,2]thiazine-6-sulfonamide

>  <Synonyms>
Brinzolamide

>  <Type>
NON-POLYMER

>  <Formula>
C12 H21 N3 O5 S3

>  <MolecularWeight>
383.507

>  <ModifiedDate>
2013-08-12

>  <Parent>


>  <OneLetterCode>


>  <SubcomponentList>


>  <AmbiguousFlag>
N

>  <InChI>
InChI=1S/C12H21N3O5S3/c1-3-14-10-8-15(5-4-6-20-2)23(18,19)12-9(10)7-11(21-12)22(13,16)17/h7,10,14H,3-6,8H2,1-2H3,(H2,13,16,17)/t10-/m0/s1

>  <InChIKey>
HCRKCZRJWPKOAR-JTQLQIEISA-N

>  <SMILES>
CCN[C@H]1CN(S(=O)(=O)c2c1cc(s2)S(=O)(=O)N)CCCOC

$$$$
