4TMN_0PK_E_317


 41 42  0  0  0  0  0  0  0  0999 V2000
   51.9920   19.0042   -6.0241 P   0  0  0  0  0  0  0  0  0  0  0  0
   53.2769   18.3042   -6.6100 O   0  0  0  0  0  0  0  0  0  0  0  0
   52.1191   20.5847   -6.0139 O   0  0  0  0  0  0  0  0  0  0  0  0
   52.3042   20.9000   -6.9124 H   0  0  0  0  0  0  0  0  0  0  0  0
   51.6324   18.4942   -4.2310 N   0  0  0  0  0  0  0  0  0  0  0  0
   51.0649   19.2254   -3.8024 H   0  0  0  0  0  0  0  0  0  0  0  0
   52.8204   18.2886   -3.3906 C   0  0  0  0  0  0  0  0  0  0  0  0
   53.5310   16.9381   -3.5761 C   0  0  0  0  0  0  0  0  0  0  0  0
   54.7154   16.8756   -3.9261 O   0  0  0  0  0  0  0  0  0  0  0  0
   52.8232   15.8698   -3.2665 N   0  0  0  0  0  0  0  0  0  0  0  0
   51.8913   16.0116   -2.9822 H   0  0  0  0  0  0  0  0  0  0  0  0
   53.3143   14.4776   -3.3115 C   0  0  0  0  0  0  0  0  0  0  0  0
   52.6636   13.7037   -2.1796 C   0  0  0  0  0  0  0  0  0  0  0  0
   52.9890   13.8251   -4.6786 C   0  0  0  0  0  0  0  0  0  0  0  0
   51.9180   14.0829   -5.2662 O   0  0  0  0  0  0  0  0  0  0  0  0
   53.7795   13.0798   -5.3637 O   0  0  0  0  0  0  0  0  0  0  0  0
   54.6103   12.8288   -5.0105 H   0  0  0  0  0  0  0  0  0  0  0  0
   52.5111   18.4053   -1.8928 C   0  0  0  0  0  0  0  0  0  0  0  0
   53.7442   18.5637   -1.0340 C   0  0  0  0  0  0  0  0  0  0  0  0
   54.3160   19.9864   -1.1741 C   0  0  0  0  0  0  0  0  0  0  0  0
   53.1581   18.2513    0.3263 C   0  0  0  0  0  0  0  0  0  0  0  0
   50.6148   18.4837   -6.7738 C   0  0  0  0  0  0  0  0  0  0  0  0
   50.5152   20.0295   -8.6994 C   0  0  0  0  0  0  0  0  0  0  0  0
   50.0187   21.0049   -8.0392 O   0  0  0  0  0  0  0  0  0  0  0  0
   50.7879   18.8072   -8.2176 N   0  0  0  0  0  0  0  0  0  0  0  0
   51.1095   18.1085   -8.8321 H   0  0  0  0  0  0  0  0  0  0  0  0
   50.9189   20.0535  -10.0176 O   0  0  0  0  0  0  0  0  0  0  0  0
   49.9566   20.0005  -11.0835 C   0  0  0  0  0  0  0  0  0  0  0  0
   50.5542   20.9342  -12.0751 C   0  0  0  0  0  0  0  0  0  0  0  0
   50.2726   21.0706  -13.4387 C   0  0  0  0  0  0  0  0  0  0  0  0
   50.8807   22.0435  -14.2750 C   0  0  0  0  0  0  0  0  0  0  0  0
   51.7482   22.9401  -13.8176 C   0  0  0  0  0  0  0  0  0  0  0  0
   51.9754   22.7349  -12.5160 C   0  0  0  0  0  0  0  0  0  0  0  0
   51.4403   21.8161  -11.5903 C   0  0  0  0  0  0  0  0  0  0  0  0
   50.5375   16.9941   -6.7397 C   0  0  0  0  0  0  0  0  0  0  0  0
   49.1687   16.6345   -7.2800 C   0  0  0  0  0  0  0  0  0  0  0  0
   49.1382   15.9004   -8.4727 C   0  0  0  0  0  0  0  0  0  0  0  0
   48.0222   16.9540   -6.5968 C   0  0  0  0  0  0  0  0  0  0  0  0
   47.9158   15.5068   -9.0322 C   0  0  0  0  0  0  0  0  0  0  0  0
   46.7869   16.5788   -7.1450 C   0  0  0  0  0  0  0  0  0  0  0  0
   46.7439   15.8549   -8.3718 C   0  0  0  0  0  0  0  0  0  0  0  0
 23 24  2  0  0  0
 23 27  1  0  0  0
 27 28  1  0  0  0
 28 29  1  0  0  0
 29 30  2  0  0  0
 29 34  1  0  0  0
 30 31  1  0  0  0
 31 32  2  0  0  0
 32 33  1  0  0  0
 33 34  2  0  0  0
 25 22  1  0  0  0
 22  1  1  0  0  0
 22 35  1  0  0  0
  1  2  2  0  0  0
  1  3  1  0  0  0
 35 36  1  0  0  0
 36 37  2  0  0  0
 36 38  1  0  0  0
 37 39  1  0  0  0
 38 40  2  0  0  0
 39 41  2  0  0  0
 40 41  1  0  0  0
  5  7  1  0  0  0
  7  8  1  0  0  0
  7 18  1  0  0  0
  8  9  2  0  0  0
 18 19  1  0  0  0
 19 20  1  0  0  0
 19 21  1  0  0  0
 10 12  1  0  0  0
 12 14  1  0  0  0
 12 13  1  0  0  0
 14 15  2  0  0  0
 14 16  1  0  0  0
 23 25  1  0  0  0
  8 10  1  0  0  0
  1  5  1  0  0  0
 25 26  1  0  0  0
  3  4  1  0  0  0
  5  6  1  0  0  0
 10 11  1  0  0  0
 16 17  1  0  0  0
M  END
> <minimizedAffinity>
-10.05806

$$$$
4TMN_0PK_E_317


 41 42  0  0  0  0  0  0  0  0999 V2000
   48.2859   17.8898  -13.9561 P   0  0  0  0  0  0  0  0  0  0  0  0
   48.0458   16.7424  -15.0097 O   0  0  0  0  0  0  0  0  0  0  0  0
   49.4276   18.8932  -14.4082 O   0  0  0  0  0  0  0  0  0  0  0  0
   49.2071   19.2635  -15.2771 H   0  0  0  0  0  0  0  0  0  0  0  0
   48.8117   17.2265  -12.2566 N   0  0  0  0  0  0  0  0  0  0  0  0
   48.3549   16.3257  -12.1141 H   0  0  0  0  0  0  0  0  0  0  0  0
   48.4758   18.0924  -11.1177 C   0  0  0  0  0  0  0  0  0  0  0  0
   49.5704   19.0899  -10.7052 C   0  0  0  0  0  0  0  0  0  0  0  0
   50.0810   19.8621  -11.5251 O   0  0  0  0  0  0  0  0  0  0  0  0
   49.8676   19.1173   -9.4210 N   0  0  0  0  0  0  0  0  0  0  0  0
   49.4020   18.4774   -8.8354 H   0  0  0  0  0  0  0  0  0  0  0  0
   50.8421   20.0300   -8.7894 C   0  0  0  0  0  0  0  0  0  0  0  0
   50.1830   21.3856   -8.6121 C   0  0  0  0  0  0  0  0  0  0  0  0
   51.3149   19.4687   -7.4249 C   0  0  0  0  0  0  0  0  0  0  0  0
   52.3628   18.7947   -7.3446 O   0  0  0  0  0  0  0  0  0  0  0  0
   50.7747   19.7088   -6.2846 O   0  0  0  0  0  0  0  0  0  0  0  0
   49.9832   20.2080   -6.2369 H   0  0  0  0  0  0  0  0  0  0  0  0
   48.1264   17.2964   -9.8539 C   0  0  0  0  0  0  0  0  0  0  0  0
   46.6527   16.9884   -9.7248 C   0  0  0  0  0  0  0  0  0  0  0  0
   46.3399   15.6042  -10.3220 C   0  0  0  0  0  0  0  0  0  0  0  0
   46.4976   17.0758   -8.2215 C   0  0  0  0  0  0  0  0  0  0  0  0
   46.8806   18.6642  -13.5625 C   0  0  0  0  0  0  0  0  0  0  0  0
   46.9405   21.0949  -13.1201 C   0  0  0  0  0  0  0  0  0  0  0  0
   46.5935   20.9978  -11.8937 O   0  0  0  0  0  0  0  0  0  0  0  0
   47.0603   20.0801  -13.9897 N   0  0  0  0  0  0  0  0  0  0  0  0
   47.2717   20.2755  -14.9311 H   0  0  0  0  0  0  0  0  0  0  0  0
   47.3120   22.2485  -13.7777 O   0  0  0  0  0  0  0  0  0  0  0  0
   47.8651   23.3615  -13.0566 C   0  0  0  0  0  0  0  0  0  0  0  0
   49.3133   23.0227  -13.0448 C   0  0  0  0  0  0  0  0  0  0  0  0
   50.1100   22.5220  -14.0802 C   0  0  0  0  0  0  0  0  0  0  0  0
   51.5045   22.2854  -13.9570 C   0  0  0  0  0  0  0  0  0  0  0  0
   52.1825   22.5601  -12.8477 C   0  0  0  0  0  0  0  0  0  0  0  0
   51.3522   23.0178  -11.9049 C   0  0  0  0  0  0  0  0  0  0  0  0
   49.9695   23.2926  -11.9071 C   0  0  0  0  0  0  0  0  0  0  0  0
   45.7591   18.1660  -14.4110 C   0  0  0  0  0  0  0  0  0  0  0  0
   44.7201   17.6215  -13.4524 C   0  0  0  0  0  0  0  0  0  0  0  0
   44.2287   16.3380  -13.7229 C   0  0  0  0  0  0  0  0  0  0  0  0
   44.3339   18.3250  -12.3391 C   0  0  0  0  0  0  0  0  0  0  0  0
   43.2812   15.7483  -12.8764 C   0  0  0  0  0  0  0  0  0  0  0  0
   43.3780   17.7574  -11.4840 C   0  0  0  0  0  0  0  0  0  0  0  0
   42.8520   16.4631  -11.7649 C   0  0  0  0  0  0  0  0  0  0  0  0
 23 24  2  0  0  0
 23 27  1  0  0  0
 27 28  1  0  0  0
 28 29  1  0  0  0
 29 30  2  0  0  0
 29 34  1  0  0  0
 30 31  1  0  0  0
 31 32  2  0  0  0
 32 33  1  0  0  0
 33 34  2  0  0  0
 25 22  1  0  0  0
 22  1  1  0  0  0
 22 35  1  0  0  0
  1  2  2  0  0  0
  1  3  1  0  0  0
 35 36  1  0  0  0
 36 37  2  0  0  0
 36 38  1  0  0  0
 37 39  1  0  0  0
 38 40  2  0  0  0
 39 41  2  0  0  0
 40 41  1  0  0  0
  5  7  1  0  0  0
  7  8  1  0  0  0
  7 18  1  0  0  0
  8  9  2  0  0  0
 18 19  1  0  0  0
 19 20  1  0  0  0
 19 21  1  0  0  0
 10 12  1  0  0  0
 12 14  1  0  0  0
 12 13  1  0  0  0
 14 15  2  0  0  0
 14 16  1  0  0  0
 23 25  1  0  0  0
  8 10  1  0  0  0
  1  5  1  0  0  0
 25 26  1  0  0  0
  3  4  1  0  0  0
  5  6  1  0  0  0
 10 11  1  0  0  0
 16 17  1  0  0  0
M  END
> <minimizedAffinity>
-9.74127

$$$$
4TMN_0PK_E_317


 41 42  0  0  0  0  0  0  0  0999 V2000
   47.5594   19.9244  -11.4383 P   0  0  0  0  0  0  0  0  0  0  0  0
   47.0431   21.0355  -12.4298 O   0  0  0  0  0  0  0  0  0  0  0  0
   47.4384   20.3681   -9.9208 O   0  0  0  0  0  0  0  0  0  0  0  0
   46.5180   20.6040   -9.7253 H   0  0  0  0  0  0  0  0  0  0  0  0
   49.3863   19.4872  -11.7140 N   0  0  0  0  0  0  0  0  0  0  0  0
   49.5201   18.5102  -11.4534 H   0  0  0  0  0  0  0  0  0  0  0  0
   50.3442   20.2977  -10.9488 C   0  0  0  0  0  0  0  0  0  0  0  0
   50.2260   20.1860   -9.4202 C   0  0  0  0  0  0  0  0  0  0  0  0
   49.9426   21.1666   -8.7221 O   0  0  0  0  0  0  0  0  0  0  0  0
   50.3700   18.9745   -8.9204 N   0  0  0  0  0  0  0  0  0  0  0  0
   50.5801   18.2476   -9.5502 H   0  0  0  0  0  0  0  0  0  0  0  0
   50.2419   18.6191   -7.4925 C   0  0  0  0  0  0  0  0  0  0  0  0
   49.9840   17.1268   -7.3920 C   0  0  0  0  0  0  0  0  0  0  0  0
   51.5239   19.0067   -6.7136 C   0  0  0  0  0  0  0  0  0  0  0  0
   52.6509   18.6949   -7.1509 O   0  0  0  0  0  0  0  0  0  0  0  0
   51.5710   19.7361   -5.6574 O   0  0  0  0  0  0  0  0  0  0  0  0
   50.7773   20.0238   -5.2509 H   0  0  0  0  0  0  0  0  0  0  0  0
   50.2456   21.7931  -11.2758 C   0  0  0  0  0  0  0  0  0  0  0  0
   50.6298   22.1246  -12.6991 C   0  0  0  0  0  0  0  0  0  0  0  0
   49.7014   23.2147  -13.2650 C   0  0  0  0  0  0  0  0  0  0  0  0
   52.0627   22.5648  -12.4879 C   0  0  0  0  0  0  0  0  0  0  0  0
   46.8462   18.4630  -11.7303 C   0  0  0  0  0  0  0  0  0  0  0  0
   46.6921   17.5456  -14.0199 C   0  0  0  0  0  0  0  0  0  0  0  0
   45.4169   17.4577  -14.0236 O   0  0  0  0  0  0  0  0  0  0  0  0
   47.4524   17.9572  -12.9937 N   0  0  0  0  0  0  0  0  0  0  0  0
   48.4327   17.9242  -13.0775 H   0  0  0  0  0  0  0  0  0  0  0  0
   47.5343   17.2890  -15.0810 O   0  0  0  0  0  0  0  0  0  0  0  0
   48.9343   17.0455  -14.8677 C   0  0  0  0  0  0  0  0  0  0  0  0
   49.5388   17.7049  -16.0560 C   0  0  0  0  0  0  0  0  0  0  0  0
   50.3850   17.1632  -17.0296 C   0  0  0  0  0  0  0  0  0  0  0  0
   50.8583   17.8894  -18.1541 C   0  0  0  0  0  0  0  0  0  0  0  0
   50.5009   19.1458  -18.3977 C   0  0  0  0  0  0  0  0  0  0  0  0
   49.7083   19.5945  -17.4189 C   0  0  0  0  0  0  0  0  0  0  0  0
   49.1760   18.9781  -16.2681 C   0  0  0  0  0  0  0  0  0  0  0  0
   47.2638   17.4675  -10.7004 C   0  0  0  0  0  0  0  0  0  0  0  0
   46.0641   17.2740   -9.7958 C   0  0  0  0  0  0  0  0  0  0  0  0
   44.8059   17.5141  -10.3629 C   0  0  0  0  0  0  0  0  0  0  0  0
   46.2035   16.8203   -8.5082 C   0  0  0  0  0  0  0  0  0  0  0  0
   43.6412   17.3391   -9.6046 C   0  0  0  0  0  0  0  0  0  0  0  0
   45.0506   16.6486   -7.7281 C   0  0  0  0  0  0  0  0  0  0  0  0
   43.7674   16.9158   -8.2872 C   0  0  0  0  0  0  0  0  0  0  0  0
 23 24  2  0  0  0
 23 27  1  0  0  0
 27 28  1  0  0  0
 28 29  1  0  0  0
 29 30  2  0  0  0
 29 34  1  0  0  0
 30 31  1  0  0  0
 31 32  2  0  0  0
 32 33  1  0  0  0
 33 34  2  0  0  0
 25 22  1  0  0  0
 22  1  1  0  0  0
 22 35  1  0  0  0
  1  2  2  0  0  0
  1  3  1  0  0  0
 35 36  1  0  0  0
 36 37  2  0  0  0
 36 38  1  0  0  0
 37 39  1  0  0  0
 38 40  2  0  0  0
 39 41  2  0  0  0
 40 41  1  0  0  0
  5  7  1  0  0  0
  7  8  1  0  0  0
  7 18  1  0  0  0
  8  9  2  0  0  0
 18 19  1  0  0  0
 19 20  1  0  0  0
 19 21  1  0  0  0
 10 12  1  0  0  0
 12 14  1  0  0  0
 12 13  1  0  0  0
 14 15  2  0  0  0
 14 16  1  0  0  0
 23 25  1  0  0  0
  8 10  1  0  0  0
  1  5  1  0  0  0
 25 26  1  0  0  0
  3  4  1  0  0  0
  5  6  1  0  0  0
 10 11  1  0  0  0
 16 17  1  0  0  0
M  END
> <minimizedAffinity>
-9.44714

$$$$
4TMN_0PK_E_317


 41 42  0  0  0  0  0  0  0  0999 V2000
   48.1585   19.9686  -13.0682 P   0  0  0  0  0  0  0  0  0  0  0  0
   49.5064   19.4447  -13.6953 O   0  0  0  0  0  0  0  0  0  0  0  0
   47.5538   21.1916  -13.8764 O   0  0  0  0  0  0  0  0  0  0  0  0
   47.4263   20.9353  -14.8032 H   0  0  0  0  0  0  0  0  0  0  0  0
   48.3674   20.5719  -11.2802 N   0  0  0  0  0  0  0  0  0  0  0  0
   47.9862   21.5160  -11.2188 H   0  0  0  0  0  0  0  0  0  0  0  0
   49.7531   20.6080  -10.7917 C   0  0  0  0  0  0  0  0  0  0  0  0
   49.9374   20.2416   -9.3101 C   0  0  0  0  0  0  0  0  0  0  0  0
   49.8307   21.0912   -8.4179 O   0  0  0  0  0  0  0  0  0  0  0  0
   50.1380   18.9637   -9.0555 N   0  0  0  0  0  0  0  0  0  0  0  0
   50.1947   18.3527   -9.8254 H   0  0  0  0  0  0  0  0  0  0  0  0
   50.2845   18.3740   -7.7093 C   0  0  0  0  0  0  0  0  0  0  0  0
   50.5494   16.8876   -7.8641 C   0  0  0  0  0  0  0  0  0  0  0  0
   51.4383   19.0577   -6.9336 C   0  0  0  0  0  0  0  0  0  0  0  0
   52.6278   18.8425   -7.2456 O   0  0  0  0  0  0  0  0  0  0  0  0
   51.3050   19.9451   -6.0147 O   0  0  0  0  0  0  0  0  0  0  0  0
   50.4505   20.1788   -5.7095 H   0  0  0  0  0  0  0  0  0  0  0  0
   50.4081   21.9827  -10.9755 C   0  0  0  0  0  0  0  0  0  0  0  0
   50.7687   22.2907  -12.4102 C   0  0  0  0  0  0  0  0  0  0  0  0
   49.9781   23.5132  -12.9112 C   0  0  0  0  0  0  0  0  0  0  0  0
   52.2577   22.5205  -12.2626 C   0  0  0  0  0  0  0  0  0  0  0  0
   47.0664   18.7475  -12.8550 C   0  0  0  0  0  0  0  0  0  0  0  0
   47.5029   17.0893  -11.0752 C   0  0  0  0  0  0  0  0  0  0  0  0
   47.6692   16.1045  -11.8730 O   0  0  0  0  0  0  0  0  0  0  0  0
   47.1786   18.3434  -11.4255 N   0  0  0  0  0  0  0  0  0  0  0  0
   47.0110   19.0114  -10.7220 H   0  0  0  0  0  0  0  0  0  0  0  0
   47.6758   17.0741   -9.7074 O   0  0  0  0  0  0  0  0  0  0  0  0
   46.7964   17.8150   -8.8457 C   0  0  0  0  0  0  0  0  0  0  0  0
   45.7112   16.8274   -8.6023 C   0  0  0  0  0  0  0  0  0  0  0  0
   45.8089   15.4547   -8.3499 C   0  0  0  0  0  0  0  0  0  0  0  0
   44.6909   14.6220   -8.0805 C   0  0  0  0  0  0  0  0  0  0  0  0
   43.4497   15.0907   -8.0066 C   0  0  0  0  0  0  0  0  0  0  0  0
   43.4382   16.4007   -8.2738 C   0  0  0  0  0  0  0  0  0  0  0  0
   44.4668   17.3241   -8.5510 C   0  0  0  0  0  0  0  0  0  0  0  0
   45.6743   19.2697  -12.9790 C   0  0  0  0  0  0  0  0  0  0  0  0
   44.7695   18.0548  -12.9635 C   0  0  0  0  0  0  0  0  0  0  0  0
   43.7311   18.0580  -12.0233 C   0  0  0  0  0  0  0  0  0  0  0  0
   44.9211   17.0370  -13.8716 C   0  0  0  0  0  0  0  0  0  0  0  0
   42.8341   16.9844  -11.9536 C   0  0  0  0  0  0  0  0  0  0  0  0
   44.0402   15.9472  -13.8121 C   0  0  0  0  0  0  0  0  0  0  0  0
   42.9967   15.9283  -12.8418 C   0  0  0  0  0  0  0  0  0  0  0  0
 23 24  2  0  0  0
 23 27  1  0  0  0
 27 28  1  0  0  0
 28 29  1  0  0  0
 29 30  2  0  0  0
 29 34  1  0  0  0
 30 31  1  0  0  0
 31 32  2  0  0  0
 32 33  1  0  0  0
 33 34  2  0  0  0
 25 22  1  0  0  0
 22  1  1  0  0  0
 22 35  1  0  0  0
  1  2  2  0  0  0
  1  3  1  0  0  0
 35 36  1  0  0  0
 36 37  2  0  0  0
 36 38  1  0  0  0
 37 39  1  0  0  0
 38 40  2  0  0  0
 39 41  2  0  0  0
 40 41  1  0  0  0
  5  7  1  0  0  0
  7  8  1  0  0  0
  7 18  1  0  0  0
  8  9  2  0  0  0
 18 19  1  0  0  0
 19 20  1  0  0  0
 19 21  1  0  0  0
 10 12  1  0  0  0
 12 14  1  0  0  0
 12 13  1  0  0  0
 14 15  2  0  0  0
 14 16  1  0  0  0
 23 25  1  0  0  0
  8 10  1  0  0  0
  1  5  1  0  0  0
 25 26  1  0  0  0
  3  4  1  0  0  0
  5  6  1  0  0  0
 10 11  1  0  0  0
 16 17  1  0  0  0
M  END
> <minimizedAffinity>
-9.22815

$$$$
4TMN_0PK_E_317


 41 42  0  0  0  0  0  0  0  0999 V2000
   49.7375   19.8671   -9.6454 P   0  0  0  0  0  0  0  0  0  0  0  0
   50.8255   20.3106  -10.6960 O   0  0  0  0  0  0  0  0  0  0  0  0
   49.4867   20.9717   -8.5356 O   0  0  0  0  0  0  0  0  0  0  0  0
   49.2351   21.8062   -8.9612 H   0  0  0  0  0  0  0  0  0  0  0  0
   50.2204   18.2853   -8.7129 N   0  0  0  0  0  0  0  0  0  0  0  0
   49.5745   17.5459   -8.9895 H   0  0  0  0  0  0  0  0  0  0  0  0
   50.1904   18.3912   -7.2474 C   0  0  0  0  0  0  0  0  0  0  0  0
   51.5661   18.4733   -6.5661 C   0  0  0  0  0  0  0  0  0  0  0  0
   52.5697   18.8490   -7.1832 O   0  0  0  0  0  0  0  0  0  0  0  0
   51.5862   18.1932   -5.2779 N   0  0  0  0  0  0  0  0  0  0  0  0
   50.7379   17.9165   -4.8620 H   0  0  0  0  0  0  0  0  0  0  0  0
   52.7779   18.2608   -4.4080 C   0  0  0  0  0  0  0  0  0  0  0  0
   52.3651   18.8616   -3.0767 C   0  0  0  0  0  0  0  0  0  0  0  0
   53.3906   16.8522   -4.2064 C   0  0  0  0  0  0  0  0  0  0  0  0
   54.5026   16.7166   -3.6553 O   0  0  0  0  0  0  0  0  0  0  0  0
   52.8127   15.7356   -4.4694 O   0  0  0  0  0  0  0  0  0  0  0  0
   51.9723   15.7292   -4.8838 H   0  0  0  0  0  0  0  0  0  0  0  0
   49.4565   17.2179   -6.5858 C   0  0  0  0  0  0  0  0  0  0  0  0
   48.5278   16.4829   -7.5241 C   0  0  0  0  0  0  0  0  0  0  0  0
   49.1004   15.0955   -7.8675 C   0  0  0  0  0  0  0  0  0  0  0  0
   47.2713   16.4547   -6.6802 C   0  0  0  0  0  0  0  0  0  0  0  0
   48.3408   19.3771  -10.3792 C   0  0  0  0  0  0  0  0  0  0  0  0
   47.3017   20.6544  -12.2221 C   0  0  0  0  0  0  0  0  0  0  0  0
   46.1682   20.7866  -11.6464 O   0  0  0  0  0  0  0  0  0  0  0  0
   48.3590   19.9835  -11.7397 N   0  0  0  0  0  0  0  0  0  0  0  0
   49.1648   19.8900  -12.2975 H   0  0  0  0  0  0  0  0  0  0  0  0
   47.6819   21.2169  -13.4222 O   0  0  0  0  0  0  0  0  0  0  0  0
   47.9226   22.6295  -13.5297 C   0  0  0  0  0  0  0  0  0  0  0  0
   49.3919   22.7019  -13.3098 C   0  0  0  0  0  0  0  0  0  0  0  0
   50.4285   22.2146  -14.1131 C   0  0  0  0  0  0  0  0  0  0  0  0
   51.8054   22.3933  -13.8163 C   0  0  0  0  0  0  0  0  0  0  0  0
   52.2274   23.0796  -12.7597 C   0  0  0  0  0  0  0  0  0  0  0  0
   51.1824   23.4970  -12.0375 C   0  0  0  0  0  0  0  0  0  0  0  0
   49.7898   23.3843  -12.2264 C   0  0  0  0  0  0  0  0  0  0  0  0
   48.3771   17.9073  -10.6336 C   0  0  0  0  0  0  0  0  0  0  0  0
   46.9931   17.3909  -10.2977 C   0  0  0  0  0  0  0  0  0  0  0  0
   46.1696   18.2437   -9.5516 C   0  0  0  0  0  0  0  0  0  0  0  0
   46.5490   16.1780  -10.7612 C   0  0  0  0  0  0  0  0  0  0  0  0
   44.8666   17.8554   -9.2145 C   0  0  0  0  0  0  0  0  0  0  0  0
   45.2511   15.7652  -10.4259 C   0  0  0  0  0  0  0  0  0  0  0  0
   44.4145   16.6139   -9.6446 C   0  0  0  0  0  0  0  0  0  0  0  0
 23 24  2  0  0  0
 23 27  1  0  0  0
 27 28  1  0  0  0
 28 29  1  0  0  0
 29 30  2  0  0  0
 29 34  1  0  0  0
 30 31  1  0  0  0
 31 32  2  0  0  0
 32 33  1  0  0  0
 33 34  2  0  0  0
 25 22  1  0  0  0
 22  1  1  0  0  0
 22 35  1  0  0  0
  1  2  2  0  0  0
  1  3  1  0  0  0
 35 36  1  0  0  0
 36 37  2  0  0  0
 36 38  1  0  0  0
 37 39  1  0  0  0
 38 40  2  0  0  0
 39 41  2  0  0  0
 40 41  1  0  0  0
  5  7  1  0  0  0
  7  8  1  0  0  0
  7 18  1  0  0  0
  8  9  2  0  0  0
 18 19  1  0  0  0
 19 20  1  0  0  0
 19 21  1  0  0  0
 10 12  1  0  0  0
 12 14  1  0  0  0
 12 13  1  0  0  0
 14 15  2  0  0  0
 14 16  1  0  0  0
 23 25  1  0  0  0
  8 10  1  0  0  0
  1  5  1  0  0  0
 25 26  1  0  0  0
  3  4  1  0  0  0
  5  6  1  0  0  0
 10 11  1  0  0  0
 16 17  1  0  0  0
M  END
> <minimizedAffinity>
-9.00802

$$$$
4TMN_0PK_E_317


 41 42  0  0  0  0  0  0  0  0999 V2000
   48.3055   20.4658  -12.4548 P   0  0  0  0  0  0  0  0  0  0  0  0
   48.0678   20.5580  -14.0102 O   0  0  0  0  0  0  0  0  0  0  0  0
   48.1587   21.8729  -11.7387 O   0  0  0  0  0  0  0  0  0  0  0  0
   47.2839   22.2446  -11.9325 H   0  0  0  0  0  0  0  0  0  0  0  0
   50.0395   19.8302  -12.0144 N   0  0  0  0  0  0  0  0  0  0  0  0
   49.9335   18.9686  -11.4788 H   0  0  0  0  0  0  0  0  0  0  0  0
   50.8625   20.7580  -11.2258 C   0  0  0  0  0  0  0  0  0  0  0  0
   50.5501   20.7973   -9.7211 C   0  0  0  0  0  0  0  0  0  0  0  0
   50.0361   21.7914   -9.1951 O   0  0  0  0  0  0  0  0  0  0  0  0
   50.7939   19.6858   -9.0552 N   0  0  0  0  0  0  0  0  0  0  0  0
   51.1905   18.9365   -9.5556 H   0  0  0  0  0  0  0  0  0  0  0  0
   50.5204   19.4733   -7.6194 C   0  0  0  0  0  0  0  0  0  0  0  0
   49.7091   18.1993   -7.4701 C   0  0  0  0  0  0  0  0  0  0  0  0
   51.8425   19.3774   -6.8174 C   0  0  0  0  0  0  0  0  0  0  0  0
   52.7302   18.5656   -7.1517 O   0  0  0  0  0  0  0  0  0  0  0  0
   52.1929   20.1456   -5.8495 O   0  0  0  0  0  0  0  0  0  0  0  0
   51.5965   20.7908   -5.5240 H   0  0  0  0  0  0  0  0  0  0  0  0
   50.7581   22.2061  -11.7207 C   0  0  0  0  0  0  0  0  0  0  0  0
   51.8552   22.5933  -12.6849 C   0  0  0  0  0  0  0  0  0  0  0  0
   51.4333   22.2783  -14.1317 C   0  0  0  0  0  0  0  0  0  0  0  0
   51.9721   24.0693  -12.3698 C   0  0  0  0  0  0  0  0  0  0  0  0
   47.3647   19.2993  -11.7592 C   0  0  0  0  0  0  0  0  0  0  0  0
   47.4306   17.0254  -12.7248 C   0  0  0  0  0  0  0  0  0  0  0  0
   46.2191   17.0376  -13.1322 O   0  0  0  0  0  0  0  0  0  0  0  0
   48.0440   18.0038  -12.0415 N   0  0  0  0  0  0  0  0  0  0  0  0
   48.9635   17.8624  -11.7195 H   0  0  0  0  0  0  0  0  0  0  0  0
   48.3614   16.0338  -12.9516 O   0  0  0  0  0  0  0  0  0  0  0  0
   48.0685   14.6628  -12.6363 C   0  0  0  0  0  0  0  0  0  0  0  0
   48.4273   14.6025  -11.1941 C   0  0  0  0  0  0  0  0  0  0  0  0
   49.6248   14.9645  -10.5677 C   0  0  0  0  0  0  0  0  0  0  0  0
   49.8278   14.9075   -9.1637 C   0  0  0  0  0  0  0  0  0  0  0  0
   48.8732   14.5386   -8.3162 C   0  0  0  0  0  0  0  0  0  0  0  0
   47.7705   14.1951   -8.9897 C   0  0  0  0  0  0  0  0  0  0  0  0
   47.4515   14.2093  -10.3629 C   0  0  0  0  0  0  0  0  0  0  0  0
   47.4070   19.4177  -10.2724 C   0  0  0  0  0  0  0  0  0  0  0  0
   46.2188   18.6320   -9.7569 C   0  0  0  0  0  0  0  0  0  0  0  0
   44.9715   18.9446  -10.3125 C   0  0  0  0  0  0  0  0  0  0  0  0
   46.3713   17.6199   -8.8427 C   0  0  0  0  0  0  0  0  0  0  0  0
   43.8221   18.2527   -9.9096 C   0  0  0  0  0  0  0  0  0  0  0  0
   45.2316   16.9216   -8.4175 C   0  0  0  0  0  0  0  0  0  0  0  0
   43.9541   17.2498   -8.9569 C   0  0  0  0  0  0  0  0  0  0  0  0
 23 24  2  0  0  0
 23 27  1  0  0  0
 27 28  1  0  0  0
 28 29  1  0  0  0
 29 30  2  0  0  0
 29 34  1  0  0  0
 30 31  1  0  0  0
 31 32  2  0  0  0
 32 33  1  0  0  0
 33 34  2  0  0  0
 25 22  1  0  0  0
 22  1  1  0  0  0
 22 35  1  0  0  0
  1  2  2  0  0  0
  1  3  1  0  0  0
 35 36  1  0  0  0
 36 37  2  0  0  0
 36 38  1  0  0  0
 37 39  1  0  0  0
 38 40  2  0  0  0
 39 41  2  0  0  0
 40 41  1  0  0  0
  5  7  1  0  0  0
  7  8  1  0  0  0
  7 18  1  0  0  0
  8  9  2  0  0  0
 18 19  1  0  0  0
 19 20  1  0  0  0
 19 21  1  0  0  0
 10 12  1  0  0  0
 12 14  1  0  0  0
 12 13  1  0  0  0
 14 15  2  0  0  0
 14 16  1  0  0  0
 23 25  1  0  0  0
  8 10  1  0  0  0
  1  5  1  0  0  0
 25 26  1  0  0  0
  3  4  1  0  0  0
  5  6  1  0  0  0
 10 11  1  0  0  0
 16 17  1  0  0  0
M  END
> <minimizedAffinity>
-8.84891

$$$$
4TMN_0PK_E_317


 41 42  0  0  0  0  0  0  0  0999 V2000
   45.8689   19.7947  -12.8294 P   0  0  0  0  0  0  0  0  0  0  0  0
   44.5976   20.7265  -12.8206 O   0  0  0  0  0  0  0  0  0  0  0  0
   47.0092   20.3412  -13.7862 O   0  0  0  0  0  0  0  0  0  0  0  0
   47.2457   21.2447  -13.5243 H   0  0  0  0  0  0  0  0  0  0  0  0
   45.4830   18.0334  -13.4240 N   0  0  0  0  0  0  0  0  0  0  0  0
   44.5179   17.8195  -13.1726 H   0  0  0  0  0  0  0  0  0  0  0  0
   46.3434   16.9827  -12.8623 C   0  0  0  0  0  0  0  0  0  0  0  0
   47.7993   16.9918  -13.3556 C   0  0  0  0  0  0  0  0  0  0  0  0
   48.7175   16.5370  -12.6632 O   0  0  0  0  0  0  0  0  0  0  0  0
   47.9874   17.4411  -14.5808 N   0  0  0  0  0  0  0  0  0  0  0  0
   47.1978   17.7710  -15.0676 H   0  0  0  0  0  0  0  0  0  0  0  0
   49.2862   17.4898  -15.2824 C   0  0  0  0  0  0  0  0  0  0  0  0
   49.5448   16.1303  -15.9057 C   0  0  0  0  0  0  0  0  0  0  0  0
   49.2831   18.5971  -16.3660 C   0  0  0  0  0  0  0  0  0  0  0  0
   50.0962   18.5609  -17.3128 O   0  0  0  0  0  0  0  0  0  0  0  0
   48.4305   19.5529  -16.4628 O   0  0  0  0  0  0  0  0  0  0  0  0
   47.7766   19.6661  -15.8013 H   0  0  0  0  0  0  0  0  0  0  0  0
   45.8087   15.5718  -13.1382 C   0  0  0  0  0  0  0  0  0  0  0  0
   44.4539   15.3104  -12.5223 C   0  0  0  0  0  0  0  0  0  0  0  0
   43.3840   15.1684  -13.6204 C   0  0  0  0  0  0  0  0  0  0  0  0
   44.7524   14.0343  -11.7646 C   0  0  0  0  0  0  0  0  0  0  0  0
   46.4161   19.4901  -11.3006 C   0  0  0  0  0  0  0  0  0  0  0  0
   48.6881   20.0770  -10.5253 C   0  0  0  0  0  0  0  0  0  0  0  0
   48.9702   18.9061  -10.0971 O   0  0  0  0  0  0  0  0  0  0  0  0
   47.5190   20.4621  -11.0597 N   0  0  0  0  0  0  0  0  0  0  0  0
   47.3872   21.4082  -11.2978 H   0  0  0  0  0  0  0  0  0  0  0  0
   49.5411   21.1591  -10.5744 O   0  0  0  0  0  0  0  0  0  0  0  0
   50.9422   20.9809  -10.8391 C   0  0  0  0  0  0  0  0  0  0  0  0
   51.0592   21.5241  -12.2188 C   0  0  0  0  0  0  0  0  0  0  0  0
   50.3833   21.1341  -13.3800 C   0  0  0  0  0  0  0  0  0  0  0  0
   50.5472   21.7711  -14.6383 C   0  0  0  0  0  0  0  0  0  0  0  0
   51.3357   22.8268  -14.8095 C   0  0  0  0  0  0  0  0  0  0  0  0
   51.9549   23.1267  -13.6630 C   0  0  0  0  0  0  0  0  0  0  0  0
   51.8756   22.5773  -12.3671 C   0  0  0  0  0  0  0  0  0  0  0  0
   45.3774   19.8594  -10.2952 C   0  0  0  0  0  0  0  0  0  0  0  0
   44.8191   18.5519   -9.7719 C   0  0  0  0  0  0  0  0  0  0  0  0
   45.7121   17.7184   -9.0863 C   0  0  0  0  0  0  0  0  0  0  0  0
   43.4903   18.2359   -9.9049 C   0  0  0  0  0  0  0  0  0  0  0  0
   45.2758   16.5001   -8.5501 C   0  0  0  0  0  0  0  0  0  0  0  0
   43.0348   17.0156   -9.3848 C   0  0  0  0  0  0  0  0  0  0  0  0
   43.9411   16.1481   -8.7089 C   0  0  0  0  0  0  0  0  0  0  0  0
 23 24  2  0  0  0
 23 27  1  0  0  0
 27 28  1  0  0  0
 28 29  1  0  0  0
 29 30  2  0  0  0
 29 34  1  0  0  0
 30 31  1  0  0  0
 31 32  2  0  0  0
 32 33  1  0  0  0
 33 34  2  0  0  0
 25 22  1  0  0  0
 22  1  1  0  0  0
 22 35  1  0  0  0
  1  2  2  0  0  0
  1  3  1  0  0  0
 35 36  1  0  0  0
 36 37  2  0  0  0
 36 38  1  0  0  0
 37 39  1  0  0  0
 38 40  2  0  0  0
 39 41  2  0  0  0
 40 41  1  0  0  0
  5  7  1  0  0  0
  7  8  1  0  0  0
  7 18  1  0  0  0
  8  9  2  0  0  0
 18 19  1  0  0  0
 19 20  1  0  0  0
 19 21  1  0  0  0
 10 12  1  0  0  0
 12 14  1  0  0  0
 12 13  1  0  0  0
 14 15  2  0  0  0
 14 16  1  0  0  0
 23 25  1  0  0  0
  8 10  1  0  0  0
  1  5  1  0  0  0
 25 26  1  0  0  0
  3  4  1  0  0  0
  5  6  1  0  0  0
 10 11  1  0  0  0
 16 17  1  0  0  0
M  END
> <minimizedAffinity>
-8.79560

$$$$
4TMN_0PK_E_317


 41 42  0  0  0  0  0  0  0  0999 V2000
   45.9217   20.7235  -12.7386 P   0  0  0  0  0  0  0  0  0  0  0  0
   44.6495   21.4084  -13.3686 O   0  0  0  0  0  0  0  0  0  0  0  0
   46.7705   21.7287  -11.8535 O   0  0  0  0  0  0  0  0  0  0  0  0
   46.2051   22.1076  -11.1624 H   0  0  0  0  0  0  0  0  0  0  0  0
   47.1136   20.0431  -14.0506 N   0  0  0  0  0  0  0  0  0  0  0  0
   46.9476   19.0405  -14.1385 H   0  0  0  0  0  0  0  0  0  0  0  0
   48.5404   20.2447  -13.7619 C   0  0  0  0  0  0  0  0  0  0  0  0
   49.0826   21.6485  -14.0759 C   0  0  0  0  0  0  0  0  0  0  0  0
   48.3335   22.5619  -14.4418 O   0  0  0  0  0  0  0  0  0  0  0  0
   50.3702   21.8287  -13.8574 N   0  0  0  0  0  0  0  0  0  0  0  0
   50.8903   21.0504  -13.5522 H   0  0  0  0  0  0  0  0  0  0  0  0
   51.0960   23.1029  -14.0331 C   0  0  0  0  0  0  0  0  0  0  0  0
   51.9716   23.3271  -12.8138 C   0  0  0  0  0  0  0  0  0  0  0  0
   51.9524   23.0730  -15.3239 C   0  0  0  0  0  0  0  0  0  0  0  0
   51.9842   22.0514  -16.0409 O   0  0  0  0  0  0  0  0  0  0  0  0
   52.5966   24.0659  -15.8227 O   0  0  0  0  0  0  0  0  0  0  0  0
   52.6332   24.8803  -15.3607 H   0  0  0  0  0  0  0  0  0  0  0  0
   49.4407   19.2608  -14.5196 C   0  0  0  0  0  0  0  0  0  0  0  0
   48.7969   18.6901  -15.7618 C   0  0  0  0  0  0  0  0  0  0  0  0
   49.2356   19.4839  -17.0060 C   0  0  0  0  0  0  0  0  0  0  0  0
   49.3229   17.2719  -15.7015 C   0  0  0  0  0  0  0  0  0  0  0  0
   45.5333   19.3374  -11.9279 C   0  0  0  0  0  0  0  0  0  0  0  0
   45.0849   17.3716  -13.3568 C   0  0  0  0  0  0  0  0  0  0  0  0
   43.8231   17.3653  -13.1523 O   0  0  0  0  0  0  0  0  0  0  0  0
   45.9704   18.2148  -12.8042 N   0  0  0  0  0  0  0  0  0  0  0  0
   46.9305   18.0887  -12.9818 H   0  0  0  0  0  0  0  0  0  0  0  0
   45.7786   16.5535  -14.2232 O   0  0  0  0  0  0  0  0  0  0  0  0
   46.7567   15.6222  -13.7325 C   0  0  0  0  0  0  0  0  0  0  0  0
   45.9393   14.7820  -12.8169 C   0  0  0  0  0  0  0  0  0  0  0  0
   45.8495   14.8295  -11.4215 C   0  0  0  0  0  0  0  0  0  0  0  0
   44.9859   13.9994  -10.6592 C   0  0  0  0  0  0  0  0  0  0  0  0
   44.1540   13.1266  -11.2176 C   0  0  0  0  0  0  0  0  0  0  0  0
   44.3103   13.1299  -12.5455 C   0  0  0  0  0  0  0  0  0  0  0  0
   45.1224   13.8967  -13.4058 C   0  0  0  0  0  0  0  0  0  0  0  0
   46.3782   19.1975  -10.7061 C   0  0  0  0  0  0  0  0  0  0  0  0
   45.5989   18.3085   -9.7589 C   0  0  0  0  0  0  0  0  0  0  0  0
   44.2044   18.3222   -9.8903 C   0  0  0  0  0  0  0  0  0  0  0  0
   46.2341   17.4822   -8.8660 C   0  0  0  0  0  0  0  0  0  0  0  0
   43.4067   17.5145   -9.0696 C   0  0  0  0  0  0  0  0  0  0  0  0
   45.4537   16.6732   -8.0272 C   0  0  0  0  0  0  0  0  0  0  0  0
   44.0330   16.6995   -8.1346 C   0  0  0  0  0  0  0  0  0  0  0  0
 23 24  2  0  0  0
 23 27  1  0  0  0
 27 28  1  0  0  0
 28 29  1  0  0  0
 29 30  2  0  0  0
 29 34  1  0  0  0
 30 31  1  0  0  0
 31 32  2  0  0  0
 32 33  1  0  0  0
 33 34  2  0  0  0
 25 22  1  0  0  0
 22  1  1  0  0  0
 22 35  1  0  0  0
  1  2  2  0  0  0
  1  3  1  0  0  0
 35 36  1  0  0  0
 36 37  2  0  0  0
 36 38  1  0  0  0
 37 39  1  0  0  0
 38 40  2  0  0  0
 39 41  2  0  0  0
 40 41  1  0  0  0
  5  7  1  0  0  0
  7  8  1  0  0  0
  7 18  1  0  0  0
  8  9  2  0  0  0
 18 19  1  0  0  0
 19 20  1  0  0  0
 19 21  1  0  0  0
 10 12  1  0  0  0
 12 14  1  0  0  0
 12 13  1  0  0  0
 14 15  2  0  0  0
 14 16  1  0  0  0
 23 25  1  0  0  0
  8 10  1  0  0  0
  1  5  1  0  0  0
 25 26  1  0  0  0
  3  4  1  0  0  0
  5  6  1  0  0  0
 10 11  1  0  0  0
 16 17  1  0  0  0
M  END
> <minimizedAffinity>
-8.79230

$$$$
4TMN_0PK_E_317


 41 42  0  0  0  0  0  0  0  0999 V2000
   47.7398   15.7916  -12.1068 P   0  0  0  0  0  0  0  0  0  0  0  0
   46.9223   15.0052  -13.2011 O   0  0  0  0  0  0  0  0  0  0  0  0
   49.3038   15.7246  -12.3598 O   0  0  0  0  0  0  0  0  0  0  0  0
   49.5025   16.0618  -13.2473 H   0  0  0  0  0  0  0  0  0  0  0  0
   47.4611   15.1139  -10.3553 N   0  0  0  0  0  0  0  0  0  0  0  0
   46.4983   14.7829  -10.2942 H   0  0  0  0  0  0  0  0  0  0  0  0
   47.6797   16.0806   -9.2701 C   0  0  0  0  0  0  0  0  0  0  0  0
   49.1491   16.3111   -8.8813 C   0  0  0  0  0  0  0  0  0  0  0  0
   50.0400   15.5307   -9.2369 O   0  0  0  0  0  0  0  0  0  0  0  0
   49.3997   17.4225   -8.2178 N   0  0  0  0  0  0  0  0  0  0  0  0
   48.6322   17.9948   -7.9881 H   0  0  0  0  0  0  0  0  0  0  0  0
   50.7380   17.8789   -7.7912 C   0  0  0  0  0  0  0  0  0  0  0  0
   50.7688   19.3951   -7.8529 C   0  0  0  0  0  0  0  0  0  0  0  0
   51.0557   17.3829   -6.3582 C   0  0  0  0  0  0  0  0  0  0  0  0
   51.4987   16.2311   -6.1688 O   0  0  0  0  0  0  0  0  0  0  0  0
   51.0035   18.0911   -5.2879 O   0  0  0  0  0  0  0  0  0  0  0  0
   50.6850   18.9716   -5.3239 H   0  0  0  0  0  0  0  0  0  0  0  0
   46.9528   15.6906   -7.9770 C   0  0  0  0  0  0  0  0  0  0  0  0
   45.6044   16.3544   -7.8207 C   0  0  0  0  0  0  0  0  0  0  0  0
   45.4840   17.5552   -8.7769 C   0  0  0  0  0  0  0  0  0  0  0  0
   44.6982   15.1890   -8.1556 C   0  0  0  0  0  0  0  0  0  0  0  0
   47.1923   17.3401  -11.9279 C   0  0  0  0  0  0  0  0  0  0  0  0
   48.7082   19.1541  -11.2075 C   0  0  0  0  0  0  0  0  0  0  0  0
   48.0353   19.4597  -10.1646 O   0  0  0  0  0  0  0  0  0  0  0  0
   48.3816   18.2182  -12.1119 N   0  0  0  0  0  0  0  0  0  0  0  0
   48.9405   18.1095  -12.9151 H   0  0  0  0  0  0  0  0  0  0  0  0
   49.9252   19.6834  -11.5817 O   0  0  0  0  0  0  0  0  0  0  0  0
   50.2784   21.0330  -11.2374 C   0  0  0  0  0  0  0  0  0  0  0  0
   50.7341   21.5684  -12.5481 C   0  0  0  0  0  0  0  0  0  0  0  0
   50.1545   21.4161  -13.8123 C   0  0  0  0  0  0  0  0  0  0  0  0
   50.6623   22.0249  -14.9901 C   0  0  0  0  0  0  0  0  0  0  0  0
   51.7192   22.8302  -14.9818 C   0  0  0  0  0  0  0  0  0  0  0  0
   52.2229   22.9119  -13.7460 C   0  0  0  0  0  0  0  0  0  0  0  0
   51.8136   22.3630  -12.5137 C   0  0  0  0  0  0  0  0  0  0  0  0
   46.2903   17.7048  -13.0591 C   0  0  0  0  0  0  0  0  0  0  0  0
   45.0568   18.3179  -12.4286 C   0  0  0  0  0  0  0  0  0  0  0  0
   45.0645   19.7083  -12.2586 C   0  0  0  0  0  0  0  0  0  0  0  0
   43.9628   17.5549  -12.1056 C   0  0  0  0  0  0  0  0  0  0  0  0
   43.9566   20.3611  -11.7032 C   0  0  0  0  0  0  0  0  0  0  0  0
   42.8468   18.1872  -11.5381 C   0  0  0  0  0  0  0  0  0  0  0  0
   42.8550   19.5978  -11.3363 C   0  0  0  0  0  0  0  0  0  0  0  0
 23 24  2  0  0  0
 23 27  1  0  0  0
 27 28  1  0  0  0
 28 29  1  0  0  0
 29 30  2  0  0  0
 29 34  1  0  0  0
 30 31  1  0  0  0
 31 32  2  0  0  0
 32 33  1  0  0  0
 33 34  2  0  0  0
 25 22  1  0  0  0
 22  1  1  0  0  0
 22 35  1  0  0  0
  1  2  2  0  0  0
  1  3  1  0  0  0
 35 36  1  0  0  0
 36 37  2  0  0  0
 36 38  1  0  0  0
 37 39  1  0  0  0
 38 40  2  0  0  0
 39 41  2  0  0  0
 40 41  1  0  0  0
  5  7  1  0  0  0
  7  8  1  0  0  0
  7 18  1  0  0  0
  8  9  2  0  0  0
 18 19  1  0  0  0
 19 20  1  0  0  0
 19 21  1  0  0  0
 10 12  1  0  0  0
 12 14  1  0  0  0
 12 13  1  0  0  0
 14 15  2  0  0  0
 14 16  1  0  0  0
 23 25  1  0  0  0
  8 10  1  0  0  0
  1  5  1  0  0  0
 25 26  1  0  0  0
  3  4  1  0  0  0
  5  6  1  0  0  0
 10 11  1  0  0  0
 16 17  1  0  0  0
M  END
> <minimizedAffinity>
-8.69158

$$$$
4TMN_0PK_E_317


 41 42  0  0  0  0  0  0  0  0999 V2000
   48.4543   18.3459  -13.0894 P   0  0  0  0  0  0  0  0  0  0  0  0
   49.1500   18.0310  -14.4682 O   0  0  0  0  0  0  0  0  0  0  0  0
   49.4008   19.1561  -12.1086 O   0  0  0  0  0  0  0  0  0  0  0  0
   49.6924   19.9733  -12.5422 H   0  0  0  0  0  0  0  0  0  0  0  0
   47.9438   16.7767  -12.1504 N   0  0  0  0  0  0  0  0  0  0  0  0
   47.0552   16.4543  -12.5337 H   0  0  0  0  0  0  0  0  0  0  0  0
   47.7799   16.9434  -10.6994 C   0  0  0  0  0  0  0  0  0  0  0  0
   48.9608   16.4560   -9.8444 C   0  0  0  0  0  0  0  0  0  0  0  0
   49.8530   17.2293   -9.4767 O   0  0  0  0  0  0  0  0  0  0  0  0
   48.9165   15.1921   -9.4718 N   0  0  0  0  0  0  0  0  0  0  0  0
   48.1617   14.6506   -9.7980 H   0  0  0  0  0  0  0  0  0  0  0  0
   49.9071   14.5223   -8.6048 C   0  0  0  0  0  0  0  0  0  0  0  0
   49.1662   13.5932   -7.6607 C   0  0  0  0  0  0  0  0  0  0  0  0
   50.9350   13.7334   -9.4542 C   0  0  0  0  0  0  0  0  0  0  0  0
   51.4904   12.7145   -8.9936 O   0  0  0  0  0  0  0  0  0  0  0  0
   51.2300   13.9630  -10.6831 O   0  0  0  0  0  0  0  0  0  0  0  0
   50.8638   14.7055  -11.1219 H   0  0  0  0  0  0  0  0  0  0  0  0
   46.5372   16.2244  -10.1594 C   0  0  0  0  0  0  0  0  0  0  0  0
   45.7201   17.0670   -9.2079 C   0  0  0  0  0  0  0  0  0  0  0  0
   45.9959   16.6511   -7.7513 C   0  0  0  0  0  0  0  0  0  0  0  0
   46.2272   18.4449   -9.5766 C   0  0  0  0  0  0  0  0  0  0  0  0
   46.9848   19.0722  -13.2961 C   0  0  0  0  0  0  0  0  0  0  0  0
   46.9112   21.5424  -13.2966 C   0  0  0  0  0  0  0  0  0  0  0  0
   46.2440   21.6384  -12.2106 O   0  0  0  0  0  0  0  0  0  0  0  0
   47.2677   20.4014  -13.9062 N   0  0  0  0  0  0  0  0  0  0  0  0
   47.7266   20.4437  -14.7763 H   0  0  0  0  0  0  0  0  0  0  0  0
   47.4427   22.5844  -14.0267 O   0  0  0  0  0  0  0  0  0  0  0  0
   47.9944   23.7373  -13.3702 C   0  0  0  0  0  0  0  0  0  0  0  0
   49.3770   23.2791  -13.0688 C   0  0  0  0  0  0  0  0  0  0  0  0
   49.9488   22.9555  -11.8337 C   0  0  0  0  0  0  0  0  0  0  0  0
   51.2769   22.4770  -11.6818 C   0  0  0  0  0  0  0  0  0  0  0  0
   52.0820   22.2575  -12.7159 C   0  0  0  0  0  0  0  0  0  0  0  0
   51.4709   22.6038  -13.8536 C   0  0  0  0  0  0  0  0  0  0  0  0
   50.1741   23.0833  -14.1290 C   0  0  0  0  0  0  0  0  0  0  0  0
   46.1933   18.3534  -14.3368 C   0  0  0  0  0  0  0  0  0  0  0  0
   45.0455   17.6896  -13.6041 C   0  0  0  0  0  0  0  0  0  0  0  0
   44.4105   18.4496  -12.6135 C   0  0  0  0  0  0  0  0  0  0  0  0
   44.6093   16.4335  -13.9441 C   0  0  0  0  0  0  0  0  0  0  0  0
   43.3260   17.9220  -11.9010 C   0  0  0  0  0  0  0  0  0  0  0  0
   43.5317   15.8821  -13.2357 C   0  0  0  0  0  0  0  0  0  0  0  0
   42.8958   16.6369  -12.2077 C   0  0  0  0  0  0  0  0  0  0  0  0
 23 24  2  0  0  0
 23 27  1  0  0  0
 27 28  1  0  0  0
 28 29  1  0  0  0
 29 30  2  0  0  0
 29 34  1  0  0  0
 30 31  1  0  0  0
 31 32  2  0  0  0
 32 33  1  0  0  0
 33 34  2  0  0  0
 25 22  1  0  0  0
 22  1  1  0  0  0
 22 35  1  0  0  0
  1  2  2  0  0  0
  1  3  1  0  0  0
 35 36  1  0  0  0
 36 37  2  0  0  0
 36 38  1  0  0  0
 37 39  1  0  0  0
 38 40  2  0  0  0
 39 41  2  0  0  0
 40 41  1  0  0  0
  5  7  1  0  0  0
  7  8  1  0  0  0
  7 18  1  0  0  0
  8  9  2  0  0  0
 18 19  1  0  0  0
 19 20  1  0  0  0
 19 21  1  0  0  0
 10 12  1  0  0  0
 12 14  1  0  0  0
 12 13  1  0  0  0
 14 15  2  0  0  0
 14 16  1  0  0  0
 23 25  1  0  0  0
  8 10  1  0  0  0
  1  5  1  0  0  0
 25 26  1  0  0  0
  3  4  1  0  0  0
  5  6  1  0  0  0
 10 11  1  0  0  0
 16 17  1  0  0  0
M  END
> <minimizedAffinity>
-8.66208

$$$$
