4TMN_0PK_E_317
  RCSB PDB12061714453D
Coordinates from PDB:4TMN:E:317 Model:1 without hydrogens
 36 37  0  0  0  0            999 V2000
   50.4290   20.3870   -8.5740   C 0  0  0  0  0  0  0  0  0  0  0  0
   49.8980   21.2520   -7.7970   O 0  0  0  0  0  0  0  0  0  0  0  0
   50.7950   20.5820   -9.8890   O 0  0  0  0  0  0  0  0  0  0  0  0
   51.0060   21.9060  -10.4060   C 0  0  0  0  0  0  0  0  0  0  0  0
   50.5090   21.7670  -11.8010   C 0  0  0  0  0  0  0  0  0  0  0  0
   50.4180   20.6180  -12.5940   C 0  0  0  0  0  0  0  0  0  0  0  0
   49.8730   20.6070  -13.9050   C 0  0  0  0  0  0  0  0  0  0  0  0
   49.3630   21.6920  -14.4780   C 0  0  0  0  0  0  0  0  0  0  0  0
   49.5010   22.7460  -13.6670   C 0  0  0  0  0  0  0  0  0  0  0  0
   50.0170   22.8810  -12.3620   C 0  0  0  0  0  0  0  0  0  0  0  0
   50.7810   19.1360   -8.2400   N 0  0  0  0  0  0  0  0  0  0  0  0
   50.6650   18.6430   -6.8390   C 0  0  0  0  0  0  0  0  0  0  0  0
   52.0320   19.1530   -6.0640   P 0  0  0  0  0  0  0  0  0  0  0  0
   53.3330   18.5400   -6.7090   O 0  0  0  0  0  0  0  0  0  0  0  0
   52.1080   20.7320   -5.9400   O 0  0  0  0  0  0  0  0  0  0  0  0
   50.6690   17.1570   -6.9730   C 0  0  0  0  0  0  0  0  0  0  0  0
   49.3730   16.7970   -7.6700   C 0  0  0  0  0  0  0  0  0  0  0  0
   48.2170   16.7880   -6.8790   C 0  0  0  0  0  0  0  0  0  0  0  0
   49.3280   16.5600   -9.0210   C 0  0  0  0  0  0  0  0  0  0  0  0
   46.9720   16.4870   -7.4460   C 0  0  0  0  0  0  0  0  0  0  0  0
   48.0930   16.2460   -9.6070   C 0  0  0  0  0  0  0  0  0  0  0  0
   46.9150   16.2080   -8.8060   C 0  0  0  0  0  0  0  0  0  0  0  0
   51.7070   18.5030   -4.3100   N 0  0  0  0  0  0  0  0  0  0  0  0
   52.9050   18.3320   -3.4760   C 0  0  0  0  0  0  0  0  0  0  0  0
   53.6360   16.9900   -3.6430   C 0  0  0  0  0  0  0  0  0  0  0  0
   54.8700   16.9190   -3.6050   O 0  0  0  0  0  0  0  0  0  0  0  0
   52.6060   18.4710   -1.9780   C 0  0  0  0  0  0  0  0  0  0  0  0
   53.8370   18.3750   -1.1070   C 0  0  0  0  0  0  0  0  0  0  0  0
   54.6920   19.6480   -1.2450   C 0  0  0  0  0  0  0  0  0  0  0  0
   53.1860   18.1970    0.2480   C 0  0  0  0  0  0  0  0  0  0  0  0
   52.8650   15.9260   -3.7510   N 0  0  0  0  0  0  0  0  0  0  0  0
   53.3430   14.5330   -3.8630   C 0  0  0  0  0  0  0  0  0  0  0  0
   52.6830   13.8220   -5.0710   C 0  0  0  0  0  0  0  0  0  0  0  0
   51.6740   14.3100   -5.6210   O 0  0  0  0  0  0  0  0  0  0  0  0
   53.0150   13.8090   -2.5700   C 0  0  0  0  0  0  0  0  0  0  0  0
   53.1340   12.7780   -5.6680   O 0  0  0  0  0  0  0  0  0  0  0  0
  1  2  2  0  0  0  0
  1  3  1  0  0  0  0
  3  4  1  0  0  0  0
  4  5  1  0  0  0  0
  5  6  2  0  0  0  0
  5 10  1  0  0  0  0
  6  7  1  0  0  0  0
  7  8  2  0  0  0  0
  8  9  1  0  0  0  0
  9 10  2  0  0  0  0
 11 12  1  0  0  0  0
 12 13  1  0  0  0  0
 12 16  1  0  0  0  0
 13 14  2  0  0  0  0
 13 15  1  0  0  0  0
 16 17  1  0  0  0  0
 17 18  2  0  0  0  0
 17 19  1  0  0  0  0
 18 20  1  0  0  0  0
 19 21  2  0  0  0  0
 20 22  2  0  0  0  0
 21 22  1  0  0  0  0
 23 24  1  0  0  0  0
 24 25  1  0  0  0  0
 24 27  1  0  0  0  0
 25 26  2  0  0  0  0
 27 28  1  0  0  0  0
 28 29  1  0  0  0  0
 28 30  1  0  0  0  0
 31 32  1  0  0  0  0
 32 33  1  0  0  0  0
 32 35  1  0  0  0  0
 33 34  2  0  0  0  0
 33 36  1  0  0  0  0
  1 11  1  0  0  0  0
 25 31  1  0  0  0  0
 13 23  1  0  0  0  0
A    1
C1
A    2
O1
A    3
O2
A    4
C2
A    5
C3
A    6
C4
A    7
C5
A    8
C6
A    9
C7
A   10
C8
A   11
N
A   12
CA
A   13
P
A   14
O1P
A   15
O2P
A   16
CB
A   17
CG
A   18
CD1
A   19
CD2
A   20
CE1
A   21
CE2
A   22
CZ
A   23
N1
A   24
CA1
A   25
C
A   26
O
A   27
CB1
A   28
CG1
A   29
CD11
A   30
CD21
A   31
N2
A   32
CA2
A   33
C9
A   34
O3
A   35
CB2
A   36
OXT
M  END
>  <InstanceId>
4TMN_0PK_E_317

>  <ChemCompId>
0PK

>  <PdbId>
4TMN

>  <ChainId>
E

>  <ResidueNumber>
317

>  <InsertionCode>


>  <Model>
1

>  <AltIds>


>  <MissingHeavyAtoms>
0

>  <ObservedFormula>
C25 N3 O7 P

>  <Name>
N-[(S)-[(1R)-1-{[(benzyloxy)carbonyl]amino}-2-phenylethyl](hydroxy)phosphoryl]-L-leucyl-L-alanine

>  <SystematicName>
(2S)-2-[[(2S)-2-[[hydroxy-[(1R)-2-phenyl-1-phenylmethoxycarbonylamino-ethyl]phosphoryl]amino]-4-methyl-pentanoyl]amino]propanoic acid

>  <Synonyms>
ZFPLA

>  <Type>
peptide-like

>  <Formula>
C25 H34 N3 O7 P

>  <MolecularWeight>
519.527

>  <ModifiedDate>
2011-07-13

>  <Parent>


>  <OneLetterCode>


>  <SubcomponentList>
PHQ PPH LEU ALA

>  <AmbiguousFlag>
N

>  <InChI>
InChI=1S/C25H34N3O7P/c1-17(2)14-21(23(29)26-18(3)24(30)31)28-36(33,34)22(15-19-10-6-4-7-11-19)27-25(32)35-16-20-12-8-5-9-13-20/h4-13,17-18,21-22H,14-16H2,1-3H3,(H,26,29)(H,27,32)(H,30,31)(H2,28,33,34)/t18-,21-,22+/m0/s1

>  <InChIKey>
PREBTZMCCRSQJI-YUXAGFNASA-N

>  <SMILES>


$$$$
