3FJG_3PG_A_301


 15 14  0  0  0  0  0  0  0  0999 V2000
   -5.6873    8.9065   14.4952 C   0  0  0  0  0  0  0  0  0  0  0  0
   -6.6674    9.9527   15.0068 C   0  0  0  0  0  0  0  0  0  0  0  0
   -8.0015    9.5000   14.7516 O   0  0  0  0  0  0  0  0  0  0  0  0
   -8.1495    8.6567   15.2075 H   0  0  0  0  0  0  0  0  0  0  0  0
   -6.4744   10.1509   16.4828 C   0  0  0  0  0  0  0  0  0  0  0  0
   -7.1495   11.0322   17.0578 O   0  0  0  0  0  0  0  0  0  0  0  0
   -5.6473    9.4284   17.0828 O   0  0  0  0  0  0  0  0  0  0  0  0
   -5.1629    8.7798   16.6111 H   0  0  0  0  0  0  0  0  0  0  0  0
   -6.3466    7.6416   14.4756 O   0  0  0  0  0  0  0  0  0  0  0  0
   -5.5676    6.2814   14.8494 P   0  0  0  0  0  0  0  0  0  0  0  0
   -4.9363    6.6085   16.1792 O   0  0  0  0  0  0  0  0  0  0  0  0
   -6.6530    5.2365   14.9181 O   0  0  0  0  0  0  0  0  0  0  0  0
   -4.5904    6.0841   13.7161 O   0  0  0  0  0  0  0  0  0  0  0  0
   -7.2393    5.4280   15.6668 H   0  0  0  0  0  0  0  0  0  0  0  0
   -3.9254    6.7900   13.7360 H   0  0  0  0  0  0  0  0  0  0  0  0
  5  6  2  0  0  0
  5  7  1  0  0  0
  5  2  1  0  0  0
  2  3  1  0  0  0
  2  1  1  0  0  0
  1  9  1  0  0  0
  9 10  1  0  0  0
 10 11  2  0  0  0
 10 12  1  0  0  0
 10 13  1  0  0  0
  7  8  1  0  0  0
  3  4  1  0  0  0
 12 14  1  0  0  0
 13 15  1  0  0  0
M  END
> <minimizedAffinity>
-5.98759

$$$$
3FJG_3PG_A_301


 15 14  0  0  0  0  0  0  0  0999 V2000
   -5.6812    8.9211   14.4907 C   0  0  0  0  0  0  0  0  0  0  0  0
   -6.6752    9.9498   15.0107 C   0  0  0  0  0  0  0  0  0  0  0  0
   -8.0029    9.4878   14.7394 O   0  0  0  0  0  0  0  0  0  0  0  0
   -8.1456    8.6364   15.1817 H   0  0  0  0  0  0  0  0  0  0  0  0
   -6.4945   10.1281   16.4907 C   0  0  0  0  0  0  0  0  0  0  0  0
   -7.1776   10.9985   17.0727 O   0  0  0  0  0  0  0  0  0  0  0  0
   -5.6691    9.4006   17.0871 O   0  0  0  0  0  0  0  0  0  0  0  0
   -5.1783    8.7606   16.6101 H   0  0  0  0  0  0  0  0  0  0  0  0
   -6.3352    7.6550   14.4237 O   0  0  0  0  0  0  0  0  0  0  0  0
   -5.5788    6.2947   14.8407 P   0  0  0  0  0  0  0  0  0  0  0  0
   -4.5951    6.0967   13.7151 O   0  0  0  0  0  0  0  0  0  0  0  0
   -4.9435    6.6137   16.1710 O   0  0  0  0  0  0  0  0  0  0  0  0
   -6.6761    5.2607   14.9117 O   0  0  0  0  0  0  0  0  0  0  0  0
   -4.2515    7.2819   16.0469 H   0  0  0  0  0  0  0  0  0  0  0  0
   -7.0349    5.1085   14.0235 H   0  0  0  0  0  0  0  0  0  0  0  0
  5  6  2  0  0  0
  5  7  1  0  0  0
  5  2  1  0  0  0
  2  3  1  0  0  0
  2  1  1  0  0  0
  1  9  1  0  0  0
  9 10  1  0  0  0
 10 11  2  0  0  0
 10 12  1  0  0  0
 10 13  1  0  0  0
  7  8  1  0  0  0
  3  4  1  0  0  0
 12 14  1  0  0  0
 13 15  1  0  0  0
M  END
> <minimizedAffinity>
-5.97940

$$$$
3FJG_3PG_A_301


 15 14  0  0  0  0  0  0  0  0999 V2000
   -6.9279    6.4310   14.3507 C   0  0  0  0  0  0  0  0  0  0  0  0
   -5.4952    6.2142   14.8167 C   0  0  0  0  0  0  0  0  0  0  0  0
   -4.6374    6.1758   13.6711 O   0  0  0  0  0  0  0  0  0  0  0  0
   -4.7053    7.0143   13.1881 H   0  0  0  0  0  0  0  0  0  0  0  0
   -5.0798    7.3381   15.7219 C   0  0  0  0  0  0  0  0  0  0  0  0
   -4.6632    7.0568   16.8666 O   0  0  0  0  0  0  0  0  0  0  0  0
   -5.1648    8.5128   15.2989 O   0  0  0  0  0  0  0  0  0  0  0  0
   -5.4830    8.6771   14.4331 H   0  0  0  0  0  0  0  0  0  0  0  0
   -6.9296    7.4552   13.3577 O   0  0  0  0  0  0  0  0  0  0  0  0
   -8.0885    8.5736   13.3053 P   0  0  0  0  0  0  0  0  0  0  0  0
   -7.4091    9.7910   13.8799 O   0  0  0  0  0  0  0  0  0  0  0  0
   -8.4313    8.6875   11.8409 O   0  0  0  0  0  0  0  0  0  0  0  0
   -9.1976    8.0062   14.1575 O   0  0  0  0  0  0  0  0  0  0  0  0
   -7.6748    9.0577   11.3597 H   0  0  0  0  0  0  0  0  0  0  0  0
   -8.9057    7.9632   15.0815 H   0  0  0  0  0  0  0  0  0  0  0  0
  5  6  2  0  0  0
  5  7  1  0  0  0
  5  2  1  0  0  0
  2  3  1  0  0  0
  2  1  1  0  0  0
  1  9  1  0  0  0
  9 10  1  0  0  0
 10 11  2  0  0  0
 10 12  1  0  0  0
 10 13  1  0  0  0
  7  8  1  0  0  0
  3  4  1  0  0  0
 12 14  1  0  0  0
 13 15  1  0  0  0
M  END
> <minimizedAffinity>
-5.93130

$$$$
3FJG_3PG_A_301


 15 14  0  0  0  0  0  0  0  0999 V2000
   -6.6465    8.7012   14.4294 C   0  0  0  0  0  0  0  0  0  0  0  0
   -5.3314    7.9797   14.6880 C   0  0  0  0  0  0  0  0  0  0  0  0
   -4.9938    8.1164   16.0726 O   0  0  0  0  0  0  0  0  0  0  0  0
   -5.6969    7.7284   16.6167 H   0  0  0  0  0  0  0  0  0  0  0  0
   -5.4737    6.5250   14.3435 C   0  0  0  0  0  0  0  0  0  0  0  0
   -4.4759    5.9195   13.8956 O   0  0  0  0  0  0  0  0  0  0  0  0
   -6.5830    5.9724   14.5172 O   0  0  0  0  0  0  0  0  0  0  0  0
   -7.3043    6.4655   14.8556 H   0  0  0  0  0  0  0  0  0  0  0  0
   -7.1658    8.2581   13.1768 O   0  0  0  0  0  0  0  0  0  0  0  0
   -8.7514    8.2090   12.8940 P   0  0  0  0  0  0  0  0  0  0  0  0
   -8.9725    6.7825   12.4578 O   0  0  0  0  0  0  0  0  0  0  0  0
   -9.3782    8.5562   14.2211 O   0  0  0  0  0  0  0  0  0  0  0  0
   -8.9735    9.2421   11.8162 O   0  0  0  0  0  0  0  0  0  0  0  0
   -9.1945    7.8500   14.8602 H   0  0  0  0  0  0  0  0  0  0  0  0
   -8.5440    8.9516   10.9964 H   0  0  0  0  0  0  0  0  0  0  0  0
  5  6  2  0  0  0
  5  7  1  0  0  0
  5  2  1  0  0  0
  2  3  1  0  0  0
  2  1  1  0  0  0
  1  9  1  0  0  0
  9 10  1  0  0  0
 10 11  2  0  0  0
 10 12  1  0  0  0
 10 13  1  0  0  0
  7  8  1  0  0  0
  3  4  1  0  0  0
 12 14  1  0  0  0
 13 15  1  0  0  0
M  END
> <minimizedAffinity>
-5.92869

$$$$
3FJG_3PG_A_301


 15 14  0  0  0  0  0  0  0  0999 V2000
   -7.5933    5.9036   13.7092 C   0  0  0  0  0  0  0  0  0  0  0  0
   -6.5163    5.5717   14.7324 C   0  0  0  0  0  0  0  0  0  0  0  0
   -6.0689    4.2295   14.5135 O   0  0  0  0  0  0  0  0  0  0  0  0
   -5.7086    4.1510   13.6163 H   0  0  0  0  0  0  0  0  0  0  0  0
   -5.3622    6.5205   14.5811 C   0  0  0  0  0  0  0  0  0  0  0  0
   -5.0728    6.9269   13.4348 O   0  0  0  0  0  0  0  0  0  0  0  0
   -4.7335    6.8698   15.6052 O   0  0  0  0  0  0  0  0  0  0  0  0
   -4.9858    6.5398   16.4451 H   0  0  0  0  0  0  0  0  0  0  0  0
   -8.4176    6.9393   14.2411 O   0  0  0  0  0  0  0  0  0  0  0  0
   -8.6378    8.3271   13.4525 P   0  0  0  0  0  0  0  0  0  0  0  0
  -10.1273    8.3496   13.2183 O   0  0  0  0  0  0  0  0  0  0  0  0
   -8.1442    9.3828   14.4099 O   0  0  0  0  0  0  0  0  0  0  0  0
   -7.8026    8.1865   12.2031 O   0  0  0  0  0  0  0  0  0  0  0  0
   -8.7275    9.4152   15.1843 H   0  0  0  0  0  0  0  0  0  0  0  0
   -8.1790    7.4929   11.6390 H   0  0  0  0  0  0  0  0  0  0  0  0
  5  6  2  0  0  0
  5  7  1  0  0  0
  5  2  1  0  0  0
  2  3  1  0  0  0
  2  1  1  0  0  0
  1  9  1  0  0  0
  9 10  1  0  0  0
 10 11  2  0  0  0
 10 12  1  0  0  0
 10 13  1  0  0  0
  7  8  1  0  0  0
  3  4  1  0  0  0
 12 14  1  0  0  0
 13 15  1  0  0  0
M  END
> <minimizedAffinity>
-5.80327

$$$$
3FJG_3PG_A_301


 15 14  0  0  0  0  0  0  0  0999 V2000
   -6.8338    8.8388   14.6039 C   0  0  0  0  0  0  0  0  0  0  0  0
   -5.3956    8.4487   14.9140 C   0  0  0  0  0  0  0  0  0  0  0  0
   -5.1419    8.6851   16.3030 O   0  0  0  0  0  0  0  0  0  0  0  0
   -5.7519    8.1535   16.8381 H   0  0  0  0  0  0  0  0  0  0  0  0
   -5.1849    6.9951   14.6017 C   0  0  0  0  0  0  0  0  0  0  0  0
   -5.1953    6.1763   15.5464 O   0  0  0  0  0  0  0  0  0  0  0  0
   -5.0074    6.6562   13.4102 O   0  0  0  0  0  0  0  0  0  0  0  0
   -5.0074    7.3046   12.7338 H   0  0  0  0  0  0  0  0  0  0  0  0
   -7.2012    8.2536   13.3559 O   0  0  0  0  0  0  0  0  0  0  0  0
   -8.7421    8.1552   12.8946 P   0  0  0  0  0  0  0  0  0  0  0  0
   -9.4950    8.4052   14.1770 O   0  0  0  0  0  0  0  0  0  0  0  0
   -8.8934    9.2455   11.8635 O   0  0  0  0  0  0  0  0  0  0  0  0
   -8.8805    6.7577   12.3414 O   0  0  0  0  0  0  0  0  0  0  0  0
   -8.7927   10.1106   12.2906 H   0  0  0  0  0  0  0  0  0  0  0  0
   -8.7720    6.1137   13.0586 H   0  0  0  0  0  0  0  0  0  0  0  0
  5  6  2  0  0  0
  5  7  1  0  0  0
  5  2  1  0  0  0
  2  3  1  0  0  0
  2  1  1  0  0  0
  1  9  1  0  0  0
  9 10  1  0  0  0
 10 11  2  0  0  0
 10 12  1  0  0  0
 10 13  1  0  0  0
  7  8  1  0  0  0
  3  4  1  0  0  0
 12 14  1  0  0  0
 13 15  1  0  0  0
M  END
> <minimizedAffinity>
-5.77161

$$$$
3FJG_3PG_A_301


 15 14  0  0  0  0  0  0  0  0999 V2000
   -5.2678    7.8999   15.1958 C   0  0  0  0  0  0  0  0  0  0  0  0
   -5.5384    6.9488   14.0386 C   0  0  0  0  0  0  0  0  0  0  0  0
   -4.5425    5.9204   14.0431 O   0  0  0  0  0  0  0  0  0  0  0  0
   -4.5797    5.4379   14.8838 H   0  0  0  0  0  0  0  0  0  0  0  0
   -6.9000    6.3348   14.1935 C   0  0  0  0  0  0  0  0  0  0  0  0
   -7.8981    7.0091   13.8587 O   0  0  0  0  0  0  0  0  0  0  0  0
   -6.9866    5.1730   14.6505 O   0  0  0  0  0  0  0  0  0  0  0  0
   -6.2111    4.7042   14.8886 H   0  0  0  0  0  0  0  0  0  0  0  0
   -5.4638    9.2363   14.7371 O   0  0  0  0  0  0  0  0  0  0  0  0
   -6.4886   10.2370   15.4755 P   0  0  0  0  0  0  0  0  0  0  0  0
   -6.1659   11.5714   14.8516 O   0  0  0  0  0  0  0  0  0  0  0  0
   -7.8534    9.7008   15.1225 O   0  0  0  0  0  0  0  0  0  0  0  0
   -6.1385   10.1212   16.9391 O   0  0  0  0  0  0  0  0  0  0  0  0
   -8.0069    9.8087   14.1708 H   0  0  0  0  0  0  0  0  0  0  0  0
   -5.2516   10.4843   17.0892 H   0  0  0  0  0  0  0  0  0  0  0  0
  5  6  2  0  0  0
  5  7  1  0  0  0
  5  2  1  0  0  0
  2  3  1  0  0  0
  2  1  1  0  0  0
  1  9  1  0  0  0
  9 10  1  0  0  0
 10 11  2  0  0  0
 10 12  1  0  0  0
 10 13  1  0  0  0
  7  8  1  0  0  0
  3  4  1  0  0  0
 12 14  1  0  0  0
 13 15  1  0  0  0
M  END
> <minimizedAffinity>
-5.73689

$$$$
3FJG_3PG_A_301


 15 14  0  0  0  0  0  0  0  0999 V2000
   -5.9839    8.9538   14.4808 C   0  0  0  0  0  0  0  0  0  0  0  0
   -6.4304    7.5045   14.3495 C   0  0  0  0  0  0  0  0  0  0  0  0
   -6.9001    7.2848   13.0151 O   0  0  0  0  0  0  0  0  0  0  0  0
   -6.1850    7.4692   12.3861 H   0  0  0  0  0  0  0  0  0  0  0  0
   -5.2751    6.5890   14.6361 C   0  0  0  0  0  0  0  0  0  0  0  0
   -4.6279    6.1281   13.6709 O   0  0  0  0  0  0  0  0  0  0  0  0
   -5.0020    6.3214   15.8277 O   0  0  0  0  0  0  0  0  0  0  0  0
   -5.5147    6.6899   16.5200 H   0  0  0  0  0  0  0  0  0  0  0  0
   -6.9849    9.6711   15.2008 O   0  0  0  0  0  0  0  0  0  0  0  0
   -6.6235   10.5241   16.5193 P   0  0  0  0  0  0  0  0  0  0  0  0
   -5.9724   11.7609   15.9533 O   0  0  0  0  0  0  0  0  0  0  0  0
   -7.9562   10.7718   17.1805 O   0  0  0  0  0  0  0  0  0  0  0  0
   -5.7001    9.6265   17.3066 O   0  0  0  0  0  0  0  0  0  0  0  0
   -8.4924   11.3536   16.6193 H   0  0  0  0  0  0  0  0  0  0  0  0
   -4.8677    9.5137   16.8216 H   0  0  0  0  0  0  0  0  0  0  0  0
  5  6  2  0  0  0
  5  7  1  0  0  0
  5  2  1  0  0  0
  2  3  1  0  0  0
  2  1  1  0  0  0
  1  9  1  0  0  0
  9 10  1  0  0  0
 10 11  2  0  0  0
 10 12  1  0  0  0
 10 13  1  0  0  0
  7  8  1  0  0  0
  3  4  1  0  0  0
 12 14  1  0  0  0
 13 15  1  0  0  0
M  END
> <minimizedAffinity>
-5.69442

$$$$
3FJG_3PG_A_301


 15 14  0  0  0  0  0  0  0  0999 V2000
   -7.7832    7.0713   13.5564 C   0  0  0  0  0  0  0  0  0  0  0  0
   -8.4946    8.3908   13.8202 C   0  0  0  0  0  0  0  0  0  0  0  0
   -7.5318    9.4499   13.7860 O   0  0  0  0  0  0  0  0  0  0  0  0
   -7.1061    9.4717   12.9147 H   0  0  0  0  0  0  0  0  0  0  0  0
   -9.5401    8.6237   12.7677 C   0  0  0  0  0  0  0  0  0  0  0  0
  -10.7066    8.2337   12.9917 O   0  0  0  0  0  0  0  0  0  0  0  0
   -9.2072    9.1985   11.7072 O   0  0  0  0  0  0  0  0  0  0  0  0
   -8.3204    9.4740   11.5820 H   0  0  0  0  0  0  0  0  0  0  0  0
   -6.3820    7.2702   13.7357 O   0  0  0  0  0  0  0  0  0  0  0  0
   -5.5109    6.3057   14.6884 P   0  0  0  0  0  0  0  0  0  0  0  0
   -4.4228    5.8145   13.7672 O   0  0  0  0  0  0  0  0  0  0  0  0
   -5.0267    7.2108   15.7934 O   0  0  0  0  0  0  0  0  0  0  0  0
   -6.4845    5.2445   15.1404 O   0  0  0  0  0  0  0  0  0  0  0  0
   -4.4081    7.8632   15.4293 H   0  0  0  0  0  0  0  0  0  0  0  0
   -6.7501    4.7042   14.3798 H   0  0  0  0  0  0  0  0  0  0  0  0
  5  6  2  0  0  0
  5  7  1  0  0  0
  5  2  1  0  0  0
  2  3  1  0  0  0
  2  1  1  0  0  0
  1  9  1  0  0  0
  9 10  1  0  0  0
 10 11  2  0  0  0
 10 12  1  0  0  0
 10 13  1  0  0  0
  7  8  1  0  0  0
  3  4  1  0  0  0
 12 14  1  0  0  0
 13 15  1  0  0  0
M  END
> <minimizedAffinity>
-5.63481

$$$$
3FJG_3PG_A_301


 15 14  0  0  0  0  0  0  0  0999 V2000
   -5.9460    8.8683   15.0341 C   0  0  0  0  0  0  0  0  0  0  0  0
   -7.1970    9.7282   14.9223 C   0  0  0  0  0  0  0  0  0  0  0  0
   -6.8214   11.0341   14.4714 O   0  0  0  0  0  0  0  0  0  0  0  0
   -6.3885   10.9652   13.6060 H   0  0  0  0  0  0  0  0  0  0  0  0
   -8.1524    9.1103   13.9424 C   0  0  0  0  0  0  0  0  0  0  0  0
   -8.2645    9.6317   12.8116 O   0  0  0  0  0  0  0  0  0  0  0  0
   -8.8000    8.0980   14.2915 O   0  0  0  0  0  0  0  0  0  0  0  0
   -8.6840    7.7407   15.1499 H   0  0  0  0  0  0  0  0  0  0  0  0
   -6.1297    7.6986   14.2385 O   0  0  0  0  0  0  0  0  0  0  0  0
   -5.5605    6.2655   14.7065 P   0  0  0  0  0  0  0  0  0  0  0  0
   -4.5309    5.9502   13.6508 O   0  0  0  0  0  0  0  0  0  0  0  0
   -4.9855    6.5217   16.0770 O   0  0  0  0  0  0  0  0  0  0  0  0
   -6.7689    5.3611   14.7022 O   0  0  0  0  0  0  0  0  0  0  0  0
   -4.2161    7.1076   16.0006 H   0  0  0  0  0  0  0  0  0  0  0  0
   -7.0813    5.2431   13.7915 H   0  0  0  0  0  0  0  0  0  0  0  0
  5  6  2  0  0  0
  5  7  1  0  0  0
  5  2  1  0  0  0
  2  3  1  0  0  0
  2  1  1  0  0  0
  1  9  1  0  0  0
  9 10  1  0  0  0
 10 11  2  0  0  0
 10 12  1  0  0  0
 10 13  1  0  0  0
  7  8  1  0  0  0
  3  4  1  0  0  0
 12 14  1  0  0  0
 13 15  1  0  0  0
M  END
> <minimizedAffinity>
-5.33998

$$$$
