3FJG_3PG_A_301
  RCSB PDB12061708363D
Coordinates from PDB:3FJG:A:301 Model:1 without hydrogens
 11 10  0  0  0  0            999 V2000
   -9.6890    8.6110   12.9780   C 0  0  0  0  0  0  0  0  0  0  0  0
  -10.7370    8.0590   13.3780   O 0  0  0  0  0  0  0  0  0  0  0  0
   -9.5990    9.1720   11.8630   O 0  0  0  0  0  0  0  0  0  0  0  0
   -8.4870    8.5990   13.8780   C 0  0  0  0  0  0  0  0  0  0  0  0
   -7.6090    9.6730   13.5240   O 0  0  0  0  0  0  0  0  0  0  0  0
   -7.7400    7.2820   13.7220   C 0  0  0  0  0  0  0  0  0  0  0  0
   -6.7330    7.2120   14.7300   O 0  0  0  0  0  0  0  0  0  0  0  0
   -5.3330    6.4580   14.4690   P 0  0  0  0  0  0  0  0  0  0  0  0
   -4.5940    6.6590   15.7680   O 0  0  0  0  0  0  0  0  0  0  0  0
   -5.7250    5.0280   14.1930   O 0  0  0  0  0  0  0  0  0  0  0  0
   -4.7350    7.1750   13.2830   O 0  0  0  0  0  0  0  0  0  0  0  0
  1  2  2  0  0  0  0
  1  3  1  0  0  0  0
  1  4  1  0  0  0  0
  4  5  1  0  0  0  0
  4  6  1  0  0  0  0
  6  7  1  0  0  0  0
  7  8  1  0  0  0  0
  8  9  2  0  0  0  0
  8 10  1  0  0  0  0
  8 11  1  0  0  0  0
A    1
C1
A    2
O1
A    3
O2
A    4
C2
A    5
O3
A    6
C3
A    7
O1P
A    8
P
A    9
O2P
A   10
O3P
A   11
O4P
M  END
>  <InstanceId>
3FJG_3PG_A_301

>  <ChemCompId>
3PG

>  <PdbId>
3FJG

>  <ChainId>
A

>  <ResidueNumber>
301

>  <InsertionCode>


>  <Model>
1

>  <AltIds>


>  <MissingHeavyAtoms>
0

>  <ObservedFormula>
C3 O7 P

>  <Name>
3-PHOSPHOGLYCERIC ACID

>  <SystematicName>
(2R)-2-hydroxy-3-phosphonooxy-propanoic acid

>  <Synonyms>


>  <Type>
NON-POLYMER

>  <Formula>
C3 H7 O7 P

>  <MolecularWeight>
186.057

>  <ModifiedDate>
2011-06-04

>  <Parent>


>  <OneLetterCode>


>  <SubcomponentList>


>  <AmbiguousFlag>
N

>  <InChI>
InChI=1S/C3H7O7P/c4-2(3(5)6)1-10-11(7,8)9/h2,4H,1H2,(H,5,6)(H2,7,8,9)/t2-/m1/s1

>  <InChIKey>
OSJPPGNTCRNQQC-UWTATZPHSA-N

>  <SMILES>
C([C@H](C(=O)O)O)OP(=O)(O)O

$$$$
