2XEF_AR8_A_1770


 72 73  0  0  0  0  0  0  0  0999 V2000
   26.7743   49.9216   39.5933 O   0  0  0  0  0  0  0  0  0  0  0  0
   25.7053   48.9971   39.2696 C   0  0  0  0  0  0  0  0  0  0  0  0
   26.1363   47.9345   38.2388 C   0  0  0  0  0  0  0  0  0  0  0  0
   25.0872   47.5937   37.3100 O   0  0  0  0  0  0  0  0  0  0  0  0
   24.7723   46.1704   37.3080 C   0  0  0  0  0  0  0  0  0  0  0  0
   24.6624   44.5399   40.3606 N   0  0  0  0  0  0  0  0  0  0  0  0
   24.1838   45.5155   39.5840 C   0  0  0  0  0  0  0  0  0  0  0  0
   25.5461   43.8937   39.7716 N   0  0  0  0  0  0  0  0  0  0  0  0
   25.7264   44.3473   38.6269 N   0  0  0  0  0  0  0  0  0  0  0  0
   24.8844   45.3733   38.4624 C   0  0  0  0  0  0  0  0  0  0  0  0
   24.2121   44.2536   41.7412 C   0  0  0  0  0  0  0  0  0  0  0  0
   23.0865   45.2153   42.1004 C   0  0  0  0  0  0  0  0  0  0  0  0
   22.4208   44.9001   43.4491 C   0  0  0  0  0  0  0  0  0  0  0  0
   21.0581   45.5787   43.3414 C   0  0  0  0  0  0  0  0  0  0  0  0
   19.8775   44.8948   44.0419 C   0  0  0  0  0  0  0  0  0  0  0  0
   16.7809   45.1246   42.1321 N   0  0  0  0  0  0  0  0  0  0  0  0
   17.8159   44.5577   42.7961 C   0  0  0  0  0  0  0  0  0  0  0  0
   17.7817   43.3383   43.0414 O   0  0  0  0  0  0  0  0  0  0  0  0
   18.7534   45.3859   43.2585 N   0  0  0  0  0  0  0  0  0  0  0  0
   16.6336   46.0976   42.1612 H   0  0  0  0  0  0  0  0  0  0  0  0
   18.6837   46.3489   43.0661 H   0  0  0  0  0  0  0  0  0  0  0  0
   15.8747   44.2396   41.3594 C   0  0  0  0  0  0  0  0  0  0  0  0
   16.4956   44.0927   39.9364 C   0  0  0  0  0  0  0  0  0  0  0  0
   17.3445   44.9406   39.5730 O   0  0  0  0  0  0  0  0  0  0  0  0
   16.0923   43.1881   39.1529 O   0  0  0  0  0  0  0  0  0  0  0  0
   15.4570   42.5643   39.4450 H   0  0  0  0  0  0  0  0  0  0  0  0
   14.4592   44.8669   41.1990 C   0  0  0  0  0  0  0  0  0  0  0  0
   14.5602   46.4064   41.3069 C   0  0  0  0  0  0  0  0  0  0  0  0
   13.3194   46.9651   39.3413 O   0  0  0  0  0  0  0  0  0  0  0  0
   14.3754   47.1961   39.9933 C   0  0  0  0  0  0  0  0  0  0  0  0
   15.2479   48.0361   39.6833 O   0  0  0  0  0  0  0  0  0  0  0  0
   12.7147   46.3162   39.6434 H   0  0  0  0  0  0  0  0  0  0  0  0
   19.7333   45.4747   45.4517 C   0  0  0  0  0  0  0  0  0  0  0  0
   19.5883   44.6374   46.3752 O   0  0  0  0  0  0  0  0  0  0  0  0
   19.6595   46.7211   45.5679 O   0  0  0  0  0  0  0  0  0  0  0  0
   19.6614   43.7213   46.1927 H   0  0  0  0  0  0  0  0  0  0  0  0
   27.2623   49.7061   40.9326 C   0  0  0  0  0  0  0  0  0  0  0  0
   28.4444   48.7373   40.9378 C   0  0  0  0  0  0  0  0  0  0  0  0
   28.4193   48.0082   42.1858 O   0  0  0  0  0  0  0  0  0  0  0  0
   27.6212   48.7309   43.1744 C   0  0  0  0  0  0  0  0  0  0  0  0
   27.0009   47.7330   44.1895 C   0  0  0  0  0  0  0  0  0  0  0  0
   25.9102   48.4175   44.8976 O   0  0  0  0  0  0  0  0  0  0  0  0
   24.6779   48.3111   44.0973 C   0  0  0  0  0  0  0  0  0  0  0  0
   24.0132   49.7045   43.8211 C   0  0  0  0  0  0  0  0  0  0  0  0
   22.6736   49.7504   44.3643 O   0  0  0  0  0  0  0  0  0  0  0  0
   22.2986   51.1083   44.8191 C   0  0  0  0  0  0  0  0  0  0  0  0
   23.4711   52.0906   44.6454 C   0  0  0  0  0  0  0  0  0  0  0  0
   23.7310   53.0199   45.8024 O   0  0  0  0  0  0  0  0  0  0  0  0
   23.0210   54.2564   45.6662 C   0  0  0  0  0  0  0  0  0  0  0  0
   23.7689   55.1806   44.7217 C   0  0  0  0  0  0  0  0  0  0  0  0
   23.4295   56.5997   44.7377 O   0  0  0  0  0  0  0  0  0  0  0  0
   24.5471   57.4925   44.6125 C   0  0  0  0  0  0  0  0  0  0  0  0
   24.9778   58.0752   45.9390 C   0  0  0  0  0  0  0  0  0  0  0  0
   26.4023   57.9239   46.0499 O   0  0  0  0  0  0  0  0  0  0  0  0
   26.7464   56.5706   45.7133 C   0  0  0  0  0  0  0  0  0  0  0  0
   28.2407   56.2685   45.8829 C   0  0  0  0  0  0  0  0  0  0  0  0
   28.3961   54.8048   45.9715 N   0  0  0  0  0  0  0  0  0  0  0  0
   28.0864   54.2717   45.2039 H   0  0  0  0  0  0  0  0  0  0  0  0
   28.9234   54.1380   47.0088 C   0  0  0  0  0  0  0  0  0  0  0  0
   30.2596   54.3274   47.3787 C   0  0  0  0  0  0  0  0  0  0  0  0
   30.7859   53.6372   48.4704 C   0  0  0  0  0  0  0  0  0  0  0  0
   29.9874   52.7578   49.2073 C   0  0  0  0  0  0  0  0  0  0  0  0
   28.6509   52.5777   48.8363 C   0  0  0  0  0  0  0  0  0  0  0  0
   28.1082   53.2576   47.7431 C   0  0  0  0  0  0  0  0  0  0  0  0
   26.8184   53.0524   47.4186 N   0  0  0  0  0  0  0  0  0  0  0  0
   25.8135   53.9909   47.7553 O   0  0  0  0  0  0  0  0  0  0  0  0
   26.4255   51.8889   46.7221 O   0  0  0  0  0  0  0  0  0  0  0  0
   26.0397   54.7740   48.2175 H   0  0  0  0  0  0  0  0  0  0  0  0
   30.4987   52.0863   50.2567 N   0  0  0  0  0  0  0  0  0  0  0  0
   30.0420   52.3498   51.5907 O   0  0  0  0  0  0  0  0  0  0  0  0
   31.5309   51.1012   50.0819 O   0  0  0  0  0  0  0  0  0  0  0  0
   29.3703   52.9861   51.7389 H   0  0  0  0  0  0  0  0  0  0  0  0
 29 30  1  0  0  0
 30 31  2  0  0  0
 30 28  1  0  0  0
 28 27  1  0  0  0
 27 22  1  0  0  0
 22 23  1  0  0  0
 22 16  1  0  0  0
 23 24  2  0  0  0
 23 25  1  0  0  0
 16 17  1  0  0  0
 17 18  2  0  0  0
 17 19  1  0  0  0
 19 15  1  0  0  0
 15 33  1  0  0  0
 15 14  1  0  0  0
 33 34  1  0  0  0
 33 35  2  0  0  0
 14 13  1  0  0  0
 13 12  1  0  0  0
 12 11  1  0  0  0
 11  6  1  0  0  0
  6  7  1  0  0  0
  6  8  1  0  0  0
  7 10  2  0  0  0
  8  9  2  0  0  0
  9 10  1  0  0  0
 10  5  1  0  0  0
  5  4  1  0  0  0
  4  3  1  0  0  0
  3  2  1  0  0  0
  2  1  1  0  0  0
  1 37  1  0  0  0
 37 38  1  0  0  0
 38 39  1  0  0  0
 39 40  1  0  0  0
 40 41  1  0  0  0
 41 42  1  0  0  0
 42 43  1  0  0  0
 43 44  1  0  0  0
 44 45  1  0  0  0
 45 46  1  0  0  0
 46 47  1  0  0  0
 47 48  1  0  0  0
 48 49  1  0  0  0
 49 50  1  0  0  0
 50 51  1  0  0  0
 51 52  1  0  0  0
 52 53  1  0  0  0
 53 54  1  0  0  0
 54 55  1  0  0  0
 55 56  1  0  0  0
 56 57  1  0  0  0
 57 59  1  0  0  0
 59 60  1  0  0  0
 59 64  2  0  0  0
 60 61  2  0  0  0
 61 62  1  0  0  0
 62 69  1  0  0  0
 62 63  2  0  0  0
 69 70  1  0  0  0
 69 71  2  0  0  0
 63 64  1  0  0  0
 64 65  1  0  0  0
 65 66  1  0  0  0
 65 67  2  0  0  0
 29 32  1  0  0  0
 25 26  1  0  0  0
 16 20  1  0  0  0
 19 21  1  0  0  0
 34 36  1  0  0  0
 57 58  1  0  0  0
 70 72  1  0  0  0
 66 68  1  0  0  0
M  CHG 1  65   1
M  CHG 1  69   1
M  END
> <minimizedAffinity>
-9.03708

$$$$
2XEF_AR8_A_1770


 72 73  0  0  0  0  0  0  0  0999 V2000
   27.0830   48.8262   39.5496 O   0  0  0  0  0  0  0  0  0  0  0  0
   25.6628   49.0641   39.3801 C   0  0  0  0  0  0  0  0  0  0  0  0
   25.1073   48.4253   38.0914 C   0  0  0  0  0  0  0  0  0  0  0  0
   25.8526   47.2640   37.6728 O   0  0  0  0  0  0  0  0  0  0  0  0
   25.0765   46.0326   37.7548 C   0  0  0  0  0  0  0  0  0  0  0  0
   24.7668   44.4194   40.8028 N   0  0  0  0  0  0  0  0  0  0  0  0
   24.4491   45.4729   40.0457 C   0  0  0  0  0  0  0  0  0  0  0  0
   25.5007   43.6300   40.1836 N   0  0  0  0  0  0  0  0  0  0  0  0
   25.7251   44.0547   39.0354 N   0  0  0  0  0  0  0  0  0  0  0  0
   25.0778   45.2173   38.9019 C   0  0  0  0  0  0  0  0  0  0  0  0
   24.3145   44.2058   42.1959 C   0  0  0  0  0  0  0  0  0  0  0  0
   23.2434   45.2368   42.5284 C   0  0  0  0  0  0  0  0  0  0  0  0
   22.2567   44.7660   43.6084 C   0  0  0  0  0  0  0  0  0  0  0  0
   20.9465   45.4418   43.2134 C   0  0  0  0  0  0  0  0  0  0  0  0
   19.7223   45.1659   44.0951 C   0  0  0  0  0  0  0  0  0  0  0  0
   16.7676   45.2950   41.9638 N   0  0  0  0  0  0  0  0  0  0  0  0
   17.7738   44.7618   42.6967 C   0  0  0  0  0  0  0  0  0  0  0  0
   17.7725   43.5388   42.9260 O   0  0  0  0  0  0  0  0  0  0  0  0
   18.6395   45.6213   43.2359 N   0  0  0  0  0  0  0  0  0  0  0  0
   16.5782   46.2607   41.9921 H   0  0  0  0  0  0  0  0  0  0  0  0
   18.5440   46.5831   43.0489 H   0  0  0  0  0  0  0  0  0  0  0  0
   15.9585   44.3843   41.1169 C   0  0  0  0  0  0  0  0  0  0  0  0
   16.5393   44.4788   39.6728 C   0  0  0  0  0  0  0  0  0  0  0  0
   15.7361   44.4446   38.7108 O   0  0  0  0  0  0  0  0  0  0  0  0
   17.7878   44.5115   39.4864 O   0  0  0  0  0  0  0  0  0  0  0  0
   18.3705   44.5367   40.2198 H   0  0  0  0  0  0  0  0  0  0  0  0
   14.4672   44.8268   41.0605 C   0  0  0  0  0  0  0  0  0  0  0  0
   14.3701   46.3507   41.3061 C   0  0  0  0  0  0  0  0  0  0  0  0
   13.0783   47.1548   39.4621 O   0  0  0  0  0  0  0  0  0  0  0  0
   14.1913   47.2339   40.0526 C   0  0  0  0  0  0  0  0  0  0  0  0
   15.1289   47.9953   39.7299 O   0  0  0  0  0  0  0  0  0  0  0  0
   12.4267   46.5555   39.7690 H   0  0  0  0  0  0  0  0  0  0  0  0
   19.7620   46.1018   45.3064 C   0  0  0  0  0  0  0  0  0  0  0  0
   19.2413   47.2317   45.1417 O   0  0  0  0  0  0  0  0  0  0  0  0
   20.3970   45.7230   46.3190 O   0  0  0  0  0  0  0  0  0  0  0  0
   18.7836   47.4254   44.3474 H   0  0  0  0  0  0  0  0  0  0  0  0
   27.8471   50.0192   39.2826 C   0  0  0  0  0  0  0  0  0  0  0  0
   27.9707   50.8849   40.5361 C   0  0  0  0  0  0  0  0  0  0  0  0
   27.7076   52.2558   40.1602 O   0  0  0  0  0  0  0  0  0  0  0  0
   26.2941   52.5697   40.3604 C   0  0  0  0  0  0  0  0  0  0  0  0
   26.1483   53.9619   41.0324 C   0  0  0  0  0  0  0  0  0  0  0  0
   27.3837   54.7198   40.7902 O   0  0  0  0  0  0  0  0  0  0  0  0
   27.4527   55.8413   41.7432 C   0  0  0  0  0  0  0  0  0  0  0  0
   27.2459   57.2348   41.0541 C   0  0  0  0  0  0  0  0  0  0  0  0
   25.9377   57.7697   41.3610 O   0  0  0  0  0  0  0  0  0  0  0  0
   25.8192   59.2017   41.0049 C   0  0  0  0  0  0  0  0  0  0  0  0
   26.9822   60.0154   41.6009 C   0  0  0  0  0  0  0  0  0  0  0  0
   26.8032   60.4787   43.0233 O   0  0  0  0  0  0  0  0  0  0  0  0
   27.6714   59.7842   43.9262 C   0  0  0  0  0  0  0  0  0  0  0  0
   26.8541   58.9053   44.8563 C   0  0  0  0  0  0  0  0  0  0  0  0
   25.4540   58.6666   44.5215 O   0  0  0  0  0  0  0  0  0  0  0  0
   24.6604   58.1189   45.5854 C   0  0  0  0  0  0  0  0  0  0  0  0
   24.6876   56.6078   45.6133 C   0  0  0  0  0  0  0  0  0  0  0  0
   23.9142   56.1284   44.5015 O   0  0  0  0  0  0  0  0  0  0  0  0
   24.4472   54.8610   44.0857 C   0  0  0  0  0  0  0  0  0  0  0  0
   24.0802   53.7124   45.0339 C   0  0  0  0  0  0  0  0  0  0  0  0
   23.5284   52.6150   44.2181 N   0  0  0  0  0  0  0  0  0  0  0  0
   22.6846   52.7885   43.7415 H   0  0  0  0  0  0  0  0  0  0  0  0
   24.0782   51.4007   44.0701 C   0  0  0  0  0  0  0  0  0  0  0  0
   25.4451   51.2596   43.8060 C   0  0  0  0  0  0  0  0  0  0  0  0
   26.0021   49.9881   43.6713 C   0  0  0  0  0  0  0  0  0  0  0  0
   25.2068   48.8461   43.8040 C   0  0  0  0  0  0  0  0  0  0  0  0
   23.8425   48.9939   44.0741 C   0  0  0  0  0  0  0  0  0  0  0  0
   23.2669   50.2598   44.2081 C   0  0  0  0  0  0  0  0  0  0  0  0
   21.9494   50.3567   44.4647 N   0  0  0  0  0  0  0  0  0  0  0  0
   21.4169   51.4472   45.1935 O   0  0  0  0  0  0  0  0  0  0  0  0
   21.0502   49.3693   44.0068 O   0  0  0  0  0  0  0  0  0  0  0  0
   21.9857   52.1202   45.5121 H   0  0  0  0  0  0  0  0  0  0  0  0
   25.7442   47.6190   43.6664 N   0  0  0  0  0  0  0  0  0  0  0  0
   25.6234   46.6427   44.7102 O   0  0  0  0  0  0  0  0  0  0  0  0
   26.4737   47.2514   42.4835 O   0  0  0  0  0  0  0  0  0  0  0  0
   25.1542   46.8507   45.4942 H   0  0  0  0  0  0  0  0  0  0  0  0
 29 30  1  0  0  0
 30 31  2  0  0  0
 30 28  1  0  0  0
 28 27  1  0  0  0
 27 22  1  0  0  0
 22 23  1  0  0  0
 22 16  1  0  0  0
 23 24  2  0  0  0
 23 25  1  0  0  0
 16 17  1  0  0  0
 17 18  2  0  0  0
 17 19  1  0  0  0
 19 15  1  0  0  0
 15 33  1  0  0  0
 15 14  1  0  0  0
 33 34  1  0  0  0
 33 35  2  0  0  0
 14 13  1  0  0  0
 13 12  1  0  0  0
 12 11  1  0  0  0
 11  6  1  0  0  0
  6  7  1  0  0  0
  6  8  1  0  0  0
  7 10  2  0  0  0
  8  9  2  0  0  0
  9 10  1  0  0  0
 10  5  1  0  0  0
  5  4  1  0  0  0
  4  3  1  0  0  0
  3  2  1  0  0  0
  2  1  1  0  0  0
  1 37  1  0  0  0
 37 38  1  0  0  0
 38 39  1  0  0  0
 39 40  1  0  0  0
 40 41  1  0  0  0
 41 42  1  0  0  0
 42 43  1  0  0  0
 43 44  1  0  0  0
 44 45  1  0  0  0
 45 46  1  0  0  0
 46 47  1  0  0  0
 47 48  1  0  0  0
 48 49  1  0  0  0
 49 50  1  0  0  0
 50 51  1  0  0  0
 51 52  1  0  0  0
 52 53  1  0  0  0
 53 54  1  0  0  0
 54 55  1  0  0  0
 55 56  1  0  0  0
 56 57  1  0  0  0
 57 59  1  0  0  0
 59 60  1  0  0  0
 59 64  2  0  0  0
 60 61  2  0  0  0
 61 62  1  0  0  0
 62 69  1  0  0  0
 62 63  2  0  0  0
 69 70  1  0  0  0
 69 71  2  0  0  0
 63 64  1  0  0  0
 64 65  1  0  0  0
 65 66  1  0  0  0
 65 67  2  0  0  0
 29 32  1  0  0  0
 25 26  1  0  0  0
 16 20  1  0  0  0
 19 21  1  0  0  0
 34 36  1  0  0  0
 57 58  1  0  0  0
 70 72  1  0  0  0
 66 68  1  0  0  0
M  CHG 1  65   1
M  CHG 1  69   1
M  END
> <minimizedAffinity>
-8.80101

$$$$
2XEF_AR8_A_1770


 72 73  0  0  0  0  0  0  0  0999 V2000
   27.0910   50.0013   39.4326 O   0  0  0  0  0  0  0  0  0  0  0  0
   25.8683   49.2983   39.0966 C   0  0  0  0  0  0  0  0  0  0  0  0
   26.1356   47.9001   38.5041 C   0  0  0  0  0  0  0  0  0  0  0  0
   25.2393   47.5656   37.4252 O   0  0  0  0  0  0  0  0  0  0  0  0
   24.7994   46.1763   37.4639 C   0  0  0  0  0  0  0  0  0  0  0  0
   24.6285   44.5952   40.5395 N   0  0  0  0  0  0  0  0  0  0  0  0
   24.1843   45.5746   39.7475 C   0  0  0  0  0  0  0  0  0  0  0  0
   25.4916   43.9116   39.9625 N   0  0  0  0  0  0  0  0  0  0  0  0
   25.6896   44.3422   38.8118 N   0  0  0  0  0  0  0  0  0  0  0  0
   24.8823   45.3929   38.6300 C   0  0  0  0  0  0  0  0  0  0  0  0
   24.1657   44.3442   41.9229 C   0  0  0  0  0  0  0  0  0  0  0  0
   23.0471   45.3244   42.2524 C   0  0  0  0  0  0  0  0  0  0  0  0
   22.2426   44.9355   43.5026 C   0  0  0  0  0  0  0  0  0  0  0  0
   20.8693   45.5510   43.2487 C   0  0  0  0  0  0  0  0  0  0  0  0
   19.7233   45.1104   44.1678 C   0  0  0  0  0  0  0  0  0  0  0  0
   16.6844   45.0859   42.1543 N   0  0  0  0  0  0  0  0  0  0  0  0
   17.7752   44.6098   42.8003 C   0  0  0  0  0  0  0  0  0  0  0  0
   17.9227   43.3793   42.9118 O   0  0  0  0  0  0  0  0  0  0  0  0
   18.5598   45.5120   43.3911 N   0  0  0  0  0  0  0  0  0  0  0  0
   16.3879   46.0161   42.2807 H   0  0  0  0  0  0  0  0  0  0  0  0
   18.3477   46.4691   43.2999 H   0  0  0  0  0  0  0  0  0  0  0  0
   15.9485   44.1676   41.2507 C   0  0  0  0  0  0  0  0  0  0  0  0
   16.6675   44.2254   39.8681 C   0  0  0  0  0  0  0  0  0  0  0  0
   16.7503   43.1667   39.2018 O   0  0  0  0  0  0  0  0  0  0  0  0
   17.2133   45.2943   39.4753 O   0  0  0  0  0  0  0  0  0  0  0  0
   17.1390   46.0745   39.9889 H   0  0  0  0  0  0  0  0  0  0  0  0
   14.4759   44.6266   41.0413 C   0  0  0  0  0  0  0  0  0  0  0  0
   14.3488   46.1295   41.3835 C   0  0  0  0  0  0  0  0  0  0  0  0
   15.2942   47.6288   39.7793 O   0  0  0  0  0  0  0  0  0  0  0  0
   14.2249   47.0941   40.1846 C   0  0  0  0  0  0  0  0  0  0  0  0
   13.0973   47.2494   39.6676 O   0  0  0  0  0  0  0  0  0  0  0  0
   16.1008   47.4598   40.2251 H   0  0  0  0  0  0  0  0  0  0  0  0
   19.7418   45.9730   45.4328 C   0  0  0  0  0  0  0  0  0  0  0  0
   19.1615   47.0824   45.3466 O   0  0  0  0  0  0  0  0  0  0  0  0
   20.4166   45.5675   46.4087 O   0  0  0  0  0  0  0  0  0  0  0  0
   18.6778   47.2994   44.5741 H   0  0  0  0  0  0  0  0  0  0  0  0
   28.2251   49.1114   39.4180 C   0  0  0  0  0  0  0  0  0  0  0  0
   29.4958   49.8471   38.9938 C   0  0  0  0  0  0  0  0  0  0  0  0
   30.2109   50.2305   40.1901 O   0  0  0  0  0  0  0  0  0  0  0  0
   30.2221   49.1243   41.1455 C   0  0  0  0  0  0  0  0  0  0  0  0
   31.5280   49.1595   41.9849 C   0  0  0  0  0  0  0  0  0  0  0  0
   32.6541   48.8453   41.0947 O   0  0  0  0  0  0  0  0  0  0  0  0
   33.7899   49.7214   41.4310 C   0  0  0  0  0  0  0  0  0  0  0  0
   33.3432   51.1821   41.7862 C   0  0  0  0  0  0  0  0  0  0  0  0
   33.7997   52.1168   40.7814 O   0  0  0  0  0  0  0  0  0  0  0  0
   33.0887   51.9483   39.4939 C   0  0  0  0  0  0  0  0  0  0  0  0
   32.5607   53.2984   38.9757 C   0  0  0  0  0  0  0  0  0  0  0  0
   31.0626   53.4559   38.9509 O   0  0  0  0  0  0  0  0  0  0  0  0
   30.6010   53.9933   37.7061 C   0  0  0  0  0  0  0  0  0  0  0  0
   29.2149   53.4576   37.3939 C   0  0  0  0  0  0  0  0  0  0  0  0
   28.3792   53.0239   38.5087 O   0  0  0  0  0  0  0  0  0  0  0  0
   27.4927   54.0265   39.0287 C   0  0  0  0  0  0  0  0  0  0  0  0
   27.8337   54.4265   40.4459 C   0  0  0  0  0  0  0  0  0  0  0  0
   26.6121   54.4745   41.2007 O   0  0  0  0  0  0  0  0  0  0  0  0
   26.1307   53.1330   41.3784 C   0  0  0  0  0  0  0  0  0  0  0  0
   27.0732   52.2604   42.2172 C   0  0  0  0  0  0  0  0  0  0  0  0
   26.5648   50.8770   42.1711 N   0  0  0  0  0  0  0  0  0  0  0  0
   27.0171   50.2511   41.5603 H   0  0  0  0  0  0  0  0  0  0  0  0
   25.5388   50.3988   42.8903 C   0  0  0  0  0  0  0  0  0  0  0  0
   24.4478   51.2135   43.2130 C   0  0  0  0  0  0  0  0  0  0  0  0
   23.3824   50.6941   43.9480 C   0  0  0  0  0  0  0  0  0  0  0  0
   23.3893   49.3593   44.3632 C   0  0  0  0  0  0  0  0  0  0  0  0
   24.4799   48.5486   44.0320 C   0  0  0  0  0  0  0  0  0  0  0  0
   25.5575   49.0533   43.3000 C   0  0  0  0  0  0  0  0  0  0  0  0
   26.5881   48.2395   43.0059 N   0  0  0  0  0  0  0  0  0  0  0  0
   26.5037   47.2885   41.9607 O   0  0  0  0  0  0  0  0  0  0  0  0
   27.7966   48.3134   43.7323 O   0  0  0  0  0  0  0  0  0  0  0  0
   25.7162   47.2130   41.4585 H   0  0  0  0  0  0  0  0  0  0  0  0
   22.3635   48.8608   45.0792 N   0  0  0  0  0  0  0  0  0  0  0  0
   21.0086   49.2095   44.7628 O   0  0  0  0  0  0  0  0  0  0  0  0
   22.5884   47.9826   46.1949 O   0  0  0  0  0  0  0  0  0  0  0  0
   20.8278   49.7798   44.0417 H   0  0  0  0  0  0  0  0  0  0  0  0
 29 30  1  0  0  0
 30 31  2  0  0  0
 30 28  1  0  0  0
 28 27  1  0  0  0
 27 22  1  0  0  0
 22 23  1  0  0  0
 22 16  1  0  0  0
 23 24  2  0  0  0
 23 25  1  0  0  0
 16 17  1  0  0  0
 17 18  2  0  0  0
 17 19  1  0  0  0
 19 15  1  0  0  0
 15 33  1  0  0  0
 15 14  1  0  0  0
 33 34  1  0  0  0
 33 35  2  0  0  0
 14 13  1  0  0  0
 13 12  1  0  0  0
 12 11  1  0  0  0
 11  6  1  0  0  0
  6  7  1  0  0  0
  6  8  1  0  0  0
  7 10  2  0  0  0
  8  9  2  0  0  0
  9 10  1  0  0  0
 10  5  1  0  0  0
  5  4  1  0  0  0
  4  3  1  0  0  0
  3  2  1  0  0  0
  2  1  1  0  0  0
  1 37  1  0  0  0
 37 38  1  0  0  0
 38 39  1  0  0  0
 39 40  1  0  0  0
 40 41  1  0  0  0
 41 42  1  0  0  0
 42 43  1  0  0  0
 43 44  1  0  0  0
 44 45  1  0  0  0
 45 46  1  0  0  0
 46 47  1  0  0  0
 47 48  1  0  0  0
 48 49  1  0  0  0
 49 50  1  0  0  0
 50 51  1  0  0  0
 51 52  1  0  0  0
 52 53  1  0  0  0
 53 54  1  0  0  0
 54 55  1  0  0  0
 55 56  1  0  0  0
 56 57  1  0  0  0
 57 59  1  0  0  0
 59 60  1  0  0  0
 59 64  2  0  0  0
 60 61  2  0  0  0
 61 62  1  0  0  0
 62 69  1  0  0  0
 62 63  2  0  0  0
 69 70  1  0  0  0
 69 71  2  0  0  0
 63 64  1  0  0  0
 64 65  1  0  0  0
 65 66  1  0  0  0
 65 67  2  0  0  0
 29 32  1  0  0  0
 25 26  1  0  0  0
 16 20  1  0  0  0
 19 21  1  0  0  0
 34 36  1  0  0  0
 57 58  1  0  0  0
 70 72  1  0  0  0
 66 68  1  0  0  0
M  CHG 1  65   1
M  CHG 1  69   1
M  END
> <minimizedAffinity>
-8.60734

$$$$
2XEF_AR8_A_1770


 72 73  0  0  0  0  0  0  0  0999 V2000
   26.5798   49.6288   39.5956 O   0  0  0  0  0  0  0  0  0  0  0  0
   25.4891   49.0293   38.8520 C   0  0  0  0  0  0  0  0  0  0  0  0
   25.9146   47.7444   38.1135 C   0  0  0  0  0  0  0  0  0  0  0  0
   24.9192   47.2752   37.1817 O   0  0  0  0  0  0  0  0  0  0  0  0
   24.6186   45.8575   37.3396 C   0  0  0  0  0  0  0  0  0  0  0  0
   24.6226   44.5319   40.5382 N   0  0  0  0  0  0  0  0  0  0  0  0
   24.0849   45.3990   39.6763 C   0  0  0  0  0  0  0  0  0  0  0  0
   25.5360   43.8798   40.0039 N   0  0  0  0  0  0  0  0  0  0  0  0
   25.6821   44.2276   38.8179 N   0  0  0  0  0  0  0  0  0  0  0  0
   24.7835   45.1852   38.5649 C   0  0  0  0  0  0  0  0  0  0  0  0
   24.1995   44.3590   41.9461 C   0  0  0  0  0  0  0  0  0  0  0  0
   23.0129   45.2747   42.2187 C   0  0  0  0  0  0  0  0  0  0  0  0
   22.1305   44.8006   43.3840 C   0  0  0  0  0  0  0  0  0  0  0  0
   20.7349   45.2779   42.9917 C   0  0  0  0  0  0  0  0  0  0  0  0
   19.6537   45.2506   44.0790 C   0  0  0  0  0  0  0  0  0  0  0  0
   16.5819   45.1701   42.1177 N   0  0  0  0  0  0  0  0  0  0  0  0
   17.6902   44.7137   42.7478 C   0  0  0  0  0  0  0  0  0  0  0  0
   17.8575   43.4862   42.8637 O   0  0  0  0  0  0  0  0  0  0  0  0
   18.4715   45.6307   43.3200 N   0  0  0  0  0  0  0  0  0  0  0  0
   16.2739   46.0967   42.2439 H   0  0  0  0  0  0  0  0  0  0  0  0
   18.2439   46.5841   43.2270 H   0  0  0  0  0  0  0  0  0  0  0  0
   15.8442   44.2359   41.2320 C   0  0  0  0  0  0  0  0  0  0  0  0
   16.4640   44.3822   39.8085 C   0  0  0  0  0  0  0  0  0  0  0  0
   17.5316   45.0293   39.6938 O   0  0  0  0  0  0  0  0  0  0  0  0
   15.8607   43.9240   38.7981 O   0  0  0  0  0  0  0  0  0  0  0  0
   15.0639   43.4429   38.9065 H   0  0  0  0  0  0  0  0  0  0  0  0
   14.3357   44.6075   41.1351 C   0  0  0  0  0  0  0  0  0  0  0  0
   14.1497   46.1066   41.4670 C   0  0  0  0  0  0  0  0  0  0  0  0
   14.0787   46.5333   39.1157 O   0  0  0  0  0  0  0  0  0  0  0  0
   14.0272   47.0623   40.2608 C   0  0  0  0  0  0  0  0  0  0  0  0
   13.8421   48.2775   40.4886 O   0  0  0  0  0  0  0  0  0  0  0  0
   14.2217   45.6111   39.0317 H   0  0  0  0  0  0  0  0  0  0  0  0
   19.9285   46.3756   45.0807 C   0  0  0  0  0  0  0  0  0  0  0  0
   20.0071   47.5310   44.5974 O   0  0  0  0  0  0  0  0  0  0  0  0
   20.1616   46.0566   46.2708 O   0  0  0  0  0  0  0  0  0  0  0  0
   19.8130   47.6744   43.6920 H   0  0  0  0  0  0  0  0  0  0  0  0
   26.4659   51.0657   39.6210 C   0  0  0  0  0  0  0  0  0  0  0  0
   25.7596   51.5388   40.8912 C   0  0  0  0  0  0  0  0  0  0  0  0
   26.4946   52.6668   41.4176 O   0  0  0  0  0  0  0  0  0  0  0  0
   25.7871   53.9109   41.1205 C   0  0  0  0  0  0  0  0  0  0  0  0
   26.5380   54.6985   40.0128 C   0  0  0  0  0  0  0  0  0  0  0  0
   27.9625   54.7480   40.3706 O   0  0  0  0  0  0  0  0  0  0  0  0
   28.7469   55.0846   39.1698 C   0  0  0  0  0  0  0  0  0  0  0  0
   28.4310   54.1423   37.9566 C   0  0  0  0  0  0  0  0  0  0  0  0
   29.0575   52.8508   38.1336 O   0  0  0  0  0  0  0  0  0  0  0  0
   30.5293   52.9529   38.2556 C   0  0  0  0  0  0  0  0  0  0  0  0
   31.0269   52.2429   39.5276 C   0  0  0  0  0  0  0  0  0  0  0  0
   31.9620   51.0814   39.3126 O   0  0  0  0  0  0  0  0  0  0  0  0
   31.2679   49.9098   38.8688 C   0  0  0  0  0  0  0  0  0  0  0  0
   31.2569   48.8664   39.9719 C   0  0  0  0  0  0  0  0  0  0  0  0
   31.8208   49.2308   41.2675 O   0  0  0  0  0  0  0  0  0  0  0  0
   30.9941   48.9179   42.3989 C   0  0  0  0  0  0  0  0  0  0  0  0
   29.5197   48.9405   42.0665 C   0  0  0  0  0  0  0  0  0  0  0  0
   28.8471   48.0443   42.9657 O   0  0  0  0  0  0  0  0  0  0  0  0
   27.4468   48.3638   42.9683 C   0  0  0  0  0  0  0  0  0  0  0  0
   26.8473   48.4352   44.3784 C   0  0  0  0  0  0  0  0  0  0  0  0
   25.4667   48.9383   44.2548 N   0  0  0  0  0  0  0  0  0  0  0  0
   24.7685   48.2849   44.0203 H   0  0  0  0  0  0  0  0  0  0  0  0
   25.0811   50.2102   44.4347 C   0  0  0  0  0  0  0  0  0  0  0  0
   26.0251   51.2379   44.5382 C   0  0  0  0  0  0  0  0  0  0  0  0
   25.6047   52.5568   44.7088 C   0  0  0  0  0  0  0  0  0  0  0  0
   24.2430   52.8661   44.7719 C   0  0  0  0  0  0  0  0  0  0  0  0
   23.3044   51.8350   44.6616 C   0  0  0  0  0  0  0  0  0  0  0  0
   23.7076   50.5079   44.4944 C   0  0  0  0  0  0  0  0  0  0  0  0
   22.7714   49.5462   44.3959 N   0  0  0  0  0  0  0  0  0  0  0  0
   21.9465   49.2028   45.4939 O   0  0  0  0  0  0  0  0  0  0  0  0
   22.5777   48.8487   43.1837 O   0  0  0  0  0  0  0  0  0  0  0  0
   22.0485   49.6460   46.3131 H   0  0  0  0  0  0  0  0  0  0  0  0
   23.8383   54.1390   44.9442 N   0  0  0  0  0  0  0  0  0  0  0  0
   24.5865   55.2294   44.3885 O   0  0  0  0  0  0  0  0  0  0  0  0
   22.6598   54.4516   45.7058 O   0  0  0  0  0  0  0  0  0  0  0  0
   25.3595   55.0597   43.8869 H   0  0  0  0  0  0  0  0  0  0  0  0
 29 30  1  0  0  0
 30 31  2  0  0  0
 30 28  1  0  0  0
 28 27  1  0  0  0
 27 22  1  0  0  0
 22 23  1  0  0  0
 22 16  1  0  0  0
 23 24  2  0  0  0
 23 25  1  0  0  0
 16 17  1  0  0  0
 17 18  2  0  0  0
 17 19  1  0  0  0
 19 15  1  0  0  0
 15 33  1  0  0  0
 15 14  1  0  0  0
 33 34  1  0  0  0
 33 35  2  0  0  0
 14 13  1  0  0  0
 13 12  1  0  0  0
 12 11  1  0  0  0
 11  6  1  0  0  0
  6  7  1  0  0  0
  6  8  1  0  0  0
  7 10  2  0  0  0
  8  9  2  0  0  0
  9 10  1  0  0  0
 10  5  1  0  0  0
  5  4  1  0  0  0
  4  3  1  0  0  0
  3  2  1  0  0  0
  2  1  1  0  0  0
  1 37  1  0  0  0
 37 38  1  0  0  0
 38 39  1  0  0  0
 39 40  1  0  0  0
 40 41  1  0  0  0
 41 42  1  0  0  0
 42 43  1  0  0  0
 43 44  1  0  0  0
 44 45  1  0  0  0
 45 46  1  0  0  0
 46 47  1  0  0  0
 47 48  1  0  0  0
 48 49  1  0  0  0
 49 50  1  0  0  0
 50 51  1  0  0  0
 51 52  1  0  0  0
 52 53  1  0  0  0
 53 54  1  0  0  0
 54 55  1  0  0  0
 55 56  1  0  0  0
 56 57  1  0  0  0
 57 59  1  0  0  0
 59 60  1  0  0  0
 59 64  2  0  0  0
 60 61  2  0  0  0
 61 62  1  0  0  0
 62 69  1  0  0  0
 62 63  2  0  0  0
 69 70  1  0  0  0
 69 71  2  0  0  0
 63 64  1  0  0  0
 64 65  1  0  0  0
 65 66  1  0  0  0
 65 67  2  0  0  0
 29 32  1  0  0  0
 25 26  1  0  0  0
 16 20  1  0  0  0
 19 21  1  0  0  0
 34 36  1  0  0  0
 57 58  1  0  0  0
 70 72  1  0  0  0
 66 68  1  0  0  0
M  CHG 1  65   1
M  CHG 1  69   1
M  END
> <minimizedAffinity>
-8.41945

$$$$
2XEF_AR8_A_1770


 72 73  0  0  0  0  0  0  0  0999 V2000
   26.7936   48.4939   38.4900 O   0  0  0  0  0  0  0  0  0  0  0  0
   25.3517   48.3605   38.5619 C   0  0  0  0  0  0  0  0  0  0  0  0
   24.7725   47.5690   37.3721 C   0  0  0  0  0  0  0  0  0  0  0  0
   25.2198   46.1986   37.3370 O   0  0  0  0  0  0  0  0  0  0  0  0
   24.3042   45.2861   38.0109 C   0  0  0  0  0  0  0  0  0  0  0  0
   24.5702   44.3689   41.3390 N   0  0  0  0  0  0  0  0  0  0  0  0
   23.9716   45.1356   40.4238 C   0  0  0  0  0  0  0  0  0  0  0  0
   25.4232   43.6320   40.8150 N   0  0  0  0  0  0  0  0  0  0  0  0
   25.4694   43.8257   39.5865 N   0  0  0  0  0  0  0  0  0  0  0  0
   24.5663   44.7673   39.2926 C   0  0  0  0  0  0  0  0  0  0  0  0
   24.2703   44.3833   42.7884 C   0  0  0  0  0  0  0  0  0  0  0  0
   22.7656   44.5288   42.9775 C   0  0  0  0  0  0  0  0  0  0  0  0
   22.3612   45.8368   43.6752 C   0  0  0  0  0  0  0  0  0  0  0  0
   20.9163   46.0462   43.2306 C   0  0  0  0  0  0  0  0  0  0  0  0
   19.8521   45.1354   43.8551 C   0  0  0  0  0  0  0  0  0  0  0  0
   16.6858   45.2165   42.0504 N   0  0  0  0  0  0  0  0  0  0  0  0
   17.8033   44.7035   42.6176 C   0  0  0  0  0  0  0  0  0  0  0  0
   17.9228   43.4683   42.7086 O   0  0  0  0  0  0  0  0  0  0  0  0
   18.6512   45.5774   43.1619 N   0  0  0  0  0  0  0  0  0  0  0  0
   16.4250   46.1533   42.2044 H   0  0  0  0  0  0  0  0  0  0  0  0
   18.4608   46.5409   43.0932 H   0  0  0  0  0  0  0  0  0  0  0  0
   15.8651   44.3284   41.1907 C   0  0  0  0  0  0  0  0  0  0  0  0
   16.4815   44.3930   39.7597 C   0  0  0  0  0  0  0  0  0  0  0  0
   15.7008   44.5136   38.7862 O   0  0  0  0  0  0  0  0  0  0  0  0
   17.7250   44.2505   39.5920 O   0  0  0  0  0  0  0  0  0  0  0  0
   18.2907   44.1621   40.3337 H   0  0  0  0  0  0  0  0  0  0  0  0
   14.3917   44.8217   41.0973 C   0  0  0  0  0  0  0  0  0  0  0  0
   14.3402   46.3475   41.3452 C   0  0  0  0  0  0  0  0  0  0  0  0
   14.5123   48.3196   40.0048 O   0  0  0  0  0  0  0  0  0  0  0  0
   13.9097   47.2194   40.1461 C   0  0  0  0  0  0  0  0  0  0  0  0
   13.0355   46.7690   39.3741 O   0  0  0  0  0  0  0  0  0  0  0  0
   15.1568   48.5846   40.6312 H   0  0  0  0  0  0  0  0  0  0  0  0
   19.6845   45.5075   45.3310 C   0  0  0  0  0  0  0  0  0  0  0  0
   19.5017   44.5484   46.1194 O   0  0  0  0  0  0  0  0  0  0  0  0
   19.6311   46.7251   45.6259 O   0  0  0  0  0  0  0  0  0  0  0  0
   19.5622   43.6671   45.8070 H   0  0  0  0  0  0  0  0  0  0  0  0
   27.2663   49.5297   39.3743 C   0  0  0  0  0  0  0  0  0  0  0  0
   28.5532   50.1606   38.8438 C   0  0  0  0  0  0  0  0  0  0  0  0
   29.5963   49.1612   38.8979 O   0  0  0  0  0  0  0  0  0  0  0  0
   30.8540   49.7199   38.4053 C   0  0  0  0  0  0  0  0  0  0  0  0
   31.9430   49.6331   39.5087 C   0  0  0  0  0  0  0  0  0  0  0  0
   31.3184   49.9648   40.7968 O   0  0  0  0  0  0  0  0  0  0  0  0
   31.5669   48.8666   41.7470 C   0  0  0  0  0  0  0  0  0  0  0  0
   30.5710   48.8773   42.9584 C   0  0  0  0  0  0  0  0  0  0  0  0
   29.6245   47.7888   42.8538 O   0  0  0  0  0  0  0  0  0  0  0  0
   28.3310   48.2229   42.2793 C   0  0  0  0  0  0  0  0  0  0  0  0
   27.3573   48.6648   43.3867 C   0  0  0  0  0  0  0  0  0  0  0  0
   26.2509   49.5945   42.9608 O   0  0  0  0  0  0  0  0  0  0  0  0
   25.1068   48.8802   42.4790 C   0  0  0  0  0  0  0  0  0  0  0  0
   23.9986   48.9186   43.5163 C   0  0  0  0  0  0  0  0  0  0  0  0
   24.0873   49.9143   44.5794 O   0  0  0  0  0  0  0  0  0  0  0  0
   23.3636   51.1299   44.3344 C   0  0  0  0  0  0  0  0  0  0  0  0
   24.2317   52.3604   44.4649 C   0  0  0  0  0  0  0  0  0  0  0  0
   24.4786   52.5845   45.8624 O   0  0  0  0  0  0  0  0  0  0  0  0
   25.8971   52.6787   46.0673 C   0  0  0  0  0  0  0  0  0  0  0  0
   26.2939   53.8077   47.0271 C   0  0  0  0  0  0  0  0  0  0  0  0
   26.5336   55.0191   46.2213 N   0  0  0  0  0  0  0  0  0  0  0  0
   26.5776   55.8777   46.7010 H   0  0  0  0  0  0  0  0  0  0  0  0
   26.6968   55.0508   44.8904 C   0  0  0  0  0  0  0  0  0  0  0  0
   27.8178   54.4658   44.2912 C   0  0  0  0  0  0  0  0  0  0  0  0
   27.9623   54.4945   42.9043 C   0  0  0  0  0  0  0  0  0  0  0  0
   26.9911   55.0991   42.1010 C   0  0  0  0  0  0  0  0  0  0  0  0
   25.8699   55.6765   42.7057 C   0  0  0  0  0  0  0  0  0  0  0  0
   25.7109   55.6607   44.0937 C   0  0  0  0  0  0  0  0  0  0  0  0
   24.6184   56.2307   44.6345 N   0  0  0  0  0  0  0  0  0  0  0  0
   23.8484   55.5656   45.6186 O   0  0  0  0  0  0  0  0  0  0  0  0
   24.2066   57.5218   44.2383 O   0  0  0  0  0  0  0  0  0  0  0  0
   24.0936   54.7076   45.9044 H   0  0  0  0  0  0  0  0  0  0  0  0
   27.1352   55.1328   40.7625 N   0  0  0  0  0  0  0  0  0  0  0  0
   28.2762   55.7614   40.1619 O   0  0  0  0  0  0  0  0  0  0  0  0
   26.1454   54.5622   39.8900 O   0  0  0  0  0  0  0  0  0  0  0  0
   28.9395   56.1430   40.7026 H   0  0  0  0  0  0  0  0  0  0  0  0
 29 30  1  0  0  0
 30 31  2  0  0  0
 30 28  1  0  0  0
 28 27  1  0  0  0
 27 22  1  0  0  0
 22 23  1  0  0  0
 22 16  1  0  0  0
 23 24  2  0  0  0
 23 25  1  0  0  0
 16 17  1  0  0  0
 17 18  2  0  0  0
 17 19  1  0  0  0
 19 15  1  0  0  0
 15 33  1  0  0  0
 15 14  1  0  0  0
 33 34  1  0  0  0
 33 35  2  0  0  0
 14 13  1  0  0  0
 13 12  1  0  0  0
 12 11  1  0  0  0
 11  6  1  0  0  0
  6  7  1  0  0  0
  6  8  1  0  0  0
  7 10  2  0  0  0
  8  9  2  0  0  0
  9 10  1  0  0  0
 10  5  1  0  0  0
  5  4  1  0  0  0
  4  3  1  0  0  0
  3  2  1  0  0  0
  2  1  1  0  0  0
  1 37  1  0  0  0
 37 38  1  0  0  0
 38 39  1  0  0  0
 39 40  1  0  0  0
 40 41  1  0  0  0
 41 42  1  0  0  0
 42 43  1  0  0  0
 43 44  1  0  0  0
 44 45  1  0  0  0
 45 46  1  0  0  0
 46 47  1  0  0  0
 47 48  1  0  0  0
 48 49  1  0  0  0
 49 50  1  0  0  0
 50 51  1  0  0  0
 51 52  1  0  0  0
 52 53  1  0  0  0
 53 54  1  0  0  0
 54 55  1  0  0  0
 55 56  1  0  0  0
 56 57  1  0  0  0
 57 59  1  0  0  0
 59 60  1  0  0  0
 59 64  2  0  0  0
 60 61  2  0  0  0
 61 62  1  0  0  0
 62 69  1  0  0  0
 62 63  2  0  0  0
 69 70  1  0  0  0
 69 71  2  0  0  0
 63 64  1  0  0  0
 64 65  1  0  0  0
 65 66  1  0  0  0
 65 67  2  0  0  0
 29 32  1  0  0  0
 25 26  1  0  0  0
 16 20  1  0  0  0
 19 21  1  0  0  0
 34 36  1  0  0  0
 57 58  1  0  0  0
 70 72  1  0  0  0
 66 68  1  0  0  0
M  CHG 1  65   1
M  CHG 1  69   1
M  END
> <minimizedAffinity>
-8.38870

$$$$
2XEF_AR8_A_1770


 72 73  0  0  0  0  0  0  0  0999 V2000
   26.8064   50.6573   39.7111 O   0  0  0  0  0  0  0  0  0  0  0  0
   26.2550   49.3725   40.0947 C   0  0  0  0  0  0  0  0  0  0  0  0
   26.9060   48.2002   39.3336 C   0  0  0  0  0  0  0  0  0  0  0  0
   26.2114   47.8657   38.1150 O   0  0  0  0  0  0  0  0  0  0  0  0
   25.8159   46.4639   38.0544 C   0  0  0  0  0  0  0  0  0  0  0  0
   24.1648   45.1631   40.8058 N   0  0  0  0  0  0  0  0  0  0  0  0
   24.2102   46.1009   39.8559 C   0  0  0  0  0  0  0  0  0  0  0  0
   25.1205   44.3750   40.7010 N   0  0  0  0  0  0  0  0  0  0  0  0
   25.8420   44.6925   39.7380 N   0  0  0  0  0  0  0  0  0  0  0  0
   25.3037   45.7777   39.1712 C   0  0  0  0  0  0  0  0  0  0  0  0
   23.1228   45.0622   41.8522 C   0  0  0  0  0  0  0  0  0  0  0  0
   23.7062   44.3374   43.0585 C   0  0  0  0  0  0  0  0  0  0  0  0
   22.7731   44.3343   44.2794 C   0  0  0  0  0  0  0  0  0  0  0  0
   21.5384   45.0840   43.7866 C   0  0  0  0  0  0  0  0  0  0  0  0
   20.1732   44.5798   44.2702 C   0  0  0  0  0  0  0  0  0  0  0  0
   17.3432   45.2897   42.0847 N   0  0  0  0  0  0  0  0  0  0  0  0
   18.1301   44.6083   42.9509 C   0  0  0  0  0  0  0  0  0  0  0  0
   17.6997   43.5582   43.4611 O   0  0  0  0  0  0  0  0  0  0  0  0
   19.2791   45.1902   43.2975 N   0  0  0  0  0  0  0  0  0  0  0  0
   17.5184   46.2366   41.8799 H   0  0  0  0  0  0  0  0  0  0  0  0
   19.5274   46.0499   42.8870 H   0  0  0  0  0  0  0  0  0  0  0  0
   16.2097   44.5705   41.4529 C   0  0  0  0  0  0  0  0  0  0  0  0
   16.6295   44.2752   39.9803 C   0  0  0  0  0  0  0  0  0  0  0  0
   15.9569   43.4393   39.3317 O   0  0  0  0  0  0  0  0  0  0  0  0
   17.6631   44.8102   39.4904 O   0  0  0  0  0  0  0  0  0  0  0  0
   18.1512   45.4328   39.9925 H   0  0  0  0  0  0  0  0  0  0  0  0
   14.9237   45.4467   41.4149 C   0  0  0  0  0  0  0  0  0  0  0  0
   15.1384   46.6394   40.4540 C   0  0  0  0  0  0  0  0  0  0  0  0
   13.7551   46.9263   38.5254 O   0  0  0  0  0  0  0  0  0  0  0  0
   13.8762   47.1878   39.7545 C   0  0  0  0  0  0  0  0  0  0  0  0
   13.0417   47.8093   40.4475 O   0  0  0  0  0  0  0  0  0  0  0  0
   14.4295   46.4540   38.0782 H   0  0  0  0  0  0  0  0  0  0  0  0
   19.8628   45.2138   45.6291 C   0  0  0  0  0  0  0  0  0  0  0  0
   19.7180   44.4141   46.5853 O   0  0  0  0  0  0  0  0  0  0  0  0
   19.6688   46.4520   45.6674 O   0  0  0  0  0  0  0  0  0  0  0  0
   19.8873   43.5008   46.4620 H   0  0  0  0  0  0  0  0  0  0  0  0
   28.2108   50.7373   40.0269 C   0  0  0  0  0  0  0  0  0  0  0  0
   29.0167   51.2340   38.8270 C   0  0  0  0  0  0  0  0  0  0  0  0
   30.3457   51.5669   39.2881 O   0  0  0  0  0  0  0  0  0  0  0  0
   30.4584   51.3127   40.7231 C   0  0  0  0  0  0  0  0  0  0  0  0
   31.2674   52.4505   41.4029 C   0  0  0  0  0  0  0  0  0  0  0  0
   31.8587   53.2861   40.3487 O   0  0  0  0  0  0  0  0  0  0  0  0
   33.0402   53.9785   40.8920 C   0  0  0  0  0  0  0  0  0  0  0  0
   33.2226   53.7467   42.4322 C   0  0  0  0  0  0  0  0  0  0  0  0
   32.7803   54.9023   43.1808 O   0  0  0  0  0  0  0  0  0  0  0  0
   33.2548   54.8782   44.5829 C   0  0  0  0  0  0  0  0  0  0  0  0
   32.5842   55.9897   45.4104 C   0  0  0  0  0  0  0  0  0  0  0  0
   31.6062   55.5320   46.4610 O   0  0  0  0  0  0  0  0  0  0  0  0
   30.2482   55.6906   46.0341 C   0  0  0  0  0  0  0  0  0  0  0  0
   29.3493   54.7413   46.8063 C   0  0  0  0  0  0  0  0  0  0  0  0
   27.9064   54.8613   46.6245 O   0  0  0  0  0  0  0  0  0  0  0  0
   27.4774   56.0491   45.9414 C   0  0  0  0  0  0  0  0  0  0  0  0
   26.0178   56.0014   45.5517 C   0  0  0  0  0  0  0  0  0  0  0  0
   25.7703   54.7411   44.9076 O   0  0  0  0  0  0  0  0  0  0  0  0
   25.6025   54.9717   43.4999 C   0  0  0  0  0  0  0  0  0  0  0  0
   24.7755   53.8825   42.8050 C   0  0  0  0  0  0  0  0  0  0  0  0
   24.3520   52.9147   43.8337 N   0  0  0  0  0  0  0  0  0  0  0  0
   23.7863   53.2533   44.5649 H   0  0  0  0  0  0  0  0  0  0  0  0
   24.6719   51.6125   43.8581 C   0  0  0  0  0  0  0  0  0  0  0  0
   25.9712   51.1874   43.5594 C   0  0  0  0  0  0  0  0  0  0  0  0
   26.2893   49.8303   43.6057 C   0  0  0  0  0  0  0  0  0  0  0  0
   25.3208   48.8849   43.9553 C   0  0  0  0  0  0  0  0  0  0  0  0
   24.0256   49.3169   44.2589 C   0  0  0  0  0  0  0  0  0  0  0  0
   23.6882   50.6718   44.2135 C   0  0  0  0  0  0  0  0  0  0  0  0
   22.4293   51.0438   44.5099 N   0  0  0  0  0  0  0  0  0  0  0  0
   22.1645   52.0949   45.4204 O   0  0  0  0  0  0  0  0  0  0  0  0
   21.3257   50.3962   43.9132 O   0  0  0  0  0  0  0  0  0  0  0  0
   22.8737   52.5460   45.8344 H   0  0  0  0  0  0  0  0  0  0  0  0
   25.6271   47.5740   43.9925 N   0  0  0  0  0  0  0  0  0  0  0  0
   25.4104   46.8023   45.1821 O   0  0  0  0  0  0  0  0  0  0  0  0
   26.1997   46.9082   42.8544 O   0  0  0  0  0  0  0  0  0  0  0  0
   25.0388   47.2064   45.9414 H   0  0  0  0  0  0  0  0  0  0  0  0
 29 30  1  0  0  0
 30 31  2  0  0  0
 30 28  1  0  0  0
 28 27  1  0  0  0
 27 22  1  0  0  0
 22 23  1  0  0  0
 22 16  1  0  0  0
 23 24  2  0  0  0
 23 25  1  0  0  0
 16 17  1  0  0  0
 17 18  2  0  0  0
 17 19  1  0  0  0
 19 15  1  0  0  0
 15 33  1  0  0  0
 15 14  1  0  0  0
 33 34  1  0  0  0
 33 35  2  0  0  0
 14 13  1  0  0  0
 13 12  1  0  0  0
 12 11  1  0  0  0
 11  6  1  0  0  0
  6  7  1  0  0  0
  6  8  1  0  0  0
  7 10  2  0  0  0
  8  9  2  0  0  0
  9 10  1  0  0  0
 10  5  1  0  0  0
  5  4  1  0  0  0
  4  3  1  0  0  0
  3  2  1  0  0  0
  2  1  1  0  0  0
  1 37  1  0  0  0
 37 38  1  0  0  0
 38 39  1  0  0  0
 39 40  1  0  0  0
 40 41  1  0  0  0
 41 42  1  0  0  0
 42 43  1  0  0  0
 43 44  1  0  0  0
 44 45  1  0  0  0
 45 46  1  0  0  0
 46 47  1  0  0  0
 47 48  1  0  0  0
 48 49  1  0  0  0
 49 50  1  0  0  0
 50 51  1  0  0  0
 51 52  1  0  0  0
 52 53  1  0  0  0
 53 54  1  0  0  0
 54 55  1  0  0  0
 55 56  1  0  0  0
 56 57  1  0  0  0
 57 59  1  0  0  0
 59 60  1  0  0  0
 59 64  2  0  0  0
 60 61  2  0  0  0
 61 62  1  0  0  0
 62 69  1  0  0  0
 62 63  2  0  0  0
 69 70  1  0  0  0
 69 71  2  0  0  0
 63 64  1  0  0  0
 64 65  1  0  0  0
 65 66  1  0  0  0
 65 67  2  0  0  0
 29 32  1  0  0  0
 25 26  1  0  0  0
 16 20  1  0  0  0
 19 21  1  0  0  0
 34 36  1  0  0  0
 57 58  1  0  0  0
 70 72  1  0  0  0
 66 68  1  0  0  0
M  CHG 1  65   1
M  CHG 1  69   1
M  END
> <minimizedAffinity>
-8.08777

$$$$
2XEF_AR8_A_1770


 72 73  0  0  0  0  0  0  0  0999 V2000
   30.4544   49.6265   40.5272 O   0  0  0  0  0  0  0  0  0  0  0  0
   31.0520   50.6319   41.3840 C   0  0  0  0  0  0  0  0  0  0  0  0
   30.6911   52.0668   40.9501 C   0  0  0  0  0  0  0  0  0  0  0  0
   29.8339   52.1053   39.7912 O   0  0  0  0  0  0  0  0  0  0  0  0
   28.5771   52.8013   40.0387 C   0  0  0  0  0  0  0  0  0  0  0  0
   25.8240   50.7021   40.0889 N   0  0  0  0  0  0  0  0  0  0  0  0
   27.1534   50.8216   40.1359 C   0  0  0  0  0  0  0  0  0  0  0  0
   25.2795   51.8144   39.9809 N   0  0  0  0  0  0  0  0  0  0  0  0
   26.1362   52.7164   39.9479 N   0  0  0  0  0  0  0  0  0  0  0  0
   27.3370   52.1358   40.0455 C   0  0  0  0  0  0  0  0  0  0  0  0
   25.0822   49.4229   40.1545 C   0  0  0  0  0  0  0  0  0  0  0  0
   25.8733   48.3571   39.4069 C   0  0  0  0  0  0  0  0  0  0  0  0
   26.5668   47.3476   40.3350 C   0  0  0  0  0  0  0  0  0  0  0  0
   25.4047   46.6631   41.0493 C   0  0  0  0  0  0  0  0  0  0  0  0
   24.5456   45.6978   40.2234 C   0  0  0  0  0  0  0  0  0  0  0  0
   22.1642   45.0910   42.9160 N   0  0  0  0  0  0  0  0  0  0  0  0
   22.9123   45.7822   42.0236 C   0  0  0  0  0  0  0  0  0  0  0  0
   22.7079   47.0010   41.8789 O   0  0  0  0  0  0  0  0  0  0  0  0
   23.7409   45.0686   41.2601 N   0  0  0  0  0  0  0  0  0  0  0  0
   22.0957   44.1101   42.8660 H   0  0  0  0  0  0  0  0  0  0  0  0
   23.8096   44.0966   41.4007 H   0  0  0  0  0  0  0  0  0  0  0  0
   21.4506   45.8519   43.9710 C   0  0  0  0  0  0  0  0  0  0  0  0
   21.6969   45.0979   45.3137 C   0  0  0  0  0  0  0  0  0  0  0  0
   20.8055   45.1537   46.1934 O   0  0  0  0  0  0  0  0  0  0  0  0
   22.7968   44.5155   45.5276 O   0  0  0  0  0  0  0  0  0  0  0  0
   23.4495   44.4855   44.8560 H   0  0  0  0  0  0  0  0  0  0  0  0
   19.9152   45.8832   43.7171 C   0  0  0  0  0  0  0  0  0  0  0  0
   19.4039   44.4464   43.4599 C   0  0  0  0  0  0  0  0  0  0  0  0
   18.5292   43.1666   45.2798 O   0  0  0  0  0  0  0  0  0  0  0  0
   18.2365   43.9682   44.3496 C   0  0  0  0  0  0  0  0  0  0  0  0
   17.0972   44.4320   44.1261 O   0  0  0  0  0  0  0  0  0  0  0  0
   19.4110   42.8655   45.3787 H   0  0  0  0  0  0  0  0  0  0  0  0
   25.4486   44.6121   39.6312 C   0  0  0  0  0  0  0  0  0  0  0  0
   25.9222   44.8547   38.4947 O   0  0  0  0  0  0  0  0  0  0  0  0
   25.5583   43.5334   40.2610 O   0  0  0  0  0  0  0  0  0  0  0  0
   25.7885   45.6944   38.1009 H   0  0  0  0  0  0  0  0  0  0  0  0
   30.2430   48.3919   41.2410 C   0  0  0  0  0  0  0  0  0  0  0  0
   29.7405   48.6563   42.6599 C   0  0  0  0  0  0  0  0  0  0  0  0
   28.8417   47.5839   43.0229 O   0  0  0  0  0  0  0  0  0  0  0  0
   28.6518   47.5558   44.4720 C   0  0  0  0  0  0  0  0  0  0  0  0
   27.1421   47.4176   44.8080 C   0  0  0  0  0  0  0  0  0  0  0  0
   26.5564   48.7646   44.8508 O   0  0  0  0  0  0  0  0  0  0  0  0
   25.2303   48.7313   44.2098 C   0  0  0  0  0  0  0  0  0  0  0  0
   24.7723   50.1394   43.6931 C   0  0  0  0  0  0  0  0  0  0  0  0
   24.2303   50.9314   44.7751 O   0  0  0  0  0  0  0  0  0  0  0  0
   25.0226   52.1566   45.0253 C   0  0  0  0  0  0  0  0  0  0  0  0
   24.1161   53.3156   45.4780 C   0  0  0  0  0  0  0  0  0  0  0  0
   24.1257   54.5419   44.6029 O   0  0  0  0  0  0  0  0  0  0  0  0
   24.8087   54.3115   43.3651 C   0  0  0  0  0  0  0  0  0  0  0  0
   25.9263   55.3251   43.1947 C   0  0  0  0  0  0  0  0  0  0  0  0
   26.4344   55.9941   44.3878 O   0  0  0  0  0  0  0  0  0  0  0  0
   27.6301   56.7640   44.1893 C   0  0  0  0  0  0  0  0  0  0  0  0
   28.7986   55.9182   43.7378 C   0  0  0  0  0  0  0  0  0  0  0  0
   29.9955   56.4729   44.3070 O   0  0  0  0  0  0  0  0  0  0  0  0
   30.5609   55.5107   45.2112 C   0  0  0  0  0  0  0  0  0  0  0  0
   30.0377   55.6519   46.6463 C   0  0  0  0  0  0  0  0  0  0  0  0
   29.6101   54.3164   47.1022 N   0  0  0  0  0  0  0  0  0  0  0  0
   28.8174   53.9251   46.6689 H   0  0  0  0  0  0  0  0  0  0  0  0
   30.2091   53.5894   48.0569 C   0  0  0  0  0  0  0  0  0  0  0  0
   31.6045   53.5199   48.1359 C   0  0  0  0  0  0  0  0  0  0  0  0
   32.2097   52.7719   49.1455 C   0  0  0  0  0  0  0  0  0  0  0  0
   31.4336   52.0919   50.0886 C   0  0  0  0  0  0  0  0  0  0  0  0
   30.0395   52.1706   50.0078 C   0  0  0  0  0  0  0  0  0  0  0  0
   29.4163   52.9117   49.0008 C   0  0  0  0  0  0  0  0  0  0  0  0
   28.0721   52.9580   48.9578 N   0  0  0  0  0  0  0  0  0  0  0  0
   27.3187   53.5352   50.0082 O   0  0  0  0  0  0  0  0  0  0  0  0
   27.3666   52.4336   47.8530 O   0  0  0  0  0  0  0  0  0  0  0  0
   27.7553   53.8926   50.7563 H   0  0  0  0  0  0  0  0  0  0  0  0
   32.0190   51.3639   51.0586 N   0  0  0  0  0  0  0  0  0  0  0  0
   31.4560   51.3084   52.3768 O   0  0  0  0  0  0  0  0  0  0  0  0
   33.2351   50.6367   50.8161 O   0  0  0  0  0  0  0  0  0  0  0  0
   30.6640   51.7712   52.5678 H   0  0  0  0  0  0  0  0  0  0  0  0
 29 30  1  0  0  0
 30 31  2  0  0  0
 30 28  1  0  0  0
 28 27  1  0  0  0
 27 22  1  0  0  0
 22 23  1  0  0  0
 22 16  1  0  0  0
 23 24  2  0  0  0
 23 25  1  0  0  0
 16 17  1  0  0  0
 17 18  2  0  0  0
 17 19  1  0  0  0
 19 15  1  0  0  0
 15 33  1  0  0  0
 15 14  1  0  0  0
 33 34  1  0  0  0
 33 35  2  0  0  0
 14 13  1  0  0  0
 13 12  1  0  0  0
 12 11  1  0  0  0
 11  6  1  0  0  0
  6  7  1  0  0  0
  6  8  1  0  0  0
  7 10  2  0  0  0
  8  9  2  0  0  0
  9 10  1  0  0  0
 10  5  1  0  0  0
  5  4  1  0  0  0
  4  3  1  0  0  0
  3  2  1  0  0  0
  2  1  1  0  0  0
  1 37  1  0  0  0
 37 38  1  0  0  0
 38 39  1  0  0  0
 39 40  1  0  0  0
 40 41  1  0  0  0
 41 42  1  0  0  0
 42 43  1  0  0  0
 43 44  1  0  0  0
 44 45  1  0  0  0
 45 46  1  0  0  0
 46 47  1  0  0  0
 47 48  1  0  0  0
 48 49  1  0  0  0
 49 50  1  0  0  0
 50 51  1  0  0  0
 51 52  1  0  0  0
 52 53  1  0  0  0
 53 54  1  0  0  0
 54 55  1  0  0  0
 55 56  1  0  0  0
 56 57  1  0  0  0
 57 59  1  0  0  0
 59 60  1  0  0  0
 59 64  2  0  0  0
 60 61  2  0  0  0
 61 62  1  0  0  0
 62 69  1  0  0  0
 62 63  2  0  0  0
 69 70  1  0  0  0
 69 71  2  0  0  0
 63 64  1  0  0  0
 64 65  1  0  0  0
 65 66  1  0  0  0
 65 67  2  0  0  0
 29 32  1  0  0  0
 25 26  1  0  0  0
 16 20  1  0  0  0
 19 21  1  0  0  0
 34 36  1  0  0  0
 57 58  1  0  0  0
 70 72  1  0  0  0
 66 68  1  0  0  0
M  CHG 1  65   1
M  CHG 1  69   1
M  END
> <minimizedAffinity>
-8.00190

$$$$
2XEF_AR8_A_1770


 72 73  0  0  0  0  0  0  0  0999 V2000
   32.0304   51.8044   41.1361 O   0  0  0  0  0  0  0  0  0  0  0  0
   31.8404   53.2102   41.4355 C   0  0  0  0  0  0  0  0  0  0  0  0
   30.3523   53.5862   41.5826 C   0  0  0  0  0  0  0  0  0  0  0  0
   29.5022   52.8958   40.6445 O   0  0  0  0  0  0  0  0  0  0  0  0
   28.1335   53.3976   40.6443 C   0  0  0  0  0  0  0  0  0  0  0  0
   25.7411   50.8960   40.5649 N   0  0  0  0  0  0  0  0  0  0  0  0
   27.0111   51.2363   40.7996 C   0  0  0  0  0  0  0  0  0  0  0  0
   25.0713   51.8838   40.2173 N   0  0  0  0  0  0  0  0  0  0  0  0
   25.7835   52.9040   40.1897 N   0  0  0  0  0  0  0  0  0  0  0  0
   27.0189   52.5433   40.5534 C   0  0  0  0  0  0  0  0  0  0  0  0
   25.1888   49.5289   40.6956 C   0  0  0  0  0  0  0  0  0  0  0  0
   26.0322   48.5760   39.8580 C   0  0  0  0  0  0  0  0  0  0  0  0
   25.9576   47.1163   40.3324 C   0  0  0  0  0  0  0  0  0  0  0  0
   24.8720   46.5089   39.4481 C   0  0  0  0  0  0  0  0  0  0  0  0
   24.1892   45.2322   39.9540 C   0  0  0  0  0  0  0  0  0  0  0  0
   22.9903   45.8279   43.3447 N   0  0  0  0  0  0  0  0  0  0  0  0
   22.9477   45.6546   42.0024 C   0  0  0  0  0  0  0  0  0  0  0  0
   21.8426   45.5387   41.4424 O   0  0  0  0  0  0  0  0  0  0  0  0
   24.1182   45.4904   41.3846 N   0  0  0  0  0  0  0  0  0  0  0  0
   23.8148   45.6481   43.8518 H   0  0  0  0  0  0  0  0  0  0  0  0
   24.9511   45.5449   41.9067 H   0  0  0  0  0  0  0  0  0  0  0  0
   21.7607   46.2960   44.0305 C   0  0  0  0  0  0  0  0  0  0  0  0
   22.2235   47.1008   45.2835 C   0  0  0  0  0  0  0  0  0  0  0  0
   21.5265   47.0260   46.3228 O   0  0  0  0  0  0  0  0  0  0  0  0
   23.2291   47.8620   45.2192 O   0  0  0  0  0  0  0  0  0  0  0  0
   23.7363   47.9026   44.4324 H   0  0  0  0  0  0  0  0  0  0  0  0
   20.8901   45.1041   44.5247 C   0  0  0  0  0  0  0  0  0  0  0  0
   21.8083   43.9374   44.9579 C   0  0  0  0  0  0  0  0  0  0  0  0
   20.2512   43.3949   46.6890 O   0  0  0  0  0  0  0  0  0  0  0  0
   21.2318   42.9720   46.0158 C   0  0  0  0  0  0  0  0  0  0  0  0
   21.7347   41.8313   46.1085 O   0  0  0  0  0  0  0  0  0  0  0  0
   19.9342   44.2669   46.5580 H   0  0  0  0  0  0  0  0  0  0  0  0
   25.1402   44.0486   39.7552 C   0  0  0  0  0  0  0  0  0  0  0  0
   25.7391   43.6496   40.7833 O   0  0  0  0  0  0  0  0  0  0  0  0
   25.3338   43.6427   38.5847 O   0  0  0  0  0  0  0  0  0  0  0  0
   25.5261   44.0130   41.6202 H   0  0  0  0  0  0  0  0  0  0  0  0
   32.7669   51.6272   39.9095 C   0  0  0  0  0  0  0  0  0  0  0  0
   33.0583   50.1492   39.6518 C   0  0  0  0  0  0  0  0  0  0  0  0
   32.3248   49.7480   38.4726 O   0  0  0  0  0  0  0  0  0  0  0  0
   30.9485   50.2347   38.5466 C   0  0  0  0  0  0  0  0  0  0  0  0
   30.0253   49.1325   39.1330 C   0  0  0  0  0  0  0  0  0  0  0  0
   29.7786   49.4454   40.5475 O   0  0  0  0  0  0  0  0  0  0  0  0
   30.3530   48.3758   41.3822 C   0  0  0  0  0  0  0  0  0  0  0  0
   30.1267   48.6169   42.9152 C   0  0  0  0  0  0  0  0  0  0  0  0
   29.0983   47.7377   43.4263 O   0  0  0  0  0  0  0  0  0  0  0  0
   27.7467   48.3318   43.3170 C   0  0  0  0  0  0  0  0  0  0  0  0
   26.8970   47.9989   44.5567 C   0  0  0  0  0  0  0  0  0  0  0  0
   25.7608   48.9433   44.8515 O   0  0  0  0  0  0  0  0  0  0  0  0
   26.0398   50.2740   44.4012 C   0  0  0  0  0  0  0  0  0  0  0  0
   24.7414   50.9986   44.0933 C   0  0  0  0  0  0  0  0  0  0  0  0
   24.0304   51.6331   45.1984 O   0  0  0  0  0  0  0  0  0  0  0  0
   23.8900   53.0580   45.0914 C   0  0  0  0  0  0  0  0  0  0  0  0
   25.0607   53.7071   44.3893 C   0  0  0  0  0  0  0  0  0  0  0  0
   25.8721   54.3543   45.3827 O   0  0  0  0  0  0  0  0  0  0  0  0
   25.4711   53.8834   46.6790 C   0  0  0  0  0  0  0  0  0  0  0  0
   26.5961   53.1633   47.4334 C   0  0  0  0  0  0  0  0  0  0  0  0
   27.8142   53.9860   47.3161 N   0  0  0  0  0  0  0  0  0  0  0  0
   27.7395   54.8331   46.8201 H   0  0  0  0  0  0  0  0  0  0  0  0
   29.0152   53.6784   47.8277 C   0  0  0  0  0  0  0  0  0  0  0  0
   29.1372   52.7365   48.8553 C   0  0  0  0  0  0  0  0  0  0  0  0
   30.3962   52.4176   49.3636 C   0  0  0  0  0  0  0  0  0  0  0  0
   31.5449   53.0273   48.8509 C   0  0  0  0  0  0  0  0  0  0  0  0
   31.4167   53.9632   47.8195 C   0  0  0  0  0  0  0  0  0  0  0  0
   30.1632   54.2978   47.3011 C   0  0  0  0  0  0  0  0  0  0  0  0
   30.0848   55.2059   46.3111 N   0  0  0  0  0  0  0  0  0  0  0  0
   29.4948   54.8900   45.0637 O   0  0  0  0  0  0  0  0  0  0  0  0
   30.5872   56.5133   46.4892 O   0  0  0  0  0  0  0  0  0  0  0  0
   29.1513   54.0315   44.9119 H   0  0  0  0  0  0  0  0  0  0  0  0
   32.7594   52.7241   49.3475 N   0  0  0  0  0  0  0  0  0  0  0  0
   32.9046   51.7490   50.3895 O   0  0  0  0  0  0  0  0  0  0  0  0
   33.9466   53.3787   48.8694 O   0  0  0  0  0  0  0  0  0  0  0  0
   32.1505   51.3043   50.7233 H   0  0  0  0  0  0  0  0  0  0  0  0
 29 30  1  0  0  0
 30 31  2  0  0  0
 30 28  1  0  0  0
 28 27  1  0  0  0
 27 22  1  0  0  0
 22 23  1  0  0  0
 22 16  1  0  0  0
 23 24  2  0  0  0
 23 25  1  0  0  0
 16 17  1  0  0  0
 17 18  2  0  0  0
 17 19  1  0  0  0
 19 15  1  0  0  0
 15 33  1  0  0  0
 15 14  1  0  0  0
 33 34  1  0  0  0
 33 35  2  0  0  0
 14 13  1  0  0  0
 13 12  1  0  0  0
 12 11  1  0  0  0
 11  6  1  0  0  0
  6  7  1  0  0  0
  6  8  1  0  0  0
  7 10  2  0  0  0
  8  9  2  0  0  0
  9 10  1  0  0  0
 10  5  1  0  0  0
  5  4  1  0  0  0
  4  3  1  0  0  0
  3  2  1  0  0  0
  2  1  1  0  0  0
  1 37  1  0  0  0
 37 38  1  0  0  0
 38 39  1  0  0  0
 39 40  1  0  0  0
 40 41  1  0  0  0
 41 42  1  0  0  0
 42 43  1  0  0  0
 43 44  1  0  0  0
 44 45  1  0  0  0
 45 46  1  0  0  0
 46 47  1  0  0  0
 47 48  1  0  0  0
 48 49  1  0  0  0
 49 50  1  0  0  0
 50 51  1  0  0  0
 51 52  1  0  0  0
 52 53  1  0  0  0
 53 54  1  0  0  0
 54 55  1  0  0  0
 55 56  1  0  0  0
 56 57  1  0  0  0
 57 59  1  0  0  0
 59 60  1  0  0  0
 59 64  2  0  0  0
 60 61  2  0  0  0
 61 62  1  0  0  0
 62 69  1  0  0  0
 62 63  2  0  0  0
 69 70  1  0  0  0
 69 71  2  0  0  0
 63 64  1  0  0  0
 64 65  1  0  0  0
 65 66  1  0  0  0
 65 67  2  0  0  0
 29 32  1  0  0  0
 25 26  1  0  0  0
 16 20  1  0  0  0
 19 21  1  0  0  0
 34 36  1  0  0  0
 57 58  1  0  0  0
 70 72  1  0  0  0
 66 68  1  0  0  0
M  CHG 1  65   1
M  CHG 1  69   1
M  END
> <minimizedAffinity>
-7.93422

$$$$
2XEF_AR8_A_1770


 72 73  0  0  0  0  0  0  0  0999 V2000
   27.6723   48.7518   38.8454 O   0  0  0  0  0  0  0  0  0  0  0  0
   26.3459   48.7334   39.4307 C   0  0  0  0  0  0  0  0  0  0  0  0
   25.2346   48.6042   38.3696 C   0  0  0  0  0  0  0  0  0  0  0  0
   25.5356   47.6234   37.3563 O   0  0  0  0  0  0  0  0  0  0  0  0
   24.7778   46.3888   37.5197 C   0  0  0  0  0  0  0  0  0  0  0  0
   24.6940   44.6798   40.5297 N   0  0  0  0  0  0  0  0  0  0  0  0
   24.1804   45.6484   39.7669 C   0  0  0  0  0  0  0  0  0  0  0  0
   25.6211   44.0946   39.9439 N   0  0  0  0  0  0  0  0  0  0  0  0
   25.7997   44.5852   38.8141 N   0  0  0  0  0  0  0  0  0  0  0  0
   24.9089   45.5702   38.6568 C   0  0  0  0  0  0  0  0  0  0  0  0
   24.2327   44.3366   41.8937 C   0  0  0  0  0  0  0  0  0  0  0  0
   22.8588   44.9555   42.1181 C   0  0  0  0  0  0  0  0  0  0  0  0
   22.6630   45.5096   43.5380 C   0  0  0  0  0  0  0  0  0  0  0  0
   21.3097   46.2112   43.4635 C   0  0  0  0  0  0  0  0  0  0  0  0
   20.0943   45.4484   44.0049 C   0  0  0  0  0  0  0  0  0  0  0  0
   17.1616   45.3823   41.8407 N   0  0  0  0  0  0  0  0  0  0  0  0
   18.0886   44.9438   42.7251 C   0  0  0  0  0  0  0  0  0  0  0  0
   17.9110   43.8526   43.2960 O   0  0  0  0  0  0  0  0  0  0  0  0
   19.0783   45.7879   43.0197 N   0  0  0  0  0  0  0  0  0  0  0  0
   17.1163   46.3319   41.5848 H   0  0  0  0  0  0  0  0  0  0  0  0
   19.1224   46.6582   42.5616 H   0  0  0  0  0  0  0  0  0  0  0  0
   16.2160   44.3928   41.2679 C   0  0  0  0  0  0  0  0  0  0  0  0
   16.6284   44.1871   39.7781 C   0  0  0  0  0  0  0  0  0  0  0  0
   17.7139   44.6820   39.3930 O   0  0  0  0  0  0  0  0  0  0  0  0
   15.8492   43.6039   38.9735 O   0  0  0  0  0  0  0  0  0  0  0  0
   15.0425   43.2409   39.2825 H   0  0  0  0  0  0  0  0  0  0  0  0
   14.7515   44.9200   41.2883 C   0  0  0  0  0  0  0  0  0  0  0  0
   14.7583   46.4666   41.2930 C   0  0  0  0  0  0  0  0  0  0  0  0
   13.7585   46.5318   39.1224 O   0  0  0  0  0  0  0  0  0  0  0  0
   14.4965   47.1542   39.9359 C   0  0  0  0  0  0  0  0  0  0  0  0
   14.9869   48.2884   39.7459 O   0  0  0  0  0  0  0  0  0  0  0  0
   13.4309   45.6821   39.3427 H   0  0  0  0  0  0  0  0  0  0  0  0
   19.6643   46.0782   45.3328 C   0  0  0  0  0  0  0  0  0  0  0  0
   19.0915   47.1916   45.2498 O   0  0  0  0  0  0  0  0  0  0  0  0
   20.0072   45.5023   46.3926 O   0  0  0  0  0  0  0  0  0  0  0  0
   18.8726   47.5445   44.4099 H   0  0  0  0  0  0  0  0  0  0  0  0
   28.5709   49.5748   39.6158 C   0  0  0  0  0  0  0  0  0  0  0  0
   28.8528   50.8971   38.9031 C   0  0  0  0  0  0  0  0  0  0  0  0
   28.3300   51.9669   39.7226 O   0  0  0  0  0  0  0  0  0  0  0  0
   28.8858   53.2483   39.2915 C   0  0  0  0  0  0  0  0  0  0  0  0
   27.7553   54.1614   38.7444 C   0  0  0  0  0  0  0  0  0  0  0  0
   28.1553   54.6393   37.4136 O   0  0  0  0  0  0  0  0  0  0  0  0
   27.0564   55.4355   36.8399 C   0  0  0  0  0  0  0  0  0  0  0  0
   26.1926   56.1525   37.9350 C   0  0  0  0  0  0  0  0  0  0  0  0
   25.0446   56.8003   37.3398 O   0  0  0  0  0  0  0  0  0  0  0  0
   25.4109   57.6234   36.1652 C   0  0  0  0  0  0  0  0  0  0  0  0
   24.6771   58.9764   36.1906 C   0  0  0  0  0  0  0  0  0  0  0  0
   25.1062   59.9403   37.2661 O   0  0  0  0  0  0  0  0  0  0  0  0
   26.5157   59.8753   37.5123 C   0  0  0  0  0  0  0  0  0  0  0  0
   26.7752   59.7586   39.0038 C   0  0  0  0  0  0  0  0  0  0  0  0
   25.7353   59.1645   39.8374 O   0  0  0  0  0  0  0  0  0  0  0  0
   26.0195   59.1506   41.2447 C   0  0  0  0  0  0  0  0  0  0  0  0
   27.3973   58.6118   41.5549 C   0  0  0  0  0  0  0  0  0  0  0  0
   27.2490   57.2740   42.0574 O   0  0  0  0  0  0  0  0  0  0  0  0
   26.2620   57.2837   43.1008 C   0  0  0  0  0  0  0  0  0  0  0  0
   25.3158   56.0775   43.0470 C   0  0  0  0  0  0  0  0  0  0  0  0
   25.9102   55.0033   43.8638 N   0  0  0  0  0  0  0  0  0  0  0  0
   26.6508   55.2508   44.4635 H   0  0  0  0  0  0  0  0  0  0  0  0
   25.5278   53.7178   43.8594 C   0  0  0  0  0  0  0  0  0  0  0  0
   26.1311   52.7930   42.9998 C   0  0  0  0  0  0  0  0  0  0  0  0
   25.7314   51.4570   43.0208 C   0  0  0  0  0  0  0  0  0  0  0  0
   24.7333   51.0276   43.9004 C   0  0  0  0  0  0  0  0  0  0  0  0
   24.1387   51.9557   44.7614 C   0  0  0  0  0  0  0  0  0  0  0  0
   24.5238   53.2986   44.7510 C   0  0  0  0  0  0  0  0  0  0  0  0
   23.9233   54.1589   45.5939 N   0  0  0  0  0  0  0  0  0  0  0  0
   22.5282   54.3931   45.5407 O   0  0  0  0  0  0  0  0  0  0  0  0
   24.6709   54.8553   46.5683 O   0  0  0  0  0  0  0  0  0  0  0  0
   22.0022   53.9474   44.9061 H   0  0  0  0  0  0  0  0  0  0  0  0
   24.3429   49.7388   43.9147 N   0  0  0  0  0  0  0  0  0  0  0  0
   23.3938   49.2480   42.9577 O   0  0  0  0  0  0  0  0  0  0  0  0
   24.8437   48.8174   44.8979 O   0  0  0  0  0  0  0  0  0  0  0  0
   23.0480   49.8229   42.3036 H   0  0  0  0  0  0  0  0  0  0  0  0
 29 30  1  0  0  0
 30 31  2  0  0  0
 30 28  1  0  0  0
 28 27  1  0  0  0
 27 22  1  0  0  0
 22 23  1  0  0  0
 22 16  1  0  0  0
 23 24  2  0  0  0
 23 25  1  0  0  0
 16 17  1  0  0  0
 17 18  2  0  0  0
 17 19  1  0  0  0
 19 15  1  0  0  0
 15 33  1  0  0  0
 15 14  1  0  0  0
 33 34  1  0  0  0
 33 35  2  0  0  0
 14 13  1  0  0  0
 13 12  1  0  0  0
 12 11  1  0  0  0
 11  6  1  0  0  0
  6  7  1  0  0  0
  6  8  1  0  0  0
  7 10  2  0  0  0
  8  9  2  0  0  0
  9 10  1  0  0  0
 10  5  1  0  0  0
  5  4  1  0  0  0
  4  3  1  0  0  0
  3  2  1  0  0  0
  2  1  1  0  0  0
  1 37  1  0  0  0
 37 38  1  0  0  0
 38 39  1  0  0  0
 39 40  1  0  0  0
 40 41  1  0  0  0
 41 42  1  0  0  0
 42 43  1  0  0  0
 43 44  1  0  0  0
 44 45  1  0  0  0
 45 46  1  0  0  0
 46 47  1  0  0  0
 47 48  1  0  0  0
 48 49  1  0  0  0
 49 50  1  0  0  0
 50 51  1  0  0  0
 51 52  1  0  0  0
 52 53  1  0  0  0
 53 54  1  0  0  0
 54 55  1  0  0  0
 55 56  1  0  0  0
 56 57  1  0  0  0
 57 59  1  0  0  0
 59 60  1  0  0  0
 59 64  2  0  0  0
 60 61  2  0  0  0
 61 62  1  0  0  0
 62 69  1  0  0  0
 62 63  2  0  0  0
 69 70  1  0  0  0
 69 71  2  0  0  0
 63 64  1  0  0  0
 64 65  1  0  0  0
 65 66  1  0  0  0
 65 67  2  0  0  0
 29 32  1  0  0  0
 25 26  1  0  0  0
 16 20  1  0  0  0
 19 21  1  0  0  0
 34 36  1  0  0  0
 57 58  1  0  0  0
 70 72  1  0  0  0
 66 68  1  0  0  0
M  CHG 1  65   1
M  CHG 1  69   1
M  END
> <minimizedAffinity>
-7.88641

$$$$
2XEF_AR8_A_1770


 72 73  0  0  0  0  0  0  0  0999 V2000
   30.1474   49.4621   40.0787 O   0  0  0  0  0  0  0  0  0  0  0  0
   28.9139   50.1186   40.4655 C   0  0  0  0  0  0  0  0  0  0  0  0
   27.8842   50.1623   39.3186 C   0  0  0  0  0  0  0  0  0  0  0  0
   27.7086   48.8857   38.6714 O   0  0  0  0  0  0  0  0  0  0  0  0
   26.3082   48.4990   38.5515 C   0  0  0  0  0  0  0  0  0  0  0  0
   24.7495   46.3783   40.8014 N   0  0  0  0  0  0  0  0  0  0  0  0
   25.4649   46.5068   39.6808 C   0  0  0  0  0  0  0  0  0  0  0  0
   24.5082   47.4882   41.3064 N   0  0  0  0  0  0  0  0  0  0  0  0
   25.0056   48.3971   40.6169 N   0  0  0  0  0  0  0  0  0  0  0  0
   25.6234   47.8234   39.5787 C   0  0  0  0  0  0  0  0  0  0  0  0
   24.2957   45.0929   41.3780 C   0  0  0  0  0  0  0  0  0  0  0  0
   22.7865   45.1494   41.5777 C   0  0  0  0  0  0  0  0  0  0  0  0
   22.3630   45.0906   43.0537 C   0  0  0  0  0  0  0  0  0  0  0  0
   21.0281   45.8303   43.0714 C   0  0  0  0  0  0  0  0  0  0  0  0
   19.8950   45.2112   43.8990 C   0  0  0  0  0  0  0  0  0  0  0  0
   16.7774   45.2297   42.0096 N   0  0  0  0  0  0  0  0  0  0  0  0
   17.8663   44.7350   42.6446 C   0  0  0  0  0  0  0  0  0  0  0  0
   17.9500   43.5081   42.8346 O   0  0  0  0  0  0  0  0  0  0  0  0
   18.7239   45.6274   43.1416 N   0  0  0  0  0  0  0  0  0  0  0  0
   16.5384   46.1820   42.0830 H   0  0  0  0  0  0  0  0  0  0  0  0
   18.5615   46.5870   42.9930 H   0  0  0  0  0  0  0  0  0  0  0  0
   15.9544   44.2978   41.2000 C   0  0  0  0  0  0  0  0  0  0  0  0
   16.5003   44.3674   39.7409 C   0  0  0  0  0  0  0  0  0  0  0  0
   17.7208   44.6035   39.5786 O   0  0  0  0  0  0  0  0  0  0  0  0
   15.7140   44.2637   38.7582 O   0  0  0  0  0  0  0  0  0  0  0  0
   14.8051   44.0869   38.9021 H   0  0  0  0  0  0  0  0  0  0  0  0
   14.4594   44.7303   41.1703 C   0  0  0  0  0  0  0  0  0  0  0  0
   14.3639   46.2700   41.2802 C   0  0  0  0  0  0  0  0  0  0  0  0
   12.9254   47.9289   40.3345 O   0  0  0  0  0  0  0  0  0  0  0  0
   13.7424   47.0030   40.0720 C   0  0  0  0  0  0  0  0  0  0  0  0
   14.1147   46.6701   38.9259 O   0  0  0  0  0  0  0  0  0  0  0  0
   12.6985   48.1152   41.2243 H   0  0  0  0  0  0  0  0  0  0  0  0
   19.8291   45.9167   45.2564 C   0  0  0  0  0  0  0  0  0  0  0  0
   20.1356   45.2167   46.2519 O   0  0  0  0  0  0  0  0  0  0  0  0
   19.3759   47.0854   45.2880 O   0  0  0  0  0  0  0  0  0  0  0  0
   20.4685   44.3494   46.1301 H   0  0  0  0  0  0  0  0  0  0  0  0
   30.6988   48.7019   41.1725 C   0  0  0  0  0  0  0  0  0  0  0  0
   31.3480   49.6198   42.2078 C   0  0  0  0  0  0  0  0  0  0  0  0
   32.6904   49.1412   42.4501 O   0  0  0  0  0  0  0  0  0  0  0  0
   33.3258   48.7657   41.1884 C   0  0  0  0  0  0  0  0  0  0  0  0
   34.1558   49.9561   40.6358 C   0  0  0  0  0  0  0  0  0  0  0  0
   34.4618   50.8599   41.7533 O   0  0  0  0  0  0  0  0  0  0  0  0
   35.1772   52.0387   41.2343 C   0  0  0  0  0  0  0  0  0  0  0  0
   34.2624   53.3089   41.1398 C   0  0  0  0  0  0  0  0  0  0  0  0
   33.6226   53.3850   39.8449 O   0  0  0  0  0  0  0  0  0  0  0  0
   32.2133   52.9341   39.8878 C   0  0  0  0  0  0  0  0  0  0  0  0
   31.2575   54.1295   40.0537 C   0  0  0  0  0  0  0  0  0  0  0  0
   30.9300   54.8925   38.7966 O   0  0  0  0  0  0  0  0  0  0  0  0
   29.8388   54.3024   38.0808 C   0  0  0  0  0  0  0  0  0  0  0  0
   28.6634   54.0850   39.0172 C   0  0  0  0  0  0  0  0  0  0  0  0
   28.1308   55.2412   39.7306 O   0  0  0  0  0  0  0  0  0  0  0  0
   26.8685   55.0251   40.3798 C   0  0  0  0  0  0  0  0  0  0  0  0
   26.4879   53.5635   40.4407 C   0  0  0  0  0  0  0  0  0  0  0  0
   25.0825   53.4814   40.7276 O   0  0  0  0  0  0  0  0  0  0  0  0
   24.8944   52.6000   41.8460 C   0  0  0  0  0  0  0  0  0  0  0  0
   24.4860   53.3336   43.1297 C   0  0  0  0  0  0  0  0  0  0  0  0
   24.0224   52.3221   44.0973 N   0  0  0  0  0  0  0  0  0  0  0  0
   23.2839   52.5770   44.6964 H   0  0  0  0  0  0  0  0  0  0  0  0
   24.5212   51.0843   44.2307 C   0  0  0  0  0  0  0  0  0  0  0  0
   25.8984   50.8766   44.3649 C   0  0  0  0  0  0  0  0  0  0  0  0
   26.3973   49.5833   44.5188 C   0  0  0  0  0  0  0  0  0  0  0  0
   25.5314   48.4863   44.5469 C   0  0  0  0  0  0  0  0  0  0  0  0
   24.1554   48.7012   44.4185 C   0  0  0  0  0  0  0  0  0  0  0  0
   23.6385   49.9893   44.2594 C   0  0  0  0  0  0  0  0  0  0  0  0
   22.3082   50.1509   44.1361 N   0  0  0  0  0  0  0  0  0  0  0  0
   21.6803   51.3787   44.4558 O   0  0  0  0  0  0  0  0  0  0  0  0
   21.4923   49.0947   43.6754 O   0  0  0  0  0  0  0  0  0  0  0  0
   22.1921   52.1003   44.7644 H   0  0  0  0  0  0  0  0  0  0  0  0
   26.0148   47.2373   44.6881 N   0  0  0  0  0  0  0  0  0  0  0  0
   27.3808   47.0165   45.0661 O   0  0  0  0  0  0  0  0  0  0  0  0
   25.1900   46.0852   44.4453 O   0  0  0  0  0  0  0  0  0  0  0  0
   27.9449   47.7461   45.2314 H   0  0  0  0  0  0  0  0  0  0  0  0
 29 30  1  0  0  0
 30 31  2  0  0  0
 30 28  1  0  0  0
 28 27  1  0  0  0
 27 22  1  0  0  0
 22 23  1  0  0  0
 22 16  1  0  0  0
 23 24  2  0  0  0
 23 25  1  0  0  0
 16 17  1  0  0  0
 17 18  2  0  0  0
 17 19  1  0  0  0
 19 15  1  0  0  0
 15 33  1  0  0  0
 15 14  1  0  0  0
 33 34  1  0  0  0
 33 35  2  0  0  0
 14 13  1  0  0  0
 13 12  1  0  0  0
 12 11  1  0  0  0
 11  6  1  0  0  0
  6  7  1  0  0  0
  6  8  1  0  0  0
  7 10  2  0  0  0
  8  9  2  0  0  0
  9 10  1  0  0  0
 10  5  1  0  0  0
  5  4  1  0  0  0
  4  3  1  0  0  0
  3  2  1  0  0  0
  2  1  1  0  0  0
  1 37  1  0  0  0
 37 38  1  0  0  0
 38 39  1  0  0  0
 39 40  1  0  0  0
 40 41  1  0  0  0
 41 42  1  0  0  0
 42 43  1  0  0  0
 43 44  1  0  0  0
 44 45  1  0  0  0
 45 46  1  0  0  0
 46 47  1  0  0  0
 47 48  1  0  0  0
 48 49  1  0  0  0
 49 50  1  0  0  0
 50 51  1  0  0  0
 51 52  1  0  0  0
 52 53  1  0  0  0
 53 54  1  0  0  0
 54 55  1  0  0  0
 55 56  1  0  0  0
 56 57  1  0  0  0
 57 59  1  0  0  0
 59 60  1  0  0  0
 59 64  2  0  0  0
 60 61  2  0  0  0
 61 62  1  0  0  0
 62 69  1  0  0  0
 62 63  2  0  0  0
 69 70  1  0  0  0
 69 71  2  0  0  0
 63 64  1  0  0  0
 64 65  1  0  0  0
 65 66  1  0  0  0
 65 67  2  0  0  0
 29 32  1  0  0  0
 25 26  1  0  0  0
 16 20  1  0  0  0
 19 21  1  0  0  0
 34 36  1  0  0  0
 57 58  1  0  0  0
 70 72  1  0  0  0
 66 68  1  0  0  0
M  CHG 1  65   1
M  CHG 1  69   1
M  END
> <minimizedAffinity>
-7.75056

$$$$
