6CDJ_GR8_A_201


 52 58  0  0  0  0  0  0  0  0999 V2000
   16.0636   24.1198   18.3239 C   0  0  0  0  0  0  0  0  0  0  0  0
   15.5357   25.3378   18.8521 O   0  0  0  0  0  0  0  0  0  0  0  0
   15.5799   25.3161   19.8208 H   0  0  0  0  0  0  0  0  0  0  0  0
   15.2109   22.9271   18.7663 C   0  0  0  0  0  0  0  0  0  0  0  0
   15.4540   21.7556   17.9428 N   0  0  0  0  0  0  0  0  0  0  0  0
   15.9483   20.4048   18.7356 S   0  0  0  0  0  0  0  0  0  0  0  0
   16.7049   20.8574   19.8904 O   0  0  0  0  0  0  0  0  0  0  0  0
   16.6604   19.5766   17.7402 O   0  0  0  0  0  0  0  0  0  0  0  0
   11.4706   17.3058   17.8547 S   0  0  0  0  0  0  0  0  0  0  0  0
   11.1214   17.5438   20.3514 N   0  0  0  0  0  0  0  0  0  0  0  0
   10.5586   16.9816   19.3229 C   0  0  0  0  0  0  0  0  0  0  0  0
   12.2329   18.2168   20.1042 C   0  0  0  0  0  0  0  0  0  0  0  0
   12.6615   18.1974   18.7821 C   0  0  0  0  0  0  0  0  0  0  0  0
   13.7903   18.7975   18.3659 C   0  0  0  0  0  0  0  0  0  0  0  0
   14.5519   19.5032   19.2913 C   0  0  0  0  0  0  0  0  0  0  0  0
   14.1759   19.5385   20.6302 C   0  0  0  0  0  0  0  0  0  0  0  0
   13.0361   18.8312   21.0072 C   0  0  0  0  0  0  0  0  0  0  0  0
    9.4628   16.2803   19.3435 N   0  0  0  0  0  0  0  0  0  0  0  0
    8.6817   16.6204   19.8368 H   0  0  0  0  0  0  0  0  0  0  0  0
    9.3687   15.0014   18.6510 C   0  0  0  0  0  0  0  0  0  0  0  0
    7.9312   14.4965   18.6702 C   0  0  0  0  0  0  0  0  0  0  0  0
    8.5340   15.0014   17.3879 C   0  0  0  0  0  0  0  0  0  0  0  0
   14.5462   21.5583   16.8287 C   0  0  0  0  0  0  0  0  0  0  0  0
   14.9502   22.3735   15.5824 C   0  0  0  0  0  0  0  0  0  0  0  0
   15.7207   21.4350   14.6437 C   0  0  0  0  0  0  0  0  0  0  0  0
   13.6728   22.8866   14.9151 C   0  0  0  0  0  0  0  0  0  0  0  0
   17.5306   23.9690   18.6627 C   0  0  0  0  0  0  0  0  0  0  0  0
   18.3307   24.9196   17.8661 N   0  0  0  0  0  0  0  0  0  0  0  0
   18.8549   24.5689   16.6916 C   0  0  0  0  0  0  0  0  0  0  0  0
   18.4899   23.5675   16.0491 O   0  0  0  0  0  0  0  0  0  0  0  0
   18.4802   25.8304   18.2087 H   0  0  0  0  0  0  0  0  0  0  0  0
   19.7138   25.4559   16.1691 O   0  0  0  0  0  0  0  0  0  0  0  0
   20.9646   24.9244   15.7350 C   0  0  0  0  0  0  0  0  0  0  0  0
   21.8046   25.9694   15.0510 C   0  0  0  0  0  0  0  0  0  0  0  0
   22.5296   26.7382   16.1209 C   0  0  0  0  0  0  0  0  0  0  0  0
   22.0201   28.0951   16.4725 C   0  0  0  0  0  0  0  0  0  0  0  0
   21.0551   27.8802   17.5231 O   0  0  0  0  0  0  0  0  0  0  0  0
   21.4724   26.7678   18.3042 C   0  0  0  0  0  0  0  0  0  0  0  0
   22.3488   25.9339   17.3957 C   0  0  0  0  0  0  0  0  0  0  0  0
   21.8151   24.5852   16.9545 C   0  0  0  0  0  0  0  0  0  0  0  0
   21.0943   26.8607   14.0346 C   0  0  0  0  0  0  0  0  0  0  0  0
   20.4002   28.0023   14.7492 C   0  0  0  0  0  0  0  0  0  0  0  0
   21.4100   28.8204   15.3999 O   0  0  0  0  0  0  0  0  0  0  0  0
   17.8179   24.1163   20.1461 C   0  0  0  0  0  0  0  0  0  0  0  0
   20.1209   24.8494   20.9261 C   0  0  0  0  0  0  0  0  0  0  0  0
   21.4886   24.6035   21.0668 C   0  0  0  0  0  0  0  0  0  0  0  0
   22.0077   23.3189   20.9595 C   0  0  0  0  0  0  0  0  0  0  0  0
   21.1137   22.3595   20.5209 C   0  0  0  0  0  0  0  0  0  0  0  0
   19.7755   22.6014   20.3157 C   0  0  0  0  0  0  0  0  0  0  0  0
   19.2602   23.8629   20.5050 C   0  0  0  0  0  0  0  0  0  0  0  0
   22.3331   25.5904   21.4540 F   0  0  0  0  0  0  0  0  0  0  0  0
   21.6069   21.1213   20.2947 F   0  0  0  0  0  0  0  0  0  0  0  0
 41 42  1  0  0  0
 41 34  1  0  0  0
 26 24  1  0  0  0
 42 43  1  0  0  0
 25 24  1  0  0  0
 34 35  1  0  0  0
 34 33  1  0  0  0
 43 36  1  0  0  0
 24 23  1  0  0  0
 35 36  1  0  0  0
 35 39  1  0  0  0
 33 32  1  0  0  0
 33 40  1  0  0  0
 36 37  1  0  0  0
 32 29  1  0  0  0
 30 29  2  0  0  0
 23  5  1  0  0  0
 40 39  1  0  0  0
 29 28  1  0  0  0
 39 38  1  0  0  0
 22 21  1  0  0  0
 22 20  1  0  0  0
 37 38  1  0  0  0
  8  6  2  0  0  0
  5  6  1  0  0  0
  5  4  1  0  0  0
 28 27  1  0  0  0
  9 13  1  0  0  0
  9 11  1  0  0  0
  1 27  1  0  0  0
  1  4  1  0  0  0
  1  2  1  0  0  0
 14 13  2  0  0  0
 14 15  1  0  0  0
 21 20  1  0  0  0
  6 15  1  0  0  0
  6  7  2  0  0  0
 27 44  1  0  0  0
 20 18  1  0  0  0
 13 12  1  0  0  0
 15 16  2  0  0  0
 11 18  1  0  0  0
 11 10  2  0  0  0
 52 48  1  0  0  0
 44 50  1  0  0  0
 12 10  1  0  0  0
 12 17  2  0  0  0
 49 48  2  0  0  0
 49 50  1  0  0  0
 48 47  1  0  0  0
 50 45  2  0  0  0
 16 17  1  0  0  0
 47 46  2  0  0  0
 45 46  1  0  0  0
 46 51  1  0  0  0
 18 19  1  0  0  0
  2  3  1  0  0  0
 28 31  1  0  0  0
M  END
> <minimizedAffinity>
-11.12288

$$$$
6CDJ_GR8_A_201


 52 58  0  0  0  0  0  0  0  0999 V2000
   18.0840   21.5181   17.0599 C   0  0  0  0  0  0  0  0  0  0  0  0
   18.8331   20.4908   16.4081 O   0  0  0  0  0  0  0  0  0  0  0  0
   18.2583   20.0158   15.7876 H   0  0  0  0  0  0  0  0  0  0  0  0
   16.9552   20.9114   17.8983 C   0  0  0  0  0  0  0  0  0  0  0  0
   16.6929   21.6922   19.0947 N   0  0  0  0  0  0  0  0  0  0  0  0
   15.1249   21.7707   19.5771 S   0  0  0  0  0  0  0  0  0  0  0  0
   14.5264   22.8817   18.8572 O   0  0  0  0  0  0  0  0  0  0  0  0
   15.1482   21.8523   21.0525 O   0  0  0  0  0  0  0  0  0  0  0  0
   11.3120   18.9834   16.7272 S   0  0  0  0  0  0  0  0  0  0  0  0
   12.0793   17.0084   18.1139 N   0  0  0  0  0  0  0  0  0  0  0  0
   11.2194   17.2864   17.1792 C   0  0  0  0  0  0  0  0  0  0  0  0
   12.8340   18.0156   18.5211 C   0  0  0  0  0  0  0  0  0  0  0  0
   12.6240   19.2227   17.8648 C   0  0  0  0  0  0  0  0  0  0  0  0
   13.3307   20.3357   18.1284 C   0  0  0  0  0  0  0  0  0  0  0  0
   14.2956   20.2931   19.1292 C   0  0  0  0  0  0  0  0  0  0  0  0
   14.5565   19.1049   19.8038 C   0  0  0  0  0  0  0  0  0  0  0  0
   13.8406   17.9700   19.4281 C   0  0  0  0  0  0  0  0  0  0  0  0
   10.3822   16.4481   16.6413 N   0  0  0  0  0  0  0  0  0  0  0  0
    9.4243   16.5171   16.8578 H   0  0  0  0  0  0  0  0  0  0  0  0
   10.8340   15.4091   15.7247 C   0  0  0  0  0  0  0  0  0  0  0  0
    9.9260   15.3536   14.5024 C   0  0  0  0  0  0  0  0  0  0  0  0
   11.3242   15.8938   14.3768 C   0  0  0  0  0  0  0  0  0  0  0  0
   17.6910   21.6083   20.1439 C   0  0  0  0  0  0  0  0  0  0  0  0
   18.7925   22.6796   20.0023 C   0  0  0  0  0  0  0  0  0  0  0  0
   18.3728   23.8910   20.8460 C   0  0  0  0  0  0  0  0  0  0  0  0
   20.1045   22.0836   20.5160 C   0  0  0  0  0  0  0  0  0  0  0  0
   17.6058   22.5567   16.0688 C   0  0  0  0  0  0  0  0  0  0  0  0
   18.6883   23.5202   15.7888 N   0  0  0  0  0  0  0  0  0  0  0  0
   18.6982   24.7313   16.3459 C   0  0  0  0  0  0  0  0  0  0  0  0
   18.0028   25.0389   17.3312 O   0  0  0  0  0  0  0  0  0  0  0  0
   19.4172   23.2636   15.1788 H   0  0  0  0  0  0  0  0  0  0  0  0
   19.6250   25.5691   15.8595 O   0  0  0  0  0  0  0  0  0  0  0  0
   20.8755   24.9755   15.5141 C   0  0  0  0  0  0  0  0  0  0  0  0
   21.8667   26.0046   15.0405 C   0  0  0  0  0  0  0  0  0  0  0  0
   22.5141   26.6029   16.2588 C   0  0  0  0  0  0  0  0  0  0  0  0
   22.0689   27.9591   16.6913 C   0  0  0  0  0  0  0  0  0  0  0  0
   20.9722   27.7292   17.5998 O   0  0  0  0  0  0  0  0  0  0  0  0
   21.2092   26.5158   18.3021 C   0  0  0  0  0  0  0  0  0  0  0  0
   22.1231   25.6997   17.4147 C   0  0  0  0  0  0  0  0  0  0  0  0
   21.5469   24.4500   16.7786 C   0  0  0  0  0  0  0  0  0  0  0  0
   21.3511   27.0462   14.0500 C   0  0  0  0  0  0  0  0  0  0  0  0
   20.6637   28.1702   14.7983 C   0  0  0  0  0  0  0  0  0  0  0  0
   21.6468   28.8329   15.6390 O   0  0  0  0  0  0  0  0  0  0  0  0
   17.0629   21.9516   14.7866 C   0  0  0  0  0  0  0  0  0  0  0  0
   14.9000   20.7226   14.2762 C   0  0  0  0  0  0  0  0  0  0  0  0
   13.5125   20.7256   14.1159 C   0  0  0  0  0  0  0  0  0  0  0  0
   12.7288   21.7599   14.6132 C   0  0  0  0  0  0  0  0  0  0  0  0
   13.4313   22.8498   15.0934 C   0  0  0  0  0  0  0  0  0  0  0  0
   14.8021   22.8875   15.1977 C   0  0  0  0  0  0  0  0  0  0  0  0
   15.5610   21.8205   14.7751 C   0  0  0  0  0  0  0  0  0  0  0  0
   12.8734   19.6496   13.5956 F   0  0  0  0  0  0  0  0  0  0  0  0
   12.7063   23.9229   15.4810 F   0  0  0  0  0  0  0  0  0  0  0  0
 41 42  1  0  0  0
 41 34  1  0  0  0
 26 24  1  0  0  0
 42 43  1  0  0  0
 25 24  1  0  0  0
 34 35  1  0  0  0
 34 33  1  0  0  0
 43 36  1  0  0  0
 24 23  1  0  0  0
 35 36  1  0  0  0
 35 39  1  0  0  0
 33 32  1  0  0  0
 33 40  1  0  0  0
 36 37  1  0  0  0
 32 29  1  0  0  0
 30 29  2  0  0  0
 23  5  1  0  0  0
 40 39  1  0  0  0
 29 28  1  0  0  0
 39 38  1  0  0  0
 22 21  1  0  0  0
 22 20  1  0  0  0
 37 38  1  0  0  0
  8  6  2  0  0  0
  5  6  1  0  0  0
  5  4  1  0  0  0
 28 27  1  0  0  0
  9 13  1  0  0  0
  9 11  1  0  0  0
  1 27  1  0  0  0
  1  4  1  0  0  0
  1  2  1  0  0  0
 14 13  2  0  0  0
 14 15  1  0  0  0
 21 20  1  0  0  0
  6 15  1  0  0  0
  6  7  2  0  0  0
 27 44  1  0  0  0
 20 18  1  0  0  0
 13 12  1  0  0  0
 15 16  2  0  0  0
 11 18  1  0  0  0
 11 10  2  0  0  0
 52 48  1  0  0  0
 44 50  1  0  0  0
 12 10  1  0  0  0
 12 17  2  0  0  0
 49 48  2  0  0  0
 49 50  1  0  0  0
 48 47  1  0  0  0
 50 45  2  0  0  0
 16 17  1  0  0  0
 47 46  2  0  0  0
 45 46  1  0  0  0
 46 51  1  0  0  0
 18 19  1  0  0  0
  2  3  1  0  0  0
 28 31  1  0  0  0
M  END
> <minimizedAffinity>
-10.54470

$$$$
6CDJ_GR8_A_201


 52 58  0  0  0  0  0  0  0  0999 V2000
   18.0690   22.7826   17.7782 C   0  0  0  0  0  0  0  0  0  0  0  0
   17.3942   23.7972   18.5242 O   0  0  0  0  0  0  0  0  0  0  0  0
   17.4230   23.5774   19.4685 H   0  0  0  0  0  0  0  0  0  0  0  0
   17.3518   21.4378   17.9282 C   0  0  0  0  0  0  0  0  0  0  0  0
   15.9099   21.5819   17.8291 N   0  0  0  0  0  0  0  0  0  0  0  0
   15.1081   21.8166   19.2431 S   0  0  0  0  0  0  0  0  0  0  0  0
   14.2579   22.9785   19.0478 O   0  0  0  0  0  0  0  0  0  0  0  0
   16.1409   21.9012   20.2967 O   0  0  0  0  0  0  0  0  0  0  0  0
   10.9816   18.3628   18.0296 S   0  0  0  0  0  0  0  0  0  0  0  0
   11.4807   17.3653   20.3029 N   0  0  0  0  0  0  0  0  0  0  0  0
   10.6685   17.1907   19.3027 C   0  0  0  0  0  0  0  0  0  0  0  0
   12.3570   18.3470   20.1695 C   0  0  0  0  0  0  0  0  0  0  0  0
   12.3079   19.0314   18.9607 C   0  0  0  0  0  0  0  0  0  0  0  0
   13.1509   20.0304   18.6463 C   0  0  0  0  0  0  0  0  0  0  0  0
   14.0972   20.4264   19.5855 C   0  0  0  0  0  0  0  0  0  0  0  0
   14.1993   19.7623   20.8035 C   0  0  0  0  0  0  0  0  0  0  0  0
   13.3448   18.6861   21.0341 C   0  0  0  0  0  0  0  0  0  0  0  0
    9.7328   16.2896   19.2303 N   0  0  0  0  0  0  0  0  0  0  0  0
    8.9286   16.3830   19.7905 H   0  0  0  0  0  0  0  0  0  0  0  0
    9.8513   15.1445   18.3366 C   0  0  0  0  0  0  0  0  0  0  0  0
    8.5401   14.3694   18.2968 C   0  0  0  0  0  0  0  0  0  0  0  0
    8.9703   15.1814   17.1058 C   0  0  0  0  0  0  0  0  0  0  0  0
   15.4186   22.3119   16.6759 C   0  0  0  0  0  0  0  0  0  0  0  0
   15.1709   21.3989   15.4568 C   0  0  0  0  0  0  0  0  0  0  0  0
   13.7082   21.5822   15.0294 C   0  0  0  0  0  0  0  0  0  0  0  0
   16.1246   21.8271   14.3401 C   0  0  0  0  0  0  0  0  0  0  0  0
   19.5371   22.7250   18.1400 C   0  0  0  0  0  0  0  0  0  0  0  0
   20.2000   23.9856   17.7528 N   0  0  0  0  0  0  0  0  0  0  0  0
   20.9568   24.0618   16.6580 C   0  0  0  0  0  0  0  0  0  0  0  0
   20.9336   23.2135   15.7476 O   0  0  0  0  0  0  0  0  0  0  0  0
   20.0810   24.7858   18.3139 H   0  0  0  0  0  0  0  0  0  0  0  0
   21.6512   25.2014   16.5297 O   0  0  0  0  0  0  0  0  0  0  0  0
   22.5260   25.2697   15.4048 C   0  0  0  0  0  0  0  0  0  0  0  0
   22.1220   26.3635   14.4528 C   0  0  0  0  0  0  0  0  0  0  0  0
   22.7150   27.6481   14.9622 C   0  0  0  0  0  0  0  0  0  0  0  0
   21.8102   28.6065   15.6600 C   0  0  0  0  0  0  0  0  0  0  0  0
   21.8596   28.2334   17.0526 O   0  0  0  0  0  0  0  0  0  0  0  0
   23.1597   27.7374   17.3453 C   0  0  0  0  0  0  0  0  0  0  0  0
   23.7159   27.2416   16.0288 C   0  0  0  0  0  0  0  0  0  0  0  0
   23.8995   25.7455   15.8664 C   0  0  0  0  0  0  0  0  0  0  0  0
   20.6349   26.4674   14.1214 C   0  0  0  0  0  0  0  0  0  0  0  0
   19.9219   27.2549   15.2017 C   0  0  0  0  0  0  0  0  0  0  0  0
   20.4512   28.6085   15.2106 O   0  0  0  0  0  0  0  0  0  0  0  0
   19.7781   22.4041   19.6042 C   0  0  0  0  0  0  0  0  0  0  0  0
   20.4174   24.6336   20.6385 C   0  0  0  0  0  0  0  0  0  0  0  0
   21.3931   25.5290   21.0825 C   0  0  0  0  0  0  0  0  0  0  0  0
   22.6936   25.1127   21.3405 C   0  0  0  0  0  0  0  0  0  0  0  0
   22.9849   23.8196   20.9468 C   0  0  0  0  0  0  0  0  0  0  0  0
   22.0479   22.9454   20.4472 C   0  0  0  0  0  0  0  0  0  0  0  0
   20.7441   23.3487   20.2733 C   0  0  0  0  0  0  0  0  0  0  0  0
   21.0657   26.8023   21.4120 F   0  0  0  0  0  0  0  0  0  0  0  0
   24.2681   23.4147   21.0762 F   0  0  0  0  0  0  0  0  0  0  0  0
 41 42  1  0  0  0
 41 34  1  0  0  0
 26 24  1  0  0  0
 42 43  1  0  0  0
 25 24  1  0  0  0
 34 35  1  0  0  0
 34 33  1  0  0  0
 43 36  1  0  0  0
 24 23  1  0  0  0
 35 36  1  0  0  0
 35 39  1  0  0  0
 33 32  1  0  0  0
 33 40  1  0  0  0
 36 37  1  0  0  0
 32 29  1  0  0  0
 30 29  2  0  0  0
 23  5  1  0  0  0
 40 39  1  0  0  0
 29 28  1  0  0  0
 39 38  1  0  0  0
 22 21  1  0  0  0
 22 20  1  0  0  0
 37 38  1  0  0  0
  8  6  2  0  0  0
  5  6  1  0  0  0
  5  4  1  0  0  0
 28 27  1  0  0  0
  9 13  1  0  0  0
  9 11  1  0  0  0
  1 27  1  0  0  0
  1  4  1  0  0  0
  1  2  1  0  0  0
 14 13  2  0  0  0
 14 15  1  0  0  0
 21 20  1  0  0  0
  6 15  1  0  0  0
  6  7  2  0  0  0
 27 44  1  0  0  0
 20 18  1  0  0  0
 13 12  1  0  0  0
 15 16  2  0  0  0
 11 18  1  0  0  0
 11 10  2  0  0  0
 52 48  1  0  0  0
 44 50  1  0  0  0
 12 10  1  0  0  0
 12 17  2  0  0  0
 49 48  2  0  0  0
 49 50  1  0  0  0
 48 47  1  0  0  0
 50 45  2  0  0  0
 16 17  1  0  0  0
 47 46  2  0  0  0
 45 46  1  0  0  0
 46 51  1  0  0  0
 18 19  1  0  0  0
  2  3  1  0  0  0
 28 31  1  0  0  0
M  END
> <minimizedAffinity>
-10.50993

$$$$
6CDJ_GR8_A_201


 52 58  0  0  0  0  0  0  0  0999 V2000
   18.2919   21.3464   17.3488 C   0  0  0  0  0  0  0  0  0  0  0  0
   18.7564   20.3169   16.4738 O   0  0  0  0  0  0  0  0  0  0  0  0
   18.0606   20.0977   15.8344 H   0  0  0  0  0  0  0  0  0  0  0  0
   17.0944   20.8563   18.1682 C   0  0  0  0  0  0  0  0  0  0  0  0
   16.7647   21.7755   19.2435 N   0  0  0  0  0  0  0  0  0  0  0  0
   15.1805   21.8495   19.6707 S   0  0  0  0  0  0  0  0  0  0  0  0
   14.6033   22.9555   18.9261 O   0  0  0  0  0  0  0  0  0  0  0  0
   15.1521   21.9366   21.1457 O   0  0  0  0  0  0  0  0  0  0  0  0
   11.5395   19.0234   16.6400 S   0  0  0  0  0  0  0  0  0  0  0  0
   12.2072   17.0726   18.1099 N   0  0  0  0  0  0  0  0  0  0  0  0
   11.4093   17.3359   17.1176 C   0  0  0  0  0  0  0  0  0  0  0  0
   12.9402   18.0842   18.5444 C   0  0  0  0  0  0  0  0  0  0  0  0
   12.7786   19.2793   17.8533 C   0  0  0  0  0  0  0  0  0  0  0  0
   13.4733   20.3942   18.1395 C   0  0  0  0  0  0  0  0  0  0  0  0
   14.3730   20.3670   19.1997 C   0  0  0  0  0  0  0  0  0  0  0  0
   14.5845   19.1910   19.9120 C   0  0  0  0  0  0  0  0  0  0  0  0
   13.8875   18.0521   19.5138 C   0  0  0  0  0  0  0  0  0  0  0  0
   10.6031   16.4909   16.5442 N   0  0  0  0  0  0  0  0  0  0  0  0
   10.5372   16.4775   15.5620 H   0  0  0  0  0  0  0  0  0  0  0  0
    9.7956   15.5638   17.3267 C   0  0  0  0  0  0  0  0  0  0  0  0
    9.1795   14.5063   16.4192 C   0  0  0  0  0  0  0  0  0  0  0  0
   10.2910   14.1336   17.3617 C   0  0  0  0  0  0  0  0  0  0  0  0
   17.7321   21.8727   20.3199 C   0  0  0  0  0  0  0  0  0  0  0  0
   18.6666   23.0915   20.1699 C   0  0  0  0  0  0  0  0  0  0  0  0
   18.2625   24.1200   21.2349 C   0  0  0  0  0  0  0  0  0  0  0  0
   20.1050   22.6173   20.3854 C   0  0  0  0  0  0  0  0  0  0  0  0
   18.0176   22.6256   16.5887 C   0  0  0  0  0  0  0  0  0  0  0  0
   19.1863   23.5229   16.6765 N   0  0  0  0  0  0  0  0  0  0  0  0
   19.0415   24.8270   16.9117 C   0  0  0  0  0  0  0  0  0  0  0  0
   17.9940   25.3320   17.3551 O   0  0  0  0  0  0  0  0  0  0  0  0
   20.0903   23.1510   16.5590 H   0  0  0  0  0  0  0  0  0  0  0  0
   20.1600   25.5532   16.7739 O   0  0  0  0  0  0  0  0  0  0  0  0
   20.0382   26.7327   15.9805 C   0  0  0  0  0  0  0  0  0  0  0  0
   21.2889   27.5686   16.0326 C   0  0  0  0  0  0  0  0  0  0  0  0
   22.2472   27.0123   15.0160 C   0  0  0  0  0  0  0  0  0  0  0  0
   23.3824   26.1799   15.5088 C   0  0  0  0  0  0  0  0  0  0  0  0
   22.8842   24.8261   15.5250 O   0  0  0  0  0  0  0  0  0  0  0  0
   21.9571   24.6692   14.4584 C   0  0  0  0  0  0  0  0  0  0  0  0
   21.4307   26.0568   14.1646 C   0  0  0  0  0  0  0  0  0  0  0  0
   19.9817   26.3420   14.5074 C   0  0  0  0  0  0  0  0  0  0  0  0
   21.9145   27.7788   17.4097 C   0  0  0  0  0  0  0  0  0  0  0  0
   22.7892   26.5930   17.7627 C   0  0  0  0  0  0  0  0  0  0  0  0
   23.8808   26.5245   16.8056 O   0  0  0  0  0  0  0  0  0  0  0  0
   17.6153   22.3863   15.1445 C   0  0  0  0  0  0  0  0  0  0  0  0
   15.2373   23.2201   15.4593 C   0  0  0  0  0  0  0  0  0  0  0  0
   13.8588   23.0013   15.4071 C   0  0  0  0  0  0  0  0  0  0  0  0
   13.3207   21.9442   14.6830 C   0  0  0  0  0  0  0  0  0  0  0  0
   14.2436   21.0383   14.1936 C   0  0  0  0  0  0  0  0  0  0  0  0
   15.6049   21.2073   14.2935 C   0  0  0  0  0  0  0  0  0  0  0  0
   16.1233   22.3031   14.9442 C   0  0  0  0  0  0  0  0  0  0  0  0
   12.9949   23.8971   15.9440 F   0  0  0  0  0  0  0  0  0  0  0  0
   13.7546   19.9365   13.5816 F   0  0  0  0  0  0  0  0  0  0  0  0
 41 42  1  0  0  0
 41 34  1  0  0  0
 26 24  1  0  0  0
 42 43  1  0  0  0
 25 24  1  0  0  0
 34 35  1  0  0  0
 34 33  1  0  0  0
 43 36  1  0  0  0
 24 23  1  0  0  0
 35 36  1  0  0  0
 35 39  1  0  0  0
 33 32  1  0  0  0
 33 40  1  0  0  0
 36 37  1  0  0  0
 32 29  1  0  0  0
 30 29  2  0  0  0
 23  5  1  0  0  0
 40 39  1  0  0  0
 29 28  1  0  0  0
 39 38  1  0  0  0
 22 21  1  0  0  0
 22 20  1  0  0  0
 37 38  1  0  0  0
  8  6  2  0  0  0
  5  6  1  0  0  0
  5  4  1  0  0  0
 28 27  1  0  0  0
  9 13  1  0  0  0
  9 11  1  0  0  0
  1 27  1  0  0  0
  1  4  1  0  0  0
  1  2  1  0  0  0
 14 13  2  0  0  0
 14 15  1  0  0  0
 21 20  1  0  0  0
  6 15  1  0  0  0
  6  7  2  0  0  0
 27 44  1  0  0  0
 20 18  1  0  0  0
 13 12  1  0  0  0
 15 16  2  0  0  0
 11 18  1  0  0  0
 11 10  2  0  0  0
 52 48  1  0  0  0
 44 50  1  0  0  0
 12 10  1  0  0  0
 12 17  2  0  0  0
 49 48  2  0  0  0
 49 50  1  0  0  0
 48 47  1  0  0  0
 50 45  2  0  0  0
 16 17  1  0  0  0
 47 46  2  0  0  0
 45 46  1  0  0  0
 46 51  1  0  0  0
 18 19  1  0  0  0
  2  3  1  0  0  0
 28 31  1  0  0  0
M  END
> <minimizedAffinity>
-10.20698

$$$$
6CDJ_GR8_A_201


 52 58  0  0  0  0  0  0  0  0999 V2000
   16.2341   24.4726   17.9923 C   0  0  0  0  0  0  0  0  0  0  0  0
   15.6097   25.2704   18.9998 O   0  0  0  0  0  0  0  0  0  0  0  0
   15.4991   24.7438   19.8068 H   0  0  0  0  0  0  0  0  0  0  0  0
   15.3402   23.2882   17.6133 C   0  0  0  0  0  0  0  0  0  0  0  0
   16.0045   22.0168   17.8419 N   0  0  0  0  0  0  0  0  0  0  0  0
   15.5389   21.1887   19.1816 S   0  0  0  0  0  0  0  0  0  0  0  0
   15.2468   22.1823   20.2005 O   0  0  0  0  0  0  0  0  0  0  0  0
   16.6188   20.2211   19.4675 O   0  0  0  0  0  0  0  0  0  0  0  0
   11.7806   17.3378   20.3961 S   0  0  0  0  0  0  0  0  0  0  0  0
   10.8312   17.9023   18.1174 N   0  0  0  0  0  0  0  0  0  0  0  0
   10.5927   17.1091   19.1196 C   0  0  0  0  0  0  0  0  0  0  0  0
   11.8756   18.7028   18.2516 C   0  0  0  0  0  0  0  0  0  0  0  0
   12.5502   18.6067   19.4631 C   0  0  0  0  0  0  0  0  0  0  0  0
   13.6087   19.3734   19.7783 C   0  0  0  0  0  0  0  0  0  0  0  0
   14.0779   20.2839   18.8375 C   0  0  0  0  0  0  0  0  0  0  0  0
   13.4275   20.4313   17.6167 C   0  0  0  0  0  0  0  0  0  0  0  0
   12.2909   19.6592   17.3850 C   0  0  0  0  0  0  0  0  0  0  0  0
    9.6235   16.2440   19.1919 N   0  0  0  0  0  0  0  0  0  0  0  0
    9.0910   16.1840   20.0177 H   0  0  0  0  0  0  0  0  0  0  0  0
    9.3104   15.3621   18.0747 C   0  0  0  0  0  0  0  0  0  0  0  0
    9.3210   13.9086   18.5320 C   0  0  0  0  0  0  0  0  0  0  0  0
    8.0183   14.5828   18.1987 C   0  0  0  0  0  0  0  0  0  0  0  0
   16.2972   21.2276   16.6605 C   0  0  0  0  0  0  0  0  0  0  0  0
   15.8542   21.9240   15.3567 C   0  0  0  0  0  0  0  0  0  0  0  0
   17.0900   22.6023   14.7498 C   0  0  0  0  0  0  0  0  0  0  0  0
   15.2975   20.8566   14.4128 C   0  0  0  0  0  0  0  0  0  0  0  0
   17.6303   24.0637   18.4080 C   0  0  0  0  0  0  0  0  0  0  0  0
   18.6287   24.8018   17.6099 N   0  0  0  0  0  0  0  0  0  0  0  0
   19.6759   24.1814   17.0661 C   0  0  0  0  0  0  0  0  0  0  0  0
   19.7469   22.9463   16.9303 O   0  0  0  0  0  0  0  0  0  0  0  0
   18.5193   25.7711   17.4766 H   0  0  0  0  0  0  0  0  0  0  0  0
   20.6009   24.9941   16.5358 O   0  0  0  0  0  0  0  0  0  0  0  0
   20.1430   26.2930   16.1633 C   0  0  0  0  0  0  0  0  0  0  0  0
   20.9970   27.3766   16.7653 C   0  0  0  0  0  0  0  0  0  0  0  0
   22.1883   27.5648   15.8671 C   0  0  0  0  0  0  0  0  0  0  0  0
   23.4914   26.9862   16.3051 C   0  0  0  0  0  0  0  0  0  0  0  0
   23.5149   25.6479   15.7672 O   0  0  0  0  0  0  0  0  0  0  0  0
   22.8186   25.6429   14.5275 C   0  0  0  0  0  0  0  0  0  0  0  0
   21.8604   26.8120   14.5902 C   0  0  0  0  0  0  0  0  0  0  0  0
   20.3793   26.4985   14.6708 C   0  0  0  0  0  0  0  0  0  0  0  0
   21.3634   27.2194   18.2395 C   0  0  0  0  0  0  0  0  0  0  0  0
   22.5660   26.3078   18.3753 C   0  0  0  0  0  0  0  0  0  0  0  0
   23.6994   26.9396   17.7205 O   0  0  0  0  0  0  0  0  0  0  0  0
   17.8825   24.2314   19.8957 C   0  0  0  0  0  0  0  0  0  0  0  0
   20.2784   24.4184   20.7167 C   0  0  0  0  0  0  0  0  0  0  0  0
   21.5290   23.8415   20.9491 C   0  0  0  0  0  0  0  0  0  0  0  0
   21.6929   22.4622   20.9921 C   0  0  0  0  0  0  0  0  0  0  0  0
   20.5879   21.7275   20.6033 C   0  0  0  0  0  0  0  0  0  0  0  0
   19.3662   22.2861   20.3086 C   0  0  0  0  0  0  0  0  0  0  0  0
   19.1979   23.6510   20.3495 C   0  0  0  0  0  0  0  0  0  0  0  0
   22.5948   24.6099   21.2817 F   0  0  0  0  0  0  0  0  0  0  0  0
   20.7418   20.3869   20.5223 F   0  0  0  0  0  0  0  0  0  0  0  0
 41 42  1  0  0  0
 41 34  1  0  0  0
 26 24  1  0  0  0
 42 43  1  0  0  0
 25 24  1  0  0  0
 34 35  1  0  0  0
 34 33  1  0  0  0
 43 36  1  0  0  0
 24 23  1  0  0  0
 35 36  1  0  0  0
 35 39  1  0  0  0
 33 32  1  0  0  0
 33 40  1  0  0  0
 36 37  1  0  0  0
 32 29  1  0  0  0
 30 29  2  0  0  0
 23  5  1  0  0  0
 40 39  1  0  0  0
 29 28  1  0  0  0
 39 38  1  0  0  0
 22 21  1  0  0  0
 22 20  1  0  0  0
 37 38  1  0  0  0
  8  6  2  0  0  0
  5  6  1  0  0  0
  5  4  1  0  0  0
 28 27  1  0  0  0
  9 13  1  0  0  0
  9 11  1  0  0  0
  1 27  1  0  0  0
  1  4  1  0  0  0
  1  2  1  0  0  0
 14 13  2  0  0  0
 14 15  1  0  0  0
 21 20  1  0  0  0
  6 15  1  0  0  0
  6  7  2  0  0  0
 27 44  1  0  0  0
 20 18  1  0  0  0
 13 12  1  0  0  0
 15 16  2  0  0  0
 11 18  1  0  0  0
 11 10  2  0  0  0
 52 48  1  0  0  0
 44 50  1  0  0  0
 12 10  1  0  0  0
 12 17  2  0  0  0
 49 48  2  0  0  0
 49 50  1  0  0  0
 48 47  1  0  0  0
 50 45  2  0  0  0
 16 17  1  0  0  0
 47 46  2  0  0  0
 45 46  1  0  0  0
 46 51  1  0  0  0
 18 19  1  0  0  0
  2  3  1  0  0  0
 28 31  1  0  0  0
M  END
> <minimizedAffinity>
-10.12451

$$$$
6CDJ_GR8_A_201


 52 58  0  0  0  0  0  0  0  0999 V2000
   17.2439   24.0655   17.8680 C   0  0  0  0  0  0  0  0  0  0  0  0
   16.1034   24.6564   18.4936 O   0  0  0  0  0  0  0  0  0  0  0  0
   16.2395   25.6132   18.5764 H   0  0  0  0  0  0  0  0  0  0  0  0
   18.4903   24.2483   18.7389 C   0  0  0  0  0  0  0  0  0  0  0  0
   18.6425   23.1664   19.6961 N   0  0  0  0  0  0  0  0  0  0  0  0
   18.7822   21.6568   19.0643 S   0  0  0  0  0  0  0  0  0  0  0  0
   19.5872   20.8905   20.0001 O   0  0  0  0  0  0  0  0  0  0  0  0
   19.3117   21.8273   17.6952 O   0  0  0  0  0  0  0  0  0  0  0  0
   14.0918   19.7765   21.2765 S   0  0  0  0  0  0  0  0  0  0  0  0
   13.5800   19.0090   18.9183 N   0  0  0  0  0  0  0  0  0  0  0  0
   13.0418   18.9954   20.1018 C   0  0  0  0  0  0  0  0  0  0  0  0
   14.7632   19.5936   18.8297 C   0  0  0  0  0  0  0  0  0  0  0  0
   15.2481   20.1428   20.0109 C   0  0  0  0  0  0  0  0  0  0  0  0
   16.4155   20.8051   20.0892 C   0  0  0  0  0  0  0  0  0  0  0  0
   17.1970   20.9190   18.9444 C   0  0  0  0  0  0  0  0  0  0  0  0
   16.7489   20.4021   17.7332 C   0  0  0  0  0  0  0  0  0  0  0  0
   15.4951   19.7947   17.7063 C   0  0  0  0  0  0  0  0  0  0  0  0
   11.8913   18.4710   20.4089 N   0  0  0  0  0  0  0  0  0  0  0  0
   11.1829   19.0454   20.7796 H   0  0  0  0  0  0  0  0  0  0  0  0
   11.6302   17.0504   20.2149 C   0  0  0  0  0  0  0  0  0  0  0  0
   10.2771   16.8503   19.5435 C   0  0  0  0  0  0  0  0  0  0  0  0
   11.5439   16.5918   18.7746 C   0  0  0  0  0  0  0  0  0  0  0  0
   19.4493   23.4574   20.8659 C   0  0  0  0  0  0  0  0  0  0  0  0
   20.7776   24.1583   20.5116 C   0  0  0  0  0  0  0  0  0  0  0  0
   20.8785   25.4243   21.3734 C   0  0  0  0  0  0  0  0  0  0  0  0
   21.9227   23.1926   20.8221 C   0  0  0  0  0  0  0  0  0  0  0  0
   17.4172   24.5775   16.4547 C   0  0  0  0  0  0  0  0  0  0  0  0
   18.5806   25.4834   16.3875 N   0  0  0  0  0  0  0  0  0  0  0  0
   18.9112   26.1023   15.2540 C   0  0  0  0  0  0  0  0  0  0  0  0
   18.1423   26.2092   14.2812 O   0  0  0  0  0  0  0  0  0  0  0  0
   19.1229   25.6335   17.1953 H   0  0  0  0  0  0  0  0  0  0  0  0
   20.0918   26.7371   15.2808 O   0  0  0  0  0  0  0  0  0  0  0  0
   21.0008   26.3978   14.2348 C   0  0  0  0  0  0  0  0  0  0  0  0
   22.3972   26.8714   14.5373 C   0  0  0  0  0  0  0  0  0  0  0  0
   23.0483   25.8325   15.4080 C   0  0  0  0  0  0  0  0  0  0  0  0
   23.1714   26.1210   16.8662 C   0  0  0  0  0  0  0  0  0  0  0  0
   21.9601   25.6100   17.4600 O   0  0  0  0  0  0  0  0  0  0  0  0
   21.5430   24.4638   16.7293 C   0  0  0  0  0  0  0  0  0  0  0  0
   22.1379   24.6192   15.3471 C   0  0  0  0  0  0  0  0  0  0  0  0
   21.1822   24.8840   14.2003 C   0  0  0  0  0  0  0  0  0  0  0  0
   22.5356   28.2933   15.0769 C   0  0  0  0  0  0  0  0  0  0  0  0
   22.2958   28.3004   16.5729 C   0  0  0  0  0  0  0  0  0  0  0  0
   23.3300   27.5016   17.2092 O   0  0  0  0  0  0  0  0  0  0  0  0
   17.5261   23.4654   15.4270 C   0  0  0  0  0  0  0  0  0  0  0  0
   16.1348   21.5060   14.6057 C   0  0  0  0  0  0  0  0  0  0  0  0
   14.9046   20.9711   14.2167 C   0  0  0  0  0  0  0  0  0  0  0  0
   13.7076   21.5982   14.5412 C   0  0  0  0  0  0  0  0  0  0  0  0
   13.8368   22.8589   15.0942 C   0  0  0  0  0  0  0  0  0  0  0  0
   15.0452   23.4267   15.4240 C   0  0  0  0  0  0  0  0  0  0  0  0
   16.2201   22.7572   15.1701 C   0  0  0  0  0  0  0  0  0  0  0  0
   14.8341   19.7493   13.6342 F   0  0  0  0  0  0  0  0  0  0  0  0
   12.6959   23.5484   15.3190 F   0  0  0  0  0  0  0  0  0  0  0  0
 41 42  1  0  0  0
 41 34  1  0  0  0
 26 24  1  0  0  0
 42 43  1  0  0  0
 25 24  1  0  0  0
 34 35  1  0  0  0
 34 33  1  0  0  0
 43 36  1  0  0  0
 24 23  1  0  0  0
 35 36  1  0  0  0
 35 39  1  0  0  0
 33 32  1  0  0  0
 33 40  1  0  0  0
 36 37  1  0  0  0
 32 29  1  0  0  0
 30 29  2  0  0  0
 23  5  1  0  0  0
 40 39  1  0  0  0
 29 28  1  0  0  0
 39 38  1  0  0  0
 22 21  1  0  0  0
 22 20  1  0  0  0
 37 38  1  0  0  0
  8  6  2  0  0  0
  5  6  1  0  0  0
  5  4  1  0  0  0
 28 27  1  0  0  0
  9 13  1  0  0  0
  9 11  1  0  0  0
  1 27  1  0  0  0
  1  4  1  0  0  0
  1  2  1  0  0  0
 14 13  2  0  0  0
 14 15  1  0  0  0
 21 20  1  0  0  0
  6 15  1  0  0  0
  6  7  2  0  0  0
 27 44  1  0  0  0
 20 18  1  0  0  0
 13 12  1  0  0  0
 15 16  2  0  0  0
 11 18  1  0  0  0
 11 10  2  0  0  0
 52 48  1  0  0  0
 44 50  1  0  0  0
 12 10  1  0  0  0
 12 17  2  0  0  0
 49 48  2  0  0  0
 49 50  1  0  0  0
 48 47  1  0  0  0
 50 45  2  0  0  0
 16 17  1  0  0  0
 47 46  2  0  0  0
 45 46  1  0  0  0
 46 51  1  0  0  0
 18 19  1  0  0  0
  2  3  1  0  0  0
 28 31  1  0  0  0
M  END
> <minimizedAffinity>
-10.07418

$$$$
6CDJ_GR8_A_201


 52 58  0  0  0  0  0  0  0  0999 V2000
   17.3289   21.7394   16.9781 C   0  0  0  0  0  0  0  0  0  0  0  0
   18.1696   20.7330   16.4111 O   0  0  0  0  0  0  0  0  0  0  0  0
   17.7553   20.3802   15.6081 H   0  0  0  0  0  0  0  0  0  0  0  0
   15.9894   21.1385   17.4143 C   0  0  0  0  0  0  0  0  0  0  0  0
   15.9413   20.9130   18.8484 N   0  0  0  0  0  0  0  0  0  0  0  0
   16.1925   22.2307   19.7961 S   0  0  0  0  0  0  0  0  0  0  0  0
   15.5209   21.9666   21.0570 O   0  0  0  0  0  0  0  0  0  0  0  0
   15.7333   23.3977   19.0143 O   0  0  0  0  0  0  0  0  0  0  0  0
   20.6248   25.2762   21.0242 S   0  0  0  0  0  0  0  0  0  0  0  0
   21.9043   23.1309   20.6087 N   0  0  0  0  0  0  0  0  0  0  0  0
   22.1277   24.3663   20.9470 C   0  0  0  0  0  0  0  0  0  0  0  0
   20.6376   22.8089   20.4052 C   0  0  0  0  0  0  0  0  0  0  0  0
   19.7199   23.8311   20.6171 C   0  0  0  0  0  0  0  0  0  0  0  0
   18.3917   23.6647   20.4920 C   0  0  0  0  0  0  0  0  0  0  0  0
   17.9084   22.4216   20.0975 C   0  0  0  0  0  0  0  0  0  0  0  0
   18.7839   21.3607   19.8899 C   0  0  0  0  0  0  0  0  0  0  0  0
   20.1417   21.5818   20.1113 C   0  0  0  0  0  0  0  0  0  0  0  0
   23.2938   24.8904   21.1885 N   0  0  0  0  0  0  0  0  0  0  0  0
   23.4245   25.4194   22.0085 H   0  0  0  0  0  0  0  0  0  0  0  0
   24.4104   24.7102   20.2694 C   0  0  0  0  0  0  0  0  0  0  0  0
   25.7020   25.2090   20.9055 C   0  0  0  0  0  0  0  0  0  0  0  0
   25.4765   23.7336   20.7189 C   0  0  0  0  0  0  0  0  0  0  0  0
   14.9513   19.9595   19.3122 C   0  0  0  0  0  0  0  0  0  0  0  0
   14.4508   19.0291   18.1876 C   0  0  0  0  0  0  0  0  0  0  0  0
   14.4795   17.5924   18.7268 C   0  0  0  0  0  0  0  0  0  0  0  0
   13.0255   19.4479   17.8228 C   0  0  0  0  0  0  0  0  0  0  0  0
   17.1825   22.9190   16.0418 C   0  0  0  0  0  0  0  0  0  0  0  0
   18.3951   23.7586   16.0979 N   0  0  0  0  0  0  0  0  0  0  0  0
   18.3736   24.9690   16.6560 C   0  0  0  0  0  0  0  0  0  0  0  0
   17.4633   25.3615   17.4084 O   0  0  0  0  0  0  0  0  0  0  0  0
   19.2361   23.4182   15.7156 H   0  0  0  0  0  0  0  0  0  0  0  0
   19.4833   25.6975   16.4677 O   0  0  0  0  0  0  0  0  0  0  0  0
   20.6176   24.9825   15.9802 C   0  0  0  0  0  0  0  0  0  0  0  0
   21.5019   25.8562   15.1314 C   0  0  0  0  0  0  0  0  0  0  0  0
   22.4095   26.6169   16.0581 C   0  0  0  0  0  0  0  0  0  0  0  0
   22.0945   28.0506   16.3226 C   0  0  0  0  0  0  0  0  0  0  0  0
   21.2169   28.0437   17.4675 O   0  0  0  0  0  0  0  0  0  0  0  0
   21.5774   26.9577   18.3113 C   0  0  0  0  0  0  0  0  0  0  0  0
   22.2614   25.9500   17.4139 C   0  0  0  0  0  0  0  0  0  0  0  0
   21.5372   24.6447   17.1490 C   0  0  0  0  0  0  0  0  0  0  0  0
   20.8036   26.7398   14.1000 C   0  0  0  0  0  0  0  0  0  0  0  0
   20.3165   28.0133   14.7607 C   0  0  0  0  0  0  0  0  0  0  0  0
   21.4710   28.7532   15.2426 O   0  0  0  0  0  0  0  0  0  0  0  0
   16.8614   22.5112   14.6150 C   0  0  0  0  0  0  0  0  0  0  0  0
   14.3328   22.6436   14.8098 C   0  0  0  0  0  0  0  0  0  0  0  0
   13.0826   22.0208   14.8119 C   0  0  0  0  0  0  0  0  0  0  0  0
   12.9081   20.7464   14.2858 C   0  0  0  0  0  0  0  0  0  0  0  0
   14.0752   20.0861   13.9482 C   0  0  0  0  0  0  0  0  0  0  0  0
   15.3216   20.6649   14.0019 C   0  0  0  0  0  0  0  0  0  0  0  0
   15.4689   21.9576   14.4492 C   0  0  0  0  0  0  0  0  0  0  0  0
   11.9731   22.6970   15.1973 F   0  0  0  0  0  0  0  0  0  0  0  0
   13.9561   18.8029   13.5398 F   0  0  0  0  0  0  0  0  0  0  0  0
 41 42  1  0  0  0
 41 34  1  0  0  0
 26 24  1  0  0  0
 42 43  1  0  0  0
 25 24  1  0  0  0
 34 35  1  0  0  0
 34 33  1  0  0  0
 43 36  1  0  0  0
 24 23  1  0  0  0
 35 36  1  0  0  0
 35 39  1  0  0  0
 33 32  1  0  0  0
 33 40  1  0  0  0
 36 37  1  0  0  0
 32 29  1  0  0  0
 30 29  2  0  0  0
 23  5  1  0  0  0
 40 39  1  0  0  0
 29 28  1  0  0  0
 39 38  1  0  0  0
 22 21  1  0  0  0
 22 20  1  0  0  0
 37 38  1  0  0  0
  8  6  2  0  0  0
  5  6  1  0  0  0
  5  4  1  0  0  0
 28 27  1  0  0  0
  9 13  1  0  0  0
  9 11  1  0  0  0
  1 27  1  0  0  0
  1  4  1  0  0  0
  1  2  1  0  0  0
 14 13  2  0  0  0
 14 15  1  0  0  0
 21 20  1  0  0  0
  6 15  1  0  0  0
  6  7  2  0  0  0
 27 44  1  0  0  0
 20 18  1  0  0  0
 13 12  1  0  0  0
 15 16  2  0  0  0
 11 18  1  0  0  0
 11 10  2  0  0  0
 52 48  1  0  0  0
 44 50  1  0  0  0
 12 10  1  0  0  0
 12 17  2  0  0  0
 49 48  2  0  0  0
 49 50  1  0  0  0
 48 47  1  0  0  0
 50 45  2  0  0  0
 16 17  1  0  0  0
 47 46  2  0  0  0
 45 46  1  0  0  0
 46 51  1  0  0  0
 18 19  1  0  0  0
  2  3  1  0  0  0
 28 31  1  0  0  0
M  END
> <minimizedAffinity>
-9.75815

$$$$
6CDJ_GR8_A_201


 52 58  0  0  0  0  0  0  0  0999 V2000
   16.1921   24.1491   18.0955 C   0  0  0  0  0  0  0  0  0  0  0  0
   15.6868   25.3210   18.7378 O   0  0  0  0  0  0  0  0  0  0  0  0
   15.7277   25.2055   19.7000 H   0  0  0  0  0  0  0  0  0  0  0  0
   15.3145   22.9368   18.4203 C   0  0  0  0  0  0  0  0  0  0  0  0
   15.4496   21.8905   17.4219 N   0  0  0  0  0  0  0  0  0  0  0  0
   14.4621   22.0069   16.1147 S   0  0  0  0  0  0  0  0  0  0  0  0
   15.2954   21.7807   14.9462 O   0  0  0  0  0  0  0  0  0  0  0  0
   13.7847   23.3160   16.2217 O   0  0  0  0  0  0  0  0  0  0  0  0
   11.5384   18.1883   18.8164 S   0  0  0  0  0  0  0  0  0  0  0  0
   10.5909   17.6552   16.5294 N   0  0  0  0  0  0  0  0  0  0  0  0
   10.4799   17.2596   17.7630 C   0  0  0  0  0  0  0  0  0  0  0  0
   11.4393   18.6475   16.3163 C   0  0  0  0  0  0  0  0  0  0  0  0
   12.0665   19.1510   17.4499 C   0  0  0  0  0  0  0  0  0  0  0  0
   12.9278   20.1828   17.4168 C   0  0  0  0  0  0  0  0  0  0  0  0
   13.2373   20.7555   16.1877 C   0  0  0  0  0  0  0  0  0  0  0  0
   12.6234   20.2999   15.0255 C   0  0  0  0  0  0  0  0  0  0  0  0
   11.6833   19.2780   15.1412 C   0  0  0  0  0  0  0  0  0  0  0  0
    9.7097   16.3012   18.1886 N   0  0  0  0  0  0  0  0  0  0  0  0
    9.2280   16.4116   19.0401 H   0  0  0  0  0  0  0  0  0  0  0  0
    9.5456   15.0677   17.4301 C   0  0  0  0  0  0  0  0  0  0  0  0
    9.7443   13.8605   18.3383 C   0  0  0  0  0  0  0  0  0  0  0  0
    8.3696   14.2035   17.8331 C   0  0  0  0  0  0  0  0  0  0  0  0
   16.7968   21.4117   17.1766 C   0  0  0  0  0  0  0  0  0  0  0  0
   17.1639   20.1968   18.0542 C   0  0  0  0  0  0  0  0  0  0  0  0
   17.4343   20.7143   19.4736 C   0  0  0  0  0  0  0  0  0  0  0  0
   15.9813   19.2265   18.0421 C   0  0  0  0  0  0  0  0  0  0  0  0
   17.6548   23.9370   18.4199 C   0  0  0  0  0  0  0  0  0  0  0  0
   18.4776   24.9316   17.7041 N   0  0  0  0  0  0  0  0  0  0  0  0
   18.8708   24.7285   16.4466 C   0  0  0  0  0  0  0  0  0  0  0  0
   18.3609   23.8752   15.6978 O   0  0  0  0  0  0  0  0  0  0  0  0
   18.7413   25.7610   18.1644 H   0  0  0  0  0  0  0  0  0  0  0  0
   19.7675   25.6122   15.9857 O   0  0  0  0  0  0  0  0  0  0  0  0
   20.9899   25.0581   15.5016 C   0  0  0  0  0  0  0  0  0  0  0  0
   21.8877   26.1172   14.9201 C   0  0  0  0  0  0  0  0  0  0  0  0
   22.6481   26.7400   16.0582 C   0  0  0  0  0  0  0  0  0  0  0  0
   22.2105   28.0825   16.5385 C   0  0  0  0  0  0  0  0  0  0  0  0
   21.2309   27.8203   17.5644 O   0  0  0  0  0  0  0  0  0  0  0  0
   21.5846   26.6174   18.2351 C   0  0  0  0  0  0  0  0  0  0  0  0
   22.4190   25.8284   17.2503 C   0  0  0  0  0  0  0  0  0  0  0  0
   21.8158   24.5587   16.6824 C   0  0  0  0  0  0  0  0  0  0  0  0
   21.2305   27.1385   13.9943 C   0  0  0  0  0  0  0  0  0  0  0  0
   20.5955   28.2421   14.8155 C   0  0  0  0  0  0  0  0  0  0  0  0
   21.6448   28.9388   15.5408 O   0  0  0  0  0  0  0  0  0  0  0  0
   17.9434   23.9546   19.9103 C   0  0  0  0  0  0  0  0  0  0  0  0
   20.3018   23.0128   19.9040 C   0  0  0  0  0  0  0  0  0  0  0  0
   21.6123   23.0216   20.3872 C   0  0  0  0  0  0  0  0  0  0  0  0
   22.1240   24.1178   21.0712 C   0  0  0  0  0  0  0  0  0  0  0  0
   21.1975   25.0915   21.3962 C   0  0  0  0  0  0  0  0  0  0  0  0
   19.8864   25.0649   20.9818 C   0  0  0  0  0  0  0  0  0  0  0  0
   19.4147   24.0101   20.2349 C   0  0  0  0  0  0  0  0  0  0  0  0
   22.4704   22.0186   20.0794 F   0  0  0  0  0  0  0  0  0  0  0  0
   21.6318   26.1192   22.1595 F   0  0  0  0  0  0  0  0  0  0  0  0
 41 42  1  0  0  0
 41 34  1  0  0  0
 26 24  1  0  0  0
 42 43  1  0  0  0
 25 24  1  0  0  0
 34 35  1  0  0  0
 34 33  1  0  0  0
 43 36  1  0  0  0
 24 23  1  0  0  0
 35 36  1  0  0  0
 35 39  1  0  0  0
 33 32  1  0  0  0
 33 40  1  0  0  0
 36 37  1  0  0  0
 32 29  1  0  0  0
 30 29  2  0  0  0
 23  5  1  0  0  0
 40 39  1  0  0  0
 29 28  1  0  0  0
 39 38  1  0  0  0
 22 21  1  0  0  0
 22 20  1  0  0  0
 37 38  1  0  0  0
  8  6  2  0  0  0
  5  6  1  0  0  0
  5  4  1  0  0  0
 28 27  1  0  0  0
  9 13  1  0  0  0
  9 11  1  0  0  0
  1 27  1  0  0  0
  1  4  1  0  0  0
  1  2  1  0  0  0
 14 13  2  0  0  0
 14 15  1  0  0  0
 21 20  1  0  0  0
  6 15  1  0  0  0
  6  7  2  0  0  0
 27 44  1  0  0  0
 20 18  1  0  0  0
 13 12  1  0  0  0
 15 16  2  0  0  0
 11 18  1  0  0  0
 11 10  2  0  0  0
 52 48  1  0  0  0
 44 50  1  0  0  0
 12 10  1  0  0  0
 12 17  2  0  0  0
 49 48  2  0  0  0
 49 50  1  0  0  0
 48 47  1  0  0  0
 50 45  2  0  0  0
 16 17  1  0  0  0
 47 46  2  0  0  0
 45 46  1  0  0  0
 46 51  1  0  0  0
 18 19  1  0  0  0
  2  3  1  0  0  0
 28 31  1  0  0  0
M  END
> <minimizedAffinity>
-9.71714

$$$$
6CDJ_GR8_A_201


 52 58  0  0  0  0  0  0  0  0999 V2000
   17.9303   21.4679   17.1994 C   0  0  0  0  0  0  0  0  0  0  0  0
   18.8137   20.5561   16.5440 O   0  0  0  0  0  0  0  0  0  0  0  0
   18.4298   20.2880   15.6945 H   0  0  0  0  0  0  0  0  0  0  0  0
   16.5986   20.7859   17.5260 C   0  0  0  0  0  0  0  0  0  0  0  0
   16.3560   20.7346   18.9572 N   0  0  0  0  0  0  0  0  0  0  0  0
   16.5311   22.1504   19.7712 S   0  0  0  0  0  0  0  0  0  0  0  0
   15.7877   22.0084   21.0113 O   0  0  0  0  0  0  0  0  0  0  0  0
   16.1045   23.2182   18.8429 O   0  0  0  0  0  0  0  0  0  0  0  0
   20.8468   25.3999   20.8868 S   0  0  0  0  0  0  0  0  0  0  0  0
   22.1714   23.2429   20.8150 N   0  0  0  0  0  0  0  0  0  0  0  0
   22.3607   24.5139   21.0130 C   0  0  0  0  0  0  0  0  0  0  0  0
   20.9233   22.8764   20.5754 C   0  0  0  0  0  0  0  0  0  0  0  0
   19.9838   23.9004   20.6046 C   0  0  0  0  0  0  0  0  0  0  0  0
   18.6678   23.6966   20.4199 C   0  0  0  0  0  0  0  0  0  0  0  0
   18.2228   22.4066   20.1512 C   0  0  0  0  0  0  0  0  0  0  0  0
   19.1202   21.3440   20.1284 C   0  0  0  0  0  0  0  0  0  0  0  0
   20.4592   21.6141   20.4037 C   0  0  0  0  0  0  0  0  0  0  0  0
   23.5041   25.0839   21.2595 N   0  0  0  0  0  0  0  0  0  0  0  0
   23.5274   25.9011   21.8081 H   0  0  0  0  0  0  0  0  0  0  0  0
   24.7509   24.5369   20.7398 C   0  0  0  0  0  0  0  0  0  0  0  0
   25.9417   25.2398   21.3798 C   0  0  0  0  0  0  0  0  0  0  0  0
   25.6204   23.8174   21.7489 C   0  0  0  0  0  0  0  0  0  0  0  0
   15.2792   19.8653   19.3919 C   0  0  0  0  0  0  0  0  0  0  0  0
   14.6775   19.0414   18.2342 C   0  0  0  0  0  0  0  0  0  0  0  0
   14.4668   17.6093   18.7444 C   0  0  0  0  0  0  0  0  0  0  0  0
   13.3462   19.6816   17.8365 C   0  0  0  0  0  0  0  0  0  0  0  0
   17.7729   22.7437   16.4012 C   0  0  0  0  0  0  0  0  0  0  0  0
   19.0127   23.5411   16.4783 N   0  0  0  0  0  0  0  0  0  0  0  0
   18.9928   24.8153   16.8693 C   0  0  0  0  0  0  0  0  0  0  0  0
   18.0303   25.3362   17.4620 O   0  0  0  0  0  0  0  0  0  0  0  0
   19.8709   23.1237   16.2363 H   0  0  0  0  0  0  0  0  0  0  0  0
   20.1498   25.4733   16.7090 O   0  0  0  0  0  0  0  0  0  0  0  0
   20.0673   26.7050   15.9937 C   0  0  0  0  0  0  0  0  0  0  0  0
   21.3364   27.5049   16.1173 C   0  0  0  0  0  0  0  0  0  0  0  0
   22.2962   26.9934   15.0788 C   0  0  0  0  0  0  0  0  0  0  0  0
   23.4042   26.1029   15.5303 C   0  0  0  0  0  0  0  0  0  0  0  0
   22.8742   24.7636   15.4505 O   0  0  0  0  0  0  0  0  0  0  0  0
   21.9594   24.6998   14.3639 C   0  0  0  0  0  0  0  0  0  0  0  0
   21.4701   26.1161   14.1555 C   0  0  0  0  0  0  0  0  0  0  0  0
   20.0233   26.4134   14.4974 C   0  0  0  0  0  0  0  0  0  0  0  0
   21.9466   27.6088   17.5133 C   0  0  0  0  0  0  0  0  0  0  0  0
   22.7879   26.3814   17.7986 C   0  0  0  0  0  0  0  0  0  0  0  0
   23.8916   26.3494   16.8534 O   0  0  0  0  0  0  0  0  0  0  0  0
   17.3658   22.4983   14.9593 C   0  0  0  0  0  0  0  0  0  0  0  0
   15.3963   21.1469   14.0966 C   0  0  0  0  0  0  0  0  0  0  0  0
   14.0339   21.0373   13.8092 C   0  0  0  0  0  0  0  0  0  0  0  0
   13.1056   21.9133   14.3590 C   0  0  0  0  0  0  0  0  0  0  0  0
   13.6454   22.9903   15.0377 C   0  0  0  0  0  0  0  0  0  0  0  0
   14.9914   23.1459   15.2735 C   0  0  0  0  0  0  0  0  0  0  0  0
   15.8926   22.2252   14.7910 C   0  0  0  0  0  0  0  0  0  0  0  0
   13.5587   19.9856   13.0986 F   0  0  0  0  0  0  0  0  0  0  0  0
   12.7797   23.9251   15.4896 F   0  0  0  0  0  0  0  0  0  0  0  0
 41 42  1  0  0  0
 41 34  1  0  0  0
 26 24  1  0  0  0
 42 43  1  0  0  0
 25 24  1  0  0  0
 34 35  1  0  0  0
 34 33  1  0  0  0
 43 36  1  0  0  0
 24 23  1  0  0  0
 35 36  1  0  0  0
 35 39  1  0  0  0
 33 32  1  0  0  0
 33 40  1  0  0  0
 36 37  1  0  0  0
 32 29  1  0  0  0
 30 29  2  0  0  0
 23  5  1  0  0  0
 40 39  1  0  0  0
 29 28  1  0  0  0
 39 38  1  0  0  0
 22 21  1  0  0  0
 22 20  1  0  0  0
 37 38  1  0  0  0
  8  6  2  0  0  0
  5  6  1  0  0  0
  5  4  1  0  0  0
 28 27  1  0  0  0
  9 13  1  0  0  0
  9 11  1  0  0  0
  1 27  1  0  0  0
  1  4  1  0  0  0
  1  2  1  0  0  0
 14 13  2  0  0  0
 14 15  1  0  0  0
 21 20  1  0  0  0
  6 15  1  0  0  0
  6  7  2  0  0  0
 27 44  1  0  0  0
 20 18  1  0  0  0
 13 12  1  0  0  0
 15 16  2  0  0  0
 11 18  1  0  0  0
 11 10  2  0  0  0
 52 48  1  0  0  0
 44 50  1  0  0  0
 12 10  1  0  0  0
 12 17  2  0  0  0
 49 48  2  0  0  0
 49 50  1  0  0  0
 48 47  1  0  0  0
 50 45  2  0  0  0
 16 17  1  0  0  0
 47 46  2  0  0  0
 45 46  1  0  0  0
 46 51  1  0  0  0
 18 19  1  0  0  0
  2  3  1  0  0  0
 28 31  1  0  0  0
M  END
> <minimizedAffinity>
-9.71507

$$$$
6CDJ_GR8_A_201


 52 58  0  0  0  0  0  0  0  0999 V2000
   15.9226   23.7616   18.0853 C   0  0  0  0  0  0  0  0  0  0  0  0
   15.6779   25.0606   18.6274 O   0  0  0  0  0  0  0  0  0  0  0  0
   15.8404   25.0478   19.5837 H   0  0  0  0  0  0  0  0  0  0  0  0
   14.9448   22.7402   18.6735 C   0  0  0  0  0  0  0  0  0  0  0  0
   14.7459   21.6097   17.7833 N   0  0  0  0  0  0  0  0  0  0  0  0
   14.6551   21.9588   16.1810 S   0  0  0  0  0  0  0  0  0  0  0  0
   15.9288   21.5691   15.6007 O   0  0  0  0  0  0  0  0  0  0  0  0
   14.2748   23.3838   16.0876 O   0  0  0  0  0  0  0  0  0  0  0  0
   12.8696   17.8925   12.9089 S   0  0  0  0  0  0  0  0  0  0  0  0
   10.5713   18.8166   13.4344 N   0  0  0  0  0  0  0  0  0  0  0  0
   11.1190   17.8605   12.7442 C   0  0  0  0  0  0  0  0  0  0  0  0
   11.4048   19.5920   14.1078 C   0  0  0  0  0  0  0  0  0  0  0  0
   12.7488   19.2516   14.0096 C   0  0  0  0  0  0  0  0  0  0  0  0
   13.7239   19.9105   14.6597 C   0  0  0  0  0  0  0  0  0  0  0  0
   13.3815   21.0085   15.4418 C   0  0  0  0  0  0  0  0  0  0  0  0
   12.0488   21.3798   15.5871 C   0  0  0  0  0  0  0  0  0  0  0  0
   11.0822   20.6069   14.9468 C   0  0  0  0  0  0  0  0  0  0  0  0
   10.4859   16.9916   12.0113 N   0  0  0  0  0  0  0  0  0  0  0  0
    9.5018   16.9706   12.0300 H   0  0  0  0  0  0  0  0  0  0  0  0
   11.2042   16.0489   11.1633 C   0  0  0  0  0  0  0  0  0  0  0  0
   10.8020   14.6198   11.5059 C   0  0  0  0  0  0  0  0  0  0  0  0
   10.3474   15.2397   10.2129 C   0  0  0  0  0  0  0  0  0  0  0  0
   15.4351   20.3849   18.1424 C   0  0  0  0  0  0  0  0  0  0  0  0
   14.6051   19.4924   19.0888 C   0  0  0  0  0  0  0  0  0  0  0  0
   14.8773   19.9599   20.5250 C   0  0  0  0  0  0  0  0  0  0  0  0
   13.1279   19.6623   18.7291 C   0  0  0  0  0  0  0  0  0  0  0  0
   17.3744   23.3673   18.2480 C   0  0  0  0  0  0  0  0  0  0  0  0
   18.2474   24.4415   17.7354 N   0  0  0  0  0  0  0  0  0  0  0  0
   18.7396   24.4016   16.4971 C   0  0  0  0  0  0  0  0  0  0  0  0
   18.2940   23.6565   15.6054 O   0  0  0  0  0  0  0  0  0  0  0  0
   18.4705   25.2021   18.3192 H   0  0  0  0  0  0  0  0  0  0  0  0
   19.6665   25.3321   16.2277 O   0  0  0  0  0  0  0  0  0  0  0  0
   20.9265   24.8379   15.7766 C   0  0  0  0  0  0  0  0  0  0  0  0
   21.7231   25.9057   15.0758 C   0  0  0  0  0  0  0  0  0  0  0  0
   22.4397   26.7014   16.1316 C   0  0  0  0  0  0  0  0  0  0  0  0
   21.8935   28.0432   16.4857 C   0  0  0  0  0  0  0  0  0  0  0  0
   20.9517   27.8029   17.5516 O   0  0  0  0  0  0  0  0  0  0  0  0
   21.4152   26.7074   18.3306 C   0  0  0  0  0  0  0  0  0  0  0  0
   22.3035   25.8974   17.4122 C   0  0  0  0  0  0  0  0  0  0  0  0
   21.8056   24.5308   16.9843 C   0  0  0  0  0  0  0  0  0  0  0  0
   20.9700   26.7699   14.0669 C   0  0  0  0  0  0  0  0  0  0  0  0
   20.2514   27.8924   14.7876 C   0  0  0  0  0  0  0  0  0  0  0  0
   21.2448   28.7445   15.4197 O   0  0  0  0  0  0  0  0  0  0  0  0
   17.7358   22.9994   19.6759 C   0  0  0  0  0  0  0  0  0  0  0  0
   20.2147   22.4932   19.8953 C   0  0  0  0  0  0  0  0  0  0  0  0
   21.4721   22.7963   20.4224 C   0  0  0  0  0  0  0  0  0  0  0  0
   21.7484   24.0470   20.9616 C   0  0  0  0  0  0  0  0  0  0  0  0
   20.6529   24.8780   21.1080 C   0  0  0  0  0  0  0  0  0  0  0  0
   19.3935   24.5667   20.6515 C   0  0  0  0  0  0  0  0  0  0  0  0
   19.1535   23.3550   20.0456 C   0  0  0  0  0  0  0  0  0  0  0  0
   22.5041   21.9271   20.2945 F   0  0  0  0  0  0  0  0  0  0  0  0
   20.8596   26.0589   21.7326 F   0  0  0  0  0  0  0  0  0  0  0  0
 41 42  1  0  0  0
 41 34  1  0  0  0
 26 24  1  0  0  0
 42 43  1  0  0  0
 25 24  1  0  0  0
 34 35  1  0  0  0
 34 33  1  0  0  0
 43 36  1  0  0  0
 24 23  1  0  0  0
 35 36  1  0  0  0
 35 39  1  0  0  0
 33 32  1  0  0  0
 33 40  1  0  0  0
 36 37  1  0  0  0
 32 29  1  0  0  0
 30 29  2  0  0  0
 23  5  1  0  0  0
 40 39  1  0  0  0
 29 28  1  0  0  0
 39 38  1  0  0  0
 22 21  1  0  0  0
 22 20  1  0  0  0
 37 38  1  0  0  0
  8  6  2  0  0  0
  5  6  1  0  0  0
  5  4  1  0  0  0
 28 27  1  0  0  0
  9 13  1  0  0  0
  9 11  1  0  0  0
  1 27  1  0  0  0
  1  4  1  0  0  0
  1  2  1  0  0  0
 14 13  2  0  0  0
 14 15  1  0  0  0
 21 20  1  0  0  0
  6 15  1  0  0  0
  6  7  2  0  0  0
 27 44  1  0  0  0
 20 18  1  0  0  0
 13 12  1  0  0  0
 15 16  2  0  0  0
 11 18  1  0  0  0
 11 10  2  0  0  0
 52 48  1  0  0  0
 44 50  1  0  0  0
 12 10  1  0  0  0
 12 17  2  0  0  0
 49 48  2  0  0  0
 49 50  1  0  0  0
 48 47  1  0  0  0
 50 45  2  0  0  0
 16 17  1  0  0  0
 47 46  2  0  0  0
 45 46  1  0  0  0
 46 51  1  0  0  0
 18 19  1  0  0  0
  2  3  1  0  0  0
 28 31  1  0  0  0
M  END
> <minimizedAffinity>
-9.41462

$$$$
