6CDJ_GR8_A_201
  RCSB PDB05261800303D
Coordinates from PDB:6CDJ:A:201 Model:1 without hydrogens
 49 55  0  0  0  0            999 V2000
   11.7240   16.8090   18.1670   S 0  0  0  0  0  0  0  0  0  0  0  0
   11.2370   17.4570   20.5660   N 0  0  0  0  0  0  0  0  0  0  0  0
   10.7790   16.6640   19.6430   C 0  0  0  0  0  0  0  0  0  0  0  0
    9.7550   15.8700   19.7610   N 0  0  0  0  0  0  0  0  0  0  0  0
    9.3710   14.9640   18.6860   C 0  0  0  0  0  0  0  0  0  0  0  0
    7.8540   14.9210   18.5500   C 0  0  0  0  0  0  0  0  0  0  0  0
    8.6840   15.6090   17.5010   C 0  0  0  0  0  0  0  0  0  0  0  0
   12.2900   18.1840   20.2310   C 0  0  0  0  0  0  0  0  0  0  0  0
   12.7800   17.9700   18.9480   C 0  0  0  0  0  0  0  0  0  0  0  0
   13.8650   18.5970   18.4610   C 0  0  0  0  0  0  0  0  0  0  0  0
   14.5120   19.5320   19.2620   C 0  0  0  0  0  0  0  0  0  0  0  0
   14.0720   19.7700   20.5600   C 0  0  0  0  0  0  0  0  0  0  0  0
   12.9880   19.0300   21.0280   C 0  0  0  0  0  0  0  0  0  0  0  0
   15.8410   20.4560   18.5900   S 0  0  0  0  0  0  0  0  0  0  0  0
   16.7030   20.8950   19.6740   O 0  0  0  0  0  0  0  0  0  0  0  0
   16.4590   19.6520   17.5150   O 0  0  0  0  0  0  0  0  0  0  0  0
   15.2620   21.8160   17.8740   N 0  0  0  0  0  0  0  0  0  0  0  0
   14.3010   21.6270   16.8040   C 0  0  0  0  0  0  0  0  0  0  0  0
   14.4630   22.6620   15.6710   C 0  0  0  0  0  0  0  0  0  0  0  0
   15.8750   22.4990   15.0920   C 0  0  0  0  0  0  0  0  0  0  0  0
   13.4000   22.3750   14.6090   C 0  0  0  0  0  0  0  0  0  0  0  0
   15.0280   22.9500   18.7510   C 0  0  0  0  0  0  0  0  0  0  0  0
   15.9390   24.1320   18.4070   C 0  0  0  0  0  0  0  0  0  0  0  0
   15.4960   25.3170   19.0710   O 0  0  0  0  0  0  0  0  0  0  0  0
   17.4020   23.8650   18.6860   C 0  0  0  0  0  0  0  0  0  0  0  0
   18.2400   24.8090   17.9210   N 0  0  0  0  0  0  0  0  0  0  0  0
   19.2350   24.3790   17.1450   C 0  0  0  0  0  0  0  0  0  0  0  0
   19.3540   23.1970   16.7740   O 0  0  0  0  0  0  0  0  0  0  0  0
   20.0330   25.3430   16.6640   O 0  0  0  0  0  0  0  0  0  0  0  0
   21.2480   24.8980   16.0630   C 0  0  0  0  0  0  0  0  0  0  0  0
   21.8230   25.9370   15.1380   C 0  0  0  0  0  0  0  0  0  0  0  0
   22.6180   26.8990   15.9770   C 0  0  0  0  0  0  0  0  0  0  0  0
   22.0110   28.2270   16.2810   C 0  0  0  0  0  0  0  0  0  0  0  0
   21.2730   28.0380   17.5060   O 0  0  0  0  0  0  0  0  0  0  0  0
   21.9520   27.0760   18.3030   C 0  0  0  0  0  0  0  0  0  0  0  0
   22.7580   26.2370   17.3360   C 0  0  0  0  0  0  0  0  0  0  0  0
   22.3290   24.7970   17.1340   C 0  0  0  0  0  0  0  0  0  0  0  0
   20.8450   26.6220   14.1860   C 0  0  0  0  0  0  0  0  0  0  0  0
   20.1460   27.7610   14.9000   C 0  0  0  0  0  0  0  0  0  0  0  0
   21.1420   28.7520   15.2720   O 0  0  0  0  0  0  0  0  0  0  0  0
   17.7430   23.9010   20.1650   C 0  0  0  0  0  0  0  0  0  0  0  0
   20.0880   24.6310   20.8110   C 0  0  0  0  0  0  0  0  0  0  0  0
   21.4600   24.3790   20.8820   C 0  0  0  0  0  0  0  0  0  0  0  0
   21.9660   23.0900   20.7650   C 0  0  0  0  0  0  0  0  0  0  0  0
   21.0450   22.1300   20.3880   C 0  0  0  0  0  0  0  0  0  0  0  0
   19.6990   22.3770   20.2510   C 0  0  0  0  0  0  0  0  0  0  0  0
   19.2010   23.6440   20.4500   C 0  0  0  0  0  0  0  0  0  0  0  0
   22.3290   25.3660   21.2100   F 0  0  0  0  0  0  0  0  0  0  0  0
   21.5190   20.8860   20.1530   F 0  0  0  0  0  0  0  0  0  0  0  0
 38 39  1  0  0  0  0
 38 31  1  0  0  0  0
 21 19  1  0  0  0  0
 39 40  1  0  0  0  0
 20 19  1  0  0  0  0
 31 32  1  0  0  0  0
 31 30  1  0  0  0  0
 40 33  1  0  0  0  0
 19 18  1  0  0  0  0
 32 33  1  0  0  0  0
 32 36  1  0  0  0  0
 30 29  1  0  0  0  0
 30 37  1  0  0  0  0
 33 34  1  0  0  0  0
 29 27  1  0  0  0  0
 28 27  2  0  0  0  0
 18 17  1  0  0  0  0
 37 36  1  0  0  0  0
 27 26  1  0  0  0  0
 36 35  1  0  0  0  0
  7  6  1  0  0  0  0
  7  5  1  0  0  0  0
 34 35  1  0  0  0  0
 16 14  2  0  0  0  0
 17 14  1  0  0  0  0
 17 22  1  0  0  0  0
 26 25  1  0  0  0  0
  1  9  1  0  0  0  0
  1  3  1  0  0  0  0
 23 25  1  0  0  0  0
 23 22  1  0  0  0  0
 23 24  1  0  0  0  0
 10  9  2  0  0  0  0
 10 11  1  0  0  0  0
  6  5  1  0  0  0  0
 14 11  1  0  0  0  0
 14 15  2  0  0  0  0
 25 41  1  0  0  0  0
  5  4  1  0  0  0  0
  9  8  1  0  0  0  0
 11 12  2  0  0  0  0
  3  4  1  0  0  0  0
  3  2  2  0  0  0  0
 49 45  1  0  0  0  0
 41 47  1  0  0  0  0
  8  2  1  0  0  0  0
  8 13  2  0  0  0  0
 46 45  2  0  0  0  0
 46 47  1  0  0  0  0
 45 44  1  0  0  0  0
 47 42  2  0  0  0  0
 12 13  1  0  0  0  0
 44 43  2  0  0  0  0
 42 43  1  0  0  0  0
 43 48  1  0  0  0  0
A    1
S51
A    2
N52
A    3
C53
A    4
N54
A    5
C55
A    6
C56
A    7
C57
A    8
C2
A    9
C3
A   10
C4
A   11
C5
A   12
C6
A   13
C7
A   14
S8
A   15
O9
A   16
O10
A   17
N11
A   18
C12
A   19
C13
A   20
C14
A   21
C15
A   22
C16
A   23
C17
A   24
O18
A   25
C19
A   26
N20
A   27
C21
A   28
O22
A   29
O23
A   30
C24
A   31
C25
A   32
C26
A   33
C27
A   34
O28
A   35
C29
A   36
C30
A   37
C31
A   38
C41
A   39
C42
A   40
O43
A   41
C32
A   42
C33
A   43
C34
A   44
C35
A   45
C36
A   46
C37
A   47
C38
A   48
F61
A   49
F62
M  END
>  <InstanceId>
6CDJ_GR8_A_201

>  <ChemCompId>
GR8

>  <PdbId>
6CDJ

>  <ChainId>
A

>  <ResidueNumber>
201

>  <InsertionCode>


>  <Model>
1

>  <AltIds>


>  <MissingHeavyAtoms>
0

>  <ObservedFormula>
C34 N4 O7 S2 F2

>  <Name>
(2aS,4R,4aS,7aS,7bS)-octahydro-2H-1,7-dioxacyclopenta[cd]inden-4-yl [(2S,3R)-4-[{[2-(cyclopropylamino)-1,3-benzothiazol-6-yl]sulfonyl}(2-methylpropyl)amino]-1-(3,5-difluorophenyl)-3-hydroxybutan-2-yl]carbamate

>  <SystematicName>
[(1~{S},4~{S},6~{R},7~{S},11~{S})-2,10-dioxatricyclo[5.3.1.0^{4,11}]undecan-6-yl] ~{N}-[(2~{S},3~{R})-1-[3,5-bis(fluoranyl)phenyl]-4-[[2-(cyclopropylamino)-1,3-benzothiazol-6-yl]sulfonyl-(2-methylpropyl)amino]-3-oxidanyl-butan-2-yl]carbamate

>  <Synonyms>


>  <Type>
NON-POLYMER

>  <Formula>
C34 H42 F2 N4 O7 S2

>  <MolecularWeight>
720.847

>  <ModifiedDate>
2018-05-25

>  <Parent>


>  <OneLetterCode>


>  <SubcomponentList>


>  <AmbiguousFlag>
N

>  <InChI>
InChI=1S/C34H42F2N4O7S2/c1-18(2)15-40(49(43,44)24-5-6-26-30(14-24)48-33(38-26)37-23-3-4-23)16-28(41)27(11-19-9-21(35)13-22(36)10-19)39-34(42)47-29-12-20-17-46-32-31(20)25(29)7-8-45-32/h5-6,9-10,13-14,18,20,23,25,27-29,31-32,41H,3-4,7-8,11-12,15-17H2,1-2H3,(H,37,38)(H,39,42)/t20-,25-,27+,28-,29-,31+,32+/m1/s1

>  <InChIKey>
NIZKZMLJMFCQSW-FQOBIZQLSA-N

>  <SMILES>
CC(C)CN(C[C@H]([C@H](Cc1cc(cc(c1)F)F)NC(=O)O[C@@H]2C[C@@H]3CO[C@H]4[C@@H]3[C@@H]2CCO4)O)S(=O)(=O)c5ccc6c(c5)sc(n6)NC7CC7

$$$$
