4XAS_40H_A_601


 19 21  0  0  0  0  0  0  0  0999 V2000
  -29.4938   32.2986  -27.9972 C   0  0  0  0  0  0  0  0  0  0  0  0
  -28.1341   32.8617  -28.3733 C   0  0  0  0  0  0  0  0  0  0  0  0
  -27.8254   31.0099  -25.0433 C   0  0  0  0  0  0  0  0  0  0  0  0
  -28.2408   31.8597  -27.2839 C   0  0  0  0  0  0  0  0  0  0  0  0
  -27.6896   30.4534  -27.4615 C   0  0  0  0  0  0  0  0  0  0  0  0
  -26.2635   30.2076  -26.9853 C   0  0  0  0  0  0  0  0  0  0  0  0
  -27.4510   29.9076  -26.0622 C   0  0  0  0  0  0  0  0  0  0  0  0
  -26.7887   31.1707  -24.0083 N   0  0  0  0  0  0  0  0  0  0  0  0
  -28.0371   32.3034  -25.8758 C   0  0  0  0  0  0  0  0  0  0  0  0
  -25.8964   31.3885  -24.4518 H   0  0  0  0  0  0  0  0  0  0  0  0
  -26.7017   30.3045  -23.4768 H   0  0  0  0  0  0  0  0  0  0  0  0
  -24.3212   28.8524  -26.8710 O   0  0  0  0  0  0  0  0  0  0  0  0
  -25.5557   28.9732  -27.3810 C   0  0  0  0  0  0  0  0  0  0  0  0
  -26.0155   28.0464  -28.0917 O   0  0  0  0  0  0  0  0  0  0  0  0
  -23.9652   29.5364  -26.3388 H   0  0  0  0  0  0  0  0  0  0  0  0
  -30.1920   31.3888  -24.8129 O   0  0  0  0  0  0  0  0  0  0  0  0
  -29.3005   29.8903  -23.4968 O   0  0  0  0  0  0  0  0  0  0  0  0
  -29.1395   30.6879  -24.3699 C   0  0  0  0  0  0  0  0  0  0  0  0
  -28.5738   29.3928  -23.1768 H   0  0  0  0  0  0  0  0  0  0  0  0
  2  1  1  0  0  0
  2  4  1  0  0  0
  1  4  1  0  0  0
 14 13  2  0  0  0
  5  4  1  0  0  0
  5  6  1  0  0  0
  5  7  1  0  0  0
  4  9  1  0  0  0
 13 12  1  0  0  0
 13  6  1  0  0  0
  6  7  1  0  0  0
  7  3  1  0  0  0
  9  3  1  0  0  0
 16 18  2  0  0  0
  3 18  1  0  0  0
  3  8  1  0  0  0
 18 17  1  0  0  0
 12 15  1  0  0  0
 17 19  1  0  0  0
  8 10  1  0  0  0
  8 11  1  0  0  0
M  END
> <minimizedAffinity>
-9.90716

$$$$
4XAS_40H_A_601


 19 21  0  0  0  0  0  0  0  0999 V2000
  -27.4741   32.9229  -28.2467 C   0  0  0  0  0  0  0  0  0  0  0  0
  -28.8780   32.3486  -28.3279 C   0  0  0  0  0  0  0  0  0  0  0  0
  -26.5854   29.7756  -26.6735 C   0  0  0  0  0  0  0  0  0  0  0  0
  -27.8588   31.6854  -27.4772 C   0  0  0  0  0  0  0  0  0  0  0  0
  -27.9738   31.7096  -25.9609 C   0  0  0  0  0  0  0  0  0  0  0  0
  -28.6854   30.5327  -25.3055 C   0  0  0  0  0  0  0  0  0  0  0  0
  -27.1586   30.5312  -25.4512 C   0  0  0  0  0  0  0  0  0  0  0  0
  -26.7880   28.3204  -26.5590 N   0  0  0  0  0  0  0  0  0  0  0  0
  -27.2963   30.3770  -27.9161 C   0  0  0  0  0  0  0  0  0  0  0  0
  -27.7835   28.1227  -26.4571 H   0  0  0  0  0  0  0  0  0  0  0  0
  -26.2865   27.9704  -25.7427 H   0  0  0  0  0  0  0  0  0  0  0  0
  -29.5140   29.4538  -23.3634 O   0  0  0  0  0  0  0  0  0  0  0  0
  -29.0974   30.6149  -23.8896 C   0  0  0  0  0  0  0  0  0  0  0  0
  -29.0491   31.6336  -23.1579 O   0  0  0  0  0  0  0  0  0  0  0  0
  -29.5550   28.6852  -23.8979 H   0  0  0  0  0  0  0  0  0  0  0  0
  -24.3349   28.9617  -26.9385 O   0  0  0  0  0  0  0  0  0  0  0  0
  -24.5944   31.1284  -26.8371 O   0  0  0  0  0  0  0  0  0  0  0  0
  -25.1069   30.0507  -26.8236 C   0  0  0  0  0  0  0  0  0  0  0  0
  -25.1216   31.8990  -26.7577 H   0  0  0  0  0  0  0  0  0  0  0  0
  2  1  1  0  0  0
  2  4  1  0  0  0
  1  4  1  0  0  0
 14 13  2  0  0  0
  5  4  1  0  0  0
  5  6  1  0  0  0
  5  7  1  0  0  0
  4  9  1  0  0  0
 13 12  1  0  0  0
 13  6  1  0  0  0
  6  7  1  0  0  0
  7  3  1  0  0  0
  9  3  1  0  0  0
 16 18  2  0  0  0
  3 18  1  0  0  0
  3  8  1  0  0  0
 18 17  1  0  0  0
 12 15  1  0  0  0
 17 19  1  0  0  0
  8 10  1  0  0  0
  8 11  1  0  0  0
M  END
> <minimizedAffinity>
-9.52621

$$$$
4XAS_40H_A_601


 19 21  0  0  0  0  0  0  0  0999 V2000
  -29.7092   32.7488  -27.7656 C   0  0  0  0  0  0  0  0  0  0  0  0
  -28.3849   32.8894  -28.4962 C   0  0  0  0  0  0  0  0  0  0  0  0
  -27.8036   30.9617  -25.2467 C   0  0  0  0  0  0  0  0  0  0  0  0
  -28.5024   31.9424  -27.3597 C   0  0  0  0  0  0  0  0  0  0  0  0
  -28.4508   30.4398  -27.5887 C   0  0  0  0  0  0  0  0  0  0  0  0
  -27.0874   29.7710  -27.4657 C   0  0  0  0  0  0  0  0  0  0  0  0
  -28.0379   29.8191  -26.2631 C   0  0  0  0  0  0  0  0  0  0  0  0
  -26.5395   30.7853  -24.5099 N   0  0  0  0  0  0  0  0  0  0  0  0
  -27.8297   32.2764  -26.0725 C   0  0  0  0  0  0  0  0  0  0  0  0
  -25.7644   30.7369  -25.1712 H   0  0  0  0  0  0  0  0  0  0  0  0
  -26.5791   29.9217  -23.9686 H   0  0  0  0  0  0  0  0  0  0  0  0
  -26.9543   28.2590  -29.2873 O   0  0  0  0  0  0  0  0  0  0  0  0
  -26.8959   28.3903  -27.9539 C   0  0  0  0  0  0  0  0  0  0  0  0
  -26.6496   27.3796  -27.2516 O   0  0  0  0  0  0  0  0  0  0  0  0
  -27.1373   29.0050  -29.8240 H   0  0  0  0  0  0  0  0  0  0  0  0
  -30.1656   31.0753  -24.7935 O   0  0  0  0  0  0  0  0  0  0  0  0
  -28.8295   31.0592  -23.0652 O   0  0  0  0  0  0  0  0  0  0  0  0
  -28.9403   31.0315  -24.2532 C   0  0  0  0  0  0  0  0  0  0  0  0
  -27.9790   31.0293  -22.6731 H   0  0  0  0  0  0  0  0  0  0  0  0
  2  1  1  0  0  0
  2  4  1  0  0  0
  1  4  1  0  0  0
 14 13  2  0  0  0
  5  4  1  0  0  0
  5  6  1  0  0  0
  5  7  1  0  0  0
  4  9  1  0  0  0
 13 12  1  0  0  0
 13  6  1  0  0  0
  6  7  1  0  0  0
  7  3  1  0  0  0
  9  3  1  0  0  0
 16 18  2  0  0  0
  3 18  1  0  0  0
  3  8  1  0  0  0
 18 17  1  0  0  0
 12 15  1  0  0  0
 17 19  1  0  0  0
  8 10  1  0  0  0
  8 11  1  0  0  0
M  END
> <minimizedAffinity>
-9.16645

$$$$
4XAS_40H_A_601


 19 21  0  0  0  0  0  0  0  0999 V2000
  -29.5567   31.0462  -26.0390 C   0  0  0  0  0  0  0  0  0  0  0  0
  -29.5410   32.3582  -26.8044 C   0  0  0  0  0  0  0  0  0  0  0  0
  -26.0468   30.8127  -26.9317 C   0  0  0  0  0  0  0  0  0  0  0  0
  -28.4033   31.4145  -26.9365 C   0  0  0  0  0  0  0  0  0  0  0  0
  -28.1553   30.6700  -28.2393 C   0  0  0  0  0  0  0  0  0  0  0  0
  -27.1953   31.3167  -29.2299 C   0  0  0  0  0  0  0  0  0  0  0  0
  -26.6882   30.2696  -28.2305 C   0  0  0  0  0  0  0  0  0  0  0  0
  -24.7647   31.4888  -27.1980 N   0  0  0  0  0  0  0  0  0  0  0  0
  -27.1002   31.7657  -26.3044 C   0  0  0  0  0  0  0  0  0  0  0  0
  -24.9124   32.2481  -27.8628 H   0  0  0  0  0  0  0  0  0  0  0  0
  -24.1019   30.8191  -27.5885 H   0  0  0  0  0  0  0  0  0  0  0  0
  -28.0376   31.3543  -31.4460 O   0  0  0  0  0  0  0  0  0  0  0  0
  -27.1250   30.8221  -30.6198 C   0  0  0  0  0  0  0  0  0  0  0  0
  -26.2859   30.0098  -31.0796 O   0  0  0  0  0  0  0  0  0  0  0  0
  -28.6701   31.9620  -31.1165 H   0  0  0  0  0  0  0  0  0  0  0  0
  -24.8540   28.8206  -26.2946 O   0  0  0  0  0  0  0  0  0  0  0  0
  -26.3990   29.5266  -24.9210 O   0  0  0  0  0  0  0  0  0  0  0  0
  -25.8104   29.6918  -25.9459 C   0  0  0  0  0  0  0  0  0  0  0  0
  -27.0704   30.1277  -24.6641 H   0  0  0  0  0  0  0  0  0  0  0  0
  2  1  1  0  0  0
  2  4  1  0  0  0
  1  4  1  0  0  0
 14 13  2  0  0  0
  5  4  1  0  0  0
  5  6  1  0  0  0
  5  7  1  0  0  0
  4  9  1  0  0  0
 13 12  1  0  0  0
 13  6  1  0  0  0
  6  7  1  0  0  0
  7  3  1  0  0  0
  9  3  1  0  0  0
 16 18  2  0  0  0
  3 18  1  0  0  0
  3  8  1  0  0  0
 18 17  1  0  0  0
 12 15  1  0  0  0
 17 19  1  0  0  0
  8 10  1  0  0  0
  8 11  1  0  0  0
M  END
> <minimizedAffinity>
-8.73237

$$$$
4XAS_40H_A_601


 19 21  0  0  0  0  0  0  0  0999 V2000
  -30.0452   31.6714  -26.4433 C   0  0  0  0  0  0  0  0  0  0  0  0
  -29.8697   32.4614  -27.7288 C   0  0  0  0  0  0  0  0  0  0  0  0
  -26.4412   31.2570  -26.5418 C   0  0  0  0  0  0  0  0  0  0  0  0
  -28.7482   31.6394  -27.2102 C   0  0  0  0  0  0  0  0  0  0  0  0
  -28.3003   30.3827  -27.9403 C   0  0  0  0  0  0  0  0  0  0  0  0
  -27.1715   30.5393  -28.9514 C   0  0  0  0  0  0  0  0  0  0  0  0
  -26.8655   30.1247  -27.5069 C   0  0  0  0  0  0  0  0  0  0  0  0
  -25.1172   31.8026  -26.8899 N   0  0  0  0  0  0  0  0  0  0  0  0
  -27.5633   32.3272  -26.6236 C   0  0  0  0  0  0  0  0  0  0  0  0
  -25.1325   32.1450  -27.8506 H   0  0  0  0  0  0  0  0  0  0  0  0
  -24.4135   31.0696  -26.8013 H   0  0  0  0  0  0  0  0  0  0  0  0
  -26.5444   29.8633  -31.1359 O   0  0  0  0  0  0  0  0  0  0  0  0
  -26.8781   29.4498  -29.9045 C   0  0  0  0  0  0  0  0  0  0  0  0
  -26.8740   28.2204  -29.6520 O   0  0  0  0  0  0  0  0  0  0  0  0
  -26.5431   30.7781  -31.3386 H   0  0  0  0  0  0  0  0  0  0  0  0
  -27.1951   31.4113  -24.2603 O   0  0  0  0  0  0  0  0  0  0  0  0
  -25.7310   29.8542  -24.7119 O   0  0  0  0  0  0  0  0  0  0  0  0
  -26.4013   30.7547  -25.1170 C   0  0  0  0  0  0  0  0  0  0  0  0
  -25.1710   29.3858  -25.2993 H   0  0  0  0  0  0  0  0  0  0  0  0
  2  1  1  0  0  0
  2  4  1  0  0  0
  1  4  1  0  0  0
 14 13  2  0  0  0
  5  4  1  0  0  0
  5  6  1  0  0  0
  5  7  1  0  0  0
  4  9  1  0  0  0
 13 12  1  0  0  0
 13  6  1  0  0  0
  6  7  1  0  0  0
  7  3  1  0  0  0
  9  3  1  0  0  0
 16 18  2  0  0  0
  3 18  1  0  0  0
  3  8  1  0  0  0
 18 17  1  0  0  0
 12 15  1  0  0  0
 17 19  1  0  0  0
  8 10  1  0  0  0
  8 11  1  0  0  0
M  END
> <minimizedAffinity>
-8.49178

$$$$
4XAS_40H_A_601


 19 21  0  0  0  0  0  0  0  0999 V2000
  -27.6310   28.6972  -28.3901 C   0  0  0  0  0  0  0  0  0  0  0  0
  -26.7692   28.2163  -27.2354 C   0  0  0  0  0  0  0  0  0  0  0  0
  -27.2218   32.0011  -26.9454 C   0  0  0  0  0  0  0  0  0  0  0  0
  -27.3393   29.5861  -27.2085 C   0  0  0  0  0  0  0  0  0  0  0  0
  -28.4321   29.9563  -26.2176 C   0  0  0  0  0  0  0  0  0  0  0  0
  -27.9845   30.5640  -24.8942 C   0  0  0  0  0  0  0  0  0  0  0  0
  -28.3794   31.4688  -26.0679 C   0  0  0  0  0  0  0  0  0  0  0  0
  -26.3791   32.9622  -26.2120 N   0  0  0  0  0  0  0  0  0  0  0  0
  -26.4282   30.7487  -27.4067 C   0  0  0  0  0  0  0  0  0  0  0  0
  -26.0093   32.5180  -25.3716 H   0  0  0  0  0  0  0  0  0  0  0  0
  -26.9385   33.7738  -25.9496 H   0  0  0  0  0  0  0  0  0  0  0  0
  -29.5364   29.5256  -23.4329 O   0  0  0  0  0  0  0  0  0  0  0  0
  -28.9399   30.6774  -23.7736 C   0  0  0  0  0  0  0  0  0  0  0  0
  -29.1943   31.7146  -23.1140 O   0  0  0  0  0  0  0  0  0  0  0  0
  -29.3559   28.7436  -23.9164 H   0  0  0  0  0  0  0  0  0  0  0  0
  -27.1935   32.2858  -29.3361 O   0  0  0  0  0  0  0  0  0  0  0  0
  -28.6178   33.5047  -28.2147 O   0  0  0  0  0  0  0  0  0  0  0  0
  -27.7609   32.6745  -28.1863 C   0  0  0  0  0  0  0  0  0  0  0  0
  -29.0237   33.7865  -27.4186 H   0  0  0  0  0  0  0  0  0  0  0  0
  2  1  1  0  0  0
  2  4  1  0  0  0
  1  4  1  0  0  0
 14 13  2  0  0  0
  5  4  1  0  0  0
  5  6  1  0  0  0
  5  7  1  0  0  0
  4  9  1  0  0  0
 13 12  1  0  0  0
 13  6  1  0  0  0
  6  7  1  0  0  0
  7  3  1  0  0  0
  9  3  1  0  0  0
 16 18  2  0  0  0
  3 18  1  0  0  0
  3  8  1  0  0  0
 18 17  1  0  0  0
 12 15  1  0  0  0
 17 19  1  0  0  0
  8 10  1  0  0  0
  8 11  1  0  0  0
M  END
> <minimizedAffinity>
-8.38987

$$$$
4XAS_40H_A_601


 19 21  0  0  0  0  0  0  0  0999 V2000
  -27.3293   32.5769  -28.8932 C   0  0  0  0  0  0  0  0  0  0  0  0
  -28.1956   31.5548  -29.6089 C   0  0  0  0  0  0  0  0  0  0  0  0
  -28.5012   31.0081  -25.8378 C   0  0  0  0  0  0  0  0  0  0  0  0
  -28.3499   31.7567  -28.1468 C   0  0  0  0  0  0  0  0  0  0  0  0
  -29.6057   32.3981  -27.5768 C   0  0  0  0  0  0  0  0  0  0  0  0
  -30.7241   31.4577  -27.1458 C   0  0  0  0  0  0  0  0  0  0  0  0
  -29.6920   31.9529  -26.1252 C   0  0  0  0  0  0  0  0  0  0  0  0
  -28.9307   29.7893  -25.1294 N   0  0  0  0  0  0  0  0  0  0  0  0
  -27.8632   30.6970  -27.2188 C   0  0  0  0  0  0  0  0  0  0  0  0
  -29.6388   29.3063  -25.6824 H   0  0  0  0  0  0  0  0  0  0  0  0
  -29.3224   30.0433  -24.2225 H   0  0  0  0  0  0  0  0  0  0  0  0
  -32.3322   33.1750  -27.4414 O   0  0  0  0  0  0  0  0  0  0  0  0
  -32.0709   31.9937  -26.8626 C   0  0  0  0  0  0  0  0  0  0  0  0
  -32.9684   31.4337  -26.1870 O   0  0  0  0  0  0  0  0  0  0  0  0
  -31.6717   33.6044  -27.9486 H   0  0  0  0  0  0  0  0  0  0  0  0
  -27.5574   31.5228  -23.6833 O   0  0  0  0  0  0  0  0  0  0  0  0
  -26.5769   32.4038  -25.4253 O   0  0  0  0  0  0  0  0  0  0  0  0
  -27.4532   31.7107  -25.0058 C   0  0  0  0  0  0  0  0  0  0  0  0
  -26.4916   32.5443  -26.3478 H   0  0  0  0  0  0  0  0  0  0  0  0
  2  1  1  0  0  0
  2  4  1  0  0  0
  1  4  1  0  0  0
 14 13  2  0  0  0
  5  4  1  0  0  0
  5  6  1  0  0  0
  5  7  1  0  0  0
  4  9  1  0  0  0
 13 12  1  0  0  0
 13  6  1  0  0  0
  6  7  1  0  0  0
  7  3  1  0  0  0
  9  3  1  0  0  0
 16 18  2  0  0  0
  3 18  1  0  0  0
  3  8  1  0  0  0
 18 17  1  0  0  0
 12 15  1  0  0  0
 17 19  1  0  0  0
  8 10  1  0  0  0
  8 11  1  0  0  0
M  END
> <minimizedAffinity>
-8.16016

$$$$
4XAS_40H_A_601


 19 21  0  0  0  0  0  0  0  0999 V2000
  -26.6817   28.0854  -29.2442 C   0  0  0  0  0  0  0  0  0  0  0  0
  -27.8535   27.4771  -28.4930 C   0  0  0  0  0  0  0  0  0  0  0  0
  -26.1135   30.0130  -26.2223 C   0  0  0  0  0  0  0  0  0  0  0  0
  -27.1855   28.6899  -27.9588 C   0  0  0  0  0  0  0  0  0  0  0  0
  -27.8987   30.0331  -27.9511 C   0  0  0  0  0  0  0  0  0  0  0  0
  -28.6612   30.4005  -26.6844 C   0  0  0  0  0  0  0  0  0  0  0  0
  -27.2160   30.8738  -26.8834 C   0  0  0  0  0  0  0  0  0  0  0  0
  -26.1632   30.0984  -24.7519 N   0  0  0  0  0  0  0  0  0  0  0  0
  -26.3373   28.5661  -26.7397 C   0  0  0  0  0  0  0  0  0  0  0  0
  -27.0837   29.8045  -24.4252 H   0  0  0  0  0  0  0  0  0  0  0  0
  -25.9905   31.0607  -24.4613 H   0  0  0  0  0  0  0  0  0  0  0  0
  -30.5004   31.5213  -25.6927 O   0  0  0  0  0  0  0  0  0  0  0  0
  -29.6113   31.5313  -26.6966 C   0  0  0  0  0  0  0  0  0  0  0  0
  -29.6239   32.4845  -27.5132 O   0  0  0  0  0  0  0  0  0  0  0  0
  -30.5026   30.8160  -25.0758 H   0  0  0  0  0  0  0  0  0  0  0  0
  -23.8882   29.4553  -26.9532 O   0  0  0  0  0  0  0  0  0  0  0  0
  -24.3809   31.5798  -26.8259 O   0  0  0  0  0  0  0  0  0  0  0  0
  -24.7446   30.4513  -26.6893 C   0  0  0  0  0  0  0  0  0  0  0  0
  -24.9688   32.2866  -26.6451 H   0  0  0  0  0  0  0  0  0  0  0  0
  2  1  1  0  0  0
  2  4  1  0  0  0
  1  4  1  0  0  0
 14 13  2  0  0  0
  5  4  1  0  0  0
  5  6  1  0  0  0
  5  7  1  0  0  0
  4  9  1  0  0  0
 13 12  1  0  0  0
 13  6  1  0  0  0
  6  7  1  0  0  0
  7  3  1  0  0  0
  9  3  1  0  0  0
 16 18  2  0  0  0
  3 18  1  0  0  0
  3  8  1  0  0  0
 18 17  1  0  0  0
 12 15  1  0  0  0
 17 19  1  0  0  0
  8 10  1  0  0  0
  8 11  1  0  0  0
M  END
> <minimizedAffinity>
-7.95249

$$$$
4XAS_40H_A_601


 19 21  0  0  0  0  0  0  0  0999 V2000
  -27.7914   30.0510  -25.0427 C   0  0  0  0  0  0  0  0  0  0  0  0
  -28.4612   31.1081  -24.1817 C   0  0  0  0  0  0  0  0  0  0  0  0
  -28.3675   32.3401  -27.7993 C   0  0  0  0  0  0  0  0  0  0  0  0
  -28.5507   31.1972  -25.6603 C   0  0  0  0  0  0  0  0  0  0  0  0
  -29.8723   30.9662  -26.3765 C   0  0  0  0  0  0  0  0  0  0  0  0
  -30.7230   32.1966  -26.6654 C   0  0  0  0  0  0  0  0  0  0  0  0
  -29.7543   31.6583  -27.7256 C   0  0  0  0  0  0  0  0  0  0  0  0
  -28.4669   33.7266  -28.2885 N   0  0  0  0  0  0  0  0  0  0  0  0
  -27.7777   32.2586  -26.3652 C   0  0  0  0  0  0  0  0  0  0  0  0
  -29.0895   34.2581  -27.6800 H   0  0  0  0  0  0  0  0  0  0  0  0
  -28.8386   33.7262  -29.2384 H   0  0  0  0  0  0  0  0  0  0  0  0
  -32.8653   31.2565  -26.2793 O   0  0  0  0  0  0  0  0  0  0  0  0
  -32.1307   32.0390  -27.0835 C   0  0  0  0  0  0  0  0  0  0  0  0
  -32.6819   32.5915  -28.0666 O   0  0  0  0  0  0  0  0  0  0  0  0
  -32.4671   30.8377  -25.5417 H   0  0  0  0  0  0  0  0  0  0  0  0
  -27.6625   31.7387  -30.0215 O   0  0  0  0  0  0  0  0  0  0  0  0
  -26.5680   30.8345  -28.3612 O   0  0  0  0  0  0  0  0  0  0  0  0
  -27.4425   31.5674  -28.7110 C   0  0  0  0  0  0  0  0  0  0  0  0
  -26.4025   30.7049  -27.4481 H   0  0  0  0  0  0  0  0  0  0  0  0
  2  1  1  0  0  0
  2  4  1  0  0  0
  1  4  1  0  0  0
 14 13  2  0  0  0
  5  4  1  0  0  0
  5  6  1  0  0  0
  5  7  1  0  0  0
  4  9  1  0  0  0
 13 12  1  0  0  0
 13  6  1  0  0  0
  6  7  1  0  0  0
  7  3  1  0  0  0
  9  3  1  0  0  0
 16 18  2  0  0  0
  3 18  1  0  0  0
  3  8  1  0  0  0
 18 17  1  0  0  0
 12 15  1  0  0  0
 17 19  1  0  0  0
  8 10  1  0  0  0
  8 11  1  0  0  0
M  END
> <minimizedAffinity>
-7.91565

$$$$
4XAS_40H_A_601


 19 21  0  0  0  0  0  0  0  0999 V2000
  -26.2056   28.7500  -25.9438 C   0  0  0  0  0  0  0  0  0  0  0  0
  -26.1364   30.0408  -25.1460 C   0  0  0  0  0  0  0  0  0  0  0  0
  -27.1055   30.8676  -28.7503 C   0  0  0  0  0  0  0  0  0  0  0  0
  -26.7672   30.0379  -26.4892 C   0  0  0  0  0  0  0  0  0  0  0  0
  -28.2671   30.2343  -26.6465 C   0  0  0  0  0  0  0  0  0  0  0  0
  -28.7544   31.6592  -26.8770 C   0  0  0  0  0  0  0  0  0  0  0  0
  -28.4869   30.7299  -28.0674 C   0  0  0  0  0  0  0  0  0  0  0  0
  -26.9708   32.1557  -29.4535 N   0  0  0  0  0  0  0  0  0  0  0  0
  -26.0544   30.6966  -27.6202 C   0  0  0  0  0  0  0  0  0  0  0  0
  -27.1160   32.9200  -28.7938 H   0  0  0  0  0  0  0  0  0  0  0  0
  -27.6667   32.2115  -30.1971 H   0  0  0  0  0  0  0  0  0  0  0  0
  -30.7903   31.4194  -25.6855 O   0  0  0  0  0  0  0  0  0  0  0  0
  -30.1906   31.9782  -26.7469 C   0  0  0  0  0  0  0  0  0  0  0  0
  -30.8563   32.7346  -27.4955 O   0  0  0  0  0  0  0  0  0  0  0  0
  -30.3056   30.8526  -25.1181 H   0  0  0  0  0  0  0  0  0  0  0  0
  -26.6856   30.1386  -31.0063 O   0  0  0  0  0  0  0  0  0  0  0  0
  -26.8920   28.5807  -29.4888 O   0  0  0  0  0  0  0  0  0  0  0  0
  -26.8877   29.7472  -29.7409 C   0  0  0  0  0  0  0  0  0  0  0  0
  -27.0320   28.2921  -28.6085 H   0  0  0  0  0  0  0  0  0  0  0  0
  2  1  1  0  0  0
  2  4  1  0  0  0
  1  4  1  0  0  0
 14 13  2  0  0  0
  5  4  1  0  0  0
  5  6  1  0  0  0
  5  7  1  0  0  0
  4  9  1  0  0  0
 13 12  1  0  0  0
 13  6  1  0  0  0
  6  7  1  0  0  0
  7  3  1  0  0  0
  9  3  1  0  0  0
 16 18  2  0  0  0
  3 18  1  0  0  0
  3  8  1  0  0  0
 18 17  1  0  0  0
 12 15  1  0  0  0
 17 19  1  0  0  0
  8 10  1  0  0  0
  8 11  1  0  0  0
M  END
> <minimizedAffinity>
-7.36122

$$$$
