1F8B_DAN_A_0
  RCSB PDB12061702273D
Coordinates from PDB:1F8B:A:0 Model:1 without hydrogens
 20 20  0  0  0  0            999 V2000
   23.5900   19.8170   64.7510   C 0  0  0  0  0  0  0  0  0  0  0  0
   24.2140   18.8270   63.9990   C 0  0  0  0  0  0  0  0  0  0  0  0
   23.6030   17.6610   63.6220   C 0  0  0  0  0  0  0  0  0  0  0  0
   24.2540   16.6260   62.6510   C 0  0  0  0  0  0  0  0  0  0  0  0
   25.7790   16.7630   62.6410   C 0  0  0  0  0  0  0  0  0  0  0  0
   26.1590   18.2850   62.5250   C 0  0  0  0  0  0  0  0  0  0  0  0
   27.7080   18.5040   62.6430   C 0  0  0  0  0  0  0  0  0  0  0  0
   28.0510   19.9440   62.4810   C 0  0  0  0  0  0  0  0  0  0  0  0
   29.5300   20.2110   62.8080   C 0  0  0  0  0  0  0  0  0  0  0  0
   27.0810   14.9330   61.6470   C 0  0  0  0  0  0  0  0  0  0  0  0
   27.5840   14.2060   60.4190   C 0  0  0  0  0  0  0  0  0  0  0  0
   26.3170   16.0110   61.4920   N 0  0  0  0  0  0  0  0  0  0  0  0
   24.1940   20.8920   64.9420   O 0  0  0  0  0  0  0  0  0  0  0  0
   22.4530   19.6280   65.2260   O 0  0  0  0  0  0  0  0  0  0  0  0
   23.9190   15.3180   63.0330   O 0  0  0  0  0  0  0  0  0  0  0  0
   25.5330   19.0520   63.6170   O 0  0  0  0  0  0  0  0  0  0  0  0
   28.2370   18.1020   63.9050   O 0  0  0  0  0  0  0  0  0  0  0  0
   27.7740   20.3100   61.1710   O 0  0  0  0  0  0  0  0  0  0  0  0
   30.3970   19.5330   61.8950   O 0  0  0  0  0  0  0  0  0  0  0  0
   27.3990   14.4990   62.7490   O 0  0  0  0  0  0  0  0  0  0  0  0
  1  2  1  0  0  0  0
  1 13  2  0  0  0  0
  1 14  1  0  0  0  0
  2  3  2  0  0  0  0
  2 16  1  0  0  0  0
  3  4  1  0  0  0  0
  4  5  1  0  0  0  0
  4 15  1  0  0  0  0
  5  6  1  0  0  0  0
  5 12  1  0  0  0  0
  6  7  1  0  0  0  0
  6 16  1  0  0  0  0
  7  8  1  0  0  0  0
  7 17  1  0  0  0  0
  8  9  1  0  0  0  0
  8 18  1  0  0  0  0
  9 19  1  0  0  0  0
 10 11  1  0  0  0  0
 10 12  1  0  0  0  0
 10 20  2  0  0  0  0
A    1
C1
A    2
C2
A    3
C3
A    4
C4
A    5
C5
A    6
C6
A    7
C7
A    8
C8
A    9
C9
A   10
C10
A   11
C11
A   12
N5
A   13
O1A
A   14
O1B
A   15
O4
A   16
O6
A   17
O7
A   18
O8
A   19
O9
A   20
O10
M  END
>  <InstanceId>
1F8B_DAN_A_0

>  <ChemCompId>
DAN

>  <PdbId>
1F8B

>  <ChainId>
A

>  <ResidueNumber>
0

>  <InsertionCode>


>  <Model>
1

>  <AltIds>


>  <MissingHeavyAtoms>
0

>  <ObservedFormula>
C11 N O8

>  <Name>
2-DEOXY-2,3-DEHYDRO-N-ACETYL-NEURAMINIC ACID

>  <SystematicName>
(4S,5R,6R)-5-acetamido-4-hydroxy-6-[(1R,2R)-1,2,3-trihydroxypropyl]-5,6-dihydro-4H-pyran-2-carboxylic acid

>  <Synonyms>


>  <Type>
NON-POLYMER

>  <Formula>
C11 H17 N O8

>  <MolecularWeight>
291.255

>  <ModifiedDate>
2011-06-04

>  <Parent>


>  <OneLetterCode>


>  <SubcomponentList>


>  <AmbiguousFlag>
N

>  <InChI>
InChI=1S/C11H17NO8/c1-4(14)12-8-5(15)2-7(11(18)19)20-10(8)9(17)6(16)3-13/h2,5-6,8-10,13,15-17H,3H2,1H3,(H,12,14)(H,18,19)/t5-,6+,8+,9+,10+/m0/s1

>  <InChIKey>
JINJZWSZQKHCIP-UFGQHTETSA-N

>  <SMILES>
CC(=O)N[C@@H]1[C@H](C=C(O[C@H]1[C@@H]([C@@H](CO)O)O)C(=O)O)O

$$$$
