1CNX_EG2_A_555


 27 27  0  0  0  0  0  0  0  0999 V2000
   -3.1736    4.6742   14.0557 C   0  0  0  0  0  0  0  0  0  0  0  0
   -3.4200    5.7838   13.6901 O   0  0  0  0  0  0  0  0  0  0  0  0
   -1.8940    4.1874   13.6991 N   0  0  0  0  0  0  0  0  0  0  0  0
   -1.6269    3.2921   14.0093 H   0  0  0  0  0  0  0  0  0  0  0  0
   -4.0176    3.7892   14.8588 C   0  0  0  0  0  0  0  0  0  0  0  0
   -5.3950    4.0685   14.9556 C   0  0  0  0  0  0  0  0  0  0  0  0
   -6.1417    3.2094   15.7893 C   0  0  0  0  0  0  0  0  0  0  0  0
   -5.5626    2.1136   16.4753 C   0  0  0  0  0  0  0  0  0  0  0  0
   -4.1668    1.9239   16.3325 C   0  0  0  0  0  0  0  0  0  0  0  0
   -3.3943    2.7617   15.5243 C   0  0  0  0  0  0  0  0  0  0  0  0
   -6.5087    1.1436   17.4158 S   0  0  0  0  0  0  0  0  0  0  0  0
   -7.8078    1.0543   17.0283 O   0  0  0  0  0  0  0  0  0  0  0  0
   -5.7416   -0.1051   17.4037 O   0  0  0  0  0  0  0  0  0  0  0  0
   -6.4942    1.8597   18.7124 N   0  0  0  0  0  0  0  0  0  0  0  0
   -7.0570    1.3463   19.3907 H   0  0  0  0  0  0  0  0  0  0  0  0
   -6.8811    2.7953   18.5883 H   0  0  0  0  0  0  0  0  0  0  0  0
   -0.9655    4.9465   12.9014 C   0  0  0  0  0  0  0  0  0  0  0  0
   -0.7168    4.5459   11.5112 C   0  0  0  0  0  0  0  0  0  0  0  0
   -1.7858    3.7269   10.9832 O   0  0  0  0  0  0  0  0  0  0  0  0
   -2.7210    4.5054   10.2495 C   0  0  0  0  0  0  0  0  0  0  0  0
   -4.1204    3.9883   10.3809 C   0  0  0  0  0  0  0  0  0  0  0  0
   -4.0687    2.5364   10.4648 O   0  0  0  0  0  0  0  0  0  0  0  0
   -4.9190    2.1528   11.5183 C   0  0  0  0  0  0  0  0  0  0  0  0
   -4.3226    1.0853   12.2846 C   0  0  0  0  0  0  0  0  0  0  0  0
   -2.9172    1.3458   12.5393 N   0  0  0  0  0  0  0  0  0  0  0  0
   -2.4179    1.4143   11.6525 H   0  0  0  0  0  0  0  0  0  0  0  0
   -2.5250    0.5838   13.0924 H   0  0  0  0  0  0  0  0  0  0  0  0
 11 12  2  0  0  0
 11 13  2  0  0  0
 11 14  1  0  0  0
 11  8  1  0  0  0
  5  6  2  0  0  0
  5 10  1  0  0  0
  5  1  1  0  0  0
  6  7  1  0  0  0
  7  8  2  0  0  0
  8  9  1  0  0  0
  9 10  2  0  0  0
  1  2  2  0  0  0
  1  3  1  0  0  0
  3 17  1  0  0  0
 17 18  1  0  0  0
 18 19  1  0  0  0
 19 20  1  0  0  0
 20 21  1  0  0  0
 21 22  1  0  0  0
 22 23  1  0  0  0
 23 24  1  0  0  0
 24 25  1  0  0  0
 14 15  1  0  0  0
 14 16  1  0  0  0
  3  4  1  0  0  0
 25 26  1  0  0  0
 25 27  1  0  0  0
M  END
> <minimizedAffinity>
-7.00028

$$$$
1CNX_EG2_A_555


 27 27  0  0  0  0  0  0  0  0999 V2000
   -4.1968    5.3156   13.8563 C   0  0  0  0  0  0  0  0  0  0  0  0
   -3.0620    5.5670   13.5829 O   0  0  0  0  0  0  0  0  0  0  0  0
   -5.1711    6.0321   13.1223 N   0  0  0  0  0  0  0  0  0  0  0  0
   -6.1221    5.8339   13.2827 H   0  0  0  0  0  0  0  0  0  0  0  0
   -4.6871    4.3307   14.8206 C   0  0  0  0  0  0  0  0  0  0  0  0
   -3.8315    3.2838   15.2163 C   0  0  0  0  0  0  0  0  0  0  0  0
   -4.3841    2.3377   16.1053 C   0  0  0  0  0  0  0  0  0  0  0  0
   -5.7085    2.4327   16.5988 C   0  0  0  0  0  0  0  0  0  0  0  0
   -6.4998    3.5087   16.1291 C   0  0  0  0  0  0  0  0  0  0  0  0
   -5.9890    4.4577   15.2400 C   0  0  0  0  0  0  0  0  0  0  0  0
   -6.2737    1.2958   17.6517 S   0  0  0  0  0  0  0  0  0  0  0  0
   -5.5558    0.1432   17.6958 O   0  0  0  0  0  0  0  0  0  0  0  0
   -6.3408    2.0654   18.8970 O   0  0  0  0  0  0  0  0  0  0  0  0
   -7.5923    0.9598   17.0664 N   0  0  0  0  0  0  0  0  0  0  0  0
   -8.0489    0.2515   17.6411 H   0  0  0  0  0  0  0  0  0  0  0  0
   -7.4628    0.5990   16.1212 H   0  0  0  0  0  0  0  0  0  0  0  0
   -4.8307    7.0391   12.1504 C   0  0  0  0  0  0  0  0  0  0  0  0
   -5.2379    6.8557   10.7520 C   0  0  0  0  0  0  0  0  0  0  0  0
   -4.9733    5.5136   10.2817 O   0  0  0  0  0  0  0  0  0  0  0  0
   -3.7033    5.4267    9.6504 C   0  0  0  0  0  0  0  0  0  0  0  0
   -2.8495    4.3438   10.2345 C   0  0  0  0  0  0  0  0  0  0  0  0
   -3.6205    3.1098   10.2540 O   0  0  0  0  0  0  0  0  0  0  0  0
   -3.6446    2.6585   11.5866 C   0  0  0  0  0  0  0  0  0  0  0  0
   -4.6693    1.6578   11.7617 C   0  0  0  0  0  0  0  0  0  0  0  0
   -5.9163    2.0717   11.1440 N   0  0  0  0  0  0  0  0  0  0  0  0
   -6.2412    2.9350   11.5794 H   0  0  0  0  0  0  0  0  0  0  0  0
   -6.6175    1.3420   11.2713 H   0  0  0  0  0  0  0  0  0  0  0  0
 11 12  2  0  0  0
 11 13  2  0  0  0
 11 14  1  0  0  0
 11  8  1  0  0  0
  5  6  2  0  0  0
  5 10  1  0  0  0
  5  1  1  0  0  0
  6  7  1  0  0  0
  7  8  2  0  0  0
  8  9  1  0  0  0
  9 10  2  0  0  0
  1  2  2  0  0  0
  1  3  1  0  0  0
  3 17  1  0  0  0
 17 18  1  0  0  0
 18 19  1  0  0  0
 19 20  1  0  0  0
 20 21  1  0  0  0
 21 22  1  0  0  0
 22 23  1  0  0  0
 23 24  1  0  0  0
 24 25  1  0  0  0
 14 15  1  0  0  0
 14 16  1  0  0  0
  3  4  1  0  0  0
 25 26  1  0  0  0
 25 27  1  0  0  0
M  END
> <minimizedAffinity>
-6.48156

$$$$
1CNX_EG2_A_555


 27 27  0  0  0  0  0  0  0  0999 V2000
   -4.5118    5.4782   13.6893 C   0  0  0  0  0  0  0  0  0  0  0  0
   -5.1948    6.0080   12.8655 O   0  0  0  0  0  0  0  0  0  0  0  0
   -3.2065    6.0060   13.8267 N   0  0  0  0  0  0  0  0  0  0  0  0
   -2.6162    5.6296   14.5188 H   0  0  0  0  0  0  0  0  0  0  0  0
   -4.8829    4.3882   14.5920 C   0  0  0  0  0  0  0  0  0  0  0  0
   -3.9389    3.3774   14.8597 C   0  0  0  0  0  0  0  0  0  0  0  0
   -4.3786    2.3275   15.6934 C   0  0  0  0  0  0  0  0  0  0  0  0
   -5.6784    2.2887   16.2553 C   0  0  0  0  0  0  0  0  0  0  0  0
   -6.5641    3.3390   15.9133 C   0  0  0  0  0  0  0  0  0  0  0  0
   -6.1664    4.3887   15.0816 C   0  0  0  0  0  0  0  0  0  0  0  0
   -6.1091    1.0353   17.2373 S   0  0  0  0  0  0  0  0  0  0  0  0
   -5.6009    1.0882   18.4961 O   0  0  0  0  0  0  0  0  0  0  0  0
   -7.5699    1.0719   17.1261 O   0  0  0  0  0  0  0  0  0  0  0  0
   -5.4714   -0.1194   16.5635 N   0  0  0  0  0  0  0  0  0  0  0  0
   -5.6704   -0.9714   17.0879 H   0  0  0  0  0  0  0  0  0  0  0  0
   -4.4627    0.0261   16.5213 H   0  0  0  0  0  0  0  0  0  0  0  0
   -2.7047    7.0709   12.9967 C   0  0  0  0  0  0  0  0  0  0  0  0
   -1.5664    6.8132   12.1062 C   0  0  0  0  0  0  0  0  0  0  0  0
   -1.2735    5.4011   11.9952 O   0  0  0  0  0  0  0  0  0  0  0  0
   -1.4247    4.9441   10.6583 C   0  0  0  0  0  0  0  0  0  0  0  0
   -2.8207    4.4871   10.3666 C   0  0  0  0  0  0  0  0  0  0  0  0
   -3.1067    3.3243   11.1937 O   0  0  0  0  0  0  0  0  0  0  0  0
   -4.4581    2.9918   10.9860 C   0  0  0  0  0  0  0  0  0  0  0  0
   -4.7451    1.6856   11.5282 C   0  0  0  0  0  0  0  0  0  0  0  0
   -4.9049    0.7036   10.4709 N   0  0  0  0  0  0  0  0  0  0  0  0
   -5.6841    0.9738    9.8708 H   0  0  0  0  0  0  0  0  0  0  0  0
   -5.0935   -0.2108   10.8819 H   0  0  0  0  0  0  0  0  0  0  0  0
 11 12  2  0  0  0
 11 13  2  0  0  0
 11 14  1  0  0  0
 11  8  1  0  0  0
  5  6  2  0  0  0
  5 10  1  0  0  0
  5  1  1  0  0  0
  6  7  1  0  0  0
  7  8  2  0  0  0
  8  9  1  0  0  0
  9 10  2  0  0  0
  1  2  2  0  0  0
  1  3  1  0  0  0
  3 17  1  0  0  0
 17 18  1  0  0  0
 18 19  1  0  0  0
 19 20  1  0  0  0
 20 21  1  0  0  0
 21 22  1  0  0  0
 22 23  1  0  0  0
 23 24  1  0  0  0
 24 25  1  0  0  0
 14 15  1  0  0  0
 14 16  1  0  0  0
  3  4  1  0  0  0
 25 26  1  0  0  0
 25 27  1  0  0  0
M  END
> <minimizedAffinity>
-6.38818

$$$$
1CNX_EG2_A_555


 27 27  0  0  0  0  0  0  0  0999 V2000
   -3.8495    5.1907   13.6825 C   0  0  0  0  0  0  0  0  0  0  0  0
   -4.3653    5.8348   12.8195 O   0  0  0  0  0  0  0  0  0  0  0  0
   -2.4665    5.4227   13.8693 N   0  0  0  0  0  0  0  0  0  0  0  0
   -2.0020    4.9449   14.5939 H   0  0  0  0  0  0  0  0  0  0  0  0
   -4.4876    4.2337   14.5867 C   0  0  0  0  0  0  0  0  0  0  0  0
   -5.8270    4.4482   14.9669 C   0  0  0  0  0  0  0  0  0  0  0  0
   -6.3646    3.5198   15.8833 C   0  0  0  0  0  0  0  0  0  0  0  0
   -5.6247    2.4197   16.3822 C   0  0  0  0  0  0  0  0  0  0  0  0
   -4.2794    2.2976   15.9583 C   0  0  0  0  0  0  0  0  0  0  0  0
   -3.7108    3.2046   15.0606 C   0  0  0  0  0  0  0  0  0  0  0  0
   -6.3327    1.3670   17.4364 S   0  0  0  0  0  0  0  0  0  0  0  0
   -7.5653    0.9272   17.0716 O   0  0  0  0  0  0  0  0  0  0  0  0
   -5.2912    0.3439   17.5641 O   0  0  0  0  0  0  0  0  0  0  0  0
   -6.5152    2.2102   18.6405 N   0  0  0  0  0  0  0  0  0  0  0  0
   -6.9539    1.6590   19.3782 H   0  0  0  0  0  0  0  0  0  0  0  0
   -7.1104    3.0061   18.4112 H   0  0  0  0  0  0  0  0  0  0  0  0
   -1.7094    6.3285   13.0441 C   0  0  0  0  0  0  0  0  0  0  0  0
   -1.0134    5.8112   11.8597 C   0  0  0  0  0  0  0  0  0  0  0  0
   -0.5545    4.4527   12.0505 O   0  0  0  0  0  0  0  0  0  0  0  0
    0.4688    4.1165   11.1237 C   0  0  0  0  0  0  0  0  0  0  0  0
    1.8184    4.5893   11.5686 C   0  0  0  0  0  0  0  0  0  0  0  0
    2.7625    4.3753   10.4820 O   0  0  0  0  0  0  0  0  0  0  0  0
    2.0355    3.8406    9.4023 C   0  0  0  0  0  0  0  0  0  0  0  0
    2.9102    3.1072    8.5194 C   0  0  0  0  0  0  0  0  0  0  0  0
    4.3039    3.3302    8.8593 N   0  0  0  0  0  0  0  0  0  0  0  0
    4.5220    4.3222    8.7665 H   0  0  0  0  0  0  0  0  0  0  0  0
    4.8980    2.7911    8.2294 H   0  0  0  0  0  0  0  0  0  0  0  0
 11 12  2  0  0  0
 11 13  2  0  0  0
 11 14  1  0  0  0
 11  8  1  0  0  0
  5  6  2  0  0  0
  5 10  1  0  0  0
  5  1  1  0  0  0
  6  7  1  0  0  0
  7  8  2  0  0  0
  8  9  1  0  0  0
  9 10  2  0  0  0
  1  2  2  0  0  0
  1  3  1  0  0  0
  3 17  1  0  0  0
 17 18  1  0  0  0
 18 19  1  0  0  0
 19 20  1  0  0  0
 20 21  1  0  0  0
 21 22  1  0  0  0
 22 23  1  0  0  0
 23 24  1  0  0  0
 24 25  1  0  0  0
 14 15  1  0  0  0
 14 16  1  0  0  0
  3  4  1  0  0  0
 25 26  1  0  0  0
 25 27  1  0  0  0
M  END
> <minimizedAffinity>
-5.51576

$$$$
1CNX_EG2_A_555


 27 27  0  0  0  0  0  0  0  0999 V2000
   -3.6512    4.8286   13.6342 C   0  0  0  0  0  0  0  0  0  0  0  0
   -4.0825    5.7600   13.0242 O   0  0  0  0  0  0  0  0  0  0  0  0
   -2.2712    4.5731   13.4568 N   0  0  0  0  0  0  0  0  0  0  0  0
   -1.8581    3.8395   13.9672 H   0  0  0  0  0  0  0  0  0  0  0  0
   -4.3701    3.9604   14.5669 C   0  0  0  0  0  0  0  0  0  0  0  0
   -5.7297    4.2216   14.8271 C   0  0  0  0  0  0  0  0  0  0  0  0
   -6.3487    3.3819   15.7770 C   0  0  0  0  0  0  0  0  0  0  0  0
   -5.6664    2.3208   16.4214 C   0  0  0  0  0  0  0  0  0  0  0  0
   -4.2960    2.1477   16.1103 C   0  0  0  0  0  0  0  0  0  0  0  0
   -3.6479    2.9675   15.1831 C   0  0  0  0  0  0  0  0  0  0  0  0
   -6.4675    1.3710   17.5061 S   0  0  0  0  0  0  0  0  0  0  0  0
   -6.4094    1.7938   18.7960 O   0  0  0  0  0  0  0  0  0  0  0  0
   -7.8021    1.3095   16.9039 O   0  0  0  0  0  0  0  0  0  0  0  0
   -5.7026    0.1046   17.4332 N   0  0  0  0  0  0  0  0  0  0  0  0
   -6.1108   -0.5766   18.0733 H   0  0  0  0  0  0  0  0  0  0  0  0
   -4.7321    0.2780   17.6949 H   0  0  0  0  0  0  0  0  0  0  0  0
   -1.4449    5.3407   12.5609 C   0  0  0  0  0  0  0  0  0  0  0  0
   -1.0346    4.7532   11.2797 C   0  0  0  0  0  0  0  0  0  0  0  0
   -2.1114    4.0222   10.6486 O   0  0  0  0  0  0  0  0  0  0  0  0
   -2.4037    4.5412    9.3586 C   0  0  0  0  0  0  0  0  0  0  0  0
   -3.0747    5.8787    9.4210 C   0  0  0  0  0  0  0  0  0  0  0  0
   -4.4239    5.7420    8.8930 O   0  0  0  0  0  0  0  0  0  0  0  0
   -5.0625    6.9841    9.0642 C   0  0  0  0  0  0  0  0  0  0  0  0
   -6.3572    6.8054    9.6759 C   0  0  0  0  0  0  0  0  0  0  0  0
   -6.2348    6.5880   11.1061 N   0  0  0  0  0  0  0  0  0  0  0  0
   -5.6868    5.7447   11.2762 H   0  0  0  0  0  0  0  0  0  0  0  0
   -7.1633    6.4781   11.5140 H   0  0  0  0  0  0  0  0  0  0  0  0
 11 12  2  0  0  0
 11 13  2  0  0  0
 11 14  1  0  0  0
 11  8  1  0  0  0
  5  6  2  0  0  0
  5 10  1  0  0  0
  5  1  1  0  0  0
  6  7  1  0  0  0
  7  8  2  0  0  0
  8  9  1  0  0  0
  9 10  2  0  0  0
  1  2  2  0  0  0
  1  3  1  0  0  0
  3 17  1  0  0  0
 17 18  1  0  0  0
 18 19  1  0  0  0
 19 20  1  0  0  0
 20 21  1  0  0  0
 21 22  1  0  0  0
 22 23  1  0  0  0
 23 24  1  0  0  0
 24 25  1  0  0  0
 14 15  1  0  0  0
 14 16  1  0  0  0
  3  4  1  0  0  0
 25 26  1  0  0  0
 25 27  1  0  0  0
M  END
> <minimizedAffinity>
-5.44983

$$$$
1CNX_EG2_A_555


 27 27  0  0  0  0  0  0  0  0999 V2000
   -3.6978    5.3439   13.9944 C   0  0  0  0  0  0  0  0  0  0  0  0
   -3.3577    5.2914   12.8510 O   0  0  0  0  0  0  0  0  0  0  0  0
   -3.5157    6.5970   14.6252 N   0  0  0  0  0  0  0  0  0  0  0  0
   -3.8156    6.7038   15.5568 H   0  0  0  0  0  0  0  0  0  0  0  0
   -4.3150    4.2848   14.7932 C   0  0  0  0  0  0  0  0  0  0  0  0
   -3.5307    3.1794   15.1769 C   0  0  0  0  0  0  0  0  0  0  0  0
   -4.2002    2.1682   15.8980 C   0  0  0  0  0  0  0  0  0  0  0  0
   -5.5710    2.2541   16.2444 C   0  0  0  0  0  0  0  0  0  0  0  0
   -6.2823    3.3939   15.7978 C   0  0  0  0  0  0  0  0  0  0  0  0
   -5.6543    4.4093   15.0722 C   0  0  0  0  0  0  0  0  0  0  0  0
   -6.2757    1.0375   17.1070 S   0  0  0  0  0  0  0  0  0  0  0  0
   -7.6327    1.0019   17.0509 O   0  0  0  0  0  0  0  0  0  0  0  0
   -5.5743   -0.1347   16.5764 O   0  0  0  0  0  0  0  0  0  0  0  0
   -5.9113    1.3927   18.4981 N   0  0  0  0  0  0  0  0  0  0  0  0
   -6.2984    0.6996   19.1385 H   0  0  0  0  0  0  0  0  0  0  0  0
   -6.2890    2.3129   18.7241 H   0  0  0  0  0  0  0  0  0  0  0  0
   -2.9101    7.7231   13.9621 C   0  0  0  0  0  0  0  0  0  0  0  0
   -1.5976    8.2023   14.4124 C   0  0  0  0  0  0  0  0  0  0  0  0
   -1.6822    8.9155   15.6679 O   0  0  0  0  0  0  0  0  0  0  0  0
   -0.9198   10.1141   15.6353 C   0  0  0  0  0  0  0  0  0  0  0  0
   -1.3836   11.0557   14.5670 C   0  0  0  0  0  0  0  0  0  0  0  0
   -0.3224   12.0173   14.3084 O   0  0  0  0  0  0  0  0  0  0  0  0
   -0.8615   13.2977   14.5316 C   0  0  0  0  0  0  0  0  0  0  0  0
    0.1504   14.1881   15.0470 C   0  0  0  0  0  0  0  0  0  0  0  0
   -0.3750   15.0120   16.1207 N   0  0  0  0  0  0  0  0  0  0  0  0
   -1.1448   15.5805   15.7675 H   0  0  0  0  0  0  0  0  0  0  0  0
    0.3630   15.6209   16.4743 H   0  0  0  0  0  0  0  0  0  0  0  0
 11 12  2  0  0  0
 11 13  2  0  0  0
 11 14  1  0  0  0
 11  8  1  0  0  0
  5  6  2  0  0  0
  5 10  1  0  0  0
  5  1  1  0  0  0
  6  7  1  0  0  0
  7  8  2  0  0  0
  8  9  1  0  0  0
  9 10  2  0  0  0
  1  2  2  0  0  0
  1  3  1  0  0  0
  3 17  1  0  0  0
 17 18  1  0  0  0
 18 19  1  0  0  0
 19 20  1  0  0  0
 20 21  1  0  0  0
 21 22  1  0  0  0
 22 23  1  0  0  0
 23 24  1  0  0  0
 24 25  1  0  0  0
 14 15  1  0  0  0
 14 16  1  0  0  0
  3  4  1  0  0  0
 25 26  1  0  0  0
 25 27  1  0  0  0
M  END
> <minimizedAffinity>
-5.30409

$$$$
1CNX_EG2_A_555


 27 27  0  0  0  0  0  0  0  0999 V2000
   -4.2704    5.4992   13.8466 C   0  0  0  0  0  0  0  0  0  0  0  0
   -3.8390    6.5611   14.1812 O   0  0  0  0  0  0  0  0  0  0  0  0
   -4.3154    5.2747   12.4506 N   0  0  0  0  0  0  0  0  0  0  0  0
   -4.6272    4.3999   12.1236 H   0  0  0  0  0  0  0  0  0  0  0  0
   -4.7103    4.4012   14.7077 C   0  0  0  0  0  0  0  0  0  0  0  0
   -3.8160    3.3452   14.9714 C   0  0  0  0  0  0  0  0  0  0  0  0
   -4.3209    2.2920   15.7629 C   0  0  0  0  0  0  0  0  0  0  0  0
   -5.6362    2.2916   16.2887 C   0  0  0  0  0  0  0  0  0  0  0  0
   -6.4688    3.3866   15.9534 C   0  0  0  0  0  0  0  0  0  0  0  0
   -6.0058    4.4414   15.1629 C   0  0  0  0  0  0  0  0  0  0  0  0
   -6.1446    1.0307   17.2228 S   0  0  0  0  0  0  0  0  0  0  0  0
   -5.7160    1.0585   18.5117 O   0  0  0  0  0  0  0  0  0  0  0  0
   -7.5949    1.0896   17.0207 O   0  0  0  0  0  0  0  0  0  0  0  0
   -5.4810   -0.1233   16.5731 N   0  0  0  0  0  0  0  0  0  0  0  0
   -5.7239   -0.9797   17.0711 H   0  0  0  0  0  0  0  0  0  0  0  0
   -4.4699    0.0085   16.5965 H   0  0  0  0  0  0  0  0  0  0  0  0
   -3.9245    6.2717   11.4874 C   0  0  0  0  0  0  0  0  0  0  0  0
   -2.7574    6.0261   10.6315 C   0  0  0  0  0  0  0  0  0  0  0  0
   -1.5272    5.9828   11.3910 O   0  0  0  0  0  0  0  0  0  0  0  0
   -0.3916    6.1024   10.5453 C   0  0  0  0  0  0  0  0  0  0  0  0
    0.4656    4.8745   10.5653 C   0  0  0  0  0  0  0  0  0  0  0  0
    1.2253    4.8635   11.8065 O   0  0  0  0  0  0  0  0  0  0  0  0
    1.8785    6.1062   11.9022 C   0  0  0  0  0  0  0  0  0  0  0  0
    3.2578    5.9228   12.2844 C   0  0  0  0  0  0  0  0  0  0  0  0
    3.5321    4.5335   12.6043 N   0  0  0  0  0  0  0  0  0  0  0  0
    2.9467    4.2430   13.3875 H   0  0  0  0  0  0  0  0  0  0  0  0
    4.5147    4.4305   12.8578 H   0  0  0  0  0  0  0  0  0  0  0  0
 11 12  2  0  0  0
 11 13  2  0  0  0
 11 14  1  0  0  0
 11  8  1  0  0  0
  5  6  2  0  0  0
  5 10  1  0  0  0
  5  1  1  0  0  0
  6  7  1  0  0  0
  7  8  2  0  0  0
  8  9  1  0  0  0
  9 10  2  0  0  0
  1  2  2  0  0  0
  1  3  1  0  0  0
  3 17  1  0  0  0
 17 18  1  0  0  0
 18 19  1  0  0  0
 19 20  1  0  0  0
 20 21  1  0  0  0
 21 22  1  0  0  0
 22 23  1  0  0  0
 23 24  1  0  0  0
 24 25  1  0  0  0
 14 15  1  0  0  0
 14 16  1  0  0  0
  3  4  1  0  0  0
 25 26  1  0  0  0
 25 27  1  0  0  0
M  END
> <minimizedAffinity>
-5.30164

$$$$
1CNX_EG2_A_555


 27 27  0  0  0  0  0  0  0  0999 V2000
   -4.3370    5.5687   13.7886 C   0  0  0  0  0  0  0  0  0  0  0  0
   -4.0835    6.6928   14.1014 O   0  0  0  0  0  0  0  0  0  0  0  0
   -4.1755    5.2694   12.4154 N   0  0  0  0  0  0  0  0  0  0  0  0
   -4.3348    4.3465   12.1121 H   0  0  0  0  0  0  0  0  0  0  0  0
   -4.7475    4.4686   14.6614 C   0  0  0  0  0  0  0  0  0  0  0  0
   -3.8159    3.4549   14.9598 C   0  0  0  0  0  0  0  0  0  0  0  0
   -4.2919    2.3957   15.7612 C   0  0  0  0  0  0  0  0  0  0  0  0
   -5.6156    2.3505   16.2637 C   0  0  0  0  0  0  0  0  0  0  0  0
   -6.4857    3.4044   15.8941 C   0  0  0  0  0  0  0  0  0  0  0  0
   -6.0517    4.4635   15.0930 C   0  0  0  0  0  0  0  0  0  0  0  0
   -6.0891    1.0861   17.2113 S   0  0  0  0  0  0  0  0  0  0  0  0
   -5.6542    1.1349   18.4975 O   0  0  0  0  0  0  0  0  0  0  0  0
   -7.5415    1.1095   17.0171 O   0  0  0  0  0  0  0  0  0  0  0  0
   -5.4025   -0.0577   16.5675 N   0  0  0  0  0  0  0  0  0  0  0  0
   -5.6226   -0.9152   17.0741 H   0  0  0  0  0  0  0  0  0  0  0  0
   -4.3946    0.0978   16.5840 H   0  0  0  0  0  0  0  0  0  0  0  0
   -3.7879    6.2580   11.4422 C   0  0  0  0  0  0  0  0  0  0  0  0
   -4.6691    6.5261   10.2992 C   0  0  0  0  0  0  0  0  0  0  0  0
   -6.0655    6.5136   10.6762 O   0  0  0  0  0  0  0  0  0  0  0  0
   -6.9062    6.7654    9.5587 C   0  0  0  0  0  0  0  0  0  0  0  0
   -6.4328    7.9264    8.7395 C   0  0  0  0  0  0  0  0  0  0  0  0
   -7.3678    9.0272    8.9177 O   0  0  0  0  0  0  0  0  0  0  0  0
   -6.6108   10.2132    8.9383 C   0  0  0  0  0  0  0  0  0  0  0  0
   -6.1617   10.5016   10.2790 C   0  0  0  0  0  0  0  0  0  0  0  0
   -6.1694   11.9302   10.5376 N   0  0  0  0  0  0  0  0  0  0  0  0
   -5.5381   12.3970    9.8865 H   0  0  0  0  0  0  0  0  0  0  0  0
   -5.8609   12.1042   11.4941 H   0  0  0  0  0  0  0  0  0  0  0  0
 11 12  2  0  0  0
 11 13  2  0  0  0
 11 14  1  0  0  0
 11  8  1  0  0  0
  5  6  2  0  0  0
  5 10  1  0  0  0
  5  1  1  0  0  0
  6  7  1  0  0  0
  7  8  2  0  0  0
  8  9  1  0  0  0
  9 10  2  0  0  0
  1  2  2  0  0  0
  1  3  1  0  0  0
  3 17  1  0  0  0
 17 18  1  0  0  0
 18 19  1  0  0  0
 19 20  1  0  0  0
 20 21  1  0  0  0
 21 22  1  0  0  0
 22 23  1  0  0  0
 23 24  1  0  0  0
 24 25  1  0  0  0
 14 15  1  0  0  0
 14 16  1  0  0  0
  3  4  1  0  0  0
 25 26  1  0  0  0
 25 27  1  0  0  0
M  END
> <minimizedAffinity>
-5.25384

$$$$
1CNX_EG2_A_555


 27 27  0  0  0  0  0  0  0  0999 V2000
   -4.4751    5.2270   13.6263 C   0  0  0  0  0  0  0  0  0  0  0  0
   -4.7185    5.1850   12.4581 O   0  0  0  0  0  0  0  0  0  0  0  0
   -3.7413    6.3586   14.0534 N   0  0  0  0  0  0  0  0  0  0  0  0
   -3.5478    6.4603   15.0133 H   0  0  0  0  0  0  0  0  0  0  0  0
   -4.8835    4.2751   14.6596 C   0  0  0  0  0  0  0  0  0  0  0  0
   -3.9828    3.2624   15.0438 C   0  0  0  0  0  0  0  0  0  0  0  0
   -4.4589    2.3449   16.0042 C   0  0  0  0  0  0  0  0  0  0  0  0
   -5.7519    2.4359   16.5755 C   0  0  0  0  0  0  0  0  0  0  0  0
   -6.5936    3.4758   16.1122 C   0  0  0  0  0  0  0  0  0  0  0  0
   -6.1594    4.3954   15.1543 C   0  0  0  0  0  0  0  0  0  0  0  0
   -6.2263    1.3346   17.7081 S   0  0  0  0  0  0  0  0  0  0  0  0
   -5.4514    0.2216   17.7902 O   0  0  0  0  0  0  0  0  0  0  0  0
   -6.2912    2.1691   18.9110 O   0  0  0  0  0  0  0  0  0  0  0  0
   -7.5448    0.9040   17.1883 N   0  0  0  0  0  0  0  0  0  0  0  0
   -7.9472    0.2083   17.8164 H   0  0  0  0  0  0  0  0  0  0  0  0
   -7.4281    0.4970   16.2603 H   0  0  0  0  0  0  0  0  0  0  0  0
   -3.2654    7.3683   13.1431 C   0  0  0  0  0  0  0  0  0  0  0  0
   -1.8959    7.8773   13.2859 C   0  0  0  0  0  0  0  0  0  0  0  0
   -1.4769    7.9261   14.6695 O   0  0  0  0  0  0  0  0  0  0  0  0
   -1.7970    9.1763   15.2641 C   0  0  0  0  0  0  0  0  0  0  0  0
   -0.5769    9.9384   15.6805 C   0  0  0  0  0  0  0  0  0  0  0  0
   -0.1201   10.7304   14.5484 O   0  0  0  0  0  0  0  0  0  0  0  0
    1.2525   10.4666   14.3865 C   0  0  0  0  0  0  0  0  0  0  0  0
    1.4630    9.5366   13.3034 C   0  0  0  0  0  0  0  0  0  0  0  0
    0.8173    9.9952   12.0867 N   0  0  0  0  0  0  0  0  0  0  0  0
   -0.1875   10.0738   12.2438 H   0  0  0  0  0  0  0  0  0  0  0  0
    0.9928    9.3273   11.3360 H   0  0  0  0  0  0  0  0  0  0  0  0
 11 12  2  0  0  0
 11 13  2  0  0  0
 11 14  1  0  0  0
 11  8  1  0  0  0
  5  6  2  0  0  0
  5 10  1  0  0  0
  5  1  1  0  0  0
  6  7  1  0  0  0
  7  8  2  0  0  0
  8  9  1  0  0  0
  9 10  2  0  0  0
  1  2  2  0  0  0
  1  3  1  0  0  0
  3 17  1  0  0  0
 17 18  1  0  0  0
 18 19  1  0  0  0
 19 20  1  0  0  0
 20 21  1  0  0  0
 21 22  1  0  0  0
 22 23  1  0  0  0
 23 24  1  0  0  0
 24 25  1  0  0  0
 14 15  1  0  0  0
 14 16  1  0  0  0
  3  4  1  0  0  0
 25 26  1  0  0  0
 25 27  1  0  0  0
M  END
> <minimizedAffinity>
-5.07455

$$$$
1CNX_EG2_A_555


 27 27  0  0  0  0  0  0  0  0999 V2000
   -4.3614    4.7012   13.1050 C   0  0  0  0  0  0  0  0  0  0  0  0
   -5.0211    5.1964   12.2417 O   0  0  0  0  0  0  0  0  0  0  0  0
   -2.9686    4.9313   13.0126 N   0  0  0  0  0  0  0  0  0  0  0  0
   -2.3842    4.5767   13.7211 H   0  0  0  0  0  0  0  0  0  0  0  0
   -4.8295    3.9308   14.2574 C   0  0  0  0  0  0  0  0  0  0  0  0
   -4.1189    2.7746   14.6350 C   0  0  0  0  0  0  0  0  0  0  0  0
   -4.6543    2.0476   15.7192 C   0  0  0  0  0  0  0  0  0  0  0  0
   -5.8206    2.4543   16.4126 C   0  0  0  0  0  0  0  0  0  0  0  0
   -6.4780    3.6190   15.9481 C   0  0  0  0  0  0  0  0  0  0  0  0
   -5.9825    4.3573   14.8705 C   0  0  0  0  0  0  0  0  0  0  0  0
   -6.3717    1.5592   17.6838 S   0  0  0  0  0  0  0  0  0  0  0  0
   -6.3645    2.1964   18.8838 O   0  0  0  0  0  0  0  0  0  0  0  0
   -7.6813    1.1292   17.1864 O   0  0  0  0  0  0  0  0  0  0  0  0
   -5.3609    0.4793   17.7636 N   0  0  0  0  0  0  0  0  0  0  0  0
   -5.5978   -0.1522   18.5287 H   0  0  0  0  0  0  0  0  0  0  0  0
   -4.4409    0.8865   17.9312 H   0  0  0  0  0  0  0  0  0  0  0  0
   -2.3695    5.6623   11.9258 C   0  0  0  0  0  0  0  0  0  0  0  0
   -2.1980    7.1154   12.0447 C   0  0  0  0  0  0  0  0  0  0  0  0
   -1.3755    7.4734   13.1795 O   0  0  0  0  0  0  0  0  0  0  0  0
   -0.0545    7.8077   12.7770 C   0  0  0  0  0  0  0  0  0  0  0  0
    0.0850    9.2571   12.4267 C   0  0  0  0  0  0  0  0  0  0  0  0
   -0.6361   10.0417   13.4179 O   0  0  0  0  0  0  0  0  0  0  0  0
    0.2417   10.2513   14.4974 C   0  0  0  0  0  0  0  0  0  0  0  0
   -0.4837   10.2499   15.7449 C   0  0  0  0  0  0  0  0  0  0  0  0
   -1.5371    9.2508   15.7367 N   0  0  0  0  0  0  0  0  0  0  0  0
   -2.1978    9.4595   14.9882 H   0  0  0  0  0  0  0  0  0  0  0  0
   -2.0239    9.2627   16.6330 H   0  0  0  0  0  0  0  0  0  0  0  0
 11 12  2  0  0  0
 11 13  2  0  0  0
 11 14  1  0  0  0
 11  8  1  0  0  0
  5  6  2  0  0  0
  5 10  1  0  0  0
  5  1  1  0  0  0
  6  7  1  0  0  0
  7  8  2  0  0  0
  8  9  1  0  0  0
  9 10  2  0  0  0
  1  2  2  0  0  0
  1  3  1  0  0  0
  3 17  1  0  0  0
 17 18  1  0  0  0
 18 19  1  0  0  0
 19 20  1  0  0  0
 20 21  1  0  0  0
 21 22  1  0  0  0
 22 23  1  0  0  0
 23 24  1  0  0  0
 24 25  1  0  0  0
 14 15  1  0  0  0
 14 16  1  0  0  0
  3  4  1  0  0  0
 25 26  1  0  0  0
 25 27  1  0  0  0
M  END
> <minimizedAffinity>
-4.93503

$$$$
