1CNX_EG2_A_555
  RCSB PDB12061702113D
Coordinates from PDB:1CNX:A:555 Model:1 without hydrogens
 22 22  0  0  0  0            999 V2000
   -5.9900    0.9170   17.0960   S 0  0  0  0  0  0  0  0  0  0  0  0
   -5.5100    0.9170   18.3670   O 0  0  0  0  0  0  0  0  0  0  0  0
   -7.4480    0.9590   16.9540   O 0  0  0  0  0  0  0  0  0  0  0  0
   -5.3370   -0.2090   16.3890   N 0  0  0  0  0  0  0  0  0  0  0  0
   -4.7060    4.3780   14.6230   C 0  0  0  0  0  0  0  0  0  0  0  0
   -3.7550    3.3780   14.9060   C 0  0  0  0  0  0  0  0  0  0  0  0
   -4.2130    2.2930   15.6830   C 0  0  0  0  0  0  0  0  0  0  0  0
   -5.5380    2.2100   16.1770   C 0  0  0  0  0  0  0  0  0  0  0  0
   -6.4280    3.2530   15.8240   C 0  0  0  0  0  0  0  0  0  0  0  0
   -6.0120    4.3370   15.0470   C 0  0  0  0  0  0  0  0  0  0  0  0
   -4.3140    5.5040   13.7750   C 0  0  0  0  0  0  0  0  0  0  0  0
   -4.9910    6.4220   13.4220   O 0  0  0  0  0  0  0  0  0  0  0  0
   -2.9650    5.5460   13.3510   N 0  0  0  0  0  0  0  0  0  0  0  0
   -2.4460    6.5890   12.5040   C 0  0  0  0  0  0  0  0  0  0  0  0
   -2.2090    7.9230   13.0690   C 0  0  0  0  0  0  0  0  0  0  0  0
   -1.3070    7.8810   14.1990   O 0  0  0  0  0  0  0  0  0  0  0  0
   -1.4860    9.0070   15.0470   C 0  0  0  0  0  0  0  0  0  0  0  0
   -0.3810   10.0080   14.9060   C 0  0  0  0  0  0  0  0  0  0  0  0
   -0.8170   11.2620   15.5020   O 0  0  0  0  0  0  0  0  0  0  0  0
   -0.1640   12.2980   14.8090   C 0  0  0  0  0  0  0  0  0  0  0  0
    0.1490   13.3850   15.7050   C 0  0  0  0  0  0  0  0  0  0  0  0
    0.3890   14.6150   14.9720   N 0  0  0  0  0  0  0  0  0  0  0  0
  1  2  2  0  0  0  0
  1  3  2  0  0  0  0
  1  4  1  0  0  0  0
  1  8  1  0  0  0  0
  5  6  2  0  0  0  0
  5 10  1  0  0  0  0
  5 11  1  0  0  0  0
  6  7  1  0  0  0  0
  7  8  2  0  0  0  0
  8  9  1  0  0  0  0
  9 10  2  0  0  0  0
 11 12  2  0  0  0  0
 11 13  1  0  0  0  0
 13 14  1  0  0  0  0
 14 15  1  0  0  0  0
 15 16  1  0  0  0  0
 16 17  1  0  0  0  0
 17 18  1  0  0  0  0
 18 19  1  0  0  0  0
 19 20  1  0  0  0  0
 20 21  1  0  0  0  0
 21 22  1  0  0  0  0
A    1
S
A    2
O1
A    3
O2
A    4
N1
A    5
C1
A    6
C2
A    7
C3
A    8
C4
A    9
C5
A   10
C6
A   11
C7
A   12
O3
A   13
N2
A   14
C8
A   15
C9
A   16
O4
A   17
C10
A   18
C11
A   19
O5
A   20
C12
A   21
C13
A   22
N3
M  END
>  <InstanceId>
1CNX_EG2_A_555

>  <ChemCompId>
EG2

>  <PdbId>
1CNX

>  <ChainId>
A

>  <ResidueNumber>
555

>  <InsertionCode>


>  <Model>
1

>  <AltIds>


>  <MissingHeavyAtoms>
0

>  <ObservedFormula>
C13 N3 O5 S

>  <Name>
AMINODI(ETHYLOXY)ETHYLAMINOCARBONYLBENZENESULFONAMIDE

>  <SystematicName>
N-[2-[2-(2-aminoethoxy)ethoxy]ethyl]-4-sulfamoyl-benzamide

>  <Synonyms>


>  <Type>
NON-POLYMER

>  <Formula>
C13 H21 N3 O5 S

>  <MolecularWeight>
331.388

>  <ModifiedDate>
2011-06-04

>  <Parent>


>  <OneLetterCode>


>  <SubcomponentList>


>  <AmbiguousFlag>
N

>  <InChI>
InChI=1S/C13H21N3O5S/c14-5-7-20-9-10-21-8-6-16-13(17)11-1-3-12(4-2-11)22(15,18)19/h1-4H,5-10,14H2,(H,16,17)(H2,15,18,19)

>  <InChIKey>
QGGYVKRXFQLYQD-UHFFFAOYSA-N

>  <SMILES>
c1cc(ccc1C(=O)NCCOCCOCCN)S(=O)(=O)N

$$$$
