3EBP_CPB_A_940
  RCSB PDB12061708263D
Coordinates from PDB:3EBP:A:940 Model:1 without hydrogens
 28 31  0  0  0  0            999 V2000
   43.6640   39.9960   27.9080   C 0  0  0  0  0  0  0  0  0  0  0  0
   42.6920   39.6050   28.9430   N 0  0  0  0  0  0  0  0  0  0  0  0
   41.3320   39.6430   28.3560   C 0  0  0  0  0  0  0  0  0  0  0  0
   40.2750   39.2770   29.4140   C 0  0  0  0  0  0  0  0  0  0  0  0
   40.6090   37.9170   30.0470   C 0  0  0  0  0  0  0  0  0  0  0  0
   42.0680   37.8680   30.5630   C 0  0  0  0  0  0  0  0  0  0  0  0
   43.0340   38.2510   29.4370   C 0  0  0  0  0  0  0  0  0  0  0  0
   39.5420   37.4920   31.1020   C 0  0  0  0  0  0  0  0  0  0  0  0
   38.7280   36.3900   30.7900   C 0  0  0  0  0  0  0  0  0  0  0  0
   38.9310   35.7490   29.5910   O 0  0  0  0  0  0  0  0  0  0  0  0
   38.1810   34.6440   29.2800   C 0  0  0  0  0  0  0  0  0  0  0  0
   37.1960   34.1910   30.1560   C 0  0  0  0  0  0  0  0  0  0  0  0
   36.9570   34.8520   31.3570   C 0  0  0  0  0  0  0  0  0  0  0  0
   36.0800   34.4380   32.1180   O 0  0  0  0  0  0  0  0  0  0  0  0
   37.7360   35.9640   31.6850   C 0  0  0  0  0  0  0  0  0  0  0  0
   37.5740   36.6230   32.9090   C 0  0  0  0  0  0  0  0  0  0  0  0
   36.6350   36.2280   33.8150   O 0  0  0  0  0  0  0  0  0  0  0  0
   38.3740   37.7130   33.2180   C 0  0  0  0  0  0  0  0  0  0  0  0
   39.3480   38.1540   32.3240   C 0  0  0  0  0  0  0  0  0  0  0  0
   40.0930   39.2270   32.6980   O 0  0  0  0  0  0  0  0  0  0  0  0
   38.4210   33.9460   28.0870   C 0  0  0  0  0  0  0  0  0  0  0  0
   38.8300   34.5770   26.8980   C 0  0  0  0  0  0  0  0  0  0  0  0
   39.0450   36.2890   26.7970  Cl 0  0  0  0  0  0  0  0  0  0  0  0
   39.0690   33.8290   25.7450   C 0  0  0  0  0  0  0  0  0  0  0  0
   38.9080   32.4450   25.7710   C 0  0  0  0  0  0  0  0  0  0  0  0
   38.5120   31.8100   26.9480   C 0  0  0  0  0  0  0  0  0  0  0  0
   38.2740   32.5510   28.0980   C 0  0  0  0  0  0  0  0  0  0  0  0
   42.2540   38.7900   31.6350   O 0  0  0  0  0  0  0  0  0  0  0  0
  1  2  1  0  0  0  0
  2  3  1  0  0  0  0
  2  7  1  0  0  0  0
  3  4  1  0  0  0  0
  4  5  1  0  0  0  0
  5  6  1  0  0  0  0
  5  8  1  0  0  0  0
  6  7  1  0  0  0  0
  6 28  1  0  0  0  0
  8  9  2  0  0  0  0
  8 19  1  0  0  0  0
  9 10  1  0  0  0  0
  9 15  1  0  0  0  0
 10 11  1  0  0  0  0
 11 12  2  0  0  0  0
 11 21  1  0  0  0  0
 12 13  1  0  0  0  0
 13 14  2  0  0  0  0
 13 15  1  0  0  0  0
 15 16  2  0  0  0  0
 16 17  1  0  0  0  0
 16 18  1  0  0  0  0
 18 19  2  0  0  0  0
 19 20  1  0  0  0  0
 21 22  2  0  0  0  0
 21 27  1  0  0  0  0
 22 23  1  0  0  0  0
 22 24  1  0  0  0  0
 24 25  2  0  0  0  0
 25 26  1  0  0  0  0
 26 27  2  0  0  0  0
A    1
C1
A    2
N1
A    3
C16
A    4
C15
A    5
C14
A    6
C13
A    7
C12
A    8
C8
A    9
C9
A   10
O1
A   11
C2
A   12
C3
A   13
C4
A   14
O4
A   15
C10
A   16
C5
A   17
O5
A   18
C6
A   19
C7
A   20
O7
A   21
C21
A   22
C22
A   23
CL1
A   24
C23
A   25
C24
A   26
C25
A   27
C26
A   28
O3
M  END
>  <InstanceId>
3EBP_CPB_A_940

>  <ChemCompId>
CPB

>  <PdbId>
3EBP

>  <ChainId>
A

>  <ResidueNumber>
940

>  <InsertionCode>


>  <Model>
1

>  <AltIds>


>  <MissingHeavyAtoms>
0

>  <ObservedFormula>
C21 N O5 Cl

>  <Name>
2-(2-CHLORO-PHENYL)-5,7-DIHYDROXY-8-(3-HYDROXY-1-METHYL-PIPERIDIN-4-YL)-4H-BENZOPYRAN-4-ONE

>  <SystematicName>
2-(2-chlorophenyl)-5,7-dihydroxy-8-[(1S,3S,4R)-3-hydroxy-1-methyl-piperidin-4-yl]chromen-4-one

>  <Synonyms>
FLAVOPIRIDOL

>  <Type>
NON-POLYMER

>  <Formula>
C21 H20 Cl N O5

>  <MolecularWeight>
401.84

>  <ModifiedDate>
2011-06-04

>  <Parent>


>  <OneLetterCode>


>  <SubcomponentList>


>  <AmbiguousFlag>
N

>  <InChI>
InChI=1S/C21H20ClNO5/c1-23-7-6-12(17(27)10-23)19-14(24)8-15(25)20-16(26)9-18(28-21(19)20)11-4-2-3-5-13(11)22/h2-5,8-9,12,17,24-25,27H,6-7,10H2,1H3/t12-,17+/m0/s1

>  <InChIKey>
BIIVYFLTOXDAOV-YVEFUNNKSA-N

>  <SMILES>
C[N@]1CC[C@@H]([C@@H](C1)O)c2c(cc(c3c2OC(=CC3=O)c4ccccc4Cl)O)O

$$$$
