3PPP_BET_A_401


  9  8  0  0  0  0  0  0  0  0999 V2000
  -29.7555  -31.2390    8.6084 C   0  0  0  0  0  0  0  0  0  0  0  0
  -29.5816  -29.8239    8.8406 N   0  0  0  0  0  0  0  0  0  0  0  0
  -30.8796  -29.1265    8.6059 C   0  0  0  0  0  0  0  0  0  0  0  0
  -28.5961  -29.2483    7.9496 C   0  0  0  0  0  0  0  0  0  0  0  0
  -29.2029  -29.6037   10.2167 C   0  0  0  0  0  0  0  0  0  0  0  0
  -28.5901  -32.1479    8.2005 C   0  0  0  0  0  0  0  0  0  0  0  0
  -27.5970  -32.2923    8.8563 O   0  0  0  0  0  0  0  0  0  0  0  0
  -28.7654  -32.6914    7.0726 O   0  0  0  0  0  0  0  0  0  0  0  0
  -29.5617  -32.5453    6.6008 H   0  0  0  0  0  0  0  0  0  0  0  0
  2  1  1  0  0  0
  2  3  1  0  0  0
  2  4  1  0  0  0
  2  5  1  0  0  0
  1  6  1  0  0  0
  6  7  2  0  0  0
  6  8  1  0  0  0
  8  9  1  0  0  0
M  CHG 1   2   1
M  END
> <minimizedAffinity>
-4.37830

$$$$
3PPP_BET_A_401


  9  8  0  0  0  0  0  0  0  0999 V2000
  -29.9052  -31.1408    8.6871 C   0  0  0  0  0  0  0  0  0  0  0  0
  -29.6996  -29.7290    8.9131 N   0  0  0  0  0  0  0  0  0  0  0  0
  -28.6536  -29.2303    7.9733 C   0  0  0  0  0  0  0  0  0  0  0  0
  -29.2541  -29.4584   10.2640 C   0  0  0  0  0  0  0  0  0  0  0  0
  -30.9225  -29.0127    8.6355 C   0  0  0  0  0  0  0  0  0  0  0  0
  -29.0523  -32.2104    9.3792 C   0  0  0  0  0  0  0  0  0  0  0  0
  -27.9469  -32.5120    9.0265 O   0  0  0  0  0  0  0  0  0  0  0  0
  -29.6585  -32.7777   10.3326 O   0  0  0  0  0  0  0  0  0  0  0  0
  -30.5228  -32.5029   10.5679 H   0  0  0  0  0  0  0  0  0  0  0  0
  2  1  1  0  0  0
  2  3  1  0  0  0
  2  4  1  0  0  0
  2  5  1  0  0  0
  1  6  1  0  0  0
  6  7  2  0  0  0
  6  8  1  0  0  0
  8  9  1  0  0  0
M  CHG 1   2   1
M  END
> <minimizedAffinity>
-4.28435

$$$$
3PPP_BET_A_401


  9  8  0  0  0  0  0  0  0  0999 V2000
  -29.9552  -31.1782    8.3444 C   0  0  0  0  0  0  0  0  0  0  0  0
  -29.1940  -30.3994    9.2934 N   0  0  0  0  0  0  0  0  0  0  0  0
  -28.4379  -29.3408    8.5628 C   0  0  0  0  0  0  0  0  0  0  0  0
  -28.2397  -31.2134   10.0168 C   0  0  0  0  0  0  0  0  0  0  0  0
  -30.0946  -29.7454   10.2135 C   0  0  0  0  0  0  0  0  0  0  0  0
  -29.7602  -32.6909    8.1877 C   0  0  0  0  0  0  0  0  0  0  0  0
  -30.2979  -33.5072    8.8818 O   0  0  0  0  0  0  0  0  0  0  0  0
  -28.9314  -32.9856    7.2797 O   0  0  0  0  0  0  0  0  0  0  0  0
  -28.5395  -32.3077    6.7651 H   0  0  0  0  0  0  0  0  0  0  0  0
  2  1  1  0  0  0
  2  3  1  0  0  0
  2  4  1  0  0  0
  2  5  1  0  0  0
  1  6  1  0  0  0
  6  7  2  0  0  0
  6  8  1  0  0  0
  8  9  1  0  0  0
M  CHG 1   2   1
M  END
> <minimizedAffinity>
-3.84681

$$$$
3PPP_BET_A_401


  9  8  0  0  0  0  0  0  0  0999 V2000
  -29.5236  -33.7278    9.2586 C   0  0  0  0  0  0  0  0  0  0  0  0
  -28.8849  -32.4367    9.1507 N   0  0  0  0  0  0  0  0  0  0  0  0
  -27.5593  -32.4880    9.8334 C   0  0  0  0  0  0  0  0  0  0  0  0
  -29.6704  -31.3926    9.7748 C   0  0  0  0  0  0  0  0  0  0  0  0
  -28.6548  -32.1270    7.7590 C   0  0  0  0  0  0  0  0  0  0  0  0
  -30.4222  -34.2886    8.1501 C   0  0  0  0  0  0  0  0  0  0  0  0
  -31.5213  -33.8744    7.9102 O   0  0  0  0  0  0  0  0  0  0  0  0
  -29.9003  -35.2695    7.5471 O   0  0  0  0  0  0  0  0  0  0  0  0
  -29.0365  -35.5532    7.7738 H   0  0  0  0  0  0  0  0  0  0  0  0
  2  1  1  0  0  0
  2  3  1  0  0  0
  2  4  1  0  0  0
  2  5  1  0  0  0
  1  6  1  0  0  0
  6  7  2  0  0  0
  6  8  1  0  0  0
  8  9  1  0  0  0
M  CHG 1   2   1
M  END
> <minimizedAffinity>
-3.81857

$$$$
3PPP_BET_A_401


  9  8  0  0  0  0  0  0  0  0999 V2000
  -29.5962  -31.2148    9.5254 C   0  0  0  0  0  0  0  0  0  0  0  0
  -28.8280  -32.3928    9.1958 N   0  0  0  0  0  0  0  0  0  0  0  0
  -29.5160  -33.5960    9.7482 C   0  0  0  0  0  0  0  0  0  0  0  0
  -27.4945  -32.3417    9.7576 C   0  0  0  0  0  0  0  0  0  0  0  0
  -28.7623  -32.5400    7.7607 C   0  0  0  0  0  0  0  0  0  0  0  0
  -28.9424  -29.8407    9.7132 C   0  0  0  0  0  0  0  0  0  0  0  0
  -28.3359  -29.2685    8.8519 O   0  0  0  0  0  0  0  0  0  0  0  0
  -29.0676  -29.3963   10.8901 O   0  0  0  0  0  0  0  0  0  0  0  0
  -29.5530  -29.8843   11.5259 H   0  0  0  0  0  0  0  0  0  0  0  0
  2  1  1  0  0  0
  2  3  1  0  0  0
  2  4  1  0  0  0
  2  5  1  0  0  0
  1  6  1  0  0  0
  6  7  2  0  0  0
  6  8  1  0  0  0
  8  9  1  0  0  0
M  CHG 1   2   1
M  END
> <minimizedAffinity>
-3.80771

$$$$
3PPP_BET_A_401


  9  8  0  0  0  0  0  0  0  0999 V2000
  -29.6256  -31.0885    9.5249 C   0  0  0  0  0  0  0  0  0  0  0  0
  -28.9034  -32.2920    9.1834 N   0  0  0  0  0  0  0  0  0  0  0  0
  -27.5261  -32.2140    9.7519 C   0  0  0  0  0  0  0  0  0  0  0  0
  -28.7877  -32.4631    7.7502 C   0  0  0  0  0  0  0  0  0  0  0  0
  -29.5620  -33.4338    9.7732 C   0  0  0  0  0  0  0  0  0  0  0  0
  -28.9333  -29.7248    9.6334 C   0  0  0  0  0  0  0  0  0  0  0  0
  -28.2758  -29.2399    8.7560 O   0  0  0  0  0  0  0  0  0  0  0  0
  -29.0877  -29.1869   10.7670 O   0  0  0  0  0  0  0  0  0  0  0  0
  -29.6128  -29.6089   11.4183 H   0  0  0  0  0  0  0  0  0  0  0  0
  2  1  1  0  0  0
  2  3  1  0  0  0
  2  4  1  0  0  0
  2  5  1  0  0  0
  1  6  1  0  0  0
  6  7  2  0  0  0
  6  8  1  0  0  0
  8  9  1  0  0  0
M  CHG 1   2   1
M  END
> <minimizedAffinity>
-3.80252

$$$$
3PPP_BET_A_401


  9  8  0  0  0  0  0  0  0  0999 V2000
  -29.2206  -33.3591    8.6516 C   0  0  0  0  0  0  0  0  0  0  0  0
  -29.8283  -34.6611    8.7999 N   0  0  0  0  0  0  0  0  0  0  0  0
  -31.1426  -34.6709    8.0938 C   0  0  0  0  0  0  0  0  0  0  0  0
  -30.0639  -34.9910   10.1900 C   0  0  0  0  0  0  0  0  0  0  0  0
  -28.9866  -35.6595    8.1833 C   0  0  0  0  0  0  0  0  0  0  0  0
  -29.0571  -32.3958    9.8332 C   0  0  0  0  0  0  0  0  0  0  0  0
  -29.9446  -31.7159   10.2661 O   0  0  0  0  0  0  0  0  0  0  0  0
  -27.8720  -32.3567   10.2718 O   0  0  0  0  0  0  0  0  0  0  0  0
  -27.2153  -32.9103    9.8972 H   0  0  0  0  0  0  0  0  0  0  0  0
  2  1  1  0  0  0
  2  3  1  0  0  0
  2  4  1  0  0  0
  2  5  1  0  0  0
  1  6  1  0  0  0
  6  7  2  0  0  0
  6  8  1  0  0  0
  8  9  1  0  0  0
M  CHG 1   2   1
M  END
> <minimizedAffinity>
-3.73127

$$$$
3PPP_BET_A_401


  9  8  0  0  0  0  0  0  0  0999 V2000
  -29.0690  -33.7743    8.8130 C   0  0  0  0  0  0  0  0  0  0  0  0
  -29.8748  -34.9659    8.6823 N   0  0  0  0  0  0  0  0  0  0  0  0
  -29.1475  -35.9581    7.8380 C   0  0  0  0  0  0  0  0  0  0  0  0
  -31.1486  -34.6891    8.0518 C   0  0  0  0  0  0  0  0  0  0  0  0
  -30.0776  -35.5566    9.9844 C   0  0  0  0  0  0  0  0  0  0  0  0
  -29.6892  -32.3920    9.0487 C   0  0  0  0  0  0  0  0  0  0  0  0
  -29.9895  -31.6376    8.1667 O   0  0  0  0  0  0  0  0  0  0  0  0
  -29.8043  -32.1105   10.2758 O   0  0  0  0  0  0  0  0  0  0  0  0
  -29.5545  -32.7375   10.9258 H   0  0  0  0  0  0  0  0  0  0  0  0
  2  1  1  0  0  0
  2  3  1  0  0  0
  2  4  1  0  0  0
  2  5  1  0  0  0
  1  6  1  0  0  0
  6  7  2  0  0  0
  6  8  1  0  0  0
  8  9  1  0  0  0
M  CHG 1   2   1
M  END
> <minimizedAffinity>
-3.68078

$$$$
3PPP_BET_A_401


  9  8  0  0  0  0  0  0  0  0999 V2000
  -29.4852  -33.5699    8.5352 C   0  0  0  0  0  0  0  0  0  0  0  0
  -29.4145  -34.9734    8.8691 N   0  0  0  0  0  0  0  0  0  0  0  0
  -28.2855  -35.1939    9.8194 C   0  0  0  0  0  0  0  0  0  0  0  0
  -29.1827  -35.7951    7.6996 C   0  0  0  0  0  0  0  0  0  0  0  0
  -30.6344  -35.3743    9.5299 C   0  0  0  0  0  0  0  0  0  0  0  0
  -29.1159  -32.4726    9.5404 C   0  0  0  0  0  0  0  0  0  0  0  0
  -29.8117  -32.1529   10.4628 O   0  0  0  0  0  0  0  0  0  0  0  0
  -28.0208  -31.9047    9.2639 O   0  0  0  0  0  0  0  0  0  0  0  0
  -27.5149  -32.1944    8.5304 H   0  0  0  0  0  0  0  0  0  0  0  0
  2  1  1  0  0  0
  2  3  1  0  0  0
  2  4  1  0  0  0
  2  5  1  0  0  0
  1  6  1  0  0  0
  6  7  2  0  0  0
  6  8  1  0  0  0
  8  9  1  0  0  0
M  CHG 1   2   1
M  END
> <minimizedAffinity>
-3.66997

$$$$
3PPP_BET_A_401


  9  8  0  0  0  0  0  0  0  0999 V2000
  -29.2074  -33.8172    8.9305 C   0  0  0  0  0  0  0  0  0  0  0  0
  -28.7023  -32.4717    9.0753 N   0  0  0  0  0  0  0  0  0  0  0  0
  -29.6893  -31.6586    9.8438 C   0  0  0  0  0  0  0  0  0  0  0  0
  -28.4965  -31.8320    7.7927 C   0  0  0  0  0  0  0  0  0  0  0  0
  -27.4691  -32.4974    9.8264 C   0  0  0  0  0  0  0  0  0  0  0  0
  -29.3608  -34.7640   10.1267 C   0  0  0  0  0  0  0  0  0  0  0  0
  -30.2929  -34.7394   10.8803 O   0  0  0  0  0  0  0  0  0  0  0  0
  -28.3738  -35.5418   10.2644 O   0  0  0  0  0  0  0  0  0  0  0  0
  -27.6704  -35.5202    9.6457 H   0  0  0  0  0  0  0  0  0  0  0  0
  2  1  1  0  0  0
  2  3  1  0  0  0
  2  4  1  0  0  0
  2  5  1  0  0  0
  1  6  1  0  0  0
  6  7  2  0  0  0
  6  8  1  0  0  0
  8  9  1  0  0  0
M  CHG 1   2   1
M  END
> <minimizedAffinity>
-3.60978

$$$$
