3TZM_085_A_1


 32 36  0  0  0  0  0  0  0  0999 V2000
    4.5778    8.7897    6.1710 C   0  0  0  0  0  0  0  0  0  0  0  0
    4.0764    8.2758    7.2974 N   0  0  0  0  0  0  0  0  0  0  0  0
    4.5871    8.9026    8.3604 C   0  0  0  0  0  0  0  0  0  0  0  0
    5.4441    9.8211    7.9092 N   0  0  0  0  0  0  0  0  0  0  0  0
    5.4699    9.7884    6.5683 C   0  0  0  0  0  0  0  0  0  0  0  0
    3.4236    7.5399    7.3381 H   0  0  0  0  0  0  0  0  0  0  0  0
    2.9354    7.9480    4.6045 C   0  0  0  0  0  0  0  0  0  0  0  0
    2.5743    7.3948    3.3819 C   0  0  0  0  0  0  0  0  0  0  0  0
    1.3466    7.0188    2.9121 O   0  0  0  0  0  0  0  0  0  0  0  0
    1.5306    6.6516    1.5574 C   0  0  0  0  0  0  0  0  0  0  0  0
    2.9529    6.6068    1.3098 O   0  0  0  0  0  0  0  0  0  0  0  0
    3.5503    7.1408    2.4121 C   0  0  0  0  0  0  0  0  0  0  0  0
    4.8790    7.4450    2.6772 C   0  0  0  0  0  0  0  0  0  0  0  0
    5.2295    8.0114    3.9086 C   0  0  0  0  0  0  0  0  0  0  0  0
    4.2609    8.2892    4.8850 C   0  0  0  0  0  0  0  0  0  0  0  0
    4.2737    8.6263    9.6960 C   0  0  0  0  0  0  0  0  0  0  0  0
    4.6618    9.4945   10.7282 C   0  0  0  0  0  0  0  0  0  0  0  0
    4.3377    9.1986   12.0587 C   0  0  0  0  0  0  0  0  0  0  0  0
    3.5794    7.4507   10.0219 C   0  0  0  0  0  0  0  0  0  0  0  0
    3.2656    7.1531   11.3527 C   0  0  0  0  0  0  0  0  0  0  0  0
    3.6348    8.0299   12.3734 C   0  0  0  0  0  0  0  0  0  0  0  0
    3.2861    7.7157   13.8317 C   0  0  0  0  0  0  0  0  0  0  0  0
    2.2396    7.1266   14.1294 O   0  0  0  0  0  0  0  0  0  0  0  0
    4.2056    8.0936   14.7183 N   0  0  0  0  0  0  0  0  0  0  0  0
    5.0184    8.5598   14.4162 H   0  0  0  0  0  0  0  0  0  0  0  0
    4.0723    7.9068   15.6757 H   0  0  0  0  0  0  0  0  0  0  0  0
    6.2446   10.6492    5.7682 C   0  0  0  0  0  0  0  0  0  0  0  0
    5.6254   11.2691    4.6839 C   0  0  0  0  0  0  0  0  0  0  0  0
    6.3540   12.1100    3.8438 C   0  0  0  0  0  0  0  0  0  0  0  0
    7.7206   12.2948    4.0713 C   0  0  0  0  0  0  0  0  0  0  0  0
    8.3090   11.6324    5.1602 C   0  0  0  0  0  0  0  0  0  0  0  0
    7.5781   10.8299    5.9620 N   0  0  0  0  0  0  0  0  0  0  0  0
 11 10  1  0  0  0
 11 12  1  0  0  0
 10  9  1  0  0  0
 12 13  2  0  0  0
 12  8  1  0  0  0
 13 14  1  0  0  0
  9  8  1  0  0  0
  8  7  2  0  0  0
 14 15  2  0  0  0
 31 30  2  0  0  0
 31 32  1  0  0  0
 30 29  1  0  0  0
 32 27  2  0  0  0
  7 15  1  0  0  0
 15  1  1  0  0  0
 29 28  2  0  0  0
 27 28  1  0  0  0
 27  5  1  0  0  0
  1  5  2  0  0  0
  1  2  1  0  0  0
  5  4  1  0  0  0
  2  3  1  0  0  0
  4  3  2  0  0  0
  3 16  1  0  0  0
 16 19  2  0  0  0
 16 17  1  0  0  0
 19 20  1  0  0  0
 17 18  2  0  0  0
 20 21  2  0  0  0
 18 21  1  0  0  0
 21 22  1  0  0  0
 22 24  1  0  0  0
 22 23  2  0  0  0
  2  6  1  0  0  0
 24 25  1  0  0  0
 24 26  1  0  0  0
M  END
> <minimizedAffinity>
-11.48168

$$$$
3TZM_085_A_1


 32 36  0  0  0  0  0  0  0  0999 V2000
    5.0376    9.4092    6.6933 C   0  0  0  0  0  0  0  0  0  0  0  0
    5.0838    9.4490    8.0276 N   0  0  0  0  0  0  0  0  0  0  0  0
    4.1394    8.6608    8.5479 C   0  0  0  0  0  0  0  0  0  0  0  0
    3.4643    8.1211    7.5308 N   0  0  0  0  0  0  0  0  0  0  0  0
    3.9827    8.5522    6.3710 C   0  0  0  0  0  0  0  0  0  0  0  0
    5.7228    9.9832    8.5526 H   0  0  0  0  0  0  0  0  0  0  0  0
    7.2609   10.1656    6.1063 C   0  0  0  0  0  0  0  0  0  0  0  0
    8.1354   10.9546    5.3687 C   0  0  0  0  0  0  0  0  0  0  0  0
    9.4971   11.0590    5.4330 O   0  0  0  0  0  0  0  0  0  0  0  0
    9.8861   11.8996    4.3626 C   0  0  0  0  0  0  0  0  0  0  0  0
    8.6842   12.4717    3.8019 O   0  0  0  0  0  0  0  0  0  0  0  0
    7.6408   11.8150    4.3825 C   0  0  0  0  0  0  0  0  0  0  0  0
    6.2740   11.8751    4.1445 C   0  0  0  0  0  0  0  0  0  0  0  0
    5.4036   11.0681    4.8869 C   0  0  0  0  0  0  0  0  0  0  0  0
    5.8846   10.1868    5.8670 C   0  0  0  0  0  0  0  0  0  0  0  0
    3.9108    8.4578    9.9135 C   0  0  0  0  0  0  0  0  0  0  0  0
    3.0920    7.4114   10.3656 C   0  0  0  0  0  0  0  0  0  0  0  0
    2.8763    7.2260   11.7374 C   0  0  0  0  0  0  0  0  0  0  0  0
    4.4872    9.3248   10.8550 C   0  0  0  0  0  0  0  0  0  0  0  0
    4.2621    9.1430   12.2241 C   0  0  0  0  0  0  0  0  0  0  0  0
    3.4647    8.0884   12.6698 C   0  0  0  0  0  0  0  0  0  0  0  0
    3.2217    7.8771   14.1675 C   0  0  0  0  0  0  0  0  0  0  0  0
    2.1216    7.5040   14.5935 O   0  0  0  0  0  0  0  0  0  0  0  0
    4.2852    8.0920   14.9403 N   0  0  0  0  0  0  0  0  0  0  0  0
    5.1336    8.3887   14.5386 H   0  0  0  0  0  0  0  0  0  0  0  0
    4.2227    7.9542   15.9131 H   0  0  0  0  0  0  0  0  0  0  0  0
    3.5277    8.1515    5.1007 C   0  0  0  0  0  0  0  0  0  0  0  0
    2.1522    8.0405    4.9030 C   0  0  0  0  0  0  0  0  0  0  0  0
    1.6498    7.6215    3.6718 C   0  0  0  0  0  0  0  0  0  0  0  0
    2.5361    7.2728    2.6490 C   0  0  0  0  0  0  0  0  0  0  0  0
    3.9137    7.3763    2.8988 C   0  0  0  0  0  0  0  0  0  0  0  0
    4.3724    7.7922    4.0978 N   0  0  0  0  0  0  0  0  0  0  0  0
 11 10  1  0  0  0
 11 12  1  0  0  0
 10  9  1  0  0  0
 12 13  2  0  0  0
 12  8  1  0  0  0
 13 14  1  0  0  0
  9  8  1  0  0  0
  8  7  2  0  0  0
 14 15  2  0  0  0
 31 30  2  0  0  0
 31 32  1  0  0  0
 30 29  1  0  0  0
 32 27  2  0  0  0
  7 15  1  0  0  0
 15  1  1  0  0  0
 29 28  2  0  0  0
 27 28  1  0  0  0
 27  5  1  0  0  0
  1  5  2  0  0  0
  1  2  1  0  0  0
  5  4  1  0  0  0
  2  3  1  0  0  0
  4  3  2  0  0  0
  3 16  1  0  0  0
 16 19  2  0  0  0
 16 17  1  0  0  0
 19 20  1  0  0  0
 17 18  2  0  0  0
 20 21  2  0  0  0
 18 21  1  0  0  0
 21 22  1  0  0  0
 22 24  1  0  0  0
 22 23  2  0  0  0
  2  6  1  0  0  0
 24 25  1  0  0  0
 24 26  1  0  0  0
M  END
> <minimizedAffinity>
-11.26242

$$$$
3TZM_085_A_1


 32 36  0  0  0  0  0  0  0  0999 V2000
    4.0080    8.7625    6.8389 C   0  0  0  0  0  0  0  0  0  0  0  0
    3.5469    8.3387    8.0187 N   0  0  0  0  0  0  0  0  0  0  0  0
    4.2441    8.8917    9.0146 C   0  0  0  0  0  0  0  0  0  0  0  0
    5.1798    9.6684    8.4642 N   0  0  0  0  0  0  0  0  0  0  0  0
    5.0715    9.6206    7.1279 C   0  0  0  0  0  0  0  0  0  0  0  0
    2.7997    7.7086    8.1372 H   0  0  0  0  0  0  0  0  0  0  0  0
    4.3994    7.9641    4.5873 C   0  0  0  0  0  0  0  0  0  0  0  0
    3.9587    7.5664    3.3308 C   0  0  0  0  0  0  0  0  0  0  0  0
    4.6690    7.1778    2.2292 O   0  0  0  0  0  0  0  0  0  0  0  0
    3.7202    6.7445    1.2722 C   0  0  0  0  0  0  0  0  0  0  0  0
    2.4115    7.1061    1.7649 O   0  0  0  0  0  0  0  0  0  0  0  0
    2.5889    7.5278    3.0486 C   0  0  0  0  0  0  0  0  0  0  0  0
    1.6740    7.8873    4.0295 C   0  0  0  0  0  0  0  0  0  0  0  0
    2.1295    8.2766    5.2948 C   0  0  0  0  0  0  0  0  0  0  0  0
    3.4987    8.3036    5.6000 C   0  0  0  0  0  0  0  0  0  0  0  0
    4.0231    8.6767   10.3797 C   0  0  0  0  0  0  0  0  0  0  0  0
    4.5310    9.5589   11.3458 C   0  0  0  0  0  0  0  0  0  0  0  0
    4.2980    9.3248   12.7074 C   0  0  0  0  0  0  0  0  0  0  0  0
    3.3017    7.5489   10.8015 C   0  0  0  0  0  0  0  0  0  0  0  0
    3.0790    7.3125   12.1627 C   0  0  0  0  0  0  0  0  0  0  0  0
    3.5675    8.2039   13.1185 C   0  0  0  0  0  0  0  0  0  0  0  0
    3.3192    7.9570   14.6099 C   0  0  0  0  0  0  0  0  0  0  0  0
    2.1888    7.6926   15.0378 O   0  0  0  0  0  0  0  0  0  0  0  0
    4.4090    8.0170   15.3736 N   0  0  0  0  0  0  0  0  0  0  0  0
    5.2810    8.2330   14.9709 H   0  0  0  0  0  0  0  0  0  0  0  0
    4.3424    7.8453   16.3407 H   0  0  0  0  0  0  0  0  0  0  0  0
    5.8841   10.3495    6.2393 C   0  0  0  0  0  0  0  0  0  0  0  0
    5.2577   11.1053    5.2495 C   0  0  0  0  0  0  0  0  0  0  0  0
    6.0167   11.8243    4.3271 C   0  0  0  0  0  0  0  0  0  0  0  0
    7.4114   11.7490    4.3753 C   0  0  0  0  0  0  0  0  0  0  0  0
    8.0006   10.9569    5.3734 C   0  0  0  0  0  0  0  0  0  0  0  0
    7.2416   10.2773    6.2584 N   0  0  0  0  0  0  0  0  0  0  0  0
 11 10  1  0  0  0
 11 12  1  0  0  0
 10  9  1  0  0  0
 12 13  2  0  0  0
 12  8  1  0  0  0
 13 14  1  0  0  0
  9  8  1  0  0  0
  8  7  2  0  0  0
 14 15  2  0  0  0
 31 30  2  0  0  0
 31 32  1  0  0  0
 30 29  1  0  0  0
 32 27  2  0  0  0
  7 15  1  0  0  0
 15  1  1  0  0  0
 29 28  2  0  0  0
 27 28  1  0  0  0
 27  5  1  0  0  0
  1  5  2  0  0  0
  1  2  1  0  0  0
  5  4  1  0  0  0
  2  3  1  0  0  0
  4  3  2  0  0  0
  3 16  1  0  0  0
 16 19  2  0  0  0
 16 17  1  0  0  0
 19 20  1  0  0  0
 17 18  2  0  0  0
 20 21  2  0  0  0
 18 21  1  0  0  0
 21 22  1  0  0  0
 22 24  1  0  0  0
 22 23  2  0  0  0
  2  6  1  0  0  0
 24 25  1  0  0  0
 24 26  1  0  0  0
M  END
> <minimizedAffinity>
-10.62365

$$$$
3TZM_085_A_1


 32 36  0  0  0  0  0  0  0  0999 V2000
    3.6340    8.7442    9.1600 C   0  0  0  0  0  0  0  0  0  0  0  0
    4.7698    9.3215    8.7589 N   0  0  0  0  0  0  0  0  0  0  0  0
    4.7774    9.4556    7.4301 C   0  0  0  0  0  0  0  0  0  0  0  0
    3.6361    8.9389    6.9696 N   0  0  0  0  0  0  0  0  0  0  0  0
    2.9010    8.4904    7.9983 C   0  0  0  0  0  0  0  0  0  0  0  0
    5.4974    9.6074    9.3573 H   0  0  0  0  0  0  0  0  0  0  0  0
    4.0630    9.1025   11.5153 C   0  0  0  0  0  0  0  0  0  0  0  0
    3.8874    8.7888   12.8577 C   0  0  0  0  0  0  0  0  0  0  0  0
    4.4504    9.3425   13.9738 O   0  0  0  0  0  0  0  0  0  0  0  0
    3.8140    8.7398   15.0854 C   0  0  0  0  0  0  0  0  0  0  0  0
    3.0156    7.6445   14.5864 O   0  0  0  0  0  0  0  0  0  0  0  0
    3.0202    7.7552   13.2281 C   0  0  0  0  0  0  0  0  0  0  0  0
    2.3365    7.0468   12.2489 C   0  0  0  0  0  0  0  0  0  0  0  0
    2.5137    7.3784   10.9003 C   0  0  0  0  0  0  0  0  0  0  0  0
    3.3657    8.4238   10.5128 C   0  0  0  0  0  0  0  0  0  0  0  0
    5.8077   10.0290    6.6763 C   0  0  0  0  0  0  0  0  0  0  0  0
    5.5369   10.9808    5.6810 C   0  0  0  0  0  0  0  0  0  0  0  0
    6.5835   11.5423    4.9378 C   0  0  0  0  0  0  0  0  0  0  0  0
    7.1369    9.6346    6.8958 C   0  0  0  0  0  0  0  0  0  0  0  0
    8.1791   10.1901    6.1452 C   0  0  0  0  0  0  0  0  0  0  0  0
    7.9071   11.1518    5.1715 C   0  0  0  0  0  0  0  0  0  0  0  0
    9.0439   11.7716    4.3527 C   0  0  0  0  0  0  0  0  0  0  0  0
    8.8123   12.5381    3.4095 O   0  0  0  0  0  0  0  0  0  0  0  0
   10.2684   11.4449    4.7629 N   0  0  0  0  0  0  0  0  0  0  0  0
   10.3853   10.8281    5.5213 H   0  0  0  0  0  0  0  0  0  0  0  0
   11.0565   11.8202    4.3077 H   0  0  0  0  0  0  0  0  0  0  0  0
    1.6231    7.9146    7.8691 C   0  0  0  0  0  0  0  0  0  0  0  0
    0.5130    8.7285    8.0893 C   0  0  0  0  0  0  0  0  0  0  0  0
   -0.7747    8.2015    8.0005 C   0  0  0  0  0  0  0  0  0  0  0  0
   -0.9447    6.8409    7.7302 C   0  0  0  0  0  0  0  0  0  0  0  0
    0.2011    6.0526    7.5390 C   0  0  0  0  0  0  0  0  0  0  0  0
    1.4358    6.5906    7.6232 N   0  0  0  0  0  0  0  0  0  0  0  0
 11 10  1  0  0  0
 11 12  1  0  0  0
 10  9  1  0  0  0
 12 13  2  0  0  0
 12  8  1  0  0  0
 13 14  1  0  0  0
  9  8  1  0  0  0
  8  7  2  0  0  0
 14 15  2  0  0  0
 31 30  2  0  0  0
 31 32  1  0  0  0
 30 29  1  0  0  0
 32 27  2  0  0  0
  7 15  1  0  0  0
 15  1  1  0  0  0
 29 28  2  0  0  0
 27 28  1  0  0  0
 27  5  1  0  0  0
  1  5  2  0  0  0
  1  2  1  0  0  0
  5  4  1  0  0  0
  2  3  1  0  0  0
  4  3  2  0  0  0
  3 16  1  0  0  0
 16 19  2  0  0  0
 16 17  1  0  0  0
 19 20  1  0  0  0
 17 18  2  0  0  0
 20 21  2  0  0  0
 18 21  1  0  0  0
 21 22  1  0  0  0
 22 24  1  0  0  0
 22 23  2  0  0  0
  2  6  1  0  0  0
 24 25  1  0  0  0
 24 26  1  0  0  0
M  END
> <minimizedAffinity>
-10.29930

$$$$
3TZM_085_A_1


 32 36  0  0  0  0  0  0  0  0999 V2000
    2.0241    8.3319    6.3177 C   0  0  0  0  0  0  0  0  0  0  0  0
    3.1637    8.9747    6.5867 N   0  0  0  0  0  0  0  0  0  0  0  0
    3.8839    9.1274    5.4724 C   0  0  0  0  0  0  0  0  0  0  0  0
    3.2038    8.5569    4.4756 N   0  0  0  0  0  0  0  0  0  0  0  0
    2.0530    8.0554    4.9488 C   0  0  0  0  0  0  0  0  0  0  0  0
    3.4342    9.2907    7.4790 H   0  0  0  0  0  0  0  0  0  0  0  0
    0.9996    6.6439    7.7181 C   0  0  0  0  0  0  0  0  0  0  0  0
    0.0537    6.2265    8.6466 C   0  0  0  0  0  0  0  0  0  0  0  0
   -0.1714    4.9883    9.1808 O   0  0  0  0  0  0  0  0  0  0  0  0
   -1.1597    5.1560   10.1803 C   0  0  0  0  0  0  0  0  0  0  0  0
   -1.6746    6.5000   10.0595 O   0  0  0  0  0  0  0  0  0  0  0  0
   -0.8611    7.1436    9.1756 C   0  0  0  0  0  0  0  0  0  0  0  0
   -0.8178    8.4707    8.7693 C   0  0  0  0  0  0  0  0  0  0  0  0
    0.1461    8.8817    7.8407 C   0  0  0  0  0  0  0  0  0  0  0  0
    1.0821    7.9788    7.3141 C   0  0  0  0  0  0  0  0  0  0  0  0
    5.1266    9.7655    5.3880 C   0  0  0  0  0  0  0  0  0  0  0  0
    5.3614   10.7771    4.4439 C   0  0  0  0  0  0  0  0  0  0  0  0
    6.6131   11.4028    4.3764 C   0  0  0  0  0  0  0  0  0  0  0  0
    6.1705    9.3779    6.2426 C   0  0  0  0  0  0  0  0  0  0  0  0
    7.4226    9.9980    6.1662 C   0  0  0  0  0  0  0  0  0  0  0  0
    7.6448   11.0181    5.2405 C   0  0  0  0  0  0  0  0  0  0  0  0
    9.0099   11.7084    5.1577 C   0  0  0  0  0  0  0  0  0  0  0  0
    9.4518   12.1311    4.0822 O   0  0  0  0  0  0  0  0  0  0  0  0
    9.6403   11.8382    6.3240 N   0  0  0  0  0  0  0  0  0  0  0  0
    9.2341   11.4789    7.1457 H   0  0  0  0  0  0  0  0  0  0  0  0
   10.5123   12.2934    6.3642 H   0  0  0  0  0  0  0  0  0  0  0  0
    1.0818    7.4139    4.1573 C   0  0  0  0  0  0  0  0  0  0  0  0
    1.4734    6.9178    2.9148 C   0  0  0  0  0  0  0  0  0  0  0  0
    0.5447    6.2976    2.0801 C   0  0  0  0  0  0  0  0  0  0  0  0
   -0.7920    6.2138    2.4796 C   0  0  0  0  0  0  0  0  0  0  0  0
   -1.1477    6.7480    3.7282 C   0  0  0  0  0  0  0  0  0  0  0  0
   -0.2263    7.3362    4.5195 N   0  0  0  0  0  0  0  0  0  0  0  0
 11 10  1  0  0  0
 11 12  1  0  0  0
 10  9  1  0  0  0
 12 13  2  0  0  0
 12  8  1  0  0  0
 13 14  1  0  0  0
  9  8  1  0  0  0
  8  7  2  0  0  0
 14 15  2  0  0  0
 31 30  2  0  0  0
 31 32  1  0  0  0
 30 29  1  0  0  0
 32 27  2  0  0  0
  7 15  1  0  0  0
 15  1  1  0  0  0
 29 28  2  0  0  0
 27 28  1  0  0  0
 27  5  1  0  0  0
  1  5  2  0  0  0
  1  2  1  0  0  0
  5  4  1  0  0  0
  2  3  1  0  0  0
  4  3  2  0  0  0
  3 16  1  0  0  0
 16 19  2  0  0  0
 16 17  1  0  0  0
 19 20  1  0  0  0
 17 18  2  0  0  0
 20 21  2  0  0  0
 18 21  1  0  0  0
 21 22  1  0  0  0
 22 24  1  0  0  0
 22 23  2  0  0  0
  2  6  1  0  0  0
 24 25  1  0  0  0
 24 26  1  0  0  0
M  END
> <minimizedAffinity>
-10.19725

$$$$
3TZM_085_A_1


 32 36  0  0  0  0  0  0  0  0999 V2000
    3.6290    8.3898    8.0484 C   0  0  0  0  0  0  0  0  0  0  0  0
    4.7814    9.0479    7.8965 N   0  0  0  0  0  0  0  0  0  0  0  0
    4.9956    9.3158    6.6057 C   0  0  0  0  0  0  0  0  0  0  0  0
    3.9730    8.8048    5.9165 N   0  0  0  0  0  0  0  0  0  0  0  0
    3.1075    8.2268    6.7629 C   0  0  0  0  0  0  0  0  0  0  0  0
    5.3865    9.2995    8.6312 H   0  0  0  0  0  0  0  0  0  0  0  0
    1.7907    7.9395    9.5577 C   0  0  0  0  0  0  0  0  0  0  0  0
    1.2803    7.5530   10.7911 C   0  0  0  0  0  0  0  0  0  0  0  0
   -0.0138    7.4771   11.2255 O   0  0  0  0  0  0  0  0  0  0  0  0
    0.0287    6.8894   12.5126 C   0  0  0  0  0  0  0  0  0  0  0  0
    1.4141    6.8310   12.9168 O   0  0  0  0  0  0  0  0  0  0  0  0
    2.1478    7.1657   11.8183 C   0  0  0  0  0  0  0  0  0  0  0  0
    3.5189    7.1686   11.5984 C   0  0  0  0  0  0  0  0  0  0  0  0
    4.0211    7.5504   10.3485 C   0  0  0  0  0  0  0  0  0  0  0  0
    3.1642    7.9242    9.3022 C   0  0  0  0  0  0  0  0  0  0  0  0
    6.1010   10.0015    6.0897 C   0  0  0  0  0  0  0  0  0  0  0  0
    5.9592   10.9256    5.0430 C   0  0  0  0  0  0  0  0  0  0  0  0
    7.0793   11.6012    4.5411 C   0  0  0  0  0  0  0  0  0  0  0  0
    7.3821    9.7504    6.6056 C   0  0  0  0  0  0  0  0  0  0  0  0
    8.5003   10.4196    6.0958 C   0  0  0  0  0  0  0  0  0  0  0  0
    8.3514   11.3533    5.0696 C   0  0  0  0  0  0  0  0  0  0  0  0
    9.5696   12.0970    4.5131 C   0  0  0  0  0  0  0  0  0  0  0  0
    9.5752   12.5493    3.3614 O   0  0  0  0  0  0  0  0  0  0  0  0
   10.5774   12.2373    5.3727 N   0  0  0  0  0  0  0  0  0  0  0  0
   10.5106   11.8528    6.2766 H   0  0  0  0  0  0  0  0  0  0  0  0
   11.3891   12.7254    5.1043 H   0  0  0  0  0  0  0  0  0  0  0  0
    1.9003    7.6183    6.3707 C   0  0  0  0  0  0  0  0  0  0  0  0
    0.8939    8.4333    5.8546 C   0  0  0  0  0  0  0  0  0  0  0  0
   -0.3309    7.8849    5.4763 C   0  0  0  0  0  0  0  0  0  0  0  0
   -0.5585    6.5179    5.6569 C   0  0  0  0  0  0  0  0  0  0  0  0
    0.4738    5.7382    6.2024 C   0  0  0  0  0  0  0  0  0  0  0  0
    1.6525    6.2940    6.5528 N   0  0  0  0  0  0  0  0  0  0  0  0
 11 10  1  0  0  0
 11 12  1  0  0  0
 10  9  1  0  0  0
 12 13  2  0  0  0
 12  8  1  0  0  0
 13 14  1  0  0  0
  9  8  1  0  0  0
  8  7  2  0  0  0
 14 15  2  0  0  0
 31 30  2  0  0  0
 31 32  1  0  0  0
 30 29  1  0  0  0
 32 27  2  0  0  0
  7 15  1  0  0  0
 15  1  1  0  0  0
 29 28  2  0  0  0
 27 28  1  0  0  0
 27  5  1  0  0  0
  1  5  2  0  0  0
  1  2  1  0  0  0
  5  4  1  0  0  0
  2  3  1  0  0  0
  4  3  2  0  0  0
  3 16  1  0  0  0
 16 19  2  0  0  0
 16 17  1  0  0  0
 19 20  1  0  0  0
 17 18  2  0  0  0
 20 21  2  0  0  0
 18 21  1  0  0  0
 21 22  1  0  0  0
 22 24  1  0  0  0
 22 23  2  0  0  0
  2  6  1  0  0  0
 24 25  1  0  0  0
 24 26  1  0  0  0
M  END
> <minimizedAffinity>
-9.82964

$$$$
3TZM_085_A_1


 32 36  0  0  0  0  0  0  0  0999 V2000
    3.5037    8.3988    7.9867 C   0  0  0  0  0  0  0  0  0  0  0  0
    3.8913    8.5899    9.2506 N   0  0  0  0  0  0  0  0  0  0  0  0
    2.9479    8.1631   10.0943 C   0  0  0  0  0  0  0  0  0  0  0  0
    1.9308    7.7080    9.3595 N   0  0  0  0  0  0  0  0  0  0  0  0
    2.2289    7.8321    8.0574 C   0  0  0  0  0  0  0  0  0  0  0  0
    4.7498    8.9884    9.5216 H   0  0  0  0  0  0  0  0  0  0  0  0
    5.1594    9.8766    7.0201 C   0  0  0  0  0  0  0  0  0  0  0  0
    5.8984   10.3588    5.9465 C   0  0  0  0  0  0  0  0  0  0  0  0
    6.8184   11.3687    5.8917 O   0  0  0  0  0  0  0  0  0  0  0  0
    7.3667   11.3417    4.5868 C   0  0  0  0  0  0  0  0  0  0  0  0
    6.5728   10.4252    3.8020 O   0  0  0  0  0  0  0  0  0  0  0  0
    5.7451    9.7888    4.6779 C   0  0  0  0  0  0  0  0  0  0  0  0
    4.8531    8.7399    4.4984 C   0  0  0  0  0  0  0  0  0  0  0  0
    4.1214    8.2559    5.5895 C   0  0  0  0  0  0  0  0  0  0  0  0
    4.2764    8.8042    6.8717 C   0  0  0  0  0  0  0  0  0  0  0  0
    3.0276    8.2023   11.4909 C   0  0  0  0  0  0  0  0  0  0  0  0
    2.1560    7.4462   12.2900 C   0  0  0  0  0  0  0  0  0  0  0  0
    2.2530    7.5001   13.6866 C   0  0  0  0  0  0  0  0  0  0  0  0
    3.9773    9.0272   12.1138 C   0  0  0  0  0  0  0  0  0  0  0  0
    4.0653    9.0864   13.5091 C   0  0  0  0  0  0  0  0  0  0  0  0
    3.2108    8.3165   14.2991 C   0  0  0  0  0  0  0  0  0  0  0  0
    3.3078    8.3686   15.8271 C   0  0  0  0  0  0  0  0  0  0  0  0
    2.2933    8.4116   16.5341 O   0  0  0  0  0  0  0  0  0  0  0  0
    4.5493    8.3282   16.3083 N   0  0  0  0  0  0  0  0  0  0  0  0
    5.3156    8.2950   15.6911 H   0  0  0  0  0  0  0  0  0  0  0  0
    4.7005    8.3316   17.2811 H   0  0  0  0  0  0  0  0  0  0  0  0
    1.3879    7.4174    7.0076 C   0  0  0  0  0  0  0  0  0  0  0  0
    0.6484    8.3909    6.3377 C   0  0  0  0  0  0  0  0  0  0  0  0
   -0.2200    8.0305    5.3082 C   0  0  0  0  0  0  0  0  0  0  0  0
   -0.3761    6.6811    4.9798 C   0  0  0  0  0  0  0  0  0  0  0  0
    0.3699    5.7317    5.6961 C   0  0  0  0  0  0  0  0  0  0  0  0
    1.2091    6.1094    6.6831 N   0  0  0  0  0  0  0  0  0  0  0  0
 11 10  1  0  0  0
 11 12  1  0  0  0
 10  9  1  0  0  0
 12 13  2  0  0  0
 12  8  1  0  0  0
 13 14  1  0  0  0
  9  8  1  0  0  0
  8  7  2  0  0  0
 14 15  2  0  0  0
 31 30  2  0  0  0
 31 32  1  0  0  0
 30 29  1  0  0  0
 32 27  2  0  0  0
  7 15  1  0  0  0
 15  1  1  0  0  0
 29 28  2  0  0  0
 27 28  1  0  0  0
 27  5  1  0  0  0
  1  5  2  0  0  0
  1  2  1  0  0  0
  5  4  1  0  0  0
  2  3  1  0  0  0
  4  3  2  0  0  0
  3 16  1  0  0  0
 16 19  2  0  0  0
 16 17  1  0  0  0
 19 20  1  0  0  0
 17 18  2  0  0  0
 20 21  2  0  0  0
 18 21  1  0  0  0
 21 22  1  0  0  0
 22 24  1  0  0  0
 22 23  2  0  0  0
  2  6  1  0  0  0
 24 25  1  0  0  0
 24 26  1  0  0  0
M  END
> <minimizedAffinity>
-9.82271

$$$$
3TZM_085_A_1


 32 36  0  0  0  0  0  0  0  0999 V2000
    2.1760    8.2963    8.7144 C   0  0  0  0  0  0  0  0  0  0  0  0
    1.8596    8.2049   10.0089 N   0  0  0  0  0  0  0  0  0  0  0  0
    2.9195    8.4979   10.7669 C   0  0  0  0  0  0  0  0  0  0  0  0
    3.9374    8.7633    9.9453 N   0  0  0  0  0  0  0  0  0  0  0  0
    3.5260    8.6527    8.6732 C   0  0  0  0  0  0  0  0  0  0  0  0
    0.9719    7.9570   10.3549 H   0  0  0  0  0  0  0  0  0  0  0  0
    0.8304    6.6701    7.5292 C   0  0  0  0  0  0  0  0  0  0  0  0
   -0.0128    6.2967    6.4896 C   0  0  0  0  0  0  0  0  0  0  0  0
   -0.5617    5.0803    6.1926 O   0  0  0  0  0  0  0  0  0  0  0  0
   -1.4524    5.2946    5.1134 C   0  0  0  0  0  0  0  0  0  0  0  0
   -1.2378    6.6404    4.6351 O   0  0  0  0  0  0  0  0  0  0  0  0
   -0.4186    7.2430    5.5422 C   0  0  0  0  0  0  0  0  0  0  0  0
    0.0241    8.5550    5.6472 C   0  0  0  0  0  0  0  0  0  0  0  0
    0.8652    8.9217    6.7046 C   0  0  0  0  0  0  0  0  0  0  0  0
    1.2671    7.9894    7.6731 C   0  0  0  0  0  0  0  0  0  0  0  0
    2.9403    8.5108   12.1662 C   0  0  0  0  0  0  0  0  0  0  0  0
    1.8525    8.0334   12.9135 C   0  0  0  0  0  0  0  0  0  0  0  0
    1.8940    8.0555   14.3138 C   0  0  0  0  0  0  0  0  0  0  0  0
    4.0547    9.0299   12.8437 C   0  0  0  0  0  0  0  0  0  0  0  0
    4.0892    9.0597   14.2423 C   0  0  0  0  0  0  0  0  0  0  0  0
    3.0143    8.5642   14.9811 C   0  0  0  0  0  0  0  0  0  0  0  0
    3.0491    8.5843   16.5126 C   0  0  0  0  0  0  0  0  0  0  0  0
    2.0067    8.5760   17.1790 O   0  0  0  0  0  0  0  0  0  0  0  0
    4.2713    8.5757   17.0423 N   0  0  0  0  0  0  0  0  0  0  0  0
    5.0620    8.5831   16.4559 H   0  0  0  0  0  0  0  0  0  0  0  0
    4.3838    8.5618   18.0202 H   0  0  0  0  0  0  0  0  0  0  0  0
    4.3403    8.8977    7.5515 C   0  0  0  0  0  0  0  0  0  0  0  0
    4.4878    7.8767    6.6140 C   0  0  0  0  0  0  0  0  0  0  0  0
    5.3045    8.0580    5.4986 C   0  0  0  0  0  0  0  0  0  0  0  0
    6.0083    9.2560    5.3480 C   0  0  0  0  0  0  0  0  0  0  0  0
    5.8495   10.2484    6.3283 C   0  0  0  0  0  0  0  0  0  0  0  0
    5.0462   10.0490    7.3941 N   0  0  0  0  0  0  0  0  0  0  0  0
 11 10  1  0  0  0
 11 12  1  0  0  0
 10  9  1  0  0  0
 12 13  2  0  0  0
 12  8  1  0  0  0
 13 14  1  0  0  0
  9  8  1  0  0  0
  8  7  2  0  0  0
 14 15  2  0  0  0
 31 30  2  0  0  0
 31 32  1  0  0  0
 30 29  1  0  0  0
 32 27  2  0  0  0
  7 15  1  0  0  0
 15  1  1  0  0  0
 29 28  2  0  0  0
 27 28  1  0  0  0
 27  5  1  0  0  0
  1  5  2  0  0  0
  1  2  1  0  0  0
  5  4  1  0  0  0
  2  3  1  0  0  0
  4  3  2  0  0  0
  3 16  1  0  0  0
 16 19  2  0  0  0
 16 17  1  0  0  0
 19 20  1  0  0  0
 17 18  2  0  0  0
 20 21  2  0  0  0
 18 21  1  0  0  0
 21 22  1  0  0  0
 22 24  1  0  0  0
 22 23  2  0  0  0
  2  6  1  0  0  0
 24 25  1  0  0  0
 24 26  1  0  0  0
M  END
> <minimizedAffinity>
-9.25847

$$$$
3TZM_085_A_1


 32 36  0  0  0  0  0  0  0  0999 V2000
    2.1878    8.2379    8.6768 C   0  0  0  0  0  0  0  0  0  0  0  0
    1.8712    8.1799    9.9732 N   0  0  0  0  0  0  0  0  0  0  0  0
    2.9402    8.4571   10.7243 C   0  0  0  0  0  0  0  0  0  0  0  0
    3.9637    8.6783    9.8965 N   0  0  0  0  0  0  0  0  0  0  0  0
    3.5472    8.5553    8.6273 C   0  0  0  0  0  0  0  0  0  0  0  0
    0.9774    7.9637   10.3248 H   0  0  0  0  0  0  0  0  0  0  0  0
    0.8063    6.6251    7.5148 C   0  0  0  0  0  0  0  0  0  0  0  0
   -0.0483    6.2567    6.4827 C   0  0  0  0  0  0  0  0  0  0  0  0
   -0.6217    5.0479    6.2014 O   0  0  0  0  0  0  0  0  0  0  0  0
   -1.5126    5.2676    5.1235 C   0  0  0  0  0  0  0  0  0  0  0  0
   -1.2743    6.6037    4.6295 O   0  0  0  0  0  0  0  0  0  0  0  0
   -0.4399    7.2003    5.5267 C   0  0  0  0  0  0  0  0  0  0  0  0
    0.0283    8.5046    5.6155 C   0  0  0  0  0  0  0  0  0  0  0  0
    0.8808    8.8666    6.6655 C   0  0  0  0  0  0  0  0  0  0  0  0
    1.2687    7.9373    7.6425 C   0  0  0  0  0  0  0  0  0  0  0  0
    2.9638    8.4957   12.1230 C   0  0  0  0  0  0  0  0  0  0  0  0
    4.0667    9.0168   12.8171 C   0  0  0  0  0  0  0  0  0  0  0  0
    4.0697    9.0459   14.2178 C   0  0  0  0  0  0  0  0  0  0  0  0
    1.8800    7.9852   12.8544 C   0  0  0  0  0  0  0  0  0  0  0  0
    1.8900    8.0067   14.2536 C   0  0  0  0  0  0  0  0  0  0  0  0
    2.9795    8.5454   14.9389 C   0  0  0  0  0  0  0  0  0  0  0  0
    2.9934    8.5814   16.4704 C   0  0  0  0  0  0  0  0  0  0  0  0
    1.9447    8.5184   17.1240 O   0  0  0  0  0  0  0  0  0  0  0  0
    4.2071    8.6487   17.0152 N   0  0  0  0  0  0  0  0  0  0  0  0
    5.0035    8.6969   16.4385 H   0  0  0  0  0  0  0  0  0  0  0  0
    4.3077    8.6503   17.9945 H   0  0  0  0  0  0  0  0  0  0  0  0
    4.3662    8.7562    7.5002 C   0  0  0  0  0  0  0  0  0  0  0  0
    4.8445   10.0433    7.2596 C   0  0  0  0  0  0  0  0  0  0  0  0
    5.6374   10.3019    6.1424 C   0  0  0  0  0  0  0  0  0  0  0  0
    5.9153    9.2702    5.2415 C   0  0  0  0  0  0  0  0  0  0  0  0
    5.3936    7.9948    5.5095 C   0  0  0  0  0  0  0  0  0  0  0  0
    4.6351    7.7708    6.6030 N   0  0  0  0  0  0  0  0  0  0  0  0
 11 10  1  0  0  0
 11 12  1  0  0  0
 10  9  1  0  0  0
 12 13  2  0  0  0
 12  8  1  0  0  0
 13 14  1  0  0  0
  9  8  1  0  0  0
  8  7  2  0  0  0
 14 15  2  0  0  0
 31 30  2  0  0  0
 31 32  1  0  0  0
 30 29  1  0  0  0
 32 27  2  0  0  0
  7 15  1  0  0  0
 15  1  1  0  0  0
 29 28  2  0  0  0
 27 28  1  0  0  0
 27  5  1  0  0  0
  1  5  2  0  0  0
  1  2  1  0  0  0
  5  4  1  0  0  0
  2  3  1  0  0  0
  4  3  2  0  0  0
  3 16  1  0  0  0
 16 19  2  0  0  0
 16 17  1  0  0  0
 19 20  1  0  0  0
 17 18  2  0  0  0
 20 21  2  0  0  0
 18 21  1  0  0  0
 21 22  1  0  0  0
 22 24  1  0  0  0
 22 23  2  0  0  0
  2  6  1  0  0  0
 24 25  1  0  0  0
 24 26  1  0  0  0
M  END
> <minimizedAffinity>
-9.10132

$$$$
3TZM_085_A_1


 32 36  0  0  0  0  0  0  0  0999 V2000
    3.0888    8.0177   10.2562 C   0  0  0  0  0  0  0  0  0  0  0  0
    3.6149    8.3155   11.4474 N   0  0  0  0  0  0  0  0  0  0  0  0
    2.6747    8.2660   12.3947 C   0  0  0  0  0  0  0  0  0  0  0  0
    1.5230    7.9495   11.7987 N   0  0  0  0  0  0  0  0  0  0  0  0
    1.7302    7.7862   10.4834 C   0  0  0  0  0  0  0  0  0  0  0  0
    4.5606    8.5394   11.6045 H   0  0  0  0  0  0  0  0  0  0  0  0
    4.2891    9.2723    8.5694 C   0  0  0  0  0  0  0  0  0  0  0  0
    4.9734    9.3669    7.3637 C   0  0  0  0  0  0  0  0  0  0  0  0
    5.5107   10.4571    6.7376 O   0  0  0  0  0  0  0  0  0  0  0  0
    6.2158    9.9667    5.6123 C   0  0  0  0  0  0  0  0  0  0  0  0
    5.8843    8.5683    5.4688 O   0  0  0  0  0  0  0  0  0  0  0  0
    5.1955    8.2210    6.5922 C   0  0  0  0  0  0  0  0  0  0  0  0
    4.7302    6.9909    7.0379 C   0  0  0  0  0  0  0  0  0  0  0  0
    4.0508    6.9063    8.2592 C   0  0  0  0  0  0  0  0  0  0  0  0
    3.8355    8.0427    9.0535 C   0  0  0  0  0  0  0  0  0  0  0  0
    2.8789    8.5122   13.7571 C   0  0  0  0  0  0  0  0  0  0  0  0
    1.9594    9.2632   14.5057 C   0  0  0  0  0  0  0  0  0  0  0  0
    2.1833    9.4980   15.8686 C   0  0  0  0  0  0  0  0  0  0  0  0
    4.0325    8.0237   14.3902 C   0  0  0  0  0  0  0  0  0  0  0  0
    4.2582    8.2681   15.7494 C   0  0  0  0  0  0  0  0  0  0  0  0
    3.3306    8.9969   16.4945 C   0  0  0  0  0  0  0  0  0  0  0  0
    3.5660    9.2601   17.9852 C   0  0  0  0  0  0  0  0  0  0  0  0
    3.2289   10.3286   18.5100 O   0  0  0  0  0  0  0  0  0  0  0  0
    4.1185    8.2463   18.6496 N   0  0  0  0  0  0  0  0  0  0  0  0
    4.3645    7.4209   18.1725 H   0  0  0  0  0  0  0  0  0  0  0  0
    4.2808    8.3223   19.6176 H   0  0  0  0  0  0  0  0  0  0  0  0
    0.7319    7.4158    9.5627 C   0  0  0  0  0  0  0  0  0  0  0  0
    0.1665    6.1475    9.6853 C   0  0  0  0  0  0  0  0  0  0  0  0
   -0.8070    5.7209    8.7830 C   0  0  0  0  0  0  0  0  0  0  0  0
   -1.1825    6.5577    7.7285 C   0  0  0  0  0  0  0  0  0  0  0  0
   -0.5704    7.8171    7.6285 C   0  0  0  0  0  0  0  0  0  0  0  0
    0.3638    8.2076    8.5207 N   0  0  0  0  0  0  0  0  0  0  0  0
 11 10  1  0  0  0
 11 12  1  0  0  0
 10  9  1  0  0  0
 12 13  2  0  0  0
 12  8  1  0  0  0
 13 14  1  0  0  0
  9  8  1  0  0  0
  8  7  2  0  0  0
 14 15  2  0  0  0
 31 30  2  0  0  0
 31 32  1  0  0  0
 30 29  1  0  0  0
 32 27  2  0  0  0
  7 15  1  0  0  0
 15  1  1  0  0  0
 29 28  2  0  0  0
 27 28  1  0  0  0
 27  5  1  0  0  0
  1  5  2  0  0  0
  1  2  1  0  0  0
  5  4  1  0  0  0
  2  3  1  0  0  0
  4  3  2  0  0  0
  3 16  1  0  0  0
 16 19  2  0  0  0
 16 17  1  0  0  0
 19 20  1  0  0  0
 17 18  2  0  0  0
 20 21  2  0  0  0
 18 21  1  0  0  0
 21 22  1  0  0  0
 22 24  1  0  0  0
 22 23  2  0  0  0
  2  6  1  0  0  0
 24 25  1  0  0  0
 24 26  1  0  0  0
M  END
> <minimizedAffinity>
-8.76283

$$$$
