4CPR_378_A_1101


 59 61  0  0  0  0  0  0  0  0999 V2000
   13.2487   23.6726    5.8076 C   0  0  0  0  0  0  0  0  0  0  0  0
   14.6384   23.2329    5.3529 C   0  0  0  0  0  0  0  0  0  0  0  0
   15.0586   22.0297    6.0860 N   0  0  0  0  0  0  0  0  0  0  0  0
   14.2578   19.6713    5.3504 O   0  0  0  0  0  0  0  0  0  0  0  0
   15.7642   21.3825    5.3977 N   0  0  0  0  0  0  0  0  0  0  0  0
   15.3113   20.1857    4.9733 C   0  0  0  0  0  0  0  0  0  0  0  0
   16.6576   21.7064    5.1406 H   0  0  0  0  0  0  0  0  0  0  0  0
   16.2864   19.4251    4.0565 C   0  0  0  0  0  0  0  0  0  0  0  0
   16.5834   18.1558    1.9115 C   0  0  0  0  0  0  0  0  0  0  0  0
   14.6733   19.7425    2.1772 C   0  0  0  0  0  0  0  0  0  0  0  0
   14.6925   17.5838    3.4450 C   0  0  0  0  0  0  0  0  0  0  0  0
   15.5613   18.7216    2.9008 C   0  0  0  0  0  0  0  0  0  0  0  0
   18.7309   19.8135    5.1109 O   0  0  0  0  0  0  0  0  0  0  0  0
   17.0272   18.4216    4.8360 N   0  0  0  0  0  0  0  0  0  0  0  0
   18.2611   18.6881    5.2785 C   0  0  0  0  0  0  0  0  0  0  0  0
   16.6132   17.5503    5.0328 H   0  0  0  0  0  0  0  0  0  0  0  0
   18.9550   16.5027    5.1157 C   0  0  0  0  0  0  0  0  0  0  0  0
   18.9972   17.7108    5.8836 O   0  0  0  0  0  0  0  0  0  0  0  0
   15.7014   22.4191    7.1863 C   0  0  0  0  0  0  0  0  0  0  0  0
   15.0031   20.7401    8.7706 C   0  0  0  0  0  0  0  0  0  0  0  0
   16.0154   21.4249    8.1075 C   0  0  0  0  0  0  0  0  0  0  0  0
   15.3199   19.7181    9.6591 C   0  0  0  0  0  0  0  0  0  0  0  0
   16.6471   19.3563    9.8655 C   0  0  0  0  0  0  0  0  0  0  0  0
   17.3409   21.0480    8.2929 C   0  0  0  0  0  0  0  0  0  0  0  0
   17.6576   20.0401    9.1983 C   0  0  0  0  0  0  0  0  0  0  0  0
   18.1683   18.5123   11.8512 S   0  0  0  0  0  0  0  0  0  0  0  0
   16.9435   18.3955   10.7422 C   0  0  0  0  0  0  0  0  0  0  0  0
   16.5614   17.1165   10.5935 C   0  0  0  0  0  0  0  0  0  0  0  0
   18.0158   16.7882   12.3800 C   0  0  0  0  0  0  0  0  0  0  0  0
   17.0316   16.2604   11.5287 C   0  0  0  0  0  0  0  0  0  0  0  0
   12.2092   22.7880    5.1211 C   0  0  0  0  0  0  0  0  0  0  0  0
   11.5516   24.8020    3.9789 O   0  0  0  0  0  0  0  0  0  0  0  0
   11.0377   23.6431    4.6394 C   0  0  0  0  0  0  0  0  0  0  0  0
   12.0914   24.5293    3.2205 H   0  0  0  0  0  0  0  0  0  0  0  0
    9.9933   25.3915    5.9909 N   0  0  0  0  0  0  0  0  0  0  0  0
    9.8089   23.2415    6.6778 O   0  0  0  0  0  0  0  0  0  0  0  0
   10.1794   24.0687    5.8449 C   0  0  0  0  0  0  0  0  0  0  0  0
   10.4613   26.0188    5.3935 H   0  0  0  0  0  0  0  0  0  0  0  0
    9.0938   25.9125    7.0386 C   0  0  0  0  0  0  0  0  0  0  0  0
    7.9760   26.7579    6.4060 C   0  0  0  0  0  0  0  0  0  0  0  0
    8.2229   27.6738    5.6210 O   0  0  0  0  0  0  0  0  0  0  0  0
    6.7381   26.3007    6.6362 N   0  0  0  0  0  0  0  0  0  0  0  0
    6.6241   25.4588    7.1336 H   0  0  0  0  0  0  0  0  0  0  0  0
    5.5456   27.0200    6.1677 C   0  0  0  0  0  0  0  0  0  0  0  0
    4.0168   25.3608    5.1463 C   0  0  0  0  0  0  0  0  0  0  0  0
    4.9652   26.2910    4.9550 C   0  0  0  0  0  0  0  0  0  0  0  0
    9.8741   26.7329    8.0833 C   0  0  0  0  0  0  0  0  0  0  0  0
   10.8311   25.8355    8.8818 C   0  0  0  0  0  0  0  0  0  0  0  0
    8.8991   27.4276    9.0398 C   0  0  0  0  0  0  0  0  0  0  0  0
   10.2131   22.8128    3.6422 C   0  0  0  0  0  0  0  0  0  0  0  0
    6.8482   24.0997    2.9269 C   0  0  0  0  0  0  0  0  0  0  0  0
    8.4382   25.2688    1.5533 C   0  0  0  0  0  0  0  0  0  0  0  0
    7.8723   23.3287    3.4652 C   0  0  0  0  0  0  0  0  0  0  0  0
    9.4638   24.5031    2.0991 C   0  0  0  0  0  0  0  0  0  0  0  0
    7.1215   25.0449    1.9433 C   0  0  0  0  0  0  0  0  0  0  0  0
    9.1886   23.5780    3.1000 C   0  0  0  0  0  0  0  0  0  0  0  0
    6.0782   25.8259    1.4432 C   0  0  0  0  0  0  0  0  0  0  0  0
    3.6385   25.6677    1.1138 C   0  0  0  0  0  0  0  0  0  0  0  0
    4.7824   25.0170    1.3603 C   0  0  0  0  0  0  0  0  0  0  0  0
 40 41  2  0  0  0
 40 39  1  0  0  0
 40 42  1  0  0  0
 35 39  1  0  0  0
 35 37  1  0  0  0
 39 47  1  0  0  0
 47 48  1  0  0  0
 47 49  1  0  0  0
 45 46  2  0  0  0
 58 59  2  0  0  0
 17 18  1  0  0  0
  9 12  1  0  0  0
 10 12  1  0  0  0
 11 12  1  0  0  0
 13 15  2  0  0  0
 26 27  1  0  0  0
 26 29  1  0  0  0
  4  6  2  0  0  0
 36 37  2  0  0  0
 32 33  1  0  0  0
 46 44  1  0  0  0
 59 57  1  0  0  0
 20 21  2  0  0  0
 20 22  1  0  0  0
 21 19  1  0  0  0
 21 24  1  0  0  0
 22 23  2  0  0  0
 19  3  1  0  0  0
 51 53  2  0  0  0
 51 55  1  0  0  0
 52 54  1  0  0  0
 52 55  2  0  0  0
 53 56  1  0  0  0
 54 56  2  0  0  0
 27 28  2  0  0  0
 27 23  1  0  0  0
 28 30  2  0  0  0
 23 25  1  0  0  0
 44 42  1  0  0  0
  1  2  1  0  0  0
  1 31  1  0  0  0
 57 55  1  0  0  0
  2  3  1  0  0  0
 31 33  1  0  0  0
 29 30  1  0  0  0
 50 56  1  0  0  0
 50 33  1  0  0  0
 14 15  1  0  0  0
 14  8  1  0  0  0
  5  6  1  0  0  0
  5  3  1  0  0  0
 18 15  1  0  0  0
  6  8  1  0  0  0
 37 33  1  0  0  0
 24 25  2  0  0  0
  8 12  1  0  0  0
 35 38  1  0  0  0
 32 34  1  0  0  0
 42 43  1  0  0  0
 14 16  1  0  0  0
  5  7  1  0  0  0
M  END
> <minimizedAffinity>
-9.58914

$$$$
4CPR_378_A_1101


 59 61  0  0  0  0  0  0  0  0999 V2000
   15.6925   20.7000    8.0534 C   0  0  0  0  0  0  0  0  0  0  0  0
   15.7061   22.2005    7.7716 C   0  0  0  0  0  0  0  0  0  0  0  0
   14.3652   22.6587    7.3792 N   0  0  0  0  0  0  0  0  0  0  0  0
   14.1771   23.4099    4.9003 O   0  0  0  0  0  0  0  0  0  0  0  0
   13.9121   21.9054    6.5932 N   0  0  0  0  0  0  0  0  0  0  0  0
   13.8761   22.2846    5.3000 C   0  0  0  0  0  0  0  0  0  0  0  0
   13.5703   21.0256    6.8731 H   0  0  0  0  0  0  0  0  0  0  0  0
   13.2965   21.2272    4.3429 C   0  0  0  0  0  0  0  0  0  0  0  0
   14.4137   20.3202    2.2863 C   0  0  0  0  0  0  0  0  0  0  0  0
   14.0405   18.8450    4.2665 C   0  0  0  0  0  0  0  0  0  0  0  0
   15.7458   20.6748    4.3729 C   0  0  0  0  0  0  0  0  0  0  0  0
   14.3771   20.2726    3.8159 C   0  0  0  0  0  0  0  0  0  0  0  0
   10.6343   21.4366    4.0163 O   0  0  0  0  0  0  0  0  0  0  0  0
   12.6461   21.8880    3.2012 N   0  0  0  0  0  0  0  0  0  0  0  0
   11.3124   21.8987    3.0988 C   0  0  0  0  0  0  0  0  0  0  0  0
   13.1945   22.3241    2.5096 H   0  0  0  0  0  0  0  0  0  0  0  0
    9.2932   22.2551    2.0598 C   0  0  0  0  0  0  0  0  0  0  0  0
   10.7161   22.3927    1.9746 O   0  0  0  0  0  0  0  0  0  0  0  0
   13.6082   22.7089    8.4746 C   0  0  0  0  0  0  0  0  0  0  0  0
   12.4840   24.7491    9.0992 C   0  0  0  0  0  0  0  0  0  0  0  0
   12.4905   23.5355    8.4205 C   0  0  0  0  0  0  0  0  0  0  0  0
   11.3813   25.5920    9.0082 C   0  0  0  0  0  0  0  0  0  0  0  0
   10.2944   25.2395    8.2151 C   0  0  0  0  0  0  0  0  0  0  0  0
   11.4161   23.1930    7.6070 C   0  0  0  0  0  0  0  0  0  0  0  0
   10.3047   24.0270    7.5342 C   0  0  0  0  0  0  0  0  0  0  0  0
    8.6837   26.7425    6.7603 S   0  0  0  0  0  0  0  0  0  0  0  0
    9.2285   26.0397    8.1578 C   0  0  0  0  0  0  0  0  0  0  0  0
    8.7130   26.6612    9.2311 C   0  0  0  0  0  0  0  0  0  0  0  0
    7.4681   27.7773    7.6128 C   0  0  0  0  0  0  0  0  0  0  0  0
    7.6915   27.5088    8.9729 C   0  0  0  0  0  0  0  0  0  0  0  0
   17.0215   20.1056    7.5901 C   0  0  0  0  0  0  0  0  0  0  0  0
   18.4140   20.3348    9.5399 O   0  0  0  0  0  0  0  0  0  0  0  0
   17.6982   19.3801    8.7527 C   0  0  0  0  0  0  0  0  0  0  0  0
   17.7960   20.9988    9.8836 H   0  0  0  0  0  0  0  0  0  0  0  0
   18.1476   17.4357    7.3415 N   0  0  0  0  0  0  0  0  0  0  0  0
   19.8209   18.2364    8.6405 O   0  0  0  0  0  0  0  0  0  0  0  0
   18.6733   18.3224    8.2036 C   0  0  0  0  0  0  0  0  0  0  0  0
   17.1795   17.4441    7.1629 H   0  0  0  0  0  0  0  0  0  0  0  0
   19.0085   16.4495    6.6599 C   0  0  0  0  0  0  0  0  0  0  0  0
   19.0962   16.7694    5.1585 C   0  0  0  0  0  0  0  0  0  0  0  0
   19.9799   16.2925    4.4458 O   0  0  0  0  0  0  0  0  0  0  0  0
   18.0464   17.4459    4.6741 N   0  0  0  0  0  0  0  0  0  0  0  0
   17.2898   17.6463    5.2714 H   0  0  0  0  0  0  0  0  0  0  0  0
   17.9917   17.8972    3.2769 C   0  0  0  0  0  0  0  0  0  0  0  0
   16.5178   17.5407    1.3189 C   0  0  0  0  0  0  0  0  0  0  0  0
   16.8744   17.1463    2.5512 C   0  0  0  0  0  0  0  0  0  0  0  0
   18.4943   15.0146    6.8833 C   0  0  0  0  0  0  0  0  0  0  0  0
   18.5273   14.6462    8.3740 C   0  0  0  0  0  0  0  0  0  0  0  0
   19.3474   14.0214    6.0872 C   0  0  0  0  0  0  0  0  0  0  0  0
   16.6054   18.7268    9.6144 C   0  0  0  0  0  0  0  0  0  0  0  0
   17.4835   16.0590   11.9814 C   0  0  0  0  0  0  0  0  0  0  0  0
   18.4418   18.1270   12.7472 C   0  0  0  0  0  0  0  0  0  0  0  0
   16.9138   16.7182   10.8979 C   0  0  0  0  0  0  0  0  0  0  0  0
   17.8789   18.7845   11.6577 C   0  0  0  0  0  0  0  0  0  0  0  0
   18.2168   16.7661   12.9289 C   0  0  0  0  0  0  0  0  0  0  0  0
   17.1686   18.0688   10.7002 C   0  0  0  0  0  0  0  0  0  0  0  0
   18.8031   16.0732   13.9894 C   0  0  0  0  0  0  0  0  0  0  0  0
   17.1439   16.2732   15.8042 C   0  0  0  0  0  0  0  0  0  0  0  0
   17.7352   15.4745   14.9068 C   0  0  0  0  0  0  0  0  0  0  0  0
 40 41  2  0  0  0
 40 39  1  0  0  0
 40 42  1  0  0  0
 35 39  1  0  0  0
 35 37  1  0  0  0
 39 47  1  0  0  0
 47 48  1  0  0  0
 47 49  1  0  0  0
 45 46  2  0  0  0
 58 59  2  0  0  0
 17 18  1  0  0  0
  9 12  1  0  0  0
 10 12  1  0  0  0
 11 12  1  0  0  0
 13 15  2  0  0  0
 26 27  1  0  0  0
 26 29  1  0  0  0
  4  6  2  0  0  0
 36 37  2  0  0  0
 32 33  1  0  0  0
 46 44  1  0  0  0
 59 57  1  0  0  0
 20 21  2  0  0  0
 20 22  1  0  0  0
 21 19  1  0  0  0
 21 24  1  0  0  0
 22 23  2  0  0  0
 19  3  1  0  0  0
 51 53  2  0  0  0
 51 55  1  0  0  0
 52 54  1  0  0  0
 52 55  2  0  0  0
 53 56  1  0  0  0
 54 56  2  0  0  0
 27 28  2  0  0  0
 27 23  1  0  0  0
 28 30  2  0  0  0
 23 25  1  0  0  0
 44 42  1  0  0  0
  1  2  1  0  0  0
  1 31  1  0  0  0
 57 55  1  0  0  0
  2  3  1  0  0  0
 31 33  1  0  0  0
 29 30  1  0  0  0
 50 56  1  0  0  0
 50 33  1  0  0  0
 14 15  1  0  0  0
 14  8  1  0  0  0
  5  6  1  0  0  0
  5  3  1  0  0  0
 18 15  1  0  0  0
  6  8  1  0  0  0
 37 33  1  0  0  0
 24 25  2  0  0  0
  8 12  1  0  0  0
 35 38  1  0  0  0
 32 34  1  0  0  0
 42 43  1  0  0  0
 14 16  1  0  0  0
  5  7  1  0  0  0
M  END
> <minimizedAffinity>
-9.42304

$$$$
4CPR_378_A_1101


 59 61  0  0  0  0  0  0  0  0999 V2000
   13.2137   23.6765    5.5241 C   0  0  0  0  0  0  0  0  0  0  0  0
   14.6407   23.2563    5.1801 C   0  0  0  0  0  0  0  0  0  0  0  0
   15.0232   22.0661    5.9540 N   0  0  0  0  0  0  0  0  0  0  0  0
   14.1626   19.7280    5.2211 O   0  0  0  0  0  0  0  0  0  0  0  0
   15.7269   21.3853    5.2968 N   0  0  0  0  0  0  0  0  0  0  0  0
   15.2452   20.1999    4.8722 C   0  0  0  0  0  0  0  0  0  0  0  0
   16.6391   21.6741    5.0649 H   0  0  0  0  0  0  0  0  0  0  0  0
   16.2214   19.3933    3.9968 C   0  0  0  0  0  0  0  0  0  0  0  0
   16.5409   18.1386    1.8465 C   0  0  0  0  0  0  0  0  0  0  0  0
   14.6290   19.7247    2.1023 C   0  0  0  0  0  0  0  0  0  0  0  0
   14.6331   17.5573    3.3554 C   0  0  0  0  0  0  0  0  0  0  0  0
   15.5085   18.6982    2.8284 C   0  0  0  0  0  0  0  0  0  0  0  0
   18.6182   19.7349    5.1702 O   0  0  0  0  0  0  0  0  0  0  0  0
   16.9027   18.3766    4.8124 N   0  0  0  0  0  0  0  0  0  0  0  0
   18.1184   18.6193    5.3151 C   0  0  0  0  0  0  0  0  0  0  0  0
   16.4624   17.5140    4.9892 H   0  0  0  0  0  0  0  0  0  0  0  0
   18.4905   16.3521    5.3880 C   0  0  0  0  0  0  0  0  0  0  0  0
   18.8042   17.6286    5.9565 O   0  0  0  0  0  0  0  0  0  0  0  0
   15.6550   22.4735    7.0542 C   0  0  0  0  0  0  0  0  0  0  0  0
   14.9627   20.7996    8.6464 C   0  0  0  0  0  0  0  0  0  0  0  0
   15.9727   21.4923    7.9880 C   0  0  0  0  0  0  0  0  0  0  0  0
   15.2840   19.7903    9.5479 C   0  0  0  0  0  0  0  0  0  0  0  0
   16.6136   19.4491    9.7720 C   0  0  0  0  0  0  0  0  0  0  0  0
   17.3012   21.1357    8.1912 C   0  0  0  0  0  0  0  0  0  0  0  0
   17.6218   20.1407    9.1095 C   0  0  0  0  0  0  0  0  0  0  0  0
   18.1068   18.6555   11.7995 S   0  0  0  0  0  0  0  0  0  0  0  0
   16.9138   18.5006   10.6608 C   0  0  0  0  0  0  0  0  0  0  0  0
   16.5701   17.2111   10.5094 C   0  0  0  0  0  0  0  0  0  0  0  0
   17.9875   16.9304   12.3333 C   0  0  0  0  0  0  0  0  0  0  0  0
   17.0395   16.3722   11.4605 C   0  0  0  0  0  0  0  0  0  0  0  0
   12.2442   22.8100    4.7218 C   0  0  0  0  0  0  0  0  0  0  0  0
   11.6634   24.6876    3.3322 O   0  0  0  0  0  0  0  0  0  0  0  0
   11.1088   23.6739    4.1738 C   0  0  0  0  0  0  0  0  0  0  0  0
   12.1422   24.2721    2.5980 H   0  0  0  0  0  0  0  0  0  0  0  0
   10.4805   25.6590    5.4540 N   0  0  0  0  0  0  0  0  0  0  0  0
    9.7669   23.6361    6.1799 O   0  0  0  0  0  0  0  0  0  0  0  0
   10.3469   24.3266    5.3420 C   0  0  0  0  0  0  0  0  0  0  0  0
   11.1008   26.1388    4.8588 H   0  0  0  0  0  0  0  0  0  0  0  0
    9.7056   26.4097    6.4612 C   0  0  0  0  0  0  0  0  0  0  0  0
    9.9322   25.8110    7.8593 C   0  0  0  0  0  0  0  0  0  0  0  0
    8.9927   25.4482    8.5678 O   0  0  0  0  0  0  0  0  0  0  0  0
   11.2144   25.5565    8.1516 N   0  0  0  0  0  0  0  0  0  0  0  0
   11.9019   25.7144    7.4649 H   0  0  0  0  0  0  0  0  0  0  0  0
   11.6241   25.0483    9.4680 C   0  0  0  0  0  0  0  0  0  0  0  0
   13.2047   23.3593   10.3524 C   0  0  0  0  0  0  0  0  0  0  0  0
   12.7580   24.0386    9.2845 C   0  0  0  0  0  0  0  0  0  0  0  0
    8.2057   26.4249    6.1103 C   0  0  0  0  0  0  0  0  0  0  0  0
    7.9811   26.9540    4.6860 C   0  0  0  0  0  0  0  0  0  0  0  0
    7.4413   27.2974    7.1115 C   0  0  0  0  0  0  0  0  0  0  0  0
   10.1779   22.7757    3.3429 C   0  0  0  0  0  0  0  0  0  0  0  0
    8.2748   25.2586    1.4184 C   0  0  0  0  0  0  0  0  0  0  0  0
    6.7620   24.0530    2.8464 C   0  0  0  0  0  0  0  0  0  0  0  0
    9.3437   24.5284    1.9254 C   0  0  0  0  0  0  0  0  0  0  0  0
    7.8311   23.3162    3.3470 C   0  0  0  0  0  0  0  0  0  0  0  0
    6.9874   25.0506    1.9031 C   0  0  0  0  0  0  0  0  0  0  0  0
    9.1115   23.5103    2.8407 C   0  0  0  0  0  0  0  0  0  0  0  0
    5.9292   25.7763    1.3536 C   0  0  0  0  0  0  0  0  0  0  0  0
    3.7419   24.8058    0.7537 C   0  0  0  0  0  0  0  0  0  0  0  0
    4.5848   25.1534    1.7343 C   0  0  0  0  0  0  0  0  0  0  0  0
 40 41  2  0  0  0
 40 39  1  0  0  0
 40 42  1  0  0  0
 35 39  1  0  0  0
 35 37  1  0  0  0
 39 47  1  0  0  0
 47 48  1  0  0  0
 47 49  1  0  0  0
 45 46  2  0  0  0
 58 59  2  0  0  0
 17 18  1  0  0  0
  9 12  1  0  0  0
 10 12  1  0  0  0
 11 12  1  0  0  0
 13 15  2  0  0  0
 26 27  1  0  0  0
 26 29  1  0  0  0
  4  6  2  0  0  0
 36 37  2  0  0  0
 32 33  1  0  0  0
 46 44  1  0  0  0
 59 57  1  0  0  0
 20 21  2  0  0  0
 20 22  1  0  0  0
 21 19  1  0  0  0
 21 24  1  0  0  0
 22 23  2  0  0  0
 19  3  1  0  0  0
 51 53  2  0  0  0
 51 55  1  0  0  0
 52 54  1  0  0  0
 52 55  2  0  0  0
 53 56  1  0  0  0
 54 56  2  0  0  0
 27 28  2  0  0  0
 27 23  1  0  0  0
 28 30  2  0  0  0
 23 25  1  0  0  0
 44 42  1  0  0  0
  1  2  1  0  0  0
  1 31  1  0  0  0
 57 55  1  0  0  0
  2  3  1  0  0  0
 31 33  1  0  0  0
 29 30  1  0  0  0
 50 56  1  0  0  0
 50 33  1  0  0  0
 14 15  1  0  0  0
 14  8  1  0  0  0
  5  6  1  0  0  0
  5  3  1  0  0  0
 18 15  1  0  0  0
  6  8  1  0  0  0
 37 33  1  0  0  0
 24 25  2  0  0  0
  8 12  1  0  0  0
 35 38  1  0  0  0
 32 34  1  0  0  0
 42 43  1  0  0  0
 14 16  1  0  0  0
  5  7  1  0  0  0
M  END
> <minimizedAffinity>
-9.34404

$$$$
4CPR_378_A_1101


 59 61  0  0  0  0  0  0  0  0999 V2000
   13.3593   23.6649    5.2559 C   0  0  0  0  0  0  0  0  0  0  0  0
   14.7932   23.1915    5.0299 C   0  0  0  0  0  0  0  0  0  0  0  0
   15.0703   21.9965    5.8404 N   0  0  0  0  0  0  0  0  0  0  0  0
   14.2474   19.6539    5.0790 O   0  0  0  0  0  0  0  0  0  0  0  0
   15.8188   21.2967    5.2569 N   0  0  0  0  0  0  0  0  0  0  0  0
   15.3609   20.1084    4.8143 C   0  0  0  0  0  0  0  0  0  0  0  0
   16.7505   21.5720    5.0976 H   0  0  0  0  0  0  0  0  0  0  0  0
   16.3979   19.2760    4.0386 C   0  0  0  0  0  0  0  0  0  0  0  0
   16.8232   17.6499    2.1744 C   0  0  0  0  0  0  0  0  0  0  0  0
   14.9769   19.3209    1.9859 C   0  0  0  0  0  0  0  0  0  0  0  0
   14.7769   17.4110    3.5922 C   0  0  0  0  0  0  0  0  0  0  0  0
   15.7455   18.4097    2.9520 C   0  0  0  0  0  0  0  0  0  0  0  0
   18.7899   19.8707    5.1168 O   0  0  0  0  0  0  0  0  0  0  0  0
   17.1346   18.4035    4.9655 N   0  0  0  0  0  0  0  0  0  0  0  0
   18.3436   18.7621    5.4118 C   0  0  0  0  0  0  0  0  0  0  0  0
   16.7363   17.5523    5.2587 H   0  0  0  0  0  0  0  0  0  0  0  0
   18.9235   16.5541    5.6801 C   0  0  0  0  0  0  0  0  0  0  0  0
   19.0816   17.8932    6.1625 O   0  0  0  0  0  0  0  0  0  0  0  0
   15.6008   22.3945    6.9962 C   0  0  0  0  0  0  0  0  0  0  0  0
   17.2609   21.0701    8.1392 C   0  0  0  0  0  0  0  0  0  0  0  0
   15.9291   21.3948    7.9064 C   0  0  0  0  0  0  0  0  0  0  0  0
   17.5868   20.0997    9.0808 C   0  0  0  0  0  0  0  0  0  0  0  0
   16.5855   19.4720    9.8145 C   0  0  0  0  0  0  0  0  0  0  0  0
   14.9284   20.7872    8.6566 C   0  0  0  0  0  0  0  0  0  0  0  0
   15.2545   19.8012    9.5826 C   0  0  0  0  0  0  0  0  0  0  0  0
   18.1297   18.6684   11.7992 S   0  0  0  0  0  0  0  0  0  0  0  0
   16.9051   18.5210   10.6937 C   0  0  0  0  0  0  0  0  0  0  0  0
   16.5507   17.2334   10.5503 C   0  0  0  0  0  0  0  0  0  0  0  0
   18.0163   16.9433   12.3342 C   0  0  0  0  0  0  0  0  0  0  0  0
   17.0418   16.3910   11.4873 C   0  0  0  0  0  0  0  0  0  0  0  0
   12.4573   22.9983    4.2185 C   0  0  0  0  0  0  0  0  0  0  0  0
   10.9322   24.8480    4.0034 O   0  0  0  0  0  0  0  0  0  0  0  0
   11.0172   23.4772    4.3996 C   0  0  0  0  0  0  0  0  0  0  0  0
   11.1905   24.9321    3.0722 H   0  0  0  0  0  0  0  0  0  0  0  0
   10.4765   24.4868    6.5588 N   0  0  0  0  0  0  0  0  0  0  0  0
   10.5402   22.2281    6.4092 O   0  0  0  0  0  0  0  0  0  0  0  0
   10.6084   23.3361    5.8774 C   0  0  0  0  0  0  0  0  0  0  0  0
   10.7160   25.3390    6.1280 H   0  0  0  0  0  0  0  0  0  0  0  0
    9.9759   24.4845    7.9472 C   0  0  0  0  0  0  0  0  0  0  0  0
    8.7192   25.3634    8.0596 C   0  0  0  0  0  0  0  0  0  0  0  0
    8.2435   25.6757    9.1516 O   0  0  0  0  0  0  0  0  0  0  0  0
    8.3097   25.8952    6.9004 N   0  0  0  0  0  0  0  0  0  0  0  0
    8.8433   25.7393    6.0878 H   0  0  0  0  0  0  0  0  0  0  0  0
    7.0869   26.7045    6.8068 C   0  0  0  0  0  0  0  0  0  0  0  0
    8.0471   27.2637    4.5935 C   0  0  0  0  0  0  0  0  0  0  0  0
    6.9674   27.2696    5.3907 C   0  0  0  0  0  0  0  0  0  0  0  0
   11.0630   24.9580    8.9307 C   0  0  0  0  0  0  0  0  0  0  0  0
   11.6037   26.3379    8.5277 C   0  0  0  0  0  0  0  0  0  0  0  0
   12.2119   23.9449    8.9705 C   0  0  0  0  0  0  0  0  0  0  0  0
   10.1098   22.6285    3.4940 C   0  0  0  0  0  0  0  0  0  0  0  0
    8.2567   25.0438    1.4390 C   0  0  0  0  0  0  0  0  0  0  0  0
    6.7790   24.1466    3.1103 C   0  0  0  0  0  0  0  0  0  0  0  0
    9.3023   24.2808    1.9464 C   0  0  0  0  0  0  0  0  0  0  0  0
    7.8237   23.3764    3.6120 C   0  0  0  0  0  0  0  0  0  0  0  0
    7.0030   25.0084    2.0412 C   0  0  0  0  0  0  0  0  0  0  0  0
    9.0675   23.3962    2.9907 C   0  0  0  0  0  0  0  0  0  0  0  0
    5.9640   25.7613    1.4915 C   0  0  0  0  0  0  0  0  0  0  0  0
    3.8761   24.6071    0.8634 C   0  0  0  0  0  0  0  0  0  0  0  0
    4.6047   25.1546    1.8443 C   0  0  0  0  0  0  0  0  0  0  0  0
 40 41  2  0  0  0
 40 39  1  0  0  0
 40 42  1  0  0  0
 35 39  1  0  0  0
 35 37  1  0  0  0
 39 47  1  0  0  0
 47 48  1  0  0  0
 47 49  1  0  0  0
 45 46  2  0  0  0
 58 59  2  0  0  0
 17 18  1  0  0  0
  9 12  1  0  0  0
 10 12  1  0  0  0
 11 12  1  0  0  0
 13 15  2  0  0  0
 26 27  1  0  0  0
 26 29  1  0  0  0
  4  6  2  0  0  0
 36 37  2  0  0  0
 32 33  1  0  0  0
 46 44  1  0  0  0
 59 57  1  0  0  0
 20 21  2  0  0  0
 20 22  1  0  0  0
 21 19  1  0  0  0
 21 24  1  0  0  0
 22 23  2  0  0  0
 19  3  1  0  0  0
 51 53  2  0  0  0
 51 55  1  0  0  0
 52 54  1  0  0  0
 52 55  2  0  0  0
 53 56  1  0  0  0
 54 56  2  0  0  0
 27 28  2  0  0  0
 27 23  1  0  0  0
 28 30  2  0  0  0
 23 25  1  0  0  0
 44 42  1  0  0  0
  1  2  1  0  0  0
  1 31  1  0  0  0
 57 55  1  0  0  0
  2  3  1  0  0  0
 31 33  1  0  0  0
 29 30  1  0  0  0
 50 56  1  0  0  0
 50 33  1  0  0  0
 14 15  1  0  0  0
 14  8  1  0  0  0
  5  6  1  0  0  0
  5  3  1  0  0  0
 18 15  1  0  0  0
  6  8  1  0  0  0
 37 33  1  0  0  0
 24 25  2  0  0  0
  8 12  1  0  0  0
 35 38  1  0  0  0
 32 34  1  0  0  0
 42 43  1  0  0  0
 14 16  1  0  0  0
  5  7  1  0  0  0
M  END
> <minimizedAffinity>
-9.28467

$$$$
4CPR_378_A_1101


 59 61  0  0  0  0  0  0  0  0999 V2000
   13.7925   23.3643    7.0292 C   0  0  0  0  0  0  0  0  0  0  0  0
   14.8231   22.7328    6.0963 C   0  0  0  0  0  0  0  0  0  0  0  0
   15.3551   21.4954    6.6858 N   0  0  0  0  0  0  0  0  0  0  0  0
   14.2793   19.5919    5.2843 O   0  0  0  0  0  0  0  0  0  0  0  0
   16.0186   20.9382    5.8858 N   0  0  0  0  0  0  0  0  0  0  0  0
   15.4320   19.9940    5.1230 C   0  0  0  0  0  0  0  0  0  0  0  0
   16.9726   21.1562    5.7781 H   0  0  0  0  0  0  0  0  0  0  0  0
   16.3661   19.3420    4.0875 C   0  0  0  0  0  0  0  0  0  0  0  0
   16.5628   18.1163    1.9059 C   0  0  0  0  0  0  0  0  0  0  0  0
   14.7613   19.8144    2.2339 C   0  0  0  0  0  0  0  0  0  0  0  0
   14.6518   17.6245    3.4422 C   0  0  0  0  0  0  0  0  0  0  0  0
   15.5876   18.7188    2.9204 C   0  0  0  0  0  0  0  0  0  0  0  0
   18.8072   19.7416    5.1456 O   0  0  0  0  0  0  0  0  0  0  0  0
   17.1767   18.2974    4.7317 N   0  0  0  0  0  0  0  0  0  0  0  0
   18.4032   18.5795    5.1851 C   0  0  0  0  0  0  0  0  0  0  0  0
   16.8151   17.3870    4.8297 H   0  0  0  0  0  0  0  0  0  0  0  0
   18.6217   16.3006    5.3911 C   0  0  0  0  0  0  0  0  0  0  0  0
   19.2040   17.5811    5.6595 O   0  0  0  0  0  0  0  0  0  0  0  0
   16.0811   21.8246    7.7535 C   0  0  0  0  0  0  0  0  0  0  0  0
   15.4118   19.9814    9.1574 C   0  0  0  0  0  0  0  0  0  0  0  0
   16.4091   20.7909    8.6250 C   0  0  0  0  0  0  0  0  0  0  0  0
   15.7472   18.9227    9.9948 C   0  0  0  0  0  0  0  0  0  0  0  0
   17.0814   18.6505   10.2789 C   0  0  0  0  0  0  0  0  0  0  0  0
   17.7444   20.5051    8.8870 C   0  0  0  0  0  0  0  0  0  0  0  0
   18.0773   19.4591    9.7422 C   0  0  0  0  0  0  0  0  0  0  0  0
   16.5758   16.2116   11.1540 S   0  0  0  0  0  0  0  0  0  0  0  0
   17.3923   17.6520   11.1071 C   0  0  0  0  0  0  0  0  0  0  0  0
   18.1222   17.8176   12.2224 C   0  0  0  0  0  0  0  0  0  0  0  0
   17.4455   15.6290   12.6304 C   0  0  0  0  0  0  0  0  0  0  0  0
   18.2592   16.7147   12.9926 C   0  0  0  0  0  0  0  0  0  0  0  0
   12.4449   22.6823    6.7990 C   0  0  0  0  0  0  0  0  0  0  0  0
   10.0945   23.2011    6.7965 O   0  0  0  0  0  0  0  0  0  0  0  0
   11.3821   23.7312    6.4731 C   0  0  0  0  0  0  0  0  0  0  0  0
   10.0619   22.9847    7.7414 H   0  0  0  0  0  0  0  0  0  0  0  0
   10.5285   23.4680    4.1980 N   0  0  0  0  0  0  0  0  0  0  0  0
   12.3547   24.7675    4.5220 O   0  0  0  0  0  0  0  0  0  0  0  0
   11.4411   24.0772    4.9739 C   0  0  0  0  0  0  0  0  0  0  0  0
    9.9328   22.7881    4.5877 H   0  0  0  0  0  0  0  0  0  0  0  0
   10.4114   23.8092    2.7668 C   0  0  0  0  0  0  0  0  0  0  0  0
    8.9902   24.3064    2.4545 C   0  0  0  0  0  0  0  0  0  0  0  0
    8.6926   24.7628    1.3502 O   0  0  0  0  0  0  0  0  0  0  0  0
    8.0868   24.0343    3.4052 N   0  0  0  0  0  0  0  0  0  0  0  0
    8.3632   23.5106    4.1917 H   0  0  0  0  0  0  0  0  0  0  0  0
    6.6950   24.4950    3.3078 C   0  0  0  0  0  0  0  0  0  0  0  0
    6.7832   26.9604    3.5262 C   0  0  0  0  0  0  0  0  0  0  0  0
    6.5354   25.7819    4.1187 C   0  0  0  0  0  0  0  0  0  0  0  0
   10.7767   22.6059    1.8770 C   0  0  0  0  0  0  0  0  0  0  0  0
    9.6296   21.5853    1.8368 C   0  0  0  0  0  0  0  0  0  0  0  0
   12.0488   21.9320    2.4019 C   0  0  0  0  0  0  0  0  0  0  0  0
   11.6519   24.9747    7.3361 C   0  0  0  0  0  0  0  0  0  0  0  0
    8.7703   26.3600    9.1438 C   0  0  0  0  0  0  0  0  0  0  0  0
    8.5501   26.8840    6.8076 C   0  0  0  0  0  0  0  0  0  0  0  0
    9.9511   25.6736    8.8839 C   0  0  0  0  0  0  0  0  0  0  0  0
    9.7366   26.2046    6.5493 C   0  0  0  0  0  0  0  0  0  0  0  0
    8.0467   26.9345    8.1037 C   0  0  0  0  0  0  0  0  0  0  0  0
   10.4688   25.6545    7.5956 C   0  0  0  0  0  0  0  0  0  0  0  0
    6.8812   27.6439    8.3979 C   0  0  0  0  0  0  0  0  0  0  0  0
    4.8623   26.6881    7.3508 C   0  0  0  0  0  0  0  0  0  0  0  0
    5.8803   27.5513    7.2446 C   0  0  0  0  0  0  0  0  0  0  0  0
 40 41  2  0  0  0
 40 39  1  0  0  0
 40 42  1  0  0  0
 35 39  1  0  0  0
 35 37  1  0  0  0
 39 47  1  0  0  0
 47 48  1  0  0  0
 47 49  1  0  0  0
 45 46  2  0  0  0
 58 59  2  0  0  0
 17 18  1  0  0  0
  9 12  1  0  0  0
 10 12  1  0  0  0
 11 12  1  0  0  0
 13 15  2  0  0  0
 26 27  1  0  0  0
 26 29  1  0  0  0
  4  6  2  0  0  0
 36 37  2  0  0  0
 32 33  1  0  0  0
 46 44  1  0  0  0
 59 57  1  0  0  0
 20 21  2  0  0  0
 20 22  1  0  0  0
 21 19  1  0  0  0
 21 24  1  0  0  0
 22 23  2  0  0  0
 19  3  1  0  0  0
 51 53  2  0  0  0
 51 55  1  0  0  0
 52 54  1  0  0  0
 52 55  2  0  0  0
 53 56  1  0  0  0
 54 56  2  0  0  0
 27 28  2  0  0  0
 27 23  1  0  0  0
 28 30  2  0  0  0
 23 25  1  0  0  0
 44 42  1  0  0  0
  1  2  1  0  0  0
  1 31  1  0  0  0
 57 55  1  0  0  0
  2  3  1  0  0  0
 31 33  1  0  0  0
 29 30  1  0  0  0
 50 56  1  0  0  0
 50 33  1  0  0  0
 14 15  1  0  0  0
 14  8  1  0  0  0
  5  6  1  0  0  0
  5  3  1  0  0  0
 18 15  1  0  0  0
  6  8  1  0  0  0
 37 33  1  0  0  0
 24 25  2  0  0  0
  8 12  1  0  0  0
 35 38  1  0  0  0
 32 34  1  0  0  0
 42 43  1  0  0  0
 14 16  1  0  0  0
  5  7  1  0  0  0
M  END
> <minimizedAffinity>
-9.11370

$$$$
4CPR_378_A_1101


 59 61  0  0  0  0  0  0  0  0999 V2000
   12.0537   21.8885    6.3254 C   0  0  0  0  0  0  0  0  0  0  0  0
   12.2788   20.6111    5.5199 C   0  0  0  0  0  0  0  0  0  0  0  0
   12.9364   20.9223    4.2422 N   0  0  0  0  0  0  0  0  0  0  0  0
   15.3678   21.7983    3.9862 O   0  0  0  0  0  0  0  0  0  0  0  0
   13.8006   20.1432    4.0505 N   0  0  0  0  0  0  0  0  0  0  0  0
   15.0654   20.6045    3.9801 C   0  0  0  0  0  0  0  0  0  0  0  0
   13.6043   19.1843    3.9449 H   0  0  0  0  0  0  0  0  0  0  0  0
   16.1289   19.5139    3.7577 C   0  0  0  0  0  0  0  0  0  0  0  0
   14.9846   19.0722    1.5678 C   0  0  0  0  0  0  0  0  0  0  0  0
   14.6178   17.5420    3.5070 C   0  0  0  0  0  0  0  0  0  0  0  0
   16.8295   17.5677    2.3341 C   0  0  0  0  0  0  0  0  0  0  0  0
   15.6453   18.4263    2.7882 C   0  0  0  0  0  0  0  0  0  0  0  0
   18.6121   19.4384    4.7901 O   0  0  0  0  0  0  0  0  0  0  0  0
   16.4794   18.8870    5.0412 N   0  0  0  0  0  0  0  0  0  0  0  0
   17.7526   18.8545    5.4501 C   0  0  0  0  0  0  0  0  0  0  0  0
   15.7741   18.4898    5.6016 H   0  0  0  0  0  0  0  0  0  0  0  0
   18.7175   16.9162    6.2219 C   0  0  0  0  0  0  0  0  0  0  0  0
   18.0935   18.1566    6.5726 O   0  0  0  0  0  0  0  0  0  0  0  0
   12.0192   20.8556    3.2779 C   0  0  0  0  0  0  0  0  0  0  0  0
   11.6847   23.2412    3.1614 C   0  0  0  0  0  0  0  0  0  0  0  0
   11.1693   21.9499    3.1517 C   0  0  0  0  0  0  0  0  0  0  0  0
   10.8369   24.3308    2.9925 C   0  0  0  0  0  0  0  0  0  0  0  0
    9.4761   24.1329    2.7831 C   0  0  0  0  0  0  0  0  0  0  0  0
    9.8136   21.7487    2.9170 C   0  0  0  0  0  0  0  0  0  0  0  0
    8.9634   22.8403    2.7699 C   0  0  0  0  0  0  0  0  0  0  0  0
    7.9797   25.9783    3.9341 S   0  0  0  0  0  0  0  0  0  0  0  0
    8.6658   25.1845    2.6524 C   0  0  0  0  0  0  0  0  0  0  0  0
    8.0219   25.4836    1.5122 C   0  0  0  0  0  0  0  0  0  0  0  0
    6.9187   27.0035    2.8860 C   0  0  0  0  0  0  0  0  0  0  0  0
    7.1678   26.5293    1.5879 C   0  0  0  0  0  0  0  0  0  0  0  0
   12.7457   21.7386    7.6793 C   0  0  0  0  0  0  0  0  0  0  0  0
   14.3093   23.0115    6.3647 O   0  0  0  0  0  0  0  0  0  0  0  0
   14.1559   22.3235    7.6083 C   0  0  0  0  0  0  0  0  0  0  0  0
   13.6554   23.7257    6.3075 H   0  0  0  0  0  0  0  0  0  0  0  0
   16.3146   21.4790    8.3834 N   0  0  0  0  0  0  0  0  0  0  0  0
   15.0332   20.1362    7.0860 O   0  0  0  0  0  0  0  0  0  0  0  0
   15.1911   21.1878    7.7061 C   0  0  0  0  0  0  0  0  0  0  0  0
   16.4641   22.3960    8.7089 H   0  0  0  0  0  0  0  0  0  0  0  0
   17.3263   20.4364    8.6439 C   0  0  0  0  0  0  0  0  0  0  0  0
   16.8272   19.4731    9.7335 C   0  0  0  0  0  0  0  0  0  0  0  0
   16.3014   19.8835   10.7686 O   0  0  0  0  0  0  0  0  0  0  0  0
   16.8478   18.1807    9.3820 N   0  0  0  0  0  0  0  0  0  0  0  0
   17.1225   17.9380    8.4683 H   0  0  0  0  0  0  0  0  0  0  0  0
   16.4722   17.1150   10.3212 C   0  0  0  0  0  0  0  0  0  0  0  0
   17.9914   15.3128    9.5612 C   0  0  0  0  0  0  0  0  0  0  0  0
   17.6688   16.1854   10.5286 C   0  0  0  0  0  0  0  0  0  0  0  0
   18.6770   21.0602    9.0436 C   0  0  0  0  0  0  0  0  0  0  0  0
   19.5631   21.2863    7.8096 C   0  0  0  0  0  0  0  0  0  0  0  0
   19.4018   20.1488   10.0395 C   0  0  0  0  0  0  0  0  0  0  0  0
   14.3224   23.3214    8.7659 C   0  0  0  0  0  0  0  0  0  0  0  0
   11.6280   25.6625    7.9002 C   0  0  0  0  0  0  0  0  0  0  0  0
   11.4622   25.1123   10.2349 C   0  0  0  0  0  0  0  0  0  0  0  0
   12.7581   24.8608    7.7861 C   0  0  0  0  0  0  0  0  0  0  0  0
   12.5881   24.3030   10.1181 C   0  0  0  0  0  0  0  0  0  0  0  0
   10.9990   25.8211    9.1309 C   0  0  0  0  0  0  0  0  0  0  0  0
   13.1974   24.1278    8.8806 C   0  0  0  0  0  0  0  0  0  0  0  0
    9.8482   26.6073    9.2093 C   0  0  0  0  0  0  0  0  0  0  0  0
    7.6151   26.3938    8.1828 C   0  0  0  0  0  0  0  0  0  0  0  0
    8.6044   25.7907    8.8540 C   0  0  0  0  0  0  0  0  0  0  0  0
 40 41  2  0  0  0
 40 39  1  0  0  0
 40 42  1  0  0  0
 35 39  1  0  0  0
 35 37  1  0  0  0
 39 47  1  0  0  0
 47 48  1  0  0  0
 47 49  1  0  0  0
 45 46  2  0  0  0
 58 59  2  0  0  0
 17 18  1  0  0  0
  9 12  1  0  0  0
 10 12  1  0  0  0
 11 12  1  0  0  0
 13 15  2  0  0  0
 26 27  1  0  0  0
 26 29  1  0  0  0
  4  6  2  0  0  0
 36 37  2  0  0  0
 32 33  1  0  0  0
 46 44  1  0  0  0
 59 57  1  0  0  0
 20 21  2  0  0  0
 20 22  1  0  0  0
 21 19  1  0  0  0
 21 24  1  0  0  0
 22 23  2  0  0  0
 19  3  1  0  0  0
 51 53  2  0  0  0
 51 55  1  0  0  0
 52 54  1  0  0  0
 52 55  2  0  0  0
 53 56  1  0  0  0
 54 56  2  0  0  0
 27 28  2  0  0  0
 27 23  1  0  0  0
 28 30  2  0  0  0
 23 25  1  0  0  0
 44 42  1  0  0  0
  1  2  1  0  0  0
  1 31  1  0  0  0
 57 55  1  0  0  0
  2  3  1  0  0  0
 31 33  1  0  0  0
 29 30  1  0  0  0
 50 56  1  0  0  0
 50 33  1  0  0  0
 14 15  1  0  0  0
 14  8  1  0  0  0
  5  6  1  0  0  0
  5  3  1  0  0  0
 18 15  1  0  0  0
  6  8  1  0  0  0
 37 33  1  0  0  0
 24 25  2  0  0  0
  8 12  1  0  0  0
 35 38  1  0  0  0
 32 34  1  0  0  0
 42 43  1  0  0  0
 14 16  1  0  0  0
  5  7  1  0  0  0
M  END
> <minimizedAffinity>
-9.03924

$$$$
4CPR_378_A_1101


 59 61  0  0  0  0  0  0  0  0999 V2000
   16.3271   21.6295    7.5818 C   0  0  0  0  0  0  0  0  0  0  0  0
   15.0502   21.5823    8.4176 C   0  0  0  0  0  0  0  0  0  0  0  0
   13.9989   22.3967    7.7906 N   0  0  0  0  0  0  0  0  0  0  0  0
   14.0153   23.5134    5.4459 O   0  0  0  0  0  0  0  0  0  0  0  0
   13.5409   21.8047    6.8794 N   0  0  0  0  0  0  0  0  0  0  0  0
   13.6103   22.3698    5.6573 C   0  0  0  0  0  0  0  0  0  0  0  0
   13.1202   20.9238    7.0073 H   0  0  0  0  0  0  0  0  0  0  0  0
   13.0147   21.5130    4.5255 C   0  0  0  0  0  0  0  0  0  0  0  0
   15.4706   21.0424    4.3075 C   0  0  0  0  0  0  0  0  0  0  0  0
   13.9551   20.7381    2.3461 C   0  0  0  0  0  0  0  0  0  0  0  0
   13.8335   19.1520    4.2793 C   0  0  0  0  0  0  0  0  0  0  0  0
   14.0688   20.6092    3.8708 C   0  0  0  0  0  0  0  0  0  0  0  0
   10.4387   21.4349    3.7534 O   0  0  0  0  0  0  0  0  0  0  0  0
   12.4264   22.3827    3.4956 N   0  0  0  0  0  0  0  0  0  0  0  0
   11.1447   22.2366    3.1417 C   0  0  0  0  0  0  0  0  0  0  0  0
   12.9781   23.0751    3.0650 H   0  0  0  0  0  0  0  0  0  0  0  0
   10.8522   24.3528    2.2934 C   0  0  0  0  0  0  0  0  0  0  0  0
   10.6379   22.9509    2.0947 O   0  0  0  0  0  0  0  0  0  0  0  0
   13.0654   22.6452    8.7084 C   0  0  0  0  0  0  0  0  0  0  0  0
   11.0009   23.1897    7.5870 C   0  0  0  0  0  0  0  0  0  0  0  0
   12.0876   23.5733    8.3650 C   0  0  0  0  0  0  0  0  0  0  0  0
   10.0038   24.1100    7.2812 C   0  0  0  0  0  0  0  0  0  0  0  0
   10.0734   25.4079    7.7765 C   0  0  0  0  0  0  0  0  0  0  0  0
   12.1462   24.8627    8.8823 C   0  0  0  0  0  0  0  0  0  0  0  0
   11.1592   25.7882    8.5576 C   0  0  0  0  0  0  0  0  0  0  0  0
    7.9270   26.7701    8.4887 S   0  0  0  0  0  0  0  0  0  0  0  0
    9.1284   26.2922    7.4533 C   0  0  0  0  0  0  0  0  0  0  0  0
    8.8114   26.6044    6.1859 C   0  0  0  0  0  0  0  0  0  0  0  0
    7.0342   27.6971    7.2163 C   0  0  0  0  0  0  0  0  0  0  0  0
    7.7646   27.4483    6.0431 C   0  0  0  0  0  0  0  0  0  0  0  0
   16.9002   20.2164    7.4881 C   0  0  0  0  0  0  0  0  0  0  0  0
   18.9858   21.4123    7.6047 O   0  0  0  0  0  0  0  0  0  0  0  0
   18.3371   20.2041    8.0086 C   0  0  0  0  0  0  0  0  0  0  0  0
   18.5105   22.1733    7.9733 H   0  0  0  0  0  0  0  0  0  0  0  0
   18.3708   17.8589    7.3210 N   0  0  0  0  0  0  0  0  0  0  0  0
   20.2957   19.0461    7.2029 O   0  0  0  0  0  0  0  0  0  0  0  0
   19.0865   18.9913    7.4268 C   0  0  0  0  0  0  0  0  0  0  0  0
   17.4550   17.8252    7.6807 H   0  0  0  0  0  0  0  0  0  0  0  0
   18.9453   16.6652    6.6704 C   0  0  0  0  0  0  0  0  0  0  0  0
   18.3374   16.4796    5.2702 C   0  0  0  0  0  0  0  0  0  0  0  0
   18.7940   15.6629    4.4697 O   0  0  0  0  0  0  0  0  0  0  0  0
   17.1861   17.1358    5.0749 N   0  0  0  0  0  0  0  0  0  0  0  0
   16.7882   17.6366    5.8233 H   0  0  0  0  0  0  0  0  0  0  0  0
   16.5002   17.1295    3.7755 C   0  0  0  0  0  0  0  0  0  0  0  0
   16.6714   18.3347    1.6188 C   0  0  0  0  0  0  0  0  0  0  0  0
   17.1716   18.1449    2.8497 C   0  0  0  0  0  0  0  0  0  0  0  0
   18.7297   15.4055    7.5306 C   0  0  0  0  0  0  0  0  0  0  0  0
   18.0990   15.7668    8.8836 C   0  0  0  0  0  0  0  0  0  0  0  0
   20.0657   14.6905    7.7584 C   0  0  0  0  0  0  0  0  0  0  0  0
   18.2928   20.1391    9.5440 C   0  0  0  0  0  0  0  0  0  0  0  0
   21.3047   20.4229   11.6269 C   0  0  0  0  0  0  0  0  0  0  0  0
   21.1059   22.3985   10.2708 C   0  0  0  0  0  0  0  0  0  0  0  0
   20.1225   19.9278   11.0883 C   0  0  0  0  0  0  0  0  0  0  0  0
   19.9274   21.8984    9.7254 C   0  0  0  0  0  0  0  0  0  0  0  0
   21.7803   21.6745   11.2490 C   0  0  0  0  0  0  0  0  0  0  0  0
   19.4704   20.6361   10.0876 C   0  0  0  0  0  0  0  0  0  0  0  0
   22.9859   22.1326   11.7830 C   0  0  0  0  0  0  0  0  0  0  0  0
   22.5978   23.3250   13.9075 C   0  0  0  0  0  0  0  0  0  0  0  0
   22.9258   22.1720   13.3111 C   0  0  0  0  0  0  0  0  0  0  0  0
 40 41  2  0  0  0
 40 39  1  0  0  0
 40 42  1  0  0  0
 35 39  1  0  0  0
 35 37  1  0  0  0
 39 47  1  0  0  0
 47 48  1  0  0  0
 47 49  1  0  0  0
 45 46  2  0  0  0
 58 59  2  0  0  0
 17 18  1  0  0  0
  9 12  1  0  0  0
 10 12  1  0  0  0
 11 12  1  0  0  0
 13 15  2  0  0  0
 26 27  1  0  0  0
 26 29  1  0  0  0
  4  6  2  0  0  0
 36 37  2  0  0  0
 32 33  1  0  0  0
 46 44  1  0  0  0
 59 57  1  0  0  0
 20 21  2  0  0  0
 20 22  1  0  0  0
 21 19  1  0  0  0
 21 24  1  0  0  0
 22 23  2  0  0  0
 19  3  1  0  0  0
 51 53  2  0  0  0
 51 55  1  0  0  0
 52 54  1  0  0  0
 52 55  2  0  0  0
 53 56  1  0  0  0
 54 56  2  0  0  0
 27 28  2  0  0  0
 27 23  1  0  0  0
 28 30  2  0  0  0
 23 25  1  0  0  0
 44 42  1  0  0  0
  1  2  1  0  0  0
  1 31  1  0  0  0
 57 55  1  0  0  0
  2  3  1  0  0  0
 31 33  1  0  0  0
 29 30  1  0  0  0
 50 56  1  0  0  0
 50 33  1  0  0  0
 14 15  1  0  0  0
 14  8  1  0  0  0
  5  6  1  0  0  0
  5  3  1  0  0  0
 18 15  1  0  0  0
  6  8  1  0  0  0
 37 33  1  0  0  0
 24 25  2  0  0  0
  8 12  1  0  0  0
 35 38  1  0  0  0
 32 34  1  0  0  0
 42 43  1  0  0  0
 14 16  1  0  0  0
  5  7  1  0  0  0
M  END
> <minimizedAffinity>
-9.01841

$$$$
4CPR_378_A_1101


 59 61  0  0  0  0  0  0  0  0999 V2000
   12.6477   22.8501    4.5077 C   0  0  0  0  0  0  0  0  0  0  0  0
   12.0181   24.2344    4.3712 C   0  0  0  0  0  0  0  0  0  0  0  0
   10.5518   24.1289    4.3515 N   0  0  0  0  0  0  0  0  0  0  0  0
    9.6265   23.9467    6.7712 O   0  0  0  0  0  0  0  0  0  0  0  0
   10.0866   25.0897    4.8525 N   0  0  0  0  0  0  0  0  0  0  0  0
    9.6654   24.9973    6.1298 C   0  0  0  0  0  0  0  0  0  0  0  0
   10.0082   25.9343    4.3528 H   0  0  0  0  0  0  0  0  0  0  0  0
    9.1011   26.3068    6.7099 C   0  0  0  0  0  0  0  0  0  0  0  0
    8.0924   25.5338    8.8744 C   0  0  0  0  0  0  0  0  0  0  0  0
    9.0928   27.8153    8.6996 C   0  0  0  0  0  0  0  0  0  0  0  0
   10.5719   25.7955    8.6797 C   0  0  0  0  0  0  0  0  0  0  0  0
    9.2165   26.3567    8.2398 C   0  0  0  0  0  0  0  0  0  0  0  0
    8.2222   27.7423    4.6110 O   0  0  0  0  0  0  0  0  0  0  0  0
    7.6868   26.4529    6.3334 N   0  0  0  0  0  0  0  0  0  0  0  0
    7.3408   27.2299    5.3009 C   0  0  0  0  0  0  0  0  0  0  0  0
    6.9921   25.9769    6.8433 H   0  0  0  0  0  0  0  0  0  0  0  0
    5.2631   27.4855    6.2504 C   0  0  0  0  0  0  0  0  0  0  0  0
    6.0235   27.4710    5.0369 O   0  0  0  0  0  0  0  0  0  0  0  0
   10.1616   24.0236    3.0817 C   0  0  0  0  0  0  0  0  0  0  0  0
    7.7974   23.6965    3.4280 C   0  0  0  0  0  0  0  0  0  0  0  0
    8.8427   24.3700    2.8059 C   0  0  0  0  0  0  0  0  0  0  0  0
    6.4815   24.0738    3.1819 C   0  0  0  0  0  0  0  0  0  0  0  0
    6.2065   25.1443    2.3375 C   0  0  0  0  0  0  0  0  0  0  0  0
    8.5713   25.4565    1.9816 C   0  0  0  0  0  0  0  0  0  0  0  0
    7.2538   25.8189    1.7194 C   0  0  0  0  0  0  0  0  0  0  0  0
    3.7275   25.4002    3.2083 S   0  0  0  0  0  0  0  0  0  0  0  0
    4.9407   25.4800    2.0834 C   0  0  0  0  0  0  0  0  0  0  0  0
    4.4305   25.5526    0.8430 C   0  0  0  0  0  0  0  0  0  0  0  0
    2.4239   25.7536    2.0037 C   0  0  0  0  0  0  0  0  0  0  0  0
    3.1054   25.8140    0.7774 C   0  0  0  0  0  0  0  0  0  0  0  0
   13.3115   22.7504    5.8802 C   0  0  0  0  0  0  0  0  0  0  0  0
   15.3089   23.2170    4.6207 O   0  0  0  0  0  0  0  0  0  0  0  0
   14.8010   22.4502    5.7150 C   0  0  0  0  0  0  0  0  0  0  0  0
   15.1835   24.1616    4.8020 H   0  0  0  0  0  0  0  0  0  0  0  0
   16.0289   20.6350    4.6328 N   0  0  0  0  0  0  0  0  0  0  0  0
   14.1720   20.1223    5.8233 O   0  0  0  0  0  0  0  0  0  0  0  0
   14.9968   20.9490    5.4340 C   0  0  0  0  0  0  0  0  0  0  0  0
   16.5511   21.3524    4.2062 H   0  0  0  0  0  0  0  0  0  0  0  0
   16.3868   19.2245    4.3866 C   0  0  0  0  0  0  0  0  0  0  0  0
   17.7292   18.8924    5.0590 C   0  0  0  0  0  0  0  0  0  0  0  0
   18.7224   19.6044    4.9073 O   0  0  0  0  0  0  0  0  0  0  0  0
   17.6713   17.8910    5.9467 N   0  0  0  0  0  0  0  0  0  0  0  0
   16.8002   17.4772    6.1446 H   0  0  0  0  0  0  0  0  0  0  0  0
   18.8707   17.3924    6.6334 C   0  0  0  0  0  0  0  0  0  0  0  0
   19.7870   15.1669    7.2176 C   0  0  0  0  0  0  0  0  0  0  0  0
   18.9792   15.8820    6.4192 C   0  0  0  0  0  0  0  0  0  0  0  0
   16.4422   18.9205    2.8774 C   0  0  0  0  0  0  0  0  0  0  0  0
   15.0606   19.1000    2.2308 C   0  0  0  0  0  0  0  0  0  0  0  0
   16.9372   17.4885    2.6482 C   0  0  0  0  0  0  0  0  0  0  0  0
   15.5227   22.8672    7.0069 C   0  0  0  0  0  0  0  0  0  0  0  0
   14.8840   20.3269    9.5816 C   0  0  0  0  0  0  0  0  0  0  0  0
   17.0968   20.0025    8.6986 C   0  0  0  0  0  0  0  0  0  0  0  0
   14.7081   21.4277    8.7508 C   0  0  0  0  0  0  0  0  0  0  0  0
   16.9168   21.0989    7.8609 C   0  0  0  0  0  0  0  0  0  0  0  0
   16.0905   19.6342    9.5861 C   0  0  0  0  0  0  0  0  0  0  0  0
   15.7001   21.7717    7.8421 C   0  0  0  0  0  0  0  0  0  0  0  0
   16.2277   18.5143   10.4079 C   0  0  0  0  0  0  0  0  0  0  0  0
   17.1714   16.2391   10.2711 C   0  0  0  0  0  0  0  0  0  0  0  0
   17.1592   17.4812    9.7713 C   0  0  0  0  0  0  0  0  0  0  0  0
 40 41  2  0  0  0
 40 39  1  0  0  0
 40 42  1  0  0  0
 35 39  1  0  0  0
 35 37  1  0  0  0
 39 47  1  0  0  0
 47 48  1  0  0  0
 47 49  1  0  0  0
 45 46  2  0  0  0
 58 59  2  0  0  0
 17 18  1  0  0  0
  9 12  1  0  0  0
 10 12  1  0  0  0
 11 12  1  0  0  0
 13 15  2  0  0  0
 26 27  1  0  0  0
 26 29  1  0  0  0
  4  6  2  0  0  0
 36 37  2  0  0  0
 32 33  1  0  0  0
 46 44  1  0  0  0
 59 57  1  0  0  0
 20 21  2  0  0  0
 20 22  1  0  0  0
 21 19  1  0  0  0
 21 24  1  0  0  0
 22 23  2  0  0  0
 19  3  1  0  0  0
 51 53  2  0  0  0
 51 55  1  0  0  0
 52 54  1  0  0  0
 52 55  2  0  0  0
 53 56  1  0  0  0
 54 56  2  0  0  0
 27 28  2  0  0  0
 27 23  1  0  0  0
 28 30  2  0  0  0
 23 25  1  0  0  0
 44 42  1  0  0  0
  1  2  1  0  0  0
  1 31  1  0  0  0
 57 55  1  0  0  0
  2  3  1  0  0  0
 31 33  1  0  0  0
 29 30  1  0  0  0
 50 56  1  0  0  0
 50 33  1  0  0  0
 14 15  1  0  0  0
 14  8  1  0  0  0
  5  6  1  0  0  0
  5  3  1  0  0  0
 18 15  1  0  0  0
  6  8  1  0  0  0
 37 33  1  0  0  0
 24 25  2  0  0  0
  8 12  1  0  0  0
 35 38  1  0  0  0
 32 34  1  0  0  0
 42 43  1  0  0  0
 14 16  1  0  0  0
  5  7  1  0  0  0
M  END
> <minimizedAffinity>
-9.01394

$$$$
4CPR_378_A_1101


 59 61  0  0  0  0  0  0  0  0999 V2000
    8.8345   23.3541    3.2036 C   0  0  0  0  0  0  0  0  0  0  0  0
    9.6948   23.9689    4.3050 C   0  0  0  0  0  0  0  0  0  0  0  0
   11.0228   23.3382    4.3278 N   0  0  0  0  0  0  0  0  0  0  0  0
   13.0188   24.7082    5.2678 O   0  0  0  0  0  0  0  0  0  0  0  0
   11.3506   23.1639    5.4470 N   0  0  0  0  0  0  0  0  0  0  0  0
   12.3483   23.9245    5.9407 C   0  0  0  0  0  0  0  0  0  0  0  0
   10.9089   22.4832    6.0044 H   0  0  0  0  0  0  0  0  0  0  0  0
   12.6880   23.6485    7.4166 C   0  0  0  0  0  0  0  0  0  0  0  0
   12.1143   26.0042    8.0660 C   0  0  0  0  0  0  0  0  0  0  0  0
   12.2980   24.2296    9.8134 C   0  0  0  0  0  0  0  0  0  0  0  0
   10.3742   24.2139    8.2114 C   0  0  0  0  0  0  0  0  0  0  0  0
   11.8652   24.5250    8.3713 C   0  0  0  0  0  0  0  0  0  0  0  0
   14.6030   21.7632    7.2878 O   0  0  0  0  0  0  0  0  0  0  0  0
   14.1181   23.8951    7.6560 N   0  0  0  0  0  0  0  0  0  0  0  0
   14.9921   22.8831    7.6191 C   0  0  0  0  0  0  0  0  0  0  0  0
   14.4333   24.8086    7.8441 H   0  0  0  0  0  0  0  0  0  0  0  0
   16.9154   21.8541    8.3441 C   0  0  0  0  0  0  0  0  0  0  0  0
   16.2941   23.0898    7.9729 O   0  0  0  0  0  0  0  0  0  0  0  0
   10.9418   22.1797    3.6745 C   0  0  0  0  0  0  0  0  0  0  0  0
   12.4547   20.5396    4.5898 C   0  0  0  0  0  0  0  0  0  0  0  0
   12.1132   21.4349    3.5822 C   0  0  0  0  0  0  0  0  0  0  0  0
   13.6048   19.7660    4.4737 C   0  0  0  0  0  0  0  0  0  0  0  0
   14.4012   19.8620    3.3374 C   0  0  0  0  0  0  0  0  0  0  0  0
   12.8938   21.5138    2.4342 C   0  0  0  0  0  0  0  0  0  0  0  0
   14.0556   20.7552    2.3292 C   0  0  0  0  0  0  0  0  0  0  0  0
   16.7909   19.2833    4.2987 S   0  0  0  0  0  0  0  0  0  0  0  0
   15.5185   19.1386    3.2481 C   0  0  0  0  0  0  0  0  0  0  0  0
   15.9017   18.5070    2.1264 C   0  0  0  0  0  0  0  0  0  0  0  0
   17.8708   18.2028    3.3283 C   0  0  0  0  0  0  0  0  0  0  0  0
   17.1087   17.9005    2.1882 C   0  0  0  0  0  0  0  0  0  0  0  0
    7.3937   23.8271    3.3900 C   0  0  0  0  0  0  0  0  0  0  0  0
    8.1744   25.0628    1.4777 O   0  0  0  0  0  0  0  0  0  0  0  0
    7.0778   24.9350    2.3858 C   0  0  0  0  0  0  0  0  0  0  0  0
    8.3055   24.2238    1.0090 H   0  0  0  0  0  0  0  0  0  0  0  0
    6.6166   26.1592    4.4504 N   0  0  0  0  0  0  0  0  0  0  0  0
    6.7992   27.3289    2.5199 O   0  0  0  0  0  0  0  0  0  0  0  0
    6.8638   26.2638    3.1337 C   0  0  0  0  0  0  0  0  0  0  0  0
    6.5047   25.2694    4.8565 H   0  0  0  0  0  0  0  0  0  0  0  0
    6.5113   27.3662    5.2933 C   0  0  0  0  0  0  0  0  0  0  0  0
    7.7439   27.4861    6.2047 C   0  0  0  0  0  0  0  0  0  0  0  0
    8.8714   27.1862    5.8109 O   0  0  0  0  0  0  0  0  0  0  0  0
    7.5126   28.1034    7.3707 N   0  0  0  0  0  0  0  0  0  0  0  0
    6.6171   28.4726    7.5470 H   0  0  0  0  0  0  0  0  0  0  0  0
    8.5573   28.2455    8.3942 C   0  0  0  0  0  0  0  0  0  0  0  0
    7.8416   25.9590    9.0213 C   0  0  0  0  0  0  0  0  0  0  0  0
    8.4277   27.1042    9.4040 C   0  0  0  0  0  0  0  0  0  0  0  0
    5.2156   27.3510    6.1264 C   0  0  0  0  0  0  0  0  0  0  0  0
    4.8784   25.9260    6.5898 C   0  0  0  0  0  0  0  0  0  0  0  0
    4.0540   27.9137    5.3006 C   0  0  0  0  0  0  0  0  0  0  0  0
    5.8155   24.5327    1.6058 C   0  0  0  0  0  0  0  0  0  0  0  0
    3.3855   23.5500    4.1787 C   0  0  0  0  0  0  0  0  0  0  0  0
    2.6105   25.5540    3.0995 C   0  0  0  0  0  0  0  0  0  0  0  0
    4.4970   23.5241    3.3440 C   0  0  0  0  0  0  0  0  0  0  0  0
    3.7278   25.5326    2.2705 C   0  0  0  0  0  0  0  0  0  0  0  0
    2.4204   24.5417    4.0349 C   0  0  0  0  0  0  0  0  0  0  0  0
    4.7018   24.5541    2.4356 C   0  0  0  0  0  0  0  0  0  0  0  0
    1.3307   24.5606    4.9071 C   0  0  0  0  0  0  0  0  0  0  0  0
    0.5032   25.8721    6.8258 C   0  0  0  0  0  0  0  0  0  0  0  0
    1.3865   25.7845    5.8233 C   0  0  0  0  0  0  0  0  0  0  0  0
 40 41  2  0  0  0
 40 39  1  0  0  0
 40 42  1  0  0  0
 35 39  1  0  0  0
 35 37  1  0  0  0
 39 47  1  0  0  0
 47 48  1  0  0  0
 47 49  1  0  0  0
 45 46  2  0  0  0
 58 59  2  0  0  0
 17 18  1  0  0  0
  9 12  1  0  0  0
 10 12  1  0  0  0
 11 12  1  0  0  0
 13 15  2  0  0  0
 26 27  1  0  0  0
 26 29  1  0  0  0
  4  6  2  0  0  0
 36 37  2  0  0  0
 32 33  1  0  0  0
 46 44  1  0  0  0
 59 57  1  0  0  0
 20 21  2  0  0  0
 20 22  1  0  0  0
 21 19  1  0  0  0
 21 24  1  0  0  0
 22 23  2  0  0  0
 19  3  1  0  0  0
 51 53  2  0  0  0
 51 55  1  0  0  0
 52 54  1  0  0  0
 52 55  2  0  0  0
 53 56  1  0  0  0
 54 56  2  0  0  0
 27 28  2  0  0  0
 27 23  1  0  0  0
 28 30  2  0  0  0
 23 25  1  0  0  0
 44 42  1  0  0  0
  1  2  1  0  0  0
  1 31  1  0  0  0
 57 55  1  0  0  0
  2  3  1  0  0  0
 31 33  1  0  0  0
 29 30  1  0  0  0
 50 56  1  0  0  0
 50 33  1  0  0  0
 14 15  1  0  0  0
 14  8  1  0  0  0
  5  6  1  0  0  0
  5  3  1  0  0  0
 18 15  1  0  0  0
  6  8  1  0  0  0
 37 33  1  0  0  0
 24 25  2  0  0  0
  8 12  1  0  0  0
 35 38  1  0  0  0
 32 34  1  0  0  0
 42 43  1  0  0  0
 14 16  1  0  0  0
  5  7  1  0  0  0
M  END
> <minimizedAffinity>
-9.00856

$$$$
4CPR_378_A_1101


 59 61  0  0  0  0  0  0  0  0999 V2000
   11.7658   22.3922    3.1597 C   0  0  0  0  0  0  0  0  0  0  0  0
   11.3350   23.6939    3.8313 C   0  0  0  0  0  0  0  0  0  0  0  0
    9.8704   23.7473    3.9494 N   0  0  0  0  0  0  0  0  0  0  0  0
    9.5516   23.8125    6.5260 O   0  0  0  0  0  0  0  0  0  0  0  0
    9.5586   24.7661    4.4547 N   0  0  0  0  0  0  0  0  0  0  0  0
    9.4556   24.8015    5.7985 C   0  0  0  0  0  0  0  0  0  0  0  0
    9.3787   25.5672    3.9114 H   0  0  0  0  0  0  0  0  0  0  0  0
    9.0734   26.1784    6.3711 C   0  0  0  0  0  0  0  0  0  0  0  0
    8.3181   25.4269    8.6439 C   0  0  0  0  0  0  0  0  0  0  0  0
    9.2147   27.7349    8.3184 C   0  0  0  0  0  0  0  0  0  0  0  0
   10.7542   25.7648    8.1902 C   0  0  0  0  0  0  0  0  0  0  0  0
    9.3421   26.2701    7.8798 C   0  0  0  0  0  0  0  0  0  0  0  0
    8.1278   27.6047    4.2952 O   0  0  0  0  0  0  0  0  0  0  0  0
    7.6485   26.4458    6.1235 N   0  0  0  0  0  0  0  0  0  0  0  0
    7.2754   27.2095    5.0906 C   0  0  0  0  0  0  0  0  0  0  0  0
    6.9665   26.0611    6.7204 H   0  0  0  0  0  0  0  0  0  0  0  0
    5.2153   27.2214    6.1102 C   0  0  0  0  0  0  0  0  0  0  0  0
    5.9665   27.5666    4.9408 O   0  0  0  0  0  0  0  0  0  0  0  0
    9.3529   23.6504    2.7254 C   0  0  0  0  0  0  0  0  0  0  0  0
    7.0229   23.6099    3.3467 C   0  0  0  0  0  0  0  0  0  0  0  0
    8.0524   24.1169    2.5616 C   0  0  0  0  0  0  0  0  0  0  0  0
    5.7319   24.1089    3.2094 C   0  0  0  0  0  0  0  0  0  0  0  0
    5.4707   25.1365    2.3092 C   0  0  0  0  0  0  0  0  0  0  0  0
    7.7987   25.1615    1.6796 C   0  0  0  0  0  0  0  0  0  0  0  0
    6.5027   25.6447    1.5278 C   0  0  0  0  0  0  0  0  0  0  0  0
    3.0936   25.5698    3.3728 S   0  0  0  0  0  0  0  0  0  0  0  0
    4.2241   25.5881    2.1623 C   0  0  0  0  0  0  0  0  0  0  0  0
    3.6334   25.7505    0.9670 C   0  0  0  0  0  0  0  0  0  0  0  0
    1.7419   26.0780    2.2820 C   0  0  0  0  0  0  0  0  0  0  0  0
    2.3351   26.1261    1.0101 C   0  0  0  0  0  0  0  0  0  0  0  0
   12.5063   21.5366    4.1862 C   0  0  0  0  0  0  0  0  0  0  0  0
   14.2037   21.7838    2.4976 O   0  0  0  0  0  0  0  0  0  0  0  0
   14.0066   21.5611    3.8959 C   0  0  0  0  0  0  0  0  0  0  0  0
   13.8078   22.6329    2.2465 H   0  0  0  0  0  0  0  0  0  0  0  0
   15.9255   20.0491    3.9733 N   0  0  0  0  0  0  0  0  0  0  0  0
   13.9399   19.3153    4.7780 O   0  0  0  0  0  0  0  0  0  0  0  0
   14.6330   20.2143    4.3018 C   0  0  0  0  0  0  0  0  0  0  0  0
   16.3833   20.7343    3.4346 H   0  0  0  0  0  0  0  0  0  0  0  0
   16.6650   18.8498    4.4128 C   0  0  0  0  0  0  0  0  0  0  0  0
   17.6402   19.2130    5.5449 C   0  0  0  0  0  0  0  0  0  0  0  0
   18.7533   19.6858    5.3131 O   0  0  0  0  0  0  0  0  0  0  0  0
   17.1126   19.1432    6.7741 N   0  0  0  0  0  0  0  0  0  0  0  0
   16.1585   18.9214    6.8731 H   0  0  0  0  0  0  0  0  0  0  0  0
   17.9171   19.3883    7.9789 C   0  0  0  0  0  0  0  0  0  0  0  0
   17.5856   19.2283   10.4280 C   0  0  0  0  0  0  0  0  0  0  0  0
   17.1476   18.8931    9.2044 C   0  0  0  0  0  0  0  0  0  0  0  0
   17.4137   18.1962    3.2358 C   0  0  0  0  0  0  0  0  0  0  0  0
   16.5177   18.1196    1.9907 C   0  0  0  0  0  0  0  0  0  0  0  0
   17.8774   16.7887    3.6254 C   0  0  0  0  0  0  0  0  0  0  0  0
   14.6319   22.7204    4.6889 C   0  0  0  0  0  0  0  0  0  0  0  0
   12.9281   22.8898    7.9383 C   0  0  0  0  0  0  0  0  0  0  0  0
   15.1146   21.9403    8.2532 C   0  0  0  0  0  0  0  0  0  0  0  0
   13.1838   23.0414    6.5802 C   0  0  0  0  0  0  0  0  0  0  0  0
   15.3665   22.0839    6.8923 C   0  0  0  0  0  0  0  0  0  0  0  0
   13.9044   22.3746    8.7850 C   0  0  0  0  0  0  0  0  0  0  0  0
   14.3782   22.5754    6.0467 C   0  0  0  0  0  0  0  0  0  0  0  0
   13.6089   22.2049   10.1386 C   0  0  0  0  0  0  0  0  0  0  0  0
   12.5698   24.2812   10.9723 C   0  0  0  0  0  0  0  0  0  0  0  0
   13.6805   23.5388   10.8841 C   0  0  0  0  0  0  0  0  0  0  0  0
 40 41  2  0  0  0
 40 39  1  0  0  0
 40 42  1  0  0  0
 35 39  1  0  0  0
 35 37  1  0  0  0
 39 47  1  0  0  0
 47 48  1  0  0  0
 47 49  1  0  0  0
 45 46  2  0  0  0
 58 59  2  0  0  0
 17 18  1  0  0  0
  9 12  1  0  0  0
 10 12  1  0  0  0
 11 12  1  0  0  0
 13 15  2  0  0  0
 26 27  1  0  0  0
 26 29  1  0  0  0
  4  6  2  0  0  0
 36 37  2  0  0  0
 32 33  1  0  0  0
 46 44  1  0  0  0
 59 57  1  0  0  0
 20 21  2  0  0  0
 20 22  1  0  0  0
 21 19  1  0  0  0
 21 24  1  0  0  0
 22 23  2  0  0  0
 19  3  1  0  0  0
 51 53  2  0  0  0
 51 55  1  0  0  0
 52 54  1  0  0  0
 52 55  2  0  0  0
 53 56  1  0  0  0
 54 56  2  0  0  0
 27 28  2  0  0  0
 27 23  1  0  0  0
 28 30  2  0  0  0
 23 25  1  0  0  0
 44 42  1  0  0  0
  1  2  1  0  0  0
  1 31  1  0  0  0
 57 55  1  0  0  0
  2  3  1  0  0  0
 31 33  1  0  0  0
 29 30  1  0  0  0
 50 56  1  0  0  0
 50 33  1  0  0  0
 14 15  1  0  0  0
 14  8  1  0  0  0
  5  6  1  0  0  0
  5  3  1  0  0  0
 18 15  1  0  0  0
  6  8  1  0  0  0
 37 33  1  0  0  0
 24 25  2  0  0  0
  8 12  1  0  0  0
 35 38  1  0  0  0
 32 34  1  0  0  0
 42 43  1  0  0  0
 14 16  1  0  0  0
  5  7  1  0  0  0
M  END
> <minimizedAffinity>
-8.97646

$$$$
