3JUO_AJD_A_500
  RCSB PDB12061709203D
Coordinates from PDB:3JUO:A:500 Model:1 without hydrogens
 17 18  0  0  0  0            999 V2000
   46.0170   -4.4040   93.0130   O 0  0  0  0  0  0  0  0  0  0  0  0
   44.0180   -4.2730   92.3020   O 0  0  0  0  0  0  0  0  0  0  0  0
   48.3370    0.3930   93.7750  Br 0  0  0  0  0  0  0  0  0  0  0  0
   45.3940    0.4840   93.4910   C 0  0  0  0  0  0  0  0  0  0  0  0
   44.1290   -0.0540   93.2690   C 0  0  0  0  0  0  0  0  0  0  0  0
   46.4280   -1.7090   93.2330   C 0  0  0  0  0  0  0  0  0  0  0  0
   39.1160   -1.6360   92.4640   C 0  0  0  0  0  0  0  0  0  0  0  0
   39.0140   -0.8880   91.1380   C 0  0  0  0  0  0  0  0  0  0  0  0
   40.4580   -2.3450   92.5620   C 0  0  0  0  0  0  0  0  0  0  0  0
   41.4870   -0.4080   91.3180   C 0  0  0  0  0  0  0  0  0  0  0  0
   40.1170    0.0840   91.0420   N 0  0  0  0  0  0  0  0  0  0  0  0
   42.8190   -2.0130   92.7670   N 0  0  0  0  0  0  0  0  0  0  0  0
   45.0580   -3.7380   92.7210   C 0  0  0  0  0  0  0  0  0  0  0  0
   46.5510   -0.3440   93.4730   C 0  0  0  0  0  0  0  0  0  0  0  0
   44.0050   -1.4420   93.0160   C 0  0  0  0  0  0  0  0  0  0  0  0
   45.1560   -2.2510   92.9810   C 0  0  0  0  0  0  0  0  0  0  0  0
   41.5260   -1.2890   92.6450   C 0  0  0  0  0  0  0  0  0  0  0  0
  1 13  1  0  0  0  0
  2 13  2  0  0  0  0
  3 14  1  0  0  0  0
  4  5  2  0  0  0  0
  4 14  1  0  0  0  0
  5 15  1  0  0  0  0
  6 14  2  0  0  0  0
  6 16  1  0  0  0  0
  7  8  1  0  0  0  0
  7  9  1  0  0  0  0
  8 11  1  0  0  0  0
  9 17  1  0  0  0  0
 10 11  1  0  0  0  0
 10 17  1  0  0  0  0
 12 15  1  0  0  0  0
 12 17  1  0  0  0  0
 13 16  1  0  0  0  0
 15 16  2  0  0  0  0
A    1
OAA
A    2
OAB
A    3
BRAC
A    4
CAD
A    5
CAE
A    6
CAF
A    7
CAG
A    8
CAH
A    9
CAI
A   10
CAJ
A   11
NAK
A   12
NAL
A   13
CAM
A   14
CAN
A   15
CAO
A   16
CAP
A   17
CAQ
M  END
>  <InstanceId>
3JUO_AJD_A_500

>  <ChemCompId>
AJD

>  <PdbId>
3JUO

>  <ChainId>
A

>  <ResidueNumber>
500

>  <InsertionCode>


>  <Model>
1

>  <AltIds>


>  <MissingHeavyAtoms>
0

>  <ObservedFormula>
C12 N2 O2 Br

>  <Name>
5-bromo-2-[(3R)-piperidin-3-ylamino]benzoic acid

>  <SystematicName>
5-bromo-2-[[(3R)-piperidin-3-yl]amino]benzoic acid

>  <Synonyms>


>  <Type>
NON-POLYMER

>  <Formula>
C12 H15 Br N2 O2

>  <MolecularWeight>
299.164

>  <ModifiedDate>
2011-06-04

>  <Parent>


>  <OneLetterCode>


>  <SubcomponentList>


>  <AmbiguousFlag>
N

>  <InChI>
InChI=1S/C12H15BrN2O2/c13-8-3-4-11(10(6-8)12(16)17)15-9-2-1-5-14-7-9/h3-4,6,9,14-15H,1-2,5,7H2,(H,16,17)/t9-/m1/s1

>  <InChIKey>
DFYNENBDVWMLFE-SECBINFHSA-N

>  <SMILES>
c1cc(c(cc1Br)C(=O)O)N[C@@H]2CCCNC2

$$$$
