2PYN_1UN_A_1001


 44 47  0  0  0  0  0  0  0  0999 V2000
   -9.8460   17.1898   27.1704 C   0  0  0  0  0  0  0  0  0  0  0  0
  -10.1661   18.5639   26.9542 O   0  0  0  0  0  0  0  0  0  0  0  0
   -9.6803   19.1129   27.5894 H   0  0  0  0  0  0  0  0  0  0  0  0
  -10.2900   16.7549   28.5642 C   0  0  0  0  0  0  0  0  0  0  0  0
  -12.6652   13.9872   27.5746 C   0  0  0  0  0  0  0  0  0  0  0  0
  -12.7509   13.2302   28.9138 C   0  0  0  0  0  0  0  0  0  0  0  0
  -13.1031   11.7450   28.7637 C   0  0  0  0  0  0  0  0  0  0  0  0
  -12.3120   11.0738   27.6379 C   0  0  0  0  0  0  0  0  0  0  0  0
  -12.5045   11.8363   26.3354 C   0  0  0  0  0  0  0  0  0  0  0  0
  -11.9119   13.2347   26.4763 C   0  0  0  0  0  0  0  0  0  0  0  0
  -10.8030   15.3782   28.4910 N   0  0  0  0  0  0  0  0  0  0  0  0
  -11.0398   14.8135   29.8326 C   0  0  0  0  0  0  0  0  0  0  0  0
  -11.4592   13.3504   29.7252 C   0  0  0  0  0  0  0  0  0  0  0  0
  -12.0546   15.3834   27.7088 C   0  0  0  0  0  0  0  0  0  0  0  0
   -9.7900   14.8362   30.6586 C   0  0  0  0  0  0  0  0  0  0  0  0
   -9.8813   15.4790   31.8212 N   0  0  0  0  0  0  0  0  0  0  0  0
   -8.7993   14.2585   30.2475 O   0  0  0  0  0  0  0  0  0  0  0  0
  -10.7508   15.8746   32.0593 H   0  0  0  0  0  0  0  0  0  0  0  0
   -8.7789   15.6376   32.7682 C   0  0  0  0  0  0  0  0  0  0  0  0
   -7.7535   16.6026   32.1858 C   0  0  0  0  0  0  0  0  0  0  0  0
   -8.1543   14.2860   33.0764 C   0  0  0  0  0  0  0  0  0  0  0  0
   -9.3228   16.1840   34.0797 C   0  0  0  0  0  0  0  0  0  0  0  0
   -8.3604   16.9430   26.9215 C   0  0  0  0  0  0  0  0  0  0  0  0
   -8.1290   17.1383   25.5119 N   0  0  0  0  0  0  0  0  0  0  0  0
   -7.5827   16.2229   24.7145 C   0  0  0  0  0  0  0  0  0  0  0  0
   -7.2528   15.1037   25.0853 O   0  0  0  0  0  0  0  0  0  0  0  0
   -8.3909   18.0005   25.1151 H   0  0  0  0  0  0  0  0  0  0  0  0
   -7.3503   16.6352   23.2939 C   0  0  0  0  0  0  0  0  0  0  0  0
   -6.1940   17.3529   22.9562 C   0  0  0  0  0  0  0  0  0  0  0  0
   -5.9575   17.7550   21.6390 C   0  0  0  0  0  0  0  0  0  0  0  0
   -6.8603   17.4642   20.6116 C   0  0  0  0  0  0  0  0  0  0  0  0
   -8.0357   16.7549   20.8619 C   0  0  0  0  0  0  0  0  0  0  0  0
   -8.3401   16.3069   22.2386 C   0  0  0  0  0  0  0  0  0  0  0  0
   -8.9056   16.4754   19.8555 O   0  0  0  0  0  0  0  0  0  0  0  0
   -9.6011   15.5336   22.5435 C   0  0  0  0  0  0  0  0  0  0  0  0
   -8.7174   16.7569   18.9819 H   0  0  0  0  0  0  0  0  0  0  0  0
   -7.4496   17.8707   27.7264 C   0  0  0  0  0  0  0  0  0  0  0  0
   -5.8580   17.1286   27.8933 S   0  0  0  0  0  0  0  0  0  0  0  0
   -4.8681   17.7601   26.6636 C   0  0  0  0  0  0  0  0  0  0  0  0
   -5.0341   19.0848   26.2548 C   0  0  0  0  0  0  0  0  0  0  0  0
   -4.2354   19.6176   25.2438 C   0  0  0  0  0  0  0  0  0  0  0  0
   -3.2648   18.8272   24.6351 C   0  0  0  0  0  0  0  0  0  0  0  0
   -3.0907   17.5063   25.0409 C   0  0  0  0  0  0  0  0  0  0  0  0
   -3.8933   16.9745   26.0503 C   0  0  0  0  0  0  0  0  0  0  0  0
  5  6  1  0  0  0
  5 10  1  0  0  0
  5 14  1  0  0  0
  6  7  1  0  0  0
  6 13  1  0  0  0
  7  8  1  0  0  0
  8  9  1  0  0  0
  9 10  1  0  0  0
 11 12  1  0  0  0
 11 14  1  0  0  0
 11  4  1  0  0  0
 12 13  1  0  0  0
 12 15  1  0  0  0
 15 16  1  0  0  0
 15 17  2  0  0  0
 16 19  1  0  0  0
 19 20  1  0  0  0
 19 21  1  0  0  0
 19 22  1  0  0  0
  4  1  1  0  0  0
  1 23  1  0  0  0
  1  2  1  0  0  0
 23 24  1  0  0  0
 23 37  1  0  0  0
 24 25  1  0  0  0
 37 38  1  0  0  0
 25 26  2  0  0  0
 25 28  1  0  0  0
 28 29  2  0  0  0
 28 33  1  0  0  0
 29 30  1  0  0  0
 30 31  2  0  0  0
 31 32  1  0  0  0
 32 33  2  0  0  0
 32 34  1  0  0  0
 33 35  1  0  0  0
 38 39  1  0  0  0
 39 40  2  0  0  0
 39 44  1  0  0  0
 40 41  1  0  0  0
 41 42  2  0  0  0
 42 43  1  0  0  0
 43 44  2  0  0  0
 16 18  1  0  0  0
  2  3  1  0  0  0
 24 27  1  0  0  0
 34 36  1  0  0  0
M  END
> <minimizedAffinity>
-11.41712

$$$$
2PYN_1UN_A_1001


 44 47  0  0  0  0  0  0  0  0999 V2000
   -9.9617   17.1491   27.4231 C   0  0  0  0  0  0  0  0  0  0  0  0
  -11.0079   18.1002   27.6187 O   0  0  0  0  0  0  0  0  0  0  0  0
  -11.7195   17.9337   26.9809 H   0  0  0  0  0  0  0  0  0  0  0  0
   -9.3563   17.3056   26.0310 C   0  0  0  0  0  0  0  0  0  0  0  0
   -5.7597   17.9148   27.0183 C   0  0  0  0  0  0  0  0  0  0  0  0
   -5.0664   17.5851   25.6824 C   0  0  0  0  0  0  0  0  0  0  0  0
   -3.6134   17.1195   25.8377 C   0  0  0  0  0  0  0  0  0  0  0  0
   -3.4492   16.1050   26.9724 C   0  0  0  0  0  0  0  0  0  0  0  0
   -4.0032   16.6753   28.2696 C   0  0  0  0  0  0  0  0  0  0  0  0
   -5.5064   16.8904   28.1257 C   0  0  0  0  0  0  0  0  0  0  0  0
   -7.9127   17.0330   26.1077 N   0  0  0  0  0  0  0  0  0  0  0  0
   -7.3059   16.9320   24.7674 C   0  0  0  0  0  0  0  0  0  0  0  0
   -5.8369   16.5350   24.8794 C   0  0  0  0  0  0  0  0  0  0  0  0
   -7.2703   18.1135   26.8812 C   0  0  0  0  0  0  0  0  0  0  0  0
   -7.9713   15.8672   23.9500 C   0  0  0  0  0  0  0  0  0  0  0  0
   -8.4469   16.2616   22.7704 N   0  0  0  0  0  0  0  0  0  0  0  0
   -8.0128   14.7292   24.3830 O   0  0  0  0  0  0  0  0  0  0  0  0
   -8.3181   17.2038   22.5159 H   0  0  0  0  0  0  0  0  0  0  0  0
   -9.1474   15.3912   21.8274 C   0  0  0  0  0  0  0  0  0  0  0  0
  -10.4925   14.9904   22.4204 C   0  0  0  0  0  0  0  0  0  0  0  0
   -8.2972   14.1714   21.5094 C   0  0  0  0  0  0  0  0  0  0  0  0
   -9.3564   16.1391   20.5193 C   0  0  0  0  0  0  0  0  0  0  0  0
  -10.4705   15.7347   27.6888 C   0  0  0  0  0  0  0  0  0  0  0  0
  -10.7472   15.6425   29.1007 N   0  0  0  0  0  0  0  0  0  0  0  0
  -10.1863   14.7475   29.9111 C   0  0  0  0  0  0  0  0  0  0  0  0
   -9.3475   13.9315   29.5512 O   0  0  0  0  0  0  0  0  0  0  0  0
  -11.3895   16.2797   29.4889 H   0  0  0  0  0  0  0  0  0  0  0  0
  -10.6559   14.7549   31.3330 C   0  0  0  0  0  0  0  0  0  0  0  0
  -11.8617   14.1251   31.6724 C   0  0  0  0  0  0  0  0  0  0  0  0
  -12.3249   14.1239   32.9909 C   0  0  0  0  0  0  0  0  0  0  0  0
  -11.6120   14.7504   34.0176 C   0  0  0  0  0  0  0  0  0  0  0  0
  -10.4033   15.4008   33.7655 C   0  0  0  0  0  0  0  0  0  0  0  0
   -9.8663   15.4371   32.3876 C   0  0  0  0  0  0  0  0  0  0  0  0
   -9.7170   16.0049   34.7714 O   0  0  0  0  0  0  0  0  0  0  0  0
   -8.5591   16.1287   32.0806 C   0  0  0  0  0  0  0  0  0  0  0  0
  -10.0529   15.9847   35.6458 H   0  0  0  0  0  0  0  0  0  0  0  0
  -11.7286   15.3849   26.8933 C   0  0  0  0  0  0  0  0  0  0  0  0
  -11.8696   13.6314   26.7619 S   0  0  0  0  0  0  0  0  0  0  0  0
  -12.8985   13.1063   28.0095 C   0  0  0  0  0  0  0  0  0  0  0  0
  -13.9756   13.9049   28.3989 C   0  0  0  0  0  0  0  0  0  0  0  0
  -14.8262   13.4931   29.4240 C   0  0  0  0  0  0  0  0  0  0  0  0
  -14.6038   12.2785   30.0663 C   0  0  0  0  0  0  0  0  0  0  0  0
  -13.5340   11.4748   29.6800 C   0  0  0  0  0  0  0  0  0  0  0  0
  -12.6824   11.8906   28.6564 C   0  0  0  0  0  0  0  0  0  0  0  0
  5  6  1  0  0  0
  5 10  1  0  0  0
  5 14  1  0  0  0
  6  7  1  0  0  0
  6 13  1  0  0  0
  7  8  1  0  0  0
  8  9  1  0  0  0
  9 10  1  0  0  0
 11 12  1  0  0  0
 11 14  1  0  0  0
 11  4  1  0  0  0
 12 13  1  0  0  0
 12 15  1  0  0  0
 15 16  1  0  0  0
 15 17  2  0  0  0
 16 19  1  0  0  0
 19 20  1  0  0  0
 19 21  1  0  0  0
 19 22  1  0  0  0
  4  1  1  0  0  0
  1 23  1  0  0  0
  1  2  1  0  0  0
 23 24  1  0  0  0
 23 37  1  0  0  0
 24 25  1  0  0  0
 37 38  1  0  0  0
 25 26  2  0  0  0
 25 28  1  0  0  0
 28 29  2  0  0  0
 28 33  1  0  0  0
 29 30  1  0  0  0
 30 31  2  0  0  0
 31 32  1  0  0  0
 32 33  2  0  0  0
 32 34  1  0  0  0
 33 35  1  0  0  0
 38 39  1  0  0  0
 39 40  2  0  0  0
 39 44  1  0  0  0
 40 41  1  0  0  0
 41 42  2  0  0  0
 42 43  1  0  0  0
 43 44  2  0  0  0
 16 18  1  0  0  0
  2  3  1  0  0  0
 24 27  1  0  0  0
 34 36  1  0  0  0
M  END
> <minimizedAffinity>
-11.40666

$$$$
2PYN_1UN_A_1001


 44 47  0  0  0  0  0  0  0  0999 V2000
   -8.4300   14.7499   28.6384 C   0  0  0  0  0  0  0  0  0  0  0  0
   -7.9139   13.7793   27.7279 O   0  0  0  0  0  0  0  0  0  0  0  0
   -7.5370   14.2289   26.9554 H   0  0  0  0  0  0  0  0  0  0  0  0
   -9.5626   15.5385   27.9870 C   0  0  0  0  0  0  0  0  0  0  0  0
   -9.1222   16.1448   24.2829 C   0  0  0  0  0  0  0  0  0  0  0  0
  -10.4437   15.5453   23.7649 C   0  0  0  0  0  0  0  0  0  0  0  0
  -10.3711   15.0469   22.3162 C   0  0  0  0  0  0  0  0  0  0  0  0
   -9.0938   14.2486   22.0424 C   0  0  0  0  0  0  0  0  0  0  0  0
   -7.8708   15.0708   22.4207 C   0  0  0  0  0  0  0  0  0  0  0  0
   -7.8799   15.3276   23.9242 C   0  0  0  0  0  0  0  0  0  0  0  0
   -9.6016   15.2160   26.5522 N   0  0  0  0  0  0  0  0  0  0  0  0
  -10.9599   14.8445   26.1146 C   0  0  0  0  0  0  0  0  0  0  0  0
  -10.9443   14.4048   24.6536 C   0  0  0  0  0  0  0  0  0  0  0  0
   -9.1208   16.3871   25.7933 C   0  0  0  0  0  0  0  0  0  0  0  0
  -11.4839   13.6818   26.9011 C   0  0  0  0  0  0  0  0  0  0  0  0
  -12.6567   13.8758   27.5010 N   0  0  0  0  0  0  0  0  0  0  0  0
  -10.8424   12.6463   26.9233 O   0  0  0  0  0  0  0  0  0  0  0  0
  -13.0967   14.7477   27.3766 H   0  0  0  0  0  0  0  0  0  0  0  0
  -13.3359   12.8828   28.3316 C   0  0  0  0  0  0  0  0  0  0  0  0
  -12.4686   12.5666   29.5439 C   0  0  0  0  0  0  0  0  0  0  0  0
  -13.6285   11.6315   27.5189 C   0  0  0  0  0  0  0  0  0  0  0  0
  -14.6769   13.4424   28.7819 C   0  0  0  0  0  0  0  0  0  0  0  0
   -7.3078   15.6471   29.1538 C   0  0  0  0  0  0  0  0  0  0  0  0
   -6.5569   16.0883   28.0048 N   0  0  0  0  0  0  0  0  0  0  0  0
   -5.3432   16.6310   28.0738 C   0  0  0  0  0  0  0  0  0  0  0  0
   -4.7196   16.7789   29.1169 O   0  0  0  0  0  0  0  0  0  0  0  0
   -6.9663   15.9819   27.1158 H   0  0  0  0  0  0  0  0  0  0  0  0
   -4.7522   17.0992   26.7801 C   0  0  0  0  0  0  0  0  0  0  0  0
   -3.6551   16.4221   26.2289 C   0  0  0  0  0  0  0  0  0  0  0  0
   -3.0815   16.8435   25.0264 C   0  0  0  0  0  0  0  0  0  0  0  0
   -3.5718   17.9528   24.3306 C   0  0  0  0  0  0  0  0  0  0  0  0
   -4.6599   18.6832   24.8100 C   0  0  0  0  0  0  0  0  0  0  0  0
   -5.3050   18.2851   26.0804 C   0  0  0  0  0  0  0  0  0  0  0  0
   -5.1302   19.7587   24.1247 O   0  0  0  0  0  0  0  0  0  0  0  0
   -6.4871   19.0510   26.6255 C   0  0  0  0  0  0  0  0  0  0  0  0
   -4.7251   20.0150   23.3196 H   0  0  0  0  0  0  0  0  0  0  0  0
   -7.8134   16.8600   29.9356 C   0  0  0  0  0  0  0  0  0  0  0  0
   -7.4168   16.6630   31.6432 S   0  0  0  0  0  0  0  0  0  0  0  0
   -8.6016   15.6556   32.3303 C   0  0  0  0  0  0  0  0  0  0  0  0
   -8.2697   14.8365   33.4113 C   0  0  0  0  0  0  0  0  0  0  0  0
   -9.2268   13.9996   33.9836 C   0  0  0  0  0  0  0  0  0  0  0  0
  -10.5231   13.9773   33.4771 C   0  0  0  0  0  0  0  0  0  0  0  0
  -10.8623   14.7949   32.4019 C   0  0  0  0  0  0  0  0  0  0  0  0
   -9.9020   15.6289   31.8288 C   0  0  0  0  0  0  0  0  0  0  0  0
  5  6  1  0  0  0
  5 10  1  0  0  0
  5 14  1  0  0  0
  6  7  1  0  0  0
  6 13  1  0  0  0
  7  8  1  0  0  0
  8  9  1  0  0  0
  9 10  1  0  0  0
 11 12  1  0  0  0
 11 14  1  0  0  0
 11  4  1  0  0  0
 12 13  1  0  0  0
 12 15  1  0  0  0
 15 16  1  0  0  0
 15 17  2  0  0  0
 16 19  1  0  0  0
 19 20  1  0  0  0
 19 21  1  0  0  0
 19 22  1  0  0  0
  4  1  1  0  0  0
  1 23  1  0  0  0
  1  2  1  0  0  0
 23 24  1  0  0  0
 23 37  1  0  0  0
 24 25  1  0  0  0
 37 38  1  0  0  0
 25 26  2  0  0  0
 25 28  1  0  0  0
 28 29  2  0  0  0
 28 33  1  0  0  0
 29 30  1  0  0  0
 30 31  2  0  0  0
 31 32  1  0  0  0
 32 33  2  0  0  0
 32 34  1  0  0  0
 33 35  1  0  0  0
 38 39  1  0  0  0
 39 40  2  0  0  0
 39 44  1  0  0  0
 40 41  1  0  0  0
 41 42  2  0  0  0
 42 43  1  0  0  0
 43 44  2  0  0  0
 16 18  1  0  0  0
  2  3  1  0  0  0
 24 27  1  0  0  0
 34 36  1  0  0  0
M  END
> <minimizedAffinity>
-10.96384

$$$$
2PYN_1UN_A_1001


 44 47  0  0  0  0  0  0  0  0999 V2000
   -8.4745   14.5817   25.9392 C   0  0  0  0  0  0  0  0  0  0  0  0
   -7.9875   13.6395   26.8945 O   0  0  0  0  0  0  0  0  0  0  0  0
   -8.5887   13.6102   27.6551 H   0  0  0  0  0  0  0  0  0  0  0  0
   -8.4976   15.9837   26.5415 C   0  0  0  0  0  0  0  0  0  0  0  0
   -9.3458   15.9221   30.2237 C   0  0  0  0  0  0  0  0  0  0  0  0
   -8.2127   16.8157   30.7639 C   0  0  0  0  0  0  0  0  0  0  0  0
   -7.8481   16.5356   32.2272 C   0  0  0  0  0  0  0  0  0  0  0  0
   -7.7486   15.0366   32.5218 C   0  0  0  0  0  0  0  0  0  0  0  0
   -9.0363   14.3359   32.1146 C   0  0  0  0  0  0  0  0  0  0  0  0
   -9.2156   14.4462   30.6039 C   0  0  0  0  0  0  0  0  0  0  0  0
   -8.2357   15.8843   27.9857 N   0  0  0  0  0  0  0  0  0  0  0  0
   -7.2845   16.9161   28.4387 C   0  0  0  0  0  0  0  0  0  0  0  0
   -6.9455   16.7139   29.9125 C   0  0  0  0  0  0  0  0  0  0  0  0
   -9.5169   16.0163   28.7065 C   0  0  0  0  0  0  0  0  0  0  0  0
   -5.9898   16.8259   27.6900 C   0  0  0  0  0  0  0  0  0  0  0  0
   -5.6304   17.9247   27.0292 N   0  0  0  0  0  0  0  0  0  0  0  0
   -5.3434   15.7949   27.7495 O   0  0  0  0  0  0  0  0  0  0  0  0
   -6.2216   18.7096   27.0891 H   0  0  0  0  0  0  0  0  0  0  0  0
   -4.4181   18.0453   26.2210 C   0  0  0  0  0  0  0  0  0  0  0  0
   -4.5201   17.1094   25.0229 C   0  0  0  0  0  0  0  0  0  0  0  0
   -3.1925   17.7327   27.0648 C   0  0  0  0  0  0  0  0  0  0  0  0
   -4.2753   19.4840   25.7480 C   0  0  0  0  0  0  0  0  0  0  0  0
   -9.8377   14.1461   25.4080 C   0  0  0  0  0  0  0  0  0  0  0  0
  -10.6172   13.7179   26.5427 N   0  0  0  0  0  0  0  0  0  0  0  0
  -11.7261   12.9872   26.4495 C   0  0  0  0  0  0  0  0  0  0  0  0
  -12.1816   12.5691   25.3929 O   0  0  0  0  0  0  0  0  0  0  0  0
  -10.3110   13.9817   27.4404 H   0  0  0  0  0  0  0  0  0  0  0  0
  -12.4432   12.7044   27.7333 C   0  0  0  0  0  0  0  0  0  0  0  0
  -12.4371   11.4067   28.2643 C   0  0  0  0  0  0  0  0  0  0  0  0
  -13.1043   11.1159   29.4572 C   0  0  0  0  0  0  0  0  0  0  0  0
  -13.8045   12.0992   30.1627 C   0  0  0  0  0  0  0  0  0  0  0  0
  -13.8614   13.4157   29.7033 C   0  0  0  0  0  0  0  0  0  0  0  0
  -13.1765   13.7807   28.4439 C   0  0  0  0  0  0  0  0  0  0  0  0
  -14.5430   14.3646   30.3981 O   0  0  0  0  0  0  0  0  0  0  0  0
  -13.2145   15.1970   27.9205 C   0  0  0  0  0  0  0  0  0  0  0  0
  -14.9785   14.1385   31.1963 H   0  0  0  0  0  0  0  0  0  0  0  0
  -10.5795   15.2560   24.6626 C   0  0  0  0  0  0  0  0  0  0  0  0
  -10.6864   14.8420   22.9511 S   0  0  0  0  0  0  0  0  0  0  0  0
   -9.2198   15.2986   22.2221 C   0  0  0  0  0  0  0  0  0  0  0  0
   -8.4968   16.3753   22.7394 C   0  0  0  0  0  0  0  0  0  0  0  0
   -7.2953   16.7675   22.1509 C   0  0  0  0  0  0  0  0  0  0  0  0
   -6.8094   16.0839   21.0400 C   0  0  0  0  0  0  0  0  0  0  0  0
   -7.5231   15.0062   20.5214 C   0  0  0  0  0  0  0  0  0  0  0  0
   -8.7267   14.6179   21.1100 C   0  0  0  0  0  0  0  0  0  0  0  0
  5  6  1  0  0  0
  5 10  1  0  0  0
  5 14  1  0  0  0
  6  7  1  0  0  0
  6 13  1  0  0  0
  7  8  1  0  0  0
  8  9  1  0  0  0
  9 10  1  0  0  0
 11 12  1  0  0  0
 11 14  1  0  0  0
 11  4  1  0  0  0
 12 13  1  0  0  0
 12 15  1  0  0  0
 15 16  1  0  0  0
 15 17  2  0  0  0
 16 19  1  0  0  0
 19 20  1  0  0  0
 19 21  1  0  0  0
 19 22  1  0  0  0
  4  1  1  0  0  0
  1 23  1  0  0  0
  1  2  1  0  0  0
 23 24  1  0  0  0
 23 37  1  0  0  0
 24 25  1  0  0  0
 37 38  1  0  0  0
 25 26  2  0  0  0
 25 28  1  0  0  0
 28 29  2  0  0  0
 28 33  1  0  0  0
 29 30  1  0  0  0
 30 31  2  0  0  0
 31 32  1  0  0  0
 32 33  2  0  0  0
 32 34  1  0  0  0
 33 35  1  0  0  0
 38 39  1  0  0  0
 39 40  2  0  0  0
 39 44  1  0  0  0
 40 41  1  0  0  0
 41 42  2  0  0  0
 42 43  1  0  0  0
 43 44  2  0  0  0
 16 18  1  0  0  0
  2  3  1  0  0  0
 24 27  1  0  0  0
 34 36  1  0  0  0
M  END
> <minimizedAffinity>
-10.95491

$$$$
2PYN_1UN_A_1001


 44 47  0  0  0  0  0  0  0  0999 V2000
  -10.6615   15.8763   27.5209 C   0  0  0  0  0  0  0  0  0  0  0  0
  -10.6575   16.9558   28.4548 O   0  0  0  0  0  0  0  0  0  0  0  0
   -9.7421   17.1960   28.6674 H   0  0  0  0  0  0  0  0  0  0  0  0
  -10.0092   14.6411   28.1355 C   0  0  0  0  0  0  0  0  0  0  0  0
   -7.9844   15.2287   31.2717 C   0  0  0  0  0  0  0  0  0  0  0  0
   -8.7397   14.3018   32.2435 C   0  0  0  0  0  0  0  0  0  0  0  0
   -8.6229   14.7201   33.7145 C   0  0  0  0  0  0  0  0  0  0  0  0
   -8.8147   16.2270   33.9043 C   0  0  0  0  0  0  0  0  0  0  0  0
   -7.8448   16.9945   33.0182 C   0  0  0  0  0  0  0  0  0  0  0  0
   -8.1728   16.7203   31.5541 C   0  0  0  0  0  0  0  0  0  0  0  0
   -9.7791   14.8885   29.5672 N   0  0  0  0  0  0  0  0  0  0  0  0
  -10.3761   13.8319   30.4050 C   0  0  0  0  0  0  0  0  0  0  0  0
  -10.2215   14.1770   31.8832 C   0  0  0  0  0  0  0  0  0  0  0  0
   -8.3243   14.9689   29.8031 C   0  0  0  0  0  0  0  0  0  0  0  0
  -11.8474   13.7055   30.1513 C   0  0  0  0  0  0  0  0  0  0  0  0
  -12.1993   12.7808   29.2600 N   0  0  0  0  0  0  0  0  0  0  0  0
  -12.6177   14.4128   30.7762 O   0  0  0  0  0  0  0  0  0  0  0  0
  -11.4834   12.2448   28.8484 H   0  0  0  0  0  0  0  0  0  0  0  0
  -13.5759   12.5070   28.8510 C   0  0  0  0  0  0  0  0  0  0  0  0
  -14.3489   11.9463   30.0384 C   0  0  0  0  0  0  0  0  0  0  0  0
  -13.5913   11.5427   27.6754 C   0  0  0  0  0  0  0  0  0  0  0  0
  -14.2205   13.7992   28.3726 C   0  0  0  0  0  0  0  0  0  0  0  0
  -10.0014   16.3015   26.2119 C   0  0  0  0  0  0  0  0  0  0  0  0
   -8.5782   16.1514   26.3870 N   0  0  0  0  0  0  0  0  0  0  0  0
   -7.7640   17.1438   26.7399 C   0  0  0  0  0  0  0  0  0  0  0  0
   -8.1421   18.2811   26.9898 O   0  0  0  0  0  0  0  0  0  0  0  0
   -8.1848   15.2615   26.2367 H   0  0  0  0  0  0  0  0  0  0  0  0
   -6.3043   16.8149   26.7970 C   0  0  0  0  0  0  0  0  0  0  0  0
   -5.6615   16.7081   28.0385 C   0  0  0  0  0  0  0  0  0  0  0  0
   -4.2989   16.4088   28.1182 C   0  0  0  0  0  0  0  0  0  0  0  0
   -3.5249   16.2096   26.9710 C   0  0  0  0  0  0  0  0  0  0  0  0
   -4.0861   16.2986   25.6964 C   0  0  0  0  0  0  0  0  0  0  0  0
   -5.5236   16.6163   25.5511 C   0  0  0  0  0  0  0  0  0  0  0  0
   -3.3252   16.1008   24.5875 O   0  0  0  0  0  0  0  0  0  0  0  0
   -6.1638   16.7159   24.1867 C   0  0  0  0  0  0  0  0  0  0  0  0
   -2.4143   15.8993   24.6741 H   0  0  0  0  0  0  0  0  0  0  0  0
  -10.4617   15.4800   25.0072 C   0  0  0  0  0  0  0  0  0  0  0  0
   -9.1378   14.4506   24.4600 S   0  0  0  0  0  0  0  0  0  0  0  0
   -8.8969   14.7635   22.8062 C   0  0  0  0  0  0  0  0  0  0  0  0
   -9.7918   15.5880   22.1215 C   0  0  0  0  0  0  0  0  0  0  0  0
   -9.6133   15.8508   20.7639 C   0  0  0  0  0  0  0  0  0  0  0  0
   -8.5372   15.2894   20.0827 C   0  0  0  0  0  0  0  0  0  0  0  0
   -7.6381   14.4696   20.7603 C   0  0  0  0  0  0  0  0  0  0  0  0
   -7.8208   14.2054   22.1178 C   0  0  0  0  0  0  0  0  0  0  0  0
  5  6  1  0  0  0
  5 10  1  0  0  0
  5 14  1  0  0  0
  6  7  1  0  0  0
  6 13  1  0  0  0
  7  8  1  0  0  0
  8  9  1  0  0  0
  9 10  1  0  0  0
 11 12  1  0  0  0
 11 14  1  0  0  0
 11  4  1  0  0  0
 12 13  1  0  0  0
 12 15  1  0  0  0
 15 16  1  0  0  0
 15 17  2  0  0  0
 16 19  1  0  0  0
 19 20  1  0  0  0
 19 21  1  0  0  0
 19 22  1  0  0  0
  4  1  1  0  0  0
  1 23  1  0  0  0
  1  2  1  0  0  0
 23 24  1  0  0  0
 23 37  1  0  0  0
 24 25  1  0  0  0
 37 38  1  0  0  0
 25 26  2  0  0  0
 25 28  1  0  0  0
 28 29  2  0  0  0
 28 33  1  0  0  0
 29 30  1  0  0  0
 30 31  2  0  0  0
 31 32  1  0  0  0
 32 33  2  0  0  0
 32 34  1  0  0  0
 33 35  1  0  0  0
 38 39  1  0  0  0
 39 40  2  0  0  0
 39 44  1  0  0  0
 40 41  1  0  0  0
 41 42  2  0  0  0
 42 43  1  0  0  0
 43 44  2  0  0  0
 16 18  1  0  0  0
  2  3  1  0  0  0
 24 27  1  0  0  0
 34 36  1  0  0  0
M  END
> <minimizedAffinity>
-10.66975

$$$$
2PYN_1UN_A_1001


 44 47  0  0  0  0  0  0  0  0999 V2000
  -10.2825   16.9399   26.8378 C   0  0  0  0  0  0  0  0  0  0  0  0
  -10.3278   18.3614   26.9591 O   0  0  0  0  0  0  0  0  0  0  0  0
   -9.4496   18.6931   27.2034 H   0  0  0  0  0  0  0  0  0  0  0  0
   -9.9245   16.3044   28.1784 C   0  0  0  0  0  0  0  0  0  0  0  0
  -13.0191   14.1725   27.7784 C   0  0  0  0  0  0  0  0  0  0  0  0
  -13.2668   13.7990   29.2526 C   0  0  0  0  0  0  0  0  0  0  0  0
  -14.0295   12.4812   29.4373 C   0  0  0  0  0  0  0  0  0  0  0  0
  -13.5015   11.3740   28.5213 C   0  0  0  0  0  0  0  0  0  0  0  0
  -13.5175   11.8398   27.0730 C   0  0  0  0  0  0  0  0  0  0  0  0
  -12.5493   13.0066   26.9068 C   0  0  0  0  0  0  0  0  0  0  0  0
  -10.8080   15.1508   28.4079 N   0  0  0  0  0  0  0  0  0  0  0  0
  -11.1461   14.9997   29.8354 C   0  0  0  0  0  0  0  0  0  0  0  0
  -11.9654   13.7313   30.0544 C   0  0  0  0  0  0  0  0  0  0  0  0
  -12.0345   15.3306   27.6068 C   0  0  0  0  0  0  0  0  0  0  0  0
   -9.9118   14.8565   30.6726 C   0  0  0  0  0  0  0  0  0  0  0  0
   -9.9003   15.5586   31.8039 N   0  0  0  0  0  0  0  0  0  0  0  0
   -9.0277   14.1064   30.2984 O   0  0  0  0  0  0  0  0  0  0  0  0
  -10.6942   16.1013   32.0148 H   0  0  0  0  0  0  0  0  0  0  0  0
   -8.7896   15.5789   32.7543 C   0  0  0  0  0  0  0  0  0  0  0  0
   -7.6541   16.4168   32.1795 C   0  0  0  0  0  0  0  0  0  0  0  0
   -8.3326   14.1606   33.0566 C   0  0  0  0  0  0  0  0  0  0  0  0
   -9.2678   16.1799   34.0675 C   0  0  0  0  0  0  0  0  0  0  0  0
   -9.3289   16.5305   25.7184 C   0  0  0  0  0  0  0  0  0  0  0  0
   -8.0001   16.9010   26.1375 N   0  0  0  0  0  0  0  0  0  0  0  0
   -6.9637   17.0125   25.3094 C   0  0  0  0  0  0  0  0  0  0  0  0
   -7.0365   16.8490   24.0984 O   0  0  0  0  0  0  0  0  0  0  0  0
   -7.8502   17.0825   27.0935 H   0  0  0  0  0  0  0  0  0  0  0  0
   -5.6434   17.3320   25.9396 C   0  0  0  0  0  0  0  0  0  0  0  0
   -4.6832   18.0557   25.2183 C   0  0  0  0  0  0  0  0  0  0  0  0
   -3.4412   18.3605   25.7817 C   0  0  0  0  0  0  0  0  0  0  0  0
   -3.1058   17.9551   27.0771 C   0  0  0  0  0  0  0  0  0  0  0  0
   -4.0032   17.2305   27.8626 C   0  0  0  0  0  0  0  0  0  0  0  0
   -5.3317   16.8762   27.3167 C   0  0  0  0  0  0  0  0  0  0  0  0
   -3.6680   16.8433   29.1217 O   0  0  0  0  0  0  0  0  0  0  0  0
   -6.3283   16.0966   28.1414 C   0  0  0  0  0  0  0  0  0  0  0  0
   -2.8277   17.0652   29.4720 H   0  0  0  0  0  0  0  0  0  0  0  0
   -9.3717   15.0348   25.4038 C   0  0  0  0  0  0  0  0  0  0  0  0
  -10.4871   14.7490   24.0674 S   0  0  0  0  0  0  0  0  0  0  0  0
   -9.6001   14.8850   22.6232 C   0  0  0  0  0  0  0  0  0  0  0  0
  -10.0504   15.7378   21.6135 C   0  0  0  0  0  0  0  0  0  0  0  0
   -9.3391   15.8573   20.4203 C   0  0  0  0  0  0  0  0  0  0  0  0
   -8.1719   15.1235   20.2301 C   0  0  0  0  0  0  0  0  0  0  0  0
   -7.7145   14.2742   21.2348 C   0  0  0  0  0  0  0  0  0  0  0  0
   -8.4297   14.1538   22.4264 C   0  0  0  0  0  0  0  0  0  0  0  0
  5  6  1  0  0  0
  5 10  1  0  0  0
  5 14  1  0  0  0
  6  7  1  0  0  0
  6 13  1  0  0  0
  7  8  1  0  0  0
  8  9  1  0  0  0
  9 10  1  0  0  0
 11 12  1  0  0  0
 11 14  1  0  0  0
 11  4  1  0  0  0
 12 13  1  0  0  0
 12 15  1  0  0  0
 15 16  1  0  0  0
 15 17  2  0  0  0
 16 19  1  0  0  0
 19 20  1  0  0  0
 19 21  1  0  0  0
 19 22  1  0  0  0
  4  1  1  0  0  0
  1 23  1  0  0  0
  1  2  1  0  0  0
 23 24  1  0  0  0
 23 37  1  0  0  0
 24 25  1  0  0  0
 37 38  1  0  0  0
 25 26  2  0  0  0
 25 28  1  0  0  0
 28 29  2  0  0  0
 28 33  1  0  0  0
 29 30  1  0  0  0
 30 31  2  0  0  0
 31 32  1  0  0  0
 32 33  2  0  0  0
 32 34  1  0  0  0
 33 35  1  0  0  0
 38 39  1  0  0  0
 39 40  2  0  0  0
 39 44  1  0  0  0
 40 41  1  0  0  0
 41 42  2  0  0  0
 42 43  1  0  0  0
 43 44  2  0  0  0
 16 18  1  0  0  0
  2  3  1  0  0  0
 24 27  1  0  0  0
 34 36  1  0  0  0
M  END
> <minimizedAffinity>
-10.52710

$$$$
2PYN_1UN_A_1001


 44 47  0  0  0  0  0  0  0  0999 V2000
   -8.7581   16.2841   27.8329 C   0  0  0  0  0  0  0  0  0  0  0  0
   -8.8549   17.3195   28.8107 O   0  0  0  0  0  0  0  0  0  0  0  0
   -8.0556   17.3210   29.3602 H   0  0  0  0  0  0  0  0  0  0  0  0
   -8.6829   14.9192   28.5116 C   0  0  0  0  0  0  0  0  0  0  0  0
  -11.9773   13.8822   26.9778 C   0  0  0  0  0  0  0  0  0  0  0  0
  -12.9247   14.2319   28.1416 C   0  0  0  0  0  0  0  0  0  0  0  0
  -14.2185   13.4083   28.1551 C   0  0  0  0  0  0  0  0  0  0  0  0
  -13.9608   11.9220   27.8942 C   0  0  0  0  0  0  0  0  0  0  0  0
  -13.1894   11.7440   26.5949 C   0  0  0  0  0  0  0  0  0  0  0  0
  -11.8106   12.3812   26.7346 C   0  0  0  0  0  0  0  0  0  0  0  0
  -10.0130   14.2926   28.4662 N   0  0  0  0  0  0  0  0  0  0  0  0
  -10.9095   14.8429   29.4997 C   0  0  0  0  0  0  0  0  0  0  0  0
  -12.2385   14.0934   29.5021 C   0  0  0  0  0  0  0  0  0  0  0  0
  -10.5876   14.5047   27.1233 C   0  0  0  0  0  0  0  0  0  0  0  0
  -10.3257   14.6745   30.8693 C   0  0  0  0  0  0  0  0  0  0  0  0
   -9.5182   15.6528   31.2739 N   0  0  0  0  0  0  0  0  0  0  0  0
  -10.6356   13.6973   31.5276 O   0  0  0  0  0  0  0  0  0  0  0  0
   -9.3750   16.4114   30.6629 H   0  0  0  0  0  0  0  0  0  0  0  0
   -8.8297   15.6779   32.5634 C   0  0  0  0  0  0  0  0  0  0  0  0
   -9.8593   15.8182   33.6779 C   0  0  0  0  0  0  0  0  0  0  0  0
   -7.8201   16.8143   32.5964 C   0  0  0  0  0  0  0  0  0  0  0  0
   -8.0474   14.3848   32.7362 C   0  0  0  0  0  0  0  0  0  0  0  0
   -7.5799   16.5427   26.8975 C   0  0  0  0  0  0  0  0  0  0  0  0
   -8.1011   16.5541   25.5533 N   0  0  0  0  0  0  0  0  0  0  0  0
   -8.0555   15.5093   24.7295 C   0  0  0  0  0  0  0  0  0  0  0  0
   -7.5999   14.4157   25.0383 O   0  0  0  0  0  0  0  0  0  0  0  0
   -8.5157   17.3845   25.2248 H   0  0  0  0  0  0  0  0  0  0  0  0
   -8.5780   15.7341   23.3444 C   0  0  0  0  0  0  0  0  0  0  0  0
   -9.7842   15.1388   22.9488 C   0  0  0  0  0  0  0  0  0  0  0  0
  -10.2894   15.3278   21.6597 C   0  0  0  0  0  0  0  0  0  0  0  0
   -9.6150   16.1092   20.7165 C   0  0  0  0  0  0  0  0  0  0  0  0
   -8.4080   16.7365   21.0281 C   0  0  0  0  0  0  0  0  0  0  0  0
   -7.8238   16.5687   22.3769 C   0  0  0  0  0  0  0  0  0  0  0  0
   -7.7615   17.4959   20.1046 O   0  0  0  0  0  0  0  0  0  0  0  0
   -6.5213   17.2369   22.7486 C   0  0  0  0  0  0  0  0  0  0  0  0
   -8.1273   17.6053   19.2489 H   0  0  0  0  0  0  0  0  0  0  0  0
   -6.8595   17.8610   27.1819 C   0  0  0  0  0  0  0  0  0  0  0  0
   -5.2000   17.5263   27.6779 S   0  0  0  0  0  0  0  0  0  0  0  0
   -4.2414   17.5038   26.2737 C   0  0  0  0  0  0  0  0  0  0  0  0
   -3.7397   16.2904   25.7990 C   0  0  0  0  0  0  0  0  0  0  0  0
   -2.9471   16.2537   24.6525 C   0  0  0  0  0  0  0  0  0  0  0  0
   -2.6514   17.4322   23.9736 C   0  0  0  0  0  0  0  0  0  0  0  0
   -3.1522   18.6457   24.4390 C   0  0  0  0  0  0  0  0  0  0  0  0
   -3.9422   18.6802   25.5882 C   0  0  0  0  0  0  0  0  0  0  0  0
  5  6  1  0  0  0
  5 10  1  0  0  0
  5 14  1  0  0  0
  6  7  1  0  0  0
  6 13  1  0  0  0
  7  8  1  0  0  0
  8  9  1  0  0  0
  9 10  1  0  0  0
 11 12  1  0  0  0
 11 14  1  0  0  0
 11  4  1  0  0  0
 12 13  1  0  0  0
 12 15  1  0  0  0
 15 16  1  0  0  0
 15 17  2  0  0  0
 16 19  1  0  0  0
 19 20  1  0  0  0
 19 21  1  0  0  0
 19 22  1  0  0  0
  4  1  1  0  0  0
  1 23  1  0  0  0
  1  2  1  0  0  0
 23 24  1  0  0  0
 23 37  1  0  0  0
 24 25  1  0  0  0
 37 38  1  0  0  0
 25 26  2  0  0  0
 25 28  1  0  0  0
 28 29  2  0  0  0
 28 33  1  0  0  0
 29 30  1  0  0  0
 30 31  2  0  0  0
 31 32  1  0  0  0
 32 33  2  0  0  0
 32 34  1  0  0  0
 33 35  1  0  0  0
 38 39  1  0  0  0
 39 40  2  0  0  0
 39 44  1  0  0  0
 40 41  1  0  0  0
 41 42  2  0  0  0
 42 43  1  0  0  0
 43 44  2  0  0  0
 16 18  1  0  0  0
  2  3  1  0  0  0
 24 27  1  0  0  0
 34 36  1  0  0  0
M  END
> <minimizedAffinity>
-10.52455

$$$$
2PYN_1UN_A_1001


 44 47  0  0  0  0  0  0  0  0999 V2000
   -8.8411   15.1692   27.2038 C   0  0  0  0  0  0  0  0  0  0  0  0
   -7.6739   14.3954   26.9272 O   0  0  0  0  0  0  0  0  0  0  0  0
   -6.8856   14.8910   27.1987 H   0  0  0  0  0  0  0  0  0  0  0  0
   -8.8261   16.4605   26.3905 C   0  0  0  0  0  0  0  0  0  0  0  0
   -5.5605   18.3473   26.6298 C   0  0  0  0  0  0  0  0  0  0  0  0
   -5.2510   18.5177   25.1300 C   0  0  0  0  0  0  0  0  0  0  0  0
   -3.7567   18.6715   24.8202 C   0  0  0  0  0  0  0  0  0  0  0  0
   -2.8989   17.6678   25.5949 C   0  0  0  0  0  0  0  0  0  0  0  0
   -3.1826   17.7768   27.0858 C   0  0  0  0  0  0  0  0  0  0  0  0
   -4.6291   17.3748   27.3555 C   0  0  0  0  0  0  0  0  0  0  0  0
   -7.4330   16.7954   26.0572 N   0  0  0  0  0  0  0  0  0  0  0  0
   -7.2817   17.1373   24.6307 C   0  0  0  0  0  0  0  0  0  0  0  0
   -5.8113   17.3655   24.2935 C   0  0  0  0  0  0  0  0  0  0  0  0
   -7.0055   17.9266   26.9035 C   0  0  0  0  0  0  0  0  0  0  0  0
   -7.7487   16.0169   23.7523 C   0  0  0  0  0  0  0  0  0  0  0  0
   -8.5163   16.3743   22.7246 N   0  0  0  0  0  0  0  0  0  0  0  0
   -7.3875   14.8805   24.0019 O   0  0  0  0  0  0  0  0  0  0  0  0
   -8.7081   17.3327   22.6070 H   0  0  0  0  0  0  0  0  0  0  0  0
   -9.0938   15.4409   21.7588 C   0  0  0  0  0  0  0  0  0  0  0  0
  -10.4011   14.8902   22.3149 C   0  0  0  0  0  0  0  0  0  0  0  0
   -8.1075   14.3242   21.4551 C   0  0  0  0  0  0  0  0  0  0  0  0
   -9.3512   16.1729   20.4503 C   0  0  0  0  0  0  0  0  0  0  0  0
   -8.9717   15.4192   28.7039 C   0  0  0  0  0  0  0  0  0  0  0  0
   -9.8101   14.3738   29.2359 N   0  0  0  0  0  0  0  0  0  0  0  0
  -11.1379   14.3648   29.1398 C   0  0  0  0  0  0  0  0  0  0  0  0
  -11.7863   15.2242   28.5567 O   0  0  0  0  0  0  0  0  0  0  0  0
   -9.3746   13.6215   29.6979 H   0  0  0  0  0  0  0  0  0  0  0  0
  -11.8440   13.2338   29.8214 C   0  0  0  0  0  0  0  0  0  0  0  0
  -12.0698   12.0349   29.1303 C   0  0  0  0  0  0  0  0  0  0  0  0
  -12.7322   10.9673   29.7419 C   0  0  0  0  0  0  0  0  0  0  0  0
  -13.1980   11.0520   31.0576 C   0  0  0  0  0  0  0  0  0  0  0  0
  -13.0154   12.2094   31.8156 C   0  0  0  0  0  0  0  0  0  0  0  0
  -12.3238   13.3728   31.2184 C   0  0  0  0  0  0  0  0  0  0  0  0
  -13.4700   12.2805   33.0946 O   0  0  0  0  0  0  0  0  0  0  0  0
  -12.1058   14.6391   32.0122 C   0  0  0  0  0  0  0  0  0  0  0  0
  -13.9087   11.5463   33.4774 H   0  0  0  0  0  0  0  0  0  0  0  0
   -7.6291   15.4253   29.4356 C   0  0  0  0  0  0  0  0  0  0  0  0
   -7.6837   16.6009   30.7497 S   0  0  0  0  0  0  0  0  0  0  0  0
   -8.2240   15.7872   32.1414 C   0  0  0  0  0  0  0  0  0  0  0  0
   -8.7745   16.5156   33.1977 C   0  0  0  0  0  0  0  0  0  0  0  0
   -9.2173   15.8657   34.3491 C   0  0  0  0  0  0  0  0  0  0  0  0
   -9.1116   14.4816   34.4504 C   0  0  0  0  0  0  0  0  0  0  0  0
   -8.5676   13.7482   33.3988 C   0  0  0  0  0  0  0  0  0  0  0  0
   -8.1222   14.4011   32.2493 C   0  0  0  0  0  0  0  0  0  0  0  0
  5  6  1  0  0  0
  5 10  1  0  0  0
  5 14  1  0  0  0
  6  7  1  0  0  0
  6 13  1  0  0  0
  7  8  1  0  0  0
  8  9  1  0  0  0
  9 10  1  0  0  0
 11 12  1  0  0  0
 11 14  1  0  0  0
 11  4  1  0  0  0
 12 13  1  0  0  0
 12 15  1  0  0  0
 15 16  1  0  0  0
 15 17  2  0  0  0
 16 19  1  0  0  0
 19 20  1  0  0  0
 19 21  1  0  0  0
 19 22  1  0  0  0
  4  1  1  0  0  0
  1 23  1  0  0  0
  1  2  1  0  0  0
 23 24  1  0  0  0
 23 37  1  0  0  0
 24 25  1  0  0  0
 37 38  1  0  0  0
 25 26  2  0  0  0
 25 28  1  0  0  0
 28 29  2  0  0  0
 28 33  1  0  0  0
 29 30  1  0  0  0
 30 31  2  0  0  0
 31 32  1  0  0  0
 32 33  2  0  0  0
 32 34  1  0  0  0
 33 35  1  0  0  0
 38 39  1  0  0  0
 39 40  2  0  0  0
 39 44  1  0  0  0
 40 41  1  0  0  0
 41 42  2  0  0  0
 42 43  1  0  0  0
 43 44  2  0  0  0
 16 18  1  0  0  0
  2  3  1  0  0  0
 24 27  1  0  0  0
 34 36  1  0  0  0
M  END
> <minimizedAffinity>
-10.49880

$$$$
2PYN_1UN_A_1001


 44 47  0  0  0  0  0  0  0  0999 V2000
   -8.1092   17.1127   27.2499 C   0  0  0  0  0  0  0  0  0  0  0  0
   -8.7886   17.8633   26.2437 O   0  0  0  0  0  0  0  0  0  0  0  0
   -9.5410   17.3500   25.9102 H   0  0  0  0  0  0  0  0  0  0  0  0
   -7.5416   15.8253   26.6585 C   0  0  0  0  0  0  0  0  0  0  0  0
   -9.2690   14.3874   23.6204 C   0  0  0  0  0  0  0  0  0  0  0  0
   -8.1224   14.4956   22.5969 C   0  0  0  0  0  0  0  0  0  0  0  0
   -8.5987   14.5969   21.1425 C   0  0  0  0  0  0  0  0  0  0  0  0
   -9.7649   15.5758   20.9826 C   0  0  0  0  0  0  0  0  0  0  0  0
  -10.8983   15.1991   21.9251 C   0  0  0  0  0  0  0  0  0  0  0  0
  -10.4280   15.3532   23.3679 C   0  0  0  0  0  0  0  0  0  0  0  0
   -7.9348   15.7393   25.2436 N   0  0  0  0  0  0  0  0  0  0  0  0
   -6.7601   15.6468   24.3569 C   0  0  0  0  0  0  0  0  0  0  0  0
   -7.1960   15.6764   22.8950 C   0  0  0  0  0  0  0  0  0  0  0  0
   -8.8041   14.5595   25.0676 C   0  0  0  0  0  0  0  0  0  0  0  0
   -5.8427   16.8157   24.5490 C   0  0  0  0  0  0  0  0  0  0  0  0
   -4.5539   16.5160   24.6989 N   0  0  0  0  0  0  0  0  0  0  0  0
   -6.3077   17.9416   24.5284 O   0  0  0  0  0  0  0  0  0  0  0  0
   -4.2964   15.5666   24.6594 H   0  0  0  0  0  0  0  0  0  0  0  0
   -3.4952   17.5001   24.9181 C   0  0  0  0  0  0  0  0  0  0  0  0
   -3.4823   17.9025   26.3877 C   0  0  0  0  0  0  0  0  0  0  0  0
   -3.7056   18.7059   24.0161 C   0  0  0  0  0  0  0  0  0  0  0  0
   -2.1571   16.8871   24.5337 C   0  0  0  0  0  0  0  0  0  0  0  0
   -9.0317   16.8581   28.4392 C   0  0  0  0  0  0  0  0  0  0  0  0
   -9.6297   15.5613   28.2412 N   0  0  0  0  0  0  0  0  0  0  0  0
  -10.9214   15.3702   27.9818 C   0  0  0  0  0  0  0  0  0  0  0  0
  -11.7322   16.2775   27.8465 O   0  0  0  0  0  0  0  0  0  0  0  0
   -9.0478   14.7694   28.3014 H   0  0  0  0  0  0  0  0  0  0  0  0
  -11.3741   13.9462   27.8836 C   0  0  0  0  0  0  0  0  0  0  0  0
  -11.6000   13.3715   26.6248 C   0  0  0  0  0  0  0  0  0  0  0  0
  -12.0292   12.0469   26.5069 C   0  0  0  0  0  0  0  0  0  0  0  0
  -12.2537   11.2473   27.6317 C   0  0  0  0  0  0  0  0  0  0  0  0
  -12.0536   11.7417   28.9212 C   0  0  0  0  0  0  0  0  0  0  0  0
  -11.6030   13.1385   29.1069 C   0  0  0  0  0  0  0  0  0  0  0  0
  -12.2726   10.9552   30.0081 O   0  0  0  0  0  0  0  0  0  0  0  0
  -11.3727   13.7040   30.4883 C   0  0  0  0  0  0  0  0  0  0  0  0
  -12.5580   10.0699   29.8958 H   0  0  0  0  0  0  0  0  0  0  0  0
   -8.3070   16.8913   29.7851 C   0  0  0  0  0  0  0  0  0  0  0  0
   -7.9408   15.2423   30.2939 S   0  0  0  0  0  0  0  0  0  0  0  0
   -8.3720   15.1053   31.9328 C   0  0  0  0  0  0  0  0  0  0  0  0
   -8.4292   13.8441   32.5291 C   0  0  0  0  0  0  0  0  0  0  0  0
   -8.7866   13.7123   33.8703 C   0  0  0  0  0  0  0  0  0  0  0  0
   -9.0894   14.8428   34.6236 C   0  0  0  0  0  0  0  0  0  0  0  0
   -9.0302   16.1044   34.0365 C   0  0  0  0  0  0  0  0  0  0  0  0
   -8.6755   16.2334   32.6935 C   0  0  0  0  0  0  0  0  0  0  0  0
  5  6  1  0  0  0
  5 10  1  0  0  0
  5 14  1  0  0  0
  6  7  1  0  0  0
  6 13  1  0  0  0
  7  8  1  0  0  0
  8  9  1  0  0  0
  9 10  1  0  0  0
 11 12  1  0  0  0
 11 14  1  0  0  0
 11  4  1  0  0  0
 12 13  1  0  0  0
 12 15  1  0  0  0
 15 16  1  0  0  0
 15 17  2  0  0  0
 16 19  1  0  0  0
 19 20  1  0  0  0
 19 21  1  0  0  0
 19 22  1  0  0  0
  4  1  1  0  0  0
  1 23  1  0  0  0
  1  2  1  0  0  0
 23 24  1  0  0  0
 23 37  1  0  0  0
 24 25  1  0  0  0
 37 38  1  0  0  0
 25 26  2  0  0  0
 25 28  1  0  0  0
 28 29  2  0  0  0
 28 33  1  0  0  0
 29 30  1  0  0  0
 30 31  2  0  0  0
 31 32  1  0  0  0
 32 33  2  0  0  0
 32 34  1  0  0  0
 33 35  1  0  0  0
 38 39  1  0  0  0
 39 40  2  0  0  0
 39 44  1  0  0  0
 40 41  1  0  0  0
 41 42  2  0  0  0
 42 43  1  0  0  0
 43 44  2  0  0  0
 16 18  1  0  0  0
  2  3  1  0  0  0
 24 27  1  0  0  0
 34 36  1  0  0  0
M  END
> <minimizedAffinity>
-10.49771

$$$$
2PYN_1UN_A_1001


 44 47  0  0  0  0  0  0  0  0999 V2000
   -8.0825   14.9362   28.1326 C   0  0  0  0  0  0  0  0  0  0  0  0
   -7.3279   13.9579   27.4179 O   0  0  0  0  0  0  0  0  0  0  0  0
   -6.8211   14.3916   26.7137 H   0  0  0  0  0  0  0  0  0  0  0  0
   -9.0931   15.6070   27.2064 C   0  0  0  0  0  0  0  0  0  0  0  0
  -11.6578   13.1648   28.5252 C   0  0  0  0  0  0  0  0  0  0  0  0
  -11.9130   12.3437   27.2466 C   0  0  0  0  0  0  0  0  0  0  0  0
  -13.2979   11.6861   27.1996 C   0  0  0  0  0  0  0  0  0  0  0  0
  -14.4080   12.6432   27.6415 C   0  0  0  0  0  0  0  0  0  0  0  0
  -14.0954   13.2080   29.0193 C   0  0  0  0  0  0  0  0  0  0  0  0
  -12.8294   14.0553   28.9426 C   0  0  0  0  0  0  0  0  0  0  0  0
  -10.3282   14.8079   27.1932 N   0  0  0  0  0  0  0  0  0  0  0  0
  -10.3812   13.9071   26.0268 C   0  0  0  0  0  0  0  0  0  0  0  0
  -11.7216   13.1798   25.9795 C   0  0  0  0  0  0  0  0  0  0  0  0
  -10.3988   14.0298   28.4454 C   0  0  0  0  0  0  0  0  0  0  0  0
  -10.2700   14.6738   24.7443 C   0  0  0  0  0  0  0  0  0  0  0  0
   -9.2323   14.3555   23.9729 N   0  0  0  0  0  0  0  0  0  0  0  0
  -11.1243   15.4990   24.4731 O   0  0  0  0  0  0  0  0  0  0  0  0
   -8.6301   13.6423   24.2857 H   0  0  0  0  0  0  0  0  0  0  0  0
   -8.9261   14.9926   22.6931 C   0  0  0  0  0  0  0  0  0  0  0  0
   -8.2707   16.3438   22.9507 C   0  0  0  0  0  0  0  0  0  0  0  0
  -10.1927   15.1407   21.8651 C   0  0  0  0  0  0  0  0  0  0  0  0
   -7.9826   14.0977   21.9037 C   0  0  0  0  0  0  0  0  0  0  0  0
   -7.1508   15.9368   28.8115 C   0  0  0  0  0  0  0  0  0  0  0  0
   -6.4114   16.6021   27.7679 N   0  0  0  0  0  0  0  0  0  0  0  0
   -5.1764   17.0761   27.9183 C   0  0  0  0  0  0  0  0  0  0  0  0
   -4.5227   16.9643   28.9474 O   0  0  0  0  0  0  0  0  0  0  0  0
   -6.8458   16.7126   26.8913 H   0  0  0  0  0  0  0  0  0  0  0  0
   -4.5991   17.8057   26.7450 C   0  0  0  0  0  0  0  0  0  0  0  0
   -5.0065   19.1191   26.4712 C   0  0  0  0  0  0  0  0  0  0  0  0
   -4.4876   19.8188   25.3785 C   0  0  0  0  0  0  0  0  0  0  0  0
   -3.5510   19.2401   24.5167 C   0  0  0  0  0  0  0  0  0  0  0  0
   -3.0930   17.9372   24.7170 C   0  0  0  0  0  0  0  0  0  0  0  0
   -3.6103   17.1476   25.8560 C   0  0  0  0  0  0  0  0  0  0  0  0
   -2.1805   17.3848   23.8745 O   0  0  0  0  0  0  0  0  0  0  0  0
   -3.1328   15.7363   26.1042 C   0  0  0  0  0  0  0  0  0  0  0  0
   -1.8498   17.8809   23.1516 H   0  0  0  0  0  0  0  0  0  0  0  0
   -7.8896   16.9722   29.6600 C   0  0  0  0  0  0  0  0  0  0  0  0
   -7.4123   16.7936   31.3488 S   0  0  0  0  0  0  0  0  0  0  0  0
   -8.5212   15.7352   32.0843 C   0  0  0  0  0  0  0  0  0  0  0  0
   -8.1205   14.9655   33.1781 C   0  0  0  0  0  0  0  0  0  0  0  0
   -9.0147   14.0879   33.7900 C   0  0  0  0  0  0  0  0  0  0  0  0
  -10.3164   13.9752   33.3105 C   0  0  0  0  0  0  0  0  0  0  0  0
  -10.7243   14.7431   32.2226 C   0  0  0  0  0  0  0  0  0  0  0  0
   -9.8268   15.6180   31.6100 C   0  0  0  0  0  0  0  0  0  0  0  0
  5  6  1  0  0  0
  5 10  1  0  0  0
  5 14  1  0  0  0
  6  7  1  0  0  0
  6 13  1  0  0  0
  7  8  1  0  0  0
  8  9  1  0  0  0
  9 10  1  0  0  0
 11 12  1  0  0  0
 11 14  1  0  0  0
 11  4  1  0  0  0
 12 13  1  0  0  0
 12 15  1  0  0  0
 15 16  1  0  0  0
 15 17  2  0  0  0
 16 19  1  0  0  0
 19 20  1  0  0  0
 19 21  1  0  0  0
 19 22  1  0  0  0
  4  1  1  0  0  0
  1 23  1  0  0  0
  1  2  1  0  0  0
 23 24  1  0  0  0
 23 37  1  0  0  0
 24 25  1  0  0  0
 37 38  1  0  0  0
 25 26  2  0  0  0
 25 28  1  0  0  0
 28 29  2  0  0  0
 28 33  1  0  0  0
 29 30  1  0  0  0
 30 31  2  0  0  0
 31 32  1  0  0  0
 32 33  2  0  0  0
 32 34  1  0  0  0
 33 35  1  0  0  0
 38 39  1  0  0  0
 39 40  2  0  0  0
 39 44  1  0  0  0
 40 41  1  0  0  0
 41 42  2  0  0  0
 42 43  1  0  0  0
 43 44  2  0  0  0
 16 18  1  0  0  0
  2  3  1  0  0  0
 24 27  1  0  0  0
 34 36  1  0  0  0
M  END
> <minimizedAffinity>
-10.14250

$$$$
