2PYN_1UN_A_1001
  RCSB PDB12061706423D
Coordinates from PDB:2PYN:A:1001 Model:1 without hydrogens
 40 43  0  0  0  0            999 V2000
  -12.8470   13.7840   27.6230   C 0  0  0  0  0  0  0  0  0  0  0  0
  -12.6750   12.9750   28.9230   C 0  0  0  0  0  0  0  0  0  0  0  0
  -12.8840   11.4660   28.7450   C 0  0  0  0  0  0  0  0  0  0  0  0
  -12.1810   10.9280   27.4960   C 0  0  0  0  0  0  0  0  0  0  0  0
  -12.6230   11.7100   26.2680   C 0  0  0  0  0  0  0  0  0  0  0  0
  -12.1690   13.1600   26.4020   C 0  0  0  0  0  0  0  0  0  0  0  0
  -11.0390   15.3410   28.3640   N 0  0  0  0  0  0  0  0  0  0  0  0
  -11.0360   14.7060   29.6950   C 0  0  0  0  0  0  0  0  0  0  0  0
  -11.3080   13.2100   29.5690   C 0  0  0  0  0  0  0  0  0  0  0  0
  -12.3760   15.2340   27.7480   C 0  0  0  0  0  0  0  0  0  0  0  0
   -9.6980   14.8390   30.3560   C 0  0  0  0  0  0  0  0  0  0  0  0
   -9.7250   15.1520   31.6500   N 0  0  0  0  0  0  0  0  0  0  0  0
   -8.5370   15.3490   32.4790   C 0  0  0  0  0  0  0  0  0  0  0  0
   -7.6660   16.4330   31.8560   C 0  0  0  0  0  0  0  0  0  0  0  0
   -7.7750   14.0410   32.6220   C 0  0  0  0  0  0  0  0  0  0  0  0
   -8.9680   15.7660   33.8770   C 0  0  0  0  0  0  0  0  0  0  0  0
   -8.6920   14.6310   29.7010   O 0  0  0  0  0  0  0  0  0  0  0  0
  -10.6700   16.7630   28.4400   C 0  0  0  0  0  0  0  0  0  0  0  0
  -10.0980   17.1960   27.0930   C 0  0  0  0  0  0  0  0  0  0  0  0
   -8.6250   16.8290   26.9330   C 0  0  0  0  0  0  0  0  0  0  0  0
  -10.2860   18.5980   26.9020   O 0  0  0  0  0  0  0  0  0  0  0  0
   -8.2830   17.0440   25.5490   N 0  0  0  0  0  0  0  0  0  0  0  0
   -7.6960   17.6510   27.8270   C 0  0  0  0  0  0  0  0  0  0  0  0
   -8.0140   16.0640   24.6890   C 0  0  0  0  0  0  0  0  0  0  0  0
   -8.0650   14.8740   24.9720   O 0  0  0  0  0  0  0  0  0  0  0  0
   -7.6030   16.4850   23.3120   C 0  0  0  0  0  0  0  0  0  0  0  0
   -6.4110   17.2000   23.1280   C 0  0  0  0  0  0  0  0  0  0  0  0
   -6.0090   17.6100   21.8540   C 0  0  0  0  0  0  0  0  0  0  0  0
   -6.7760   17.3300   20.7190   C 0  0  0  0  0  0  0  0  0  0  0  0
   -7.9760   16.6240   20.8140   C 0  0  0  0  0  0  0  0  0  0  0  0
   -8.4530   16.1680   22.1380   C 0  0  0  0  0  0  0  0  0  0  0  0
   -8.7130   16.3550   19.7040   O 0  0  0  0  0  0  0  0  0  0  0  0
   -9.7450   15.3980   22.2760   C 0  0  0  0  0  0  0  0  0  0  0  0
   -6.1250   16.8550   27.9280   S 0  0  0  0  0  0  0  0  0  0  0  0
   -5.1280   17.5380   26.7320   C 0  0  0  0  0  0  0  0  0  0  0  0
   -4.0170   16.8290   26.2710   C 0  0  0  0  0  0  0  0  0  0  0  0
   -3.1850   17.3760   25.2950   C 0  0  0  0  0  0  0  0  0  0  0  0
   -3.4600   18.6370   24.7740   C 0  0  0  0  0  0  0  0  0  0  0  0
   -4.5690   19.3480   25.2260   C 0  0  0  0  0  0  0  0  0  0  0  0
   -5.3980   18.8000   26.2050   C 0  0  0  0  0  0  0  0  0  0  0  0
  1  2  1  0  0  0  0
  1  6  1  0  0  0  0
  1 10  1  0  0  0  0
  2  3  1  0  0  0  0
  2  9  1  0  0  0  0
  3  4  1  0  0  0  0
  4  5  1  0  0  0  0
  5  6  1  0  0  0  0
  7  8  1  0  0  0  0
  7 10  1  0  0  0  0
  7 18  1  0  0  0  0
  8  9  1  0  0  0  0
  8 11  1  0  0  0  0
 11 12  1  0  0  0  0
 11 17  2  0  0  0  0
 12 13  1  0  0  0  0
 13 14  1  0  0  0  0
 13 15  1  0  0  0  0
 13 16  1  0  0  0  0
 18 19  1  0  0  0  0
 19 20  1  0  0  0  0
 19 21  1  0  0  0  0
 20 22  1  0  0  0  0
 20 23  1  0  0  0  0
 22 24  1  0  0  0  0
 23 34  1  0  0  0  0
 24 25  2  0  0  0  0
 24 26  1  0  0  0  0
 26 27  2  0  0  0  0
 26 31  1  0  0  0  0
 27 28  1  0  0  0  0
 28 29  2  0  0  0  0
 29 30  1  0  0  0  0
 30 31  2  0  0  0  0
 30 32  1  0  0  0  0
 31 33  1  0  0  0  0
 34 35  1  0  0  0  0
 35 36  2  0  0  0  0
 35 40  1  0  0  0  0
 36 37  1  0  0  0  0
 37 38  2  0  0  0  0
 38 39  1  0  0  0  0
 39 40  2  0  0  0  0
A    1
C1
A    2
C2
A    3
C3
A    4
C4
A    5
C5
A    6
C6
A    7
N7
A    8
C8
A    9
C9
A   10
C10
A   11
C11
A   12
N12
A   13
C13
A   14
C14
A   15
C15
A   16
C16
A   17
O17
A   18
C18
A   19
C19
A   20
C20
A   21
O21
A   22
N22
A   23
C23
A   24
C24
A   25
O25
A   26
C29
A   27
C30
A   28
C31
A   29
C32
A   30
C33
A   31
C34
A   32
O38
A   33
C39
A   34
S74
A   35
C77
A   36
C78
A   37
C79
A   38
C80
A   39
C81
A   40
C82
M  END
>  <InstanceId>
2PYN_1UN_A_1001

>  <ChemCompId>
1UN

>  <PdbId>
2PYN

>  <ChainId>
A

>  <ResidueNumber>
1001

>  <InsertionCode>


>  <Model>
1

>  <AltIds>


>  <MissingHeavyAtoms>
0

>  <ObservedFormula>
C32 N3 O4 S

>  <Name>
2-[2-HYDROXY-3-(3-HYDROXY-2-METHYL-BENZOYLAMINO)-4-PHENYL SULFANYL-BUTYL]-DECAHYDRO-ISOQUINOLINE-3-CARBOXYLIC ACID TERT-BUTYLAMIDE

>  <SystematicName>
(2S,3S,4aS,8aS)-N-tert-butyl-2-[(2R,3R)-2-hydroxy-3-[(3-hydroxy-2-methyl-phenyl)carbonylamino]-4-phenylsulfanyl-butyl]-3,4,4a,5,6,7,8,8a-octahydro-1H-isoquinoline-3-carboxamide

>  <Synonyms>
NELFINAVIR MESYLATE AG1343

>  <Type>
NON-POLYMER

>  <Formula>
C32 H45 N3 O4 S

>  <MolecularWeight>
567.782

>  <ModifiedDate>
2011-06-04

>  <Parent>


>  <OneLetterCode>


>  <SubcomponentList>


>  <AmbiguousFlag>
N

>  <InChI>
InChI=1S/C32H45N3O4S/c1-21-25(15-10-16-28(21)36)30(38)33-26(20-40-24-13-6-5-7-14-24)29(37)19-35-18-23-12-9-8-11-22(23)17-27(35)31(39)34-32(2,3)4/h5-7,10,13-16,22-23,26-27,29,36-37H,8-9,11-12,17-20H2,1-4H3,(H,33,38)(H,34,39)/t22-,23+,26-,27-,29+/m0/s1

>  <InChIKey>
QAGYKUNXZHXKMR-HKWSIXNMSA-N

>  <SMILES>
Cc1c(cccc1O)C(=O)N[C@@H](CSc2ccccc2)[C@@H](C[N@@]3C[C@H]4CCCC[C@H]4C[C@H]3C(=O)NC(C)(C)C)O

$$$$
