1BZY_IMU_A_300


 33 35  0  0  0  0  0  0  0  0999 V2000
   10.1651   85.6223   42.1163 C   0  0  0  0  0  0  0  0  0  0  0  0
    8.9655   84.8577   42.0575 N   0  0  0  0  0  0  0  0  0  0  0  0
    9.9679   86.8041   42.9955 C   0  0  0  0  0  0  0  0  0  0  0  0
    9.9450   87.9527   42.1637 O   0  0  0  0  0  0  0  0  0  0  0  0
    8.6640   86.5017   43.6750 C   0  0  0  0  0  0  0  0  0  0  0  0
    7.7723   87.6132   43.6318 O   0  0  0  0  0  0  0  0  0  0  0  0
    7.9974   85.2581   43.0189 C   0  0  0  0  0  0  0  0  0  0  0  0
    9.1975   83.8778   42.2200 H   0  0  0  0  0  0  0  0  0  0  0  0
    9.2711   87.8399   41.4752 H   0  0  0  0  0  0  0  0  0  0  0  0
    7.5630   87.8241   42.7084 H   0  0  0  0  0  0  0  0  0  0  0  0
    5.1035   84.2078   46.4345 C   0  0  0  0  0  0  0  0  0  0  0  0
    7.9050   84.1411   44.0675 C   0  0  0  0  0  0  0  0  0  0  0  0
    8.8145   83.0780   44.2340 C   0  0  0  0  0  0  0  0  0  0  0  0
    8.5438   82.2553   45.2051 N   0  0  0  0  0  0  0  0  0  0  0  0
    7.3755   82.7673   45.7702 C   0  0  0  0  0  0  0  0  0  0  0  0
    6.6162   82.2792   46.8883 C   0  0  0  0  0  0  0  0  0  0  0  0
    6.8646   81.2930   47.5745 O   0  0  0  0  0  0  0  0  0  0  0  0
    5.4778   83.0560   47.1643 N   0  0  0  0  0  0  0  0  0  0  0  0
    3.9911   84.8443   46.8142 N   0  0  0  0  0  0  0  0  0  0  0  0
    5.8323   84.6827   45.3753 N   0  0  0  0  0  0  0  0  0  0  0  0
    6.9564   83.9210   45.0846 C   0  0  0  0  0  0  0  0  0  0  0  0
    9.0478   81.4550   45.4784 H   0  0  0  0  0  0  0  0  0  0  0  0
    4.9035   82.7801   47.9148 H   0  0  0  0  0  0  0  0  0  0  0  0
    3.4654   84.5057   47.5746 H   0  0  0  0  0  0  0  0  0  0  0  0
    3.6974   85.6517   46.3334 H   0  0  0  0  0  0  0  0  0  0  0  0
   11.2757   84.8106   42.6470 C   0  0  0  0  0  0  0  0  0  0  0  0
   11.1733   83.5472   42.0292 O   0  0  0  0  0  0  0  0  0  0  0  0
   12.1240   82.9243   41.0043 P   0  0  0  0  0  0  0  0  0  0  0  0
   13.5081   83.2488   41.4184 O   0  0  0  0  0  0  0  0  0  0  0  0
   11.7859   83.3707   39.6485 O   0  0  0  0  0  0  0  0  0  0  0  0
   11.8601   81.4813   41.2148 O   0  0  0  0  0  0  0  0  0  0  0  0
   14.1337   82.8649   40.7842 H   0  0  0  0  0  0  0  0  0  0  0  0
   12.4128   80.9602   40.6116 H   0  0  0  0  0  0  0  0  0  0  0  0
 28 29  1  0  0  0
 28 30  2  0  0  0
 28 31  1  0  0  0
 28 27  1  0  0  0
 11 18  1  0  0  0
 11 19  1  0  0  0
 11 20  2  0  0  0
 27 26  1  0  0  0
 26  1  1  0  0  0
  1  2  1  0  0  0
  1  3  1  0  0  0
  2  7  1  0  0  0
  3  4  1  0  0  0
  3  5  1  0  0  0
  5  6  1  0  0  0
  5  7  1  0  0  0
  7 12  1  0  0  0
 12 13  2  0  0  0
 12 21  1  0  0  0
 13 14  1  0  0  0
 14 15  1  0  0  0
 15 16  1  0  0  0
 15 21  2  0  0  0
 16 17  2  0  0  0
 16 18  1  0  0  0
 20 21  1  0  0  0
 29 32  1  0  0  0
 31 33  1  0  0  0
  2  8  1  0  0  0
  4  9  1  0  0  0
  6 10  1  0  0  0
 14 22  1  0  0  0
 18 23  1  0  0  0
 19 24  1  0  0  0
 19 25  1  0  0  0
M  END
> <minimizedAffinity>
-11.22171

$$$$
1BZY_IMU_A_300


 33 35  0  0  0  0  0  0  0  0999 V2000
    7.9247   85.9336   42.2421 C   0  0  0  0  0  0  0  0  0  0  0  0
    6.8992   85.8584   41.2572 N   0  0  0  0  0  0  0  0  0  0  0  0
    9.1490   86.5341   41.6515 C   0  0  0  0  0  0  0  0  0  0  0  0
   10.1154   85.5022   41.5381 O   0  0  0  0  0  0  0  0  0  0  0  0
    8.6575   87.0735   40.3396 C   0  0  0  0  0  0  0  0  0  0  0  0
    9.5067   86.6958   39.2585 O   0  0  0  0  0  0  0  0  0  0  0  0
    7.2052   86.5830   40.0726 C   0  0  0  0  0  0  0  0  0  0  0  0
    6.0394   86.2362   41.6552 H   0  0  0  0  0  0  0  0  0  0  0  0
    9.7409   84.7623   41.0349 H   0  0  0  0  0  0  0  0  0  0  0  0
    9.5155   85.7293   39.1767 H   0  0  0  0  0  0  0  0  0  0  0  0
    2.6728   87.2309   39.6460 C   0  0  0  0  0  0  0  0  0  0  0  0
    6.2756   87.8035   40.0302 C   0  0  0  0  0  0  0  0  0  0  0  0
    6.6704   89.1540   40.1054 C   0  0  0  0  0  0  0  0  0  0  0  0
    5.7067   90.0250   40.0302 N   0  0  0  0  0  0  0  0  0  0  0  0
    4.5564   89.2493   39.8843 C   0  0  0  0  0  0  0  0  0  0  0  0
    3.1892   89.6677   39.7408 C   0  0  0  0  0  0  0  0  0  0  0  0
    2.7691   90.8202   39.7173 O   0  0  0  0  0  0  0  0  0  0  0  0
    2.2911   88.5923   39.6292 N   0  0  0  0  0  0  0  0  0  0  0  0
    1.7041   86.3171   39.5311 N   0  0  0  0  0  0  0  0  0  0  0  0
    3.9773   86.8289   39.7704 N   0  0  0  0  0  0  0  0  0  0  0  0
    4.8766   87.8802   39.8901 C   0  0  0  0  0  0  0  0  0  0  0  0
    5.7739   91.0065   40.0676 H   0  0  0  0  0  0  0  0  0  0  0  0
    1.3337   88.8005   39.5331 H   0  0  0  0  0  0  0  0  0  0  0  0
    0.7662   86.6026   39.4416 H   0  0  0  0  0  0  0  0  0  0  0  0
    1.9285   85.3585   39.5359 H   0  0  0  0  0  0  0  0  0  0  0  0
    7.4907   86.7574   43.3853 C   0  0  0  0  0  0  0  0  0  0  0  0
    6.1128   86.5088   43.5523 O   0  0  0  0  0  0  0  0  0  0  0  0
    5.2973   86.5763   44.8456 P   0  0  0  0  0  0  0  0  0  0  0  0
    4.6655   87.9139   44.9104 O   0  0  0  0  0  0  0  0  0  0  0  0
    6.1389   86.2565   46.0037 O   0  0  0  0  0  0  0  0  0  0  0  0
    4.2667   85.5442   44.5838 O   0  0  0  0  0  0  0  0  0  0  0  0
    4.1406   87.9846   45.7230 H   0  0  0  0  0  0  0  0  0  0  0  0
    3.6689   85.4837   45.3453 H   0  0  0  0  0  0  0  0  0  0  0  0
 28 29  1  0  0  0
 28 30  2  0  0  0
 28 31  1  0  0  0
 28 27  1  0  0  0
 11 18  1  0  0  0
 11 19  1  0  0  0
 11 20  2  0  0  0
 27 26  1  0  0  0
 26  1  1  0  0  0
  1  2  1  0  0  0
  1  3  1  0  0  0
  2  7  1  0  0  0
  3  4  1  0  0  0
  3  5  1  0  0  0
  5  6  1  0  0  0
  5  7  1  0  0  0
  7 12  1  0  0  0
 12 13  2  0  0  0
 12 21  1  0  0  0
 13 14  1  0  0  0
 14 15  1  0  0  0
 15 16  1  0  0  0
 15 21  2  0  0  0
 16 17  2  0  0  0
 16 18  1  0  0  0
 20 21  1  0  0  0
 29 32  1  0  0  0
 31 33  1  0  0  0
  2  8  1  0  0  0
  4  9  1  0  0  0
  6 10  1  0  0  0
 14 22  1  0  0  0
 18 23  1  0  0  0
 19 24  1  0  0  0
 19 25  1  0  0  0
M  END
> <minimizedAffinity>
-10.35031

$$$$
1BZY_IMU_A_300


 33 35  0  0  0  0  0  0  0  0999 V2000
    2.9993   88.2631   40.0429 C   0  0  0  0  0  0  0  0  0  0  0  0
    3.8923   88.2508   41.1518 N   0  0  0  0  0  0  0  0  0  0  0  0
    3.3875   89.3388   39.0940 C   0  0  0  0  0  0  0  0  0  0  0  0
    2.4007   90.3542   39.1769 O   0  0  0  0  0  0  0  0  0  0  0  0
    4.7445   89.7478   39.5888 C   0  0  0  0  0  0  0  0  0  0  0  0
    4.8606   91.1634   39.7116 O   0  0  0  0  0  0  0  0  0  0  0  0
    5.0393   89.0685   40.9574 C   0  0  0  0  0  0  0  0  0  0  0  0
    4.2012   87.2914   41.3085 H   0  0  0  0  0  0  0  0  0  0  0  0
    2.3065   90.6390   40.0993 H   0  0  0  0  0  0  0  0  0  0  0  0
    4.2178   91.4853   40.3628 H   0  0  0  0  0  0  0  0  0  0  0  0
    7.4012   86.2511   43.7192 C   0  0  0  0  0  0  0  0  0  0  0  0
    6.2447   88.1332   40.7907 C   0  0  0  0  0  0  0  0  0  0  0  0
    6.9844   87.9305   39.6087 C   0  0  0  0  0  0  0  0  0  0  0  0
    7.9820   87.1010   39.7068 N   0  0  0  0  0  0  0  0  0  0  0  0
    7.9574   86.6940   41.0409 C   0  0  0  0  0  0  0  0  0  0  0  0
    8.8327   85.7877   41.7319 C   0  0  0  0  0  0  0  0  0  0  0  0
    9.7942   85.1881   41.2614 O   0  0  0  0  0  0  0  0  0  0  0  0
    8.4884   85.6090   43.0828 N   0  0  0  0  0  0  0  0  0  0  0  0
    7.1959   85.9808   45.0121 N   0  0  0  0  0  0  0  0  0  0  0  0
    6.5720   87.1254   43.0660 N   0  0  0  0  0  0  0  0  0  0  0  0
    6.8941   87.3064   41.7275 C   0  0  0  0  0  0  0  0  0  0  0  0
    8.6103   86.8240   39.0012 H   0  0  0  0  0  0  0  0  0  0  0  0
    9.0403   84.9967   43.6211 H   0  0  0  0  0  0  0  0  0  0  0  0
    7.7898   85.3533   45.4841 H   0  0  0  0  0  0  0  0  0  0  0  0
    6.4509   86.4092   45.4924 H   0  0  0  0  0  0  0  0  0  0  0  0
    3.0263   86.9689   39.3370 C   0  0  0  0  0  0  0  0  0  0  0  0
    2.8795   85.9749   40.3263 O   0  0  0  0  0  0  0  0  0  0  0  0
    1.6261   85.1635   40.6623 P   0  0  0  0  0  0  0  0  0  0  0  0
    1.8480   83.7769   40.1926 O   0  0  0  0  0  0  0  0  0  0  0  0
    0.4317   85.8014   40.0981 O   0  0  0  0  0  0  0  0  0  0  0  0
    1.6519   85.2043   42.1434 O   0  0  0  0  0  0  0  0  0  0  0  0
    1.0664   83.2386   40.3934 H   0  0  0  0  0  0  0  0  0  0  0  0
    0.8915   84.7144   42.4936 H   0  0  0  0  0  0  0  0  0  0  0  0
 28 29  1  0  0  0
 28 30  2  0  0  0
 28 31  1  0  0  0
 28 27  1  0  0  0
 11 18  1  0  0  0
 11 19  1  0  0  0
 11 20  2  0  0  0
 27 26  1  0  0  0
 26  1  1  0  0  0
  1  2  1  0  0  0
  1  3  1  0  0  0
  2  7  1  0  0  0
  3  4  1  0  0  0
  3  5  1  0  0  0
  5  6  1  0  0  0
  5  7  1  0  0  0
  7 12  1  0  0  0
 12 13  2  0  0  0
 12 21  1  0  0  0
 13 14  1  0  0  0
 14 15  1  0  0  0
 15 16  1  0  0  0
 15 21  2  0  0  0
 16 17  2  0  0  0
 16 18  1  0  0  0
 20 21  1  0  0  0
 29 32  1  0  0  0
 31 33  1  0  0  0
  2  8  1  0  0  0
  4  9  1  0  0  0
  6 10  1  0  0  0
 14 22  1  0  0  0
 18 23  1  0  0  0
 19 24  1  0  0  0
 19 25  1  0  0  0
M  END
> <minimizedAffinity>
-10.34670

$$$$
1BZY_IMU_A_300


 33 35  0  0  0  0  0  0  0  0999 V2000
    5.5237   86.3365   43.8644 C   0  0  0  0  0  0  0  0  0  0  0  0
    5.8800   85.1326   43.1928 N   0  0  0  0  0  0  0  0  0  0  0  0
    5.3811   86.0788   45.3210 C   0  0  0  0  0  0  0  0  0  0  0  0
    4.0000   86.1618   45.6334 O   0  0  0  0  0  0  0  0  0  0  0  0
    5.9734   84.7084   45.4779 C   0  0  0  0  0  0  0  0  0  0  0  0
    5.1287   83.8488   46.2395 O   0  0  0  0  0  0  0  0  0  0  0  0
    6.2475   84.0835   44.0795 C   0  0  0  0  0  0  0  0  0  0  0  0
    6.6688   85.3269   42.5761 H   0  0  0  0  0  0  0  0  0  0  0  0
    3.5023   85.5565   45.0618 H   0  0  0  0  0  0  0  0  0  0  0  0
    4.2826   83.7356   45.7788 H   0  0  0  0  0  0  0  0  0  0  0  0
    9.6051   86.0362   41.6184 C   0  0  0  0  0  0  0  0  0  0  0  0
    7.7591   83.8651   43.9280 C   0  0  0  0  0  0  0  0  0  0  0  0
    8.5284   82.8830   44.5828 C   0  0  0  0  0  0  0  0  0  0  0  0
    9.7951   82.8725   44.2856 N   0  0  0  0  0  0  0  0  0  0  0  0
    9.9361   83.9038   43.3568 C   0  0  0  0  0  0  0  0  0  0  0  0
   11.1144   84.3524   42.6673 C   0  0  0  0  0  0  0  0  0  0  0  0
   12.2483   83.8951   42.7703 O   0  0  0  0  0  0  0  0  0  0  0  0
   10.8720   85.4372   41.8072 N   0  0  0  0  0  0  0  0  0  0  0  0
    9.5292   87.0637   40.7667 N   0  0  0  0  0  0  0  0  0  0  0  0
    8.4771   85.6028   42.2653 N   0  0  0  0  0  0  0  0  0  0  0  0
    8.7017   84.5361   43.1256 C   0  0  0  0  0  0  0  0  0  0  0  0
   10.4939   82.2740   44.6359 H   0  0  0  0  0  0  0  0  0  0  0  0
   11.6340   85.8040   41.3032 H   0  0  0  0  0  0  0  0  0  0  0  0
   10.3376   87.3774   40.3005 H   0  0  0  0  0  0  0  0  0  0  0  0
    8.6649   87.5067   40.6056 H   0  0  0  0  0  0  0  0  0  0  0  0
    6.5528   87.3723   43.6597 C   0  0  0  0  0  0  0  0  0  0  0  0
    5.8707   88.5286   43.2286 O   0  0  0  0  0  0  0  0  0  0  0  0
    5.6929   89.0332   41.7947 P   0  0  0  0  0  0  0  0  0  0  0  0
    6.2634   90.3977   41.7234 O   0  0  0  0  0  0  0  0  0  0  0  0
    4.2852   88.9523   41.3900 O   0  0  0  0  0  0  0  0  0  0  0  0
    6.5576   88.0858   41.0527 O   0  0  0  0  0  0  0  0  0  0  0  0
    6.1639   90.7431   40.8225 H   0  0  0  0  0  0  0  0  0  0  0  0
    6.5345   88.2997   40.1069 H   0  0  0  0  0  0  0  0  0  0  0  0
 28 29  1  0  0  0
 28 30  2  0  0  0
 28 31  1  0  0  0
 28 27  1  0  0  0
 11 18  1  0  0  0
 11 19  1  0  0  0
 11 20  2  0  0  0
 27 26  1  0  0  0
 26  1  1  0  0  0
  1  2  1  0  0  0
  1  3  1  0  0  0
  2  7  1  0  0  0
  3  4  1  0  0  0
  3  5  1  0  0  0
  5  6  1  0  0  0
  5  7  1  0  0  0
  7 12  1  0  0  0
 12 13  2  0  0  0
 12 21  1  0  0  0
 13 14  1  0  0  0
 14 15  1  0  0  0
 15 16  1  0  0  0
 15 21  2  0  0  0
 16 17  2  0  0  0
 16 18  1  0  0  0
 20 21  1  0  0  0
 29 32  1  0  0  0
 31 33  1  0  0  0
  2  8  1  0  0  0
  4  9  1  0  0  0
  6 10  1  0  0  0
 14 22  1  0  0  0
 18 23  1  0  0  0
 19 24  1  0  0  0
 19 25  1  0  0  0
M  END
> <minimizedAffinity>
-10.21874

$$$$
1BZY_IMU_A_300


 33 35  0  0  0  0  0  0  0  0999 V2000
    6.4795   87.1770   41.4110 C   0  0  0  0  0  0  0  0  0  0  0  0
    6.9198   87.1308   42.7642 N   0  0  0  0  0  0  0  0  0  0  0  0
    7.6426   87.0380   40.4965 C   0  0  0  0  0  0  0  0  0  0  0  0
    7.8501   88.2981   39.8794 O   0  0  0  0  0  0  0  0  0  0  0  0
    8.7450   86.6084   41.4204 C   0  0  0  0  0  0  0  0  0  0  0  0
    9.9308   87.3753   41.2250 O   0  0  0  0  0  0  0  0  0  0  0  0
    8.2749   86.7219   42.8994 C   0  0  0  0  0  0  0  0  0  0  0  0
    6.3304   86.4732   43.2746 H   0  0  0  0  0  0  0  0  0  0  0  0
    7.9476   88.9803   40.5621 H   0  0  0  0  0  0  0  0  0  0  0  0
    9.7492   88.3075   41.4224 H   0  0  0  0  0  0  0  0  0  0  0  0
    5.6128   84.4874   45.9100 C   0  0  0  0  0  0  0  0  0  0  0  0
    8.2693   85.3185   43.5209 C   0  0  0  0  0  0  0  0  0  0  0  0
    9.2098   84.2973   43.2804 C   0  0  0  0  0  0  0  0  0  0  0  0
    9.0152   83.1900   43.9353 N   0  0  0  0  0  0  0  0  0  0  0  0
    7.8719   83.4394   44.6948 C   0  0  0  0  0  0  0  0  0  0  0  0
    7.1911   82.5794   45.6233 C   0  0  0  0  0  0  0  0  0  0  0  0
    7.5012   81.4327   45.9302 O   0  0  0  0  0  0  0  0  0  0  0  0
    6.0546   83.1752   46.1968 N   0  0  0  0  0  0  0  0  0  0  0  0
    4.5114   84.9176   46.5334 N   0  0  0  0  0  0  0  0  0  0  0  0
    6.2668   85.3142   45.0342 N   0  0  0  0  0  0  0  0  0  0  0  0
    7.3879   84.7370   44.4524 C   0  0  0  0  0  0  0  0  0  0  0  0
    9.5518   82.3653   43.9024 H   0  0  0  0  0  0  0  0  0  0  0  0
    5.5320   82.6441   46.8403 H   0  0  0  0  0  0  0  0  0  0  0  0
    4.0393   84.3261   47.1631 H   0  0  0  0  0  0  0  0  0  0  0  0
    4.1723   85.8260   46.3629 H   0  0  0  0  0  0  0  0  0  0  0  0
    5.5219   86.0899   41.1367 C   0  0  0  0  0  0  0  0  0  0  0  0
    4.6891   86.5489   40.0956 O   0  0  0  0  0  0  0  0  0  0  0  0
    3.1703   86.7356   40.1222 P   0  0  0  0  0  0  0  0  0  0  0  0
    2.8883   88.0422   40.7592 O   0  0  0  0  0  0  0  0  0  0  0  0
    2.5218   85.5971   40.7819 O   0  0  0  0  0  0  0  0  0  0  0  0
    2.8689   86.8057   38.6730 O   0  0  0  0  0  0  0  0  0  0  0  0
    1.9296   88.1870   40.7894 H   0  0  0  0  0  0  0  0  0  0  0  0
    1.9148   86.9263   38.5466 H   0  0  0  0  0  0  0  0  0  0  0  0
 28 29  1  0  0  0
 28 30  2  0  0  0
 28 31  1  0  0  0
 28 27  1  0  0  0
 11 18  1  0  0  0
 11 19  1  0  0  0
 11 20  2  0  0  0
 27 26  1  0  0  0
 26  1  1  0  0  0
  1  2  1  0  0  0
  1  3  1  0  0  0
  2  7  1  0  0  0
  3  4  1  0  0  0
  3  5  1  0  0  0
  5  6  1  0  0  0
  5  7  1  0  0  0
  7 12  1  0  0  0
 12 13  2  0  0  0
 12 21  1  0  0  0
 13 14  1  0  0  0
 14 15  1  0  0  0
 15 16  1  0  0  0
 15 21  2  0  0  0
 16 17  2  0  0  0
 16 18  1  0  0  0
 20 21  1  0  0  0
 29 32  1  0  0  0
 31 33  1  0  0  0
  2  8  1  0  0  0
  4  9  1  0  0  0
  6 10  1  0  0  0
 14 22  1  0  0  0
 18 23  1  0  0  0
 19 24  1  0  0  0
 19 25  1  0  0  0
M  END
> <minimizedAffinity>
-10.21062

$$$$
1BZY_IMU_A_300


 33 35  0  0  0  0  0  0  0  0999 V2000
    7.9959   87.1273   41.0820 C   0  0  0  0  0  0  0  0  0  0  0  0
    8.4590   87.0862   42.4278 N   0  0  0  0  0  0  0  0  0  0  0  0
    8.6159   86.0255   40.3009 C   0  0  0  0  0  0  0  0  0  0  0  0
    9.5445   86.6120   39.4035 O   0  0  0  0  0  0  0  0  0  0  0  0
    9.2359   85.1682   41.3658 C   0  0  0  0  0  0  0  0  0  0  0  0
   10.5858   84.8300   41.0562 O   0  0  0  0  0  0  0  0  0  0  0  0
    9.1707   85.8954   42.7399 C   0  0  0  0  0  0  0  0  0  0  0  0
    7.6536   87.1549   43.0499 H   0  0  0  0  0  0  0  0  0  0  0  0
   10.1706   87.1622   39.8998 H   0  0  0  0  0  0  0  0  0  0  0  0
   11.1182   85.6392   41.0048 H   0  0  0  0  0  0  0  0  0  0  0  0
    5.4324   86.7288   45.2845 C   0  0  0  0  0  0  0  0  0  0  0  0
    8.2897   85.0716   43.6891 C   0  0  0  0  0  0  0  0  0  0  0  0
    8.4777   83.7191   44.0363 C   0  0  0  0  0  0  0  0  0  0  0  0
    7.6133   83.2307   44.8773 N   0  0  0  0  0  0  0  0  0  0  0  0
    6.7626   84.3015   45.1527 C   0  0  0  0  0  0  0  0  0  0  0  0
    5.6236   84.3570   46.0270 C   0  0  0  0  0  0  0  0  0  0  0  0
    5.1771   83.4448   46.7154 O   0  0  0  0  0  0  0  0  0  0  0  0
    4.9979   85.6154   46.0401 N   0  0  0  0  0  0  0  0  0  0  0  0
    4.7340   87.8628   45.3991 N   0  0  0  0  0  0  0  0  0  0  0  0
    6.5256   86.6826   44.4591 N   0  0  0  0  0  0  0  0  0  0  0  0
    7.1504   85.4428   44.4287 C   0  0  0  0  0  0  0  0  0  0  0  0
    7.5696   82.3152   45.2369 H   0  0  0  0  0  0  0  0  0  0  0  0
    4.2053   85.7292   46.6129 H   0  0  0  0  0  0  0  0  0  0  0  0
    3.9483   87.8992   45.9912 H   0  0  0  0  0  0  0  0  0  0  0  0
    5.0053   88.6615   44.8915 H   0  0  0  0  0  0  0  0  0  0  0  0
    6.5293   86.9847   41.0304 C   0  0  0  0  0  0  0  0  0  0  0  0
    6.0298   88.2062   40.5337 O   0  0  0  0  0  0  0  0  0  0  0  0
    5.5811   89.4311   41.3340 P   0  0  0  0  0  0  0  0  0  0  0  0
    5.8259   89.1476   42.7665 O   0  0  0  0  0  0  0  0  0  0  0  0
    4.1885   89.7700   41.0216 O   0  0  0  0  0  0  0  0  0  0  0  0
    6.5412   90.4513   40.8508 O   0  0  0  0  0  0  0  0  0  0  0  0
    5.5496   89.9100   43.2988 H   0  0  0  0  0  0  0  0  0  0  0  0
    6.3625   91.2973   41.2904 H   0  0  0  0  0  0  0  0  0  0  0  0
 28 29  1  0  0  0
 28 30  2  0  0  0
 28 31  1  0  0  0
 28 27  1  0  0  0
 11 18  1  0  0  0
 11 19  1  0  0  0
 11 20  2  0  0  0
 27 26  1  0  0  0
 26  1  1  0  0  0
  1  2  1  0  0  0
  1  3  1  0  0  0
  2  7  1  0  0  0
  3  4  1  0  0  0
  3  5  1  0  0  0
  5  6  1  0  0  0
  5  7  1  0  0  0
  7 12  1  0  0  0
 12 13  2  0  0  0
 12 21  1  0  0  0
 13 14  1  0  0  0
 14 15  1  0  0  0
 15 16  1  0  0  0
 15 21  2  0  0  0
 16 17  2  0  0  0
 16 18  1  0  0  0
 20 21  1  0  0  0
 29 32  1  0  0  0
 31 33  1  0  0  0
  2  8  1  0  0  0
  4  9  1  0  0  0
  6 10  1  0  0  0
 14 22  1  0  0  0
 18 23  1  0  0  0
 19 24  1  0  0  0
 19 25  1  0  0  0
M  END
> <minimizedAffinity>
-9.72399

$$$$
1BZY_IMU_A_300


 33 35  0  0  0  0  0  0  0  0999 V2000
    5.8895   86.1907   43.3148 C   0  0  0  0  0  0  0  0  0  0  0  0
    6.8159   85.4491   42.5280 N   0  0  0  0  0  0  0  0  0  0  0  0
    5.8837   85.6745   44.7083 C   0  0  0  0  0  0  0  0  0  0  0  0
    4.6500   85.0035   44.9072 O   0  0  0  0  0  0  0  0  0  0  0  0
    7.0899   84.7814   44.7392 C   0  0  0  0  0  0  0  0  0  0  0  0
    6.7935   83.5080   45.3078 O   0  0  0  0  0  0  0  0  0  0  0  0
    7.6578   84.6036   43.3014 C   0  0  0  0  0  0  0  0  0  0  0  0
    7.4018   86.1058   42.0124 H   0  0  0  0  0  0  0  0  0  0  0  0
    4.5357   84.3270   44.2215 H   0  0  0  0  0  0  0  0  0  0  0  0
    6.1277   83.0584   44.7643 H   0  0  0  0  0  0  0  0  0  0  0  0
   11.7528   83.1999   41.7507 C   0  0  0  0  0  0  0  0  0  0  0  0
    9.0713   85.2000   43.2555 C   0  0  0  0  0  0  0  0  0  0  0  0
    9.4618   86.4565   43.7597 C   0  0  0  0  0  0  0  0  0  0  0  0
   10.7230   86.7470   43.6259 N   0  0  0  0  0  0  0  0  0  0  0  0
   11.2661   85.6271   42.9959 C   0  0  0  0  0  0  0  0  0  0  0  0
   12.6252   85.3734   42.6041 C   0  0  0  0  0  0  0  0  0  0  0  0
   13.5884   86.1176   42.7583 O   0  0  0  0  0  0  0  0  0  0  0  0
   12.7959   84.1275   41.9765 N   0  0  0  0  0  0  0  0  0  0  0  0
   12.0680   82.0538   41.1392 N   0  0  0  0  0  0  0  0  0  0  0  0
   10.4579   83.4337   42.1342 N   0  0  0  0  0  0  0  0  0  0  0  0
   10.2711   84.6649   42.7488 C   0  0  0  0  0  0  0  0  0  0  0  0
   11.1875   87.5689   43.9052 H   0  0  0  0  0  0  0  0  0  0  0  0
   13.7008   83.8847   41.6743 H   0  0  0  0  0  0  0  0  0  0  0  0
   12.9972   81.8829   40.8625 H   0  0  0  0  0  0  0  0  0  0  0  0
   11.3709   81.3806   40.9656 H   0  0  0  0  0  0  0  0  0  0  0  0
    6.2494   87.6203   43.3351 C   0  0  0  0  0  0  0  0  0  0  0  0
    6.1259   88.0788   42.0074 O   0  0  0  0  0  0  0  0  0  0  0  0
    5.4575   89.3655   41.5175 P   0  0  0  0  0  0  0  0  0  0  0  0
    6.4862   90.1701   40.8199 O   0  0  0  0  0  0  0  0  0  0  0  0
    4.8056   90.0645   42.6303 O   0  0  0  0  0  0  0  0  0  0  0  0
    4.4890   88.8242   40.5351 O   0  0  0  0  0  0  0  0  0  0  0  0
    6.0886   90.9942   40.4978 H   0  0  0  0  0  0  0  0  0  0  0  0
    3.9868   89.5541   40.1403 H   0  0  0  0  0  0  0  0  0  0  0  0
 28 29  1  0  0  0
 28 30  2  0  0  0
 28 31  1  0  0  0
 28 27  1  0  0  0
 11 18  1  0  0  0
 11 19  1  0  0  0
 11 20  2  0  0  0
 27 26  1  0  0  0
 26  1  1  0  0  0
  1  2  1  0  0  0
  1  3  1  0  0  0
  2  7  1  0  0  0
  3  4  1  0  0  0
  3  5  1  0  0  0
  5  6  1  0  0  0
  5  7  1  0  0  0
  7 12  1  0  0  0
 12 13  2  0  0  0
 12 21  1  0  0  0
 13 14  1  0  0  0
 14 15  1  0  0  0
 15 16  1  0  0  0
 15 21  2  0  0  0
 16 17  2  0  0  0
 16 18  1  0  0  0
 20 21  1  0  0  0
 29 32  1  0  0  0
 31 33  1  0  0  0
  2  8  1  0  0  0
  4  9  1  0  0  0
  6 10  1  0  0  0
 14 22  1  0  0  0
 18 23  1  0  0  0
 19 24  1  0  0  0
 19 25  1  0  0  0
M  END
> <minimizedAffinity>
-9.23768

$$$$
1BZY_IMU_A_300


 33 35  0  0  0  0  0  0  0  0999 V2000
    6.5602   87.5573   40.1446 C   0  0  0  0  0  0  0  0  0  0  0  0
    6.7890   88.1495   41.4191 N   0  0  0  0  0  0  0  0  0  0  0  0
    7.5065   86.4311   39.9339 C   0  0  0  0  0  0  0  0  0  0  0  0
    8.4397   86.8400   38.9472 O   0  0  0  0  0  0  0  0  0  0  0  0
    8.0942   86.2279   41.3002 C   0  0  0  0  0  0  0  0  0  0  0  0
    9.5167   86.1423   41.2591 O   0  0  0  0  0  0  0  0  0  0  0  0
    7.6574   87.3844   42.2452 C   0  0  0  0  0  0  0  0  0  0  0  0
    5.8928   88.2492   41.8957 H   0  0  0  0  0  0  0  0  0  0  0  0
    8.8532   87.6743   39.2192 H   0  0  0  0  0  0  0  0  0  0  0  0
    9.8811   86.9748   40.9199 H   0  0  0  0  0  0  0  0  0  0  0  0
    7.6203   83.4302   44.5918 C   0  0  0  0  0  0  0  0  0  0  0  0
    6.8080   86.7958   43.3800 C   0  0  0  0  0  0  0  0  0  0  0  0
    5.7106   87.4179   44.0077 C   0  0  0  0  0  0  0  0  0  0  0  0
    5.1266   86.7197   44.9374 N   0  0  0  0  0  0  0  0  0  0  0  0
    5.8456   85.5246   44.9690 C   0  0  0  0  0  0  0  0  0  0  0  0
    5.6479   84.3656   45.7953 C   0  0  0  0  0  0  0  0  0  0  0  0
    4.7820   84.2081   46.6500 O   0  0  0  0  0  0  0  0  0  0  0  0
    6.5854   83.3472   45.5518 N   0  0  0  0  0  0  0  0  0  0  0  0
    8.4383   82.3796   44.4740 N   0  0  0  0  0  0  0  0  0  0  0  0
    7.8038   84.5293   43.7938 N   0  0  0  0  0  0  0  0  0  0  0  0
    6.8900   85.5484   44.0280 C   0  0  0  0  0  0  0  0  0  0  0  0
    4.3543   86.9761   45.4916 H   0  0  0  0  0  0  0  0  0  0  0  0
    6.5172   82.5221   46.0845 H   0  0  0  0  0  0  0  0  0  0  0  0
    8.3091   81.5886   45.0458 H   0  0  0  0  0  0  0  0  0  0  0  0
    9.1700   82.3968   43.8156 H   0  0  0  0  0  0  0  0  0  0  0  0
    5.1800   87.0480   40.0463 C   0  0  0  0  0  0  0  0  0  0  0  0
    4.4306   88.0558   39.4052 O   0  0  0  0  0  0  0  0  0  0  0  0
    3.4889   89.0769   40.0477 P   0  0  0  0  0  0  0  0  0  0  0  0
    2.8155   89.8175   38.9566 O   0  0  0  0  0  0  0  0  0  0  0  0
    4.2201   89.9330   40.9882 O   0  0  0  0  0  0  0  0  0  0  0  0
    2.5197   88.1818   40.7225 O   0  0  0  0  0  0  0  0  0  0  0  0
    2.2106   90.4737   39.3366 H   0  0  0  0  0  0  0  0  0  0  0  0
    1.8511   88.7153   41.1800 H   0  0  0  0  0  0  0  0  0  0  0  0
 28 29  1  0  0  0
 28 30  2  0  0  0
 28 31  1  0  0  0
 28 27  1  0  0  0
 11 18  1  0  0  0
 11 19  1  0  0  0
 11 20  2  0  0  0
 27 26  1  0  0  0
 26  1  1  0  0  0
  1  2  1  0  0  0
  1  3  1  0  0  0
  2  7  1  0  0  0
  3  4  1  0  0  0
  3  5  1  0  0  0
  5  6  1  0  0  0
  5  7  1  0  0  0
  7 12  1  0  0  0
 12 13  2  0  0  0
 12 21  1  0  0  0
 13 14  1  0  0  0
 14 15  1  0  0  0
 15 16  1  0  0  0
 15 21  2  0  0  0
 16 17  2  0  0  0
 16 18  1  0  0  0
 20 21  1  0  0  0
 29 32  1  0  0  0
 31 33  1  0  0  0
  2  8  1  0  0  0
  4  9  1  0  0  0
  6 10  1  0  0  0
 14 22  1  0  0  0
 18 23  1  0  0  0
 19 24  1  0  0  0
 19 25  1  0  0  0
M  END
> <minimizedAffinity>
-8.85348

$$$$
1BZY_IMU_A_300


 33 35  0  0  0  0  0  0  0  0999 V2000
    5.8297   87.4473   40.3390 C   0  0  0  0  0  0  0  0  0  0  0  0
    6.0618   87.5469   41.7402 N   0  0  0  0  0  0  0  0  0  0  0  0
    7.1022   87.1363   39.6373 C   0  0  0  0  0  0  0  0  0  0  0  0
    7.4856   88.2977   38.9191 O   0  0  0  0  0  0  0  0  0  0  0  0
    8.0240   86.7685   40.7636 C   0  0  0  0  0  0  0  0  0  0  0  0
    9.2762   87.4432   40.6669 O   0  0  0  0  0  0  0  0  0  0  0  0
    7.3504   87.0887   42.1292 C   0  0  0  0  0  0  0  0  0  0  0  0
    5.3593   86.9889   42.2255 H   0  0  0  0  0  0  0  0  0  0  0  0
    7.5288   89.0534   39.5256 H   0  0  0  0  0  0  0  0  0  0  0  0
    9.1329   88.4008   40.7255 H   0  0  0  0  0  0  0  0  0  0  0  0
   10.1320   83.8242   43.7874 C   0  0  0  0  0  0  0  0  0  0  0  0
    7.1556   85.7755   42.8995 C   0  0  0  0  0  0  0  0  0  0  0  0
    5.9239   85.2165   43.2943 C   0  0  0  0  0  0  0  0  0  0  0  0
    5.9999   84.0806   43.9242 N   0  0  0  0  0  0  0  0  0  0  0  0
    7.3674   83.8091   43.9744 C   0  0  0  0  0  0  0  0  0  0  0  0
    8.0504   82.6796   44.5425 C   0  0  0  0  0  0  0  0  0  0  0  0
    7.5404   81.7149   45.1035 O   0  0  0  0  0  0  0  0  0  0  0  0
    9.4478   82.7572   44.4142 N   0  0  0  0  0  0  0  0  0  0  0  0
   11.4664   83.7597   43.7424 N   0  0  0  0  0  0  0  0  0  0  0  0
    9.4828   84.8968   43.2338 N   0  0  0  0  0  0  0  0  0  0  0  0
    8.1010   84.8390   43.3597 C   0  0  0  0  0  0  0  0  0  0  0  0
    5.2616   83.5372   44.2832 H   0  0  0  0  0  0  0  0  0  0  0  0
    9.9855   82.0206   44.7851 H   0  0  0  0  0  0  0  0  0  0  0  0
   11.9357   82.9905   44.1391 H   0  0  0  0  0  0  0  0  0  0  0  0
   11.9799   84.4814   43.3126 H   0  0  0  0  0  0  0  0  0  0  0  0
    4.8496   86.3853   40.0467 C   0  0  0  0  0  0  0  0  0  0  0  0
    3.7345   87.0241   39.4664 O   0  0  0  0  0  0  0  0  0  0  0  0
    2.2772   86.9730   39.9309 P   0  0  0  0  0  0  0  0  0  0  0  0
    2.1772   85.9407   40.9877 O   0  0  0  0  0  0  0  0  0  0  0  0
    1.3800   86.7506   38.7918 O   0  0  0  0  0  0  0  0  0  0  0  0
    2.1232   88.3210   40.5267 O   0  0  0  0  0  0  0  0  0  0  0  0
    1.2609   85.8867   41.3014 H   0  0  0  0  0  0  0  0  0  0  0  0
    1.2209   88.4225   40.8680 H   0  0  0  0  0  0  0  0  0  0  0  0
 28 29  1  0  0  0
 28 30  2  0  0  0
 28 31  1  0  0  0
 28 27  1  0  0  0
 11 18  1  0  0  0
 11 19  1  0  0  0
 11 20  2  0  0  0
 27 26  1  0  0  0
 26  1  1  0  0  0
  1  2  1  0  0  0
  1  3  1  0  0  0
  2  7  1  0  0  0
  3  4  1  0  0  0
  3  5  1  0  0  0
  5  6  1  0  0  0
  5  7  1  0  0  0
  7 12  1  0  0  0
 12 13  2  0  0  0
 12 21  1  0  0  0
 13 14  1  0  0  0
 14 15  1  0  0  0
 15 16  1  0  0  0
 15 21  2  0  0  0
 16 17  2  0  0  0
 16 18  1  0  0  0
 20 21  1  0  0  0
 29 32  1  0  0  0
 31 33  1  0  0  0
  2  8  1  0  0  0
  4  9  1  0  0  0
  6 10  1  0  0  0
 14 22  1  0  0  0
 18 23  1  0  0  0
 19 24  1  0  0  0
 19 25  1  0  0  0
M  END
> <minimizedAffinity>
-8.81811

$$$$
1BZY_IMU_A_300


 33 35  0  0  0  0  0  0  0  0999 V2000
   10.2477   84.7783   43.5024 C   0  0  0  0  0  0  0  0  0  0  0  0
    9.3016   85.8170   43.7328 N   0  0  0  0  0  0  0  0  0  0  0  0
    9.6627   83.4678   43.8881 C   0  0  0  0  0  0  0  0  0  0  0  0
   10.3250   83.0378   45.0664 O   0  0  0  0  0  0  0  0  0  0  0  0
    8.2090   83.7923   44.0745 C   0  0  0  0  0  0  0  0  0  0  0  0
    7.7018   83.2723   45.3013 O   0  0  0  0  0  0  0  0  0  0  0  0
    7.9960   85.3327   44.0204 C   0  0  0  0  0  0  0  0  0  0  0  0
    9.2537   86.4025   42.8990 H   0  0  0  0  0  0  0  0  0  0  0  0
   10.2599   83.7285   45.7443 H   0  0  0  0  0  0  0  0  0  0  0  0
    8.1753   83.6775   46.0446 H   0  0  0  0  0  0  0  0  0  0  0  0
    8.5378   87.6948   40.1126 C   0  0  0  0  0  0  0  0  0  0  0  0
    7.1093   85.6628   42.8118 C   0  0  0  0  0  0  0  0  0  0  0  0
    5.7664   85.2752   42.6336 C   0  0  0  0  0  0  0  0  0  0  0  0
    5.2053   85.6866   41.5341 N   0  0  0  0  0  0  0  0  0  0  0  0
    6.2056   86.4183   40.8936 C   0  0  0  0  0  0  0  0  0  0  0  0
    6.1585   87.1205   39.6408 C   0  0  0  0  0  0  0  0  0  0  0  0
    5.1992   87.2103   38.8811 O   0  0  0  0  0  0  0  0  0  0  0  0
    7.3758   87.7392   39.3081 N   0  0  0  0  0  0  0  0  0  0  0  0
    9.6239   88.3315   39.6635 N   0  0  0  0  0  0  0  0  0  0  0  0
    8.5822   87.0363   41.3138 N   0  0  0  0  0  0  0  0  0  0  0  0
    7.3889   86.4123   41.6531 C   0  0  0  0  0  0  0  0  0  0  0  0
    4.2856   85.5196   41.2250 H   0  0  0  0  0  0  0  0  0  0  0  0
    7.4225   88.2360   38.4594 H   0  0  0  0  0  0  0  0  0  0  0  0
    9.5952   88.8055   38.8010 H   0  0  0  0  0  0  0  0  0  0  0  0
   10.4525   88.3265   40.1951 H   0  0  0  0  0  0  0  0  0  0  0  0
   10.6339   84.7304   42.0803 C   0  0  0  0  0  0  0  0  0  0  0  0
   11.8220   83.9736   42.0177 O   0  0  0  0  0  0  0  0  0  0  0  0
   12.2103   82.9213   40.9765 P   0  0  0  0  0  0  0  0  0  0  0  0
   11.7096   83.3826   39.6615 O   0  0  0  0  0  0  0  0  0  0  0  0
   11.7178   81.5974   41.3722 O   0  0  0  0  0  0  0  0  0  0  0  0
   13.6885   83.0178   41.0151 O   0  0  0  0  0  0  0  0  0  0  0  0
   11.9425   82.7323   38.9806 H   0  0  0  0  0  0  0  0  0  0  0  0
   14.0703   82.3867   40.3851 H   0  0  0  0  0  0  0  0  0  0  0  0
 28 29  1  0  0  0
 28 30  2  0  0  0
 28 31  1  0  0  0
 28 27  1  0  0  0
 11 18  1  0  0  0
 11 19  1  0  0  0
 11 20  2  0  0  0
 27 26  1  0  0  0
 26  1  1  0  0  0
  1  2  1  0  0  0
  1  3  1  0  0  0
  2  7  1  0  0  0
  3  4  1  0  0  0
  3  5  1  0  0  0
  5  6  1  0  0  0
  5  7  1  0  0  0
  7 12  1  0  0  0
 12 13  2  0  0  0
 12 21  1  0  0  0
 13 14  1  0  0  0
 14 15  1  0  0  0
 15 16  1  0  0  0
 15 21  2  0  0  0
 16 17  2  0  0  0
 16 18  1  0  0  0
 20 21  1  0  0  0
 29 32  1  0  0  0
 31 33  1  0  0  0
  2  8  1  0  0  0
  4  9  1  0  0  0
  6 10  1  0  0  0
 14 22  1  0  0  0
 18 23  1  0  0  0
 19 24  1  0  0  0
 19 25  1  0  0  0
M  END
> <minimizedAffinity>
-8.72429

$$$$
