1M5W_DXP_A_1001


 17 16  0  0  0  0  0  0  0  0999 V2000
   31.0673    2.8179   35.6108 C   0  0  0  0  0  0  0  0  0  0  0  0
   31.1152    3.7286   34.4796 O   0  0  0  0  0  0  0  0  0  0  0  0
   31.3026    3.2287   33.6697 H   0  0  0  0  0  0  0  0  0  0  0  0
   30.1145    1.8474   35.7238 C   0  0  0  0  0  0  0  0  0  0  0  0
   30.7632    0.7889   36.0236 O   0  0  0  0  0  0  0  0  0  0  0  0
   31.2411    0.4703   35.2419 H   0  0  0  0  0  0  0  0  0  0  0  0
   29.4585    0.8900   33.5105 C   0  0  0  0  0  0  0  0  0  0  0  0
   29.0478    1.3739   34.9215 C   0  0  0  0  0  0  0  0  0  0  0  0
   27.8932    1.3247   35.3225 O   0  0  0  0  0  0  0  0  0  0  0  0
   32.3591    2.0692   35.4651 C   0  0  0  0  0  0  0  0  0  0  0  0
   33.4320    2.3123   36.3607 O   0  0  0  0  0  0  0  0  0  0  0  0
   34.6429    3.1133   36.0996 P   0  0  0  0  0  0  0  0  0  0  0  0
   35.5457    2.2239   35.1911 O   0  0  0  0  0  0  0  0  0  0  0  0
   35.2080    3.4395   37.5592 O   0  0  0  0  0  0  0  0  0  0  0  0
   34.0217    4.3879   35.3243 O   0  0  0  0  0  0  0  0  0  0  0  0
   35.8890    1.4780   35.7075 H   0  0  0  0  0  0  0  0  0  0  0  0
   35.5617    2.6289   37.9575 H   0  0  0  0  0  0  0  0  0  0  0  0
  7  8  1  0  0  0
  8  4  1  0  0  0
  8  9  2  0  0  0
  4  1  1  0  0  0
  4  5  1  0  0  0
  1 10  1  0  0  0
  1  2  1  0  0  0
 10 11  1  0  0  0
 11 12  1  0  0  0
 12 13  1  0  0  0
 12 14  1  0  0  0
 12 15  2  0  0  0
  5  6  1  0  0  0
  2  3  1  0  0  0
 13 16  1  0  0  0
 14 17  1  0  0  0
M  END
> <minimizedAffinity>
-7.78288

$$$$
1M5W_DXP_A_1001


 17 16  0  0  0  0  0  0  0  0999 V2000
   30.7736    2.7671   36.8406 C   0  0  0  0  0  0  0  0  0  0  0  0
   31.0415    3.9034   35.9755 O   0  0  0  0  0  0  0  0  0  0  0  0
   31.5169    3.6030   35.1851 H   0  0  0  0  0  0  0  0  0  0  0  0
   29.9534    1.7432   36.4641 C   0  0  0  0  0  0  0  0  0  0  0  0
   30.7372    0.7534   36.2717 O   0  0  0  0  0  0  0  0  0  0  0  0
   31.2324    0.8883   35.4487 H   0  0  0  0  0  0  0  0  0  0  0  0
   29.4251    1.5609   34.0283 C   0  0  0  0  0  0  0  0  0  0  0  0
   28.9358    1.5614   35.4960 C   0  0  0  0  0  0  0  0  0  0  0  0
   27.7627    1.3898   35.7974 O   0  0  0  0  0  0  0  0  0  0  0  0
   32.1315    2.1418   36.9659 C   0  0  0  0  0  0  0  0  0  0  0  0
   33.2510    2.7272   36.3208 O   0  0  0  0  0  0  0  0  0  0  0  0
   33.7532    2.4269   34.9666 P   0  0  0  0  0  0  0  0  0  0  0  0
   33.0161    1.1255   34.5255 O   0  0  0  0  0  0  0  0  0  0  0  0
   35.3360    2.3140   35.1618 O   0  0  0  0  0  0  0  0  0  0  0  0
   33.2731    3.7363   34.1503 O   0  0  0  0  0  0  0  0  0  0  0  0
   33.3435    0.3759   35.0469 H   0  0  0  0  0  0  0  0  0  0  0  0
   35.5439    1.5068   35.6579 H   0  0  0  0  0  0  0  0  0  0  0  0
  7  8  1  0  0  0
  8  4  1  0  0  0
  8  9  2  0  0  0
  4  1  1  0  0  0
  4  5  1  0  0  0
  1 10  1  0  0  0
  1  2  1  0  0  0
 10 11  1  0  0  0
 11 12  1  0  0  0
 12 13  1  0  0  0
 12 14  1  0  0  0
 12 15  2  0  0  0
  5  6  1  0  0  0
  2  3  1  0  0  0
 13 16  1  0  0  0
 14 17  1  0  0  0
M  END
> <minimizedAffinity>
-7.66313

$$$$
1M5W_DXP_A_1001


 17 16  0  0  0  0  0  0  0  0999 V2000
   30.5794    2.0768   34.6670 C   0  0  0  0  0  0  0  0  0  0  0  0
   31.2156    1.1979   33.7005 O   0  0  0  0  0  0  0  0  0  0  0  0
   32.0611    0.8833   34.0570 H   0  0  0  0  0  0  0  0  0  0  0  0
   30.1548    1.6325   35.8855 C   0  0  0  0  0  0  0  0  0  0  0  0
   31.0463    0.7959   36.2548 O   0  0  0  0  0  0  0  0  0  0  0  0
   30.9602   -0.0187   35.7354 H   0  0  0  0  0  0  0  0  0  0  0  0
   29.0689    0.4985   37.8299 C   0  0  0  0  0  0  0  0  0  0  0  0
   28.9523    1.0972   36.4081 C   0  0  0  0  0  0  0  0  0  0  0  0
   27.8947    1.1302   35.7940 O   0  0  0  0  0  0  0  0  0  0  0  0
   31.6788    3.0492   34.9773 C   0  0  0  0  0  0  0  0  0  0  0  0
   33.0352    2.6803   34.7867 O   0  0  0  0  0  0  0  0  0  0  0  0
   34.1531    2.8897   35.7263 P   0  0  0  0  0  0  0  0  0  0  0  0
   35.3660    2.1271   35.1109 O   0  0  0  0  0  0  0  0  0  0  0  0
   33.5947    2.3303   37.1160 O   0  0  0  0  0  0  0  0  0  0  0  0
   34.3193    4.4962   35.6719 O   0  0  0  0  0  0  0  0  0  0  0  0
   35.2113    1.1714   35.1709 H   0  0  0  0  0  0  0  0  0  0  0  0
   33.5234    1.3640   37.0704 H   0  0  0  0  0  0  0  0  0  0  0  0
  7  8  1  0  0  0
  8  4  1  0  0  0
  8  9  2  0  0  0
  4  1  1  0  0  0
  4  5  1  0  0  0
  1 10  1  0  0  0
  1  2  1  0  0  0
 10 11  1  0  0  0
 11 12  1  0  0  0
 12 13  1  0  0  0
 12 14  1  0  0  0
 12 15  2  0  0  0
  5  6  1  0  0  0
  2  3  1  0  0  0
 13 16  1  0  0  0
 14 17  1  0  0  0
M  END
> <minimizedAffinity>
-7.64140

$$$$
1M5W_DXP_A_1001


 17 16  0  0  0  0  0  0  0  0999 V2000
   31.0768    2.0752   36.5446 C   0  0  0  0  0  0  0  0  0  0  0  0
   30.6235    0.7317   36.2272 O   0  0  0  0  0  0  0  0  0  0  0  0
   31.1416    0.0873   36.7344 H   0  0  0  0  0  0  0  0  0  0  0  0
   30.9410    2.6135   37.7914 C   0  0  0  0  0  0  0  0  0  0  0  0
   32.0519    2.3706   38.3727 O   0  0  0  0  0  0  0  0  0  0  0  0
   32.1003    1.4281   38.5968 H   0  0  0  0  0  0  0  0  0  0  0  0
   29.5274    3.8887   39.4104 C   0  0  0  0  0  0  0  0  0  0  0  0
   29.9878    2.5282   38.8354 C   0  0  0  0  0  0  0  0  0  0  0  0
   29.5409    1.4615   39.2341 O   0  0  0  0  0  0  0  0  0  0  0  0
   32.5583    1.9632   36.3368 C   0  0  0  0  0  0  0  0  0  0  0  0
   33.3035    3.0814   35.8822 O   0  0  0  0  0  0  0  0  0  0  0  0
   34.7284    3.3633   36.1399 P   0  0  0  0  0  0  0  0  0  0  0  0
   35.5219    2.3827   35.2232 O   0  0  0  0  0  0  0  0  0  0  0  0
   34.8831    3.1431   37.7158 O   0  0  0  0  0  0  0  0  0  0  0  0
   34.8396    4.9047   35.6673 O   0  0  0  0  0  0  0  0  0  0  0  0
   35.4192    1.4765   35.5537 H   0  0  0  0  0  0  0  0  0  0  0  0
   34.8052    2.1979   37.9194 H   0  0  0  0  0  0  0  0  0  0  0  0
  7  8  1  0  0  0
  8  4  1  0  0  0
  8  9  2  0  0  0
  4  1  1  0  0  0
  4  5  1  0  0  0
  1 10  1  0  0  0
  1  2  1  0  0  0
 10 11  1  0  0  0
 11 12  1  0  0  0
 12 13  1  0  0  0
 12 14  1  0  0  0
 12 15  2  0  0  0
  5  6  1  0  0  0
  2  3  1  0  0  0
 13 16  1  0  0  0
 14 17  1  0  0  0
M  END
> <minimizedAffinity>
-7.58168

$$$$
1M5W_DXP_A_1001


 17 16  0  0  0  0  0  0  0  0999 V2000
   29.6680    0.5920   37.4137 C   0  0  0  0  0  0  0  0  0  0  0  0
   29.5372   -0.7392   37.9812 O   0  0  0  0  0  0  0  0  0  0  0  0
   28.6963   -0.8054   38.4602 H   0  0  0  0  0  0  0  0  0  0  0  0
   28.8246    1.0569   36.4466 C   0  0  0  0  0  0  0  0  0  0  0  0
   27.6548    0.7673   36.8694 O   0  0  0  0  0  0  0  0  0  0  0  0
   27.5066   -0.1873   36.7822 H   0  0  0  0  0  0  0  0  0  0  0  0
   29.2210    2.1379   34.2286 C   0  0  0  0  0  0  0  0  0  0  0  0
   28.7190    0.9207   35.0409 C   0  0  0  0  0  0  0  0  0  0  0  0
   28.2896   -0.0930   34.5075 O   0  0  0  0  0  0  0  0  0  0  0  0
   29.4035    1.4670   38.6033 C   0  0  0  0  0  0  0  0  0  0  0  0
   29.1591    2.8536   38.4313 O   0  0  0  0  0  0  0  0  0  0  0  0
   29.4693    3.9353   39.3852 P   0  0  0  0  0  0  0  0  0  0  0  0
   28.4569    3.7624   40.5584 O   0  0  0  0  0  0  0  0  0  0  0  0
   29.3240    5.2676   38.5135 O   0  0  0  0  0  0  0  0  0  0  0  0
   30.9884    3.5706   39.7986 O   0  0  0  0  0  0  0  0  0  0  0  0
   27.5658    3.9944   40.2533 H   0  0  0  0  0  0  0  0  0  0  0  0
   28.3884    5.4181   38.3064 H   0  0  0  0  0  0  0  0  0  0  0  0
  7  8  1  0  0  0
  8  4  1  0  0  0
  8  9  2  0  0  0
  4  1  1  0  0  0
  4  5  1  0  0  0
  1 10  1  0  0  0
  1  2  1  0  0  0
 10 11  1  0  0  0
 11 12  1  0  0  0
 12 13  1  0  0  0
 12 14  1  0  0  0
 12 15  2  0  0  0
  5  6  1  0  0  0
  2  3  1  0  0  0
 13 16  1  0  0  0
 14 17  1  0  0  0
M  END
> <minimizedAffinity>
-7.31785

$$$$
1M5W_DXP_A_1001


 17 16  0  0  0  0  0  0  0  0999 V2000
   30.5803    1.8043   34.8174 C   0  0  0  0  0  0  0  0  0  0  0  0
   29.7629    2.9285   34.3939 O   0  0  0  0  0  0  0  0  0  0  0  0
   29.8190    3.6362   35.0550 H   0  0  0  0  0  0  0  0  0  0  0  0
   31.9373    1.8936   34.9323 C   0  0  0  0  0  0  0  0  0  0  0  0
   32.2163    1.2459   35.9970 O   0  0  0  0  0  0  0  0  0  0  0  0
   31.9439    1.7632   36.7710 H   0  0  0  0  0  0  0  0  0  0  0  0
   33.9924    2.8377   35.9956 C   0  0  0  0  0  0  0  0  0  0  0  0
   32.8906    2.9407   34.9144 C   0  0  0  0  0  0  0  0  0  0  0  0
   32.8623    3.8436   34.0894 O   0  0  0  0  0  0  0  0  0  0  0  0
   30.0933    1.5728   36.2174 C   0  0  0  0  0  0  0  0  0  0  0  0
   29.7151    2.6694   37.0339 O   0  0  0  0  0  0  0  0  0  0  0  0
   29.9798    2.8362   38.4756 P   0  0  0  0  0  0  0  0  0  0  0  0
   28.9884    1.8734   39.1978 O   0  0  0  0  0  0  0  0  0  0  0  0
   29.7597    4.3998   38.7265 O   0  0  0  0  0  0  0  0  0  0  0  0
   31.5191    2.3545   38.5755 O   0  0  0  0  0  0  0  0  0  0  0  0
   28.0840    2.2116   39.1050 H   0  0  0  0  0  0  0  0  0  0  0  0
   28.8158    4.6098   38.6501 H   0  0  0  0  0  0  0  0  0  0  0  0
  7  8  1  0  0  0
  8  4  1  0  0  0
  8  9  2  0  0  0
  4  1  1  0  0  0
  4  5  1  0  0  0
  1 10  1  0  0  0
  1  2  1  0  0  0
 10 11  1  0  0  0
 11 12  1  0  0  0
 12 13  1  0  0  0
 12 14  1  0  0  0
 12 15  2  0  0  0
  5  6  1  0  0  0
  2  3  1  0  0  0
 13 16  1  0  0  0
 14 17  1  0  0  0
M  END
> <minimizedAffinity>
-7.18586

$$$$
1M5W_DXP_A_1001


 17 16  0  0  0  0  0  0  0  0999 V2000
   35.5100    3.5974   36.3393 C   0  0  0  0  0  0  0  0  0  0  0  0
   35.9496    2.5727   35.4077 O   0  0  0  0  0  0  0  0  0  0  0  0
   35.7815    2.8680   34.4992 H   0  0  0  0  0  0  0  0  0  0  0  0
   36.0944    4.8295   36.3948 C   0  0  0  0  0  0  0  0  0  0  0  0
   35.1381    5.6517   36.1933 O   0  0  0  0  0  0  0  0  0  0  0  0
   34.8808    5.6256   35.2584 H   0  0  0  0  0  0  0  0  0  0  0  0
   38.0506    6.3499   36.7220 C   0  0  0  0  0  0  0  0  0  0  0  0
   37.2098    5.4523   35.7835 C   0  0  0  0  0  0  0  0  0  0  0  0
   37.5032    5.2727   34.6095 O   0  0  0  0  0  0  0  0  0  0  0  0
   34.1076    3.8609   35.8763 C   0  0  0  0  0  0  0  0  0  0  0  0
   33.5484    3.0991   34.8183 O   0  0  0  0  0  0  0  0  0  0  0  0
   32.2525    2.3942   34.8199 P   0  0  0  0  0  0  0  0  0  0  0  0
   32.3651    1.3079   33.7068 O   0  0  0  0  0  0  0  0  0  0  0  0
   31.1841    3.5571   34.5705 O   0  0  0  0  0  0  0  0  0  0  0  0
   32.2280    1.7741   36.3120 O   0  0  0  0  0  0  0  0  0  0  0  0
   32.3753    1.7365   32.8367 H   0  0  0  0  0  0  0  0  0  0  0  0
   31.2604    3.8759   33.6576 H   0  0  0  0  0  0  0  0  0  0  0  0
  7  8  1  0  0  0
  8  4  1  0  0  0
  8  9  2  0  0  0
  4  1  1  0  0  0
  4  5  1  0  0  0
  1 10  1  0  0  0
  1  2  1  0  0  0
 10 11  1  0  0  0
 11 12  1  0  0  0
 12 13  1  0  0  0
 12 14  1  0  0  0
 12 15  2  0  0  0
  5  6  1  0  0  0
  2  3  1  0  0  0
 13 16  1  0  0  0
 14 17  1  0  0  0
M  END
> <minimizedAffinity>
-7.14655

$$$$
1M5W_DXP_A_1001


 17 16  0  0  0  0  0  0  0  0999 V2000
   31.4724    2.4826   36.9342 C   0  0  0  0  0  0  0  0  0  0  0  0
   31.9631    2.4117   38.3000 O   0  0  0  0  0  0  0  0  0  0  0  0
   32.2769    1.5126   38.4845 H   0  0  0  0  0  0  0  0  0  0  0  0
   32.2916    2.3079   35.8566 C   0  0  0  0  0  0  0  0  0  0  0  0
   32.8818    1.1965   36.0743 O   0  0  0  0  0  0  0  0  0  0  0  0
   33.5423    1.3130   36.7751 H   0  0  0  0  0  0  0  0  0  0  0  0
   34.6470    3.1423   35.8906 C   0  0  0  0  0  0  0  0  0  0  0  0
   33.2696    3.0846   35.1887 C   0  0  0  0  0  0  0  0  0  0  0  0
   33.0512    3.6448   34.1233 O   0  0  0  0  0  0  0  0  0  0  0  0
   30.5215    1.3234   36.8824 C   0  0  0  0  0  0  0  0  0  0  0  0
   30.0290    0.8572   35.6364 O   0  0  0  0  0  0  0  0  0  0  0  0
   28.7273    1.1767   35.0202 P   0  0  0  0  0  0  0  0  0  0  0  0
   28.9501    2.5057   34.2356 O   0  0  0  0  0  0  0  0  0  0  0  0
   27.7228    1.2462   36.2621 O   0  0  0  0  0  0  0  0  0  0  0  0
   28.5083   -0.1012   34.0555 O   0  0  0  0  0  0  0  0  0  0  0  0
   29.0752    3.2346   34.8632 H   0  0  0  0  0  0  0  0  0  0  0  0
   27.9163    2.0363   36.7906 H   0  0  0  0  0  0  0  0  0  0  0  0
  7  8  1  0  0  0
  8  4  1  0  0  0
  8  9  2  0  0  0
  4  1  1  0  0  0
  4  5  1  0  0  0
  1 10  1  0  0  0
  1  2  1  0  0  0
 10 11  1  0  0  0
 11 12  1  0  0  0
 12 13  1  0  0  0
 12 14  1  0  0  0
 12 15  2  0  0  0
  5  6  1  0  0  0
  2  3  1  0  0  0
 13 16  1  0  0  0
 14 17  1  0  0  0
M  END
> <minimizedAffinity>
-7.13749

$$$$
1M5W_DXP_A_1001


 17 16  0  0  0  0  0  0  0  0999 V2000
   32.0311    1.8800   35.6776 C   0  0  0  0  0  0  0  0  0  0  0  0
   31.6001    2.0459   34.2999 O   0  0  0  0  0  0  0  0  0  0  0  0
   31.5546    2.9912   34.0870 H   0  0  0  0  0  0  0  0  0  0  0  0
   33.2697    2.2633   36.1038 C   0  0  0  0  0  0  0  0  0  0  0  0
   33.1965    2.2384   37.3786 O   0  0  0  0  0  0  0  0  0  0  0  0
   32.6681    2.9912   37.6868 H   0  0  0  0  0  0  0  0  0  0  0  0
   35.3726    3.4351   36.7748 C   0  0  0  0  0  0  0  0  0  0  0  0
   34.1456    3.3436   35.8368 C   0  0  0  0  0  0  0  0  0  0  0  0
   33.9619    4.1291   34.9172 O   0  0  0  0  0  0  0  0  0  0  0  0
   31.0800    2.7769   36.4136 C   0  0  0  0  0  0  0  0  0  0  0  0
   30.3628    2.2912   37.5370 O   0  0  0  0  0  0  0  0  0  0  0  0
   29.9565    3.0574   38.7304 P   0  0  0  0  0  0  0  0  0  0  0  0
   28.7464    2.2814   39.3345 O   0  0  0  0  0  0  0  0  0  0  0  0
   29.6486    4.5189   38.1601 O   0  0  0  0  0  0  0  0  0  0  0  0
   31.2892    2.9629   39.6395 O   0  0  0  0  0  0  0  0  0  0  0  0
   27.9786    2.3731   38.7488 H   0  0  0  0  0  0  0  0  0  0  0  0
   28.8381    4.4941   37.6278 H   0  0  0  0  0  0  0  0  0  0  0  0
  7  8  1  0  0  0
  8  4  1  0  0  0
  8  9  2  0  0  0
  4  1  1  0  0  0
  4  5  1  0  0  0
  1 10  1  0  0  0
  1  2  1  0  0  0
 10 11  1  0  0  0
 11 12  1  0  0  0
 12 13  1  0  0  0
 12 14  1  0  0  0
 12 15  2  0  0  0
  5  6  1  0  0  0
  2  3  1  0  0  0
 13 16  1  0  0  0
 14 17  1  0  0  0
M  END
> <minimizedAffinity>
-6.98234

$$$$
1M5W_DXP_A_1001


 17 16  0  0  0  0  0  0  0  0999 V2000
   29.1861    1.1172   37.6952 C   0  0  0  0  0  0  0  0  0  0  0  0
   29.8139   -0.1669   37.4338 O   0  0  0  0  0  0  0  0  0  0  0  0
   30.7701   -0.0435   37.3273 H   0  0  0  0  0  0  0  0  0  0  0  0
   29.4443    1.8367   38.8258 C   0  0  0  0  0  0  0  0  0  0  0  0
   28.2934    2.1656   39.2712 O   0  0  0  0  0  0  0  0  0  0  0  0
   27.9152    2.8594   38.7086 H   0  0  0  0  0  0  0  0  0  0  0  0
   29.5017    4.2582   39.4411 C   0  0  0  0  0  0  0  0  0  0  0  0
   30.2644    2.9417   39.1605 C   0  0  0  0  0  0  0  0  0  0  0  0
   31.4815    2.8562   39.2487 O   0  0  0  0  0  0  0  0  0  0  0  0
   29.7206    1.9609   36.5758 C   0  0  0  0  0  0  0  0  0  0  0  0
   30.8340    1.5194   35.8158 O   0  0  0  0  0  0  0  0  0  0  0  0
   32.0319    2.3025   35.4578 P   0  0  0  0  0  0  0  0  0  0  0  0
   31.5706    3.7920   35.4464 O   0  0  0  0  0  0  0  0  0  0  0  0
   32.4840    1.6892   34.0523 O   0  0  0  0  0  0  0  0  0  0  0  0
   33.0207    1.9534   36.6874 O   0  0  0  0  0  0  0  0  0  0  0  0
   30.9820    3.9424   34.6902 H   0  0  0  0  0  0  0  0  0  0  0  0
   31.8437    1.9411   33.3686 H   0  0  0  0  0  0  0  0  0  0  0  0
  7  8  1  0  0  0
  8  4  1  0  0  0
  8  9  2  0  0  0
  4  1  1  0  0  0
  4  5  1  0  0  0
  1 10  1  0  0  0
  1  2  1  0  0  0
 10 11  1  0  0  0
 11 12  1  0  0  0
 12 13  1  0  0  0
 12 14  1  0  0  0
 12 15  2  0  0  0
  5  6  1  0  0  0
  2  3  1  0  0  0
 13 16  1  0  0  0
 14 17  1  0  0  0
M  END
> <minimizedAffinity>
-6.78981

$$$$
