4G0Z_5GP_A_801


 31 33  0  0  0  0  0  0  0  0999 V2000
   27.5685   32.9624   39.7411 C   0  0  0  0  0  0  0  0  0  0  0  0
   27.2727   31.6087   39.4018 O   0  0  0  0  0  0  0  0  0  0  0  0
   28.6858   32.9206   40.7769 C   0  0  0  0  0  0  0  0  0  0  0  0
   28.3302   33.7328   41.9027 O   0  0  0  0  0  0  0  0  0  0  0  0
   28.7565   31.4860   41.2403 C   0  0  0  0  0  0  0  0  0  0  0  0
   28.3831   31.4803   42.6159 O   0  0  0  0  0  0  0  0  0  0  0  0
   27.7274   30.7222   40.4224 C   0  0  0  0  0  0  0  0  0  0  0  0
   27.4927   33.4176   42.2771 H   0  0  0  0  0  0  0  0  0  0  0  0
   27.5037   31.8777   42.7139 H   0  0  0  0  0  0  0  0  0  0  0  0
   28.3129   29.5136   39.7901 N   0  0  0  0  0  0  0  0  0  0  0  0
   27.6173   28.4506   39.3417 C   0  0  0  0  0  0  0  0  0  0  0  0
   28.4789   27.5567   38.8023 N   0  0  0  0  0  0  0  0  0  0  0  0
   29.7254   28.0729   38.9090 C   0  0  0  0  0  0  0  0  0  0  0  0
   30.9806   27.6140   38.5350 C   0  0  0  0  0  0  0  0  0  0  0  0
   31.0805   26.4981   37.9782 O   0  0  0  0  0  0  0  0  0  0  0  0
   32.0592   28.3753   38.7779 N   0  0  0  0  0  0  0  0  0  0  0  0
   31.9391   29.5743   39.3704 C   0  0  0  0  0  0  0  0  0  0  0  0
   33.0438   30.3272   39.6037 N   0  0  0  0  0  0  0  0  0  0  0  0
   30.7272   30.0465   39.7480 N   0  0  0  0  0  0  0  0  0  0  0  0
   29.6110   29.3124   39.5233 C   0  0  0  0  0  0  0  0  0  0  0  0
   32.9512   28.0498   38.5179 H   0  0  0  0  0  0  0  0  0  0  0  0
   33.9310   29.9962   39.3344 H   0  0  0  0  0  0  0  0  0  0  0  0
   32.9581   31.2045   40.0422 H   0  0  0  0  0  0  0  0  0  0  0  0
   27.9256   33.7545   38.4805 C   0  0  0  0  0  0  0  0  0  0  0  0
   26.7698   33.7582   37.6340 O   0  0  0  0  0  0  0  0  0  0  0  0
   25.4827   34.6742   37.9643 P   0  0  0  0  0  0  0  0  0  0  0  0
   25.0542   35.2183   36.6275 O   0  0  0  0  0  0  0  0  0  0  0  0
   24.4843   33.7006   38.5506 O   0  0  0  0  0  0  0  0  0  0  0  0
   26.0024   35.6885   38.9559 O   0  0  0  0  0  0  0  0  0  0  0  0
   23.6690   34.1729   38.7810 H   0  0  0  0  0  0  0  0  0  0  0  0
   25.2840   36.2879   39.2119 H   0  0  0  0  0  0  0  0  0  0  0  0
 26 27  2  0  0  0
 26 28  1  0  0  0
 26 29  1  0  0  0
 26 25  1  0  0  0
 25 24  1  0  0  0
 24  1  1  0  0  0
  1  2  1  0  0  0
  1  3  1  0  0  0
  2  7  1  0  0  0
  3  4  1  0  0  0
  3  5  1  0  0  0
  5  6  1  0  0  0
  5  7  1  0  0  0
  7 10  1  0  0  0
 10 11  1  0  0  0
 10 20  1  0  0  0
 11 12  2  0  0  0
 12 13  1  0  0  0
 13 14  1  0  0  0
 13 20  2  0  0  0
 14 15  2  0  0  0
 14 16  1  0  0  0
 16 17  1  0  0  0
 17 18  1  0  0  0
 17 19  2  0  0  0
 19 20  1  0  0  0
 28 30  1  0  0  0
 29 31  1  0  0  0
  4  8  1  0  0  0
  6  9  1  0  0  0
 16 21  1  0  0  0
 18 22  1  0  0  0
 18 23  1  0  0  0
M  END
> <minimizedAffinity>
-7.13765

$$$$
4G0Z_5GP_A_801


 31 33  0  0  0  0  0  0  0  0999 V2000
   29.5806   33.4667   39.3828 C   0  0  0  0  0  0  0  0  0  0  0  0
   30.0632   32.9762   38.1332 O   0  0  0  0  0  0  0  0  0  0  0  0
   28.0588   33.4558   39.2997 C   0  0  0  0  0  0  0  0  0  0  0  0
   27.5448   34.7316   39.7017 O   0  0  0  0  0  0  0  0  0  0  0  0
   27.7332   33.2608   37.8390 C   0  0  0  0  0  0  0  0  0  0  0  0
   27.0863   34.4527   37.4001 O   0  0  0  0  0  0  0  0  0  0  0  0
   29.0647   33.1018   37.1226 C   0  0  0  0  0  0  0  0  0  0  0  0
   27.9219   35.4245   39.1373 H   0  0  0  0  0  0  0  0  0  0  0  0
   27.6613   35.2148   37.5719 H   0  0  0  0  0  0  0  0  0  0  0  0
   29.0876   31.8909   36.2645 N   0  0  0  0  0  0  0  0  0  0  0  0
   29.3061   31.8782   34.9351 C   0  0  0  0  0  0  0  0  0  0  0  0
   29.2834   30.5974   34.4977 N   0  0  0  0  0  0  0  0  0  0  0  0
   29.0558   29.8022   35.5689 C   0  0  0  0  0  0  0  0  0  0  0  0
   28.9335   28.4288   35.7255 C   0  0  0  0  0  0  0  0  0  0  0  0
   29.0379   27.6892   34.7218 O   0  0  0  0  0  0  0  0  0  0  0  0
   28.7060   27.9232   36.9481 N   0  0  0  0  0  0  0  0  0  0  0  0
   28.6021   28.7264   38.0193 C   0  0  0  0  0  0  0  0  0  0  0  0
   28.3742   28.1920   39.2457 N   0  0  0  0  0  0  0  0  0  0  0  0
   28.7151   30.0703   37.8958 N   0  0  0  0  0  0  0  0  0  0  0  0
   28.9444   30.6249   36.6813 C   0  0  0  0  0  0  0  0  0  0  0  0
   28.6140   26.9496   37.0610 H   0  0  0  0  0  0  0  0  0  0  0  0
   28.2899   27.2167   39.3498 H   0  0  0  0  0  0  0  0  0  0  0  0
   28.2931   28.7797   40.0314 H   0  0  0  0  0  0  0  0  0  0  0  0
   30.1415   32.6234   40.5309 C   0  0  0  0  0  0  0  0  0  0  0  0
   29.1078   32.4960   41.5148 O   0  0  0  0  0  0  0  0  0  0  0  0
   29.3157   33.0087   43.0309 P   0  0  0  0  0  0  0  0  0  0  0  0
   30.7267   33.5330   43.0613 O   0  0  0  0  0  0  0  0  0  0  0  0
   28.2794   34.0989   43.1914 O   0  0  0  0  0  0  0  0  0  0  0  0
   29.0475   31.7816   43.8703 O   0  0  0  0  0  0  0  0  0  0  0  0
   28.3344   34.4680   44.0868 H   0  0  0  0  0  0  0  0  0  0  0  0
   29.1518   32.0028   44.8090 H   0  0  0  0  0  0  0  0  0  0  0  0
 26 27  2  0  0  0
 26 28  1  0  0  0
 26 29  1  0  0  0
 26 25  1  0  0  0
 25 24  1  0  0  0
 24  1  1  0  0  0
  1  2  1  0  0  0
  1  3  1  0  0  0
  2  7  1  0  0  0
  3  4  1  0  0  0
  3  5  1  0  0  0
  5  6  1  0  0  0
  5  7  1  0  0  0
  7 10  1  0  0  0
 10 11  1  0  0  0
 10 20  1  0  0  0
 11 12  2  0  0  0
 12 13  1  0  0  0
 13 14  1  0  0  0
 13 20  2  0  0  0
 14 15  2  0  0  0
 14 16  1  0  0  0
 16 17  1  0  0  0
 17 18  1  0  0  0
 17 19  2  0  0  0
 19 20  1  0  0  0
 28 30  1  0  0  0
 29 31  1  0  0  0
  4  8  1  0  0  0
  6  9  1  0  0  0
 16 21  1  0  0  0
 18 22  1  0  0  0
 18 23  1  0  0  0
M  END
> <minimizedAffinity>
-6.88212

$$$$
4G0Z_5GP_A_801


 31 33  0  0  0  0  0  0  0  0999 V2000
   29.2326   31.7889   40.4464 C   0  0  0  0  0  0  0  0  0  0  0  0
   30.1756   32.8334   40.6805 O   0  0  0  0  0  0  0  0  0  0  0  0
   28.2585   31.8070   41.6184 C   0  0  0  0  0  0  0  0  0  0  0  0
   28.1286   30.4857   42.1578 O   0  0  0  0  0  0  0  0  0  0  0  0
   28.9029   32.6785   42.6687 C   0  0  0  0  0  0  0  0  0  0  0  0
   29.1912   31.8352   43.7812 O   0  0  0  0  0  0  0  0  0  0  0  0
   30.1981   33.1924   42.0606 C   0  0  0  0  0  0  0  0  0  0  0  0
   29.0008   30.1611   42.4315 H   0  0  0  0  0  0  0  0  0  0  0  0
   29.7504   31.0975   43.4914 H   0  0  0  0  0  0  0  0  0  0  0  0
   30.3140   34.6677   42.1766 N   0  0  0  0  0  0  0  0  0  0  0  0
   29.4026   35.4818   42.7436 C   0  0  0  0  0  0  0  0  0  0  0  0
   29.8589   36.7552   42.6942 N   0  0  0  0  0  0  0  0  0  0  0  0
   31.0728   36.7328   42.0962 C   0  0  0  0  0  0  0  0  0  0  0  0
   31.9962   37.7195   41.7804 C   0  0  0  0  0  0  0  0  0  0  0  0
   31.7386   38.9097   42.0674 O   0  0  0  0  0  0  0  0  0  0  0  0
   33.1442   37.3771   41.1746 N   0  0  0  0  0  0  0  0  0  0  0  0
   33.4126   36.0955   40.8771 C   0  0  0  0  0  0  0  0  0  0  0  0
   34.5810   35.7733   40.2665 N   0  0  0  0  0  0  0  0  0  0  0  0
   32.5292   35.1122   41.1717 N   0  0  0  0  0  0  0  0  0  0  0  0
   31.3576   35.4110   41.7826 C   0  0  0  0  0  0  0  0  0  0  0  0
   33.7987   38.0758   40.9451 H   0  0  0  0  0  0  0  0  0  0  0  0
   35.2322   36.4782   40.0467 H   0  0  0  0  0  0  0  0  0  0  0  0
   34.7774   34.8347   40.0435 H   0  0  0  0  0  0  0  0  0  0  0  0
   28.5615   31.9818   39.0839 C   0  0  0  0  0  0  0  0  0  0  0  0
   27.2426   32.4879   39.3227 O   0  0  0  0  0  0  0  0  0  0  0  0
   26.8499   34.0168   38.9866 P   0  0  0  0  0  0  0  0  0  0  0  0
   27.0457   34.1378   37.4988 O   0  0  0  0  0  0  0  0  0  0  0  0
   25.3980   34.1183   39.3991 O   0  0  0  0  0  0  0  0  0  0  0  0
   27.7882   34.8312   39.8460 O   0  0  0  0  0  0  0  0  0  0  0  0
   25.0758   35.0174   39.2293 H   0  0  0  0  0  0  0  0  0  0  0  0
   27.6186   35.7757   39.7045 H   0  0  0  0  0  0  0  0  0  0  0  0
 26 27  2  0  0  0
 26 28  1  0  0  0
 26 29  1  0  0  0
 26 25  1  0  0  0
 25 24  1  0  0  0
 24  1  1  0  0  0
  1  2  1  0  0  0
  1  3  1  0  0  0
  2  7  1  0  0  0
  3  4  1  0  0  0
  3  5  1  0  0  0
  5  6  1  0  0  0
  5  7  1  0  0  0
  7 10  1  0  0  0
 10 11  1  0  0  0
 10 20  1  0  0  0
 11 12  2  0  0  0
 12 13  1  0  0  0
 13 14  1  0  0  0
 13 20  2  0  0  0
 14 15  2  0  0  0
 14 16  1  0  0  0
 16 17  1  0  0  0
 17 18  1  0  0  0
 17 19  2  0  0  0
 19 20  1  0  0  0
 28 30  1  0  0  0
 29 31  1  0  0  0
  4  8  1  0  0  0
  6  9  1  0  0  0
 16 21  1  0  0  0
 18 22  1  0  0  0
 18 23  1  0  0  0
M  END
> <minimizedAffinity>
-6.83817

$$$$
4G0Z_5GP_A_801


 31 33  0  0  0  0  0  0  0  0999 V2000
   29.8186   28.0213   38.8626 C   0  0  0  0  0  0  0  0  0  0  0  0
   30.3913   29.1757   39.4744 O   0  0  0  0  0  0  0  0  0  0  0  0
   28.4257   28.4210   38.3903 C   0  0  0  0  0  0  0  0  0  0  0  0
   27.4666   27.4609   38.8504 O   0  0  0  0  0  0  0  0  0  0  0  0
   28.1297   29.7372   39.0668 C   0  0  0  0  0  0  0  0  0  0  0  0
   27.0387   29.5061   39.9546 O   0  0  0  0  0  0  0  0  0  0  0  0
   29.3747   30.0982   39.8611 C   0  0  0  0  0  0  0  0  0  0  0  0
   27.5058   27.4028   39.8179 H   0  0  0  0  0  0  0  0  0  0  0  0
   27.2697   28.7947   40.5723 H   0  0  0  0  0  0  0  0  0  0  0  0
   29.8347   31.4786   39.5676 N   0  0  0  0  0  0  0  0  0  0  0  0
   30.5180   31.8588   38.4705 C   0  0  0  0  0  0  0  0  0  0  0  0
   30.7394   33.1928   38.5303 N   0  0  0  0  0  0  0  0  0  0  0  0
   30.1803   33.6503   39.6748 C   0  0  0  0  0  0  0  0  0  0  0  0
   30.0920   34.9083   40.2540 C   0  0  0  0  0  0  0  0  0  0  0  0
   30.6108   35.8858   39.6703 O   0  0  0  0  0  0  0  0  0  0  0  0
   29.4532   35.0501   41.4261 N   0  0  0  0  0  0  0  0  0  0  0  0
   28.8945   33.9947   42.0403 C   0  0  0  0  0  0  0  0  0  0  0  0
   28.2518   34.1630   43.2236 N   0  0  0  0  0  0  0  0  0  0  0  0
   28.9670   32.7553   41.4994 N   0  0  0  0  0  0  0  0  0  0  0  0
   29.6021   32.5647   40.3181 C   0  0  0  0  0  0  0  0  0  0  0  0
   29.3934   35.9407   41.8414 H   0  0  0  0  0  0  0  0  0  0  0  0
   28.1917   35.0586   43.6281 H   0  0  0  0  0  0  0  0  0  0  0  0
   27.8456   33.3896   43.6776 H   0  0  0  0  0  0  0  0  0  0  0  0
   30.7285   27.5148   37.7403 C   0  0  0  0  0  0  0  0  0  0  0  0
   31.0093   26.1350   38.0050 O   0  0  0  0  0  0  0  0  0  0  0  0
   30.2078   24.9504   37.2574 P   0  0  0  0  0  0  0  0  0  0  0  0
   31.1901   24.4046   36.2555 O   0  0  0  0  0  0  0  0  0  0  0  0
   29.8913   23.9700   38.3652 O   0  0  0  0  0  0  0  0  0  0  0  0
   28.9914   25.6390   36.6842 O   0  0  0  0  0  0  0  0  0  0  0  0
   29.4031   23.2157   37.9997 H   0  0  0  0  0  0  0  0  0  0  0  0
   28.4459   24.9912   36.2112 H   0  0  0  0  0  0  0  0  0  0  0  0
 26 27  2  0  0  0
 26 28  1  0  0  0
 26 29  1  0  0  0
 26 25  1  0  0  0
 25 24  1  0  0  0
 24  1  1  0  0  0
  1  2  1  0  0  0
  1  3  1  0  0  0
  2  7  1  0  0  0
  3  4  1  0  0  0
  3  5  1  0  0  0
  5  6  1  0  0  0
  5  7  1  0  0  0
  7 10  1  0  0  0
 10 11  1  0  0  0
 10 20  1  0  0  0
 11 12  2  0  0  0
 12 13  1  0  0  0
 13 14  1  0  0  0
 13 20  2  0  0  0
 14 15  2  0  0  0
 14 16  1  0  0  0
 16 17  1  0  0  0
 17 18  1  0  0  0
 17 19  2  0  0  0
 19 20  1  0  0  0
 28 30  1  0  0  0
 29 31  1  0  0  0
  4  8  1  0  0  0
  6  9  1  0  0  0
 16 21  1  0  0  0
 18 22  1  0  0  0
 18 23  1  0  0  0
M  END
> <minimizedAffinity>
-6.75173

$$$$
4G0Z_5GP_A_801


 31 33  0  0  0  0  0  0  0  0999 V2000
   30.7477   27.7534   38.9208 C   0  0  0  0  0  0  0  0  0  0  0  0
   30.3388   28.9026   39.6606 O   0  0  0  0  0  0  0  0  0  0  0  0
   29.6942   27.5286   37.8425 C   0  0  0  0  0  0  0  0  0  0  0  0
   29.2634   26.1621   37.8669 O   0  0  0  0  0  0  0  0  0  0  0  0
   28.5216   28.3945   38.2335 C   0  0  0  0  0  0  0  0  0  0  0  0
   27.4433   27.5128   38.5362 O   0  0  0  0  0  0  0  0  0  0  0  0
   28.9438   29.1437   39.4873 C   0  0  0  0  0  0  0  0  0  0  0  0
   28.9159   25.9483   38.7469 H   0  0  0  0  0  0  0  0  0  0  0  0
   27.7175   26.8929   39.2302 H   0  0  0  0  0  0  0  0  0  0  0  0
   28.7161   30.6049   39.3590 N   0  0  0  0  0  0  0  0  0  0  0  0
   28.4216   31.2533   38.2154 C   0  0  0  0  0  0  0  0  0  0  0  0
   28.2543   32.5690   38.4861 N   0  0  0  0  0  0  0  0  0  0  0  0
   28.4390   32.7407   39.8158 C   0  0  0  0  0  0  0  0  0  0  0  0
   28.3925   33.8508   40.6473 C   0  0  0  0  0  0  0  0  0  0  0  0
   28.1363   34.9716   40.1539 O   0  0  0  0  0  0  0  0  0  0  0  0
   28.6231   33.6994   41.9611 N   0  0  0  0  0  0  0  0  0  0  0  0
   28.8909   32.4903   42.4805 C   0  0  0  0  0  0  0  0  0  0  0  0
   29.1183   32.3616   43.8122 N   0  0  0  0  0  0  0  0  0  0  0  0
   28.9447   31.3901   41.6926 N   0  0  0  0  0  0  0  0  0  0  0  0
   28.7191   31.4953   40.3610 C   0  0  0  0  0  0  0  0  0  0  0  0
   28.5955   34.4861   42.5523 H   0  0  0  0  0  0  0  0  0  0  0  0
   29.0823   33.1532   44.3965 H   0  0  0  0  0  0  0  0  0  0  0  0
   29.3193   31.4767   44.1939 H   0  0  0  0  0  0  0  0  0  0  0  0
   32.1609   27.9586   38.3689 C   0  0  0  0  0  0  0  0  0  0  0  0
   32.5030   26.7871   37.6182 O   0  0  0  0  0  0  0  0  0  0  0  0
   33.0530   25.4519   38.3389 P   0  0  0  0  0  0  0  0  0  0  0  0
   34.0492   24.8811   37.3650 O   0  0  0  0  0  0  0  0  0  0  0  0
   33.6976   25.9630   39.6083 O   0  0  0  0  0  0  0  0  0  0  0  0
   31.8097   24.6265   38.5739 O   0  0  0  0  0  0  0  0  0  0  0  0
   34.0600   25.2163   40.1103 H   0  0  0  0  0  0  0  0  0  0  0  0
   32.0516   23.7943   39.0096 H   0  0  0  0  0  0  0  0  0  0  0  0
 26 27  2  0  0  0
 26 28  1  0  0  0
 26 29  1  0  0  0
 26 25  1  0  0  0
 25 24  1  0  0  0
 24  1  1  0  0  0
  1  2  1  0  0  0
  1  3  1  0  0  0
  2  7  1  0  0  0
  3  4  1  0  0  0
  3  5  1  0  0  0
  5  6  1  0  0  0
  5  7  1  0  0  0
  7 10  1  0  0  0
 10 11  1  0  0  0
 10 20  1  0  0  0
 11 12  2  0  0  0
 12 13  1  0  0  0
 13 14  1  0  0  0
 13 20  2  0  0  0
 14 15  2  0  0  0
 14 16  1  0  0  0
 16 17  1  0  0  0
 17 18  1  0  0  0
 17 19  2  0  0  0
 19 20  1  0  0  0
 28 30  1  0  0  0
 29 31  1  0  0  0
  4  8  1  0  0  0
  6  9  1  0  0  0
 16 21  1  0  0  0
 18 22  1  0  0  0
 18 23  1  0  0  0
M  END
> <minimizedAffinity>
-6.68997

$$$$
4G0Z_5GP_A_801


 31 33  0  0  0  0  0  0  0  0999 V2000
   29.5296   30.0769   39.3857 C   0  0  0  0  0  0  0  0  0  0  0  0
   30.1581   31.1289   40.1160 O   0  0  0  0  0  0  0  0  0  0  0  0
   28.0281   30.2350   39.5942 C   0  0  0  0  0  0  0  0  0  0  0  0
   27.4632   28.9822   40.0005 O   0  0  0  0  0  0  0  0  0  0  0  0
   27.8770   31.2078   40.7381 C   0  0  0  0  0  0  0  0  0  0  0  0
   27.2792   30.4875   41.8131 O   0  0  0  0  0  0  0  0  0  0  0  0
   29.2842   31.6361   41.1225 C   0  0  0  0  0  0  0  0  0  0  0  0
   27.8999   28.6785   40.8116 H   0  0  0  0  0  0  0  0  0  0  0  0
   27.8258   29.7156   42.0286 H   0  0  0  0  0  0  0  0  0  0  0  0
   29.4145   33.1136   41.1789 N   0  0  0  0  0  0  0  0  0  0  0  0
   28.5944   33.9948   40.5741 C   0  0  0  0  0  0  0  0  0  0  0  0
   29.0026   35.2509   40.8706 N   0  0  0  0  0  0  0  0  0  0  0  0
   30.0854   35.1507   41.6762 C   0  0  0  0  0  0  0  0  0  0  0  0
   30.9086   36.0876   42.2849 C   0  0  0  0  0  0  0  0  0  0  0  0
   30.6817   37.3051   42.1071 O   0  0  0  0  0  0  0  0  0  0  0  0
   31.9291   35.6692   43.0500 N   0  0  0  0  0  0  0  0  0  0  0  0
   32.1591   34.3597   43.2389 C   0  0  0  0  0  0  0  0  0  0  0  0
   33.1956   33.9606   44.0186 N   0  0  0  0  0  0  0  0  0  0  0  0
   31.3735   33.4233   42.6557 N   0  0  0  0  0  0  0  0  0  0  0  0
   30.3323   33.7992   41.8749 C   0  0  0  0  0  0  0  0  0  0  0  0
   32.5174   36.3319   43.4790 H   0  0  0  0  0  0  0  0  0  0  0  0
   33.7747   34.6308   44.4485 H   0  0  0  0  0  0  0  0  0  0  0  0
   33.3685   33.0010   44.1544 H   0  0  0  0  0  0  0  0  0  0  0  0
   29.9569   30.1283   37.9164 C   0  0  0  0  0  0  0  0  0  0  0  0
   28.9398   29.4715   37.1503 O   0  0  0  0  0  0  0  0  0  0  0  0
   29.0542   27.9110   36.7547 P   0  0  0  0  0  0  0  0  0  0  0  0
   28.0917   27.2160   37.6806 O   0  0  0  0  0  0  0  0  0  0  0  0
   28.6133   27.8693   35.3083 O   0  0  0  0  0  0  0  0  0  0  0  0
   30.5165   27.5902   36.9579 O   0  0  0  0  0  0  0  0  0  0  0  0
   28.6519   26.9556   34.9848 H   0  0  0  0  0  0  0  0  0  0  0  0
   30.6764   26.6586   36.7398 H   0  0  0  0  0  0  0  0  0  0  0  0
 26 27  2  0  0  0
 26 28  1  0  0  0
 26 29  1  0  0  0
 26 25  1  0  0  0
 25 24  1  0  0  0
 24  1  1  0  0  0
  1  2  1  0  0  0
  1  3  1  0  0  0
  2  7  1  0  0  0
  3  4  1  0  0  0
  3  5  1  0  0  0
  5  6  1  0  0  0
  5  7  1  0  0  0
  7 10  1  0  0  0
 10 11  1  0  0  0
 10 20  1  0  0  0
 11 12  2  0  0  0
 12 13  1  0  0  0
 13 14  1  0  0  0
 13 20  2  0  0  0
 14 15  2  0  0  0
 14 16  1  0  0  0
 16 17  1  0  0  0
 17 18  1  0  0  0
 17 19  2  0  0  0
 19 20  1  0  0  0
 28 30  1  0  0  0
 29 31  1  0  0  0
  4  8  1  0  0  0
  6  9  1  0  0  0
 16 21  1  0  0  0
 18 22  1  0  0  0
 18 23  1  0  0  0
M  END
> <minimizedAffinity>
-6.65467

$$$$
4G0Z_5GP_A_801


 31 33  0  0  0  0  0  0  0  0999 V2000
   29.6595   33.8422   41.1106 C   0  0  0  0  0  0  0  0  0  0  0  0
   28.5932   33.0088   40.6594 O   0  0  0  0  0  0  0  0  0  0  0  0
   30.4940   33.0042   42.0720 C   0  0  0  0  0  0  0  0  0  0  0  0
   30.7016   33.7309   43.2895 O   0  0  0  0  0  0  0  0  0  0  0  0
   29.6527   31.7922   42.3896 C   0  0  0  0  0  0  0  0  0  0  0  0
   29.3352   31.8653   43.7773 O   0  0  0  0  0  0  0  0  0  0  0  0
   28.3844   31.9243   41.5617 C   0  0  0  0  0  0  0  0  0  0  0  0
   29.8435   33.9611   43.6789 H   0  0  0  0  0  0  0  0  0  0  0  0
   28.8904   32.7070   43.9633 H   0  0  0  0  0  0  0  0  0  0  0  0
   28.1038   30.6922   40.7830 N   0  0  0  0  0  0  0  0  0  0  0  0
   27.0162   29.9094   40.9225 C   0  0  0  0  0  0  0  0  0  0  0  0
   27.0860   28.8957   40.0282 N   0  0  0  0  0  0  0  0  0  0  0  0
   28.2272   29.0535   39.3179 C   0  0  0  0  0  0  0  0  0  0  0  0
   28.8127   28.3340   38.2857 C   0  0  0  0  0  0  0  0  0  0  0  0
   28.2401   27.3074   37.8571 O   0  0  0  0  0  0  0  0  0  0  0  0
   29.9787   28.7534   37.7696 N   0  0  0  0  0  0  0  0  0  0  0  0
   30.5809   29.8605   38.2333 C   0  0  0  0  0  0  0  0  0  0  0  0
   31.7583   30.2663   37.6942 N   0  0  0  0  0  0  0  0  0  0  0  0
   30.0336   30.5810   39.2410 N   0  0  0  0  0  0  0  0  0  0  0  0
   28.8581   30.1952   39.7926 C   0  0  0  0  0  0  0  0  0  0  0  0
   30.3985   28.2420   37.0405 H   0  0  0  0  0  0  0  0  0  0  0  0
   32.1673   29.7519   36.9611 H   0  0  0  0  0  0  0  0  0  0  0  0
   32.2035   31.0751   38.0361 H   0  0  0  0  0  0  0  0  0  0  0  0
   30.4502   34.3786   39.9143 C   0  0  0  0  0  0  0  0  0  0  0  0
   29.5127   34.6417   38.8632 O   0  0  0  0  0  0  0  0  0  0  0  0
   29.5529   33.8266   37.4708 P   0  0  0  0  0  0  0  0  0  0  0  0
   29.3696   34.8808   36.4117 O   0  0  0  0  0  0  0  0  0  0  0  0
   30.9328   33.2072   37.4517 O   0  0  0  0  0  0  0  0  0  0  0  0
   28.4331   32.8214   37.6048 O   0  0  0  0  0  0  0  0  0  0  0  0
   31.0446   32.6917   36.6377 H   0  0  0  0  0  0  0  0  0  0  0  0
   28.3853   32.2815   36.8004 H   0  0  0  0  0  0  0  0  0  0  0  0
 26 27  2  0  0  0
 26 28  1  0  0  0
 26 29  1  0  0  0
 26 25  1  0  0  0
 25 24  1  0  0  0
 24  1  1  0  0  0
  1  2  1  0  0  0
  1  3  1  0  0  0
  2  7  1  0  0  0
  3  4  1  0  0  0
  3  5  1  0  0  0
  5  6  1  0  0  0
  5  7  1  0  0  0
  7 10  1  0  0  0
 10 11  1  0  0  0
 10 20  1  0  0  0
 11 12  2  0  0  0
 12 13  1  0  0  0
 13 14  1  0  0  0
 13 20  2  0  0  0
 14 15  2  0  0  0
 14 16  1  0  0  0
 16 17  1  0  0  0
 17 18  1  0  0  0
 17 19  2  0  0  0
 19 20  1  0  0  0
 28 30  1  0  0  0
 29 31  1  0  0  0
  4  8  1  0  0  0
  6  9  1  0  0  0
 16 21  1  0  0  0
 18 22  1  0  0  0
 18 23  1  0  0  0
M  END
> <minimizedAffinity>
-6.61611

$$$$
4G0Z_5GP_A_801


 31 33  0  0  0  0  0  0  0  0999 V2000
   29.4636   30.5305   39.2098 C   0  0  0  0  0  0  0  0  0  0  0  0
   30.0798   31.5384   40.0095 O   0  0  0  0  0  0  0  0  0  0  0  0
   27.9867   30.5148   39.5856 C   0  0  0  0  0  0  0  0  0  0  0  0
   27.5766   29.1721   39.8729 O   0  0  0  0  0  0  0  0  0  0  0  0
   27.8833   31.3169   40.8598 C   0  0  0  0  0  0  0  0  0  0  0  0
   27.4706   30.4128   41.8816 O   0  0  0  0  0  0  0  0  0  0  0  0
   29.2840   31.8280   41.1571 C   0  0  0  0  0  0  0  0  0  0  0  0
   28.1244   28.8127   40.5882 H   0  0  0  0  0  0  0  0  0  0  0  0
   28.1000   29.6767   41.9355 H   0  0  0  0  0  0  0  0  0  0  0  0
   29.2965   33.2923   41.3994 N   0  0  0  0  0  0  0  0  0  0  0  0
   28.3712   34.1663   40.9577 C   0  0  0  0  0  0  0  0  0  0  0  0
   28.6931   35.4063   41.3946 N   0  0  0  0  0  0  0  0  0  0  0  0
   29.8284   35.3021   42.1240 C   0  0  0  0  0  0  0  0  0  0  0  0
   30.6085   36.2245   42.8071 C   0  0  0  0  0  0  0  0  0  0  0  0
   30.2723   37.4296   42.8019 O   0  0  0  0  0  0  0  0  0  0  0  0
   31.7052   35.8054   43.4580 N   0  0  0  0  0  0  0  0  0  0  0  0
   32.0527   34.5083   43.4620 C   0  0  0  0  0  0  0  0  0  0  0  0
   33.1646   34.1080   44.1290 N   0  0  0  0  0  0  0  0  0  0  0  0
   31.3115   33.5866   42.8023 N   0  0  0  0  0  0  0  0  0  0  0  0
   30.1966   33.9638   42.1314 C   0  0  0  0  0  0  0  0  0  0  0  0
   32.2629   36.4586   43.9393 H   0  0  0  0  0  0  0  0  0  0  0  0
   33.7126   34.7675   44.6127 H   0  0  0  0  0  0  0  0  0  0  0  0
   33.4234   33.1581   44.1291 H   0  0  0  0  0  0  0  0  0  0  0  0
   29.7193   30.8072   37.7258 C   0  0  0  0  0  0  0  0  0  0  0  0
   28.6205   31.5873   37.2390 O   0  0  0  0  0  0  0  0  0  0  0  0
   28.7771   33.1614   36.9195 P   0  0  0  0  0  0  0  0  0  0  0  0
   28.9298   33.2289   35.4232 O   0  0  0  0  0  0  0  0  0  0  0  0
   27.4768   33.7623   37.4059 O   0  0  0  0  0  0  0  0  0  0  0  0
   29.9836   33.5788   37.7273 O   0  0  0  0  0  0  0  0  0  0  0  0
   27.4850   34.7197   37.2505 H   0  0  0  0  0  0  0  0  0  0  0  0
   30.1518   34.5245   37.5922 H   0  0  0  0  0  0  0  0  0  0  0  0
 26 27  2  0  0  0
 26 28  1  0  0  0
 26 29  1  0  0  0
 26 25  1  0  0  0
 25 24  1  0  0  0
 24  1  1  0  0  0
  1  2  1  0  0  0
  1  3  1  0  0  0
  2  7  1  0  0  0
  3  4  1  0  0  0
  3  5  1  0  0  0
  5  6  1  0  0  0
  5  7  1  0  0  0
  7 10  1  0  0  0
 10 11  1  0  0  0
 10 20  1  0  0  0
 11 12  2  0  0  0
 12 13  1  0  0  0
 13 14  1  0  0  0
 13 20  2  0  0  0
 14 15  2  0  0  0
 14 16  1  0  0  0
 16 17  1  0  0  0
 17 18  1  0  0  0
 17 19  2  0  0  0
 19 20  1  0  0  0
 28 30  1  0  0  0
 29 31  1  0  0  0
  4  8  1  0  0  0
  6  9  1  0  0  0
 16 21  1  0  0  0
 18 22  1  0  0  0
 18 23  1  0  0  0
M  END
> <minimizedAffinity>
-6.59992

$$$$
4G0Z_5GP_A_801


 31 33  0  0  0  0  0  0  0  0999 V2000
   29.2466   31.4633   40.2967 C   0  0  0  0  0  0  0  0  0  0  0  0
   30.4030   32.2706   40.5114 O   0  0  0  0  0  0  0  0  0  0  0  0
   28.2560   31.8141   41.4005 C   0  0  0  0  0  0  0  0  0  0  0  0
   27.7875   30.6136   42.0273 O   0  0  0  0  0  0  0  0  0  0  0  0
   29.0458   32.5960   42.4216 C   0  0  0  0  0  0  0  0  0  0  0  0
   29.0734   31.8087   43.6096 O   0  0  0  0  0  0  0  0  0  0  0  0
   30.4518   32.7329   41.8597 C   0  0  0  0  0  0  0  0  0  0  0  0
   28.5427   30.1165   42.3787 H   0  0  0  0  0  0  0  0  0  0  0  0
   29.4498   30.9370   43.4111 H   0  0  0  0  0  0  0  0  0  0  0  0
   30.9157   34.1428   41.8729 N   0  0  0  0  0  0  0  0  0  0  0  0
   30.4308   35.1331   41.0988 C   0  0  0  0  0  0  0  0  0  0  0  0
   31.0716   36.2853   41.4055 N   0  0  0  0  0  0  0  0  0  0  0  0
   31.9608   36.0108   42.3881 C   0  0  0  0  0  0  0  0  0  0  0  0
   32.8758   36.7856   43.0870 C   0  0  0  0  0  0  0  0  0  0  0  0
   32.9724   38.0041   42.8200 O   0  0  0  0  0  0  0  0  0  0  0  0
   33.6368   36.2128   44.0330 N   0  0  0  0  0  0  0  0  0  0  0  0
   33.5198   34.9052   44.3155 C   0  0  0  0  0  0  0  0  0  0  0  0
   34.2984   34.3488   45.2777 N   0  0  0  0  0  0  0  0  0  0  0  0
   32.6370   34.1246   43.6481 N   0  0  0  0  0  0  0  0  0  0  0  0
   31.8486   34.6595   42.6850 C   0  0  0  0  0  0  0  0  0  0  0  0
   34.2900   36.7593   44.5268 H   0  0  0  0  0  0  0  0  0  0  0  0
   34.9444   34.9047   45.7707 H   0  0  0  0  0  0  0  0  0  0  0  0
   34.2172   33.3894   45.4829 H   0  0  0  0  0  0  0  0  0  0  0  0
   28.7016   31.6903   38.8841 C   0  0  0  0  0  0  0  0  0  0  0  0
   28.5304   33.1024   38.7118 O   0  0  0  0  0  0  0  0  0  0  0  0
   28.5288   33.7815   37.2477 P   0  0  0  0  0  0  0  0  0  0  0  0
   27.2036   34.4908   37.1628 O   0  0  0  0  0  0  0  0  0  0  0  0
   29.7041   34.7331   37.2870 O   0  0  0  0  0  0  0  0  0  0  0  0
   28.7171   32.6158   36.3053 O   0  0  0  0  0  0  0  0  0  0  0  0
   29.7784   35.1905   36.4348 H   0  0  0  0  0  0  0  0  0  0  0  0
   28.7282   32.9381   35.3905 H   0  0  0  0  0  0  0  0  0  0  0  0
 26 27  2  0  0  0
 26 28  1  0  0  0
 26 29  1  0  0  0
 26 25  1  0  0  0
 25 24  1  0  0  0
 24  1  1  0  0  0
  1  2  1  0  0  0
  1  3  1  0  0  0
  2  7  1  0  0  0
  3  4  1  0  0  0
  3  5  1  0  0  0
  5  6  1  0  0  0
  5  7  1  0  0  0
  7 10  1  0  0  0
 10 11  1  0  0  0
 10 20  1  0  0  0
 11 12  2  0  0  0
 12 13  1  0  0  0
 13 14  1  0  0  0
 13 20  2  0  0  0
 14 15  2  0  0  0
 14 16  1  0  0  0
 16 17  1  0  0  0
 17 18  1  0  0  0
 17 19  2  0  0  0
 19 20  1  0  0  0
 28 30  1  0  0  0
 29 31  1  0  0  0
  4  8  1  0  0  0
  6  9  1  0  0  0
 16 21  1  0  0  0
 18 22  1  0  0  0
 18 23  1  0  0  0
M  END
> <minimizedAffinity>
-6.56831

$$$$
4G0Z_5GP_A_801


 31 33  0  0  0  0  0  0  0  0999 V2000
   29.4036   32.8220   39.9161 C   0  0  0  0  0  0  0  0  0  0  0  0
   29.9803   31.6130   39.4255 O   0  0  0  0  0  0  0  0  0  0  0  0
   28.1399   33.0675   39.1001 C   0  0  0  0  0  0  0  0  0  0  0  0
   28.1425   34.4102   38.5994 O   0  0  0  0  0  0  0  0  0  0  0  0
   28.2293   32.1297   37.9210 C   0  0  0  0  0  0  0  0  0  0  0  0
   28.3419   32.9441   36.7565 O   0  0  0  0  0  0  0  0  0  0  0  0
   29.5039   31.3235   38.1127 C   0  0  0  0  0  0  0  0  0  0  0  0
   28.9389   34.5543   38.0647 H   0  0  0  0  0  0  0  0  0  0  0  0
   29.1089   33.5312   36.8455 H   0  0  0  0  0  0  0  0  0  0  0  0
   29.2558   29.8646   37.9972 N   0  0  0  0  0  0  0  0  0  0  0  0
   29.1087   29.0119   39.0298 C   0  0  0  0  0  0  0  0  0  0  0  0
   28.8678   27.7712   38.5452 N   0  0  0  0  0  0  0  0  0  0  0  0
   28.8570   27.8538   37.1944 C   0  0  0  0  0  0  0  0  0  0  0  0
   28.6618   26.9208   36.1856 C   0  0  0  0  0  0  0  0  0  0  0  0
   28.4469   25.7272   36.4927 O   0  0  0  0  0  0  0  0  0  0  0  0
   28.7076   27.3176   34.9040 N   0  0  0  0  0  0  0  0  0  0  0  0
   28.9327   28.6029   34.5865 C   0  0  0  0  0  0  0  0  0  0  0  0
   28.9723   28.9808   33.2837 N   0  0  0  0  0  0  0  0  0  0  0  0
   29.1287   29.5343   35.5499 N   0  0  0  0  0  0  0  0  0  0  0  0
   29.0916   29.1796   36.8568 C   0  0  0  0  0  0  0  0  0  0  0  0
   28.5743   26.6569   34.1865 H   0  0  0  0  0  0  0  0  0  0  0  0
   28.8316   28.3139   32.5733 H   0  0  0  0  0  0  0  0  0  0  0  0
   29.1418   29.9218   33.0491 H   0  0  0  0  0  0  0  0  0  0  0  0
   29.1531   32.7119   41.4224 C   0  0  0  0  0  0  0  0  0  0  0  0
   29.7938   33.8309   42.0471 O   0  0  0  0  0  0  0  0  0  0  0  0
   28.9636   35.1430   42.4875 P   0  0  0  0  0  0  0  0  0  0  0  0
   28.4515   35.7169   41.1933 O   0  0  0  0  0  0  0  0  0  0  0  0
   27.8601   34.5970   43.3665 O   0  0  0  0  0  0  0  0  0  0  0  0
   29.9768   35.9832   43.2290 O   0  0  0  0  0  0  0  0  0  0  0  0
   27.3048   35.3280   43.6798 H   0  0  0  0  0  0  0  0  0  0  0  0
   29.5566   36.8027   43.5333 H   0  0  0  0  0  0  0  0  0  0  0  0
 26 27  2  0  0  0
 26 28  1  0  0  0
 26 29  1  0  0  0
 26 25  1  0  0  0
 25 24  1  0  0  0
 24  1  1  0  0  0
  1  2  1  0  0  0
  1  3  1  0  0  0
  2  7  1  0  0  0
  3  4  1  0  0  0
  3  5  1  0  0  0
  5  6  1  0  0  0
  5  7  1  0  0  0
  7 10  1  0  0  0
 10 11  1  0  0  0
 10 20  1  0  0  0
 11 12  2  0  0  0
 12 13  1  0  0  0
 13 14  1  0  0  0
 13 20  2  0  0  0
 14 15  2  0  0  0
 14 16  1  0  0  0
 16 17  1  0  0  0
 17 18  1  0  0  0
 17 19  2  0  0  0
 19 20  1  0  0  0
 28 30  1  0  0  0
 29 31  1  0  0  0
  4  8  1  0  0  0
  6  9  1  0  0  0
 16 21  1  0  0  0
 18 22  1  0  0  0
 18 23  1  0  0  0
M  END
> <minimizedAffinity>
-6.53668

$$$$
