4AHU_ICO_A_1217
  RCSB PDB12061711403D
Coordinates from PDB:4AHU:A:1217 Model:1 without hydrogens
 12 13  0  0  0  0            999 V2000
  -16.7460   18.1670    1.2830   C 0  0  0  0  0  0  0  0  0  0  0  0
  -17.7150   18.5320    0.3550   C 0  0  0  0  0  0  0  0  0  0  0  0
  -18.0010   19.8650    0.1180   C 0  0  0  0  0  0  0  0  0  0  0  0
  -17.3330   20.8640    0.7900   C 0  0  0  0  0  0  0  0  0  0  0  0
  -16.3540   20.5380    1.7160   C 0  0  0  0  0  0  0  0  0  0  0  0
  -16.0780   19.1950    1.9530   C 0  0  0  0  0  0  0  0  0  0  0  0
  -15.1340   18.6220    2.7950   N 0  0  0  0  0  0  0  0  0  0  0  0
  -15.1930   17.2650    2.6960   C 0  0  0  0  0  0  0  0  0  0  0  0
  -16.1790   16.9370    1.7720   C 0  0  0  0  0  0  0  0  0  0  0  0
  -16.5350   15.4530    1.4080   C 0  0  0  0  0  0  0  0  0  0  0  0
  -17.4080   15.2070    0.5020   O 0  0  0  0  0  0  0  0  0  0  0  0
  -15.9570   14.5480    2.0920   O 0  0  0  0  0  0  0  0  0  0  0  0
  1  2  1  0  0  0  0
  1  6  2  0  0  0  0
  1  9  1  0  0  0  0
  2  3  2  0  0  0  0
  3  4  1  0  0  0  0
  4  5  2  0  0  0  0
  5  6  1  0  0  0  0
  6  7  1  0  0  0  0
  7  8  1  0  0  0  0
  8  9  2  0  0  0  0
  9 10  1  0  0  0  0
 10 11  1  0  0  0  0
 10 12  2  0  0  0  0
A    1
CAA
A    2
CAD
A    3
CAI
A    4
CAJ
A    5
CAF
A    6
CAB
A    7
NAE
A    8
CAG
A    9
CAC
A   10
CAH
A   11
OAL
A   12
OAK
M  END
>  <InstanceId>
4AHU_ICO_A_1217

>  <ChemCompId>
ICO

>  <PdbId>
4AHU

>  <ChainId>
A

>  <ResidueNumber>
1217

>  <InsertionCode>


>  <Model>
1

>  <AltIds>


>  <MissingHeavyAtoms>
0

>  <ObservedFormula>
C9 N O2

>  <Name>
1H-INDOLE-3-CARBOXYLIC ACID

>  <SystematicName>
1H-indole-3-carboxylic acid

>  <Synonyms>


>  <Type>
NON-POLYMER

>  <Formula>
C9 H7 N O2

>  <MolecularWeight>
161.157

>  <ModifiedDate>
2011-06-04

>  <Parent>


>  <OneLetterCode>


>  <SubcomponentList>


>  <AmbiguousFlag>
N

>  <InChI>
InChI=1S/C9H7NO2/c11-9(12)7-5-10-8-4-2-1-3-6(7)8/h1-5,10H,(H,11,12)

>  <InChIKey>
KMAKOBLIOCQGJP-UHFFFAOYSA-N

>  <SMILES>
c1ccc2c(c1)c(c[nH]2)C(=O)O

$$$$
