3ZT2_ZT2_A_1216


 24 27  0  0  0  0  0  0  0  0999 V2000
  -32.9391   31.9589    1.9082 C   0  0  0  0  0  0  0  0  0  0  0  0
  -32.2018   32.6215    2.8951 C   0  0  0  0  0  0  0  0  0  0  0  0
  -33.2370   32.4886    0.6784 C   0  0  0  0  0  0  0  0  0  0  0  0
  -32.8267   33.8084    0.3949 C   0  0  0  0  0  0  0  0  0  0  0  0
  -31.7832   33.8769    2.5561 C   0  0  0  0  0  0  0  0  0  0  0  0
  -32.0925   34.4499    1.3627 C   0  0  0  0  0  0  0  0  0  0  0  0
  -30.7721   35.7010    2.4249 C   0  0  0  0  0  0  0  0  0  0  0  0
  -31.0357   34.6966    3.2971 O   0  0  0  0  0  0  0  0  0  0  0  0
  -31.5941   35.7221    1.2464 O   0  0  0  0  0  0  0  0  0  0  0  0
  -30.7034   28.4724    0.6128 C   0  0  0  0  0  0  0  0  0  0  0  0
  -30.9382   27.2995   -0.0865 C   0  0  0  0  0  0  0  0  0  0  0  0
  -31.5952   29.5251    0.4901 C   0  0  0  0  0  0  0  0  0  0  0  0
  -32.0617   27.2220   -0.8649 C   0  0  0  0  0  0  0  0  0  0  0  0
  -32.7058   29.4494   -0.3169 C   0  0  0  0  0  0  0  0  0  0  0  0
  -32.9412   28.2779   -1.0021 C   0  0  0  0  0  0  0  0  0  0  0  0
  -33.7799   30.3837   -0.6120 C   0  0  0  0  0  0  0  0  0  0  0  0
  -34.7422   29.6709   -1.4878 C   0  0  0  0  0  0  0  0  0  0  0  0
  -34.0506   31.6867   -0.2780 C   0  0  0  0  0  0  0  0  0  0  0  0
  -34.1716   28.3260   -1.8246 C   0  0  0  0  0  0  0  0  0  0  0  0
  -35.8275   30.0995   -1.8723 O   0  0  0  0  0  0  0  0  0  0  0  0
  -33.1096   34.4568   -0.9442 C   0  0  0  0  0  0  0  0  0  0  0  0
  -32.1467   34.9971   -1.5452 O   0  0  0  0  0  0  0  0  0  0  0  0
  -34.2920   34.3981   -1.4433 O   0  0  0  0  0  0  0  0  0  0  0  0
  -31.2989   35.0194   -1.1468 H   0  0  0  0  0  0  0  0  0  0  0  0
 10 11  1  0  0  0
 10 12  2  0  0  0
 11 13  2  0  0  0
 12 14  1  0  0  0
  1  2  1  0  0  0
  1  3  2  0  0  0
 13 15  1  0  0  0
  2  5  2  0  0  0
 14 15  2  0  0  0
 14 16  1  0  0  0
  3  4  1  0  0  0
  3 18  1  0  0  0
  4  6  2  0  0  0
  4 21  1  0  0  0
 15 19  1  0  0  0
  5  6  1  0  0  0
  5  8  1  0  0  0
  6  9  1  0  0  0
 16 17  1  0  0  0
 16 18  2  0  0  0
 17 19  1  0  0  0
 17 20  2  0  0  0
 21 22  1  0  0  0
 21 23  2  0  0  0
  7  8  1  0  0  0
  7  9  1  0  0  0
 22 24  1  0  0  0
M  END
> <minimizedAffinity>
-9.92827

$$$$
3ZT2_ZT2_A_1216


 24 27  0  0  0  0  0  0  0  0999 V2000
  -35.3156   32.0025    1.0349 C   0  0  0  0  0  0  0  0  0  0  0  0
  -36.5484   32.4769    0.5747 C   0  0  0  0  0  0  0  0  0  0  0  0
  -34.1210   32.6530    0.8572 C   0  0  0  0  0  0  0  0  0  0  0  0
  -34.1102   33.8536    0.1164 C   0  0  0  0  0  0  0  0  0  0  0  0
  -36.4947   33.6675   -0.0929 C   0  0  0  0  0  0  0  0  0  0  0  0
  -35.3251   34.3213   -0.3225 C   0  0  0  0  0  0  0  0  0  0  0  0
  -36.9376   35.5117   -0.9704 C   0  0  0  0  0  0  0  0  0  0  0  0
  -37.5264   34.3498   -0.5930 O   0  0  0  0  0  0  0  0  0  0  0  0
  -35.5023   35.4802   -1.0338 O   0  0  0  0  0  0  0  0  0  0  0  0
  -34.3128   28.4565   -1.3579 C   0  0  0  0  0  0  0  0  0  0  0  0
  -33.4208   27.3975   -1.3075 C   0  0  0  0  0  0  0  0  0  0  0  0
  -34.0442   29.6044   -0.6308 C   0  0  0  0  0  0  0  0  0  0  0  0
  -32.2910   27.5363   -0.5467 C   0  0  0  0  0  0  0  0  0  0  0  0
  -32.9217   29.7244    0.1540 C   0  0  0  0  0  0  0  0  0  0  0  0
  -32.0322   28.6733    0.1931 C   0  0  0  0  0  0  0  0  0  0  0  0
  -32.4103   30.7966    0.9921 C   0  0  0  0  0  0  0  0  0  0  0  0
  -31.0914   30.3510    1.5047 C   0  0  0  0  0  0  0  0  0  0  0  0
  -32.8722   32.0296    1.3783 C   0  0  0  0  0  0  0  0  0  0  0  0
  -30.8652   28.9353    1.0660 C   0  0  0  0  0  0  0  0  0  0  0  0
  -30.3079   31.0227    2.1714 O   0  0  0  0  0  0  0  0  0  0  0  0
  -32.8322   34.6333   -0.1122 C   0  0  0  0  0  0  0  0  0  0  0  0
  -32.4688   34.8213   -1.3008 O   0  0  0  0  0  0  0  0  0  0  0  0
  -32.1906   35.1135    0.8920 O   0  0  0  0  0  0  0  0  0  0  0  0
  -32.9644   34.4537   -2.0060 H   0  0  0  0  0  0  0  0  0  0  0  0
 10 11  1  0  0  0
 10 12  2  0  0  0
 11 13  2  0  0  0
 12 14  1  0  0  0
  1  2  1  0  0  0
  1  3  2  0  0  0
 13 15  1  0  0  0
  2  5  2  0  0  0
 14 15  2  0  0  0
 14 16  1  0  0  0
  3  4  1  0  0  0
  3 18  1  0  0  0
  4  6  2  0  0  0
  4 21  1  0  0  0
 15 19  1  0  0  0
  5  6  1  0  0  0
  5  8  1  0  0  0
  6  9  1  0  0  0
 16 17  1  0  0  0
 16 18  2  0  0  0
 17 19  1  0  0  0
 17 20  2  0  0  0
 21 22  1  0  0  0
 21 23  2  0  0  0
  7  8  1  0  0  0
  7  9  1  0  0  0
 22 24  1  0  0  0
M  END
> <minimizedAffinity>
-8.68330

$$$$
3ZT2_ZT2_A_1216


 24 27  0  0  0  0  0  0  0  0999 V2000
  -33.3021   32.2315   -1.0569 C   0  0  0  0  0  0  0  0  0  0  0  0
  -32.9754   33.3974   -0.3565 C   0  0  0  0  0  0  0  0  0  0  0  0
  -33.1225   30.9611   -0.5711 C   0  0  0  0  0  0  0  0  0  0  0  0
  -32.5195   30.8016    0.6943 C   0  0  0  0  0  0  0  0  0  0  0  0
  -32.4412   33.1938    0.8841 C   0  0  0  0  0  0  0  0  0  0  0  0
  -32.2121   31.9500    1.3829 C   0  0  0  0  0  0  0  0  0  0  0  0
  -31.8020   33.3905    2.8640 C   0  0  0  0  0  0  0  0  0  0  0  0
  -32.0852   34.1313    1.7639 O   0  0  0  0  0  0  0  0  0  0  0  0
  -31.6455   31.9811    2.6312 O   0  0  0  0  0  0  0  0  0  0  0  0
  -37.6973   30.4913    0.6141 C   0  0  0  0  0  0  0  0  0  0  0  0
  -38.6337   29.5815    0.1503 C   0  0  0  0  0  0  0  0  0  0  0  0
  -36.4073   30.4526    0.1113 C   0  0  0  0  0  0  0  0  0  0  0  0
  -38.2466   28.6831   -0.8075 C   0  0  0  0  0  0  0  0  0  0  0  0
  -36.0190   29.5280   -0.8293 C   0  0  0  0  0  0  0  0  0  0  0  0
  -36.9556   28.6320   -1.2955 C   0  0  0  0  0  0  0  0  0  0  0  0
  -34.7596   29.2803   -1.5122 C   0  0  0  0  0  0  0  0  0  0  0  0
  -35.0080   28.1963   -2.4941 C   0  0  0  0  0  0  0  0  0  0  0  0
  -33.4922   29.7993   -1.4273 C   0  0  0  0  0  0  0  0  0  0  0  0
  -36.4106   27.7002   -2.3090 C   0  0  0  0  0  0  0  0  0  0  0  0
  -34.2082   27.7739   -3.3256 O   0  0  0  0  0  0  0  0  0  0  0  0
  -32.2984   29.4317    1.3008 C   0  0  0  0  0  0  0  0  0  0  0  0
  -31.1145   29.0196    1.3942 O   0  0  0  0  0  0  0  0  0  0  0  0
  -33.3019   28.7594    1.7388 O   0  0  0  0  0  0  0  0  0  0  0  0
  -30.4097   29.5402    1.0621 H   0  0  0  0  0  0  0  0  0  0  0  0
 10 11  1  0  0  0
 10 12  2  0  0  0
 11 13  2  0  0  0
 12 14  1  0  0  0
  1  2  1  0  0  0
  1  3  2  0  0  0
 13 15  1  0  0  0
  2  5  2  0  0  0
 14 15  2  0  0  0
 14 16  1  0  0  0
  3  4  1  0  0  0
  3 18  1  0  0  0
  4  6  2  0  0  0
  4 21  1  0  0  0
 15 19  1  0  0  0
  5  6  1  0  0  0
  5  8  1  0  0  0
  6  9  1  0  0  0
 16 17  1  0  0  0
 16 18  2  0  0  0
 17 19  1  0  0  0
 17 20  2  0  0  0
 21 22  1  0  0  0
 21 23  2  0  0  0
  7  8  1  0  0  0
  7  9  1  0  0  0
 22 24  1  0  0  0
M  END
> <minimizedAffinity>
-8.13574

$$$$
3ZT2_ZT2_A_1216


 24 27  0  0  0  0  0  0  0  0999 V2000
  -34.1529   32.6844   -1.2134 C   0  0  0  0  0  0  0  0  0  0  0  0
  -34.3649   34.0089   -0.8166 C   0  0  0  0  0  0  0  0  0  0  0  0
  -35.0304   31.6564   -0.9785 C   0  0  0  0  0  0  0  0  0  0  0  0
  -36.2032   31.9255   -0.2419 C   0  0  0  0  0  0  0  0  0  0  0  0
  -35.5370   34.2304   -0.1509 C   0  0  0  0  0  0  0  0  0  0  0  0
  -36.4123   33.2301    0.1345 C   0  0  0  0  0  0  0  0  0  0  0  0
  -37.2473   35.0801    0.6977 C   0  0  0  0  0  0  0  0  0  0  0  0
  -35.9929   35.4021    0.2951 O   0  0  0  0  0  0  0  0  0  0  0  0
  -37.5064   33.6731    0.8325 O   0  0  0  0  0  0  0  0  0  0  0  0
  -31.2800   30.8075    1.8085 C   0  0  0  0  0  0  0  0  0  0  0  0
  -30.4852   29.6753    1.8873 C   0  0  0  0  0  0  0  0  0  0  0  0
  -32.3434   30.8290    0.9213 C   0  0  0  0  0  0  0  0  0  0  0  0
  -30.7963   28.6073    1.0893 C   0  0  0  0  0  0  0  0  0  0  0  0
  -32.6312   29.7629    0.1023 C   0  0  0  0  0  0  0  0  0  0  0  0
  -31.8451   28.6353    0.1912 C   0  0  0  0  0  0  0  0  0  0  0  0
  -33.6681   29.5288   -0.8896 C   0  0  0  0  0  0  0  0  0  0  0  0
  -33.5029   28.1329   -1.3642 C   0  0  0  0  0  0  0  0  0  0  0  0
  -34.6762   30.2832   -1.4349 C   0  0  0  0  0  0  0  0  0  0  0  0
  -32.2676   27.5609   -0.7360 C   0  0  0  0  0  0  0  0  0  0  0  0
  -34.2496   27.5364   -2.1363 O   0  0  0  0  0  0  0  0  0  0  0  0
  -37.2237   30.8446    0.0476 C   0  0  0  0  0  0  0  0  0  0  0  0
  -37.5336   30.6421    1.2489 O   0  0  0  0  0  0  0  0  0  0  0  0
  -37.7706   30.2079   -0.9251 O   0  0  0  0  0  0  0  0  0  0  0  0
  -37.1111   31.1277    1.9299 H   0  0  0  0  0  0  0  0  0  0  0  0
 10 11  1  0  0  0
 10 12  2  0  0  0
 11 13  2  0  0  0
 12 14  1  0  0  0
  1  2  1  0  0  0
  1  3  2  0  0  0
 13 15  1  0  0  0
  2  5  2  0  0  0
 14 15  2  0  0  0
 14 16  1  0  0  0
  3  4  1  0  0  0
  3 18  1  0  0  0
  4  6  2  0  0  0
  4 21  1  0  0  0
 15 19  1  0  0  0
  5  6  1  0  0  0
  5  8  1  0  0  0
  6  9  1  0  0  0
 16 17  1  0  0  0
 16 18  2  0  0  0
 17 19  1  0  0  0
 17 20  2  0  0  0
 21 22  1  0  0  0
 21 23  2  0  0  0
  7  8  1  0  0  0
  7  9  1  0  0  0
 22 24  1  0  0  0
M  END
> <minimizedAffinity>
-8.06078

$$$$
3ZT2_ZT2_A_1216


 24 27  0  0  0  0  0  0  0  0999 V2000
  -34.6268   31.8657   -1.8827 C   0  0  0  0  0  0  0  0  0  0  0  0
  -35.1234   33.1637   -1.7241 C   0  0  0  0  0  0  0  0  0  0  0  0
  -35.2623   30.7344   -1.4374 C   0  0  0  0  0  0  0  0  0  0  0  0
  -36.4703   30.8762   -0.7226 C   0  0  0  0  0  0  0  0  0  0  0  0
  -36.3200   33.2470   -1.0705 C   0  0  0  0  0  0  0  0  0  0  0  0
  -36.9596   32.1521   -0.5805 C   0  0  0  0  0  0  0  0  0  0  0  0
  -38.1793   33.8514   -0.3323 C   0  0  0  0  0  0  0  0  0  0  0  0
  -37.0219   34.3553   -0.8279 O   0  0  0  0  0  0  0  0  0  0  0  0
  -38.1283   32.4706    0.0623 O   0  0  0  0  0  0  0  0  0  0  0  0
  -31.6351   31.0914    1.6072 C   0  0  0  0  0  0  0  0  0  0  0  0
  -30.6441   30.1689    1.9017 C   0  0  0  0  0  0  0  0  0  0  0  0
  -32.6140   30.7636    0.6837 C   0  0  0  0  0  0  0  0  0  0  0  0
  -30.6825   28.9528    1.2740 C   0  0  0  0  0  0  0  0  0  0  0  0
  -32.6284   29.5508    0.0362 C   0  0  0  0  0  0  0  0  0  0  0  0
  -31.6475   28.6326    0.3395 C   0  0  0  0  0  0  0  0  0  0  0  0
  -33.5240   28.9653   -0.9481 C   0  0  0  0  0  0  0  0  0  0  0  0
  -33.0569   27.5770   -1.1835 C   0  0  0  0  0  0  0  0  0  0  0  0
  -34.6160   29.4091   -1.6505 C   0  0  0  0  0  0  0  0  0  0  0  0
  -31.7841   27.3683   -0.4193 C   0  0  0  0  0  0  0  0  0  0  0  0
  -33.6146   26.7327   -1.8803 O   0  0  0  0  0  0  0  0  0  0  0  0
  -37.2344   29.6736   -0.2093 C   0  0  0  0  0  0  0  0  0  0  0  0
  -37.3368   29.5360    1.0360 O   0  0  0  0  0  0  0  0  0  0  0  0
  -37.7873   28.8670   -1.0426 O   0  0  0  0  0  0  0  0  0  0  0  0
  -36.9181   30.1463    1.6107 H   0  0  0  0  0  0  0  0  0  0  0  0
 10 11  1  0  0  0
 10 12  2  0  0  0
 11 13  2  0  0  0
 12 14  1  0  0  0
  1  2  1  0  0  0
  1  3  2  0  0  0
 13 15  1  0  0  0
  2  5  2  0  0  0
 14 15  2  0  0  0
 14 16  1  0  0  0
  3  4  1  0  0  0
  3 18  1  0  0  0
  4  6  2  0  0  0
  4 21  1  0  0  0
 15 19  1  0  0  0
  5  6  1  0  0  0
  5  8  1  0  0  0
  6  9  1  0  0  0
 16 17  1  0  0  0
 16 18  2  0  0  0
 17 19  1  0  0  0
 17 20  2  0  0  0
 21 22  1  0  0  0
 21 23  2  0  0  0
  7  8  1  0  0  0
  7  9  1  0  0  0
 22 24  1  0  0  0
M  END
> <minimizedAffinity>
-8.02785

$$$$
3ZT2_ZT2_A_1216


 24 27  0  0  0  0  0  0  0  0999 V2000
  -35.4121   32.1126   -2.1653 C   0  0  0  0  0  0  0  0  0  0  0  0
  -35.9922   33.1879   -2.8464 C   0  0  0  0  0  0  0  0  0  0  0  0
  -35.8378   31.6483   -0.9467 C   0  0  0  0  0  0  0  0  0  0  0  0
  -36.8941   32.3230   -0.2991 C   0  0  0  0  0  0  0  0  0  0  0  0
  -37.0435   33.7775   -2.2035 C   0  0  0  0  0  0  0  0  0  0  0  0
  -37.4681   33.3704   -0.9779 C   0  0  0  0  0  0  0  0  0  0  0  0
  -38.7761   34.8431   -1.7244 C   0  0  0  0  0  0  0  0  0  0  0  0
  -37.7896   34.7877   -2.6534 O   0  0  0  0  0  0  0  0  0  0  0  0
  -38.5169   34.1199   -0.5101 O   0  0  0  0  0  0  0  0  0  0  0  0
  -32.4011   34.0010    1.3354 C   0  0  0  0  0  0  0  0  0  0  0  0
  -31.3851   33.5075    2.1379 C   0  0  0  0  0  0  0  0  0  0  0  0
  -33.3122   33.1202    0.7763 C   0  0  0  0  0  0  0  0  0  0  0  0
  -31.3323   32.1578    2.3612 C   0  0  0  0  0  0  0  0  0  0  0  0
  -33.2345   31.7630    0.9819 C   0  0  0  0  0  0  0  0  0  0  0  0
  -32.2292   31.2774    1.7888 C   0  0  0  0  0  0  0  0  0  0  0  0
  -34.0470   30.6456    0.5293 C   0  0  0  0  0  0  0  0  0  0  0  0
  -33.5030   29.4270    1.1775 C   0  0  0  0  0  0  0  0  0  0  0  0
  -35.1192   30.5060   -0.3155 C   0  0  0  0  0  0  0  0  0  0  0  0
  -32.2649   29.8042    1.9342 C   0  0  0  0  0  0  0  0  0  0  0  0
  -33.9820   28.2973    1.1153 O   0  0  0  0  0  0  0  0  0  0  0  0
  -37.4253   31.8628    1.0424 C   0  0  0  0  0  0  0  0  0  0  0  0
  -37.3648   32.6723    2.0021 O   0  0  0  0  0  0  0  0  0  0  0  0
  -37.9565   30.6980    1.1516 O   0  0  0  0  0  0  0  0  0  0  0  0
  -36.9690   33.5130    1.8817 H   0  0  0  0  0  0  0  0  0  0  0  0
 10 11  1  0  0  0
 10 12  2  0  0  0
 11 13  2  0  0  0
 12 14  1  0  0  0
  1  2  1  0  0  0
  1  3  2  0  0  0
 13 15  1  0  0  0
  2  5  2  0  0  0
 14 15  2  0  0  0
 14 16  1  0  0  0
  3  4  1  0  0  0
  3 18  1  0  0  0
  4  6  2  0  0  0
  4 21  1  0  0  0
 15 19  1  0  0  0
  5  6  1  0  0  0
  5  8  1  0  0  0
  6  9  1  0  0  0
 16 17  1  0  0  0
 16 18  2  0  0  0
 17 19  1  0  0  0
 17 20  2  0  0  0
 21 22  1  0  0  0
 21 23  2  0  0  0
  7  8  1  0  0  0
  7  9  1  0  0  0
 22 24  1  0  0  0
M  END
> <minimizedAffinity>
-7.92080

$$$$
3ZT2_ZT2_A_1216


 24 27  0  0  0  0  0  0  0  0999 V2000
  -33.2405   29.9117    1.4802 C   0  0  0  0  0  0  0  0  0  0  0  0
  -31.9433   29.4567    1.7390 C   0  0  0  0  0  0  0  0  0  0  0  0
  -33.9905   29.5349    0.3951 C   0  0  0  0  0  0  0  0  0  0  0  0
  -33.4097   28.6750   -0.5607 C   0  0  0  0  0  0  0  0  0  0  0  0
  -31.4422   28.5870    0.8125 C   0  0  0  0  0  0  0  0  0  0  0  0
  -32.1403   28.2215   -0.2953 C   0  0  0  0  0  0  0  0  0  0  0  0
  -30.3524   27.1128   -0.1907 C   0  0  0  0  0  0  0  0  0  0  0  0
  -30.2543   27.9807    0.8468 O   0  0  0  0  0  0  0  0  0  0  0  0
  -31.4357   27.3641   -1.1007 O   0  0  0  0  0  0  0  0  0  0  0  0
  -32.8640   34.0509   -0.5486 C   0  0  0  0  0  0  0  0  0  0  0  0
  -33.6977   35.1228   -0.8241 C   0  0  0  0  0  0  0  0  0  0  0  0
  -33.4185   32.8034   -0.3143 C   0  0  0  0  0  0  0  0  0  0  0  0
  -35.0477   34.8998   -0.8703 C   0  0  0  0  0  0  0  0  0  0  0  0
  -34.7772   32.5943   -0.3337 C   0  0  0  0  0  0  0  0  0  0  0  0
  -35.6019   33.6602   -0.6183 C   0  0  0  0  0  0  0  0  0  0  0  0
  -35.5993   31.4120   -0.1332 C   0  0  0  0  0  0  0  0  0  0  0  0
  -37.0044   31.8169   -0.3836 C   0  0  0  0  0  0  0  0  0  0  0  0
  -35.3541   30.1096    0.2223 C   0  0  0  0  0  0  0  0  0  0  0  0
  -37.0376   33.2976   -0.6165 C   0  0  0  0  0  0  0  0  0  0  0  0
  -37.9810   31.0717   -0.4042 O   0  0  0  0  0  0  0  0  0  0  0  0
  -34.1790   28.2073   -1.7785 C   0  0  0  0  0  0  0  0  0  0  0  0
  -33.8581   28.6929   -2.8927 O   0  0  0  0  0  0  0  0  0  0  0  0
  -35.0892   27.3096   -1.6510 O   0  0  0  0  0  0  0  0  0  0  0  0
  -33.1885   29.3464   -2.9436 H   0  0  0  0  0  0  0  0  0  0  0  0
 10 11  1  0  0  0
 10 12  2  0  0  0
 11 13  2  0  0  0
 12 14  1  0  0  0
  1  2  1  0  0  0
  1  3  2  0  0  0
 13 15  1  0  0  0
  2  5  2  0  0  0
 14 15  2  0  0  0
 14 16  1  0  0  0
  3  4  1  0  0  0
  3 18  1  0  0  0
  4  6  2  0  0  0
  4 21  1  0  0  0
 15 19  1  0  0  0
  5  6  1  0  0  0
  5  8  1  0  0  0
  6  9  1  0  0  0
 16 17  1  0  0  0
 16 18  2  0  0  0
 17 19  1  0  0  0
 17 20  2  0  0  0
 21 22  1  0  0  0
 21 23  2  0  0  0
  7  8  1  0  0  0
  7  9  1  0  0  0
 22 24  1  0  0  0
M  END
> <minimizedAffinity>
-7.80666

$$$$
3ZT2_ZT2_A_1216


 24 27  0  0  0  0  0  0  0  0999 V2000
  -37.1734   31.6079    0.8600 C   0  0  0  0  0  0  0  0  0  0  0  0
  -37.8127   32.7273    1.4031 C   0  0  0  0  0  0  0  0  0  0  0  0
  -36.2647   31.6581   -0.1664 C   0  0  0  0  0  0  0  0  0  0  0  0
  -35.9865   32.9069   -0.7608 C   0  0  0  0  0  0  0  0  0  0  0  0
  -37.4739   33.9195    0.8288 C   0  0  0  0  0  0  0  0  0  0  0  0
  -36.6077   34.0043   -0.2155 C   0  0  0  0  0  0  0  0  0  0  0  0
  -37.1299   35.9412    0.4269 C   0  0  0  0  0  0  0  0  0  0  0  0
  -37.9073   35.1296    1.1860 O   0  0  0  0  0  0  0  0  0  0  0  0
  -36.4353   35.2930   -0.6512 O   0  0  0  0  0  0  0  0  0  0  0  0
  -32.0983   31.7458    2.1112 C   0  0  0  0  0  0  0  0  0  0  0  0
  -31.0646   30.8237    2.0829 C   0  0  0  0  0  0  0  0  0  0  0  0
  -33.2423   31.5049    1.3684 C   0  0  0  0  0  0  0  0  0  0  0  0
  -31.2242   29.6929    1.3277 C   0  0  0  0  0  0  0  0  0  0  0  0
  -33.3825   30.3807    0.5895 C   0  0  0  0  0  0  0  0  0  0  0  0
  -32.3569   29.4614    0.5723 C   0  0  0  0  0  0  0  0  0  0  0  0
  -34.4562   29.8942   -0.2615 C   0  0  0  0  0  0  0  0  0  0  0  0
  -34.0408   28.5595   -0.7584 C   0  0  0  0  0  0  0  0  0  0  0  0
  -35.6695   30.3884   -0.6696 C   0  0  0  0  0  0  0  0  0  0  0  0
  -32.6390   28.2961   -0.2967 C   0  0  0  0  0  0  0  0  0  0  0  0
  -34.7246   27.7908   -1.4301 O   0  0  0  0  0  0  0  0  0  0  0  0
  -34.9874   33.0429   -1.8908 C   0  0  0  0  0  0  0  0  0  0  0  0
  -35.3924   32.8110   -3.0580 O   0  0  0  0  0  0  0  0  0  0  0  0
  -33.7886   33.4297   -1.6381 O   0  0  0  0  0  0  0  0  0  0  0  0
  -36.2749   32.5303   -3.2006 H   0  0  0  0  0  0  0  0  0  0  0  0
 10 11  1  0  0  0
 10 12  2  0  0  0
 11 13  2  0  0  0
 12 14  1  0  0  0
  1  2  1  0  0  0
  1  3  2  0  0  0
 13 15  1  0  0  0
  2  5  2  0  0  0
 14 15  2  0  0  0
 14 16  1  0  0  0
  3  4  1  0  0  0
  3 18  1  0  0  0
  4  6  2  0  0  0
  4 21  1  0  0  0
 15 19  1  0  0  0
  5  6  1  0  0  0
  5  8  1  0  0  0
  6  9  1  0  0  0
 16 17  1  0  0  0
 16 18  2  0  0  0
 17 19  1  0  0  0
 17 20  2  0  0  0
 21 22  1  0  0  0
 21 23  2  0  0  0
  7  8  1  0  0  0
  7  9  1  0  0  0
 22 24  1  0  0  0
M  END
> <minimizedAffinity>
-7.79173

$$$$
3ZT2_ZT2_A_1216


 24 27  0  0  0  0  0  0  0  0999 V2000
  -34.9909   31.3430   -1.2211 C   0  0  0  0  0  0  0  0  0  0  0  0
  -35.8259   30.4947   -1.9557 C   0  0  0  0  0  0  0  0  0  0  0  0
  -35.4280   32.2098   -0.2518 C   0  0  0  0  0  0  0  0  0  0  0  0
  -36.8141   32.3032   -0.0057 C   0  0  0  0  0  0  0  0  0  0  0  0
  -37.1536   30.5844   -1.6473 C   0  0  0  0  0  0  0  0  0  0  0  0
  -37.6283   31.4591   -0.7211 C   0  0  0  0  0  0  0  0  0  0  0  0
  -39.1956   30.2215   -1.3910 C   0  0  0  0  0  0  0  0  0  0  0  0
  -38.1454   29.8611   -2.1697 O   0  0  0  0  0  0  0  0  0  0  0  0
  -38.9922   31.3990   -0.5928 O   0  0  0  0  0  0  0  0  0  0  0  0
  -32.1375   28.9698    0.8566 C   0  0  0  0  0  0  0  0  0  0  0  0
  -30.9301   29.1370    1.5155 C   0  0  0  0  0  0  0  0  0  0  0  0
  -32.9427   30.0730    0.6264 C   0  0  0  0  0  0  0  0  0  0  0  0
  -30.5709   30.4005    1.9013 C   0  0  0  0  0  0  0  0  0  0  0  0
  -32.5879   31.3342    1.0432 C   0  0  0  0  0  0  0  0  0  0  0  0
  -31.3821   31.4978    1.6885 C   0  0  0  0  0  0  0  0  0  0  0  0
  -33.2314   32.6327    0.9257 C   0  0  0  0  0  0  0  0  0  0  0  0
  -32.2927   33.6315    1.4933 C   0  0  0  0  0  0  0  0  0  0  0  0
  -34.4370   33.0773    0.4446 C   0  0  0  0  0  0  0  0  0  0  0  0
  -31.1184   32.9028    2.0746 C   0  0  0  0  0  0  0  0  0  0  0  0
  -32.4410   34.8511    1.4876 O   0  0  0  0  0  0  0  0  0  0  0  0
  -37.3707   33.2292    1.0556 C   0  0  0  0  0  0  0  0  0  0  0  0
  -37.7565   32.7134    2.1351 O   0  0  0  0  0  0  0  0  0  0  0  0
  -37.3902   34.4970    0.8483 O   0  0  0  0  0  0  0  0  0  0  0  0
  -37.7264   31.7836    2.2472 H   0  0  0  0  0  0  0  0  0  0  0  0
 10 11  1  0  0  0
 10 12  2  0  0  0
 11 13  2  0  0  0
 12 14  1  0  0  0
  1  2  1  0  0  0
  1  3  2  0  0  0
 13 15  1  0  0  0
  2  5  2  0  0  0
 14 15  2  0  0  0
 14 16  1  0  0  0
  3  4  1  0  0  0
  3 18  1  0  0  0
  4  6  2  0  0  0
  4 21  1  0  0  0
 15 19  1  0  0  0
  5  6  1  0  0  0
  5  8  1  0  0  0
  6  9  1  0  0  0
 16 17  1  0  0  0
 16 18  2  0  0  0
 17 19  1  0  0  0
 17 20  2  0  0  0
 21 22  1  0  0  0
 21 23  2  0  0  0
  7  8  1  0  0  0
  7  9  1  0  0  0
 22 24  1  0  0  0
M  END
> <minimizedAffinity>
-7.76533

$$$$
3ZT2_ZT2_A_1216


 24 27  0  0  0  0  0  0  0  0999 V2000
  -33.9401   31.1285   -0.6011 C   0  0  0  0  0  0  0  0  0  0  0  0
  -33.1910   30.6461    0.4772 C   0  0  0  0  0  0  0  0  0  0  0  0
  -33.9463   32.4362   -1.0155 C   0  0  0  0  0  0  0  0  0  0  0  0
  -33.1955   33.3796   -0.2829 C   0  0  0  0  0  0  0  0  0  0  0  0
  -32.4410   31.5867    1.1244 C   0  0  0  0  0  0  0  0  0  0  0  0
  -32.4521   32.8984    0.7674 C   0  0  0  0  0  0  0  0  0  0  0  0
  -31.0081   32.5884    2.2692 C   0  0  0  0  0  0  0  0  0  0  0  0
  -31.6136   31.3807    2.1504 O   0  0  0  0  0  0  0  0  0  0  0  0
  -31.6487   33.6676    1.5694 O   0  0  0  0  0  0  0  0  0  0  0  0
  -37.9908   33.4124    1.2743 C   0  0  0  0  0  0  0  0  0  0  0  0
  -39.2022   33.8517    0.7649 C   0  0  0  0  0  0  0  0  0  0  0  0
  -36.9280   33.2034    0.4111 C   0  0  0  0  0  0  0  0  0  0  0  0
  -39.2955   34.0793   -0.5818 C   0  0  0  0  0  0  0  0  0  0  0  0
  -37.0388   33.4065   -0.9442 C   0  0  0  0  0  0  0  0  0  0  0  0
  -38.2416   33.8532   -1.4453 C   0  0  0  0  0  0  0  0  0  0  0  0
  -36.0986   33.2720   -2.0450 C   0  0  0  0  0  0  0  0  0  0  0  0
  -36.7977   33.7377   -3.2678 C   0  0  0  0  0  0  0  0  0  0  0  0
  -34.8065   32.8270   -2.1675 C   0  0  0  0  0  0  0  0  0  0  0  0
  -38.2231   34.0394   -2.9142 C   0  0  0  0  0  0  0  0  0  0  0  0
  -36.3000   33.8635   -4.3841 O   0  0  0  0  0  0  0  0  0  0  0  0
  -33.1450   34.8387   -0.6858 C   0  0  0  0  0  0  0  0  0  0  0  0
  -32.2656   35.1843   -1.5149 O   0  0  0  0  0  0  0  0  0  0  0  0
  -34.0141   35.6598   -0.2158 O   0  0  0  0  0  0  0  0  0  0  0  0
  -31.6492   34.5548   -1.8340 H   0  0  0  0  0  0  0  0  0  0  0  0
 10 11  1  0  0  0
 10 12  2  0  0  0
 11 13  2  0  0  0
 12 14  1  0  0  0
  1  2  1  0  0  0
  1  3  2  0  0  0
 13 15  1  0  0  0
  2  5  2  0  0  0
 14 15  2  0  0  0
 14 16  1  0  0  0
  3  4  1  0  0  0
  3 18  1  0  0  0
  4  6  2  0  0  0
  4 21  1  0  0  0
 15 19  1  0  0  0
  5  6  1  0  0  0
  5  8  1  0  0  0
  6  9  1  0  0  0
 16 17  1  0  0  0
 16 18  2  0  0  0
 17 19  1  0  0  0
 17 20  2  0  0  0
 21 22  1  0  0  0
 21 23  2  0  0  0
  7  8  1  0  0  0
  7  9  1  0  0  0
 22 24  1  0  0  0
M  END
> <minimizedAffinity>
-7.69022

$$$$
