1O5G_CR9_H_393


 33 36  0  0  0  0  0  0  0  0999 V2000
   11.8597  -11.8894   22.8436 C   0  0  0  0  0  0  0  0  0  0  0  0
   12.8193  -10.8528   22.6585 C   0  0  0  0  0  0  0  0  0  0  0  0
   12.8747   -9.7598   23.4690 F   0  0  0  0  0  0  0  0  0  0  0  0
   13.7724  -10.9075   21.6516 C   0  0  0  0  0  0  0  0  0  0  0  0
   13.7663  -11.9971   20.8330 C   0  0  0  0  0  0  0  0  0  0  0  0
   12.8695  -13.0146   20.9643 C   0  0  0  0  0  0  0  0  0  0  0  0
   11.8987  -12.9897   21.9668 C   0  0  0  0  0  0  0  0  0  0  0  0
   14.5189  -12.3165   19.8409 N   0  0  0  0  0  0  0  0  0  0  0  0
   13.0510  -13.9631   20.0673 N   0  0  0  0  0  0  0  0  0  0  0  0
   14.0960  -13.4765   19.3864 C   0  0  0  0  0  0  0  0  0  0  0  0
   15.2721  -11.7906   19.4869 H   0  0  0  0  0  0  0  0  0  0  0  0
   10.8854  -11.8261   23.8699 C   0  0  0  0  0  0  0  0  0  0  0  0
   10.2490  -12.9107   24.2270 N   0  0  0  0  0  0  0  0  0  0  0  0
   10.5913  -10.6919   24.4914 N   0  0  0  0  0  0  0  0  0  0  0  0
   10.4471  -13.7666   23.7827 H   0  0  0  0  0  0  0  0  0  0  0  0
    9.5715  -12.8717   24.9403 H   0  0  0  0  0  0  0  0  0  0  0  0
   11.0551   -9.8598   24.2428 H   0  0  0  0  0  0  0  0  0  0  0  0
    9.9093  -10.6820   25.2013 H   0  0  0  0  0  0  0  0  0  0  0  0
   14.7096  -14.1352   18.3035 C   0  0  0  0  0  0  0  0  0  0  0  0
   14.7413  -15.5335   18.2450 C   0  0  0  0  0  0  0  0  0  0  0  0
   15.3560  -16.1849   17.1832 C   0  0  0  0  0  0  0  0  0  0  0  0
   15.9409  -15.4586   16.1629 C   0  0  0  0  0  0  0  0  0  0  0  0
   15.9303  -14.0616   16.1894 C   0  0  0  0  0  0  0  0  0  0  0  0
   15.3077  -13.3950   17.2639 C   0  0  0  0  0  0  0  0  0  0  0  0
   15.2670  -12.0093   17.3073 O   0  0  0  0  0  0  0  0  0  0  0  0
   16.5257  -13.3382   15.1621 O   0  0  0  0  0  0  0  0  0  0  0  0
   17.9492  -12.6708   13.2466 C   0  0  0  0  0  0  0  0  0  0  0  0
   18.8433  -11.4365   13.4659 C   0  0  0  0  0  0  0  0  0  0  0  0
   20.2576  -11.8892   13.8817 C   0  0  0  0  0  0  0  0  0  0  0  0
   20.2231  -13.0274   14.9745 C   0  0  0  0  0  0  0  0  0  0  0  0
   18.8354  -13.1241   15.6530 C   0  0  0  0  0  0  0  0  0  0  0  0
   17.8183  -13.5470   14.5794 C   0  0  0  0  0  0  0  0  0  0  0  0
   16.5788  -12.1997   12.7219 C   0  0  0  0  0  0  0  0  0  0  0  0
  1  2  2  0  0  0
  1  7  1  0  0  0
  1 12  1  0  0  0
  2  3  1  0  0  0
  2  4  1  0  0  0
  4  5  2  0  0  0
  5  6  1  0  0  0
  5  8  1  0  0  0
  6  7  2  0  0  0
  6  9  1  0  0  0
 12 13  1  0  0  0
 12 14  2  0  0  0
  8 10  1  0  0  0
  9 10  2  0  0  0
 10 19  1  0  0  0
 19 20  2  0  0  0
 19 24  1  0  0  0
 20 21  1  0  0  0
 21 22  2  0  0  0
 22 23  1  0  0  0
 23 24  2  0  0  0
 23 26  1  0  0  0
 24 25  1  0  0  0
 26 32  1  0  0  0
 27 28  1  0  0  0
 27 32  1  0  0  0
 27 33  1  0  0  0
 28 29  1  0  0  0
 29 30  1  0  0  0
 30 31  1  0  0  0
 31 32  1  0  0  0
 13 15  1  0  0  0
 13 16  1  0  0  0
 14 17  1  0  0  0
 14 18  1  0  0  0
  8 11  1  0  0  0
M  CHG 1  14   1
M  CHG 1  25  -1
M  END
> <minimizedAffinity>
-10.44444

$$$$
1O5G_CR9_H_393


 33 36  0  0  0  0  0  0  0  0999 V2000
   12.1117  -11.9073   23.1092 C   0  0  0  0  0  0  0  0  0  0  0  0
   12.5219  -10.5977   22.7265 C   0  0  0  0  0  0  0  0  0  0  0  0
   11.8611   -9.4796   23.1362 F   0  0  0  0  0  0  0  0  0  0  0  0
   13.6372  -10.3826   21.9294 C   0  0  0  0  0  0  0  0  0  0  0  0
   14.3408  -11.4747   21.5176 C   0  0  0  0  0  0  0  0  0  0  0  0
   13.9905  -12.7483   21.8521 C   0  0  0  0  0  0  0  0  0  0  0  0
   12.8747  -12.9982   22.6525 C   0  0  0  0  0  0  0  0  0  0  0  0
   15.3982  -11.5785   20.7938 N   0  0  0  0  0  0  0  0  0  0  0  0
   14.8134  -13.6450   21.3460 N   0  0  0  0  0  0  0  0  0  0  0  0
   15.6770  -12.8601   20.6899 C   0  0  0  0  0  0  0  0  0  0  0  0
   15.9053  -10.8366   20.3918 H   0  0  0  0  0  0  0  0  0  0  0  0
   10.9693  -12.1217   23.9188 C   0  0  0  0  0  0  0  0  0  0  0  0
   10.8383  -11.4652   25.0417 N   0  0  0  0  0  0  0  0  0  0  0  0
   10.0137  -12.9748   23.5748 N   0  0  0  0  0  0  0  0  0  0  0  0
   11.5324  -10.8256   25.3218 H   0  0  0  0  0  0  0  0  0  0  0  0
   10.0456  -11.6104   25.6072 H   0  0  0  0  0  0  0  0  0  0  0  0
   10.0863  -13.4826   22.7346 H   0  0  0  0  0  0  0  0  0  0  0  0
    9.2318  -13.1001   24.1597 H   0  0  0  0  0  0  0  0  0  0  0  0
   16.7913  -13.3374   19.9732 C   0  0  0  0  0  0  0  0  0  0  0  0
   17.8447  -13.9777   20.6366 C   0  0  0  0  0  0  0  0  0  0  0  0
   18.9497  -14.4390   19.9326 C   0  0  0  0  0  0  0  0  0  0  0  0
   19.0213  -14.2778   18.5616 C   0  0  0  0  0  0  0  0  0  0  0  0
   17.9894  -13.6414   17.8668 C   0  0  0  0  0  0  0  0  0  0  0  0
   16.8654  -13.1716   18.5756 C   0  0  0  0  0  0  0  0  0  0  0  0
   15.8186  -12.5518   17.9093 O   0  0  0  0  0  0  0  0  0  0  0  0
   18.0714  -13.4782   16.4885 O   0  0  0  0  0  0  0  0  0  0  0  0
   19.6381  -12.2103   15.0465 C   0  0  0  0  0  0  0  0  0  0  0  0
   19.5258  -12.4707   13.5331 C   0  0  0  0  0  0  0  0  0  0  0  0
   18.6383  -11.3882   12.8861 C   0  0  0  0  0  0  0  0  0  0  0  0
   17.3312  -11.1078   13.7250 C   0  0  0  0  0  0  0  0  0  0  0  0
   17.0521  -12.2415   14.7411 C   0  0  0  0  0  0  0  0  0  0  0  0
   18.2054  -12.2520   15.7587 C   0  0  0  0  0  0  0  0  0  0  0  0
   20.6194  -13.2334   15.6511 C   0  0  0  0  0  0  0  0  0  0  0  0
  1  2  2  0  0  0
  1  7  1  0  0  0
  1 12  1  0  0  0
  2  3  1  0  0  0
  2  4  1  0  0  0
  4  5  2  0  0  0
  5  6  1  0  0  0
  5  8  1  0  0  0
  6  7  2  0  0  0
  6  9  1  0  0  0
 12 13  1  0  0  0
 12 14  2  0  0  0
  8 10  1  0  0  0
  9 10  2  0  0  0
 10 19  1  0  0  0
 19 20  2  0  0  0
 19 24  1  0  0  0
 20 21  1  0  0  0
 21 22  2  0  0  0
 22 23  1  0  0  0
 23 24  2  0  0  0
 23 26  1  0  0  0
 24 25  1  0  0  0
 26 32  1  0  0  0
 27 28  1  0  0  0
 27 32  1  0  0  0
 27 33  1  0  0  0
 28 29  1  0  0  0
 29 30  1  0  0  0
 30 31  1  0  0  0
 31 32  1  0  0  0
 13 15  1  0  0  0
 13 16  1  0  0  0
 14 17  1  0  0  0
 14 18  1  0  0  0
  8 11  1  0  0  0
M  CHG 1  14   1
M  CHG 1  25  -1
M  END
> <minimizedAffinity>
-10.33185

$$$$
1O5G_CR9_H_393


 33 36  0  0  0  0  0  0  0  0999 V2000
   12.6611  -12.1212   22.1522 C   0  0  0  0  0  0  0  0  0  0  0  0
   12.2543  -13.3403   21.5376 C   0  0  0  0  0  0  0  0  0  0  0  0
   11.0148  -13.8720   21.7265 F   0  0  0  0  0  0  0  0  0  0  0  0
   13.0926  -14.0485   20.6883 C   0  0  0  0  0  0  0  0  0  0  0  0
   14.3341  -13.5374   20.4537 C   0  0  0  0  0  0  0  0  0  0  0  0
   14.7742  -12.3778   21.0178 C   0  0  0  0  0  0  0  0  0  0  0  0
   13.9553  -11.6421   21.8760 C   0  0  0  0  0  0  0  0  0  0  0  0
   15.3014  -13.9624   19.7214 N   0  0  0  0  0  0  0  0  0  0  0  0
   16.0027  -12.0744   20.6491 N   0  0  0  0  0  0  0  0  0  0  0  0
   16.2884  -13.1003   19.8378 C   0  0  0  0  0  0  0  0  0  0  0  0
   15.3033  -14.7813   19.1749 H   0  0  0  0  0  0  0  0  0  0  0  0
   11.8032  -11.4049   23.0226 C   0  0  0  0  0  0  0  0  0  0  0  0
   11.9191  -10.1066   23.1229 N   0  0  0  0  0  0  0  0  0  0  0  0
   10.8732  -12.0106   23.7488 N   0  0  0  0  0  0  0  0  0  0  0  0
   12.6008   -9.6310   22.5955 H   0  0  0  0  0  0  0  0  0  0  0  0
   11.3245   -9.6046   23.7260 H   0  0  0  0  0  0  0  0  0  0  0  0
   10.7637  -12.9874   23.6930 H   0  0  0  0  0  0  0  0  0  0  0  0
   10.2924  -11.4833   24.3437 H   0  0  0  0  0  0  0  0  0  0  0  0
   17.5087  -13.2484   19.1508 C   0  0  0  0  0  0  0  0  0  0  0  0
   18.6890  -13.5330   19.8476 C   0  0  0  0  0  0  0  0  0  0  0  0
   19.8956  -13.6682   19.1727 C   0  0  0  0  0  0  0  0  0  0  0  0
   19.9462  -13.5301   17.7983 C   0  0  0  0  0  0  0  0  0  0  0  0
   18.7883  -13.2437   17.0705 C   0  0  0  0  0  0  0  0  0  0  0  0
   17.5609  -13.1058   17.7497 C   0  0  0  0  0  0  0  0  0  0  0  0
   16.3930  -12.8388   17.0508 O   0  0  0  0  0  0  0  0  0  0  0  0
   18.8483  -13.1007   15.6888 O   0  0  0  0  0  0  0  0  0  0  0  0
   20.4101  -12.1139   14.0370 C   0  0  0  0  0  0  0  0  0  0  0  0
   20.0427  -12.3144   12.5552 C   0  0  0  0  0  0  0  0  0  0  0  0
   19.2930  -11.0712   12.0351 C   0  0  0  0  0  0  0  0  0  0  0  0
   18.1906  -10.5717   13.0479 C   0  0  0  0  0  0  0  0  0  0  0  0
   17.8472  -11.6564   14.0971 C   0  0  0  0  0  0  0  0  0  0  0  0
   19.1075  -11.9046   14.9430 C   0  0  0  0  0  0  0  0  0  0  0  0
   21.2563  -13.3153   14.5018 C   0  0  0  0  0  0  0  0  0  0  0  0
  1  2  2  0  0  0
  1  7  1  0  0  0
  1 12  1  0  0  0
  2  3  1  0  0  0
  2  4  1  0  0  0
  4  5  2  0  0  0
  5  6  1  0  0  0
  5  8  1  0  0  0
  6  7  2  0  0  0
  6  9  1  0  0  0
 12 13  1  0  0  0
 12 14  2  0  0  0
  8 10  1  0  0  0
  9 10  2  0  0  0
 10 19  1  0  0  0
 19 20  2  0  0  0
 19 24  1  0  0  0
 20 21  1  0  0  0
 21 22  2  0  0  0
 22 23  1  0  0  0
 23 24  2  0  0  0
 23 26  1  0  0  0
 24 25  1  0  0  0
 26 32  1  0  0  0
 27 28  1  0  0  0
 27 32  1  0  0  0
 27 33  1  0  0  0
 28 29  1  0  0  0
 29 30  1  0  0  0
 30 31  1  0  0  0
 31 32  1  0  0  0
 13 15  1  0  0  0
 13 16  1  0  0  0
 14 17  1  0  0  0
 14 18  1  0  0  0
  8 11  1  0  0  0
M  CHG 1  14   1
M  CHG 1  25  -1
M  END
> <minimizedAffinity>
-10.24307

$$$$
1O5G_CR9_H_393


 33 36  0  0  0  0  0  0  0  0999 V2000
   12.2804  -11.4794   22.8314 C   0  0  0  0  0  0  0  0  0  0  0  0
   11.7027  -12.6981   22.3726 C   0  0  0  0  0  0  0  0  0  0  0  0
   10.4867  -13.1342   22.8037 F   0  0  0  0  0  0  0  0  0  0  0  0
   12.3372  -13.5040   21.4381 C   0  0  0  0  0  0  0  0  0  0  0  0
   13.5460  -13.0909   20.9631 C   0  0  0  0  0  0  0  0  0  0  0  0
   14.1442  -11.9364   21.3702 C   0  0  0  0  0  0  0  0  0  0  0  0
   13.5319  -11.1038   22.3083 C   0  0  0  0  0  0  0  0  0  0  0  0
   14.3442  -13.6175   20.1039 N   0  0  0  0  0  0  0  0  0  0  0  0
   15.3048  -11.7361   20.7784 N   0  0  0  0  0  0  0  0  0  0  0  0
   15.3845  -12.8193   19.9956 C   0  0  0  0  0  0  0  0  0  0  0  0
   14.2032  -14.4615   19.6171 H   0  0  0  0  0  0  0  0  0  0  0  0
   11.6308  -10.6629   23.7895 C   0  0  0  0  0  0  0  0  0  0  0  0
   10.5058  -11.0605   24.3236 N   0  0  0  0  0  0  0  0  0  0  0  0
   12.1287   -9.4942   24.1709 N   0  0  0  0  0  0  0  0  0  0  0  0
   10.1133  -11.9237   24.0590 H   0  0  0  0  0  0  0  0  0  0  0  0
   10.0511  -10.4967   24.9904 H   0  0  0  0  0  0  0  0  0  0  0  0
   12.9745   -9.1700   23.7851 H   0  0  0  0  0  0  0  0  0  0  0  0
   11.6526   -8.9510   24.8398 H   0  0  0  0  0  0  0  0  0  0  0  0
   16.4553  -13.0848   19.1204 C   0  0  0  0  0  0  0  0  0  0  0  0
   17.6183  -13.7096   19.5859 C   0  0  0  0  0  0  0  0  0  0  0  0
   18.6800  -13.9620   18.7264 C   0  0  0  0  0  0  0  0  0  0  0  0
   18.5995  -13.6046   17.3935 C   0  0  0  0  0  0  0  0  0  0  0  0
   17.4550  -12.9771   16.8946 C   0  0  0  0  0  0  0  0  0  0  0  0
   16.3743  -12.7188   17.7618 C   0  0  0  0  0  0  0  0  0  0  0  0
   15.2192  -12.1131   17.2899 O   0  0  0  0  0  0  0  0  0  0  0  0
   17.3839  -12.6157   15.5540 O   0  0  0  0  0  0  0  0  0  0  0  0
   16.6977  -13.1429   13.2318 C   0  0  0  0  0  0  0  0  0  0  0  0
   17.3009  -12.2528   12.1296 C   0  0  0  0  0  0  0  0  0  0  0  0
   18.5402  -12.9445   11.5264 C   0  0  0  0  0  0  0  0  0  0  0  0
   19.4832  -13.5536   12.6357 C   0  0  0  0  0  0  0  0  0  0  0  0
   19.1690  -12.9696   14.0342 C   0  0  0  0  0  0  0  0  0  0  0  0
   17.7439  -13.4061   14.4139 C   0  0  0  0  0  0  0  0  0  0  0  0
   15.3984  -12.4869   13.7388 C   0  0  0  0  0  0  0  0  0  0  0  0
  1  2  2  0  0  0
  1  7  1  0  0  0
  1 12  1  0  0  0
  2  3  1  0  0  0
  2  4  1  0  0  0
  4  5  2  0  0  0
  5  6  1  0  0  0
  5  8  1  0  0  0
  6  7  2  0  0  0
  6  9  1  0  0  0
 12 13  1  0  0  0
 12 14  2  0  0  0
  8 10  1  0  0  0
  9 10  2  0  0  0
 10 19  1  0  0  0
 19 20  2  0  0  0
 19 24  1  0  0  0
 20 21  1  0  0  0
 21 22  2  0  0  0
 22 23  1  0  0  0
 23 24  2  0  0  0
 23 26  1  0  0  0
 24 25  1  0  0  0
 26 32  1  0  0  0
 27 28  1  0  0  0
 27 32  1  0  0  0
 27 33  1  0  0  0
 28 29  1  0  0  0
 29 30  1  0  0  0
 30 31  1  0  0  0
 31 32  1  0  0  0
 13 15  1  0  0  0
 13 16  1  0  0  0
 14 17  1  0  0  0
 14 18  1  0  0  0
  8 11  1  0  0  0
M  CHG 1  14   1
M  CHG 1  25  -1
M  END
> <minimizedAffinity>
-9.71903

$$$$
1O5G_CR9_H_393


 33 36  0  0  0  0  0  0  0  0999 V2000
   18.8025  -11.6689   14.1945 C   0  0  0  0  0  0  0  0  0  0  0  0
   20.1623  -12.0890   14.1312 C   0  0  0  0  0  0  0  0  0  0  0  0
   20.9804  -11.7519   13.0960 F   0  0  0  0  0  0  0  0  0  0  0  0
   20.7418  -12.8501   15.1363 C   0  0  0  0  0  0  0  0  0  0  0  0
   19.9632  -13.1888   16.2024 C   0  0  0  0  0  0  0  0  0  0  0  0
   18.6572  -12.8160   16.3112 C   0  0  0  0  0  0  0  0  0  0  0  0
   18.0450  -12.0502   15.3177 C   0  0  0  0  0  0  0  0  0  0  0  0
   20.2260  -13.8658   17.2632 N   0  0  0  0  0  0  0  0  0  0  0  0
   18.1012  -13.2521   17.4238 N   0  0  0  0  0  0  0  0  0  0  0  0
   19.1264  -13.9058   17.9844 C   0  0  0  0  0  0  0  0  0  0  0  0
   21.0900  -14.2779   17.4932 H   0  0  0  0  0  0  0  0  0  0  0  0
   18.2142  -10.8964   13.1631 C   0  0  0  0  0  0  0  0  0  0  0  0
   18.8831   -9.9060   12.6334 N   0  0  0  0  0  0  0  0  0  0  0  0
   16.9934  -11.1445   12.7077 N   0  0  0  0  0  0  0  0  0  0  0  0
   19.7914   -9.6993   12.9520 H   0  0  0  0  0  0  0  0  0  0  0  0
   18.4786   -9.3668   11.9158 H   0  0  0  0  0  0  0  0  0  0  0  0
   16.4670  -11.8842   13.0883 H   0  0  0  0  0  0  0  0  0  0  0  0
   16.6138  -10.5890   11.9890 H   0  0  0  0  0  0  0  0  0  0  0  0
   19.0610  -14.5581   19.2307 C   0  0  0  0  0  0  0  0  0  0  0  0
   18.1184  -15.5678   19.4583 C   0  0  0  0  0  0  0  0  0  0  0  0
   18.0450  -16.2044   20.6907 C   0  0  0  0  0  0  0  0  0  0  0  0
   18.9096  -15.8533   21.7105 C   0  0  0  0  0  0  0  0  0  0  0  0
   19.8616  -14.8485   21.5197 C   0  0  0  0  0  0  0  0  0  0  0  0
   19.9411  -14.1992   20.2713 C   0  0  0  0  0  0  0  0  0  0  0  0
   20.8878  -13.2103   20.0484 O   0  0  0  0  0  0  0  0  0  0  0  0
   20.7240  -14.4972   22.5522 O   0  0  0  0  0  0  0  0  0  0  0  0
   22.2418  -14.9129   24.4665 C   0  0  0  0  0  0  0  0  0  0  0  0
   22.3633  -13.7721   25.4936 C   0  0  0  0  0  0  0  0  0  0  0  0
   21.4059  -14.0341   26.6737 C   0  0  0  0  0  0  0  0  0  0  0  0
   19.9759  -14.4959   26.1913 C   0  0  0  0  0  0  0  0  0  0  0  0
   19.7520  -14.1839   24.6920 C   0  0  0  0  0  0  0  0  0  0  0  0
   20.7552  -15.0247   23.8844 C   0  0  0  0  0  0  0  0  0  0  0  0
   23.2871  -14.6898   23.3562 C   0  0  0  0  0  0  0  0  0  0  0  0
  1  2  2  0  0  0
  1  7  1  0  0  0
  1 12  1  0  0  0
  2  3  1  0  0  0
  2  4  1  0  0  0
  4  5  2  0  0  0
  5  6  1  0  0  0
  5  8  1  0  0  0
  6  7  2  0  0  0
  6  9  1  0  0  0
 12 13  1  0  0  0
 12 14  2  0  0  0
  8 10  1  0  0  0
  9 10  2  0  0  0
 10 19  1  0  0  0
 19 20  2  0  0  0
 19 24  1  0  0  0
 20 21  1  0  0  0
 21 22  2  0  0  0
 22 23  1  0  0  0
 23 24  2  0  0  0
 23 26  1  0  0  0
 24 25  1  0  0  0
 26 32  1  0  0  0
 27 28  1  0  0  0
 27 32  1  0  0  0
 27 33  1  0  0  0
 28 29  1  0  0  0
 29 30  1  0  0  0
 30 31  1  0  0  0
 31 32  1  0  0  0
 13 15  1  0  0  0
 13 16  1  0  0  0
 14 17  1  0  0  0
 14 18  1  0  0  0
  8 11  1  0  0  0
M  CHG 1  14   1
M  CHG 1  25  -1
M  END
> <minimizedAffinity>
-9.59974

$$$$
1O5G_CR9_H_393


 33 36  0  0  0  0  0  0  0  0999 V2000
   13.4234  -13.3126   21.1400 C   0  0  0  0  0  0  0  0  0  0  0  0
   13.0328  -14.3635   20.2611 C   0  0  0  0  0  0  0  0  0  0  0  0
   11.8966  -15.0890   20.4546 F   0  0  0  0  0  0  0  0  0  0  0  0
   13.7780  -14.6956   19.1387 C   0  0  0  0  0  0  0  0  0  0  0  0
   14.9103  -13.9771   18.8957 C   0  0  0  0  0  0  0  0  0  0  0  0
   15.3307  -12.9648   19.7051 C   0  0  0  0  0  0  0  0  0  0  0  0
   14.6035  -12.6061   20.8412 C   0  0  0  0  0  0  0  0  0  0  0  0
   15.7759  -14.0535   17.9483 N   0  0  0  0  0  0  0  0  0  0  0  0
   16.4468  -12.4097   19.2769 N   0  0  0  0  0  0  0  0  0  0  0  0
   16.6852  -13.1296   18.1735 C   0  0  0  0  0  0  0  0  0  0  0  0
   15.7611  -14.6860   17.1940 H   0  0  0  0  0  0  0  0  0  0  0  0
   12.6618  -12.9811   22.2874 C   0  0  0  0  0  0  0  0  0  0  0  0
   12.4954  -11.7264   22.6145 N   0  0  0  0  0  0  0  0  0  0  0  0
   12.1024  -13.9091   23.0524 N   0  0  0  0  0  0  0  0  0  0  0  0
   12.8993  -11.0166   22.0646 H   0  0  0  0  0  0  0  0  0  0  0  0
   11.9662  -11.4912   23.4106 H   0  0  0  0  0  0  0  0  0  0  0  0
   12.2114  -14.8619   22.8297 H   0  0  0  0  0  0  0  0  0  0  0  0
   11.5783  -13.6452   23.8429 H   0  0  0  0  0  0  0  0  0  0  0  0
   17.7813  -12.9201   17.3147 C   0  0  0  0  0  0  0  0  0  0  0  0
   18.9486  -13.6808   17.4500 C   0  0  0  0  0  0  0  0  0  0  0  0
   20.0350  -13.4676   16.6110 C   0  0  0  0  0  0  0  0  0  0  0  0
   19.9754  -12.5028   15.6230 C   0  0  0  0  0  0  0  0  0  0  0  0
   18.8272  -11.7232   15.4604 C   0  0  0  0  0  0  0  0  0  0  0  0
   17.7215  -11.9351   16.3084 C   0  0  0  0  0  0  0  0  0  0  0  0
   16.5628  -11.1878   16.1584 O   0  0  0  0  0  0  0  0  0  0  0  0
   18.7771  -10.7508   14.4678 O   0  0  0  0  0  0  0  0  0  0  0  0
   19.5948  -11.3324   12.2019 C   0  0  0  0  0  0  0  0  0  0  0  0
   19.5388  -12.8242   11.8248 C   0  0  0  0  0  0  0  0  0  0  0  0
   18.2491  -13.1087   11.0286 C   0  0  0  0  0  0  0  0  0  0  0  0
   16.9838  -12.4233   11.6768 C   0  0  0  0  0  0  0  0  0  0  0  0
   17.2556  -11.9910   13.1378 C   0  0  0  0  0  0  0  0  0  0  0  0
   18.3470  -10.9076   13.1097 C   0  0  0  0  0  0  0  0  0  0  0  0
   20.9423  -11.0494   12.8943 C   0  0  0  0  0  0  0  0  0  0  0  0
  1  2  2  0  0  0
  1  7  1  0  0  0
  1 12  1  0  0  0
  2  3  1  0  0  0
  2  4  1  0  0  0
  4  5  2  0  0  0
  5  6  1  0  0  0
  5  8  1  0  0  0
  6  7  2  0  0  0
  6  9  1  0  0  0
 12 13  1  0  0  0
 12 14  2  0  0  0
  8 10  1  0  0  0
  9 10  2  0  0  0
 10 19  1  0  0  0
 19 20  2  0  0  0
 19 24  1  0  0  0
 20 21  1  0  0  0
 21 22  2  0  0  0
 22 23  1  0  0  0
 23 24  2  0  0  0
 23 26  1  0  0  0
 24 25  1  0  0  0
 26 32  1  0  0  0
 27 28  1  0  0  0
 27 32  1  0  0  0
 27 33  1  0  0  0
 28 29  1  0  0  0
 29 30  1  0  0  0
 30 31  1  0  0  0
 31 32  1  0  0  0
 13 15  1  0  0  0
 13 16  1  0  0  0
 14 17  1  0  0  0
 14 18  1  0  0  0
  8 11  1  0  0  0
M  CHG 1  14   1
M  CHG 1  25  -1
M  END
> <minimizedAffinity>
-9.43435

$$$$
1O5G_CR9_H_393


 33 36  0  0  0  0  0  0  0  0999 V2000
   21.4946  -14.4957   25.2721 C   0  0  0  0  0  0  0  0  0  0  0  0
   22.6163  -14.5664   24.3967 C   0  0  0  0  0  0  0  0  0  0  0  0
   23.8971  -14.6093   24.8578 F   0  0  0  0  0  0  0  0  0  0  0  0
   22.4682  -14.6194   23.0181 C   0  0  0  0  0  0  0  0  0  0  0  0
   21.2010  -14.6029   22.5168 C   0  0  0  0  0  0  0  0  0  0  0  0
   20.0943  -14.5332   23.3085 C   0  0  0  0  0  0  0  0  0  0  0  0
   20.2094  -14.4790   24.6985 C   0  0  0  0  0  0  0  0  0  0  0  0
   20.7670  -14.6479   21.3076 N   0  0  0  0  0  0  0  0  0  0  0  0
   18.9763  -14.5324   22.6104 N   0  0  0  0  0  0  0  0  0  0  0  0
   19.4531  -14.6040   21.3614 C   0  0  0  0  0  0  0  0  0  0  0  0
   21.3160  -14.7047   20.4923 H   0  0  0  0  0  0  0  0  0  0  0  0
   21.6516  -14.4365   26.6786 C   0  0  0  0  0  0  0  0  0  0  0  0
   21.1184  -13.4491   27.3492 N   0  0  0  0  0  0  0  0  0  0  0  0
   22.3279  -15.3590   27.3501 N   0  0  0  0  0  0  0  0  0  0  0  0
   20.6110  -12.7504   26.8765 H   0  0  0  0  0  0  0  0  0  0  0  0
   21.2242  -13.4043   28.3270 H   0  0  0  0  0  0  0  0  0  0  0  0
   22.7400  -16.1137   26.8707 H   0  0  0  0  0  0  0  0  0  0  0  0
   22.4179  -15.2890   28.3280 H   0  0  0  0  0  0  0  0  0  0  0  0
   18.6456  -14.6514   20.2088 C   0  0  0  0  0  0  0  0  0  0  0  0
   17.6086  -15.5858   20.1027 C   0  0  0  0  0  0  0  0  0  0  0  0
   16.8183  -15.6413   18.9617 C   0  0  0  0  0  0  0  0  0  0  0  0
   17.0414  -14.7670   17.9146 C   0  0  0  0  0  0  0  0  0  0  0  0
   18.0690  -13.8227   17.9848 C   0  0  0  0  0  0  0  0  0  0  0  0
   18.8739  -13.7613   19.1402 C   0  0  0  0  0  0  0  0  0  0  0  0
   19.8898  -12.8226   19.2442 O   0  0  0  0  0  0  0  0  0  0  0  0
   18.2906  -12.9504   16.9251 O   0  0  0  0  0  0  0  0  0  0  0  0
   18.2148  -12.3560   14.5205 C   0  0  0  0  0  0  0  0  0  0  0  0
   19.1283  -11.1969   14.0811 C   0  0  0  0  0  0  0  0  0  0  0  0
   20.4482  -11.7626   13.5192 C   0  0  0  0  0  0  0  0  0  0  0  0
   21.0363  -12.9154   14.4225 C   0  0  0  0  0  0  0  0  0  0  0  0
   20.3936  -12.9201   15.8305 C   0  0  0  0  0  0  0  0  0  0  0  0
   18.8997  -13.2448   15.6616 C   0  0  0  0  0  0  0  0  0  0  0  0
   16.8607  -11.7731   14.9699 C   0  0  0  0  0  0  0  0  0  0  0  0
  1  2  2  0  0  0
  1  7  1  0  0  0
  1 12  1  0  0  0
  2  3  1  0  0  0
  2  4  1  0  0  0
  4  5  2  0  0  0
  5  6  1  0  0  0
  5  8  1  0  0  0
  6  7  2  0  0  0
  6  9  1  0  0  0
 12 13  1  0  0  0
 12 14  2  0  0  0
  8 10  1  0  0  0
  9 10  2  0  0  0
 10 19  1  0  0  0
 19 20  2  0  0  0
 19 24  1  0  0  0
 20 21  1  0  0  0
 21 22  2  0  0  0
 22 23  1  0  0  0
 23 24  2  0  0  0
 23 26  1  0  0  0
 24 25  1  0  0  0
 26 32  1  0  0  0
 27 28  1  0  0  0
 27 32  1  0  0  0
 27 33  1  0  0  0
 28 29  1  0  0  0
 29 30  1  0  0  0
 30 31  1  0  0  0
 31 32  1  0  0  0
 13 15  1  0  0  0
 13 16  1  0  0  0
 14 17  1  0  0  0
 14 18  1  0  0  0
  8 11  1  0  0  0
M  CHG 1  14   1
M  CHG 1  25  -1
M  END
> <minimizedAffinity>
-9.34747

$$$$
1O5G_CR9_H_393


 33 36  0  0  0  0  0  0  0  0999 V2000
   11.8429  -11.8677   23.2523 C   0  0  0  0  0  0  0  0  0  0  0  0
   12.4452  -10.5978   23.0193 C   0  0  0  0  0  0  0  0  0  0  0  0
   12.0945   -9.4862   23.7236 F   0  0  0  0  0  0  0  0  0  0  0  0
   13.4450  -10.4233   22.0731 C   0  0  0  0  0  0  0  0  0  0  0  0
   13.8420  -11.5167   21.3629 C   0  0  0  0  0  0  0  0  0  0  0  0
   13.2975  -12.7526   21.5439 C   0  0  0  0  0  0  0  0  0  0  0  0
   12.2906  -12.9612   22.4877 C   0  0  0  0  0  0  0  0  0  0  0  0
   14.7327  -11.6548   20.4463 N   0  0  0  0  0  0  0  0  0  0  0  0
   13.8348  -13.6591   20.7522 N   0  0  0  0  0  0  0  0  0  0  0  0
   14.7279  -12.9193   20.0831 C   0  0  0  0  0  0  0  0  0  0  0  0
   15.3112  -10.9457   20.0833 H   0  0  0  0  0  0  0  0  0  0  0  0
   10.8189  -12.0393   24.2159 C   0  0  0  0  0  0  0  0  0  0  0  0
    9.8702  -12.9135   24.0046 N   0  0  0  0  0  0  0  0  0  0  0  0
   10.7868  -11.3371   25.3407 N   0  0  0  0  0  0  0  0  0  0  0  0
    9.8691  -13.4487   23.1782 H   0  0  0  0  0  0  0  0  0  0  0  0
    9.1569  -13.0368   24.6718 H   0  0  0  0  0  0  0  0  0  0  0  0
   11.4885  -10.6718   25.5258 H   0  0  0  0  0  0  0  0  0  0  0  0
   10.0613  -11.4811   25.9904 H   0  0  0  0  0  0  0  0  0  0  0  0
   15.5993  -13.4290   19.1014 C   0  0  0  0  0  0  0  0  0  0  0  0
   15.0997  -13.9134   17.8868 C   0  0  0  0  0  0  0  0  0  0  0  0
   15.9569  -14.4269   16.9219 C   0  0  0  0  0  0  0  0  0  0  0  0
   17.3205  -14.4604   17.1460 C   0  0  0  0  0  0  0  0  0  0  0  0
   17.8543  -13.9876   18.3477 C   0  0  0  0  0  0  0  0  0  0  0  0
   16.9895  -13.4650   19.3303 C   0  0  0  0  0  0  0  0  0  0  0  0
   17.4934  -12.9729   20.5252 O   0  0  0  0  0  0  0  0  0  0  0  0
   19.2265  -14.0298   18.5678 O   0  0  0  0  0  0  0  0  0  0  0  0
   20.8210  -14.2999   20.4455 C   0  0  0  0  0  0  0  0  0  0  0  0
   20.1974  -14.5183   21.8363 C   0  0  0  0  0  0  0  0  0  0  0  0
   20.1468  -16.0274   22.1496 C   0  0  0  0  0  0  0  0  0  0  0  0
   19.6270  -16.8745   20.9236 C   0  0  0  0  0  0  0  0  0  0  0  0
   18.9183  -15.9838   19.8749 C   0  0  0  0  0  0  0  0  0  0  0  0
   19.9659  -15.0166   19.2981 C   0  0  0  0  0  0  0  0  0  0  0  0
   20.9668  -12.7848   20.2032 C   0  0  0  0  0  0  0  0  0  0  0  0
  1  2  2  0  0  0
  1  7  1  0  0  0
  1 12  1  0  0  0
  2  3  1  0  0  0
  2  4  1  0  0  0
  4  5  2  0  0  0
  5  6  1  0  0  0
  5  8  1  0  0  0
  6  7  2  0  0  0
  6  9  1  0  0  0
 12 13  1  0  0  0
 12 14  2  0  0  0
  8 10  1  0  0  0
  9 10  2  0  0  0
 10 19  1  0  0  0
 19 20  2  0  0  0
 19 24  1  0  0  0
 20 21  1  0  0  0
 21 22  2  0  0  0
 22 23  1  0  0  0
 23 24  2  0  0  0
 23 26  1  0  0  0
 24 25  1  0  0  0
 26 32  1  0  0  0
 27 28  1  0  0  0
 27 32  1  0  0  0
 27 33  1  0  0  0
 28 29  1  0  0  0
 29 30  1  0  0  0
 30 31  1  0  0  0
 31 32  1  0  0  0
 13 15  1  0  0  0
 13 16  1  0  0  0
 14 17  1  0  0  0
 14 18  1  0  0  0
  8 11  1  0  0  0
M  CHG 1  14   1
M  CHG 1  25  -1
M  END
> <minimizedAffinity>
-9.30530

$$$$
1O5G_CR9_H_393


 33 36  0  0  0  0  0  0  0  0999 V2000
    9.7359  -12.3873   11.1644 C   0  0  0  0  0  0  0  0  0  0  0  0
    9.8819  -13.8044   11.1467 C   0  0  0  0  0  0  0  0  0  0  0  0
    8.8179  -14.6436   11.0104 F   0  0  0  0  0  0  0  0  0  0  0  0
   11.1242  -14.4146   11.2445 C   0  0  0  0  0  0  0  0  0  0  0  0
   12.2177  -13.6091   11.3582 C   0  0  0  0  0  0  0  0  0  0  0  0
   12.1340  -12.2493   11.3832 C   0  0  0  0  0  0  0  0  0  0  0  0
   10.8995  -11.6051   11.2866 C   0  0  0  0  0  0  0  0  0  0  0  0
   13.4690  -13.8870   11.4562 N   0  0  0  0  0  0  0  0  0  0  0  0
   13.3150  -11.6752   11.4969 N   0  0  0  0  0  0  0  0  0  0  0  0
   14.1180  -12.7456   11.5404 C   0  0  0  0  0  0  0  0  0  0  0  0
   13.8677  -14.7871   11.4663 H   0  0  0  0  0  0  0  0  0  0  0  0
    8.4647  -11.7696   11.0695 C   0  0  0  0  0  0  0  0  0  0  0  0
    8.0399  -11.3357    9.9119 N   0  0  0  0  0  0  0  0  0  0  0  0
    7.6781  -11.6136   12.1260 N   0  0  0  0  0  0  0  0  0  0  0  0
    8.6030  -11.4383    9.1109 H   0  0  0  0  0  0  0  0  0  0  0  0
    7.1567  -10.9064    9.8410 H   0  0  0  0  0  0  0  0  0  0  0  0
    7.9726  -11.9310   13.0102 H   0  0  0  0  0  0  0  0  0  0  0  0
    6.7996  -11.1806   12.0260 H   0  0  0  0  0  0  0  0  0  0  0  0
   15.5208  -12.6775   11.6431 C   0  0  0  0  0  0  0  0  0  0  0  0
   16.3245  -12.7675   10.5006 C   0  0  0  0  0  0  0  0  0  0  0  0
   17.7088  -12.7119   10.6014 C   0  0  0  0  0  0  0  0  0  0  0  0
   18.3135  -12.5592   11.8350 C   0  0  0  0  0  0  0  0  0  0  0  0
   17.5428  -12.4682   12.9970 C   0  0  0  0  0  0  0  0  0  0  0  0
   16.1377  -12.5237   12.9010 C   0  0  0  0  0  0  0  0  0  0  0  0
   15.3474  -12.4185   14.0360 O   0  0  0  0  0  0  0  0  0  0  0  0
   18.1587  -12.3204   14.2347 O   0  0  0  0  0  0  0  0  0  0  0  0
   20.1225  -13.3207   15.3677 C   0  0  0  0  0  0  0  0  0  0  0  0
   20.4967  -12.7153   16.7331 C   0  0  0  0  0  0  0  0  0  0  0  0
   19.8786  -13.5641   17.8626 C   0  0  0  0  0  0  0  0  0  0  0  0
   18.3760  -13.9465   17.5681 C   0  0  0  0  0  0  0  0  0  0  0  0
   17.7701  -13.0596   16.4538 C   0  0  0  0  0  0  0  0  0  0  0  0
   18.5369  -13.3535   15.1532 C   0  0  0  0  0  0  0  0  0  0  0  0
   20.8439  -12.5258   14.2618 C   0  0  0  0  0  0  0  0  0  0  0  0
  1  2  2  0  0  0
  1  7  1  0  0  0
  1 12  1  0  0  0
  2  3  1  0  0  0
  2  4  1  0  0  0
  4  5  2  0  0  0
  5  6  1  0  0  0
  5  8  1  0  0  0
  6  7  2  0  0  0
  6  9  1  0  0  0
 12 13  1  0  0  0
 12 14  2  0  0  0
  8 10  1  0  0  0
  9 10  2  0  0  0
 10 19  1  0  0  0
 19 20  2  0  0  0
 19 24  1  0  0  0
 20 21  1  0  0  0
 21 22  2  0  0  0
 22 23  1  0  0  0
 23 24  2  0  0  0
 23 26  1  0  0  0
 24 25  1  0  0  0
 26 32  1  0  0  0
 27 28  1  0  0  0
 27 32  1  0  0  0
 27 33  1  0  0  0
 28 29  1  0  0  0
 29 30  1  0  0  0
 30 31  1  0  0  0
 31 32  1  0  0  0
 13 15  1  0  0  0
 13 16  1  0  0  0
 14 17  1  0  0  0
 14 18  1  0  0  0
  8 11  1  0  0  0
M  CHG 1  14   1
M  CHG 1  25  -1
M  END
> <minimizedAffinity>
-9.27456

$$$$
1O5G_CR9_H_393


 33 36  0  0  0  0  0  0  0  0999 V2000
   19.2640  -12.3424   13.5924 C   0  0  0  0  0  0  0  0  0  0  0  0
   20.2462  -12.5789   14.5968 C   0  0  0  0  0  0  0  0  0  0  0  0
   21.5606  -12.2717   14.4156 F   0  0  0  0  0  0  0  0  0  0  0  0
   19.9162  -13.1170   15.8325 C   0  0  0  0  0  0  0  0  0  0  0  0
   18.6067  -13.4163   16.0630 C   0  0  0  0  0  0  0  0  0  0  0  0
   17.6285  -13.2130   15.1366 C   0  0  0  0  0  0  0  0  0  0  0  0
   17.9276  -12.6733   13.8846 C   0  0  0  0  0  0  0  0  0  0  0  0
   18.0182  -13.9075   17.0950 N   0  0  0  0  0  0  0  0  0  0  0  0
   16.4385  -13.5719   15.5754 N   0  0  0  0  0  0  0  0  0  0  0  0
   16.7378  -14.0019   16.8075 C   0  0  0  0  0  0  0  0  0  0  0  0
   18.4463  -14.1652   17.9433 H   0  0  0  0  0  0  0  0  0  0  0  0
   19.6071  -11.7977   12.3305 C   0  0  0  0  0  0  0  0  0  0  0  0
   19.6792  -12.5794   11.2853 N   0  0  0  0  0  0  0  0  0  0  0  0
   19.8605  -10.5060   12.1676 N   0  0  0  0  0  0  0  0  0  0  0  0
   19.4961  -13.5424   11.3772 H   0  0  0  0  0  0  0  0  0  0  0  0
   19.9165  -12.2052   10.4061 H   0  0  0  0  0  0  0  0  0  0  0  0
   19.8136   -9.8942   12.9375 H   0  0  0  0  0  0  0  0  0  0  0  0
   20.0955  -10.1590   11.2767 H   0  0  0  0  0  0  0  0  0  0  0  0
   15.7888  -14.4892   17.7266 C   0  0  0  0  0  0  0  0  0  0  0  0
   15.2133  -15.7536   17.5543 C   0  0  0  0  0  0  0  0  0  0  0  0
   14.2686  -16.2311   18.4538 C   0  0  0  0  0  0  0  0  0  0  0  0
   13.8878  -15.4644   19.5392 C   0  0  0  0  0  0  0  0  0  0  0  0
   14.4397  -14.1967   19.7415 C   0  0  0  0  0  0  0  0  0  0  0  0
   15.3990  -13.7070   18.8324 C   0  0  0  0  0  0  0  0  0  0  0  0
   15.9761  -12.4595   19.0182 O   0  0  0  0  0  0  0  0  0  0  0  0
   14.0474  -13.4293   20.8325 O   0  0  0  0  0  0  0  0  0  0  0  0
   11.8345  -13.2873   21.9387 C   0  0  0  0  0  0  0  0  0  0  0  0
   11.8070  -12.5854   23.3090 C   0  0  0  0  0  0  0  0  0  0  0  0
   11.3971  -11.1100   23.1266 C   0  0  0  0  0  0  0  0  0  0  0  0
   12.1485  -10.4265   21.9187 C   0  0  0  0  0  0  0  0  0  0  0  0
   13.3855  -11.2465   21.4796 C   0  0  0  0  0  0  0  0  0  0  0  0
   12.8846  -12.5993   20.9461 C   0  0  0  0  0  0  0  0  0  0  0  0
   12.1331  -14.7834   22.1573 C   0  0  0  0  0  0  0  0  0  0  0  0
  1  2  2  0  0  0
  1  7  1  0  0  0
  1 12  1  0  0  0
  2  3  1  0  0  0
  2  4  1  0  0  0
  4  5  2  0  0  0
  5  6  1  0  0  0
  5  8  1  0  0  0
  6  7  2  0  0  0
  6  9  1  0  0  0
 12 13  1  0  0  0
 12 14  2  0  0  0
  8 10  1  0  0  0
  9 10  2  0  0  0
 10 19  1  0  0  0
 19 20  2  0  0  0
 19 24  1  0  0  0
 20 21  1  0  0  0
 21 22  2  0  0  0
 22 23  1  0  0  0
 23 24  2  0  0  0
 23 26  1  0  0  0
 24 25  1  0  0  0
 26 32  1  0  0  0
 27 28  1  0  0  0
 27 32  1  0  0  0
 27 33  1  0  0  0
 28 29  1  0  0  0
 29 30  1  0  0  0
 30 31  1  0  0  0
 31 32  1  0  0  0
 13 15  1  0  0  0
 13 16  1  0  0  0
 14 17  1  0  0  0
 14 18  1  0  0  0
  8 11  1  0  0  0
M  CHG 1  14   1
M  CHG 1  25  -1
M  END
> <minimizedAffinity>
-8.87260

$$$$
