1O5G_CR9_H_393
  RCSB PDB12061703303D
Coordinates from PDB:1O5G:H:393 Model:1 without hydrogens
 28 31  0  0  0  0            999 V2000
   11.8230  -11.7600   22.8690   C 0  0  0  0  0  0  0  0  0  0  0  0
   12.4000  -10.5120   22.4960   C 0  0  0  0  0  0  0  0  0  0  0  0
   12.1890   -9.3710   23.2090   F 0  0  0  0  0  0  0  0  0  0  0  0
   13.2330  -10.3900   21.3930   C 0  0  0  0  0  0  0  0  0  0  0  0
   13.4890  -11.5140   20.6660   C 0  0  0  0  0  0  0  0  0  0  0  0
   12.9610  -12.7310   20.9770   C 0  0  0  0  0  0  0  0  0  0  0  0
   12.1200  -12.8870   22.0800   C 0  0  0  0  0  0  0  0  0  0  0  0
   10.9690  -11.8780   23.9930   C 0  0  0  0  0  0  0  0  0  0  0  0
   10.3460  -13.0050   24.2180   N 0  0  0  0  0  0  0  0  0  0  0  0
   10.7760  -10.8740   24.8380   N 0  3  0  0  0  0  0  0  0  0  0  0
   14.2140  -11.7010   19.6210   N 0  0  0  0  0  0  0  0  0  0  0  0
   13.3450  -13.6740   20.1400   N 0  0  0  0  0  0  0  0  0  0  0  0
   14.1280  -12.9760   19.3080   C 0  0  0  0  0  0  0  0  0  0  0  0
   14.8170  -13.5360   18.2150   C 0  0  0  0  0  0  0  0  0  0  0  0
   14.7180  -14.9040   17.9350   C 0  0  0  0  0  0  0  0  0  0  0  0
   15.4060  -15.4600   16.8640   C 0  0  0  0  0  0  0  0  0  0  0  0
   16.1950  -14.6660   16.0530   C 0  0  0  0  0  0  0  0  0  0  0  0
   16.3190  -13.2970   16.3040   C 0  0  0  0  0  0  0  0  0  0  0  0
   15.6230  -12.7270   17.3890   C 0  0  0  0  0  0  0  0  0  0  0  0
   15.7140  -11.3680   17.6510   O 0  5  0  0  0  0  0  0  0  0  0  0
   17.1190  -12.5060   15.4870   O 0  0  0  0  0  0  0  0  0  0  0  0
   18.3140  -12.2050   13.3370   C 0  0  0  0  0  0  0  0  0  0  0  0
   19.3120  -11.0340   13.2760   C 0  0  0  0  0  0  0  0  0  0  0  0
   20.7350  -11.5510   13.5690   C 0  0  0  0  0  0  0  0  0  0  0  0
   20.7700  -12.5380   14.8000   C 0  0  0  0  0  0  0  0  0  0  0  0
   19.4830  -12.4310   15.6530   C 0  0  0  0  0  0  0  0  0  0  0  0
   18.3040  -12.8950   14.7810   C 0  0  0  0  0  0  0  0  0  0  0  0
   16.9210  -11.6870   12.9290   C 0  0  0  0  0  0  0  0  0  0  0  0
  1  2  2  0  0  0  0
  1  7  1  0  0  0  0
  1  8  1  0  0  0  0
  2  3  1  0  0  0  0
  2  4  1  0  0  0  0
  4  5  2  0  0  0  0
  5  6  1  0  0  0  0
  5 11  1  0  0  0  0
  6  7  2  0  0  0  0
  6 12  1  0  0  0  0
  8  9  1  0  0  0  0
  8 10  2  0  0  0  0
 11 13  1  0  0  0  0
 12 13  2  0  0  0  0
 13 14  1  0  0  0  0
 14 15  2  0  0  0  0
 14 19  1  0  0  0  0
 15 16  1  0  0  0  0
 16 17  2  0  0  0  0
 17 18  1  0  0  0  0
 18 19  2  0  0  0  0
 18 21  1  0  0  0  0
 19 20  1  0  0  0  0
 21 27  1  0  0  0  0
 22 23  1  0  0  0  0
 22 27  1  0  0  0  0
 22 28  1  0  0  0  0
 23 24  1  0  0  0  0
 24 25  1  0  0  0  0
 25 26  1  0  0  0  0
 26 27  1  0  0  0  0
M  CHG  2  10   1  20  -1
A    1
C1
A    2
C2
A    3
F2
A    4
C3
A    5
C4
A    6
C5
A    7
C6
A    8
C7
A    9
N1
A   10
N2
A   11
N3
A   12
N4
A   13
C8
A   14
C1'
A   15
C2'
A   16
C3'
A   17
C4'
A   18
C5'
A   19
C6'
A   20
O6'
A   21
O5'
A   22
C1B
A   23
C2B
A   24
C3B
A   25
C4B
A   26
C5B
A   27
C6B
A   28
C1A
M  END
>  <InstanceId>
1O5G_CR9_H_393

>  <ChemCompId>
CR9

>  <PdbId>
1O5G

>  <ChainId>
H

>  <ResidueNumber>
393

>  <InsertionCode>


>  <Model>
1

>  <AltIds>


>  <MissingHeavyAtoms>
0

>  <ObservedFormula>
C21 N4 O2 F

>  <Name>
2-{5-[AMINO(IMINIO)METHYL]-6-FLUORO-1H-BENZIMIDAZOL-2-YL}-6-[(2-METHYLCYCLOHEXYL)OXY]BENZENOLATE

>  <SystematicName>
2-[5-(amino-azaniumylidene-methyl)-6-fluoro-1H-benzimidazol-2-yl]-6-[(1S,2S)-2-methylcyclohexyl]oxy-phenolate

>  <Synonyms>
CRA_11092

>  <Type>
NON-POLYMER

>  <Formula>
C21 H23 F N4 O2

>  <MolecularWeight>
382.431

>  <ModifiedDate>
2011-06-04

>  <Parent>


>  <OneLetterCode>


>  <SubcomponentList>


>  <AmbiguousFlag>
N

>  <InChI>
InChI=1S/C21H23FN4O2/c1-11-5-2-3-7-17(11)28-18-8-4-6-12(19(18)27)21-25-15-9-13(20(23)24)14(22)10-16(15)26-21/h4,6,8-11,17,27H,2-3,5,7H2,1H3,(H3,23,24)(H,25,26)/t11-,17-/m0/s1

>  <InChIKey>
CMCDWLMEDRBWIR-GTNSWQLSSA-N

>  <SMILES>
C[C@H]1CCCC[C@@H]1Oc2cccc(c2[O-])c3[nH]c4cc(c(cc4n3)C(=[NH2+])N)F

$$$$
