3S0E_EOL_A_120


 13 13  0  0  0  0  0  0  0  0999 V2000
    3.2813  -11.0516  -10.5659 C   0  0  0  0  0  0  0  0  0  0  0  0
    2.2316  -13.5114   -8.0868 O   0  0  0  0  0  0  0  0  0  0  0  0
    3.7539  -11.9005  -11.5724 C   0  0  0  0  0  0  0  0  0  0  0  0
    2.7807  -11.6030   -9.3888 C   0  0  0  0  0  0  0  0  0  0  0  0
    3.7465  -13.2803  -11.3873 C   0  0  0  0  0  0  0  0  0  0  0  0
    2.7332  -12.9802   -9.2352 C   0  0  0  0  0  0  0  0  0  0  0  0
    3.2301  -13.8296  -10.2189 C   0  0  0  0  0  0  0  0  0  0  0  0
    1.8946  -12.9481   -7.4182 H   0  0  0  0  0  0  0  0  0  0  0  0
    2.2719  -10.8280   -8.3646 O   0  0  0  0  0  0  0  0  0  0  0  0
    2.1068   -9.4693   -8.5358 C   0  0  0  0  0  0  0  0  0  0  0  0
    4.2764  -11.3372  -12.8561 C   0  0  0  0  0  0  0  0  0  0  0  0
    3.3460  -10.5370  -13.6899 C   0  0  0  0  0  0  0  0  0  0  0  0
    3.2991   -9.1861  -13.5301 C   0  0  0  0  0  0  0  0  0  0  0  0
  1  3  2  0  0  0
  1  4  1  0  0  0
  2  6  1  0  0  0
  3  5  1  0  0  0
  3 11  1  0  0  0
  9  4  1  0  0  0
  9 10  1  0  0  0
  4  6  2  0  0  0
  5  7  2  0  0  0
  6  7  1  0  0  0
 11 12  1  0  0  0
 12 13  2  0  0  0
  2  8  1  0  0  0
M  END
> <minimizedAffinity>
-7.04147

$$$$
3S0E_EOL_A_120


 13 13  0  0  0  0  0  0  0  0999 V2000
    2.7311  -10.6190  -10.8620 C   0  0  0  0  0  0  0  0  0  0  0  0
    2.2843   -9.6405   -7.3776 O   0  0  0  0  0  0  0  0  0  0  0  0
    2.3102   -9.4494  -11.5036 C   0  0  0  0  0  0  0  0  0  0  0  0
    2.7078  -10.6791   -9.4706 C   0  0  0  0  0  0  0  0  0  0  0  0
    1.8494   -8.3673  -10.7586 C   0  0  0  0  0  0  0  0  0  0  0  0
    2.2930   -9.5780   -8.7371 C   0  0  0  0  0  0  0  0  0  0  0  0
    1.8435   -8.4227   -9.3692 C   0  0  0  0  0  0  0  0  0  0  0  0
    2.5849  -10.4139   -6.9423 H   0  0  0  0  0  0  0  0  0  0  0  0
    3.1348  -11.7899   -8.7689 O   0  0  0  0  0  0  0  0  0  0  0  0
    2.6565  -13.0430   -9.0912 C   0  0  0  0  0  0  0  0  0  0  0  0
    2.3455   -9.3483  -12.9959 C   0  0  0  0  0  0  0  0  0  0  0  0
    3.5169   -9.9248  -13.7007 C   0  0  0  0  0  0  0  0  0  0  0  0
    3.3657  -11.0681  -14.4236 C   0  0  0  0  0  0  0  0  0  0  0  0
  1  3  2  0  0  0
  1  4  1  0  0  0
  2  6  1  0  0  0
  3  5  1  0  0  0
  3 11  1  0  0  0
  9  4  1  0  0  0
  9 10  1  0  0  0
  4  6  2  0  0  0
  5  7  2  0  0  0
  6  7  1  0  0  0
 11 12  1  0  0  0
 12 13  2  0  0  0
  2  8  1  0  0  0
M  END
> <minimizedAffinity>
-6.08159

$$$$
3S0E_EOL_A_120


 13 13  0  0  0  0  0  0  0  0999 V2000
    2.8337  -11.4950  -11.3678 C   0  0  0  0  0  0  0  0  0  0  0  0
    3.0980  -13.3524   -8.2408 O   0  0  0  0  0  0  0  0  0  0  0  0
    2.5022  -10.2280  -10.8761 C   0  0  0  0  0  0  0  0  0  0  0  0
    3.0211  -12.5457  -10.4728 C   0  0  0  0  0  0  0  0  0  0  0  0
    2.3369  -10.0274   -9.5083 C   0  0  0  0  0  0  0  0  0  0  0  0
    2.9017  -12.3232   -9.1094 C   0  0  0  0  0  0  0  0  0  0  0  0
    2.5417  -11.0733   -8.6151 C   0  0  0  0  0  0  0  0  0  0  0  0
    3.3407  -14.1979   -8.5634 H   0  0  0  0  0  0  0  0  0  0  0  0
    3.3770  -13.8156  -10.8840 O   0  0  0  0  0  0  0  0  0  0  0  0
    4.4112  -13.9930  -11.7794 C   0  0  0  0  0  0  0  0  0  0  0  0
    2.3169   -9.0758  -11.8122 C   0  0  0  0  0  0  0  0  0  0  0  0
    2.5259   -9.3208  -13.2605 C   0  0  0  0  0  0  0  0  0  0  0  0
    3.7822   -9.2377  -13.7778 C   0  0  0  0  0  0  0  0  0  0  0  0
  1  3  2  0  0  0
  1  4  1  0  0  0
  2  6  1  0  0  0
  3  5  1  0  0  0
  3 11  1  0  0  0
  9  4  1  0  0  0
  9 10  1  0  0  0
  4  6  2  0  0  0
  5  7  2  0  0  0
  6  7  1  0  0  0
 11 12  1  0  0  0
 12 13  2  0  0  0
  2  8  1  0  0  0
M  END
> <minimizedAffinity>
-5.83681

$$$$
3S0E_EOL_A_120


 13 13  0  0  0  0  0  0  0  0999 V2000
    2.5843  -10.9285  -11.3610 C   0  0  0  0  0  0  0  0  0  0  0  0
    3.5304  -11.4146  -14.8491 O   0  0  0  0  0  0  0  0  0  0  0  0
    2.3725   -9.5457  -11.3522 C   0  0  0  0  0  0  0  0  0  0  0  0
    2.9862  -11.5488  -12.5416 C   0  0  0  0  0  0  0  0  0  0  0  0
    2.5863   -8.7958  -12.5056 C   0  0  0  0  0  0  0  0  0  0  0  0
    3.1490  -10.7992  -13.6966 C   0  0  0  0  0  0  0  0  0  0  0  0
    2.9705   -9.4193  -13.6876 C   0  0  0  0  0  0  0  0  0  0  0  0
    3.6534  -12.3433  -14.8657 H   0  0  0  0  0  0  0  0  0  0  0  0
    3.1868  -12.9127  -12.6317 O   0  0  0  0  0  0  0  0  0  0  0  0
    3.8271  -13.5907  -11.6153 C   0  0  0  0  0  0  0  0  0  0  0  0
    1.9189   -8.8559  -10.1045 C   0  0  0  0  0  0  0  0  0  0  0  0
    1.8202   -9.6640   -8.8642 C   0  0  0  0  0  0  0  0  0  0  0  0
    2.7184   -9.4619   -7.8617 C   0  0  0  0  0  0  0  0  0  0  0  0
  1  3  2  0  0  0
  1  4  1  0  0  0
  2  6  1  0  0  0
  3  5  1  0  0  0
  3 11  1  0  0  0
  9  4  1  0  0  0
  9 10  1  0  0  0
  4  6  2  0  0  0
  5  7  2  0  0  0
  6  7  1  0  0  0
 11 12  1  0  0  0
 12 13  2  0  0  0
  2  8  1  0  0  0
M  END
> <minimizedAffinity>
-5.72806

$$$$
3S0E_EOL_A_120


 13 13  0  0  0  0  0  0  0  0999 V2000
    2.9684  -10.8707  -11.0942 C   0  0  0  0  0  0  0  0  0  0  0  0
    2.0955   -7.8930  -13.0098 O   0  0  0  0  0  0  0  0  0  0  0  0
    3.6178  -11.6190  -12.0818 C   0  0  0  0  0  0  0  0  0  0  0  0
    2.4475   -9.6204  -11.4189 C   0  0  0  0  0  0  0  0  0  0  0  0
    3.7191  -11.1284  -13.3808 C   0  0  0  0  0  0  0  0  0  0  0  0
    2.5970   -9.1207  -12.7036 C   0  0  0  0  0  0  0  0  0  0  0  0
    3.2141   -9.8724  -13.6987 C   0  0  0  0  0  0  0  0  0  0  0  0
    1.6781   -7.3788  -12.3470 H   0  0  0  0  0  0  0  0  0  0  0  0
    1.8189   -8.8146  -10.4892 O   0  0  0  0  0  0  0  0  0  0  0  0
    1.7134   -9.2200   -9.1750 C   0  0  0  0  0  0  0  0  0  0  0  0
    4.2066  -12.9553  -11.7563 C   0  0  0  0  0  0  0  0  0  0  0  0
    3.3250  -13.9622  -11.1160 C   0  0  0  0  0  0  0  0  0  0  0  0
    3.2523  -14.0195   -9.7580 C   0  0  0  0  0  0  0  0  0  0  0  0
  1  3  2  0  0  0
  1  4  1  0  0  0
  2  6  1  0  0  0
  3  5  1  0  0  0
  3 11  1  0  0  0
  9  4  1  0  0  0
  9 10  1  0  0  0
  4  6  2  0  0  0
  5  7  2  0  0  0
  6  7  1  0  0  0
 11 12  1  0  0  0
 12 13  2  0  0  0
  2  8  1  0  0  0
M  END
> <minimizedAffinity>
-5.67448

$$$$
3S0E_EOL_A_120


 13 13  0  0  0  0  0  0  0  0999 V2000
    3.3305  -10.7294  -10.7631 C   0  0  0  0  0  0  0  0  0  0  0  0
    3.9036  -14.1170  -11.9853 O   0  0  0  0  0  0  0  0  0  0  0  0
    2.8453  -11.0075   -9.4809 C   0  0  0  0  0  0  0  0  0  0  0  0
    3.6737  -11.7843  -11.6054 C   0  0  0  0  0  0  0  0  0  0  0  0
    2.6841  -12.3255   -9.0622 C   0  0  0  0  0  0  0  0  0  0  0  0
    3.5550  -13.0922  -11.1604 C   0  0  0  0  0  0  0  0  0  0  0  0
    3.0438  -13.3770   -9.8980 C   0  0  0  0  0  0  0  0  0  0  0  0
    4.2487  -13.9359  -12.8374 H   0  0  0  0  0  0  0  0  0  0  0  0
    4.1851  -11.5849  -12.8732 O   0  0  0  0  0  0  0  0  0  0  0  0
    3.3872  -11.0671  -13.8721 C   0  0  0  0  0  0  0  0  0  0  0  0
    2.4899   -9.8944   -8.5465 C   0  0  0  0  0  0  0  0  0  0  0  0
    1.3714   -8.9988   -8.9314 C   0  0  0  0  0  0  0  0  0  0  0  0
    1.6215   -7.9191   -9.7217 C   0  0  0  0  0  0  0  0  0  0  0  0
  1  3  2  0  0  0
  1  4  1  0  0  0
  2  6  1  0  0  0
  3  5  1  0  0  0
  3 11  1  0  0  0
  9  4  1  0  0  0
  9 10  1  0  0  0
  4  6  2  0  0  0
  5  7  2  0  0  0
  6  7  1  0  0  0
 11 12  1  0  0  0
 12 13  2  0  0  0
  2  8  1  0  0  0
M  END
> <minimizedAffinity>
-5.57971

$$$$
3S0E_EOL_A_120


 13 13  0  0  0  0  0  0  0  0999 V2000
    2.7285  -10.9302  -11.1435 C   0  0  0  0  0  0  0  0  0  0  0  0
    1.6930   -7.6520   -9.9272 O   0  0  0  0  0  0  0  0  0  0  0  0
    2.8011  -11.6312   -9.9351 C   0  0  0  0  0  0  0  0  0  0  0  0
    2.3657   -9.5855  -11.1305 C   0  0  0  0  0  0  0  0  0  0  0  0
    2.5377  -10.9834   -8.7313 C   0  0  0  0  0  0  0  0  0  0  0  0
    2.0582   -8.9631   -9.9302 C   0  0  0  0  0  0  0  0  0  0  0  0
    2.1584   -9.6455   -8.7218 C   0  0  0  0  0  0  0  0  0  0  0  0
    1.6226   -7.1834  -10.7356 H   0  0  0  0  0  0  0  0  0  0  0  0
    2.2462   -8.8383  -12.2864 O   0  0  0  0  0  0  0  0  0  0  0  0
    2.9626   -9.1815  -13.4141 C   0  0  0  0  0  0  0  0  0  0  0  0
    3.1663  -13.0819   -9.9207 C   0  0  0  0  0  0  0  0  0  0  0  0
    3.3142  -13.7710  -11.2263 C   0  0  0  0  0  0  0  0  0  0  0  0
    4.5408  -13.8355  -11.8127 C   0  0  0  0  0  0  0  0  0  0  0  0
  1  3  2  0  0  0
  1  4  1  0  0  0
  2  6  1  0  0  0
  3  5  1  0  0  0
  3 11  1  0  0  0
  9  4  1  0  0  0
  9 10  1  0  0  0
  4  6  2  0  0  0
  5  7  2  0  0  0
  6  7  1  0  0  0
 11 12  1  0  0  0
 12 13  2  0  0  0
  2  8  1  0  0  0
M  END
> <minimizedAffinity>
-5.40386

$$$$
3S0E_EOL_A_120


 13 13  0  0  0  0  0  0  0  0999 V2000
    2.5997  -11.5657  -10.4954 C   0  0  0  0  0  0  0  0  0  0  0  0
    4.8538  -13.9926  -12.0209 O   0  0  0  0  0  0  0  0  0  0  0  0
    3.0206  -10.3976  -11.1397 C   0  0  0  0  0  0  0  0  0  0  0  0
    3.2314  -12.7717  -10.7897 C   0  0  0  0  0  0  0  0  0  0  0  0
    4.0766  -10.4378  -12.0461 C   0  0  0  0  0  0  0  0  0  0  0  0
    4.2495  -12.8083  -11.7302 C   0  0  0  0  0  0  0  0  0  0  0  0
    4.6943  -11.6455  -12.3517 C   0  0  0  0  0  0  0  0  0  0  0  0
    4.5618  -14.7813  -11.6078 H   0  0  0  0  0  0  0  0  0  0  0  0
    2.8506  -13.9683  -10.2138 O   0  0  0  0  0  0  0  0  0  0  0  0
    1.9420  -13.9832   -9.1759 C   0  0  0  0  0  0  0  0  0  0  0  0
    2.3458   -9.0919  -10.8600 C   0  0  0  0  0  0  0  0  0  0  0  0
    1.4176   -9.0266   -9.7044 C   0  0  0  0  0  0  0  0  0  0  0  0
    1.9229   -9.0284   -8.4405 C   0  0  0  0  0  0  0  0  0  0  0  0
  1  3  2  0  0  0
  1  4  1  0  0  0
  2  6  1  0  0  0
  3  5  1  0  0  0
  3 11  1  0  0  0
  9  4  1  0  0  0
  9 10  1  0  0  0
  4  6  2  0  0  0
  5  7  2  0  0  0
  6  7  1  0  0  0
 11 12  1  0  0  0
 12 13  2  0  0  0
  2  8  1  0  0  0
M  END
> <minimizedAffinity>
-5.07777

$$$$
3S0E_EOL_A_120


 13 13  0  0  0  0  0  0  0  0999 V2000
    2.9704  -11.2833  -10.3316 C   0  0  0  0  0  0  0  0  0  0  0  0
    1.5191   -7.9381  -10.3587 O   0  0  0  0  0  0  0  0  0  0  0  0
    3.4516  -11.3552  -11.6431 C   0  0  0  0  0  0  0  0  0  0  0  0
    2.3093  -10.1320   -9.9104 C   0  0  0  0  0  0  0  0  0  0  0  0
    3.2487  -10.2963  -12.5240 C   0  0  0  0  0  0  0  0  0  0  0  0
    2.1558   -9.0642  -10.7815 C   0  0  0  0  0  0  0  0  0  0  0  0
    2.6041   -9.1407  -12.0965 C   0  0  0  0  0  0  0  0  0  0  0  0
    1.2133   -7.8765   -9.4751 H   0  0  0  0  0  0  0  0  0  0  0  0
    1.8326   -9.9795   -8.6227 O   0  0  0  0  0  0  0  0  0  0  0  0
    2.6114   -9.3723   -7.6596 C   0  0  0  0  0  0  0  0  0  0  0  0
    4.1850  -12.5704  -12.1163 C   0  0  0  0  0  0  0  0  0  0  0  0
    3.4542  -13.8616  -12.1201 C   0  0  0  0  0  0  0  0  0  0  0  0
    2.2861  -13.9662  -12.8109 C   0  0  0  0  0  0  0  0  0  0  0  0
  1  3  2  0  0  0
  1  4  1  0  0  0
  2  6  1  0  0  0
  3  5  1  0  0  0
  3 11  1  0  0  0
  9  4  1  0  0  0
  9 10  1  0  0  0
  4  6  2  0  0  0
  5  7  2  0  0  0
  6  7  1  0  0  0
 11 12  1  0  0  0
 12 13  2  0  0  0
  2  8  1  0  0  0
M  END
> <minimizedAffinity>
-5.00465

$$$$
3S0E_EOL_A_120


 13 13  0  0  0  0  0  0  0  0999 V2000
    2.5568   -9.8892  -11.1595 C   0  0  0  0  0  0  0  0  0  0  0  0
    2.3548  -10.2623   -7.5376 O   0  0  0  0  0  0  0  0  0  0  0  0
    2.8455  -11.2073  -11.5286 C   0  0  0  0  0  0  0  0  0  0  0  0
    2.4047   -9.5770   -9.8106 C   0  0  0  0  0  0  0  0  0  0  0  0
    3.0038  -12.1899  -10.5551 C   0  0  0  0  0  0  0  0  0  0  0  0
    2.5164  -10.5732   -8.8527 C   0  0  0  0  0  0  0  0  0  0  0  0
    2.8342  -11.8799   -9.2101 C   0  0  0  0  0  0  0  0  0  0  0  0
    2.1407   -9.3853   -7.2865 H   0  0  0  0  0  0  0  0  0  0  0  0
    2.0917   -8.3040   -9.3747 O   0  0  0  0  0  0  0  0  0  0  0  0
    1.4624   -7.4139  -10.2200 C   0  0  0  0  0  0  0  0  0  0  0  0
    2.9920  -11.5761  -12.9711 C   0  0  0  0  0  0  0  0  0  0  0  0
    2.9509  -10.4821  -13.9724 C   0  0  0  0  0  0  0  0  0  0  0  0
    3.7464   -9.3907  -13.8027 C   0  0  0  0  0  0  0  0  0  0  0  0
  1  3  2  0  0  0
  1  4  1  0  0  0
  2  6  1  0  0  0
  3  5  1  0  0  0
  3 11  1  0  0  0
  9  4  1  0  0  0
  9 10  1  0  0  0
  4  6  2  0  0  0
  5  7  2  0  0  0
  6  7  1  0  0  0
 11 12  1  0  0  0
 12 13  2  0  0  0
  2  8  1  0  0  0
M  END
> <minimizedAffinity>
-4.78157

$$$$
