2CEJ_1AH_B_1200


 50 53  0  0  0  0  0  0  0  0999 V2000
   12.7136   22.5671    4.8862 C   0  0  0  0  0  0  0  0  0  0  0  0
   14.9643   23.4741    4.8546 O   0  0  0  0  0  0  0  0  0  0  0  0
   14.1002   22.6161    5.5747 C   0  0  0  0  0  0  0  0  0  0  0  0
   14.7007   24.3960    5.0015 H   0  0  0  0  0  0  0  0  0  0  0  0
   14.5227   21.1218    5.3400 C   0  0  0  0  0  0  0  0  0  0  0  0
   13.6430   20.2442    5.3708 O   0  0  0  0  0  0  0  0  0  0  0  0
   15.8084   20.7677    5.1692 N   0  0  0  0  0  0  0  0  0  0  0  0
   16.4980   21.4693    5.1309 H   0  0  0  0  0  0  0  0  0  0  0  0
   16.2101   19.3632    5.0383 C   0  0  0  0  0  0  0  0  0  0  0  0
   16.2244   18.7922    3.6454 C   0  0  0  0  0  0  0  0  0  0  0  0
   17.2430   17.8267    3.5686 C   0  0  0  0  0  0  0  0  0  0  0  0
   15.3979   19.1013    2.5161 C   0  0  0  0  0  0  0  0  0  0  0  0
   15.6384   18.3982    1.2882 C   0  0  0  0  0  0  0  0  0  0  0  0
   16.6838   17.4126    1.2155 C   0  0  0  0  0  0  0  0  0  0  0  0
   17.6286   19.0597    5.5718 C   0  0  0  0  0  0  0  0  0  0  0  0
   18.5798   20.0002    5.0751 O   0  0  0  0  0  0  0  0  0  0  0  0
   17.4988   17.1149    2.3623 C   0  0  0  0  0  0  0  0  0  0  0  0
   17.9567   17.7059    4.9036 C   0  0  0  0  0  0  0  0  0  0  0  0
   18.5615   19.9972    4.1053 H   0  0  0  0  0  0  0  0  0  0  0  0
   14.1477   23.0164    7.1013 C   0  0  0  0  0  0  0  0  0  0  0  0
   15.0345   22.1057    7.9607 C   0  0  0  0  0  0  0  0  0  0  0  0
   14.4393   21.0672    8.7646 C   0  0  0  0  0  0  0  0  0  0  0  0
   15.2656   20.1871    9.5429 C   0  0  0  0  0  0  0  0  0  0  0  0
   16.6971   20.3424    9.5217 C   0  0  0  0  0  0  0  0  0  0  0  0
   17.2973   21.3757    8.7256 C   0  0  0  0  0  0  0  0  0  0  0  0
   16.4762   22.2582    7.9458 C   0  0  0  0  0  0  0  0  0  0  0  0
   11.8186   23.6312    4.6257 N   0  0  0  0  0  0  0  0  0  0  0  0
   10.4183   24.4879    6.4714 C   0  0  0  0  0  0  0  0  0  0  0  0
   10.0639   23.4091    6.9410 O   0  0  0  0  0  0  0  0  0  0  0  0
   11.3970   24.5945    5.5382 N   0  0  0  0  0  0  0  0  0  0  0  0
   11.8667   25.4589    5.5016 H   0  0  0  0  0  0  0  0  0  0  0  0
    9.7470   25.8152    6.9382 C   0  0  0  0  0  0  0  0  0  0  0  0
    8.5221   27.5886    5.0094 O   0  0  0  0  0  0  0  0  0  0  0  0
    8.3627   25.8240    6.4249 N   0  0  0  0  0  0  0  0  0  0  0  0
    7.8297   26.6677    5.5228 C   0  0  0  0  0  0  0  0  0  0  0  0
    7.7604   25.1330    6.7842 H   0  0  0  0  0  0  0  0  0  0  0  0
    5.4611   26.9481    6.0286 C   0  0  0  0  0  0  0  0  0  0  0  0
    6.5266   26.4651    5.2067 O   0  0  0  0  0  0  0  0  0  0  0  0
    9.7142   26.0918    8.4860 C   0  0  0  0  0  0  0  0  0  0  0  0
    9.3969   27.5767    8.8271 C   0  0  0  0  0  0  0  0  0  0  0  0
   11.0431   25.7634    9.1819 C   0  0  0  0  0  0  0  0  0  0  0  0
    8.5956   25.2458    9.1221 C   0  0  0  0  0  0  0  0  0  0  0  0
   10.7978   22.8428    3.8665 C   0  0  0  0  0  0  0  0  0  0  0  0
    9.9252   23.6777    3.0013 C   0  0  0  0  0  0  0  0  0  0  0  0
   10.5142   24.3951    1.9229 C   0  0  0  0  0  0  0  0  0  0  0  0
    9.6976   25.2203    1.1031 C   0  0  0  0  0  0  0  0  0  0  0  0
    8.2953   25.3201    1.3721 C   0  0  0  0  0  0  0  0  0  0  0  0
    7.7066   24.5906    2.4486 C   0  0  0  0  0  0  0  0  0  0  0  0
    8.5215   23.7684    3.2643 C   0  0  0  0  0  0  0  0  0  0  0  0
    7.2221   26.4381    0.3047 Br  0  0  0  0  0  0  0  0  0  0  0  0
 21 22  2  0  0  0
 21 26  1  0  0  0
 21 20  1  0  0  0
 22 23  1  0  0  0
 23 24  2  0  0  0
 24 25  1  0  0  0
 25 26  2  0  0  0
 44 45  2  0  0  0
 44 49  1  0  0  0
 44 43  1  0  0  0
 45 46  1  0  0  0
 46 47  2  0  0  0
 47 48  1  0  0  0
 47 50  1  0  0  0
 48 49  2  0  0  0
 43 27  1  0  0  0
 37 38  1  0  0  0
  1  3  1  0  0  0
  1 27  1  0  0  0
 33 35  2  0  0  0
 34 35  1  0  0  0
 34 32  1  0  0  0
 20  3  1  0  0  0
  2  3  1  0  0  0
 38 35  1  0  0  0
  5  6  2  0  0  0
  5  7  1  0  0  0
  5  3  1  0  0  0
  7  9  1  0  0  0
  9 10  1  0  0  0
  9 15  1  0  0  0
 10 11  2  0  0  0
 10 12  1  0  0  0
 11 17  1  0  0  0
 11 18  1  0  0  0
 12 13  2  0  0  0
 13 14  1  0  0  0
 14 17  2  0  0  0
 15 16  1  0  0  0
 15 18  1  0  0  0
 32 39  1  0  0  0
 32 28  1  0  0  0
 39 40  1  0  0  0
 39 41  1  0  0  0
 39 42  1  0  0  0
 28 29  2  0  0  0
 28 30  1  0  0  0
 27 30  1  0  0  0
 34 36  1  0  0  0
  2  4  1  0  0  0
  7  8  1  0  0  0
 16 19  1  0  0  0
 30 31  1  0  0  0
M  END
> <minimizedAffinity>
-12.60489

$$$$
2CEJ_1AH_B_1200


 50 53  0  0  0  0  0  0  0  0999 V2000
   13.2550   22.8179    6.0776 C   0  0  0  0  0  0  0  0  0  0  0  0
   13.1134   24.7629    4.6332 O   0  0  0  0  0  0  0  0  0  0  0  0
   12.4407   23.5729    4.9978 C   0  0  0  0  0  0  0  0  0  0  0  0
   13.8909   24.5433    4.0963 H   0  0  0  0  0  0  0  0  0  0  0  0
   11.1808   23.9230    5.8675 C   0  0  0  0  0  0  0  0  0  0  0  0
   10.7379   23.0603    6.6453 O   0  0  0  0  0  0  0  0  0  0  0  0
   10.5413   25.0993    5.7466 N   0  0  0  0  0  0  0  0  0  0  0  0
   10.9062   25.7834    5.1399 H   0  0  0  0  0  0  0  0  0  0  0  0
    9.3140   25.3898    6.4953 C   0  0  0  0  0  0  0  0  0  0  0  0
    9.4773   26.1184    7.8026 C   0  0  0  0  0  0  0  0  0  0  0  0
    8.3472   26.9289    8.0067 C   0  0  0  0  0  0  0  0  0  0  0  0
   10.5500   26.0751    8.7520 C   0  0  0  0  0  0  0  0  0  0  0  0
   10.4464   26.8906    9.9285 C   0  0  0  0  0  0  0  0  0  0  0  0
    9.2881   27.7194   10.1306 C   0  0  0  0  0  0  0  0  0  0  0  0
    8.2916   26.2530    5.7216 C   0  0  0  0  0  0  0  0  0  0  0  0
    8.9167   27.3943    5.1363 O   0  0  0  0  0  0  0  0  0  0  0  0
    8.2210   27.7445    9.1669 C   0  0  0  0  0  0  0  0  0  0  0  0
    7.3762   26.7810    6.8486 C   0  0  0  0  0  0  0  0  0  0  0  0
    9.3598   27.9105    5.8277 H   0  0  0  0  0  0  0  0  0  0  0  0
   12.0580   22.7859    3.6835 C   0  0  0  0  0  0  0  0  0  0  0  0
   10.8471   23.3622    2.9381 C   0  0  0  0  0  0  0  0  0  0  0  0
    9.5174   22.9039    3.2562 C   0  0  0  0  0  0  0  0  0  0  0  0
    8.3761   23.4653    2.5888 C   0  0  0  0  0  0  0  0  0  0  0  0
    8.5598   24.4915    1.5952 C   0  0  0  0  0  0  0  0  0  0  0  0
    9.8808   24.9515    1.2711 C   0  0  0  0  0  0  0  0  0  0  0  0
   11.0250   24.3938    1.9351 C   0  0  0  0  0  0  0  0  0  0  0  0
   14.6562   22.6460    6.1679 N   0  0  0  0  0  0  0  0  0  0  0  0
   15.4804   21.3077    4.2624 C   0  0  0  0  0  0  0  0  0  0  0  0
   15.2639   22.1211    3.3672 O   0  0  0  0  0  0  0  0  0  0  0  0
   15.4005   21.6279    5.5782 N   0  0  0  0  0  0  0  0  0  0  0  0
   15.9342   21.0724    6.1912 H   0  0  0  0  0  0  0  0  0  0  0  0
   15.8686   19.8369    3.9211 C   0  0  0  0  0  0  0  0  0  0  0  0
   18.3928   18.4260    3.9815 O   0  0  0  0  0  0  0  0  0  0  0  0
   16.6029   19.2856    5.0772 N   0  0  0  0  0  0  0  0  0  0  0  0
   17.7803   18.6348    5.0642 C   0  0  0  0  0  0  0  0  0  0  0  0
   16.1827   19.4083    5.9591 H   0  0  0  0  0  0  0  0  0  0  0  0
   18.3267   16.8480    6.6305 C   0  0  0  0  0  0  0  0  0  0  0  0
   18.2562   18.2291    6.2675 O   0  0  0  0  0  0  0  0  0  0  0  0
   14.6950   18.8568    3.5533 C   0  0  0  0  0  0  0  0  0  0  0  0
   15.0343   17.3685    3.8567 C   0  0  0  0  0  0  0  0  0  0  0  0
   14.3065   18.9171    2.0689 C   0  0  0  0  0  0  0  0  0  0  0  0
   13.4624   19.2094    4.4063 C   0  0  0  0  0  0  0  0  0  0  0  0
   14.7863   22.8930    7.6383 C   0  0  0  0  0  0  0  0  0  0  0  0
   15.4367   21.7777    8.3730 C   0  0  0  0  0  0  0  0  0  0  0  0
   16.8536   21.7774    8.5038 C   0  0  0  0  0  0  0  0  0  0  0  0
   17.4933   20.7032    9.1796 C   0  0  0  0  0  0  0  0  0  0  0  0
   16.7062   19.6362    9.7188 C   0  0  0  0  0  0  0  0  0  0  0  0
   15.2842   19.6455    9.5944 C   0  0  0  0  0  0  0  0  0  0  0  0
   14.6482   20.7168    8.9212 C   0  0  0  0  0  0  0  0  0  0  0  0
   17.5582   18.1994   10.5852 Br  0  0  0  0  0  0  0  0  0  0  0  0
 21 22  2  0  0  0
 21 26  1  0  0  0
 21 20  1  0  0  0
 22 23  1  0  0  0
 23 24  2  0  0  0
 24 25  1  0  0  0
 25 26  2  0  0  0
 44 45  2  0  0  0
 44 49  1  0  0  0
 44 43  1  0  0  0
 45 46  1  0  0  0
 46 47  2  0  0  0
 47 48  1  0  0  0
 47 50  1  0  0  0
 48 49  2  0  0  0
 43 27  1  0  0  0
 37 38  1  0  0  0
  1  3  1  0  0  0
  1 27  1  0  0  0
 33 35  2  0  0  0
 34 35  1  0  0  0
 34 32  1  0  0  0
 20  3  1  0  0  0
  2  3  1  0  0  0
 38 35  1  0  0  0
  5  6  2  0  0  0
  5  7  1  0  0  0
  5  3  1  0  0  0
  7  9  1  0  0  0
  9 10  1  0  0  0
  9 15  1  0  0  0
 10 11  2  0  0  0
 10 12  1  0  0  0
 11 17  1  0  0  0
 11 18  1  0  0  0
 12 13  2  0  0  0
 13 14  1  0  0  0
 14 17  2  0  0  0
 15 16  1  0  0  0
 15 18  1  0  0  0
 32 39  1  0  0  0
 32 28  1  0  0  0
 39 40  1  0  0  0
 39 41  1  0  0  0
 39 42  1  0  0  0
 28 29  2  0  0  0
 28 30  1  0  0  0
 27 30  1  0  0  0
 34 36  1  0  0  0
  2  4  1  0  0  0
  7  8  1  0  0  0
 16 19  1  0  0  0
 30 31  1  0  0  0
M  END
> <minimizedAffinity>
-11.66221

$$$$
2CEJ_1AH_B_1200


 50 53  0  0  0  0  0  0  0  0999 V2000
   12.1042   23.4077    5.2075 C   0  0  0  0  0  0  0  0  0  0  0  0
   10.0831   22.0754    5.3801 O   0  0  0  0  0  0  0  0  0  0  0  0
   11.2514   22.2637    4.6048 C   0  0  0  0  0  0  0  0  0  0  0  0
    9.4683   22.8087    5.2217 H   0  0  0  0  0  0  0  0  0  0  0  0
   12.2505   21.0787    4.8576 C   0  0  0  0  0  0  0  0  0  0  0  0
   12.0316   20.3104    5.8099 O   0  0  0  0  0  0  0  0  0  0  0  0
   13.3578   20.9147    4.1130 N   0  0  0  0  0  0  0  0  0  0  0  0
   13.5171   21.5178    3.3513 H   0  0  0  0  0  0  0  0  0  0  0  0
   14.3346   19.8606    4.4062 C   0  0  0  0  0  0  0  0  0  0  0  0
   14.9499   19.1625    3.2228 C   0  0  0  0  0  0  0  0  0  0  0  0
   16.2625   18.7879    3.5577 C   0  0  0  0  0  0  0  0  0  0  0  0
   14.3945   18.8758    1.9331 C   0  0  0  0  0  0  0  0  0  0  0  0
   15.2193   18.1933    0.9771 C   0  0  0  0  0  0  0  0  0  0  0  0
   16.5626   17.8143    1.3253 C   0  0  0  0  0  0  0  0  0  0  0  0
   15.5562   20.3408    5.2223 C   0  0  0  0  0  0  0  0  0  0  0  0
   16.1131   21.5315    4.6671 O   0  0  0  0  0  0  0  0  0  0  0  0
   17.0986   18.1081    2.6270 C   0  0  0  0  0  0  0  0  0  0  0  0
   16.5869   19.2163    4.9780 C   0  0  0  0  0  0  0  0  0  0  0  0
   16.3500   21.3756    3.7395 H   0  0  0  0  0  0  0  0  0  0  0  0
   10.8365   22.3799    3.0857 C   0  0  0  0  0  0  0  0  0  0  0  0
    9.9096   23.5633    2.7780 C   0  0  0  0  0  0  0  0  0  0  0  0
   10.2326   24.4753    1.7089 C   0  0  0  0  0  0  0  0  0  0  0  0
    9.3510   25.5638    1.3910 C   0  0  0  0  0  0  0  0  0  0  0  0
    8.1374   25.7469    2.1444 C   0  0  0  0  0  0  0  0  0  0  0  0
    7.8100   24.8445    3.2121 C   0  0  0  0  0  0  0  0  0  0  0  0
    8.6875   23.7549    3.5342 C   0  0  0  0  0  0  0  0  0  0  0  0
   12.3193   23.7260    6.5690 N   0  0  0  0  0  0  0  0  0  0  0  0
   10.2718   24.7990    7.4394 C   0  0  0  0  0  0  0  0  0  0  0  0
    9.4955   23.8611    7.2733 O   0  0  0  0  0  0  0  0  0  0  0  0
   11.6163   24.6677    7.3154 N   0  0  0  0  0  0  0  0  0  0  0  0
   12.1617   25.3181    7.8142 H   0  0  0  0  0  0  0  0  0  0  0  0
    9.7370   26.2152    7.8116 C   0  0  0  0  0  0  0  0  0  0  0  0
    8.5872   27.4798    5.4783 O   0  0  0  0  0  0  0  0  0  0  0  0
    8.3240   26.2877    7.3895 N   0  0  0  0  0  0  0  0  0  0  0  0
    7.8275   26.8862    6.2917 C   0  0  0  0  0  0  0  0  0  0  0  0
    7.6700   25.8476    7.9792 H   0  0  0  0  0  0  0  0  0  0  0  0
    5.5787   26.7571    7.2248 C   0  0  0  0  0  0  0  0  0  0  0  0
    6.4846   26.8083    6.1199 O   0  0  0  0  0  0  0  0  0  0  0  0
    9.8358   26.6403    9.3225 C   0  0  0  0  0  0  0  0  0  0  0  0
    8.8245   27.7609    9.7015 C   0  0  0  0  0  0  0  0  0  0  0  0
   11.2265   27.1655    9.7078 C   0  0  0  0  0  0  0  0  0  0  0  0
    9.4985   25.4259   10.2074 C   0  0  0  0  0  0  0  0  0  0  0  0
   13.8134   23.7982    6.5161 C   0  0  0  0  0  0  0  0  0  0  0  0
   14.4873   22.8335    7.4228 C   0  0  0  0  0  0  0  0  0  0  0  0
   15.9025   22.8937    7.5578 C   0  0  0  0  0  0  0  0  0  0  0  0
   16.5651   21.9599    8.3997 C   0  0  0  0  0  0  0  0  0  0  0  0
   15.8024   20.9715    9.0997 C   0  0  0  0  0  0  0  0  0  0  0  0
   14.3818   20.9211    8.9696 C   0  0  0  0  0  0  0  0  0  0  0  0
   13.7229   21.8525    8.1308 C   0  0  0  0  0  0  0  0  0  0  0  0
   16.6854   19.7164   10.1888 Br  0  0  0  0  0  0  0  0  0  0  0  0
 21 22  2  0  0  0
 21 26  1  0  0  0
 21 20  1  0  0  0
 22 23  1  0  0  0
 23 24  2  0  0  0
 24 25  1  0  0  0
 25 26  2  0  0  0
 44 45  2  0  0  0
 44 49  1  0  0  0
 44 43  1  0  0  0
 45 46  1  0  0  0
 46 47  2  0  0  0
 47 48  1  0  0  0
 47 50  1  0  0  0
 48 49  2  0  0  0
 43 27  1  0  0  0
 37 38  1  0  0  0
  1  3  1  0  0  0
  1 27  1  0  0  0
 33 35  2  0  0  0
 34 35  1  0  0  0
 34 32  1  0  0  0
 20  3  1  0  0  0
  2  3  1  0  0  0
 38 35  1  0  0  0
  5  6  2  0  0  0
  5  7  1  0  0  0
  5  3  1  0  0  0
  7  9  1  0  0  0
  9 10  1  0  0  0
  9 15  1  0  0  0
 10 11  2  0  0  0
 10 12  1  0  0  0
 11 17  1  0  0  0
 11 18  1  0  0  0
 12 13  2  0  0  0
 13 14  1  0  0  0
 14 17  2  0  0  0
 15 16  1  0  0  0
 15 18  1  0  0  0
 32 39  1  0  0  0
 32 28  1  0  0  0
 39 40  1  0  0  0
 39 41  1  0  0  0
 39 42  1  0  0  0
 28 29  2  0  0  0
 28 30  1  0  0  0
 27 30  1  0  0  0
 34 36  1  0  0  0
  2  4  1  0  0  0
  7  8  1  0  0  0
 16 19  1  0  0  0
 30 31  1  0  0  0
M  END
> <minimizedAffinity>
-11.13386

$$$$
2CEJ_1AH_B_1200


 50 53  0  0  0  0  0  0  0  0999 V2000
   12.1424   23.2425    5.1504 C   0  0  0  0  0  0  0  0  0  0  0  0
   11.5501   20.9338    5.6067 O   0  0  0  0  0  0  0  0  0  0  0  0
   11.7504   21.8650    4.5606 C   0  0  0  0  0  0  0  0  0  0  0  0
   10.7179   21.1342    6.0630 H   0  0  0  0  0  0  0  0  0  0  0  0
   13.0968   21.5448    3.8183 C   0  0  0  0  0  0  0  0  0  0  0  0
   13.7228   22.4818    3.2935 O   0  0  0  0  0  0  0  0  0  0  0  0
   13.5511   20.2864    3.6865 N   0  0  0  0  0  0  0  0  0  0  0  0
   13.0582   19.5510    4.1173 H   0  0  0  0  0  0  0  0  0  0  0  0
   14.7621   19.9807    2.9176 C   0  0  0  0  0  0  0  0  0  0  0  0
   15.9227   19.4071    3.6859 C   0  0  0  0  0  0  0  0  0  0  0  0
   16.6320   18.5368    2.8403 C   0  0  0  0  0  0  0  0  0  0  0  0
   16.3297   19.6323    5.0414 C   0  0  0  0  0  0  0  0  0  0  0  0
   17.4893   18.9381    5.5246 C   0  0  0  0  0  0  0  0  0  0  0  0
   18.2098   18.0472    4.6548 C   0  0  0  0  0  0  0  0  0  0  0  0
   14.5440   18.9647    1.7734 C   0  0  0  0  0  0  0  0  0  0  0  0
   13.8225   17.8208    2.2284 O   0  0  0  0  0  0  0  0  0  0  0  0
   17.7863   17.8389    3.2964 C   0  0  0  0  0  0  0  0  0  0  0  0
   15.9814   18.4872    1.4691 C   0  0  0  0  0  0  0  0  0  0  0  0
   14.2949   17.4155    2.9724 H   0  0  0  0  0  0  0  0  0  0  0  0
   10.5064   21.8096    3.5897 C   0  0  0  0  0  0  0  0  0  0  0  0
   10.1041   23.1713    3.0084 C   0  0  0  0  0  0  0  0  0  0  0  0
   10.7889   23.6945    1.8524 C   0  0  0  0  0  0  0  0  0  0  0  0
   10.3934   24.9513    1.2804 C   0  0  0  0  0  0  0  0  0  0  0  0
    9.3070   25.6945    1.8646 C   0  0  0  0  0  0  0  0  0  0  0  0
    8.6216   25.1814    3.0173 C   0  0  0  0  0  0  0  0  0  0  0  0
    9.0128   23.9259    3.5931 C   0  0  0  0  0  0  0  0  0  0  0  0
   12.3089   23.6076    6.5069 N   0  0  0  0  0  0  0  0  0  0  0  0
   10.1939   24.6242    7.2781 C   0  0  0  0  0  0  0  0  0  0  0  0
    9.4563   23.6582    7.0974 O   0  0  0  0  0  0  0  0  0  0  0  0
   11.5459   24.5365    7.2091 N   0  0  0  0  0  0  0  0  0  0  0  0
   12.0490   25.2126    7.7180 H   0  0  0  0  0  0  0  0  0  0  0  0
    9.5980   26.0271    7.6051 C   0  0  0  0  0  0  0  0  0  0  0  0
    8.2572   27.6930    5.6576 O   0  0  0  0  0  0  0  0  0  0  0  0
    8.1813   26.0222    7.1892 N   0  0  0  0  0  0  0  0  0  0  0  0
    7.5942   26.8151    6.2747 C   0  0  0  0  0  0  0  0  0  0  0  0
    7.5995   25.3630    7.6321 H   0  0  0  0  0  0  0  0  0  0  0  0
    5.7039   26.5972    4.7503 C   0  0  0  0  0  0  0  0  0  0  0  0
    6.2704   26.6105    6.0628 O   0  0  0  0  0  0  0  0  0  0  0  0
    9.6845   26.5077    9.1000 C   0  0  0  0  0  0  0  0  0  0  0  0
    8.7309   27.6986    9.4072 C   0  0  0  0  0  0  0  0  0  0  0  0
   11.0935   26.9682    9.5011 C   0  0  0  0  0  0  0  0  0  0  0  0
    9.2559   25.3519   10.0230 C   0  0  0  0  0  0  0  0  0  0  0  0
   13.7990   23.7463    6.4876 C   0  0  0  0  0  0  0  0  0  0  0  0
   14.5000   22.7449    7.3319 C   0  0  0  0  0  0  0  0  0  0  0  0
   15.9228   22.7248    7.3326 C   0  0  0  0  0  0  0  0  0  0  0  0
   16.6081   21.7550    8.1133 C   0  0  0  0  0  0  0  0  0  0  0  0
   15.8603   20.8114    8.8874 C   0  0  0  0  0  0  0  0  0  0  0  0
   14.4331   20.8415    8.8919 C   0  0  0  0  0  0  0  0  0  0  0  0
   13.7517   21.8089    8.1139 C   0  0  0  0  0  0  0  0  0  0  0  0
   16.7698   19.5082    9.8951 Br  0  0  0  0  0  0  0  0  0  0  0  0
 21 22  2  0  0  0
 21 26  1  0  0  0
 21 20  1  0  0  0
 22 23  1  0  0  0
 23 24  2  0  0  0
 24 25  1  0  0  0
 25 26  2  0  0  0
 44 45  2  0  0  0
 44 49  1  0  0  0
 44 43  1  0  0  0
 45 46  1  0  0  0
 46 47  2  0  0  0
 47 48  1  0  0  0
 47 50  1  0  0  0
 48 49  2  0  0  0
 43 27  1  0  0  0
 37 38  1  0  0  0
  1  3  1  0  0  0
  1 27  1  0  0  0
 33 35  2  0  0  0
 34 35  1  0  0  0
 34 32  1  0  0  0
 20  3  1  0  0  0
  2  3  1  0  0  0
 38 35  1  0  0  0
  5  6  2  0  0  0
  5  7  1  0  0  0
  5  3  1  0  0  0
  7  9  1  0  0  0
  9 10  1  0  0  0
  9 15  1  0  0  0
 10 11  2  0  0  0
 10 12  1  0  0  0
 11 17  1  0  0  0
 11 18  1  0  0  0
 12 13  2  0  0  0
 13 14  1  0  0  0
 14 17  2  0  0  0
 15 16  1  0  0  0
 15 18  1  0  0  0
 32 39  1  0  0  0
 32 28  1  0  0  0
 39 40  1  0  0  0
 39 41  1  0  0  0
 39 42  1  0  0  0
 28 29  2  0  0  0
 28 30  1  0  0  0
 27 30  1  0  0  0
 34 36  1  0  0  0
  2  4  1  0  0  0
  7  8  1  0  0  0
 16 19  1  0  0  0
 30 31  1  0  0  0
M  END
> <minimizedAffinity>
-10.71928

$$$$
2CEJ_1AH_B_1200


 50 53  0  0  0  0  0  0  0  0999 V2000
   12.3537   22.5208    5.5031 C   0  0  0  0  0  0  0  0  0  0  0  0
   14.1008   23.5386    6.8452 O   0  0  0  0  0  0  0  0  0  0  0  0
   13.6381   22.3007    6.3405 C   0  0  0  0  0  0  0  0  0  0  0  0
   13.5155   23.8357    7.5594 H   0  0  0  0  0  0  0  0  0  0  0  0
   14.5825   21.8150    5.1835 C   0  0  0  0  0  0  0  0  0  0  0  0
   15.2011   22.6682    4.5243 O   0  0  0  0  0  0  0  0  0  0  0  0
   14.6888   20.5159    4.8542 N   0  0  0  0  0  0  0  0  0  0  0  0
   14.2079   19.8445    5.3899 H   0  0  0  0  0  0  0  0  0  0  0  0
   15.5029   20.0732    3.7173 C   0  0  0  0  0  0  0  0  0  0  0  0
   16.5647   19.0459    4.0068 C   0  0  0  0  0  0  0  0  0  0  0  0
   16.7178   18.2297    2.8729 C   0  0  0  0  0  0  0  0  0  0  0  0
   17.3455   18.8387    5.1905 C   0  0  0  0  0  0  0  0  0  0  0  0
   18.2963   17.7635    5.1951 C   0  0  0  0  0  0  0  0  0  0  0  0
   18.4469   16.9304    4.0320 C   0  0  0  0  0  0  0  0  0  0  0  0
   14.6885   19.4417    2.5654 C   0  0  0  0  0  0  0  0  0  0  0  0
   13.7698   18.4664    3.0560 O   0  0  0  0  0  0  0  0  0  0  0  0
   17.6558   17.1587    2.8529 C   0  0  0  0  0  0  0  0  0  0  0  0
   15.7682   18.6713    1.7732 C   0  0  0  0  0  0  0  0  0  0  0  0
   14.2527   17.7900    3.5563 H   0  0  0  0  0  0  0  0  0  0  0  0
   13.5700   21.2639    7.5295 C   0  0  0  0  0  0  0  0  0  0  0  0
   14.9247   20.9799    8.1915 C   0  0  0  0  0  0  0  0  0  0  0  0
   16.0774   21.7756    7.8491 C   0  0  0  0  0  0  0  0  0  0  0  0
   17.3402   21.5399    8.4918 C   0  0  0  0  0  0  0  0  0  0  0  0
   17.4571   20.5023    9.4836 C   0  0  0  0  0  0  0  0  0  0  0  0
   16.3145   19.7040    9.8283 C   0  0  0  0  0  0  0  0  0  0  0  0
   15.0500   19.9353    9.1891 C   0  0  0  0  0  0  0  0  0  0  0  0
   11.9304   23.6881    4.8253 N   0  0  0  0  0  0  0  0  0  0  0  0
   11.4209   25.5046    6.4197 C   0  0  0  0  0  0  0  0  0  0  0  0
   12.5671   25.7367    6.7968 O   0  0  0  0  0  0  0  0  0  0  0  0
   11.1468   24.7094    5.3553 N   0  0  0  0  0  0  0  0  0  0  0  0
   10.2885   24.8749    4.9022 H   0  0  0  0  0  0  0  0  0  0  0  0
   10.2000   26.1290    7.1612 C   0  0  0  0  0  0  0  0  0  0  0  0
    8.1187   27.9440    6.3010 O   0  0  0  0  0  0  0  0  0  0  0  0
    8.9945   25.8527    6.3549 N   0  0  0  0  0  0  0  0  0  0  0  0
    8.0473   26.7282    5.9725 C   0  0  0  0  0  0  0  0  0  0  0  0
    8.8694   24.9207    6.0636 H   0  0  0  0  0  0  0  0  0  0  0  0
    5.7541   26.8629    5.1554 C   0  0  0  0  0  0  0  0  0  0  0  0
    7.0332   26.2278    5.2240 O   0  0  0  0  0  0  0  0  0  0  0  0
    9.9417   25.6513    8.6371 C   0  0  0  0  0  0  0  0  0  0  0  0
    8.7792   24.6220    8.7435 C   0  0  0  0  0  0  0  0  0  0  0  0
    9.5856   26.8044    9.5868 C   0  0  0  0  0  0  0  0  0  0  0  0
   11.2047   24.9441    9.1627 C   0  0  0  0  0  0  0  0  0  0  0  0
   11.5112   23.0283    3.5489 C   0  0  0  0  0  0  0  0  0  0  0  0
   10.3519   23.6860    2.8929 C   0  0  0  0  0  0  0  0  0  0  0  0
    9.0410   23.3884    3.3593 C   0  0  0  0  0  0  0  0  0  0  0  0
    7.9198   23.9878    2.7240 C   0  0  0  0  0  0  0  0  0  0  0  0
    8.1224   24.8814    1.6244 C   0  0  0  0  0  0  0  0  0  0  0  0
    9.4398   25.1853    1.1663 C   0  0  0  0  0  0  0  0  0  0  0  0
   10.5560   24.5877    1.8006 C   0  0  0  0  0  0  0  0  0  0  0  0
    6.6347   25.6489    0.7648 Br  0  0  0  0  0  0  0  0  0  0  0  0
 21 22  2  0  0  0
 21 26  1  0  0  0
 21 20  1  0  0  0
 22 23  1  0  0  0
 23 24  2  0  0  0
 24 25  1  0  0  0
 25 26  2  0  0  0
 44 45  2  0  0  0
 44 49  1  0  0  0
 44 43  1  0  0  0
 45 46  1  0  0  0
 46 47  2  0  0  0
 47 48  1  0  0  0
 47 50  1  0  0  0
 48 49  2  0  0  0
 43 27  1  0  0  0
 37 38  1  0  0  0
  1  3  1  0  0  0
  1 27  1  0  0  0
 33 35  2  0  0  0
 34 35  1  0  0  0
 34 32  1  0  0  0
 20  3  1  0  0  0
  2  3  1  0  0  0
 38 35  1  0  0  0
  5  6  2  0  0  0
  5  7  1  0  0  0
  5  3  1  0  0  0
  7  9  1  0  0  0
  9 10  1  0  0  0
  9 15  1  0  0  0
 10 11  2  0  0  0
 10 12  1  0  0  0
 11 17  1  0  0  0
 11 18  1  0  0  0
 12 13  2  0  0  0
 13 14  1  0  0  0
 14 17  2  0  0  0
 15 16  1  0  0  0
 15 18  1  0  0  0
 32 39  1  0  0  0
 32 28  1  0  0  0
 39 40  1  0  0  0
 39 41  1  0  0  0
 39 42  1  0  0  0
 28 29  2  0  0  0
 28 30  1  0  0  0
 27 30  1  0  0  0
 34 36  1  0  0  0
  2  4  1  0  0  0
  7  8  1  0  0  0
 16 19  1  0  0  0
 30 31  1  0  0  0
M  END
> <minimizedAffinity>
-10.59432

$$$$
2CEJ_1AH_B_1200


 50 53  0  0  0  0  0  0  0  0999 V2000
   13.3450   22.6451    5.8179 C   0  0  0  0  0  0  0  0  0  0  0  0
   11.3336   21.7424    6.8320 O   0  0  0  0  0  0  0  0  0  0  0  0
   12.4542   22.5686    7.0827 C   0  0  0  0  0  0  0  0  0  0  0  0
   11.6160   20.8149    6.8017 H   0  0  0  0  0  0  0  0  0  0  0  0
   12.0023   24.0718    7.1329 C   0  0  0  0  0  0  0  0  0  0  0  0
   12.8643   24.9561    6.9907 O   0  0  0  0  0  0  0  0  0  0  0  0
   10.7284   24.4205    7.3839 N   0  0  0  0  0  0  0  0  0  0  0  0
   10.0483   23.7152    7.4805 H   0  0  0  0  0  0  0  0  0  0  0  0
   10.3256   25.8244    7.5177 C   0  0  0  0  0  0  0  0  0  0  0  0
    9.1065   26.2533    6.7455 C   0  0  0  0  0  0  0  0  0  0  0  0
    8.4478   27.2595    7.4731 C   0  0  0  0  0  0  0  0  0  0  0  0
    8.6052   25.7891    5.4857 C   0  0  0  0  0  0  0  0  0  0  0  0
    7.3986   26.3779    4.9784 C   0  0  0  0  0  0  0  0  0  0  0  0
    6.7281   27.4059    5.7288 C   0  0  0  0  0  0  0  0  0  0  0  0
   10.0094   26.2553    8.9679 C   0  0  0  0  0  0  0  0  0  0  0  0
    9.1387   25.3223    9.6062 O   0  0  0  0  0  0  0  0  0  0  0  0
    7.2509   27.8600    6.9892 C   0  0  0  0  0  0  0  0  0  0  0  0
    9.1935   27.5512    8.7634 C   0  0  0  0  0  0  0  0  0  0  0  0
    8.3272   25.2274    9.0834 H   0  0  0  0  0  0  0  0  0  0  0  0
   13.1326   22.1047    8.4310 C   0  0  0  0  0  0  0  0  0  0  0  0
   14.6127   21.7259    8.2898 C   0  0  0  0  0  0  0  0  0  0  0  0
   15.5631   22.6941    7.8016 C   0  0  0  0  0  0  0  0  0  0  0  0
   16.9562   22.3586    7.7017 C   0  0  0  0  0  0  0  0  0  0  0  0
   17.4073   21.0474    8.0904 C   0  0  0  0  0  0  0  0  0  0  0  0
   16.4667   20.0769    8.5752 C   0  0  0  0  0  0  0  0  0  0  0  0
   15.0733   20.4069    8.6771 C   0  0  0  0  0  0  0  0  0  0  0  0
   13.1113   22.0899    4.5379 N   0  0  0  0  0  0  0  0  0  0  0  0
   14.4597   20.0204    4.5169 C   0  0  0  0  0  0  0  0  0  0  0  0
   14.0825   19.5517    5.5883 O   0  0  0  0  0  0  0  0  0  0  0  0
   13.8554   21.0831    3.9289 N   0  0  0  0  0  0  0  0  0  0  0  0
   13.9552   21.1506    2.9518 H   0  0  0  0  0  0  0  0  0  0  0  0
   15.6760   19.4006    3.7642 C   0  0  0  0  0  0  0  0  0  0  0  0
   18.3531   19.7755    4.7930 O   0  0  0  0  0  0  0  0  0  0  0  0
   16.4297   18.5757    4.7294 N   0  0  0  0  0  0  0  0  0  0  0  0
   17.6775   18.7855    5.1862 C   0  0  0  0  0  0  0  0  0  0  0  0
   15.9656   17.7809    5.0789 H   0  0  0  0  0  0  0  0  0  0  0  0
   18.3770   16.5145    5.7318 C   0  0  0  0  0  0  0  0  0  0  0  0
   18.1500   17.8823    6.0806 O   0  0  0  0  0  0  0  0  0  0  0  0
   15.3598   18.5297    2.4934 C   0  0  0  0  0  0  0  0  0  0  0  0
   16.5860   17.7036    2.0075 C   0  0  0  0  0  0  0  0  0  0  0  0
   14.9001   19.3678    1.2915 C   0  0  0  0  0  0  0  0  0  0  0  0
   14.2566   17.5141    2.8444 C   0  0  0  0  0  0  0  0  0  0  0  0
   12.8822   23.3766    3.8087 C   0  0  0  0  0  0  0  0  0  0  0  0
   11.5048   23.5172    3.2700 C   0  0  0  0  0  0  0  0  0  0  0  0
   11.2848   24.3944    2.1715 C   0  0  0  0  0  0  0  0  0  0  0  0
    9.9684   24.5613    1.6626 C   0  0  0  0  0  0  0  0  0  0  0  0
    8.8818   23.8470    2.2605 C   0  0  0  0  0  0  0  0  0  0  0  0
    9.1083   22.9600    3.3558 C   0  0  0  0  0  0  0  0  0  0  0  0
   10.4206   22.7943    3.8615 C   0  0  0  0  0  0  0  0  0  0  0  0
    7.1352   24.0941    1.6051 Br  0  0  0  0  0  0  0  0  0  0  0  0
 21 22  2  0  0  0
 21 26  1  0  0  0
 21 20  1  0  0  0
 22 23  1  0  0  0
 23 24  2  0  0  0
 24 25  1  0  0  0
 25 26  2  0  0  0
 44 45  2  0  0  0
 44 49  1  0  0  0
 44 43  1  0  0  0
 45 46  1  0  0  0
 46 47  2  0  0  0
 47 48  1  0  0  0
 47 50  1  0  0  0
 48 49  2  0  0  0
 43 27  1  0  0  0
 37 38  1  0  0  0
  1  3  1  0  0  0
  1 27  1  0  0  0
 33 35  2  0  0  0
 34 35  1  0  0  0
 34 32  1  0  0  0
 20  3  1  0  0  0
  2  3  1  0  0  0
 38 35  1  0  0  0
  5  6  2  0  0  0
  5  7  1  0  0  0
  5  3  1  0  0  0
  7  9  1  0  0  0
  9 10  1  0  0  0
  9 15  1  0  0  0
 10 11  2  0  0  0
 10 12  1  0  0  0
 11 17  1  0  0  0
 11 18  1  0  0  0
 12 13  2  0  0  0
 13 14  1  0  0  0
 14 17  2  0  0  0
 15 16  1  0  0  0
 15 18  1  0  0  0
 32 39  1  0  0  0
 32 28  1  0  0  0
 39 40  1  0  0  0
 39 41  1  0  0  0
 39 42  1  0  0  0
 28 29  2  0  0  0
 28 30  1  0  0  0
 27 30  1  0  0  0
 34 36  1  0  0  0
  2  4  1  0  0  0
  7  8  1  0  0  0
 16 19  1  0  0  0
 30 31  1  0  0  0
M  END
> <minimizedAffinity>
-10.52381

$$$$
2CEJ_1AH_B_1200


 50 53  0  0  0  0  0  0  0  0999 V2000
   11.7001   22.8308    5.0169 C   0  0  0  0  0  0  0  0  0  0  0  0
   13.9381   23.7418    4.7917 O   0  0  0  0  0  0  0  0  0  0  0  0
   13.1520   22.8478    5.5560 C   0  0  0  0  0  0  0  0  0  0  0  0
   13.6950   24.6548    5.0111 H   0  0  0  0  0  0  0  0  0  0  0  0
   13.5417   21.3676    5.2044 C   0  0  0  0  0  0  0  0  0  0  0  0
   12.6758   20.4829    5.3172 O   0  0  0  0  0  0  0  0  0  0  0  0
   14.7930   21.0305    4.8467 N   0  0  0  0  0  0  0  0  0  0  0  0
   15.4698   21.7382    4.7449 H   0  0  0  0  0  0  0  0  0  0  0  0
   15.1759   19.6355    4.6044 C   0  0  0  0  0  0  0  0  0  0  0  0
   15.2551   19.1974    3.1662 C   0  0  0  0  0  0  0  0  0  0  0  0
   16.2589   18.2203    3.0513 C   0  0  0  0  0  0  0  0  0  0  0  0
   14.4964   19.6299    2.0299 C   0  0  0  0  0  0  0  0  0  0  0  0
   14.7902   19.0397    0.7550 C   0  0  0  0  0  0  0  0  0  0  0  0
   15.8201   18.0415    0.6437 C   0  0  0  0  0  0  0  0  0  0  0  0
   16.5579   19.2509    5.1797 C   0  0  0  0  0  0  0  0  0  0  0  0
   17.5513   20.2118    4.8246 O   0  0  0  0  0  0  0  0  0  0  0  0
   16.5666   17.6190    1.7979 C   0  0  0  0  0  0  0  0  0  0  0  0
   16.8973   17.9586    4.4041 C   0  0  0  0  0  0  0  0  0  0  0  0
   17.5852   20.3001    3.8592 H   0  0  0  0  0  0  0  0  0  0  0  0
   13.3625   23.1721    7.0870 C   0  0  0  0  0  0  0  0  0  0  0  0
   14.4733   22.3507    7.7546 C   0  0  0  0  0  0  0  0  0  0  0  0
   14.1366   21.2288    8.5955 C   0  0  0  0  0  0  0  0  0  0  0  0
   15.1715   20.4327    9.1940 C   0  0  0  0  0  0  0  0  0  0  0  0
   16.5541   20.7565    8.9542 C   0  0  0  0  0  0  0  0  0  0  0  0
   16.8975   21.8736    8.1200 C   0  0  0  0  0  0  0  0  0  0  0  0
   15.8672   22.6727    7.5193 C   0  0  0  0  0  0  0  0  0  0  0  0
   10.6059   23.6414    5.4003 N   0  0  0  0  0  0  0  0  0  0  0  0
    9.1310   23.4133    3.4321 C   0  0  0  0  0  0  0  0  0  0  0  0
    9.7322   22.5046    2.8640 O   0  0  0  0  0  0  0  0  0  0  0  0
    9.4098   23.7929    4.7043 N   0  0  0  0  0  0  0  0  0  0  0  0
    8.6764   24.2289    5.1954 H   0  0  0  0  0  0  0  0  0  0  0  0
    7.9921   24.1885    2.7027 C   0  0  0  0  0  0  0  0  0  0  0  0
    5.1078   24.2528    2.4965 O   0  0  0  0  0  0  0  0  0  0  0  0
    6.9917   24.5775    3.7165 N   0  0  0  0  0  0  0  0  0  0  0  0
    5.6532   24.5921    3.5820 C   0  0  0  0  0  0  0  0  0  0  0  0
    7.3448   24.8584    4.5916 H   0  0  0  0  0  0  0  0  0  0  0  0
    3.7760   25.8021    4.5599 C   0  0  0  0  0  0  0  0  0  0  0  0
    4.9441   24.9851    4.6691 O   0  0  0  0  0  0  0  0  0  0  0  0
    8.4087   25.4669    1.8870 C   0  0  0  0  0  0  0  0  0  0  0  0
    7.4237   25.7896    0.7261 C   0  0  0  0  0  0  0  0  0  0  0  0
    9.8009   25.3446    1.2505 C   0  0  0  0  0  0  0  0  0  0  0  0
    8.3954   26.6868    2.8268 C   0  0  0  0  0  0  0  0  0  0  0  0
   11.3912   24.8565    5.7834 C   0  0  0  0  0  0  0  0  0  0  0  0
   10.7998   25.6133    6.9168 C   0  0  0  0  0  0  0  0  0  0  0  0
   11.4035   25.5071    8.2009 C   0  0  0  0  0  0  0  0  0  0  0  0
   10.8333   26.2027    9.3014 C   0  0  0  0  0  0  0  0  0  0  0  0
    9.6605   26.9994    9.1052 C   0  0  0  0  0  0  0  0  0  0  0  0
    9.0640   27.1115    7.8132 C   0  0  0  0  0  0  0  0  0  0  0  0
    9.6336   26.4183    6.7176 C   0  0  0  0  0  0  0  0  0  0  0  0
    8.8894   27.8937   10.5704 Br  0  0  0  0  0  0  0  0  0  0  0  0
 21 22  2  0  0  0
 21 26  1  0  0  0
 21 20  1  0  0  0
 22 23  1  0  0  0
 23 24  2  0  0  0
 24 25  1  0  0  0
 25 26  2  0  0  0
 44 45  2  0  0  0
 44 49  1  0  0  0
 44 43  1  0  0  0
 45 46  1  0  0  0
 46 47  2  0  0  0
 47 48  1  0  0  0
 47 50  1  0  0  0
 48 49  2  0  0  0
 43 27  1  0  0  0
 37 38  1  0  0  0
  1  3  1  0  0  0
  1 27  1  0  0  0
 33 35  2  0  0  0
 34 35  1  0  0  0
 34 32  1  0  0  0
 20  3  1  0  0  0
  2  3  1  0  0  0
 38 35  1  0  0  0
  5  6  2  0  0  0
  5  7  1  0  0  0
  5  3  1  0  0  0
  7  9  1  0  0  0
  9 10  1  0  0  0
  9 15  1  0  0  0
 10 11  2  0  0  0
 10 12  1  0  0  0
 11 17  1  0  0  0
 11 18  1  0  0  0
 12 13  2  0  0  0
 13 14  1  0  0  0
 14 17  2  0  0  0
 15 16  1  0  0  0
 15 18  1  0  0  0
 32 39  1  0  0  0
 32 28  1  0  0  0
 39 40  1  0  0  0
 39 41  1  0  0  0
 39 42  1  0  0  0
 28 29  2  0  0  0
 28 30  1  0  0  0
 27 30  1  0  0  0
 34 36  1  0  0  0
  2  4  1  0  0  0
  7  8  1  0  0  0
 16 19  1  0  0  0
 30 31  1  0  0  0
M  END
> <minimizedAffinity>
-10.32177

$$$$
2CEJ_1AH_B_1200


 50 53  0  0  0  0  0  0  0  0999 V2000
   13.6936   23.6092    5.5883 C   0  0  0  0  0  0  0  0  0  0  0  0
   12.3825   23.1067    7.5675 O   0  0  0  0  0  0  0  0  0  0  0  0
   12.4323   23.9389    6.4246 C   0  0  0  0  0  0  0  0  0  0  0  0
   13.0543   23.3934    8.2058 H   0  0  0  0  0  0  0  0  0  0  0  0
   11.3462   23.4790    5.3877 C   0  0  0  0  0  0  0  0  0  0  0  0
   10.9240   22.3114    5.4486 O   0  0  0  0  0  0  0  0  0  0  0  0
   10.9123   24.2919    4.4088 N   0  0  0  0  0  0  0  0  0  0  0  0
   11.2397   25.2198    4.3757 H   0  0  0  0  0  0  0  0  0  0  0  0
    9.9638   23.8321    3.3889 C   0  0  0  0  0  0  0  0  0  0  0  0
    8.7272   24.6677    3.1915 C   0  0  0  0  0  0  0  0  0  0  0  0
    8.3457   24.5893    1.8410 C   0  0  0  0  0  0  0  0  0  0  0  0
    7.9847   25.4491    4.1360 C   0  0  0  0  0  0  0  0  0  0  0  0
    6.8312   26.1625    3.6666 C   0  0  0  0  0  0  0  0  0  0  0  0
    6.4471   26.0797    2.2827 C   0  0  0  0  0  0  0  0  0  0  0  0
   10.5647   23.7284    1.9686 C   0  0  0  0  0  0  0  0  0  0  0  0
   11.2833   24.9119    1.6237 O   0  0  0  0  0  0  0  0  0  0  0  0
    7.2042   25.2862    1.3526 C   0  0  0  0  0  0  0  0  0  0  0  0
    9.3066   23.6993    1.0725 C   0  0  0  0  0  0  0  0  0  0  0  0
   10.6967   25.6805    1.7013 H   0  0  0  0  0  0  0  0  0  0  0  0
   12.2250   25.4364    6.8805 C   0  0  0  0  0  0  0  0  0  0  0  0
   10.9866   25.6584    7.7587 C   0  0  0  0  0  0  0  0  0  0  0  0
   11.1189   25.7164    9.1933 C   0  0  0  0  0  0  0  0  0  0  0  0
    9.9698   25.9608   10.0199 C   0  0  0  0  0  0  0  0  0  0  0  0
    8.6773   26.1481    9.4132 C   0  0  0  0  0  0  0  0  0  0  0  0
    8.5369   26.0893    7.9854 C   0  0  0  0  0  0  0  0  0  0  0  0
    9.6820   25.8455    7.1546 C   0  0  0  0  0  0  0  0  0  0  0  0
   14.7160   22.6711    5.8639 N   0  0  0  0  0  0  0  0  0  0  0  0
   14.8686   20.6467    4.4569 C   0  0  0  0  0  0  0  0  0  0  0  0
   13.6729   20.3659    4.4194 O   0  0  0  0  0  0  0  0  0  0  0  0
   15.3290   21.8269    4.9422 N   0  0  0  0  0  0  0  0  0  0  0  0
   16.2038   22.1225    4.6008 H   0  0  0  0  0  0  0  0  0  0  0  0
   15.9370   19.6388    3.9344 C   0  0  0  0  0  0  0  0  0  0  0  0
   18.5717   19.7438    5.1230 O   0  0  0  0  0  0  0  0  0  0  0  0
   16.4665   18.9008    5.0984 N   0  0  0  0  0  0  0  0  0  0  0  0
   17.7025   18.9792    5.6238 C   0  0  0  0  0  0  0  0  0  0  0  0
   15.8435   18.2801    5.5408 H   0  0  0  0  0  0  0  0  0  0  0  0
   18.3215   16.8256    6.5848 C   0  0  0  0  0  0  0  0  0  0  0  0
   17.9459   18.1997    6.7065 O   0  0  0  0  0  0  0  0  0  0  0  0
   15.4683   18.6020    2.8488 C   0  0  0  0  0  0  0  0  0  0  0  0
   14.6662   19.2624    1.6901 C   0  0  0  0  0  0  0  0  0  0  0  0
   14.5680   17.4984    3.4230 C   0  0  0  0  0  0  0  0  0  0  0  0
   16.7090   17.9512    2.2095 C   0  0  0  0  0  0  0  0  0  0  0  0
   14.1145   22.0898    7.1050 C   0  0  0  0  0  0  0  0  0  0  0  0
   15.0971   21.3841    7.9672 C   0  0  0  0  0  0  0  0  0  0  0  0
   14.6517   20.2894    8.7596 C   0  0  0  0  0  0  0  0  0  0  0  0
   15.5733   19.6216    9.6108 C   0  0  0  0  0  0  0  0  0  0  0  0
   16.9355   20.0579    9.6613 C   0  0  0  0  0  0  0  0  0  0  0  0
   17.3807   21.1500    8.8571 C   0  0  0  0  0  0  0  0  0  0  0  0
   16.4614   21.8141    8.0090 C   0  0  0  0  0  0  0  0  0  0  0  0
   18.1461   19.1922   10.8130 Br  0  0  0  0  0  0  0  0  0  0  0  0
 21 22  2  0  0  0
 21 26  1  0  0  0
 21 20  1  0  0  0
 22 23  1  0  0  0
 23 24  2  0  0  0
 24 25  1  0  0  0
 25 26  2  0  0  0
 44 45  2  0  0  0
 44 49  1  0  0  0
 44 43  1  0  0  0
 45 46  1  0  0  0
 46 47  2  0  0  0
 47 48  1  0  0  0
 47 50  1  0  0  0
 48 49  2  0  0  0
 43 27  1  0  0  0
 37 38  1  0  0  0
  1  3  1  0  0  0
  1 27  1  0  0  0
 33 35  2  0  0  0
 34 35  1  0  0  0
 34 32  1  0  0  0
 20  3  1  0  0  0
  2  3  1  0  0  0
 38 35  1  0  0  0
  5  6  2  0  0  0
  5  7  1  0  0  0
  5  3  1  0  0  0
  7  9  1  0  0  0
  9 10  1  0  0  0
  9 15  1  0  0  0
 10 11  2  0  0  0
 10 12  1  0  0  0
 11 17  1  0  0  0
 11 18  1  0  0  0
 12 13  2  0  0  0
 13 14  1  0  0  0
 14 17  2  0  0  0
 15 16  1  0  0  0
 15 18  1  0  0  0
 32 39  1  0  0  0
 32 28  1  0  0  0
 39 40  1  0  0  0
 39 41  1  0  0  0
 39 42  1  0  0  0
 28 29  2  0  0  0
 28 30  1  0  0  0
 27 30  1  0  0  0
 34 36  1  0  0  0
  2  4  1  0  0  0
  7  8  1  0  0  0
 16 19  1  0  0  0
 30 31  1  0  0  0
M  END
> <minimizedAffinity>
-10.22024

$$$$
2CEJ_1AH_B_1200


 50 53  0  0  0  0  0  0  0  0999 V2000
    9.8784   24.9889    4.1741 C   0  0  0  0  0  0  0  0  0  0  0  0
    9.0324   24.0583    6.2495 O   0  0  0  0  0  0  0  0  0  0  0  0
    9.5105   25.2500    5.6558 C   0  0  0  0  0  0  0  0  0  0  0  0
    9.7733   23.4488    6.3930 H   0  0  0  0  0  0  0  0  0  0  0  0
    8.3147   26.2407    5.4213 C   0  0  0  0  0  0  0  0  0  0  0  0
    8.5420   27.3211    4.8502 O   0  0  0  0  0  0  0  0  0  0  0  0
    7.0766   25.9760    5.8733 N   0  0  0  0  0  0  0  0  0  0  0  0
    6.9005   25.1120    6.3113 H   0  0  0  0  0  0  0  0  0  0  0  0
    5.9814   26.9411    5.7308 C   0  0  0  0  0  0  0  0  0  0  0  0
    4.5834   26.3826    5.7451 C   0  0  0  0  0  0  0  0  0  0  0  0
    3.7272   27.3358    6.3231 C   0  0  0  0  0  0  0  0  0  0  0  0
    4.0935   25.1177    5.2827 C   0  0  0  0  0  0  0  0  0  0  0  0
    2.6929   24.8396    5.4281 C   0  0  0  0  0  0  0  0  0  0  0  0
    1.8223   25.8186    6.0222 C   0  0  0  0  0  0  0  0  0  0  0  0
    5.9511   28.0287    6.8286 C   0  0  0  0  0  0  0  0  0  0  0  0
    6.0736   27.4541    8.1289 O   0  0  0  0  0  0  0  0  0  0  0  0
    2.3342   27.0836    6.4758 C   0  0  0  0  0  0  0  0  0  0  0  0
    4.5099   28.5746    6.7215 C   0  0  0  0  0  0  0  0  0  0  0  0
    5.3682   26.8016    8.2618 H   0  0  0  0  0  0  0  0  0  0  0  0
   10.6230   25.8689    6.5899 C   0  0  0  0  0  0  0  0  0  0  0  0
   10.1205   26.2672    7.9838 C   0  0  0  0  0  0  0  0  0  0  0  0
    9.5727   27.5824    8.2061 C   0  0  0  0  0  0  0  0  0  0  0  0
    9.0663   27.9498    9.4991 C   0  0  0  0  0  0  0  0  0  0  0  0
    9.1062   27.0000   10.5809 C   0  0  0  0  0  0  0  0  0  0  0  0
    9.6524   25.6892   10.3682 C   0  0  0  0  0  0  0  0  0  0  0  0
   10.1598   25.3167    9.0779 C   0  0  0  0  0  0  0  0  0  0  0  0
   10.2930   23.7805    3.5665 N   0  0  0  0  0  0  0  0  0  0  0  0
   11.7433   22.0940    4.6407 C   0  0  0  0  0  0  0  0  0  0  0  0
   10.8668   21.3188    5.0157 O   0  0  0  0  0  0  0  0  0  0  0  0
   11.4982   23.1193    3.7870 N   0  0  0  0  0  0  0  0  0  0  0  0
   12.2668   23.4346    3.2585 H   0  0  0  0  0  0  0  0  0  0  0  0
   13.2121   21.9307    5.1370 C   0  0  0  0  0  0  0  0  0  0  0  0
   14.4092   23.2431    7.4197 O   0  0  0  0  0  0  0  0  0  0  0  0
   13.1655   21.5512    6.5631 N   0  0  0  0  0  0  0  0  0  0  0  0
   13.7361   22.1916    7.5995 C   0  0  0  0  0  0  0  0  0  0  0  0
   12.6586   20.7357    6.7806 H   0  0  0  0  0  0  0  0  0  0  0  0
   14.5937   20.9954    9.5433 C   0  0  0  0  0  0  0  0  0  0  0  0
   13.5416   21.6444    8.8250 O   0  0  0  0  0  0  0  0  0  0  0  0
   14.1139   20.8971    4.3678 C   0  0  0  0  0  0  0  0  0  0  0  0
   15.6254   21.0442    4.7086 C   0  0  0  0  0  0  0  0  0  0  0  0
   14.0012   21.0225    2.8415 C   0  0  0  0  0  0  0  0  0  0  0  0
   13.7064   19.4712    4.7827 C   0  0  0  0  0  0  0  0  0  0  0  0
    9.8873   24.1196    2.1664 C   0  0  0  0  0  0  0  0  0  0  0  0
    8.4648   24.5299    2.0428 C   0  0  0  0  0  0  0  0  0  0  0  0
    7.4897   23.8717    2.8432 C   0  0  0  0  0  0  0  0  0  0  0  0
    6.1211   24.2333    2.7164 C   0  0  0  0  0  0  0  0  0  0  0  0
    5.7408   25.2527    1.7865 C   0  0  0  0  0  0  0  0  0  0  0  0
    6.7234   25.9178    0.9929 C   0  0  0  0  0  0  0  0  0  0  0  0
    8.0867   25.5568    1.1207 C   0  0  0  0  0  0  0  0  0  0  0  0
    3.9245   25.7072    1.5979 Br  0  0  0  0  0  0  0  0  0  0  0  0
 21 22  2  0  0  0
 21 26  1  0  0  0
 21 20  1  0  0  0
 22 23  1  0  0  0
 23 24  2  0  0  0
 24 25  1  0  0  0
 25 26  2  0  0  0
 44 45  2  0  0  0
 44 49  1  0  0  0
 44 43  1  0  0  0
 45 46  1  0  0  0
 46 47  2  0  0  0
 47 48  1  0  0  0
 47 50  1  0  0  0
 48 49  2  0  0  0
 43 27  1  0  0  0
 37 38  1  0  0  0
  1  3  1  0  0  0
  1 27  1  0  0  0
 33 35  2  0  0  0
 34 35  1  0  0  0
 34 32  1  0  0  0
 20  3  1  0  0  0
  2  3  1  0  0  0
 38 35  1  0  0  0
  5  6  2  0  0  0
  5  7  1  0  0  0
  5  3  1  0  0  0
  7  9  1  0  0  0
  9 10  1  0  0  0
  9 15  1  0  0  0
 10 11  2  0  0  0
 10 12  1  0  0  0
 11 17  1  0  0  0
 11 18  1  0  0  0
 12 13  2  0  0  0
 13 14  1  0  0  0
 14 17  2  0  0  0
 15 16  1  0  0  0
 15 18  1  0  0  0
 32 39  1  0  0  0
 32 28  1  0  0  0
 39 40  1  0  0  0
 39 41  1  0  0  0
 39 42  1  0  0  0
 28 29  2  0  0  0
 28 30  1  0  0  0
 27 30  1  0  0  0
 34 36  1  0  0  0
  2  4  1  0  0  0
  7  8  1  0  0  0
 16 19  1  0  0  0
 30 31  1  0  0  0
M  END
> <minimizedAffinity>
-9.77184

$$$$
