3OAF_OAG_A_187


 27 29  0  0  0  0  0  0  0  0999 V2000
   -5.9363  -18.6236   -2.4399 C   0  0  0  0  0  0  0  0  0  0  0  0
   -7.1400  -19.6557   -5.7124 N   0  0  0  0  0  0  0  0  0  0  0  0
   -5.7173  -19.8773   -1.8614 C   0  0  0  0  0  0  0  0  0  0  0  0
   -7.3516  -18.4605   -6.2815 C   0  0  0  0  0  0  0  0  0  0  0  0
   -7.7472  -18.3986   -7.5981 N   0  0  0  0  0  0  0  0  0  0  0  0
   -7.0919  -17.3221   -5.6009 N   0  0  0  0  0  0  0  0  0  0  0  0
   -6.7154  -17.2876   -4.3381 C   0  0  0  0  0  0  0  0  0  0  0  0
   -6.5185  -16.1220   -3.7390 N   0  0  0  0  0  0  0  0  0  0  0  0
   -6.4260  -18.5345   -3.7477 C   0  0  0  0  0  0  0  0  0  0  0  0
   -5.9791  -21.0270   -2.6353 C   0  0  0  0  0  0  0  0  0  0  0  0
   -6.4475  -20.9668   -3.8911 N   0  0  0  0  0  0  0  0  0  0  0  0
   -6.6534  -19.7343   -4.4574 C   0  0  0  0  0  0  0  0  0  0  0  0
   -7.9366  -19.2273   -8.0947 H   0  0  0  0  0  0  0  0  0  0  0  0
   -7.8410  -17.5255   -8.0435 H   0  0  0  0  0  0  0  0  0  0  0  0
   -6.7415  -15.2846   -4.2061 H   0  0  0  0  0  0  0  0  0  0  0  0
   -6.1493  -16.0936   -2.8268 H   0  0  0  0  0  0  0  0  0  0  0  0
   -5.1510  -19.9125   -0.4009 C   0  0  0  0  0  0  0  0  0  0  0  0
   -3.6397  -20.0030   -0.3239 N   0  0  0  0  0  0  0  0  0  0  0  0
   -3.0997  -20.8253   -0.3647 H   0  0  0  0  0  0  0  0  0  0  0  0
   -4.0737  -18.2657    2.3855 Cl  0  0  0  0  0  0  0  0  0  0  0  0
   -1.2047  -16.8053   -2.9425 Cl  0  0  0  0  0  0  0  0  0  0  0  0
   -3.1794  -18.7569   -0.1902 C   0  0  0  0  0  0  0  0  0  0  0  0
   -3.2763  -17.8487    0.8980 C   0  0  0  0  0  0  0  0  0  0  0  0
   -2.0593  -16.1653   -0.3788 C   0  0  0  0  0  0  0  0  0  0  0  0
   -2.7251  -16.5632    0.7874 C   0  0  0  0  0  0  0  0  0  0  0  0
   -1.9637  -17.0882   -1.4296 C   0  0  0  0  0  0  0  0  0  0  0  0
   -2.5255  -18.3456   -1.3301 C   0  0  0  0  0  0  0  0  0  0  0  0
  3 17  1  0  0  0
 17 18  1  0  0  0
 18 22  1  0  0  0
 23 20  1  0  0  0
 21 26  1  0  0  0
  9  1  2  0  0  0
  1  3  1  0  0  0
 27 22  2  0  0  0
 22 23  1  0  0  0
  4  2  2  0  0  0
  2 12  1  0  0  0
 10  3  2  0  0  0
 23 25  2  0  0  0
 26 24  2  0  0  0
 24 25  1  0  0  0
  5  4  1  0  0  0
  4  6  1  0  0  0
  6  7  2  0  0  0
  7  9  1  0  0  0
  7  8  1  0  0  0
 12  9  1  0  0  0
 27 26  1  0  0  0
 11 10  1  0  0  0
 12 11  2  0  0  0
 18 19  1  0  0  0
  5 13  1  0  0  0
  5 14  1  0  0  0
  8 15  1  0  0  0
  8 16  1  0  0  0
M  END
> <minimizedAffinity>
-9.31422

$$$$
3OAF_OAG_A_187


 27 29  0  0  0  0  0  0  0  0999 V2000
   -5.6399  -18.1383   -2.1939 C   0  0  0  0  0  0  0  0  0  0  0  0
   -8.0548  -18.9950   -4.7742 N   0  0  0  0  0  0  0  0  0  0  0  0
   -5.4890  -19.3881   -1.5857 C   0  0  0  0  0  0  0  0  0  0  0  0
   -8.2070  -17.8035   -5.3696 C   0  0  0  0  0  0  0  0  0  0  0  0
   -9.0034  -17.7027   -6.4874 N   0  0  0  0  0  0  0  0  0  0  0  0
   -7.5150  -16.7271   -4.9350 N   0  0  0  0  0  0  0  0  0  0  0  0
   -6.7355  -16.7317   -3.8720 C   0  0  0  0  0  0  0  0  0  0  0  0
   -6.1234  -15.6178   -3.4967 N   0  0  0  0  0  0  0  0  0  0  0  0
   -6.5145  -17.9898   -3.2761 C   0  0  0  0  0  0  0  0  0  0  0  0
   -6.2168  -20.4784   -2.1063 C   0  0  0  0  0  0  0  0  0  0  0  0
   -7.0599  -20.3609   -3.1433 N   0  0  0  0  0  0  0  0  0  0  0  0
   -7.1987  -19.1344   -3.7418 C   0  0  0  0  0  0  0  0  0  0  0  0
   -9.5079  -18.4863   -6.8048 H   0  0  0  0  0  0  0  0  0  0  0  0
   -9.0686  -16.8469   -6.9698 H   0  0  0  0  0  0  0  0  0  0  0  0
   -6.3220  -14.7689   -3.9542 H   0  0  0  0  0  0  0  0  0  0  0  0
   -5.4701  -15.6391   -2.7606 H   0  0  0  0  0  0  0  0  0  0  0  0
   -4.4818  -19.4954   -0.3904 C   0  0  0  0  0  0  0  0  0  0  0  0
   -3.0240  -19.4178   -0.7990 N   0  0  0  0  0  0  0  0  0  0  0  0
   -2.4500  -20.1718   -1.0661 H   0  0  0  0  0  0  0  0  0  0  0  0
   -1.7111  -17.8331   -3.3115 Cl  0  0  0  0  0  0  0  0  0  0  0  0
   -3.0518  -15.8861    2.4473 Cl  0  0  0  0  0  0  0  0  0  0  0  0
   -2.6656  -18.1336   -0.7281 C   0  0  0  0  0  0  0  0  0  0  0  0
   -2.0771  -17.2842   -1.7031 C   0  0  0  0  0  0  0  0  0  0  0  0
   -2.0416  -15.4457   -0.1019 C   0  0  0  0  0  0  0  0  0  0  0  0
   -1.7636  -15.9562   -1.3761 C   0  0  0  0  0  0  0  0  0  0  0  0
   -2.6386  -16.3014    0.8342 C   0  0  0  0  0  0  0  0  0  0  0  0
   -2.9267  -17.6149    0.5204 C   0  0  0  0  0  0  0  0  0  0  0  0
  3 17  1  0  0  0
 17 18  1  0  0  0
 18 22  1  0  0  0
 23 20  1  0  0  0
 21 26  1  0  0  0
  9  1  2  0  0  0
  1  3  1  0  0  0
 27 22  2  0  0  0
 22 23  1  0  0  0
  4  2  2  0  0  0
  2 12  1  0  0  0
 10  3  2  0  0  0
 23 25  2  0  0  0
 26 24  2  0  0  0
 24 25  1  0  0  0
  5  4  1  0  0  0
  4  6  1  0  0  0
  6  7  2  0  0  0
  7  9  1  0  0  0
  7  8  1  0  0  0
 12  9  1  0  0  0
 27 26  1  0  0  0
 11 10  1  0  0  0
 12 11  2  0  0  0
 18 19  1  0  0  0
  5 13  1  0  0  0
  5 14  1  0  0  0
  8 15  1  0  0  0
  8 16  1  0  0  0
M  END
> <minimizedAffinity>
-9.10749

$$$$
3OAF_OAG_A_187


 27 29  0  0  0  0  0  0  0  0999 V2000
   -4.4399  -17.0194   -0.0866 C   0  0  0  0  0  0  0  0  0  0  0  0
   -3.1683  -19.5699    2.1721 N   0  0  0  0  0  0  0  0  0  0  0  0
   -4.6179  -17.7905   -1.2391 C   0  0  0  0  0  0  0  0  0  0  0  0
   -2.9957  -18.8438    3.2858 C   0  0  0  0  0  0  0  0  0  0  0  0
   -2.5902  -19.4673    4.4438 N   0  0  0  0  0  0  0  0  0  0  0  0
   -3.3035  -17.5280    3.3003 N   0  0  0  0  0  0  0  0  0  0  0  0
   -3.6929  -16.8501    2.2390 C   0  0  0  0  0  0  0  0  0  0  0  0
   -3.9383  -15.5515    2.3378 N   0  0  0  0  0  0  0  0  0  0  0  0
   -3.9415  -17.6116    1.0792 C   0  0  0  0  0  0  0  0  0  0  0  0
   -4.3066  -19.1649   -1.1801 C   0  0  0  0  0  0  0  0  0  0  0  0
   -3.8290  -19.7552   -0.0739 N   0  0  0  0  0  0  0  0  0  0  0  0
   -3.6634  -18.9963    1.0567 C   0  0  0  0  0  0  0  0  0  0  0  0
   -2.3658  -20.4258    4.4341 H   0  0  0  0  0  0  0  0  0  0  0  0
   -2.5246  -18.9547    5.2818 H   0  0  0  0  0  0  0  0  0  0  0  0
   -3.7420  -15.0759    3.1772 H   0  0  0  0  0  0  0  0  0  0  0  0
   -4.3169  -15.0624    1.5719 H   0  0  0  0  0  0  0  0  0  0  0  0
   -5.1962  -17.0751   -2.5075 C   0  0  0  0  0  0  0  0  0  0  0  0
   -4.1732  -16.8225   -3.5974 N   0  0  0  0  0  0  0  0  0  0  0  0
   -4.1728  -17.2123   -4.5014 H   0  0  0  0  0  0  0  0  0  0  0  0
   -1.1779  -17.7504   -2.7523 Cl  0  0  0  0  0  0  0  0  0  0  0  0
   -3.9087  -12.1624   -2.4904 Cl  0  0  0  0  0  0  0  0  0  0  0  0
   -3.2730  -15.9714   -3.0994 C   0  0  0  0  0  0  0  0  0  0  0  0
   -1.9361  -16.1882   -2.6704 C   0  0  0  0  0  0  0  0  0  0  0  0
   -1.7323  -13.8347   -2.0666 C   0  0  0  0  0  0  0  0  0  0  0  0
   -1.1867  -15.1218   -2.1510 C   0  0  0  0  0  0  0  0  0  0  0  0
   -3.0475  -13.6467   -2.5136 C   0  0  0  0  0  0  0  0  0  0  0  0
   -3.7935  -14.7002   -3.0039 C   0  0  0  0  0  0  0  0  0  0  0  0
  3 17  1  0  0  0
 17 18  1  0  0  0
 18 22  1  0  0  0
 23 20  1  0  0  0
 21 26  1  0  0  0
  9  1  2  0  0  0
  1  3  1  0  0  0
 27 22  2  0  0  0
 22 23  1  0  0  0
  4  2  2  0  0  0
  2 12  1  0  0  0
 10  3  2  0  0  0
 23 25  2  0  0  0
 26 24  2  0  0  0
 24 25  1  0  0  0
  5  4  1  0  0  0
  4  6  1  0  0  0
  6  7  2  0  0  0
  7  9  1  0  0  0
  7  8  1  0  0  0
 12  9  1  0  0  0
 27 26  1  0  0  0
 11 10  1  0  0  0
 12 11  2  0  0  0
 18 19  1  0  0  0
  5 13  1  0  0  0
  5 14  1  0  0  0
  8 15  1  0  0  0
  8 16  1  0  0  0
M  END
> <minimizedAffinity>
-8.75191

$$$$
3OAF_OAG_A_187


 27 29  0  0  0  0  0  0  0  0999 V2000
   -6.5636  -17.9292   -4.8420 C   0  0  0  0  0  0  0  0  0  0  0  0
   -8.3663  -21.0300   -5.4411 N   0  0  0  0  0  0  0  0  0  0  0  0
   -6.2467  -18.0963   -3.4905 C   0  0  0  0  0  0  0  0  0  0  0  0
   -8.6743  -20.8851   -6.7378 C   0  0  0  0  0  0  0  0  0  0  0  0
   -9.3100  -21.9101   -7.4008 N   0  0  0  0  0  0  0  0  0  0  0  0
   -8.2852  -19.7825   -7.4154 N   0  0  0  0  0  0  0  0  0  0  0  0
   -7.6780  -18.7523   -6.8608 C   0  0  0  0  0  0  0  0  0  0  0  0
   -7.3656  -17.6950   -7.5962 N   0  0  0  0  0  0  0  0  0  0  0  0
   -7.2898  -18.9175   -5.5158 C   0  0  0  0  0  0  0  0  0  0  0  0
   -6.6556  -19.2838   -2.8486 C   0  0  0  0  0  0  0  0  0  0  0  0
   -7.3513  -20.2457   -3.4739 N   0  0  0  0  0  0  0  0  0  0  0  0
   -7.6530  -20.0809   -4.8019 C   0  0  0  0  0  0  0  0  0  0  0  0
   -9.5938  -22.7137   -6.9080 H   0  0  0  0  0  0  0  0  0  0  0  0
   -9.4808  -21.8396   -8.3678 H   0  0  0  0  0  0  0  0  0  0  0  0
   -7.6677  -17.6394   -8.5316 H   0  0  0  0  0  0  0  0  0  0  0  0
   -6.8314  -16.9653   -7.2072 H   0  0  0  0  0  0  0  0  0  0  0  0
   -5.4164  -16.9639   -2.7956 C   0  0  0  0  0  0  0  0  0  0  0  0
   -3.9294  -17.2469   -2.7131 N   0  0  0  0  0  0  0  0  0  0  0  0
   -3.3753  -17.6733   -3.4063 H   0  0  0  0  0  0  0  0  0  0  0  0
   -1.0872  -15.7278   -2.3110 Cl  0  0  0  0  0  0  0  0  0  0  0  0
   -5.5112  -17.1951    1.8154 Cl  0  0  0  0  0  0  0  0  0  0  0  0
   -3.5131  -16.8087   -1.5225 C   0  0  0  0  0  0  0  0  0  0  0  0
   -2.3156  -16.1400   -1.1520 C   0  0  0  0  0  0  0  0  0  0  0  0
   -3.0445  -16.0919    1.1743 C   0  0  0  0  0  0  0  0  0  0  0  0
   -2.0916  -15.7992    0.1905 C   0  0  0  0  0  0  0  0  0  0  0  0
   -4.2242  -16.7364    0.7769 C   0  0  0  0  0  0  0  0  0  0  0  0
   -4.4355  -17.0924   -0.5403 C   0  0  0  0  0  0  0  0  0  0  0  0
  3 17  1  0  0  0
 17 18  1  0  0  0
 18 22  1  0  0  0
 23 20  1  0  0  0
 21 26  1  0  0  0
  9  1  2  0  0  0
  1  3  1  0  0  0
 27 22  2  0  0  0
 22 23  1  0  0  0
  4  2  2  0  0  0
  2 12  1  0  0  0
 10  3  2  0  0  0
 23 25  2  0  0  0
 26 24  2  0  0  0
 24 25  1  0  0  0
  5  4  1  0  0  0
  4  6  1  0  0  0
  6  7  2  0  0  0
  7  9  1  0  0  0
  7  8  1  0  0  0
 12  9  1  0  0  0
 27 26  1  0  0  0
 11 10  1  0  0  0
 12 11  2  0  0  0
 18 19  1  0  0  0
  5 13  1  0  0  0
  5 14  1  0  0  0
  8 15  1  0  0  0
  8 16  1  0  0  0
M  END
> <minimizedAffinity>
-8.55573

$$$$
3OAF_OAG_A_187


 27 29  0  0  0  0  0  0  0  0999 V2000
   -6.1661  -17.4709   -3.8218 C   0  0  0  0  0  0  0  0  0  0  0  0
   -8.8048  -19.2220   -5.6089 N   0  0  0  0  0  0  0  0  0  0  0  0
   -6.7147  -16.1854   -3.7884 C   0  0  0  0  0  0  0  0  0  0  0  0
   -8.2928  -20.4605   -5.6455 C   0  0  0  0  0  0  0  0  0  0  0  0
   -9.0383  -21.4852   -6.1825 N   0  0  0  0  0  0  0  0  0  0  0  0
   -7.0943  -20.7234   -5.0792 N   0  0  0  0  0  0  0  0  0  0  0  0
   -6.3123  -19.8046   -4.5481 C   0  0  0  0  0  0  0  0  0  0  0  0
   -5.1345  -20.1484   -4.0475 N   0  0  0  0  0  0  0  0  0  0  0  0
   -6.8645  -18.5118   -4.4436 C   0  0  0  0  0  0  0  0  0  0  0  0
   -7.9833  -15.9834   -4.3709 C   0  0  0  0  0  0  0  0  0  0  0  0
   -8.6723  -16.9657   -4.9713 N   0  0  0  0  0  0  0  0  0  0  0  0
   -8.1335  -18.2270   -4.9946 C   0  0  0  0  0  0  0  0  0  0  0  0
   -9.9116  -21.2946   -6.5953 H   0  0  0  0  0  0  0  0  0  0  0  0
   -8.6983  -22.4086   -6.1539 H   0  0  0  0  0  0  0  0  0  0  0  0
   -4.8041  -21.0696   -4.1544 H   0  0  0  0  0  0  0  0  0  0  0  0
   -4.5898  -19.4826   -3.5687 H   0  0  0  0  0  0  0  0  0  0  0  0
   -5.8938  -15.0658   -3.0623 C   0  0  0  0  0  0  0  0  0  0  0  0
   -4.4102  -15.0839   -3.3735 N   0  0  0  0  0  0  0  0  0  0  0  0
   -3.9959  -14.9553   -4.2573 H   0  0  0  0  0  0  0  0  0  0  0  0
   -2.6087  -17.7381   -2.8659 Cl  0  0  0  0  0  0  0  0  0  0  0  0
   -3.8479  -12.9130    0.8671 Cl  0  0  0  0  0  0  0  0  0  0  0  0
   -3.7716  -15.3072   -2.2224 C   0  0  0  0  0  0  0  0  0  0  0  0
   -2.9556  -16.3968   -1.8157 C   0  0  0  0  0  0  0  0  0  0  0  0
   -2.6384  -15.3630    0.3697 C   0  0  0  0  0  0  0  0  0  0  0  0
   -2.4081  -16.4164   -0.5240 C   0  0  0  0  0  0  0  0  0  0  0  0
   -3.4329  -14.2930   -0.0649 C   0  0  0  0  0  0  0  0  0  0  0  0
   -3.9906  -14.2835   -1.3280 C   0  0  0  0  0  0  0  0  0  0  0  0
  3 17  1  0  0  0
 17 18  1  0  0  0
 18 22  1  0  0  0
 23 20  1  0  0  0
 21 26  1  0  0  0
  9  1  2  0  0  0
  1  3  1  0  0  0
 27 22  2  0  0  0
 22 23  1  0  0  0
  4  2  2  0  0  0
  2 12  1  0  0  0
 10  3  2  0  0  0
 23 25  2  0  0  0
 26 24  2  0  0  0
 24 25  1  0  0  0
  5  4  1  0  0  0
  4  6  1  0  0  0
  6  7  2  0  0  0
  7  9  1  0  0  0
  7  8  1  0  0  0
 12  9  1  0  0  0
 27 26  1  0  0  0
 11 10  1  0  0  0
 12 11  2  0  0  0
 18 19  1  0  0  0
  5 13  1  0  0  0
  5 14  1  0  0  0
  8 15  1  0  0  0
  8 16  1  0  0  0
M  END
> <minimizedAffinity>
-8.38799

$$$$
3OAF_OAG_A_187


 27 29  0  0  0  0  0  0  0  0999 V2000
   -6.4897  -17.0395   -3.4038 C   0  0  0  0  0  0  0  0  0  0  0  0
   -7.1225  -19.9811   -5.4459 N   0  0  0  0  0  0  0  0  0  0  0  0
   -5.2524  -17.3921   -2.8568 C   0  0  0  0  0  0  0  0  0  0  0  0
   -8.3077  -19.6549   -5.9809 C   0  0  0  0  0  0  0  0  0  0  0  0
   -8.8835  -20.4908   -6.9103 N   0  0  0  0  0  0  0  0  0  0  0  0
   -8.8922  -18.4734   -5.6826 N   0  0  0  0  0  0  0  0  0  0  0  0
   -8.4151  -17.6163   -4.8021 C   0  0  0  0  0  0  0  0  0  0  0  0
   -9.0757  -16.4966   -4.5449 N   0  0  0  0  0  0  0  0  0  0  0  0
   -7.1395  -17.9144   -4.2815 C   0  0  0  0  0  0  0  0  0  0  0  0
   -4.6813  -18.6260   -3.2321 C   0  0  0  0  0  0  0  0  0  0  0  0
   -5.2844  -19.4804   -4.0725 N   0  0  0  0  0  0  0  0  0  0  0  0
   -6.4947  -19.1266   -4.6129 C   0  0  0  0  0  0  0  0  0  0  0  0
   -8.4584  -21.3516   -7.1282 H   0  0  0  0  0  0  0  0  0  0  0  0
   -9.7204  -20.2279   -7.3571 H   0  0  0  0  0  0  0  0  0  0  0  0
   -9.9650  -16.3479   -4.9401 H   0  0  0  0  0  0  0  0  0  0  0  0
   -8.6771  -15.8135   -3.9587 H   0  0  0  0  0  0  0  0  0  0  0  0
   -4.5657  -16.3634   -1.8949 C   0  0  0  0  0  0  0  0  0  0  0  0
   -3.1597  -16.7474   -1.4779 N   0  0  0  0  0  0  0  0  0  0  0  0
   -2.3638  -16.7727   -2.0568 H   0  0  0  0  0  0  0  0  0  0  0  0
   -2.6773  -19.7582   -0.3600 Cl  0  0  0  0  0  0  0  0  0  0  0  0
   -3.9228  -14.4664    2.6727 Cl  0  0  0  0  0  0  0  0  0  0  0  0
   -3.2049  -17.0447   -0.1770 C   0  0  0  0  0  0  0  0  0  0  0  0
   -3.0311  -18.2853    0.4931 C   0  0  0  0  0  0  0  0  0  0  0  0
   -3.4271  -17.1988    2.6396 C   0  0  0  0  0  0  0  0  0  0  0  0
   -3.1539  -18.3493    1.8893 C   0  0  0  0  0  0  0  0  0  0  0  0
   -3.5762  -15.9855    1.9534 C   0  0  0  0  0  0  0  0  0  0  0  0
   -3.4780  -15.9256    0.5774 C   0  0  0  0  0  0  0  0  0  0  0  0
  3 17  1  0  0  0
 17 18  1  0  0  0
 18 22  1  0  0  0
 23 20  1  0  0  0
 21 26  1  0  0  0
  9  1  2  0  0  0
  1  3  1  0  0  0
 27 22  2  0  0  0
 22 23  1  0  0  0
  4  2  2  0  0  0
  2 12  1  0  0  0
 10  3  2  0  0  0
 23 25  2  0  0  0
 26 24  2  0  0  0
 24 25  1  0  0  0
  5  4  1  0  0  0
  4  6  1  0  0  0
  6  7  2  0  0  0
  7  9  1  0  0  0
  7  8  1  0  0  0
 12  9  1  0  0  0
 27 26  1  0  0  0
 11 10  1  0  0  0
 12 11  2  0  0  0
 18 19  1  0  0  0
  5 13  1  0  0  0
  5 14  1  0  0  0
  8 15  1  0  0  0
  8 16  1  0  0  0
M  END
> <minimizedAffinity>
-8.36741

$$$$
3OAF_OAG_A_187


 27 29  0  0  0  0  0  0  0  0999 V2000
   -4.4020  -17.8947   -2.9649 C   0  0  0  0  0  0  0  0  0  0  0  0
   -7.3835  -16.7499   -4.7038 N   0  0  0  0  0  0  0  0  0  0  0  0
   -3.9639  -16.6831   -2.4221 C   0  0  0  0  0  0  0  0  0  0  0  0
   -7.8176  -17.9050   -5.2278 C   0  0  0  0  0  0  0  0  0  0  0  0
   -9.0077  -17.9295   -5.9185 N   0  0  0  0  0  0  0  0  0  0  0  0
   -7.1433  -19.0547   -5.0047 N   0  0  0  0  0  0  0  0  0  0  0  0
   -5.9955  -19.1232   -4.3601 C   0  0  0  0  0  0  0  0  0  0  0  0
   -5.3849  -20.2910   -4.2202 N   0  0  0  0  0  0  0  0  0  0  0  0
   -5.5610  -17.9300   -3.7482 C   0  0  0  0  0  0  0  0  0  0  0  0
   -4.7293  -15.5239   -2.6668 C   0  0  0  0  0  0  0  0  0  0  0  0
   -5.8442  -15.5331   -3.4132 N   0  0  0  0  0  0  0  0  0  0  0  0
   -6.2745  -16.7257   -3.9371 C   0  0  0  0  0  0  0  0  0  0  0  0
   -9.4996  -17.0924   -6.0815 H   0  0  0  0  0  0  0  0  0  0  0  0
   -9.3671  -18.7841   -6.2497 H   0  0  0  0  0  0  0  0  0  0  0  0
   -5.7391  -21.0892   -4.6748 H   0  0  0  0  0  0  0  0  0  0  0  0
   -4.5771  -20.3604   -3.6617 H   0  0  0  0  0  0  0  0  0  0  0  0
   -2.6700  -16.7105   -1.5389 C   0  0  0  0  0  0  0  0  0  0  0  0
   -2.6391  -17.8315   -0.5189 N   0  0  0  0  0  0  0  0  0  0  0  0
   -2.0206  -18.5975   -0.5095 H   0  0  0  0  0  0  0  0  0  0  0  0
   -5.1329  -19.8592   -0.0537 Cl  0  0  0  0  0  0  0  0  0  0  0  0
   -3.7918  -14.4091    2.6387 Cl  0  0  0  0  0  0  0  0  0  0  0  0
   -3.6091  -17.5836    0.3644 C   0  0  0  0  0  0  0  0  0  0  0  0
   -4.7680  -18.3347    0.6980 C   0  0  0  0  0  0  0  0  0  0  0  0
   -5.4287  -16.6283    2.3093 C   0  0  0  0  0  0  0  0  0  0  0  0
   -5.6670  -17.8445    1.6571 C   0  0  0  0  0  0  0  0  0  0  0  0
   -4.2684  -15.9172    1.9728 C   0  0  0  0  0  0  0  0  0  0  0  0
   -3.3947  -16.3879    1.0128 C   0  0  0  0  0  0  0  0  0  0  0  0
  3 17  1  0  0  0
 17 18  1  0  0  0
 18 22  1  0  0  0
 23 20  1  0  0  0
 21 26  1  0  0  0
  9  1  2  0  0  0
  1  3  1  0  0  0
 27 22  2  0  0  0
 22 23  1  0  0  0
  4  2  2  0  0  0
  2 12  1  0  0  0
 10  3  2  0  0  0
 23 25  2  0  0  0
 26 24  2  0  0  0
 24 25  1  0  0  0
  5  4  1  0  0  0
  4  6  1  0  0  0
  6  7  2  0  0  0
  7  9  1  0  0  0
  7  8  1  0  0  0
 12  9  1  0  0  0
 27 26  1  0  0  0
 11 10  1  0  0  0
 12 11  2  0  0  0
 18 19  1  0  0  0
  5 13  1  0  0  0
  5 14  1  0  0  0
  8 15  1  0  0  0
  8 16  1  0  0  0
M  END
> <minimizedAffinity>
-8.36650

$$$$
3OAF_OAG_A_187


 27 29  0  0  0  0  0  0  0  0999 V2000
   -4.9319  -15.1391   -2.6793 C   0  0  0  0  0  0  0  0  0  0  0  0
   -5.2191  -11.7290   -1.4496 N   0  0  0  0  0  0  0  0  0  0  0  0
   -3.8506  -15.5786   -1.9098 C   0  0  0  0  0  0  0  0  0  0  0  0
   -6.2573  -11.2948   -2.1782 C   0  0  0  0  0  0  0  0  0  0  0  0
   -6.7595  -10.0330   -1.9553 N   0  0  0  0  0  0  0  0  0  0  0  0
   -6.8668  -12.1172   -3.0605 N   0  0  0  0  0  0  0  0  0  0  0  0
   -6.4513  -13.3365   -3.3403 C   0  0  0  0  0  0  0  0  0  0  0  0
   -7.0900  -14.0601   -4.2485 N   0  0  0  0  0  0  0  0  0  0  0  0
   -5.4034  -13.8294   -2.5366 C   0  0  0  0  0  0  0  0  0  0  0  0
   -3.2780  -14.6808   -0.9849 C   0  0  0  0  0  0  0  0  0  0  0  0
   -3.7134  -13.4213   -0.8294 N   0  0  0  0  0  0  0  0  0  0  0  0
   -4.7797  -12.9971   -1.5810 C   0  0  0  0  0  0  0  0  0  0  0  0
   -6.3161   -9.4331   -1.3128 H   0  0  0  0  0  0  0  0  0  0  0  0
   -7.5621   -9.7302   -2.4384 H   0  0  0  0  0  0  0  0  0  0  0  0
   -7.8147  -13.6565   -4.7787 H   0  0  0  0  0  0  0  0  0  0  0  0
   -6.8398  -15.0012   -4.3929 H   0  0  0  0  0  0  0  0  0  0  0  0
   -3.3798  -17.0608   -2.1012 C   0  0  0  0  0  0  0  0  0  0  0  0
   -3.2148  -17.8312   -0.8060 N   0  0  0  0  0  0  0  0  0  0  0  0
   -2.3770  -17.9635   -0.3063 H   0  0  0  0  0  0  0  0  0  0  0  0
   -4.8055  -16.8097    1.8348 Cl  0  0  0  0  0  0  0  0  0  0  0  0
   -6.4095  -20.9874   -2.4926 Cl  0  0  0  0  0  0  0  0  0  0  0  0
   -4.4208  -18.2962   -0.4712 C   0  0  0  0  0  0  0  0  0  0  0  0
   -5.2573  -17.9822    0.6333 C   0  0  0  0  0  0  0  0  0  0  0  0
   -6.9208  -19.5824   -0.1523 C   0  0  0  0  0  0  0  0  0  0  0  0
   -6.4902  -18.6347    0.7847 C   0  0  0  0  0  0  0  0  0  0  0  0
   -6.0827  -19.8594   -1.2412 C   0  0  0  0  0  0  0  0  0  0  0  0
   -4.8593  -19.2342   -1.3789 C   0  0  0  0  0  0  0  0  0  0  0  0
  3 17  1  0  0  0
 17 18  1  0  0  0
 18 22  1  0  0  0
 23 20  1  0  0  0
 21 26  1  0  0  0
  9  1  2  0  0  0
  1  3  1  0  0  0
 27 22  2  0  0  0
 22 23  1  0  0  0
  4  2  2  0  0  0
  2 12  1  0  0  0
 10  3  2  0  0  0
 23 25  2  0  0  0
 26 24  2  0  0  0
 24 25  1  0  0  0
  5  4  1  0  0  0
  4  6  1  0  0  0
  6  7  2  0  0  0
  7  9  1  0  0  0
  7  8  1  0  0  0
 12  9  1  0  0  0
 27 26  1  0  0  0
 11 10  1  0  0  0
 12 11  2  0  0  0
 18 19  1  0  0  0
  5 13  1  0  0  0
  5 14  1  0  0  0
  8 15  1  0  0  0
  8 16  1  0  0  0
M  END
> <minimizedAffinity>
-8.30101

$$$$
3OAF_OAG_A_187


 27 29  0  0  0  0  0  0  0  0999 V2000
   -4.1691  -17.2420   -0.4703 C   0  0  0  0  0  0  0  0  0  0  0  0
   -3.1021  -19.4320    2.2295 N   0  0  0  0  0  0  0  0  0  0  0  0
   -4.2613  -18.1733   -1.5089 C   0  0  0  0  0  0  0  0  0  0  0  0
   -3.0127  -18.5508    3.2360 C   0  0  0  0  0  0  0  0  0  0  0  0
   -2.7058  -18.9976    4.5010 N   0  0  0  0  0  0  0  0  0  0  0  0
   -3.3099  -17.2480    3.0344 N   0  0  0  0  0  0  0  0  0  0  0  0
   -3.6081  -16.7332    1.8581 C   0  0  0  0  0  0  0  0  0  0  0  0
   -3.8499  -15.4350    1.7471 N   0  0  0  0  0  0  0  0  0  0  0  0
   -3.7700  -17.6564    0.8052 C   0  0  0  0  0  0  0  0  0  0  0  0
   -3.9669  -19.5234   -1.2259 C   0  0  0  0  0  0  0  0  0  0  0  0
   -3.5836  -19.9447   -0.0112 N   0  0  0  0  0  0  0  0  0  0  0  0
   -3.5023  -19.0286    1.0067 C   0  0  0  0  0  0  0  0  0  0  0  0
   -2.4891  -19.9465    4.6488 H   0  0  0  0  0  0  0  0  0  0  0  0
   -2.7028  -18.3683    5.2581 H   0  0  0  0  0  0  0  0  0  0  0  0
   -3.7171  -14.8416    2.5213 H   0  0  0  0  0  0  0  0  0  0  0  0
   -4.1623  -15.0639    0.8904 H   0  0  0  0  0  0  0  0  0  0  0  0
   -4.7310  -17.6523   -2.9099 C   0  0  0  0  0  0  0  0  0  0  0  0
   -6.2174  -17.3680   -2.9993 N   0  0  0  0  0  0  0  0  0  0  0  0
   -6.6994  -16.6294   -2.5618 H   0  0  0  0  0  0  0  0  0  0  0  0
   -7.0383  -20.3064   -1.8861 Cl  0  0  0  0  0  0  0  0  0  0  0  0
   -7.4802  -17.8744   -7.5994 Cl  0  0  0  0  0  0  0  0  0  0  0  0
   -6.7491  -18.3086   -3.7836 C   0  0  0  0  0  0  0  0  0  0  0  0
   -7.1589  -19.6359   -3.4855 C   0  0  0  0  0  0  0  0  0  0  0  0
   -7.8074  -19.9742   -5.8115 C   0  0  0  0  0  0  0  0  0  0  0  0
   -7.6727  -20.4543   -4.5028 C   0  0  0  0  0  0  0  0  0  0  0  0
   -7.4114  -18.6551   -6.0727 C   0  0  0  0  0  0  0  0  0  0  0  0
   -6.8846  -17.8564   -5.0771 C   0  0  0  0  0  0  0  0  0  0  0  0
  3 17  1  0  0  0
 17 18  1  0  0  0
 18 22  1  0  0  0
 23 20  1  0  0  0
 21 26  1  0  0  0
  9  1  2  0  0  0
  1  3  1  0  0  0
 27 22  2  0  0  0
 22 23  1  0  0  0
  4  2  2  0  0  0
  2 12  1  0  0  0
 10  3  2  0  0  0
 23 25  2  0  0  0
 26 24  2  0  0  0
 24 25  1  0  0  0
  5  4  1  0  0  0
  4  6  1  0  0  0
  6  7  2  0  0  0
  7  9  1  0  0  0
  7  8  1  0  0  0
 12  9  1  0  0  0
 27 26  1  0  0  0
 11 10  1  0  0  0
 12 11  2  0  0  0
 18 19  1  0  0  0
  5 13  1  0  0  0
  5 14  1  0  0  0
  8 15  1  0  0  0
  8 16  1  0  0  0
M  END
> <minimizedAffinity>
-8.27084

$$$$
3OAF_OAG_A_187


 27 29  0  0  0  0  0  0  0  0999 V2000
   -6.3132  -17.3718   -3.8577 C   0  0  0  0  0  0  0  0  0  0  0  0
   -8.8473  -19.2353   -5.6822 N   0  0  0  0  0  0  0  0  0  0  0  0
   -6.9074  -16.1063   -3.8520 C   0  0  0  0  0  0  0  0  0  0  0  0
   -8.2914  -20.4552   -5.6925 C   0  0  0  0  0  0  0  0  0  0  0  0
   -8.9879  -21.5116   -6.2338 N   0  0  0  0  0  0  0  0  0  0  0  0
   -7.0975  -20.6690   -5.0964 N   0  0  0  0  0  0  0  0  0  0  0  0
   -6.3607  -19.7172   -4.5591 C   0  0  0  0  0  0  0  0  0  0  0  0
   -5.1831  -20.0134   -4.0281 N   0  0  0  0  0  0  0  0  0  0  0  0
   -6.9603  -18.4437   -4.4824 C   0  0  0  0  0  0  0  0  0  0  0  0
   -8.1688  -15.9559   -4.4651 C   0  0  0  0  0  0  0  0  0  0  0  0
   -8.8089  -16.9687   -5.0689 N   0  0  0  0  0  0  0  0  0  0  0  0
   -8.2256  -18.2103   -5.0650 C   0  0  0  0  0  0  0  0  0  0  0  0
   -9.8577  -21.3568   -6.6682 H   0  0  0  0  0  0  0  0  0  0  0  0
   -8.6163  -22.4221   -6.1865 H   0  0  0  0  0  0  0  0  0  0  0  0
   -4.8182  -20.9235   -4.1165 H   0  0  0  0  0  0  0  0  0  0  0  0
   -4.6733  -19.3234   -3.5453 H   0  0  0  0  0  0  0  0  0  0  0  0
   -6.1432  -14.9502   -3.1211 C   0  0  0  0  0  0  0  0  0  0  0  0
   -4.7383  -14.7114   -3.6385 N   0  0  0  0  0  0  0  0  0  0  0  0
   -4.4892  -14.4372   -4.5506 H   0  0  0  0  0  0  0  0  0  0  0  0
   -4.5230  -12.7333   -1.0717 Cl  0  0  0  0  0  0  0  0  0  0  0  0
   -1.4773  -18.0003   -2.3891 Cl  0  0  0  0  0  0  0  0  0  0  0  0
   -3.9029  -14.9432   -2.6232 C   0  0  0  0  0  0  0  0  0  0  0  0
   -3.6641  -14.2002   -1.4360 C   0  0  0  0  0  0  0  0  0  0  0  0
   -1.9797  -15.8211   -0.7424 C   0  0  0  0  0  0  0  0  0  0  0  0
   -2.7005  -14.6417   -0.5166 C   0  0  0  0  0  0  0  0  0  0  0  0
   -2.2488  -16.5429   -1.9136 C   0  0  0  0  0  0  0  0  0  0  0  0
   -3.1807  -16.0973   -2.8298 C   0  0  0  0  0  0  0  0  0  0  0  0
  3 17  1  0  0  0
 17 18  1  0  0  0
 18 22  1  0  0  0
 23 20  1  0  0  0
 21 26  1  0  0  0
  9  1  2  0  0  0
  1  3  1  0  0  0
 27 22  2  0  0  0
 22 23  1  0  0  0
  4  2  2  0  0  0
  2 12  1  0  0  0
 10  3  2  0  0  0
 23 25  2  0  0  0
 26 24  2  0  0  0
 24 25  1  0  0  0
  5  4  1  0  0  0
  4  6  1  0  0  0
  6  7  2  0  0  0
  7  9  1  0  0  0
  7  8  1  0  0  0
 12  9  1  0  0  0
 27 26  1  0  0  0
 11 10  1  0  0  0
 12 11  2  0  0  0
 18 19  1  0  0  0
  5 13  1  0  0  0
  5 14  1  0  0  0
  8 15  1  0  0  0
  8 16  1  0  0  0
M  END
> <minimizedAffinity>
-8.25924

$$$$
