3OAF_OAG_A_187
  RCSB PDB12061710023D
Coordinates from PDB:3OAF:A:187 Model:1 without hydrogens
 22 24  0  0  0  0            999 V2000
   -2.9690  -15.1060   -1.6290   C 0  0  0  0  0  0  0  0  0  0  0  0
   -2.3780  -13.7100   -1.6360   N 0  0  0  0  0  0  0  0  0  0  0  0
   -2.2540  -10.6050   -0.6920  Cl 0  0  0  0  0  0  0  0  0  0  0  0
   -6.7630  -13.7800   -3.5800  Cl 0  0  0  0  0  0  0  0  0  0  0  0
   -2.8470  -17.1160   -0.0860   C 0  0  0  0  0  0  0  0  0  0  0  0
   -3.3870  -12.8590   -1.8370   C 0  0  0  0  0  0  0  0  0  0  0  0
   -3.3100  -17.5210    3.4980   N 0  0  0  0  0  0  0  0  0  0  0  0
   -3.0890  -15.7440   -0.2030   C 0  0  0  0  0  0  0  0  0  0  0  0
   -3.5200  -11.4870   -1.4930   C 0  0  0  0  0  0  0  0  0  0  0  0
   -5.7640  -11.4500   -2.4460   C 0  0  0  0  0  0  0  0  0  0  0  0
   -3.0770  -18.8350    3.6260   C 0  0  0  0  0  0  0  0  0  0  0  0
   -3.0710  -19.4020    4.8800   N 0  0  0  0  0  0  0  0  0  0  0  0
   -4.7080  -10.8030   -1.7920   C 0  0  0  0  0  0  0  0  0  0  0  0
   -2.7600  -19.5830    2.5460   N 0  0  0  0  0  0  0  0  0  0  0  0
   -2.7470  -19.1250    1.3100   C 0  0  0  0  0  0  0  0  0  0  0  0
   -2.4600  -19.9410    0.3060   N 0  0  0  0  0  0  0  0  0  0  0  0
   -2.9250  -17.7340    1.1670   C 0  0  0  0  0  0  0  0  0  0  0  0
   -5.5980  -12.7990   -2.7890   C 0  0  0  0  0  0  0  0  0  0  0  0
   -4.4380  -13.4790   -2.4750   C 0  0  0  0  0  0  0  0  0  0  0  0
   -3.3850  -15.0140    0.9670   C 0  0  0  0  0  0  0  0  0  0  0  0
   -3.4640  -15.5840    2.1790   N 0  0  0  0  0  0  0  0  0  0  0  0
   -3.2180  -16.9290    2.2900   C 0  0  0  0  0  0  0  0  0  0  0  0
  8  1  1  0  0  0  0
  1  2  1  0  0  0  0
  2  6  1  0  0  0  0
  9  3  1  0  0  0  0
  4 18  1  0  0  0  0
 17  5  2  0  0  0  0
  5  8  1  0  0  0  0
 19  6  2  0  0  0  0
  6  9  1  0  0  0  0
 11  7  2  0  0  0  0
  7 22  1  0  0  0  0
 20  8  2  0  0  0  0
  9 13  2  0  0  0  0
 18 10  2  0  0  0  0
 10 13  1  0  0  0  0
 12 11  1  0  0  0  0
 11 14  1  0  0  0  0
 14 15  2  0  0  0  0
 15 17  1  0  0  0  0
 15 16  1  0  0  0  0
 22 17  1  0  0  0  0
 19 18  1  0  0  0  0
 21 20  1  0  0  0  0
 22 21  2  0  0  0  0
A    1
C1
A    2
N1
A    3
CL2
A    4
CL5
A    5
C9
A    6
C1'
A    7
N1'
A    8
C10
A    9
C11
A   10
C12
A   11
C2'
A   12
N2'
A   13
C3'
A   14
N3'
A   15
C4'
A   16
N4'
A   17
C4A
A   18
C5'
A   19
C6'
A   20
C7'
A   21
N8'
A   22
C8A
M  END
>  <InstanceId>
3OAF_OAG_A_187

>  <ChemCompId>
OAG

>  <PdbId>
3OAF

>  <ChainId>
A

>  <ResidueNumber>
187

>  <InsertionCode>


>  <Model>
1

>  <AltIds>


>  <MissingHeavyAtoms>
0

>  <ObservedFormula>
C14 N6 Cl2

>  <Name>
6-{[(2,5-dichlorophenyl)amino]methyl}pyrido[2,3-d]pyrimidine-2,4-diamine

>  <SystematicName>
6-[[(2,5-dichlorophenyl)amino]methyl]pyrido[2,3-d]pyrimidine-2,4-diamine

>  <Synonyms>


>  <Type>
NON-POLYMER

>  <Formula>
C14 H12 Cl2 N6

>  <MolecularWeight>
335.191

>  <ModifiedDate>
2011-06-04

>  <Parent>


>  <OneLetterCode>


>  <SubcomponentList>


>  <AmbiguousFlag>
N

>  <InChI>
InChI=1S/C14H12Cl2N6/c15-8-1-2-10(16)11(4-8)19-5-7-3-9-12(17)21-14(18)22-13(9)20-6-7/h1-4,6,19H,5H2,(H4,17,18,20,21,22)

>  <InChIKey>
RSPDQFOJWPXTPN-UHFFFAOYSA-N

>  <SMILES>
c1cc(c(cc1Cl)NCc2cc3c(nc(nc3nc2)N)N)Cl

$$$$
