5I2F_BS5_A_201
  RCSB PDB12061718063D
Coordinates from PDB:5I2F:A:201 Model:1 without hydrogens
 26 28  0  0  0  0            999 V2000
  -31.7270    4.3470  -23.9250   S 0  0  0  0  0  0  0  0  0  0  0  0
  -27.0070    4.8310  -33.7520   N 0  0  0  0  0  0  0  0  0  0  0  0
  -26.4060    5.0580  -32.5670   C 0  0  0  0  0  0  0  0  0  0  0  0
  -27.0800    5.3140  -31.4320   N 0  0  0  0  0  0  0  0  0  0  0  0
  -28.4300    5.3480  -31.4280   C 0  0  0  0  0  0  0  0  0  0  0  0
  -29.1610    5.1130  -32.6760   C 0  0  0  0  0  0  0  0  0  0  0  0
  -28.3530    4.8410  -33.8830   C 0  0  0  0  0  0  0  0  0  0  0  0
  -29.0120    4.5910  -35.1920   N 0  0  0  0  0  0  0  0  0  0  0  0
  -30.4690    5.2180  -32.3780   N 0  0  0  0  0  0  0  0  0  0  0  0
  -30.5710    5.4890  -31.0520   C 0  0  0  0  0  0  0  0  0  0  0  0
  -29.3510    5.5720  -30.4980   N 0  0  0  0  0  0  0  0  0  0  0  0
  -29.0340    5.8500  -29.0840   C 0  0  0  0  0  0  0  0  0  0  0  0
  -29.8980    6.9510  -28.5100   C 0  0  0  0  0  0  0  0  0  0  0  0
  -29.3400    8.2210  -28.8450   O 0  0  0  0  0  0  0  0  0  0  0  0
  -29.8850    6.6480  -27.0190   C 0  0  0  0  0  0  0  0  0  0  0  0
  -28.8800    7.3680  -26.2830   O 0  0  0  0  0  0  0  0  0  0  0  0
  -29.5710    5.1620  -26.9660   C 0  0  0  0  0  0  0  0  0  0  0  0
  -29.3430    4.7100  -28.2960   O 0  0  0  0  0  0  0  0  0  0  0  0
  -30.7190    4.3790  -26.3710   C 0  0  0  0  0  0  0  0  0  0  0  0
  -30.5210    4.4830  -24.9510   N 0  0  0  0  0  0  0  0  0  0  0  0
  -32.7270    7.9260  -24.9120   C 0  0  0  0  0  0  0  0  0  0  0  0
  -32.5090    6.9260  -23.8030   C 0  0  0  0  0  0  0  0  0  0  0  0
  -32.7190    5.6280  -24.1030   N 0  0  0  0  0  0  0  0  0  0  0  0
  -32.1390    7.3100  -22.7000   O 0  0  0  0  0  0  0  0  0  0  0  0
  -31.0990    4.2120  -22.6410   O 0  0  0  0  0  0  0  0  0  0  0  0
  -32.4510    3.1310  -24.1990   O 0  0  0  0  0  0  0  0  0  0  0  0
 20  1  1  0  0  0  0
 23  1  1  0  0  0  0
  1 25  2  0  0  0  0
  1 26  2  0  0  0  0
  7  2  2  0  0  0  0
  2  3  1  0  0  0  0
  3  4  2  0  0  0  0
  5  4  1  0  0  0  0
  6  5  2  0  0  0  0
  5 11  1  0  0  0  0
  7  6  1  0  0  0  0
  9  6  1  0  0  0  0
  8  7  1  0  0  0  0
  9 10  2  0  0  0  0
 10 11  1  0  0  0  0
 11 12  1  0  0  0  0
 12 13  1  0  0  0  0
 12 18  1  0  0  0  0
 13 14  1  0  0  0  0
 13 15  1  0  0  0  0
 15 16  1  0  0  0  0
 15 17  1  0  0  0  0
 18 17  1  0  0  0  0
 17 19  1  0  0  0  0
 19 20  1  0  0  0  0
 21 22  1  0  0  0  0
 24 22  2  0  0  0  0
 22 23  1  0  0  0  0
A    1
S
A    2
N1
A    3
C2
A    4
N3
A    5
C4
A    6
C5
A    7
C6
A    8
N6
A    9
N7
A   10
C8
A   11
N9
A   12
C1'
A   13
C2'
A   14
O2'
A   15
C3'
A   16
O3'
A   17
C4'
A   18
O4'
A   19
C5'
A   20
N5'
A   21
CAB
A   22
CBB
A   23
NBB
A   24
OCB
A   25
OP1
A   26
OP2
M  END
>  <InstanceId>
5I2F_BS5_A_201

>  <ChemCompId>
BS5

>  <PdbId>
5I2F

>  <ChainId>
A

>  <ResidueNumber>
201

>  <InsertionCode>


>  <Model>
1

>  <AltIds>


>  <MissingHeavyAtoms>
12

>  <ObservedFormula>
C12 N7 O6 S

>  <Name>
5'-deoxy-5'-[({5-[(3aS,4S,6aR)-2-oxohexahydro-1H-thieno[3,4-d]imidazol-4-yl]pentanoyl}sulfamoyl)amino]adenosine

>  <SystematicName>
5-[(3aS,4S,6aR)-2-oxidanylidene-1,3,3a,4,6,6a-hexahydrothieno[3,4-d]imidazol-4-yl]-N-[[(2R,3S,4R,5R)-5-(6-aminopurin-9-yl)-3,4-bis(oxidanyl)oxolan-2-yl]methylsulfamoyl]pentanamide

>  <Synonyms>


>  <Type>
NON-POLYMER

>  <Formula>
C20 H29 N9 O7 S2

>  <MolecularWeight>
571.63

>  <ModifiedDate>
2011-12-09

>  <Parent>


>  <OneLetterCode>


>  <SubcomponentList>


>  <AmbiguousFlag>
N

>  <InChI>
InChI=1S/C20H29N9O7S2/c21-17-14-18(23-7-22-17)29(8-24-14)19-16(32)15(31)10(36-19)5-25-38(34,35)28-12(30)4-2-1-3-11-13-9(6-37-11)26-20(33)27-13/h7-11,13,15-16,19,25,31-32H,1-6H2,(H,28,30)(H2,21,22,23)(H2,26,27,33)/t9-,10+,11-,13-,15+,16+,19+/m0/s1

>  <InChIKey>
RSZBCKJLQVSFKT-RHCAYAJFSA-N

>  <SMILES>
c1nc(c2c(n1)n(cn2)[C@H]3[C@@H]([C@@H]([C@H](O3)CNS(=O)(=O)NC(=O)CCCC[C@H]4[C@@H]5[C@H](CS4)NC(=O)N5)O)O)N

$$$$
