4ABG_91B_A_1255
  RCSB PDB12061711383D
Coordinates from PDB:4ABG:A:1255 Model:1 without hydrogens
 15 16  0  0  0  0            999 V2000
  -21.6940    1.6930   14.2070   C 0  0  0  0  0  0  0  0  0  0  0  0
  -20.7800    1.3240   15.1610   C 0  0  0  0  0  0  0  0  0  0  0  0
  -22.6580    2.6400   14.4990   C 0  0  0  0  0  0  0  0  0  0  0  0
  -21.7440    2.8330   16.6880   C 0  0  0  0  0  0  0  0  0  0  0  0
  -20.7930    1.8550   16.4360   C 0  0  0  0  0  0  0  0  0  0  0  0
  -22.6740    3.2340   15.7550   C 0  0  0  0  0  0  0  0  0  0  0  0
  -23.4610    4.8400   17.3730   C 0  0  0  0  0  0  0  0  0  0  0  0
  -24.1090    5.0000   14.8840   C 0  0  0  0  0  0  0  0  0  0  0  0
  -24.7060    5.7000   17.6530   C 0  0  0  0  0  0  0  0  0  0  0  0
  -25.4140    5.6390   15.3010   C 0  0  0  0  0  0  0  0  0  0  0  0
  -26.2420    7.3980   16.8240   C 0  0  0  0  0  0  0  0  0  0  0  0
  -19.7270    1.3530   17.4080   C 0  0  0  0  0  0  0  0  0  0  0  0
  -23.6680    4.1930   16.0490   N 0  0  0  0  0  0  0  0  0  0  0  0
  -25.1340    6.5000   16.4750   N 0  0  0  0  0  0  0  0  0  0  0  0
  -19.2050    2.4610   18.2260   N 0  0  0  0  0  0  0  0  0  0  0  0
  1  2  1  0  0  0  0
  1  3  2  0  0  0  0
  2  5  2  0  0  0  0
  3  6  1  0  0  0  0
  4  5  1  0  0  0  0
  4  6  2  0  0  0  0
  5 12  1  0  0  0  0
  6 13  1  0  0  0  0
  7  9  1  0  0  0  0
  7 13  1  0  0  0  0
  8 10  1  0  0  0  0
  8 13  1  0  0  0  0
  9 14  1  0  0  0  0
 10 14  1  0  0  0  0
 11 14  1  0  0  0  0
 12 15  1  0  0  0  0
A    1
C11
A    2
C10
A    3
C12
A    4
C8
A    5
C9
A    6
C7
A    7
C3
A    8
C5
A    9
C2
A   10
C6
A   11
C15
A   12
C13
A   13
N4
A   14
N1
A   15
N14
M  END
>  <InstanceId>
4ABG_91B_A_1255

>  <ChemCompId>
91B

>  <PdbId>
4ABG

>  <ChainId>
A

>  <ResidueNumber>
1255

>  <InsertionCode>


>  <Model>
1

>  <AltIds>


>  <MissingHeavyAtoms>
0

>  <ObservedFormula>
C12 N3

>  <Name>
1-[3-(4-METHYLPIPERAZIN-1-YL)PHENYL]METHANAMINE

>  <SystematicName>
[3-(4-methylpiperazin-1-yl)phenyl]methanamine

>  <Synonyms>
FRAGMENT CC35913

>  <Type>
NON-POLYMER

>  <Formula>
C12 H19 N3

>  <MolecularWeight>
205.299

>  <ModifiedDate>
2014-09-05

>  <Parent>


>  <OneLetterCode>


>  <SubcomponentList>


>  <AmbiguousFlag>
N

>  <InChI>
InChI=1S/C12H19N3/c1-14-5-7-15(8-6-14)12-4-2-3-11(9-12)10-13/h2-4,9H,5-8,10,13H2,1H3

>  <InChIKey>
VKTLTRIKVYJVOX-UHFFFAOYSA-N

>  <SMILES>
CN1CCN(CC1)c2cccc(c2)CN

$$$$
