5CZM_R47_A_306
  RCSB PDB12061717113D
Coordinates from PDB:5CZM:A:306 Model:1 without hydrogens
 52 55  0  0  0  0            999 V2000
    9.8790   26.5400    4.2230   O 0  0  0  0  0  0  0  0  0  0  0  0
    6.5890   22.7060    5.5780   N 0  0  0  0  0  0  0  0  0  0  0  0
    7.7880   22.9780    4.8790   O 0  0  0  0  0  0  0  0  0  0  0  0
    8.9620   26.7190    3.4490   C 0  0  0  0  0  0  0  0  0  0  0  0
    8.5640   25.6850    2.4530   C 0  0  0  0  0  0  0  0  0  0  0  0
    8.7000   24.3060    3.0730   C 0  0  0  0  0  0  0  0  0  0  0  0
    6.2230   24.2270    3.9950   C 0  0  0  0  0  0  0  0  0  0  0  0
    5.6840   23.4690    5.0290   C 0  0  0  0  0  0  0  0  0  0  0  0
    4.2860   23.4060    5.5160   C 0  0  0  0  0  0  0  0  0  0  0  0
    3.3110   24.1070    4.8180   C 0  0  0  0  0  0  0  0  0  0  0  0
    1.9910   24.0550    5.2280   C 0  0  0  0  0  0  0  0  0  0  0  0
    1.6560   23.2960    6.3370   C 0  0  0  0  0  0  0  0  0  0  0  0
    2.6210   22.5690    7.0350   C 0  0  0  0  0  0  0  0  0  0  0  0
    3.9460   22.6200    6.6180   C 0  0  0  0  0  0  0  0  0  0  0  0
    7.5240   23.9100    3.9210   C 0  0  0  0  0  0  0  0  0  0  0  0
   -2.3200   20.6160    8.2370  Cl 0  0  0  0  0  0  0  0  0  0  0  0
   -1.6430   22.0740    7.6060   C 0  0  0  0  0  0  0  0  0  0  0  0
   -0.3050   22.0850    7.2480   C 0  0  0  0  0  0  0  0  0  0  0  0
   -2.4400   23.2000    7.4630   C 0  0  0  0  0  0  0  0  0  0  0  0
   -1.8890   24.3590    6.9490   C 0  0  0  0  0  0  0  0  0  0  0  0
   -0.5480   24.3750    6.5880   C 0  0  0  0  0  0  0  0  0  0  0  0
    0.2410   23.2480    6.7480   C 0  0  0  0  0  0  0  0  0  0  0  0
    9.5730   25.8040    1.3360   C 0  0  0  0  0  0  0  0  0  0  0  0
    9.1570   24.9780   -0.2150   P 0  0  0  0  0  0  0  0  0  0  0  0
    9.4580   23.4820   -0.1250   O 0  0  0  0  0  0  0  0  0  0  0  0
    7.7170   25.2610   -0.5280   O 0  0  0  0  0  0  0  0  0  0  0  0
   10.2280   25.7470   -1.4220   C 0  0  0  0  0  0  0  0  0  0  0  0
    9.7170   26.3680   -2.5550   C 0  0  0  0  0  0  0  0  0  0  0  0
   10.5900   26.9560   -3.4670   C 0  0  0  0  0  0  0  0  0  0  0  0
   11.9580   26.9140   -3.2270   C 0  0  0  0  0  0  0  0  0  0  0  0
   13.1640   27.7060   -4.4450  Br 0  0  0  0  0  0  0  0  0  0  0  0
   12.4690   26.3000   -2.0970   C 0  0  0  0  0  0  0  0  0  0  0  0
   11.5980   25.7100   -1.1950   C 0  0  0  0  0  0  0  0  0  0  0  0
    8.2620   27.8410    3.4040   N 0  0  0  0  0  0  0  0  0  0  0  0
    8.5920   28.9390    4.2890   C 0  0  0  0  0  0  0  0  0  0  0  0
    7.8460   28.9770    5.5840   C 0  0  0  0  0  0  0  0  0  0  0  0
    6.7020   28.5890    5.6920   O 0  0  0  0  0  0  0  0  0  0  0  0
    8.3450   30.2500    3.5450   C 0  0  0  0  0  0  0  0  0  0  0  0
    9.2930   30.4400    2.3700   C 0  0  0  0  0  0  0  0  0  0  0  0
    9.1940   31.8140    1.7480   C 0  0  0  0  0  0  0  0  0  0  0  0
    8.5230   31.9950    0.7440   O 0  0  0  0  0  0  0  0  0  0  0  0
    9.8800   32.7570    2.3880   O 0  0  0  0  0  0  0  0  0  0  0  0
    8.5050   29.5040    6.6000   N 0  0  0  0  0  0  0  0  0  0  0  0
    7.9060   29.6400    7.9020   C 0  0  0  0  0  0  0  0  0  0  0  0
    6.8060   30.6700    7.8980   C 0  0  0  0  0  0  0  0  0  0  0  0
    5.7890   30.4880    8.5560   O 0  0  0  0  0  0  0  0  0  0  0  0
    9.0200   30.0950    8.8240   C 0  0  0  0  0  0  0  0  0  0  0  0
    8.6280   30.1740   10.2830   C 0  0  0  0  0  0  0  0  0  0  0  0
    9.8930   30.3660   11.0800   C 0  0  0  0  0  0  0  0  0  0  0  0
   10.3700   31.4800   11.2040   O 0  0  0  0  0  0  0  0  0  0  0  0
   10.5050   29.3090   11.6170   O 0  0  0  0  0  0  0  0  0  0  0  0
    7.0000   31.7630    7.1580   N 0  0  0  0  0  0  0  0  0  0  0  0
 31 30  1  0  0  0  0
 30 29  2  0  0  0  0
 30 32  1  0  0  0  0
 29 28  1  0  0  0  0
 32 33  2  0  0  0  0
 28 27  2  0  0  0  0
 33 27  1  0  0  0  0
 27 24  1  0  0  0  0
 26 24  2  0  0  0  0
 24 25  1  0  0  0  0
 24 23  1  0  0  0  0
 41 40  2  0  0  0  0
 23  5  1  0  0  0  0
 40 42  1  0  0  0  0
 40 39  1  0  0  0  0
 39 38  1  0  0  0  0
  5  6  1  0  0  0  0
  5  4  1  0  0  0  0
  6 15  1  0  0  0  0
 34  4  1  0  0  0  0
 34 35  1  0  0  0  0
 38 35  1  0  0  0  0
  4  1  2  0  0  0  0
 15  7  2  0  0  0  0
 15  3  1  0  0  0  0
  7  8  1  0  0  0  0
 35 36  1  0  0  0  0
 10 11  2  0  0  0  0
 10  9  1  0  0  0  0
  3  2  1  0  0  0  0
  8  2  2  0  0  0  0
  8  9  1  0  0  0  0
 11 12  1  0  0  0  0
  9 14  2  0  0  0  0
 36 37  2  0  0  0  0
 36 43  1  0  0  0  0
 16 17  1  0  0  0  0
 18 17  2  0  0  0  0
 18 22  1  0  0  0  0
 12 22  1  0  0  0  0
 12 13  2  0  0  0  0
 14 13  1  0  0  0  0
 43 44  1  0  0  0  0
 17 19  1  0  0  0  0
 22 21  2  0  0  0  0
 52 45  1  0  0  0  0
 19 20  2  0  0  0  0
 21 20  1  0  0  0  0
 45 44  1  0  0  0  0
 45 46  2  0  0  0  0
 44 47  1  0  0  0  0
 47 48  1  0  0  0  0
 48 49  1  0  0  0  0
 49 50  2  0  0  0  0
 49 51  1  0  0  0  0
A    1
O4
A    2
N1
A    3
O1
A    4
C25
A    5
C17
A    6
C16
A    7
C14
A    8
C13
A    9
C12
A   10
C11
A   11
C10
A   12
C7
A   13
C8
A   14
C9
A   15
C15
A   16
CL1
A   17
C1
A   18
C2
A   19
C3
A   20
C4
A   21
C5
A   22
C6
A   23
C18
A   24
P1
A   25
O2
A   26
O3
A   27
C19
A   28
C20
A   29
C21
A   30
C22
A   31
BR1
A   32
C23
A   33
C24
A   34
N2
A   35
C26
A   36
C30
A   37
O7
A   38
C27
A   39
C28
A   40
C29
A   41
O5
A   42
O6
A   43
N3
A   44
C31
A   45
C35
A   46
O10
A   47
C32
A   48
C33
A   49
C34
A   50
O8
A   51
O9
A   52
N4
M  END
>  <InstanceId>
5CZM_R47_A_306

>  <ChemCompId>
R47

>  <PdbId>
5CZM

>  <ChainId>
A

>  <ResidueNumber>
306

>  <InsertionCode>


>  <Model>
1

>  <AltIds>


>  <MissingHeavyAtoms>
0

>  <ObservedFormula>
C35 N4 O10 P Br Cl

>  <Name>
N-[(2S)-3-[(S)-(4-bromophenyl)(hydroxy)phosphoryl]-2-{[3-(3'-chlorobiphenyl-4-yl)-1,2-oxazol-5-yl]methyl}propanoyl]-L-alpha-glutamyl-L-alpha-glutamine

>  <SystematicName>
(4S)-5-azanyl-4-[[(2S)-2-[[(2S)-2-[[(4-bromophenyl)-oxidanyl-phosphoryl]methyl]-3-[3-[4-(3-chlorophenyl)phenyl]-1,2-oxazol-5-yl]propanoyl]amino]-5-oxidanyl-5-oxidanylidene-pentanoyl]amino]-5-oxidanylidene-pentanoic acid

>  <Synonyms>
RXP470.1

>  <Type>
peptide-like

>  <Formula>
C35 H35 Br Cl N4 O10 P

>  <MolecularWeight>
818.004

>  <ModifiedDate>
2013-02-01

>  <Parent>


>  <OneLetterCode>


>  <SubcomponentList>
0YL GLU GLU NH2

>  <AmbiguousFlag>
N

>  <InChI>
InChI=1S/C35H35BrClN4O10P/c36-24-8-10-27(11-9-24)52(49,50)19-23(34(47)40-29(13-15-32(44)45)35(48)39-28(33(38)46)12-14-31(42)43)17-26-18-30(41-51-26)21-6-4-20(5-7-21)22-2-1-3-25(37)16-22/h1-11,16,18,23,28-29H,12-15,17,19H2,(H2,38,46)(H,39,48)(H,40,47)(H,42,43)(H,44,45)(H,49,50)/t23-,28+,29+/m1/s1

>  <InChIKey>
PTUCPHGSAFOJAU-MGONOCMRSA-N

>  <SMILES>
c1cc(cc(c1)Cl)c2ccc(cc2)c3cc(on3)C[C@H](CP(=O)(c4ccc(cc4)Br)O)C(=O)N[C@@H](CCC(=O)O)C(=O)N[C@@H](CCC(=O)O)C(=O)N

$$$$
