5CZM_R47_A_306


 59 62  0  0  0  0  0  0  0  0999 V2000
    8.0144   25.3678    3.4887 C   0  0  0  0  0  0  0  0  0  0  0  0
    9.8147   26.6806    4.2816 O   0  0  0  0  0  0  0  0  0  0  0  0
    8.6182   26.5812    4.1073 C   0  0  0  0  0  0  0  0  0  0  0  0
    7.7595   27.5375    4.4221 N   0  0  0  0  0  0  0  0  0  0  0  0
    6.7956   27.4003    4.2759 H   0  0  0  0  0  0  0  0  0  0  0  0
    8.2355   28.7858    4.9815 C   0  0  0  0  0  0  0  0  0  0  0  0
    7.7208   29.1263    6.3431 C   0  0  0  0  0  0  0  0  0  0  0  0
    6.5538   29.0059    6.6507 O   0  0  0  0  0  0  0  0  0  0  0  0
    8.6191   29.6104    7.1816 N   0  0  0  0  0  0  0  0  0  0  0  0
    9.5540   29.6965    6.8853 H   0  0  0  0  0  0  0  0  0  0  0  0
    8.2669   30.0153    8.5174 C   0  0  0  0  0  0  0  0  0  0  0  0
    8.7366   31.4169    8.8106 C   0  0  0  0  0  0  0  0  0  0  0  0
    9.6357   31.9172    8.1459 O   0  0  0  0  0  0  0  0  0  0  0  0
    8.1310   32.0644    9.8075 N   0  0  0  0  0  0  0  0  0  0  0  0
    7.4124   31.6237   10.3160 H   0  0  0  0  0  0  0  0  0  0  0  0
    8.4028   32.9830   10.0348 H   0  0  0  0  0  0  0  0  0  0  0  0
    8.9711   29.0432    9.4432 C   0  0  0  0  0  0  0  0  0  0  0  0
    8.0475   28.2900   10.3751 C   0  0  0  0  0  0  0  0  0  0  0  0
    8.9036   27.6477   11.4366 C   0  0  0  0  0  0  0  0  0  0  0  0
    9.9454   28.1775   11.7799 O   0  0  0  0  0  0  0  0  0  0  0  0
    8.5341   26.4822   11.9707 O   0  0  0  0  0  0  0  0  0  0  0  0
    7.7320   26.0779   11.7039 H   0  0  0  0  0  0  0  0  0  0  0  0
    7.8658   29.9165    4.0233 C   0  0  0  0  0  0  0  0  0  0  0  0
    9.0702   30.4532    3.2638 C   0  0  0  0  0  0  0  0  0  0  0  0
    9.6834   31.6717    3.9148 C   0  0  0  0  0  0  0  0  0  0  0  0
   10.4248   32.4075    3.2825 O   0  0  0  0  0  0  0  0  0  0  0  0
    9.3375   31.8469    5.1873 O   0  0  0  0  0  0  0  0  0  0  0  0
    8.7619   31.2365    5.6046 H   0  0  0  0  0  0  0  0  0  0  0  0
    8.7955   25.1433    2.2162 C   0  0  0  0  0  0  0  0  0  0  0  0
    8.3994   26.2274    0.8274 P   0  0  0  0  0  0  0  0  0  0  0  0
    6.9117   26.1427    0.4865 O   0  0  0  0  0  0  0  0  0  0  0  0
    8.8346   27.6201    1.1778 O   0  0  0  0  0  0  0  0  0  0  0  0
    6.7171   26.7303   -0.2603 H   0  0  0  0  0  0  0  0  0  0  0  0
    9.3754   25.5826   -0.5242 C   0  0  0  0  0  0  0  0  0  0  0  0
   10.0738   26.4239   -1.3815 C   0  0  0  0  0  0  0  0  0  0  0  0
   10.8231   25.8760   -2.4197 C   0  0  0  0  0  0  0  0  0  0  0  0
   10.8618   24.4962   -2.5792 C   0  0  0  0  0  0  0  0  0  0  0  0
   11.8723   23.7263   -3.9761 Br  0  0  0  0  0  0  0  0  0  0  0  0
   10.1707   23.6560   -1.7239 C   0  0  0  0  0  0  0  0  0  0  0  0
    9.4207   24.2048   -0.6960 C   0  0  0  0  0  0  0  0  0  0  0  0
    8.2335   24.1731    4.3993 C   0  0  0  0  0  0  0  0  0  0  0  0
    5.9014   22.4077    6.5756 N   0  0  0  0  0  0  0  0  0  0  0  0
    7.1656   22.7601    6.0486 O   0  0  0  0  0  0  0  0  0  0  0  0
    5.6639   23.9377    4.9768 C   0  0  0  0  0  0  0  0  0  0  0  0
    5.0357   23.1301    5.9188 C   0  0  0  0  0  0  0  0  0  0  0  0
    6.9792   23.6951    5.0755 C   0  0  0  0  0  0  0  0  0  0  0  0
    3.5909   22.9795    6.2115 C   0  0  0  0  0  0  0  0  0  0  0  0
    3.2121   22.1521    7.2609 C   0  0  0  0  0  0  0  0  0  0  0  0
    1.8744   22.0033    7.5796 C   0  0  0  0  0  0  0  0  0  0  0  0
    0.9227   22.6891    6.8434 C   0  0  0  0  0  0  0  0  0  0  0  0
    1.2896   23.5407    5.8007 C   0  0  0  0  0  0  0  0  0  0  0  0
    2.6349   23.6914    5.4855 C   0  0  0  0  0  0  0  0  0  0  0  0
   -3.5292   24.7767    8.4000 Cl  0  0  0  0  0  0  0  0  0  0  0  0
   -2.5801   23.4101    7.9377 C   0  0  0  0  0  0  0  0  0  0  0  0
   -1.2561   23.6097    7.5832 C   0  0  0  0  0  0  0  0  0  0  0  0
   -3.1482   22.1449    7.9324 C   0  0  0  0  0  0  0  0  0  0  0  0
   -2.3762   21.0573    7.5684 C   0  0  0  0  0  0  0  0  0  0  0  0
   -1.0480   21.2521    7.2126 C   0  0  0  0  0  0  0  0  0  0  0  0
   -0.4957   22.5223    7.2090 C   0  0  0  0  0  0  0  0  0  0  0  0
 38 37  1  0  0  0
 37 36  2  0  0  0
 37 39  1  0  0  0
 36 35  1  0  0  0
 39 40  2  0  0  0
 35 34  2  0  0  0
 40 34  1  0  0  0
 34 30  1  0  0  0
 32 30  2  0  0  0
 30 31  1  0  0  0
 30 29  1  0  0  0
 26 25  2  0  0  0
 29  1  1  0  0  0
 25 27  1  0  0  0
 25 24  1  0  0  0
 24 23  1  0  0  0
  1 41  1  0  0  0
  1  3  1  0  0  0
 41 46  1  0  0  0
  4  3  1  0  0  0
  4  6  1  0  0  0
 23  6  1  0  0  0
  3  2  2  0  0  0
 46 44  2  0  0  0
 46 43  1  0  0  0
 44 45  1  0  0  0
  6  7  1  0  0  0
 48 49  2  0  0  0
 48 47  1  0  0  0
 43 42  1  0  0  0
 45 42  2  0  0  0
 45 47  1  0  0  0
 49 50  1  0  0  0
 47 52  2  0  0  0
  7  8  2  0  0  0
  7  9  1  0  0  0
 53 54  1  0  0  0
 55 54  2  0  0  0
 55 59  1  0  0  0
 50 59  1  0  0  0
 50 51  2  0  0  0
 52 51  1  0  0  0
  9 11  1  0  0  0
 54 56  1  0  0  0
 59 58  2  0  0  0
 14 12  1  0  0  0
 56 57  2  0  0  0
 58 57  1  0  0  0
 12 11  1  0  0  0
 12 13  2  0  0  0
 11 17  1  0  0  0
 17 18  1  0  0  0
 18 19  1  0  0  0
 19 20  2  0  0  0
 19 21  1  0  0  0
 31 33  1  0  0  0
  4  5  1  0  0  0
 27 28  1  0  0  0
  9 10  1  0  0  0
 21 22  1  0  0  0
 14 15  1  0  0  0
 14 16  1  0  0  0
M  END
> <minimizedAffinity>
-11.31939

$$$$
5CZM_R47_A_306


 59 62  0  0  0  0  0  0  0  0999 V2000
    9.4493   26.5686    2.9788 C   0  0  0  0  0  0  0  0  0  0  0  0
    7.6609   25.9149    1.5761 O   0  0  0  0  0  0  0  0  0  0  0  0
    8.8512   26.1201    1.6901 C   0  0  0  0  0  0  0  0  0  0  0  0
    9.7066   25.9910    0.6888 N   0  0  0  0  0  0  0  0  0  0  0  0
   10.6661   26.1531    0.8380 H   0  0  0  0  0  0  0  0  0  0  0  0
    9.2334   25.6114   -0.6264 C   0  0  0  0  0  0  0  0  0  0  0  0
    9.8475   24.3785   -1.2075 C   0  0  0  0  0  0  0  0  0  0  0  0
    9.9637   23.3470   -0.5802 O   0  0  0  0  0  0  0  0  0  0  0  0
   10.2970   24.5002   -2.4434 N   0  0  0  0  0  0  0  0  0  0  0  0
   10.1867   25.3594   -2.9111 H   0  0  0  0  0  0  0  0  0  0  0  0
   10.9441   23.4093   -3.1245 C   0  0  0  0  0  0  0  0  0  0  0  0
   12.1537   23.8780   -3.8913 C   0  0  0  0  0  0  0  0  0  0  0  0
   12.3761   25.0757   -4.0195 O   0  0  0  0  0  0  0  0  0  0  0  0
   12.9480   22.9380   -4.4065 N   0  0  0  0  0  0  0  0  0  0  0  0
   12.7311   21.9862   -4.2790 H   0  0  0  0  0  0  0  0  0  0  0  0
   13.7511   23.1962   -4.9141 H   0  0  0  0  0  0  0  0  0  0  0  0
    9.9156   22.8580   -4.0921 C   0  0  0  0  0  0  0  0  0  0  0  0
    9.1101   23.9153   -4.8145 C   0  0  0  0  0  0  0  0  0  0  0  0
    8.3477   23.2261   -5.9173 C   0  0  0  0  0  0  0  0  0  0  0  0
    7.6973   23.8842   -6.7096 O   0  0  0  0  0  0  0  0  0  0  0  0
    8.3597   21.8945   -5.9995 O   0  0  0  0  0  0  0  0  0  0  0  0
    8.8613   21.3919   -5.3882 H   0  0  0  0  0  0  0  0  0  0  0  0
    9.4795   26.7765   -1.5831 C   0  0  0  0  0  0  0  0  0  0  0  0
    9.2754   28.1294   -0.9172 C   0  0  0  0  0  0  0  0  0  0  0  0
    7.8627   28.6485   -1.0562 C   0  0  0  0  0  0  0  0  0  0  0  0
    7.5076   29.2193   -2.0756 O   0  0  0  0  0  0  0  0  0  0  0  0
    7.0875   28.4200    0.0004 O   0  0  0  0  0  0  0  0  0  0  0  0
    7.4341   27.9741    0.7480 H   0  0  0  0  0  0  0  0  0  0  0  0
    8.3529   27.3378    3.6761 C   0  0  0  0  0  0  0  0  0  0  0  0
    8.4777   29.1387    3.6274 P   0  0  0  0  0  0  0  0  0  0  0  0
    9.9266   29.5713    3.4030 O   0  0  0  0  0  0  0  0  0  0  0  0
    7.5504   29.6466    2.5626 O   0  0  0  0  0  0  0  0  0  0  0  0
    9.9749   30.5398    3.3796 H   0  0  0  0  0  0  0  0  0  0  0  0
    7.9262   29.6601    5.2458 C   0  0  0  0  0  0  0  0  0  0  0  0
    7.7273   28.7471    6.2740 C   0  0  0  0  0  0  0  0  0  0  0  0
    7.2990   29.2000    7.5195 C   0  0  0  0  0  0  0  0  0  0  0  0
    7.0803   30.5584    7.7136 C   0  0  0  0  0  0  0  0  0  0  0  0
    6.5027   31.2002    9.3928 Br  0  0  0  0  0  0  0  0  0  0  0  0
    7.2820   31.4701    6.6923 C   0  0  0  0  0  0  0  0  0  0  0  0
    7.7017   31.0153    5.4523 C   0  0  0  0  0  0  0  0  0  0  0  0
    9.7940   25.3569    3.8258 C   0  0  0  0  0  0  0  0  0  0  0  0
    7.4472   22.6235    4.3849 N   0  0  0  0  0  0  0  0  0  0  0  0
    8.6438   23.2305    3.9380 O   0  0  0  0  0  0  0  0  0  0  0  0
    7.4263   24.7974    4.8616 C   0  0  0  0  0  0  0  0  0  0  0  0
    6.7522   23.5830    4.9318 C   0  0  0  0  0  0  0  0  0  0  0  0
    8.5933   24.5566    4.2462 C   0  0  0  0  0  0  0  0  0  0  0  0
    5.4095   23.2857    5.4837 C   0  0  0  0  0  0  0  0  0  0  0  0
    4.3091   23.9205    4.9222 C   0  0  0  0  0  0  0  0  0  0  0  0
    3.0370   23.6524    5.3947 C   0  0  0  0  0  0  0  0  0  0  0  0
    2.8762   22.7448    6.4284 C   0  0  0  0  0  0  0  0  0  0  0  0
    3.9700   22.0831    6.9875 C   0  0  0  0  0  0  0  0  0  0  0  0
    5.2466   22.3516    6.5077 C   0  0  0  0  0  0  0  0  0  0  0  0
   -2.1097   24.0527    6.6045 Cl  0  0  0  0  0  0  0  0  0  0  0  0
   -0.8025   23.0143    7.0462 C   0  0  0  0  0  0  0  0  0  0  0  0
    0.4638   23.2968    6.5612 C   0  0  0  0  0  0  0  0  0  0  0  0
   -1.0344   21.9268    7.8751 C   0  0  0  0  0  0  0  0  0  0  0  0
    0.0214   21.1074    8.2286 C   0  0  0  0  0  0  0  0  0  0  0  0
    1.2932   21.3867    7.7454 C   0  0  0  0  0  0  0  0  0  0  0  0
    1.5097   22.4680    6.9075 C   0  0  0  0  0  0  0  0  0  0  0  0
 38 37  1  0  0  0
 37 36  2  0  0  0
 37 39  1  0  0  0
 36 35  1  0  0  0
 39 40  2  0  0  0
 35 34  2  0  0  0
 40 34  1  0  0  0
 34 30  1  0  0  0
 32 30  2  0  0  0
 30 31  1  0  0  0
 30 29  1  0  0  0
 26 25  2  0  0  0
 29  1  1  0  0  0
 25 27  1  0  0  0
 25 24  1  0  0  0
 24 23  1  0  0  0
  1 41  1  0  0  0
  1  3  1  0  0  0
 41 46  1  0  0  0
  4  3  1  0  0  0
  4  6  1  0  0  0
 23  6  1  0  0  0
  3  2  2  0  0  0
 46 44  2  0  0  0
 46 43  1  0  0  0
 44 45  1  0  0  0
  6  7  1  0  0  0
 48 49  2  0  0  0
 48 47  1  0  0  0
 43 42  1  0  0  0
 45 42  2  0  0  0
 45 47  1  0  0  0
 49 50  1  0  0  0
 47 52  2  0  0  0
  7  8  2  0  0  0
  7  9  1  0  0  0
 53 54  1  0  0  0
 55 54  2  0  0  0
 55 59  1  0  0  0
 50 59  1  0  0  0
 50 51  2  0  0  0
 52 51  1  0  0  0
  9 11  1  0  0  0
 54 56  1  0  0  0
 59 58  2  0  0  0
 14 12  1  0  0  0
 56 57  2  0  0  0
 58 57  1  0  0  0
 12 11  1  0  0  0
 12 13  2  0  0  0
 11 17  1  0  0  0
 17 18  1  0  0  0
 18 19  1  0  0  0
 19 20  2  0  0  0
 19 21  1  0  0  0
 31 33  1  0  0  0
  4  5  1  0  0  0
 27 28  1  0  0  0
  9 10  1  0  0  0
 21 22  1  0  0  0
 14 15  1  0  0  0
 14 16  1  0  0  0
M  END
> <minimizedAffinity>
-11.08329

$$$$
5CZM_R47_A_306


 59 62  0  0  0  0  0  0  0  0999 V2000
    9.0054   26.3266    2.6821 C   0  0  0  0  0  0  0  0  0  0  0  0
   10.0978   28.4192    2.8271 O   0  0  0  0  0  0  0  0  0  0  0  0
    9.1845   27.7124    3.1990 C   0  0  0  0  0  0  0  0  0  0  0  0
    8.2660   28.1124    4.0635 N   0  0  0  0  0  0  0  0  0  0  0  0
    7.5543   27.4936    4.3460 H   0  0  0  0  0  0  0  0  0  0  0  0
    8.3061   29.4593    4.5946 C   0  0  0  0  0  0  0  0  0  0  0  0
    7.8234   29.6184    6.0005 C   0  0  0  0  0  0  0  0  0  0  0  0
    6.7082   29.2943    6.3503 O   0  0  0  0  0  0  0  0  0  0  0  0
    8.6826   30.1783    6.8326 N   0  0  0  0  0  0  0  0  0  0  0  0
    9.5747   30.4313    6.5019 H   0  0  0  0  0  0  0  0  0  0  0  0
    8.3489   30.4284    8.2105 C   0  0  0  0  0  0  0  0  0  0  0  0
    8.9364   31.7296    8.6928 C   0  0  0  0  0  0  0  0  0  0  0  0
   10.1317   31.8086    8.9488 O   0  0  0  0  0  0  0  0  0  0  0  0
    8.1022   32.7630    8.8190 N   0  0  0  0  0  0  0  0  0  0  0  0
    7.1480   32.6547    8.6019 H   0  0  0  0  0  0  0  0  0  0  0  0
    8.4407   33.6339    9.1292 H   0  0  0  0  0  0  0  0  0  0  0  0
    8.9512   29.2806    8.9966 C   0  0  0  0  0  0  0  0  0  0  0  0
    7.9430   28.4545    9.7644 C   0  0  0  0  0  0  0  0  0  0  0  0
    8.5788   28.0726   11.0767 C   0  0  0  0  0  0  0  0  0  0  0  0
    9.0074   28.9382   11.8190 O   0  0  0  0  0  0  0  0  0  0  0  0
    8.7016   26.7850   11.4039 O   0  0  0  0  0  0  0  0  0  0  0  0
    8.3706   26.1222   10.8303 H   0  0  0  0  0  0  0  0  0  0  0  0
    7.4716   30.3613    3.6872 C   0  0  0  0  0  0  0  0  0  0  0  0
    8.2978   31.4672    3.0469 C   0  0  0  0  0  0  0  0  0  0  0  0
    9.6094   31.7109    3.7575 C   0  0  0  0  0  0  0  0  0  0  0  0
    9.6448   32.3577    4.7925 O   0  0  0  0  0  0  0  0  0  0  0  0
   10.6660   31.1642    3.1623 O   0  0  0  0  0  0  0  0  0  0  0  0
   10.5576   30.6804    2.3672 H   0  0  0  0  0  0  0  0  0  0  0  0
    9.9906   26.1993    1.5449 C   0  0  0  0  0  0  0  0  0  0  0  0
    9.4389   25.2607    0.1042 P   0  0  0  0  0  0  0  0  0  0  0  0
    9.7245   23.7707    0.2916 O   0  0  0  0  0  0  0  0  0  0  0  0
    7.9826   25.5478   -0.1157 O   0  0  0  0  0  0  0  0  0  0  0  0
    9.4223   23.2827   -0.4903 H   0  0  0  0  0  0  0  0  0  0  0  0
   10.4200   25.9081   -1.2425 C   0  0  0  0  0  0  0  0  0  0  0  0
   10.7841   25.1138   -2.3228 C   0  0  0  0  0  0  0  0  0  0  0  0
   11.5475   25.6623   -3.3504 C   0  0  0  0  0  0  0  0  0  0  0  0
   11.9301   26.9962   -3.2792 C   0  0  0  0  0  0  0  0  0  0  0  0
   12.9624   27.7665   -4.6599 Br  0  0  0  0  0  0  0  0  0  0  0  0
   11.5649   27.7905   -2.2065 C   0  0  0  0  0  0  0  0  0  0  0  0
   10.8110   27.2397   -1.1824 C   0  0  0  0  0  0  0  0  0  0  0  0
    9.3912   25.3302    3.7605 C   0  0  0  0  0  0  0  0  0  0  0  0
    7.2263   22.5600    4.7252 N   0  0  0  0  0  0  0  0  0  0  0  0
    8.3969   23.1722    4.2200 O   0  0  0  0  0  0  0  0  0  0  0  0
    7.0197   24.7751    4.7899 C   0  0  0  0  0  0  0  0  0  0  0  0
    6.4343   23.5422    5.0578 C   0  0  0  0  0  0  0  0  0  0  0  0
    8.2322   24.5234    4.2752 C   0  0  0  0  0  0  0  0  0  0  0  0
    5.0900   23.2406    5.6030 C   0  0  0  0  0  0  0  0  0  0  0  0
    3.9877   23.8510    5.0184 C   0  0  0  0  0  0  0  0  0  0  0  0
    2.7144   23.5777    5.4843 C   0  0  0  0  0  0  0  0  0  0  0  0
    2.5540   22.6894    6.5348 C   0  0  0  0  0  0  0  0  0  0  0  0
    3.6499   22.0520    7.1175 C   0  0  0  0  0  0  0  0  0  0  0  0
    4.9280   22.3256    6.6443 C   0  0  0  0  0  0  0  0  0  0  0  0
   -2.3982   24.0907    6.8708 Cl  0  0  0  0  0  0  0  0  0  0  0  0
   -1.1112   22.9918    7.2145 C   0  0  0  0  0  0  0  0  0  0  0  0
    0.1565   23.2831    6.7385 C   0  0  0  0  0  0  0  0  0  0  0  0
   -1.3600   21.8479    7.9583 C   0  0  0  0  0  0  0  0  0  0  0  0
   -0.3201   20.9798    8.2342 C   0  0  0  0  0  0  0  0  0  0  0  0
    0.9529   21.2678    7.7596 C   0  0  0  0  0  0  0  0  0  0  0  0
    1.1862   22.4065    7.0065 C   0  0  0  0  0  0  0  0  0  0  0  0
 38 37  1  0  0  0
 37 36  2  0  0  0
 37 39  1  0  0  0
 36 35  1  0  0  0
 39 40  2  0  0  0
 35 34  2  0  0  0
 40 34  1  0  0  0
 34 30  1  0  0  0
 32 30  2  0  0  0
 30 31  1  0  0  0
 30 29  1  0  0  0
 26 25  2  0  0  0
 29  1  1  0  0  0
 25 27  1  0  0  0
 25 24  1  0  0  0
 24 23  1  0  0  0
  1 41  1  0  0  0
  1  3  1  0  0  0
 41 46  1  0  0  0
  4  3  1  0  0  0
  4  6  1  0  0  0
 23  6  1  0  0  0
  3  2  2  0  0  0
 46 44  2  0  0  0
 46 43  1  0  0  0
 44 45  1  0  0  0
  6  7  1  0  0  0
 48 49  2  0  0  0
 48 47  1  0  0  0
 43 42  1  0  0  0
 45 42  2  0  0  0
 45 47  1  0  0  0
 49 50  1  0  0  0
 47 52  2  0  0  0
  7  8  2  0  0  0
  7  9  1  0  0  0
 53 54  1  0  0  0
 55 54  2  0  0  0
 55 59  1  0  0  0
 50 59  1  0  0  0
 50 51  2  0  0  0
 52 51  1  0  0  0
  9 11  1  0  0  0
 54 56  1  0  0  0
 59 58  2  0  0  0
 14 12  1  0  0  0
 56 57  2  0  0  0
 58 57  1  0  0  0
 12 11  1  0  0  0
 12 13  2  0  0  0
 11 17  1  0  0  0
 17 18  1  0  0  0
 18 19  1  0  0  0
 19 20  2  0  0  0
 19 21  1  0  0  0
 31 33  1  0  0  0
  4  5  1  0  0  0
 27 28  1  0  0  0
  9 10  1  0  0  0
 21 22  1  0  0  0
 14 15  1  0  0  0
 14 16  1  0  0  0
M  END
> <minimizedAffinity>
-11.05886

$$$$
5CZM_R47_A_306


 59 62  0  0  0  0  0  0  0  0999 V2000
    8.3575   25.4601    3.2159 C   0  0  0  0  0  0  0  0  0  0  0  0
    9.7150   26.9201    4.4882 O   0  0  0  0  0  0  0  0  0  0  0  0
    8.7096   26.7733    3.8251 C   0  0  0  0  0  0  0  0  0  0  0  0
    7.8636   27.7573    3.5666 N   0  0  0  0  0  0  0  0  0  0  0  0
    7.0525   27.5817    3.0369 H   0  0  0  0  0  0  0  0  0  0  0  0
    8.1290   29.0923    4.0616 C   0  0  0  0  0  0  0  0  0  0  0  0
    7.7428   29.3473    5.4831 C   0  0  0  0  0  0  0  0  0  0  0  0
    6.7186   28.9176    5.9703 O   0  0  0  0  0  0  0  0  0  0  0  0
    8.5753   30.1121    6.1659 N   0  0  0  0  0  0  0  0  0  0  0  0
    9.3915   30.4437    5.7265 H   0  0  0  0  0  0  0  0  0  0  0  0
    8.3205   30.4736    7.5359 C   0  0  0  0  0  0  0  0  0  0  0  0
    9.0372   31.7444    7.9133 C   0  0  0  0  0  0  0  0  0  0  0  0
    9.3117   32.5749    7.0559 O   0  0  0  0  0  0  0  0  0  0  0  0
    9.3448   31.9088    9.2010 N   0  0  0  0  0  0  0  0  0  0  0  0
    9.1050   31.2149    9.8569 H   0  0  0  0  0  0  0  0  0  0  0  0
    9.8118   32.7240    9.4954 H   0  0  0  0  0  0  0  0  0  0  0  0
    8.8531   29.3266    8.3719 C   0  0  0  0  0  0  0  0  0  0  0  0
    7.8312   28.7028    9.2968 C   0  0  0  0  0  0  0  0  0  0  0  0
    8.4715   28.5748   10.6554 C   0  0  0  0  0  0  0  0  0  0  0  0
    8.5451   27.4837   11.1921 O   0  0  0  0  0  0  0  0  0  0  0  0
    8.9234   29.6634   11.2805 O   0  0  0  0  0  0  0  0  0  0  0  0
    8.8649   30.5009   10.8643 H   0  0  0  0  0  0  0  0  0  0  0  0
    7.3958   30.0927    3.1699 C   0  0  0  0  0  0  0  0  0  0  0  0
    8.2383   30.5432    1.9856 C   0  0  0  0  0  0  0  0  0  0  0  0
    7.6584   30.1224    0.6547 C   0  0  0  0  0  0  0  0  0  0  0  0
    8.0092   30.6717   -0.3779 O   0  0  0  0  0  0  0  0  0  0  0  0
    6.7727   29.1328    0.7301 O   0  0  0  0  0  0  0  0  0  0  0  0
    6.5548   28.7615    1.5624 H   0  0  0  0  0  0  0  0  0  0  0  0
    9.3156   25.2912    2.0612 C   0  0  0  0  0  0  0  0  0  0  0  0
    8.6758   25.6899    0.4203 P   0  0  0  0  0  0  0  0  0  0  0  0
    8.5168   24.4213   -0.4176 O   0  0  0  0  0  0  0  0  0  0  0  0
    7.3864   26.4392    0.5867 O   0  0  0  0  0  0  0  0  0  0  0  0
    8.1727   24.6539   -1.2942 H   0  0  0  0  0  0  0  0  0  0  0  0
    9.9301   26.7436   -0.2951 C   0  0  0  0  0  0  0  0  0  0  0  0
   10.2617   27.9669    0.2741 C   0  0  0  0  0  0  0  0  0  0  0  0
   11.2474   28.7533   -0.3172 C   0  0  0  0  0  0  0  0  0  0  0  0
   11.8848   28.2998   -1.4656 C   0  0  0  0  0  0  0  0  0  0  0  0
   13.2270   29.3441   -2.2861 Br  0  0  0  0  0  0  0  0  0  0  0  0
   11.5593   27.0798   -2.0318 C   0  0  0  0  0  0  0  0  0  0  0  0
   10.5733   26.3028   -1.4447 C   0  0  0  0  0  0  0  0  0  0  0  0
    8.6192   24.3505    4.2184 C   0  0  0  0  0  0  0  0  0  0  0  0
    6.3425   22.6398    6.4946 N   0  0  0  0  0  0  0  0  0  0  0  0
    7.5956   23.0043    5.9495 O   0  0  0  0  0  0  0  0  0  0  0  0
    6.0572   24.0589    4.8040 C   0  0  0  0  0  0  0  0  0  0  0  0
    5.4543   23.2888    5.7928 C   0  0  0  0  0  0  0  0  0  0  0  0
    7.3799   23.8704    4.9201 C   0  0  0  0  0  0  0  0  0  0  0  0
    4.0147   23.1047    6.0912 C   0  0  0  0  0  0  0  0  0  0  0  0
    3.6608   22.3128    7.1761 C   0  0  0  0  0  0  0  0  0  0  0  0
    2.3280   22.1350    7.5005 C   0  0  0  0  0  0  0  0  0  0  0  0
    1.3560   22.7565    6.7342 C   0  0  0  0  0  0  0  0  0  0  0  0
    1.6971   23.5725    5.6549 C   0  0  0  0  0  0  0  0  0  0  0  0
    3.0375   23.7525    5.3340 C   0  0  0  0  0  0  0  0  0  0  0  0
   -3.1497   24.7602    8.2458 Cl  0  0  0  0  0  0  0  0  0  0  0  0
   -2.1641   23.4088    7.8160 C   0  0  0  0  0  0  0  0  0  0  0  0
   -0.8463   23.6355    7.4545 C   0  0  0  0  0  0  0  0  0  0  0  0
   -2.6974   22.1289    7.8432 C   0  0  0  0  0  0  0  0  0  0  0  0
   -1.8965   21.0540    7.5051 C   0  0  0  0  0  0  0  0  0  0  0  0
   -0.5743   21.2760    7.1424 C   0  0  0  0  0  0  0  0  0  0  0  0
   -0.0570   22.5602    7.1063 C   0  0  0  0  0  0  0  0  0  0  0  0
 38 37  1  0  0  0
 37 36  2  0  0  0
 37 39  1  0  0  0
 36 35  1  0  0  0
 39 40  2  0  0  0
 35 34  2  0  0  0
 40 34  1  0  0  0
 34 30  1  0  0  0
 32 30  2  0  0  0
 30 31  1  0  0  0
 30 29  1  0  0  0
 26 25  2  0  0  0
 29  1  1  0  0  0
 25 27  1  0  0  0
 25 24  1  0  0  0
 24 23  1  0  0  0
  1 41  1  0  0  0
  1  3  1  0  0  0
 41 46  1  0  0  0
  4  3  1  0  0  0
  4  6  1  0  0  0
 23  6  1  0  0  0
  3  2  2  0  0  0
 46 44  2  0  0  0
 46 43  1  0  0  0
 44 45  1  0  0  0
  6  7  1  0  0  0
 48 49  2  0  0  0
 48 47  1  0  0  0
 43 42  1  0  0  0
 45 42  2  0  0  0
 45 47  1  0  0  0
 49 50  1  0  0  0
 47 52  2  0  0  0
  7  8  2  0  0  0
  7  9  1  0  0  0
 53 54  1  0  0  0
 55 54  2  0  0  0
 55 59  1  0  0  0
 50 59  1  0  0  0
 50 51  2  0  0  0
 52 51  1  0  0  0
  9 11  1  0  0  0
 54 56  1  0  0  0
 59 58  2  0  0  0
 14 12  1  0  0  0
 56 57  2  0  0  0
 58 57  1  0  0  0
 12 11  1  0  0  0
 12 13  2  0  0  0
 11 17  1  0  0  0
 17 18  1  0  0  0
 18 19  1  0  0  0
 19 20  2  0  0  0
 19 21  1  0  0  0
 31 33  1  0  0  0
  4  5  1  0  0  0
 27 28  1  0  0  0
  9 10  1  0  0  0
 21 22  1  0  0  0
 14 15  1  0  0  0
 14 16  1  0  0  0
M  END
> <minimizedAffinity>
-10.90248

$$$$
5CZM_R47_A_306


 59 62  0  0  0  0  0  0  0  0999 V2000
    9.0469   26.3970    2.7728 C   0  0  0  0  0  0  0  0  0  0  0  0
    9.5899   27.7596    4.6280 O   0  0  0  0  0  0  0  0  0  0  0  0
    9.4229   27.6807    3.4288 C   0  0  0  0  0  0  0  0  0  0  0  0
    9.5828   28.7055    2.6073 N   0  0  0  0  0  0  0  0  0  0  0  0
    9.4182   28.5930    1.6432 H   0  0  0  0  0  0  0  0  0  0  0  0
    9.9997   29.9927    3.1242 C   0  0  0  0  0  0  0  0  0  0  0  0
    8.8994   30.9027    3.5671 C   0  0  0  0  0  0  0  0  0  0  0  0
    8.2624   31.5848    2.7924 O   0  0  0  0  0  0  0  0  0  0  0  0
    8.6939   30.9473    4.8709 N   0  0  0  0  0  0  0  0  0  0  0  0
    9.2403   30.3805    5.4620 H   0  0  0  0  0  0  0  0  0  0  0  0
    7.6917   31.8031    5.4504 C   0  0  0  0  0  0  0  0  0  0  0  0
    8.3069   33.0306    6.0714 C   0  0  0  0  0  0  0  0  0  0  0  0
    8.5209   34.0250    5.3890 O   0  0  0  0  0  0  0  0  0  0  0  0
    8.5950   32.9736    7.3728 N   0  0  0  0  0  0  0  0  0  0  0  0
    8.4060   32.1533    7.8833 H   0  0  0  0  0  0  0  0  0  0  0  0
    8.9966   33.7519    7.8226 H   0  0  0  0  0  0  0  0  0  0  0  0
    7.0159   30.9776    6.5274 C   0  0  0  0  0  0  0  0  0  0  0  0
    7.4995   29.5466    6.6110 C   0  0  0  0  0  0  0  0  0  0  0  0
    8.2930   29.4126    7.8857 C   0  0  0  0  0  0  0  0  0  0  0  0
    7.9056   28.6664    8.7671 O   0  0  0  0  0  0  0  0  0  0  0  0
    9.3985   30.1395    8.0578 O   0  0  0  0  0  0  0  0  0  0  0  0
    9.6932   30.7124    7.3774 H   0  0  0  0  0  0  0  0  0  0  0  0
   10.8174   30.7037    2.0476 C   0  0  0  0  0  0  0  0  0  0  0  0
   10.9466   29.8791    0.7753 C   0  0  0  0  0  0  0  0  0  0  0  0
    9.8273   30.1323   -0.2084 C   0  0  0  0  0  0  0  0  0  0  0  0
    8.9645   29.2895   -0.3988 O   0  0  0  0  0  0  0  0  0  0  0  0
    9.8814   31.3184   -0.8082 O   0  0  0  0  0  0  0  0  0  0  0  0
   10.5775   31.9130   -0.6084 H   0  0  0  0  0  0  0  0  0  0  0  0
    9.8704   26.3440    1.5083 C   0  0  0  0  0  0  0  0  0  0  0  0
    9.2612   25.2630    0.1964 P   0  0  0  0  0  0  0  0  0  0  0  0
    9.5678   23.8006    0.5190 O   0  0  0  0  0  0  0  0  0  0  0  0
    7.7940   25.5209    0.0167 O   0  0  0  0  0  0  0  0  0  0  0  0
    9.2341   23.2351   -0.1950 H   0  0  0  0  0  0  0  0  0  0  0  0
   10.1740   25.7752   -1.2527 C   0  0  0  0  0  0  0  0  0  0  0  0
   11.2270   26.6774   -1.1661 C   0  0  0  0  0  0  0  0  0  0  0  0
   11.9109   27.0457   -2.3221 C   0  0  0  0  0  0  0  0  0  0  0  0
   11.5301   26.5022   -3.5429 C   0  0  0  0  0  0  0  0  0  0  0  0
   12.4421   26.9814   -5.1253 Br  0  0  0  0  0  0  0  0  0  0  0  0
   10.4846   25.6000   -3.6310 C   0  0  0  0  0  0  0  0  0  0  0  0
    9.8018   25.2409   -2.4798 C   0  0  0  0  0  0  0  0  0  0  0  0
    9.4594   25.2356    3.6591 C   0  0  0  0  0  0  0  0  0  0  0  0
    7.2813   22.5014    4.6939 N   0  0  0  0  0  0  0  0  0  0  0  0
    8.4535   23.0947    4.1703 O   0  0  0  0  0  0  0  0  0  0  0  0
    7.0891   24.7186    4.7108 C   0  0  0  0  0  0  0  0  0  0  0  0
    6.4971   23.4958    5.0083 C   0  0  0  0  0  0  0  0  0  0  0  0
    8.2977   24.4479    4.1965 C   0  0  0  0  0  0  0  0  0  0  0  0
    5.1533   23.2149    5.5658 C   0  0  0  0  0  0  0  0  0  0  0  0
    4.0568   23.8531    5.0004 C   0  0  0  0  0  0  0  0  0  0  0  0
    2.7836   23.6000    5.4782 C   0  0  0  0  0  0  0  0  0  0  0  0
    2.6177   22.7040    6.5211 C   0  0  0  0  0  0  0  0  0  0  0  0
    3.7073   22.0388    7.0844 C   0  0  0  0  0  0  0  0  0  0  0  0
    4.9850   22.2922    6.5993 C   0  0  0  0  0  0  0  0  0  0  0  0
   -2.3481   24.0813    6.7348 Cl  0  0  0  0  0  0  0  0  0  0  0  0
   -1.0534   23.0211    7.1614 C   0  0  0  0  0  0  0  0  0  0  0  0
    0.2141   23.2892    6.6715 C   0  0  0  0  0  0  0  0  0  0  0  0
   -1.2962   21.9307    7.9834 C   0  0  0  0  0  0  0  0  0  0  0  0
   -0.2503   21.0937    8.3248 C   0  0  0  0  0  0  0  0  0  0  0  0
    1.0227   21.3585    7.8367 C   0  0  0  0  0  0  0  0  0  0  0  0
    1.2500   22.4430    7.0057 C   0  0  0  0  0  0  0  0  0  0  0  0
 38 37  1  0  0  0
 37 36  2  0  0  0
 37 39  1  0  0  0
 36 35  1  0  0  0
 39 40  2  0  0  0
 35 34  2  0  0  0
 40 34  1  0  0  0
 34 30  1  0  0  0
 32 30  2  0  0  0
 30 31  1  0  0  0
 30 29  1  0  0  0
 26 25  2  0  0  0
 29  1  1  0  0  0
 25 27  1  0  0  0
 25 24  1  0  0  0
 24 23  1  0  0  0
  1 41  1  0  0  0
  1  3  1  0  0  0
 41 46  1  0  0  0
  4  3  1  0  0  0
  4  6  1  0  0  0
 23  6  1  0  0  0
  3  2  2  0  0  0
 46 44  2  0  0  0
 46 43  1  0  0  0
 44 45  1  0  0  0
  6  7  1  0  0  0
 48 49  2  0  0  0
 48 47  1  0  0  0
 43 42  1  0  0  0
 45 42  2  0  0  0
 45 47  1  0  0  0
 49 50  1  0  0  0
 47 52  2  0  0  0
  7  8  2  0  0  0
  7  9  1  0  0  0
 53 54  1  0  0  0
 55 54  2  0  0  0
 55 59  1  0  0  0
 50 59  1  0  0  0
 50 51  2  0  0  0
 52 51  1  0  0  0
  9 11  1  0  0  0
 54 56  1  0  0  0
 59 58  2  0  0  0
 14 12  1  0  0  0
 56 57  2  0  0  0
 58 57  1  0  0  0
 12 11  1  0  0  0
 12 13  2  0  0  0
 11 17  1  0  0  0
 17 18  1  0  0  0
 18 19  1  0  0  0
 19 20  2  0  0  0
 19 21  1  0  0  0
 31 33  1  0  0  0
  4  5  1  0  0  0
 27 28  1  0  0  0
  9 10  1  0  0  0
 21 22  1  0  0  0
 14 15  1  0  0  0
 14 16  1  0  0  0
M  END
> <minimizedAffinity>
-10.89038

$$$$
5CZM_R47_A_306


 59 62  0  0  0  0  0  0  0  0999 V2000
    9.1741   25.7928    2.2208 C   0  0  0  0  0  0  0  0  0  0  0  0
    7.5202   25.5324    0.5504 O   0  0  0  0  0  0  0  0  0  0  0  0
    8.6999   25.5259    0.8339 C   0  0  0  0  0  0  0  0  0  0  0  0
    9.6562   25.3103   -0.0549 N   0  0  0  0  0  0  0  0  0  0  0  0
   10.5985   25.2986    0.2301 H   0  0  0  0  0  0  0  0  0  0  0  0
    9.3188   25.0915   -1.4463 C   0  0  0  0  0  0  0  0  0  0  0  0
   10.0461   23.9749   -2.1239 C   0  0  0  0  0  0  0  0  0  0  0  0
   10.3024   22.9280   -1.5677 O   0  0  0  0  0  0  0  0  0  0  0  0
   10.4313   24.2216   -3.3628 N   0  0  0  0  0  0  0  0  0  0  0  0
   10.2064   25.0888   -3.7710 H   0  0  0  0  0  0  0  0  0  0  0  0
   11.1714   23.2557   -4.1321 C   0  0  0  0  0  0  0  0  0  0  0  0
   12.5975   23.6946   -4.3431 C   0  0  0  0  0  0  0  0  0  0  0  0
   12.9459   24.8272   -4.0330 O   0  0  0  0  0  0  0  0  0  0  0  0
   13.4362   22.8013   -4.8707 N   0  0  0  0  0  0  0  0  0  0  0  0
   13.1131   21.9014   -5.1053 H   0  0  0  0  0  0  0  0  0  0  0  0
   14.3782   23.0420   -5.0256 H   0  0  0  0  0  0  0  0  0  0  0  0
   10.4672   23.1669   -5.4716 C   0  0  0  0  0  0  0  0  0  0  0  0
    9.3662   22.1311   -5.5293 C   0  0  0  0  0  0  0  0  0  0  0  0
    9.7727   21.0972   -6.5481 C   0  0  0  0  0  0  0  0  0  0  0  0
    9.3180   19.9689   -6.4837 O   0  0  0  0  0  0  0  0  0  0  0  0
   10.6571   21.4125   -7.4960 O   0  0  0  0  0  0  0  0  0  0  0  0
   11.0045   22.2815   -7.5422 H   0  0  0  0  0  0  0  0  0  0  0  0
    9.5829   26.3841   -2.2163 C   0  0  0  0  0  0  0  0  0  0  0  0
   10.2651   27.4419   -1.3613 C   0  0  0  0  0  0  0  0  0  0  0  0
   11.7373   27.5905   -1.6695 C   0  0  0  0  0  0  0  0  0  0  0  0
   12.2690   28.6896   -1.6482 O   0  0  0  0  0  0  0  0  0  0  0  0
   12.3583   26.4473   -1.9465 O   0  0  0  0  0  0  0  0  0  0  0  0
   11.8800   25.6415   -1.9429 H   0  0  0  0  0  0  0  0  0  0  0  0
    8.0258   26.4986    2.9014 C   0  0  0  0  0  0  0  0  0  0  0  0
    8.4204   28.0433    3.7495 P   0  0  0  0  0  0  0  0  0  0  0  0
    7.1812   28.6065    4.4451 O   0  0  0  0  0  0  0  0  0  0  0  0
    9.5506   27.7826    4.7016 O   0  0  0  0  0  0  0  0  0  0  0  0
    7.4111   29.4347    4.8947 H   0  0  0  0  0  0  0  0  0  0  0  0
    8.9402   29.1423    2.4391 C   0  0  0  0  0  0  0  0  0  0  0  0
    8.0180   29.8248    1.6553 C   0  0  0  0  0  0  0  0  0  0  0  0
    8.4697   30.6725    0.6469 C   0  0  0  0  0  0  0  0  0  0  0  0
    9.8359   30.8237    0.4432 C   0  0  0  0  0  0  0  0  0  0  0  0
   10.4759   31.9690   -0.9146 Br  0  0  0  0  0  0  0  0  0  0  0  0
   10.7563   30.1485    1.2255 C   0  0  0  0  0  0  0  0  0  0  0  0
   10.3034   29.3005    2.2235 C   0  0  0  0  0  0  0  0  0  0  0  0
    9.4147   24.4755    2.9359 C   0  0  0  0  0  0  0  0  0  0  0  0
    7.6142   23.4742    5.9436 N   0  0  0  0  0  0  0  0  0  0  0  0
    8.7462   23.8045    5.1629 O   0  0  0  0  0  0  0  0  0  0  0  0
    6.9899   23.9850    3.8694 C   0  0  0  0  0  0  0  0  0  0  0  0
    6.5905   23.5973    5.1439 C   0  0  0  0  0  0  0  0  0  0  0  0
    8.3247   24.1096    3.9038 C   0  0  0  0  0  0  0  0  0  0  0  0
    5.2315   23.2909    5.6487 C   0  0  0  0  0  0  0  0  0  0  0  0
    4.1461   23.9084    5.0405 C   0  0  0  0  0  0  0  0  0  0  0  0
    2.8602   23.6311    5.4683 C   0  0  0  0  0  0  0  0  0  0  0  0
    2.6706   22.7319    6.5044 C   0  0  0  0  0  0  0  0  0  0  0  0
    3.7498   22.0874    7.1102 C   0  0  0  0  0  0  0  0  0  0  0  0
    5.0405   22.3650    6.6753 C   0  0  0  0  0  0  0  0  0  0  0  0
   -2.2998   24.0999    6.6598 Cl  0  0  0  0  0  0  0  0  0  0  0  0
   -1.0169   23.0155    7.0603 C   0  0  0  0  0  0  0  0  0  0  0  0
    0.2635   23.3100    6.6218 C   0  0  0  0  0  0  0  0  0  0  0  0
   -1.2817   21.8800    7.8114 C   0  0  0  0  0  0  0  0  0  0  0  0
   -0.2452   21.0237    8.1329 C   0  0  0  0  0  0  0  0  0  0  0  0
    1.0406   21.3148    7.6960 C   0  0  0  0  0  0  0  0  0  0  0  0
    1.2902   22.4449    6.9353 C   0  0  0  0  0  0  0  0  0  0  0  0
 38 37  1  0  0  0
 37 36  2  0  0  0
 37 39  1  0  0  0
 36 35  1  0  0  0
 39 40  2  0  0  0
 35 34  2  0  0  0
 40 34  1  0  0  0
 34 30  1  0  0  0
 32 30  2  0  0  0
 30 31  1  0  0  0
 30 29  1  0  0  0
 26 25  2  0  0  0
 29  1  1  0  0  0
 25 27  1  0  0  0
 25 24  1  0  0  0
 24 23  1  0  0  0
  1 41  1  0  0  0
  1  3  1  0  0  0
 41 46  1  0  0  0
  4  3  1  0  0  0
  4  6  1  0  0  0
 23  6  1  0  0  0
  3  2  2  0  0  0
 46 44  2  0  0  0
 46 43  1  0  0  0
 44 45  1  0  0  0
  6  7  1  0  0  0
 48 49  2  0  0  0
 48 47  1  0  0  0
 43 42  1  0  0  0
 45 42  2  0  0  0
 45 47  1  0  0  0
 49 50  1  0  0  0
 47 52  2  0  0  0
  7  8  2  0  0  0
  7  9  1  0  0  0
 53 54  1  0  0  0
 55 54  2  0  0  0
 55 59  1  0  0  0
 50 59  1  0  0  0
 50 51  2  0  0  0
 52 51  1  0  0  0
  9 11  1  0  0  0
 54 56  1  0  0  0
 59 58  2  0  0  0
 14 12  1  0  0  0
 56 57  2  0  0  0
 58 57  1  0  0  0
 12 11  1  0  0  0
 12 13  2  0  0  0
 11 17  1  0  0  0
 17 18  1  0  0  0
 18 19  1  0  0  0
 19 20  2  0  0  0
 19 21  1  0  0  0
 31 33  1  0  0  0
  4  5  1  0  0  0
 27 28  1  0  0  0
  9 10  1  0  0  0
 21 22  1  0  0  0
 14 15  1  0  0  0
 14 16  1  0  0  0
M  END
> <minimizedAffinity>
-10.64114

$$$$
5CZM_R47_A_306


 59 62  0  0  0  0  0  0  0  0999 V2000
    9.6274   27.3207    3.3580 C   0  0  0  0  0  0  0  0  0  0  0  0
    8.1052   27.0490    1.5685 O   0  0  0  0  0  0  0  0  0  0  0  0
    9.1443   27.5339    1.9648 C   0  0  0  0  0  0  0  0  0  0  0  0
    9.9154   28.3043    1.2147 N   0  0  0  0  0  0  0  0  0  0  0  0
   10.7583   28.6596    1.5790 H   0  0  0  0  0  0  0  0  0  0  0  0
    9.5214   28.6259   -0.1414 C   0  0  0  0  0  0  0  0  0  0  0  0
    9.4007   27.4652   -1.0759 C   0  0  0  0  0  0  0  0  0  0  0  0
    8.5690   27.4182   -1.9573 O   0  0  0  0  0  0  0  0  0  0  0  0
   10.2375   26.4688   -0.8496 N   0  0  0  0  0  0  0  0  0  0  0  0
   10.8915   26.5487   -0.1180 H   0  0  0  0  0  0  0  0  0  0  0  0
   10.2185   25.2689   -1.6449 C   0  0  0  0  0  0  0  0  0  0  0  0
    9.9991   24.0458   -0.7923 C   0  0  0  0  0  0  0  0  0  0  0  0
   10.2414   22.9315   -1.2394 O   0  0  0  0  0  0  0  0  0  0  0  0
    9.5403   24.2422    0.4450 N   0  0  0  0  0  0  0  0  0  0  0  0
    9.3589   25.1559    0.7635 H   0  0  0  0  0  0  0  0  0  0  0  0
    9.3831   23.4734    1.0395 H   0  0  0  0  0  0  0  0  0  0  0  0
   11.5818   25.1874   -2.3028 C   0  0  0  0  0  0  0  0  0  0  0  0
   11.5511   25.2756   -3.8127 C   0  0  0  0  0  0  0  0  0  0  0  0
   11.9974   23.9403   -4.3515 C   0  0  0  0  0  0  0  0  0  0  0  0
   12.4195   23.8551   -5.4910 O   0  0  0  0  0  0  0  0  0  0  0  0
   11.8947   22.8501   -3.5893 O   0  0  0  0  0  0  0  0  0  0  0  0
   11.5695   22.9198   -2.7133 H   0  0  0  0  0  0  0  0  0  0  0  0
   10.5347   29.6129   -0.7177 C   0  0  0  0  0  0  0  0  0  0  0  0
   11.7832   29.7348    0.1436 C   0  0  0  0  0  0  0  0  0  0  0  0
   13.0297   30.0230   -0.6613 C   0  0  0  0  0  0  0  0  0  0  0  0
   13.0439   29.8473   -1.8695 O   0  0  0  0  0  0  0  0  0  0  0  0
   14.0552   30.4724    0.0569 O   0  0  0  0  0  0  0  0  0  0  0  0
   13.9664   30.5811    0.9834 H   0  0  0  0  0  0  0  0  0  0  0  0
    8.4468   27.6501    4.2398 C   0  0  0  0  0  0  0  0  0  0  0  0
    8.0925   29.4034    4.4877 P   0  0  0  0  0  0  0  0  0  0  0  0
    9.3608   30.2383    4.3115 O   0  0  0  0  0  0  0  0  0  0  0  0
    7.0005   29.8021    3.5389 O   0  0  0  0  0  0  0  0  0  0  0  0
    9.1523   31.1758    4.4480 H   0  0  0  0  0  0  0  0  0  0  0  0
    7.5249   29.5007    6.1799 C   0  0  0  0  0  0  0  0  0  0  0  0
    6.4323   30.2818    6.5354 C   0  0  0  0  0  0  0  0  0  0  0  0
    6.0246   30.3251    7.8664 C   0  0  0  0  0  0  0  0  0  0  0  0
    6.7163   29.5838    8.8166 C   0  0  0  0  0  0  0  0  0  0  0  0
    6.1833   29.6214   10.6276 Br  0  0  0  0  0  0  0  0  0  0  0  0
    7.8021   28.8016    8.4642 C   0  0  0  0  0  0  0  0  0  0  0  0
    8.2093   28.7662    7.1400 C   0  0  0  0  0  0  0  0  0  0  0  0
    9.9751   25.8561    3.5547 C   0  0  0  0  0  0  0  0  0  0  0  0
    7.7260   23.0271    4.0339 N   0  0  0  0  0  0  0  0  0  0  0  0
    8.9085   23.6848    3.6223 O   0  0  0  0  0  0  0  0  0  0  0  0
    7.6059   25.1946    4.5248 C   0  0  0  0  0  0  0  0  0  0  0  0
    6.9794   23.9537    4.5692 C   0  0  0  0  0  0  0  0  0  0  0  0
    8.7970   25.0053    3.9383 C   0  0  0  0  0  0  0  0  0  0  0  0
    5.6360   23.5989    5.0839 C   0  0  0  0  0  0  0  0  0  0  0  0
    5.5453   22.6525    6.0966 C   0  0  0  0  0  0  0  0  0  0  0  0
    4.3110   22.3109    6.6191 C   0  0  0  0  0  0  0  0  0  0  0  0
    3.1727   22.9244    6.1231 C   0  0  0  0  0  0  0  0  0  0  0  0
    3.2502   23.8927    5.1215 C   0  0  0  0  0  0  0  0  0  0  0  0
    4.4924   24.2367    4.6013 C   0  0  0  0  0  0  0  0  0  0  0  0
   -1.8643   23.8775    6.6902 Cl  0  0  0  0  0  0  0  0  0  0  0  0
   -0.4574   22.9330    7.0230 C   0  0  0  0  0  0  0  0  0  0  0  0
    0.7449   23.3048    6.4444 C   0  0  0  0  0  0  0  0  0  0  0  0
   -0.5479   21.8304    7.8595 C   0  0  0  0  0  0  0  0  0  0  0  0
    0.5868   21.0868    8.1251 C   0  0  0  0  0  0  0  0  0  0  0  0
    1.7948   21.4558    7.5479 C   0  0  0  0  0  0  0  0  0  0  0  0
    1.8699   22.5512    6.7036 C   0  0  0  0  0  0  0  0  0  0  0  0
 38 37  1  0  0  0
 37 36  2  0  0  0
 37 39  1  0  0  0
 36 35  1  0  0  0
 39 40  2  0  0  0
 35 34  2  0  0  0
 40 34  1  0  0  0
 34 30  1  0  0  0
 32 30  2  0  0  0
 30 31  1  0  0  0
 30 29  1  0  0  0
 26 25  2  0  0  0
 29  1  1  0  0  0
 25 27  1  0  0  0
 25 24  1  0  0  0
 24 23  1  0  0  0
  1 41  1  0  0  0
  1  3  1  0  0  0
 41 46  1  0  0  0
  4  3  1  0  0  0
  4  6  1  0  0  0
 23  6  1  0  0  0
  3  2  2  0  0  0
 46 44  2  0  0  0
 46 43  1  0  0  0
 44 45  1  0  0  0
  6  7  1  0  0  0
 48 49  2  0  0  0
 48 47  1  0  0  0
 43 42  1  0  0  0
 45 42  2  0  0  0
 45 47  1  0  0  0
 49 50  1  0  0  0
 47 52  2  0  0  0
  7  8  2  0  0  0
  7  9  1  0  0  0
 53 54  1  0  0  0
 55 54  2  0  0  0
 55 59  1  0  0  0
 50 59  1  0  0  0
 50 51  2  0  0  0
 52 51  1  0  0  0
  9 11  1  0  0  0
 54 56  1  0  0  0
 59 58  2  0  0  0
 14 12  1  0  0  0
 56 57  2  0  0  0
 58 57  1  0  0  0
 12 11  1  0  0  0
 12 13  2  0  0  0
 11 17  1  0  0  0
 17 18  1  0  0  0
 18 19  1  0  0  0
 19 20  2  0  0  0
 19 21  1  0  0  0
 31 33  1  0  0  0
  4  5  1  0  0  0
 27 28  1  0  0  0
  9 10  1  0  0  0
 21 22  1  0  0  0
 14 15  1  0  0  0
 14 16  1  0  0  0
M  END
> <minimizedAffinity>
-10.31527

$$$$
5CZM_R47_A_306


 59 62  0  0  0  0  0  0  0  0999 V2000
    9.8561   26.9163    1.2579 C   0  0  0  0  0  0  0  0  0  0  0  0
   10.4894   29.1031    1.8980 O   0  0  0  0  0  0  0  0  0  0  0  0
   10.4688   28.2551    1.0306 C   0  0  0  0  0  0  0  0  0  0  0  0
   11.0036   28.4320   -0.1668 N   0  0  0  0  0  0  0  0  0  0  0  0
   10.9451   27.7177   -0.8417 H   0  0  0  0  0  0  0  0  0  0  0  0
   11.6748   29.6751   -0.4860 C   0  0  0  0  0  0  0  0  0  0  0  0
   10.8202   30.7359   -1.1021 C   0  0  0  0  0  0  0  0  0  0  0  0
   11.1805   31.3960   -2.0536 O   0  0  0  0  0  0  0  0  0  0  0  0
    9.6564   30.9372   -0.5112 N   0  0  0  0  0  0  0  0  0  0  0  0
    9.4093   30.3814    0.2629 H   0  0  0  0  0  0  0  0  0  0  0  0
    8.7397   31.9482   -0.9694 C   0  0  0  0  0  0  0  0  0  0  0  0
    8.6474   33.0922    0.0071 C   0  0  0  0  0  0  0  0  0  0  0  0
    7.9685   34.0764   -0.2591 O   0  0  0  0  0  0  0  0  0  0  0  0
    9.3278   32.9730    1.1485 N   0  0  0  0  0  0  0  0  0  0  0  0
    9.8611   32.1637    1.3213 H   0  0  0  0  0  0  0  0  0  0  0  0
    9.2965   33.6942    1.8179 H   0  0  0  0  0  0  0  0  0  0  0  0
    7.3904   31.2653   -1.0756 C   0  0  0  0  0  0  0  0  0  0  0  0
    7.4638   29.7638   -1.2449 C   0  0  0  0  0  0  0  0  0  0  0  0
    7.1118   29.1426    0.0827 C   0  0  0  0  0  0  0  0  0  0  0  0
    7.1945   29.8023    1.1034 O   0  0  0  0  0  0  0  0  0  0  0  0
    6.7448   27.8610    0.1384 O   0  0  0  0  0  0  0  0  0  0  0  0
    6.6824   27.3569   -0.6490 H   0  0  0  0  0  0  0  0  0  0  0  0
   12.8324   29.3692   -1.4345 C   0  0  0  0  0  0  0  0  0  0  0  0
   12.6391   28.0600   -2.1856 C   0  0  0  0  0  0  0  0  0  0  0  0
   13.8032   27.7196   -3.0876 C   0  0  0  0  0  0  0  0  0  0  0  0
   13.6220   27.4709   -4.2693 O   0  0  0  0  0  0  0  0  0  0  0  0
   14.9875   27.7271   -2.4819 O   0  0  0  0  0  0  0  0  0  0  0  0
   15.0453   27.9283   -1.5686 H   0  0  0  0  0  0  0  0  0  0  0  0
   10.5512   25.9939    0.2853 C   0  0  0  0  0  0  0  0  0  0  0  0
    9.5129   24.7749   -0.5495 P   0  0  0  0  0  0  0  0  0  0  0  0
    9.8965   23.3585   -0.1213 O   0  0  0  0  0  0  0  0  0  0  0  0
    8.0774   25.0994   -0.2567 O   0  0  0  0  0  0  0  0  0  0  0  0
    9.3297   22.7178   -0.5786 H   0  0  0  0  0  0  0  0  0  0  0  0
    9.8714   25.0088   -2.2850 C   0  0  0  0  0  0  0  0  0  0  0  0
   11.1014   24.6558   -2.8262 C   0  0  0  0  0  0  0  0  0  0  0  0
   11.3349   24.8543   -4.1848 C   0  0  0  0  0  0  0  0  0  0  0  0
   10.3322   25.3999   -4.9771 C   0  0  0  0  0  0  0  0  0  0  0  0
   10.6204   25.6768   -6.8225 Br  0  0  0  0  0  0  0  0  0  0  0  0
    9.1048   25.7481   -4.4411 C   0  0  0  0  0  0  0  0  0  0  0  0
    8.8782   25.5555   -3.0877 C   0  0  0  0  0  0  0  0  0  0  0  0
   10.1713   26.4479    2.6671 C   0  0  0  0  0  0  0  0  0  0  0  0
    8.3764   23.5093    3.8647 N   0  0  0  0  0  0  0  0  0  0  0  0
    9.4629   24.2250    3.3102 O   0  0  0  0  0  0  0  0  0  0  0  0
    7.8802   25.6752    3.7374 C   0  0  0  0  0  0  0  0  0  0  0  0
    7.4582   24.4035    4.1100 C   0  0  0  0  0  0  0  0  0  0  0  0
    9.1218   25.5425    3.2480 C   0  0  0  0  0  0  0  0  0  0  0  0
    6.1582   23.9750    4.6774 C   0  0  0  0  0  0  0  0  0  0  0  0
    6.1610   23.0322    5.6973 C   0  0  0  0  0  0  0  0  0  0  0  0
    4.9693   22.6234    6.2683 C   0  0  0  0  0  0  0  0  0  0  0  0
    3.7793   23.1664    5.8131 C   0  0  0  0  0  0  0  0  0  0  0  0
    3.7624   24.1305    4.8045 C   0  0  0  0  0  0  0  0  0  0  0  0
    4.9620   24.5422    4.2357 C   0  0  0  0  0  0  0  0  0  0  0  0
   -1.2522   23.9042    6.6736 Cl  0  0  0  0  0  0  0  0  0  0  0  0
    0.2037   23.0028    6.8973 C   0  0  0  0  0  0  0  0  0  0  0  0
    1.3595   23.4414    6.2727 C   0  0  0  0  0  0  0  0  0  0  0  0
    0.1975   21.8677    7.6942 C   0  0  0  0  0  0  0  0  0  0  0  0
    1.3709   21.1589    7.8725 C   0  0  0  0  0  0  0  0  0  0  0  0
    2.5327   21.5949    7.2489 C   0  0  0  0  0  0  0  0  0  0  0  0
    2.5233   22.7225    6.4447 C   0  0  0  0  0  0  0  0  0  0  0  0
 38 37  1  0  0  0
 37 36  2  0  0  0
 37 39  1  0  0  0
 36 35  1  0  0  0
 39 40  2  0  0  0
 35 34  2  0  0  0
 40 34  1  0  0  0
 34 30  1  0  0  0
 32 30  2  0  0  0
 30 31  1  0  0  0
 30 29  1  0  0  0
 26 25  2  0  0  0
 29  1  1  0  0  0
 25 27  1  0  0  0
 25 24  1  0  0  0
 24 23  1  0  0  0
  1 41  1  0  0  0
  1  3  1  0  0  0
 41 46  1  0  0  0
  4  3  1  0  0  0
  4  6  1  0  0  0
 23  6  1  0  0  0
  3  2  2  0  0  0
 46 44  2  0  0  0
 46 43  1  0  0  0
 44 45  1  0  0  0
  6  7  1  0  0  0
 48 49  2  0  0  0
 48 47  1  0  0  0
 43 42  1  0  0  0
 45 42  2  0  0  0
 45 47  1  0  0  0
 49 50  1  0  0  0
 47 52  2  0  0  0
  7  8  2  0  0  0
  7  9  1  0  0  0
 53 54  1  0  0  0
 55 54  2  0  0  0
 55 59  1  0  0  0
 50 59  1  0  0  0
 50 51  2  0  0  0
 52 51  1  0  0  0
  9 11  1  0  0  0
 54 56  1  0  0  0
 59 58  2  0  0  0
 14 12  1  0  0  0
 56 57  2  0  0  0
 58 57  1  0  0  0
 12 11  1  0  0  0
 12 13  2  0  0  0
 11 17  1  0  0  0
 17 18  1  0  0  0
 18 19  1  0  0  0
 19 20  2  0  0  0
 19 21  1  0  0  0
 31 33  1  0  0  0
  4  5  1  0  0  0
 27 28  1  0  0  0
  9 10  1  0  0  0
 21 22  1  0  0  0
 14 15  1  0  0  0
 14 16  1  0  0  0
M  END
> <minimizedAffinity>
-9.94663

$$$$
5CZM_R47_A_306


 59 62  0  0  0  0  0  0  0  0999 V2000
    9.9809   27.2726    2.4514 C   0  0  0  0  0  0  0  0  0  0  0  0
    8.9696   27.7861    0.3762 O   0  0  0  0  0  0  0  0  0  0  0  0
    9.9360   27.8999    1.1009 C   0  0  0  0  0  0  0  0  0  0  0  0
   11.0083   28.6019    0.7717 N   0  0  0  0  0  0  0  0  0  0  0  0
   11.7736   28.6489    1.3892 H   0  0  0  0  0  0  0  0  0  0  0  0
   11.0577   29.3014   -0.4956 C   0  0  0  0  0  0  0  0  0  0  0  0
   11.5011   28.4891   -1.6697 C   0  0  0  0  0  0  0  0  0  0  0  0
   12.5942   28.6176   -2.1791 O   0  0  0  0  0  0  0  0  0  0  0  0
   10.6021   27.6466   -2.1453 N   0  0  0  0  0  0  0  0  0  0  0  0
    9.7250   27.5813   -1.7029 H   0  0  0  0  0  0  0  0  0  0  0  0
   10.8712   26.8212   -3.2937 C   0  0  0  0  0  0  0  0  0  0  0  0
    9.9553   27.1586   -4.4419 C   0  0  0  0  0  0  0  0  0  0  0  0
   10.4073   27.6603   -5.4638 O   0  0  0  0  0  0  0  0  0  0  0  0
    8.6590   26.8843   -4.2857 N   0  0  0  0  0  0  0  0  0  0  0  0
    8.3389   26.4806   -3.4468 H   0  0  0  0  0  0  0  0  0  0  0  0
    8.0226   27.0856   -5.0094 H   0  0  0  0  0  0  0  0  0  0  0  0
   10.6160   25.3953   -2.8468 C   0  0  0  0  0  0  0  0  0  0  0  0
   10.8634   25.1500   -1.3747 C   0  0  0  0  0  0  0  0  0  0  0  0
    9.6459   24.4533   -0.8228 C   0  0  0  0  0  0  0  0  0  0  0  0
    9.7416   23.3231   -0.3784 O   0  0  0  0  0  0  0  0  0  0  0  0
    8.4603   25.0645   -0.8560 O   0  0  0  0  0  0  0  0  0  0  0  0
    8.3909   25.9338   -1.1986 H   0  0  0  0  0  0  0  0  0  0  0  0
   11.9938   30.4996   -0.3498 C   0  0  0  0  0  0  0  0  0  0  0  0
   11.5798   31.4272    0.7832 C   0  0  0  0  0  0  0  0  0  0  0  0
   12.7074   31.7238    1.7450 C   0  0  0  0  0  0  0  0  0  0  0  0
   13.8709   31.5936    1.3981 O   0  0  0  0  0  0  0  0  0  0  0  0
   12.3103   32.1279    2.9486 O   0  0  0  0  0  0  0  0  0  0  0  0
   11.3961   32.2032    3.1395 H   0  0  0  0  0  0  0  0  0  0  0  0
    8.7403   27.7656    3.1570 C   0  0  0  0  0  0  0  0  0  0  0  0
    8.6588   29.5372    3.4971 P   0  0  0  0  0  0  0  0  0  0  0  0
   10.0542   30.1593    3.4458 O   0  0  0  0  0  0  0  0  0  0  0  0
    7.7101   30.1620    2.5166 O   0  0  0  0  0  0  0  0  0  0  0  0
    9.9916   31.1095    3.6305 H   0  0  0  0  0  0  0  0  0  0  0  0
    8.0050   29.6350    5.1578 C   0  0  0  0  0  0  0  0  0  0  0  0
    7.5192   30.8284    5.6777 C   0  0  0  0  0  0  0  0  0  0  0  0
    7.0170   30.8562    6.9764 C   0  0  0  0  0  0  0  0  0  0  0  0
    7.0078   29.6888    7.7299 C   0  0  0  0  0  0  0  0  0  0  0  0
    6.3298   29.6971    9.4921 Br  0  0  0  0  0  0  0  0  0  0  0  0
    7.4870   28.4980    7.2127 C   0  0  0  0  0  0  0  0  0  0  0  0
    7.9922   28.4753    5.9225 C   0  0  0  0  0  0  0  0  0  0  0  0
    9.8824   25.7641    2.3125 C   0  0  0  0  0  0  0  0  0  0  0  0
    8.2977   23.9370    5.0405 N   0  0  0  0  0  0  0  0  0  0  0  0
    9.3738   24.4683    4.2922 O   0  0  0  0  0  0  0  0  0  0  0  0
    7.5251   25.0542    3.2775 C   0  0  0  0  0  0  0  0  0  0  0  0
    7.2172   24.3093    4.4109 C   0  0  0  0  0  0  0  0  0  0  0  0
    8.8623   25.1423    3.2244 C   0  0  0  0  0  0  0  0  0  0  0  0
    5.8932   23.8869    4.9248 C   0  0  0  0  0  0  0  0  0  0  0  0
    5.8509   22.9664    5.9641 C   0  0  0  0  0  0  0  0  0  0  0  0
    4.6349   22.5642    6.4863 C   0  0  0  0  0  0  0  0  0  0  0  0
    3.4659   23.0913    5.9631 C   0  0  0  0  0  0  0  0  0  0  0  0
    3.4935   24.0332    4.9340 C   0  0  0  0  0  0  0  0  0  0  0  0
    4.7173   24.4385    4.4142 C   0  0  0  0  0  0  0  0  0  0  0  0
   -1.5799   23.8917    6.6710 Cl  0  0  0  0  0  0  0  0  0  0  0  0
   -0.1461   22.9631    6.9246 C   0  0  0  0  0  0  0  0  0  0  0  0
    1.0365   23.3956    6.3476 C   0  0  0  0  0  0  0  0  0  0  0  0
   -0.1962   21.8128    7.6977 C   0  0  0  0  0  0  0  0  0  0  0  0
    0.9597   21.0821    7.9006 C   0  0  0  0  0  0  0  0  0  0  0  0
    2.1482   21.5119    7.3247 C   0  0  0  0  0  0  0  0  0  0  0  0
    2.1828   22.6551    6.5436 C   0  0  0  0  0  0  0  0  0  0  0  0
 38 37  1  0  0  0
 37 36  2  0  0  0
 37 39  1  0  0  0
 36 35  1  0  0  0
 39 40  2  0  0  0
 35 34  2  0  0  0
 40 34  1  0  0  0
 34 30  1  0  0  0
 32 30  2  0  0  0
 30 31  1  0  0  0
 30 29  1  0  0  0
 26 25  2  0  0  0
 29  1  1  0  0  0
 25 27  1  0  0  0
 25 24  1  0  0  0
 24 23  1  0  0  0
  1 41  1  0  0  0
  1  3  1  0  0  0
 41 46  1  0  0  0
  4  3  1  0  0  0
  4  6  1  0  0  0
 23  6  1  0  0  0
  3  2  2  0  0  0
 46 44  2  0  0  0
 46 43  1  0  0  0
 44 45  1  0  0  0
  6  7  1  0  0  0
 48 49  2  0  0  0
 48 47  1  0  0  0
 43 42  1  0  0  0
 45 42  2  0  0  0
 45 47  1  0  0  0
 49 50  1  0  0  0
 47 52  2  0  0  0
  7  8  2  0  0  0
  7  9  1  0  0  0
 53 54  1  0  0  0
 55 54  2  0  0  0
 55 59  1  0  0  0
 50 59  1  0  0  0
 50 51  2  0  0  0
 52 51  1  0  0  0
  9 11  1  0  0  0
 54 56  1  0  0  0
 59 58  2  0  0  0
 14 12  1  0  0  0
 56 57  2  0  0  0
 58 57  1  0  0  0
 12 11  1  0  0  0
 12 13  2  0  0  0
 11 17  1  0  0  0
 17 18  1  0  0  0
 18 19  1  0  0  0
 19 20  2  0  0  0
 19 21  1  0  0  0
 31 33  1  0  0  0
  4  5  1  0  0  0
 27 28  1  0  0  0
  9 10  1  0  0  0
 21 22  1  0  0  0
 14 15  1  0  0  0
 14 16  1  0  0  0
M  END
> <minimizedAffinity>
-9.93845

$$$$
5CZM_R47_A_306


 59 62  0  0  0  0  0  0  0  0999 V2000
    9.1189   26.5182    2.2088 C   0  0  0  0  0  0  0  0  0  0  0  0
    9.9054   28.4992    3.2336 O   0  0  0  0  0  0  0  0  0  0  0  0
    8.9517   27.8307    2.8937 C   0  0  0  0  0  0  0  0  0  0  0  0
    7.6983   28.2141    3.0748 N   0  0  0  0  0  0  0  0  0  0  0  0
    6.9594   27.6263    2.7958 H   0  0  0  0  0  0  0  0  0  0  0  0
    7.4117   29.4970    3.6827 C   0  0  0  0  0  0  0  0  0  0  0  0
    7.8206   30.6974    2.8910 C   0  0  0  0  0  0  0  0  0  0  0  0
    8.1567   31.7406    3.4103 O   0  0  0  0  0  0  0  0  0  0  0  0
    7.7503   30.5595    1.5794 N   0  0  0  0  0  0  0  0  0  0  0  0
    7.4655   29.6957    1.2028 H   0  0  0  0  0  0  0  0  0  0  0  0
    8.0793   31.6394    0.6860 C   0  0  0  0  0  0  0  0  0  0  0  0
    7.1642   31.6629   -0.5111 C   0  0  0  0  0  0  0  0  0  0  0  0
    7.0320   32.6898   -1.1656 O   0  0  0  0  0  0  0  0  0  0  0  0
    6.5256   30.5303   -0.8098 N   0  0  0  0  0  0  0  0  0  0  0  0
    6.6615   29.7278   -0.2559 H   0  0  0  0  0  0  0  0  0  0  0  0
    5.9184   30.4970   -1.5840 H   0  0  0  0  0  0  0  0  0  0  0  0
    9.5012   31.3793    0.2292 C   0  0  0  0  0  0  0  0  0  0  0  0
   10.5301   32.3080    0.8354 C   0  0  0  0  0  0  0  0  0  0  0  0
   11.4611   31.4662    1.6701 C   0  0  0  0  0  0  0  0  0  0  0  0
   12.4851   31.0244    1.1799 O   0  0  0  0  0  0  0  0  0  0  0  0
   11.1419   31.1786    2.9332 O   0  0  0  0  0  0  0  0  0  0  0  0
   10.3534   31.5204    3.3066 H   0  0  0  0  0  0  0  0  0  0  0  0
    8.1028   29.5517    5.0438 C   0  0  0  0  0  0  0  0  0  0  0  0
    7.1467   29.2712    6.1938 C   0  0  0  0  0  0  0  0  0  0  0  0
    6.7016   30.5254    6.9105 C   0  0  0  0  0  0  0  0  0  0  0  0
    6.1365   30.4567    7.9908 O   0  0  0  0  0  0  0  0  0  0  0  0
    6.9855   31.6549    6.2679 O   0  0  0  0  0  0  0  0  0  0  0  0
    7.4226   31.6256    5.4396 H   0  0  0  0  0  0  0  0  0  0  0  0
   10.2248   26.7355    1.2040 C   0  0  0  0  0  0  0  0  0  0  0  0
    9.7551   27.5242   -0.3511 P   0  0  0  0  0  0  0  0  0  0  0  0
    8.3662   28.1524   -0.2372 O   0  0  0  0  0  0  0  0  0  0  0  0
   10.8148   28.5237   -0.7113 O   0  0  0  0  0  0  0  0  0  0  0  0
    8.1304   28.5708   -1.0800 H   0  0  0  0  0  0  0  0  0  0  0  0
    9.7259   26.1824   -1.5317 C   0  0  0  0  0  0  0  0  0  0  0  0
   10.1741   24.9107   -1.1967 C   0  0  0  0  0  0  0  0  0  0  0  0
   10.1301   23.8954   -2.1490 C   0  0  0  0  0  0  0  0  0  0  0  0
    9.6359   24.1709   -3.4181 C   0  0  0  0  0  0  0  0  0  0  0  0
    9.5617   22.8125   -4.7275 Br  0  0  0  0  0  0  0  0  0  0  0  0
    9.1847   25.4356   -3.7527 C   0  0  0  0  0  0  0  0  0  0  0  0
    9.2362   26.4452   -2.8049 C   0  0  0  0  0  0  0  0  0  0  0  0
    9.5847   25.4791    3.2127 C   0  0  0  0  0  0  0  0  0  0  0  0
    7.6040   22.8043    4.7005 N   0  0  0  0  0  0  0  0  0  0  0  0
    8.7565   23.4031    4.1409 O   0  0  0  0  0  0  0  0  0  0  0  0
    7.1848   24.9259    4.1751 C   0  0  0  0  0  0  0  0  0  0  0  0
    6.6939   23.7393    4.7093 C   0  0  0  0  0  0  0  0  0  0  0  0
    8.4610   24.6968    3.8327 C   0  0  0  0  0  0  0  0  0  0  0  0
    5.3361   23.4288    5.2146 C   0  0  0  0  0  0  0  0  0  0  0  0
    5.2088   22.4989    6.2384 C   0  0  0  0  0  0  0  0  0  0  0  0
    3.9602   22.1987    6.7524 C   0  0  0  0  0  0  0  0  0  0  0  0
    2.8445   22.8369    6.2366 C   0  0  0  0  0  0  0  0  0  0  0  0
    2.9591   23.7893    5.2233 C   0  0  0  0  0  0  0  0  0  0  0  0
    4.2156   24.0917    4.7117 C   0  0  0  0  0  0  0  0  0  0  0  0
   -2.1784   23.9112    6.7027 Cl  0  0  0  0  0  0  0  0  0  0  0  0
   -0.7969   22.9472    7.0826 C   0  0  0  0  0  0  0  0  0  0  0  0
    0.4211   23.2772    6.5114 C   0  0  0  0  0  0  0  0  0  0  0  0
   -0.9227   21.8711    7.9484 C   0  0  0  0  0  0  0  0  0  0  0  0
    0.1920   21.1117    8.2515 C   0  0  0  0  0  0  0  0  0  0  0  0
    1.4157   21.4388    7.6819 C   0  0  0  0  0  0  0  0  0  0  0  0
    1.5260   22.5078    6.8082 C   0  0  0  0  0  0  0  0  0  0  0  0
 38 37  1  0  0  0
 37 36  2  0  0  0
 37 39  1  0  0  0
 36 35  1  0  0  0
 39 40  2  0  0  0
 35 34  2  0  0  0
 40 34  1  0  0  0
 34 30  1  0  0  0
 32 30  2  0  0  0
 30 31  1  0  0  0
 30 29  1  0  0  0
 26 25  2  0  0  0
 29  1  1  0  0  0
 25 27  1  0  0  0
 25 24  1  0  0  0
 24 23  1  0  0  0
  1 41  1  0  0  0
  1  3  1  0  0  0
 41 46  1  0  0  0
  4  3  1  0  0  0
  4  6  1  0  0  0
 23  6  1  0  0  0
  3  2  2  0  0  0
 46 44  2  0  0  0
 46 43  1  0  0  0
 44 45  1  0  0  0
  6  7  1  0  0  0
 48 49  2  0  0  0
 48 47  1  0  0  0
 43 42  1  0  0  0
 45 42  2  0  0  0
 45 47  1  0  0  0
 49 50  1  0  0  0
 47 52  2  0  0  0
  7  8  2  0  0  0
  7  9  1  0  0  0
 53 54  1  0  0  0
 55 54  2  0  0  0
 55 59  1  0  0  0
 50 59  1  0  0  0
 50 51  2  0  0  0
 52 51  1  0  0  0
  9 11  1  0  0  0
 54 56  1  0  0  0
 59 58  2  0  0  0
 14 12  1  0  0  0
 56 57  2  0  0  0
 58 57  1  0  0  0
 12 11  1  0  0  0
 12 13  2  0  0  0
 11 17  1  0  0  0
 17 18  1  0  0  0
 18 19  1  0  0  0
 19 20  2  0  0  0
 19 21  1  0  0  0
 31 33  1  0  0  0
  4  5  1  0  0  0
 27 28  1  0  0  0
  9 10  1  0  0  0
 21 22  1  0  0  0
 14 15  1  0  0  0
 14 16  1  0  0  0
M  END
> <minimizedAffinity>
-9.93511

$$$$
