5N1Z_8GQ_A_202
  RCSB PDB12061719073D
Coordinates from PDB:5N1Z:A:202 Model:1 without hydrogens
 36 41  0  0  0  0            999 V2000
    4.6390   -2.4960  -11.9560   C 0  0  0  0  0  0  0  0  0  0  0  0
    5.2290   -2.0980  -13.1600   C 0  0  0  0  0  0  0  0  0  0  0  0
    4.9860   -2.8210  -14.3210   C 0  0  0  0  0  0  0  0  0  0  0  0
    4.9770   -1.8850  -10.7310   N 0  0  0  0  0  0  0  0  0  0  0  0
    1.9950   -5.8440  -14.4260   C 0  0  0  0  0  0  0  0  0  0  0  0
    2.8140   -5.5100  -15.6470   C 0  0  0  0  0  0  0  0  0  0  0  0
    6.5290   -1.4990  -15.6500   C 0  0  0  0  0  0  0  0  0  0  0  0
    7.8870   -2.0790  -15.4180   C 0  0  0  0  0  0  0  0  0  0  0  0
    8.9750   -1.4300  -15.0200   C 0  0  0  0  0  0  0  0  0  0  0  0
   10.3450   -2.0230  -14.9210   C 0  0  0  0  0  0  0  0  0  0  0  0
   11.0010   -3.1640  -12.8370   C 0  0  0  0  0  0  0  0  0  0  0  0
   11.9550   -3.0360  -11.6560   C 0  0  0  0  0  0  0  0  0  0  0  0
   11.1400   -2.2550  -10.6080   C 0  0  0  0  0  0  0  0  0  0  0  0
    9.6650   -3.4400  -12.1640   C 0  0  0  0  0  0  0  0  0  0  0  0
    6.2510   -1.7480  -10.1990   C 0  0  0  0  0  0  0  0  0  0  0  0
    7.7770   -0.6190   -8.7760   C 0  0  0  0  0  0  0  0  0  0  0  0
    7.7110    0.2930   -7.7270   C 0  0  0  0  0  0  0  0  0  0  0  0
    6.3380    0.5100   -7.5330   C 0  0  0  0  0  0  0  0  0  0  0  0
   11.5310   -0.7850  -10.5340   C 0  0  0  0  0  0  0  0  0  0  0  0
    9.6870    1.3470   -6.4740   N 0  0  0  0  0  0  0  0  0  0  0  0
    8.8070    0.8850   -7.0340   C 0  0  0  0  0  0  0  0  0  0  0  0
    5.5680   -0.1580   -8.4210   N 0  0  0  0  0  0  0  0  0  0  0  0
    6.4770   -0.8990   -9.1570   N 0  0  0  0  0  0  0  0  0  0  0  0
    7.3500   -2.3720  -10.7720   C 0  0  0  0  0  0  0  0  0  0  0  0
    8.8510   -1.2200   -9.3040   N 0  0  0  0  0  0  0  0  0  0  0  0
    8.6380   -2.0310  -10.3590   C 0  0  0  0  0  0  0  0  0  0  0  0
    9.7450   -2.5710  -10.9890   N 0  0  0  0  0  0  0  0  0  0  0  0
   11.2660   -0.2240   -9.2540   O 0  0  0  0  0  0  0  0  0  0  0  0
   10.9260   -1.9410  -13.5880   O 0  0  0  0  0  0  0  0  0  0  0  0
    5.4990   -2.5050  -15.5610   O 0  0  0  0  0  0  0  0  0  0  0  0
    4.0750   -3.8960  -14.3140   C 0  0  0  0  0  0  0  0  0  0  0  0
    3.7590   -4.5500  -15.5010   N 0  0  0  0  0  0  0  0  0  0  0  0
    2.5710   -6.0110  -16.7350   O 0  0  0  0  0  0  0  0  0  0  0  0
    2.5730   -5.4820  -13.0780   C 0  0  0  0  0  0  0  0  0  0  0  0
    3.4740   -4.2720  -13.1070   C 0  0  0  0  0  0  0  0  0  0  0  0
    3.7920   -3.6000  -11.9320   C 0  0  0  0  0  0  0  0  0  0  0  0
 33  6  2  0  0  0  0
  7 30  1  0  0  0  0
  7  8  1  0  0  0  0
  6 32  1  0  0  0  0
  6  5  1  0  0  0  0
 30  3  1  0  0  0  0
 32 31  1  0  0  0  0
  8  9  2  0  0  0  0
  9 10  1  0  0  0  0
 10 29  1  0  0  0  0
  5 34  1  0  0  0  0
  3 31  2  0  0  0  0
  3  2  1  0  0  0  0
 31 35  1  0  0  0  0
 29 11  1  0  0  0  0
  2  1  2  0  0  0  0
 35 34  1  0  0  0  0
 35 36  2  0  0  0  0
 11 14  1  0  0  0  0
 11 12  1  0  0  0  0
 14 27  1  0  0  0  0
  1 36  1  0  0  0  0
  1  4  1  0  0  0  0
 12 13  1  0  0  0  0
 27 13  1  0  0  0  0
 27 26  1  0  0  0  0
 24 26  1  0  0  0  0
 24 15  2  0  0  0  0
  4 15  1  0  0  0  0
 13 19  1  0  0  0  0
 19 28  1  0  0  0  0
 26 25  2  0  0  0  0
 15 23  1  0  0  0  0
 25 16  1  0  0  0  0
 23 16  1  0  0  0  0
 23 22  1  0  0  0  0
 16 17  2  0  0  0  0
 22 18  2  0  0  0  0
 17 18  1  0  0  0  0
 17 21  1  0  0  0  0
 21 20  3  0  0  0  0
A    1
C1
A    2
C2
A    3
C3
A    4
N6
A    5
C7
A    6
C8
A    7
C9
A    8
C10
A    9
C11
A   10
C12
A   11
C13
A   12
C14
A   13
C15
A   14
C16
A   15
C19
A   16
C20
A   17
C21
A   18
C22
A   19
C24
A   20
N5
A   21
C23
A   22
N4
A   23
N2
A   24
C18
A   25
N3
A   26
C17
A   27
N1
A   28
O3
A   29
O2
A   30
O1
A   31
C4
A   32
N
A   33
O
A   34
C6
A   35
C5
A   36
C
M  END
>  <InstanceId>
5N1Z_8GQ_A_202

>  <ChemCompId>
8GQ

>  <PdbId>
5N1Z

>  <ChainId>
A

>  <ResidueNumber>
202

>  <InsertionCode>


>  <Model>
1

>  <AltIds>


>  <MissingHeavyAtoms>
0

>  <ObservedFormula>
C25 N7 O4

>  <Name>
pyrazolo-pyrimidine macrocycle

>  <SystematicName>


>  <Synonyms>


>  <Type>
NON-POLYMER

>  <Formula>
C25 H25 N7 O4

>  <MolecularWeight>
487.511

>  <ModifiedDate>
2017-05-12

>  <Parent>


>  <OneLetterCode>


>  <SubcomponentList>


>  <AmbiguousFlag>
N

>  <InChI>
InChI=1S/C25H25N7O4/c26-11-16-12-27-32-22-10-21(29-25(16)32)31-13-19(9-18(31)14-33)35-5-1-2-6-36-20-8-17(28-22)7-15-3-4-23(34)30-24(15)20/h1-2,7-8,10,12,18-19,28,33H,3-6,9,13-14H2,(H,30,34)/b2-1+/t18-,19-/m0/s1

>  <InChIKey>
SABLEOBBNNRHAD-WNJMFGOSSA-N

>  <SMILES>
c1c2cc(c3c1CCC(=O)N3)OC/C=C/CO[C@H]4C[C@H](N(C4)c5cc(n6c(n5)c(cn6)C#N)N2)CO

$$$$
