1KV1_BMU_A_391


 23 24  0  0  0  0  0  0  0  0999 V2000
   33.1433   33.7683   14.6076 C   0  0  0  0  0  0  0  0  0  0  0  0
   32.3297   34.5095   15.1905 O   0  0  0  0  0  0  0  0  0  0  0  0
   34.3572   33.5773   15.1192 N   0  0  0  0  0  0  0  0  0  0  0  0
   32.8302   33.1224   13.4809 N   0  0  0  0  0  0  0  0  0  0  0  0
   34.9533   32.9514   14.6479 H   0  0  0  0  0  0  0  0  0  0  0  0
   33.5115   32.5249   13.0961 H   0  0  0  0  0  0  0  0  0  0  0  0
   34.8309   34.1642   16.2169 C   0  0  0  0  0  0  0  0  0  0  0  0
   36.0799   34.6811   16.1575 C   0  0  0  0  0  0  0  0  0  0  0  0
   36.6413   35.2800   17.2662 C   0  0  0  0  0  0  0  0  0  0  0  0
   35.9525   35.3487   18.4010 C   0  0  0  0  0  0  0  0  0  0  0  0
   36.7040   36.0925   19.7840 Cl  0  0  0  0  0  0  0  0  0  0  0  0
   34.6958   34.8387   18.4851 C   0  0  0  0  0  0  0  0  0  0  0  0
   34.1214   34.2330   17.3663 C   0  0  0  0  0  0  0  0  0  0  0  0
   31.6670   33.2234   12.8366 C   0  0  0  0  0  0  0  0  0  0  0  0
   31.0724   34.3593   12.3789 C   0  0  0  0  0  0  0  0  0  0  0  0
   29.9238   33.9615   11.7200 C   0  0  0  0  0  0  0  0  0  0  0  0
   29.8165   32.6342   11.7655 N   0  0  0  0  0  0  0  0  0  0  0  0
   30.9286   32.1859   12.4840 N   0  0  0  0  0  0  0  0  0  0  0  0
   31.2219   30.7824   12.8051 C   0  0  0  0  0  0  0  0  0  0  0  0
   29.0109   34.6043    9.5920 C   0  0  0  0  0  0  0  0  0  0  0  0
   29.3476   36.2705   11.4409 C   0  0  0  0  0  0  0  0  0  0  0  0
   27.5871   34.5088   11.6677 C   0  0  0  0  0  0  0  0  0  0  0  0
   28.9988   34.7939   11.1240 C   0  0  0  0  0  0  0  0  0  0  0  0
  1  2  2  0  0  0
  1  3  1  0  0  0
  1  4  1  0  0  0
  3  7  1  0  0  0
  7  8  2  0  0  0
  7 13  1  0  0  0
  8  9  1  0  0  0
  9 10  2  0  0  0
 10 11  1  0  0  0
 10 12  1  0  0  0
 12 13  2  0  0  0
  4 14  1  0  0  0
 14 15  2  0  0  0
 14 18  1  0  0  0
 15 16  1  0  0  0
 16 17  2  0  0  0
 16 23  1  0  0  0
 17 18  1  0  0  0
 18 19  1  0  0  0
 20 23  1  0  0  0
 21 23  1  0  0  0
 22 23  1  0  0  0
  3  5  1  0  0  0
  4  6  1  0  0  0
M  END
> <minimizedAffinity>
-9.34064

$$$$
1KV1_BMU_A_391


 23 24  0  0  0  0  0  0  0  0999 V2000
   30.6516   30.5219   12.5837 C   0  0  0  0  0  0  0  0  0  0  0  0
   31.5692   31.3489   12.4251 O   0  0  0  0  0  0  0  0  0  0  0  0
   30.9252   29.3002   13.0359 N   0  0  0  0  0  0  0  0  0  0  0  0
   29.3741   30.8274   12.3394 N   0  0  0  0  0  0  0  0  0  0  0  0
   30.1651   28.6926   13.1857 H   0  0  0  0  0  0  0  0  0  0  0  0
   28.6990   30.1346   12.5224 H   0  0  0  0  0  0  0  0  0  0  0  0
   32.1436   28.8331   13.3022 C   0  0  0  0  0  0  0  0  0  0  0  0
   32.5851   28.9354   14.5771 C   0  0  0  0  0  0  0  0  0  0  0  0
   33.8477   28.4949   14.9164 C   0  0  0  0  0  0  0  0  0  0  0  0
   34.6369   27.9680   13.9855 C   0  0  0  0  0  0  0  0  0  0  0  0
   36.2311   27.4440   14.4488 Cl  0  0  0  0  0  0  0  0  0  0  0  0
   34.2155   27.8528   12.6988 C   0  0  0  0  0  0  0  0  0  0  0  0
   32.9385   28.2950   12.3494 C   0  0  0  0  0  0  0  0  0  0  0  0
   28.9419   31.9970   11.8669 C   0  0  0  0  0  0  0  0  0  0  0  0
   29.1864   33.2352   12.3776 C   0  0  0  0  0  0  0  0  0  0  0  0
   28.5937   34.1384   11.5146 C   0  0  0  0  0  0  0  0  0  0  0  0
   28.0113   33.4845   10.5103 N   0  0  0  0  0  0  0  0  0  0  0  0
   28.2380   32.1272   10.7563 N   0  0  0  0  0  0  0  0  0  0  0  0
   27.7581   31.0210    9.9167 C   0  0  0  0  0  0  0  0  0  0  0  0
   29.9904   36.0940   11.5105 C   0  0  0  0  0  0  0  0  0  0  0  0
   28.0381   35.8701   13.0747 C   0  0  0  0  0  0  0  0  0  0  0  0
   27.6339   36.1496   10.6225 C   0  0  0  0  0  0  0  0  0  0  0  0
   28.5697   35.5098   11.6640 C   0  0  0  0  0  0  0  0  0  0  0  0
  1  2  2  0  0  0
  1  3  1  0  0  0
  1  4  1  0  0  0
  3  7  1  0  0  0
  7  8  2  0  0  0
  7 13  1  0  0  0
  8  9  1  0  0  0
  9 10  2  0  0  0
 10 11  1  0  0  0
 10 12  1  0  0  0
 12 13  2  0  0  0
  4 14  1  0  0  0
 14 15  2  0  0  0
 14 18  1  0  0  0
 15 16  1  0  0  0
 16 17  2  0  0  0
 16 23  1  0  0  0
 17 18  1  0  0  0
 18 19  1  0  0  0
 20 23  1  0  0  0
 21 23  1  0  0  0
 22 23  1  0  0  0
  3  5  1  0  0  0
  4  6  1  0  0  0
M  END
> <minimizedAffinity>
-8.69240

$$$$
1KV1_BMU_A_391


 23 24  0  0  0  0  0  0  0  0999 V2000
   32.6381   33.7088   14.0186 C   0  0  0  0  0  0  0  0  0  0  0  0
   31.7823   34.3537   14.6531 O   0  0  0  0  0  0  0  0  0  0  0  0
   33.8582   33.5421   14.5241 N   0  0  0  0  0  0  0  0  0  0  0  0
   32.3664   33.1425   12.8395 N   0  0  0  0  0  0  0  0  0  0  0  0
   34.4900   32.9907   14.0083 H   0  0  0  0  0  0  0  0  0  0  0  0
   33.0813   32.6170   12.4130 H   0  0  0  0  0  0  0  0  0  0  0  0
   34.2936   34.0606   15.6709 C   0  0  0  0  0  0  0  0  0  0  0  0
   35.6087   34.3672   15.7565 C   0  0  0  0  0  0  0  0  0  0  0  0
   36.1309   34.8836   16.9244 C   0  0  0  0  0  0  0  0  0  0  0  0
   35.3383   35.0800   17.9733 C   0  0  0  0  0  0  0  0  0  0  0  0
   36.0392   35.7126   19.4359 Cl  0  0  0  0  0  0  0  0  0  0  0  0
   34.0141   34.7818   17.9114 C   0  0  0  0  0  0  0  0  0  0  0  0
   33.4792   34.2607   16.7320 C   0  0  0  0  0  0  0  0  0  0  0  0
   31.2026   33.2334   12.1949 C   0  0  0  0  0  0  0  0  0  0  0  0
   30.1384   32.3895   12.2887 C   0  0  0  0  0  0  0  0  0  0  0  0
   29.1422   32.9262   11.4942 C   0  0  0  0  0  0  0  0  0  0  0  0
   29.5726   34.0572   10.9365 N   0  0  0  0  0  0  0  0  0  0  0  0
   30.8840   34.2305   11.3885 N   0  0  0  0  0  0  0  0  0  0  0  0
   31.7704   35.3413   11.0150 C   0  0  0  0  0  0  0  0  0  0  0  0
   27.9012   31.5270    9.9851 C   0  0  0  0  0  0  0  0  0  0  0  0
   26.8508   33.5119   11.1099 C   0  0  0  0  0  0  0  0  0  0  0  0
   27.4704   31.5045   12.4667 C   0  0  0  0  0  0  0  0  0  0  0  0
   27.8953   32.3784   11.2728 C   0  0  0  0  0  0  0  0  0  0  0  0
  1  2  2  0  0  0
  1  3  1  0  0  0
  1  4  1  0  0  0
  3  7  1  0  0  0
  7  8  2  0  0  0
  7 13  1  0  0  0
  8  9  1  0  0  0
  9 10  2  0  0  0
 10 11  1  0  0  0
 10 12  1  0  0  0
 12 13  2  0  0  0
  4 14  1  0  0  0
 14 15  2  0  0  0
 14 18  1  0  0  0
 15 16  1  0  0  0
 16 17  2  0  0  0
 16 23  1  0  0  0
 17 18  1  0  0  0
 18 19  1  0  0  0
 20 23  1  0  0  0
 21 23  1  0  0  0
 22 23  1  0  0  0
  3  5  1  0  0  0
  4  6  1  0  0  0
M  END
> <minimizedAffinity>
-8.34662

$$$$
1KV1_BMU_A_391


 23 24  0  0  0  0  0  0  0  0999 V2000
   32.9818   33.7472   14.4912 C   0  0  0  0  0  0  0  0  0  0  0  0
   32.6420   34.8356   14.9922 O   0  0  0  0  0  0  0  0  0  0  0  0
   32.4117   33.3241   13.3652 N   0  0  0  0  0  0  0  0  0  0  0  0
   33.9347   32.9850   15.0351 N   0  0  0  0  0  0  0  0  0  0  0  0
   32.7398   32.4786   12.9821 H   0  0  0  0  0  0  0  0  0  0  0  0
   34.1763   32.1553   14.5635 H   0  0  0  0  0  0  0  0  0  0  0  0
   31.4336   33.9518   12.7147 C   0  0  0  0  0  0  0  0  0  0  0  0
   30.2736   34.1560   13.3806 C   0  0  0  0  0  0  0  0  0  0  0  0
   29.2108   34.7771   12.7577 C   0  0  0  0  0  0  0  0  0  0  0  0
   29.3254   35.1762   11.4950 C   0  0  0  0  0  0  0  0  0  0  0  0
   27.9546   35.9361   10.7373 Cl  0  0  0  0  0  0  0  0  0  0  0  0
   30.4807   34.9841   10.8058 C   0  0  0  0  0  0  0  0  0  0  0  0
   31.5603   34.3580   11.4309 C   0  0  0  0  0  0  0  0  0  0  0  0
   34.5843   33.2601   16.1666 C   0  0  0  0  0  0  0  0  0  0  0  0
   35.0710   34.4668   16.5672 C   0  0  0  0  0  0  0  0  0  0  0  0
   35.5991   34.2760   17.8306 C   0  0  0  0  0  0  0  0  0  0  0  0
   35.4408   33.0046   18.1965 N   0  0  0  0  0  0  0  0  0  0  0  0
   34.8012   32.3758   17.1242 N   0  0  0  0  0  0  0  0  0  0  0  0
   34.4387   30.9530   17.0686 C   0  0  0  0  0  0  0  0  0  0  0  0
   35.1971   36.2510   19.1394 C   0  0  0  0  0  0  0  0  0  0  0  0
   37.2698   35.9914   17.7448 C   0  0  0  0  0  0  0  0  0  0  0  0
   36.9636   34.5746   19.7828 C   0  0  0  0  0  0  0  0  0  0  0  0
   36.2257   35.2324   18.6028 C   0  0  0  0  0  0  0  0  0  0  0  0
  1  2  2  0  0  0
  1  3  1  0  0  0
  1  4  1  0  0  0
  3  7  1  0  0  0
  7  8  2  0  0  0
  7 13  1  0  0  0
  8  9  1  0  0  0
  9 10  2  0  0  0
 10 11  1  0  0  0
 10 12  1  0  0  0
 12 13  2  0  0  0
  4 14  1  0  0  0
 14 15  2  0  0  0
 14 18  1  0  0  0
 15 16  1  0  0  0
 16 17  2  0  0  0
 16 23  1  0  0  0
 17 18  1  0  0  0
 18 19  1  0  0  0
 20 23  1  0  0  0
 21 23  1  0  0  0
 22 23  1  0  0  0
  3  5  1  0  0  0
  4  6  1  0  0  0
M  END
> <minimizedAffinity>
-7.48405

$$$$
1KV1_BMU_A_391


 23 24  0  0  0  0  0  0  0  0999 V2000
   33.7588   34.1698   15.4938 C   0  0  0  0  0  0  0  0  0  0  0  0
   34.0925   35.2412   14.9535 O   0  0  0  0  0  0  0  0  0  0  0  0
   32.8433   33.3909   14.9218 N   0  0  0  0  0  0  0  0  0  0  0  0
   34.3145   33.7493   16.6335 N   0  0  0  0  0  0  0  0  0  0  0  0
   32.6400   32.5339   15.3616 H   0  0  0  0  0  0  0  0  0  0  0  0
   34.0273   32.8748   16.9827 H   0  0  0  0  0  0  0  0  0  0  0  0
   32.1801   33.6769   13.8028 C   0  0  0  0  0  0  0  0  0  0  0  0
   31.1797   34.5841   13.8862 C   0  0  0  0  0  0  0  0  0  0  0  0
   30.4353   34.9074   12.7705 C   0  0  0  0  0  0  0  0  0  0  0  0
   30.7007   34.3235   11.6063 C   0  0  0  0  0  0  0  0  0  0  0  0
   29.7248   34.7418   10.2267 Cl  0  0  0  0  0  0  0  0  0  0  0  0
   31.7015   33.4108   11.4968 C   0  0  0  0  0  0  0  0  0  0  0  0
   32.4594   33.0806   12.6214 C   0  0  0  0  0  0  0  0  0  0  0  0
   35.2278   34.4213   17.3353 C   0  0  0  0  0  0  0  0  0  0  0  0
   35.0314   35.1322   18.4796 C   0  0  0  0  0  0  0  0  0  0  0  0
   36.2750   35.5898   18.8743 C   0  0  0  0  0  0  0  0  0  0  0  0
   37.2013   35.1744   18.0113 N   0  0  0  0  0  0  0  0  0  0  0  0
   36.5155   34.4407   17.0391 N   0  0  0  0  0  0  0  0  0  0  0  0
   37.1303   33.8022   15.8672 C   0  0  0  0  0  0  0  0  0  0  0  0
   35.5489   37.5645   20.0355 C   0  0  0  0  0  0  0  0  0  0  0  0
   37.9782   36.9475   19.8728 C   0  0  0  0  0  0  0  0  0  0  0  0
   36.4385   35.5565   21.2689 C   0  0  0  0  0  0  0  0  0  0  0  0
   36.5387   36.3815   19.9731 C   0  0  0  0  0  0  0  0  0  0  0  0
  1  2  2  0  0  0
  1  3  1  0  0  0
  1  4  1  0  0  0
  3  7  1  0  0  0
  7  8  2  0  0  0
  7 13  1  0  0  0
  8  9  1  0  0  0
  9 10  2  0  0  0
 10 11  1  0  0  0
 10 12  1  0  0  0
 12 13  2  0  0  0
  4 14  1  0  0  0
 14 15  2  0  0  0
 14 18  1  0  0  0
 15 16  1  0  0  0
 16 17  2  0  0  0
 16 23  1  0  0  0
 17 18  1  0  0  0
 18 19  1  0  0  0
 20 23  1  0  0  0
 21 23  1  0  0  0
 22 23  1  0  0  0
  3  5  1  0  0  0
  4  6  1  0  0  0
M  END
> <minimizedAffinity>
-6.97046

$$$$
1KV1_BMU_A_391


 23 24  0  0  0  0  0  0  0  0999 V2000
   32.8054   33.2798   14.5163 C   0  0  0  0  0  0  0  0  0  0  0  0
   33.2163   32.1739   14.9154 O   0  0  0  0  0  0  0  0  0  0  0  0
   33.2937   34.4018   15.0404 N   0  0  0  0  0  0  0  0  0  0  0  0
   31.8958   33.3874   13.5437 N   0  0  0  0  0  0  0  0  0  0  0  0
   32.9711   35.2535   14.6665 H   0  0  0  0  0  0  0  0  0  0  0  0
   31.6457   34.2947   13.2548 H   0  0  0  0  0  0  0  0  0  0  0  0
   34.1831   34.4657   16.0296 C   0  0  0  0  0  0  0  0  0  0  0  0
   33.7052   34.5533   17.2924 C   0  0  0  0  0  0  0  0  0  0  0  0
   34.5714   34.6487   18.3620 C   0  0  0  0  0  0  0  0  0  0  0  0
   35.8839   34.6563   18.1516 C   0  0  0  0  0  0  0  0  0  0  0  0
   36.9436   34.8002   19.5253 Cl  0  0  0  0  0  0  0  0  0  0  0  0
   36.3882   34.5675   16.8929 C   0  0  0  0  0  0  0  0  0  0  0  0
   35.5171   34.4689   15.8066 C   0  0  0  0  0  0  0  0  0  0  0  0
   31.3001   32.3622   12.9337 C   0  0  0  0  0  0  0  0  0  0  0  0
   31.7528   31.0818   12.8382 C   0  0  0  0  0  0  0  0  0  0  0  0
   30.7691   30.3670   12.1802 C   0  0  0  0  0  0  0  0  0  0  0  0
   29.7493   31.1724   11.8858 N   0  0  0  0  0  0  0  0  0  0  0  0
   30.1090   32.4348   12.3662 N   0  0  0  0  0  0  0  0  0  0  0  0
   29.2942   33.6518   12.2475 C   0  0  0  0  0  0  0  0  0  0  0  0
   29.7422   28.6947   10.7931 C   0  0  0  0  0  0  0  0  0  0  0  0
   30.5732   28.1645   13.1032 C   0  0  0  0  0  0  0  0  0  0  0  0
   32.2126   28.6714   11.2840 C   0  0  0  0  0  0  0  0  0  0  0  0
   30.8237   29.0304   11.8423 C   0  0  0  0  0  0  0  0  0  0  0  0
  1  2  2  0  0  0
  1  3  1  0  0  0
  1  4  1  0  0  0
  3  7  1  0  0  0
  7  8  2  0  0  0
  7 13  1  0  0  0
  8  9  1  0  0  0
  9 10  2  0  0  0
 10 11  1  0  0  0
 10 12  1  0  0  0
 12 13  2  0  0  0
  4 14  1  0  0  0
 14 15  2  0  0  0
 14 18  1  0  0  0
 15 16  1  0  0  0
 16 17  2  0  0  0
 16 23  1  0  0  0
 17 18  1  0  0  0
 18 19  1  0  0  0
 20 23  1  0  0  0
 21 23  1  0  0  0
 22 23  1  0  0  0
  3  5  1  0  0  0
  4  6  1  0  0  0
M  END
> <minimizedAffinity>
-6.90165

$$$$
1KV1_BMU_A_391


 23 24  0  0  0  0  0  0  0  0999 V2000
   29.9622   32.5630   12.2338 C   0  0  0  0  0  0  0  0  0  0  0  0
   29.0095   32.2643   12.9782 O   0  0  0  0  0  0  0  0  0  0  0  0
   30.0228   33.7720   11.6801 N   0  0  0  0  0  0  0  0  0  0  0  0
   30.9604   31.7103   11.9860 N   0  0  0  0  0  0  0  0  0  0  0  0
   30.8140   33.9794   11.1322 H   0  0  0  0  0  0  0  0  0  0  0  0
   31.6983   32.0286   11.4172 H   0  0  0  0  0  0  0  0  0  0  0  0
   29.0998   34.7237   11.8070 C   0  0  0  0  0  0  0  0  0  0  0  0
   28.3797   35.0438   10.7072 C   0  0  0  0  0  0  0  0  0  0  0  0
   27.4254   36.0386   10.7624 C   0  0  0  0  0  0  0  0  0  0  0  0
   27.2123   36.6884   11.9022 C   0  0  0  0  0  0  0  0  0  0  0  0
   26.0151   37.9520   11.9258 Cl  0  0  0  0  0  0  0  0  0  0  0  0
   27.9214   36.3838   13.0207 C   0  0  0  0  0  0  0  0  0  0  0  0
   28.8871   35.3772   12.9719 C   0  0  0  0  0  0  0  0  0  0  0  0
   31.0356   30.4620   12.4486 C   0  0  0  0  0  0  0  0  0  0  0  0
   31.8354   29.9983   13.4480 C   0  0  0  0  0  0  0  0  0  0  0  0
   31.5145   28.6644   13.6191 C   0  0  0  0  0  0  0  0  0  0  0  0
   30.5529   28.3203   12.7633 N   0  0  0  0  0  0  0  0  0  0  0  0
   30.2682   29.4730   12.0256 N   0  0  0  0  0  0  0  0  0  0  0  0
   29.2790   29.5647   10.9429 C   0  0  0  0  0  0  0  0  0  0  0  0
   31.0407   27.1626   15.4343 C   0  0  0  0  0  0  0  0  0  0  0  0
   33.1253   28.5629   15.3900 C   0  0  0  0  0  0  0  0  0  0  0  0
   32.8621   26.6830   13.7618 C   0  0  0  0  0  0  0  0  0  0  0  0
   32.1054   27.7941   14.5119 C   0  0  0  0  0  0  0  0  0  0  0  0
  1  2  2  0  0  0
  1  3  1  0  0  0
  1  4  1  0  0  0
  3  7  1  0  0  0
  7  8  2  0  0  0
  7 13  1  0  0  0
  8  9  1  0  0  0
  9 10  2  0  0  0
 10 11  1  0  0  0
 10 12  1  0  0  0
 12 13  2  0  0  0
  4 14  1  0  0  0
 14 15  2  0  0  0
 14 18  1  0  0  0
 15 16  1  0  0  0
 16 17  2  0  0  0
 16 23  1  0  0  0
 17 18  1  0  0  0
 18 19  1  0  0  0
 20 23  1  0  0  0
 21 23  1  0  0  0
 22 23  1  0  0  0
  3  5  1  0  0  0
  4  6  1  0  0  0
M  END
> <minimizedAffinity>
-6.57793

$$$$
