4TKB_DAO_A_200


 15 14  0  0  0  0  0  0  0  0999 V2000
   -6.8812   23.7875   15.3906 C   0  0  0  0  0  0  0  0  0  0  0  0
   -7.2664   22.3383   15.5850 C   0  0  0  0  0  0  0  0  0  0  0  0
   -6.3877   21.5791   16.5574 C   0  0  0  0  0  0  0  0  0  0  0  0
   -6.3370   22.0969   17.9388 C   0  0  0  0  0  0  0  0  0  0  0  0
   -8.2407   21.0844   18.9411 O   0  0  0  0  0  0  0  0  0  0  0  0
   -8.0140   23.2705   19.1360 O   0  0  0  0  0  0  0  0  0  0  0  0
   -7.6341   22.1464   18.7125 C   0  0  0  0  0  0  0  0  0  0  0  0
   -7.5182   24.0394   18.9337 H   0  0  0  0  0  0  0  0  0  0  0  0
   -7.9998   24.6872   14.8984 C   0  0  0  0  0  0  0  0  0  0  0  0
   -8.1354   24.7950   13.4241 C   0  0  0  0  0  0  0  0  0  0  0  0
   -6.8423   24.8910   12.6861 C   0  0  0  0  0  0  0  0  0  0  0  0
   -6.7068   23.9078   11.5457 C   0  0  0  0  0  0  0  0  0  0  0  0
   -6.1761   22.5249   11.9451 C   0  0  0  0  0  0  0  0  0  0  0  0
   -7.1848   21.4033   11.9827 C   0  0  0  0  0  0  0  0  0  0  0  0
   -6.5012   20.1399   11.5682 C   0  0  0  0  0  0  0  0  0  0  0  0
  5  7  2  0  0  0
  6  7  1  0  0  0
  7  4  1  0  0  0
  4  3  1  0  0  0
  3  2  1  0  0  0
  2  1  1  0  0  0
  1  9  1  0  0  0
  9 10  1  0  0  0
 10 11  1  0  0  0
 11 12  1  0  0  0
 12 13  1  0  0  0
 13 14  1  0  0  0
 14 15  1  0  0  0
  6  8  1  0  0  0
M  END
> <minimizedAffinity>
-5.50356

$$$$
4TKB_DAO_A_200


 15 14  0  0  0  0  0  0  0  0999 V2000
   -6.8719   25.0726   14.6389 C   0  0  0  0  0  0  0  0  0  0  0  0
   -7.4424   24.6424   15.9714 C   0  0  0  0  0  0  0  0  0  0  0  0
   -7.9453   23.2142   16.0086 C   0  0  0  0  0  0  0  0  0  0  0  0
   -7.4184   22.3603   17.0913 C   0  0  0  0  0  0  0  0  0  0  0  0
   -7.9345   23.3312   19.1996 O   0  0  0  0  0  0  0  0  0  0  0  0
   -8.9749   21.4672   18.6414 O   0  0  0  0  0  0  0  0  0  0  0  0
   -8.1445   22.3876   18.4162 C   0  0  0  0  0  0  0  0  0  0  0  0
   -9.0933   20.7797   18.0158 H   0  0  0  0  0  0  0  0  0  0  0  0
   -7.6944   24.6685   13.4293 C   0  0  0  0  0  0  0  0  0  0  0  0
   -6.9187   24.2115   12.2490 C   0  0  0  0  0  0  0  0  0  0  0  0
   -6.3126   22.8555   12.3904 C   0  0  0  0  0  0  0  0  0  0  0  0
   -6.0099   22.1735   11.0755 C   0  0  0  0  0  0  0  0  0  0  0  0
   -7.1618   21.3393   10.5006 C   0  0  0  0  0  0  0  0  0  0  0  0
   -7.5312   20.0896   11.2611 C   0  0  0  0  0  0  0  0  0  0  0  0
   -6.2975   19.2640   11.4401 C   0  0  0  0  0  0  0  0  0  0  0  0
  5  7  2  0  0  0
  6  7  1  0  0  0
  7  4  1  0  0  0
  4  3  1  0  0  0
  3  2  1  0  0  0
  2  1  1  0  0  0
  1  9  1  0  0  0
  9 10  1  0  0  0
 10 11  1  0  0  0
 11 12  1  0  0  0
 12 13  1  0  0  0
 13 14  1  0  0  0
 14 15  1  0  0  0
  6  8  1  0  0  0
M  END
> <minimizedAffinity>
-5.46748

$$$$
4TKB_DAO_A_200


 15 14  0  0  0  0  0  0  0  0999 V2000
   -6.2277   22.6100   12.1900 C   0  0  0  0  0  0  0  0  0  0  0  0
   -6.2457   21.4753   11.1909 C   0  0  0  0  0  0  0  0  0  0  0  0
   -6.6556   20.1360   11.7675 C   0  0  0  0  0  0  0  0  0  0  0  0
   -6.9776   19.0731   10.7951 C   0  0  0  0  0  0  0  0  0  0  0  0
   -9.1472   19.8402   10.1967 O   0  0  0  0  0  0  0  0  0  0  0  0
   -7.8266   19.1220    8.5816 O   0  0  0  0  0  0  0  0  0  0  0  0
   -8.0752   19.3528    9.7949 C   0  0  0  0  0  0  0  0  0  0  0  0
   -7.0014   18.7534    8.3344 H   0  0  0  0  0  0  0  0  0  0  0  0
   -6.6692   23.9541   11.6411 C   0  0  0  0  0  0  0  0  0  0  0  0
   -6.8442   25.0321   12.6465 C   0  0  0  0  0  0  0  0  0  0  0  0
   -7.9139   24.7748   13.6543 C   0  0  0  0  0  0  0  0  0  0  0  0
   -7.5057   25.0728   15.0791 C   0  0  0  0  0  0  0  0  0  0  0  0
   -7.6062   23.8828   16.0420 C   0  0  0  0  0  0  0  0  0  0  0  0
   -6.5495   22.8148   15.9030 C   0  0  0  0  0  0  0  0  0  0  0  0
   -7.2212   21.5322   15.5299 C   0  0  0  0  0  0  0  0  0  0  0  0
  5  7  2  0  0  0
  6  7  1  0  0  0
  7  4  1  0  0  0
  4  3  1  0  0  0
  3  2  1  0  0  0
  2  1  1  0  0  0
  1  9  1  0  0  0
  9 10  1  0  0  0
 10 11  1  0  0  0
 11 12  1  0  0  0
 12 13  1  0  0  0
 13 14  1  0  0  0
 14 15  1  0  0  0
  6  8  1  0  0  0
M  END
> <minimizedAffinity>
-5.32690

$$$$
4TKB_DAO_A_200


 15 14  0  0  0  0  0  0  0  0999 V2000
   -7.7847   20.8491   13.5996 C   0  0  0  0  0  0  0  0  0  0  0  0
   -7.2640   20.8386   15.0191 C   0  0  0  0  0  0  0  0  0  0  0  0
   -8.2146   21.4252   16.0420 C   0  0  0  0  0  0  0  0  0  0  0  0
   -7.6396   22.3996   16.9901 C   0  0  0  0  0  0  0  0  0  0  0  0
   -8.1748   21.1128   18.9167 O   0  0  0  0  0  0  0  0  0  0  0  0
   -8.0773   23.3060   19.1372 O   0  0  0  0  0  0  0  0  0  0  0  0
   -8.0075   22.2534   18.4485 C   0  0  0  0  0  0  0  0  0  0  0  0
   -7.9425   24.1404   18.7326 H   0  0  0  0  0  0  0  0  0  0  0  0
   -6.8767   20.1876   12.5793 C   0  0  0  0  0  0  0  0  0  0  0  0
   -6.7105   20.9191   11.2982 C   0  0  0  0  0  0  0  0  0  0  0  0
   -6.0237   22.2380   11.4198 C   0  0  0  0  0  0  0  0  0  0  0  0
   -6.9543   23.4278   11.3565 C   0  0  0  0  0  0  0  0  0  0  0  0
   -6.5950   24.5796   12.3038 C   0  0  0  0  0  0  0  0  0  0  0  0
   -6.9389   24.3843   13.7599 C   0  0  0  0  0  0  0  0  0  0  0  0
   -8.3065   24.9390   14.0002 C   0  0  0  0  0  0  0  0  0  0  0  0
  5  7  2  0  0  0
  6  7  1  0  0  0
  7  4  1  0  0  0
  4  3  1  0  0  0
  3  2  1  0  0  0
  2  1  1  0  0  0
  1  9  1  0  0  0
  9 10  1  0  0  0
 10 11  1  0  0  0
 11 12  1  0  0  0
 12 13  1  0  0  0
 13 14  1  0  0  0
 14 15  1  0  0  0
  6  8  1  0  0  0
M  END
> <minimizedAffinity>
-5.24208

$$$$
4TKB_DAO_A_200


 15 14  0  0  0  0  0  0  0  0999 V2000
   -8.5188   20.2104   17.5557 C   0  0  0  0  0  0  0  0  0  0  0  0
   -8.8367   20.2199   16.0775 C   0  0  0  0  0  0  0  0  0  0  0  0
   -7.6972   19.7712   15.1863 C   0  0  0  0  0  0  0  0  0  0  0  0
   -7.4514   18.3173   15.1163 C   0  0  0  0  0  0  0  0  0  0  0  0
   -5.1143   17.9664   14.8545 O   0  0  0  0  0  0  0  0  0  0  0  0
   -6.0505   17.3051   16.7398 O   0  0  0  0  0  0  0  0  0  0  0  0
   -6.1071   17.8143   15.5889 C   0  0  0  0  0  0  0  0  0  0  0  0
   -6.8306   17.2142   17.2508 H   0  0  0  0  0  0  0  0  0  0  0  0
   -8.6266   21.5591   18.2429 C   0  0  0  0  0  0  0  0  0  0  0  0
   -7.3373   22.2253   18.5554 C   0  0  0  0  0  0  0  0  0  0  0  0
   -7.0386   23.4248   17.7199 C   0  0  0  0  0  0  0  0  0  0  0  0
   -6.5350   23.1016   16.3316 C   0  0  0  0  0  0  0  0  0  0  0  0
   -7.3105   23.7729   15.1909 C   0  0  0  0  0  0  0  0  0  0  0  0
   -7.6351   25.2357   15.3688 C   0  0  0  0  0  0  0  0  0  0  0  0
   -8.7030   25.6045   14.3894 C   0  0  0  0  0  0  0  0  0  0  0  0
  5  7  2  0  0  0
  6  7  1  0  0  0
  7  4  1  0  0  0
  4  3  1  0  0  0
  3  2  1  0  0  0
  2  1  1  0  0  0
  1  9  1  0  0  0
  9 10  1  0  0  0
 10 11  1  0  0  0
 11 12  1  0  0  0
 12 13  1  0  0  0
 13 14  1  0  0  0
 14 15  1  0  0  0
  6  8  1  0  0  0
M  END
> <minimizedAffinity>
-5.16645

$$$$
4TKB_DAO_A_200


 15 14  0  0  0  0  0  0  0  0999 V2000
   -6.5310   23.3078   13.6717 C   0  0  0  0  0  0  0  0  0  0  0  0
   -7.4730   22.1261   13.7218 C   0  0  0  0  0  0  0  0  0  0  0  0
   -7.0147   20.9223   12.9250 C   0  0  0  0  0  0  0  0  0  0  0  0
   -8.0340   20.2643   12.0843 C   0  0  0  0  0  0  0  0  0  0  0  0
   -9.8472   21.1800   10.8484 O   0  0  0  0  0  0  0  0  0  0  0  0
   -7.8002   21.6141   10.1488 O   0  0  0  0  0  0  0  0  0  0  0  0
   -8.6119   21.0611   10.9378 C   0  0  0  0  0  0  0  0  0  0  0  0
   -6.8784   21.4904   10.2625 H   0  0  0  0  0  0  0  0  0  0  0  0
   -6.8305   24.4088   14.6723 C   0  0  0  0  0  0  0  0  0  0  0  0
   -7.7569   24.0416   15.7726 C   0  0  0  0  0  0  0  0  0  0  0  0
   -7.0951   23.7972   17.0873 C   0  0  0  0  0  0  0  0  0  0  0  0
   -7.8612   22.8688   18.0020 C   0  0  0  0  0  0  0  0  0  0  0  0
   -7.3344   21.4288   18.0488 C   0  0  0  0  0  0  0  0  0  0  0  0
   -6.0917   21.1414   17.2428 C   0  0  0  0  0  0  0  0  0  0  0  0
   -6.3265   19.9025   16.4393 C   0  0  0  0  0  0  0  0  0  0  0  0
  5  7  2  0  0  0
  6  7  1  0  0  0
  7  4  1  0  0  0
  4  3  1  0  0  0
  3  2  1  0  0  0
  2  1  1  0  0  0
  1  9  1  0  0  0
  9 10  1  0  0  0
 10 11  1  0  0  0
 11 12  1  0  0  0
 12 13  1  0  0  0
 13 14  1  0  0  0
 14 15  1  0  0  0
  6  8  1  0  0  0
M  END
> <minimizedAffinity>
-5.13405

$$$$
4TKB_DAO_A_200


 15 14  0  0  0  0  0  0  0  0999 V2000
   -9.7757   19.7390   15.9462 C   0  0  0  0  0  0  0  0  0  0  0  0
   -8.8085   19.4468   14.8214 C   0  0  0  0  0  0  0  0  0  0  0  0
   -7.3594   19.7467   15.1441 C   0  0  0  0  0  0  0  0  0  0  0  0
   -6.6376   18.7281   15.9318 C   0  0  0  0  0  0  0  0  0  0  0  0
   -5.3289   16.7497   15.7678 O   0  0  0  0  0  0  0  0  0  0  0  0
   -5.5494   17.9920   13.9578 O   0  0  0  0  0  0  0  0  0  0  0  0
   -5.7604   17.7562   15.1772 C   0  0  0  0  0  0  0  0  0  0  0  0
   -5.8988   18.7667   13.5631 H   0  0  0  0  0  0  0  0  0  0  0  0
   -9.4386   20.9617   16.7796 C   0  0  0  0  0  0  0  0  0  0  0  0
   -8.9964   20.6888   18.1702 C   0  0  0  0  0  0  0  0  0  0  0  0
   -7.7227   21.3605   18.5608 C   0  0  0  0  0  0  0  0  0  0  0  0
   -7.8029   22.8699   18.5883 C   0  0  0  0  0  0  0  0  0  0  0  0
   -6.8680   23.5843   17.6040 C   0  0  0  0  0  0  0  0  0  0  0  0
   -7.4611   23.9654   16.2700 C   0  0  0  0  0  0  0  0  0  0  0  0
   -6.6860   23.2743   15.1942 C   0  0  0  0  0  0  0  0  0  0  0  0
  5  7  2  0  0  0
  6  7  1  0  0  0
  7  4  1  0  0  0
  4  3  1  0  0  0
  3  2  1  0  0  0
  2  1  1  0  0  0
  1  9  1  0  0  0
  9 10  1  0  0  0
 10 11  1  0  0  0
 11 12  1  0  0  0
 12 13  1  0  0  0
 13 14  1  0  0  0
 14 15  1  0  0  0
  6  8  1  0  0  0
M  END
> <minimizedAffinity>
-5.10228

$$$$
4TKB_DAO_A_200


 15 14  0  0  0  0  0  0  0  0999 V2000
   -6.2886   19.0037   15.7319 C   0  0  0  0  0  0  0  0  0  0  0  0
   -7.7346   19.2714   16.0834 C   0  0  0  0  0  0  0  0  0  0  0  0
   -8.0486   20.7204   16.3931 C   0  0  0  0  0  0  0  0  0  0  0  0
   -7.2132   21.3678   17.4236 C   0  0  0  0  0  0  0  0  0  0  0  0
   -7.4712   23.7197   17.6594 O   0  0  0  0  0  0  0  0  0  0  0  0
   -8.5647   22.4173   19.0652 O   0  0  0  0  0  0  0  0  0  0  0  0
   -7.7718   22.5967   18.1028 C   0  0  0  0  0  0  0  0  0  0  0  0
   -8.7560   21.5484   19.3589 H   0  0  0  0  0  0  0  0  0  0  0  0
   -5.9905   17.5851   15.2830 C   0  0  0  0  0  0  0  0  0  0  0  0
   -5.3791   17.4528   13.9367 C   0  0  0  0  0  0  0  0  0  0  0  0
   -6.3054   16.9527   12.8795 C   0  0  0  0  0  0  0  0  0  0  0  0
   -7.0320   18.0443   12.1271 C   0  0  0  0  0  0  0  0  0  0  0  0
   -6.1221   19.0685   11.4369 C   0  0  0  0  0  0  0  0  0  0  0  0
   -6.6156   20.4941   11.4082 C   0  0  0  0  0  0  0  0  0  0  0  0
   -7.3404   20.7684   12.6869 C   0  0  0  0  0  0  0  0  0  0  0  0
  5  7  2  0  0  0
  6  7  1  0  0  0
  7  4  1  0  0  0
  4  3  1  0  0  0
  3  2  1  0  0  0
  2  1  1  0  0  0
  1  9  1  0  0  0
  9 10  1  0  0  0
 10 11  1  0  0  0
 11 12  1  0  0  0
 12 13  1  0  0  0
 13 14  1  0  0  0
 14 15  1  0  0  0
  6  8  1  0  0  0
M  END
> <minimizedAffinity>
-4.98426

$$$$
4TKB_DAO_A_200


 15 14  0  0  0  0  0  0  0  0999 V2000
   -7.2294   21.3857   14.7298 C   0  0  0  0  0  0  0  0  0  0  0  0
   -6.7663   22.7219   15.2648 C   0  0  0  0  0  0  0  0  0  0  0  0
   -7.7832   23.4407   16.1270 C   0  0  0  0  0  0  0  0  0  0  0  0
   -7.4053   23.6697   17.5355 C   0  0  0  0  0  0  0  0  0  0  0  0
   -6.5370   21.8010   18.7219 O   0  0  0  0  0  0  0  0  0  0  0  0
   -8.6522   22.3367   19.0492 O   0  0  0  0  0  0  0  0  0  0  0  0
   -7.5359   22.5057   18.4902 C   0  0  0  0  0  0  0  0  0  0  0  0
   -9.3721   22.8976   18.8369 H   0  0  0  0  0  0  0  0  0  0  0  0
   -7.2298   21.2666   13.2169 C   0  0  0  0  0  0  0  0  0  0  0  0
   -8.0413   20.1550   12.6606 C   0  0  0  0  0  0  0  0  0  0  0  0
   -7.4809   19.5337   11.4253 C   0  0  0  0  0  0  0  0  0  0  0  0
   -6.2353   18.7093   11.6582 C   0  0  0  0  0  0  0  0  0  0  0  0
   -6.3584   17.6507   12.7616 C   0  0  0  0  0  0  0  0  0  0  0  0
   -5.3413   17.7182   13.8740 C   0  0  0  0  0  0  0  0  0  0  0  0
   -6.0705   17.8443   15.1732 C   0  0  0  0  0  0  0  0  0  0  0  0
  5  7  2  0  0  0
  6  7  1  0  0  0
  7  4  1  0  0  0
  4  3  1  0  0  0
  3  2  1  0  0  0
  2  1  1  0  0  0
  1  9  1  0  0  0
  9 10  1  0  0  0
 10 11  1  0  0  0
 11 12  1  0  0  0
 12 13  1  0  0  0
 13 14  1  0  0  0
 14 15  1  0  0  0
  6  8  1  0  0  0
M  END
> <minimizedAffinity>
-4.97451

$$$$
4TKB_DAO_A_200


 15 14  0  0  0  0  0  0  0  0999 V2000
   -6.6600   18.2570   15.2093 C   0  0  0  0  0  0  0  0  0  0  0  0
   -6.3443   19.4399   16.0965 C   0  0  0  0  0  0  0  0  0  0  0  0
   -7.5399   20.0142   16.8279 C   0  0  0  0  0  0  0  0  0  0  0  0
   -7.3836   21.3768   17.3736 C   0  0  0  0  0  0  0  0  0  0  0  0
   -8.1756   22.9168   19.0030 O   0  0  0  0  0  0  0  0  0  0  0  0
   -9.0709   20.9004   18.9702 O   0  0  0  0  0  0  0  0  0  0  0  0
   -8.2572   21.7630   18.5446 C   0  0  0  0  0  0  0  0  0  0  0  0
   -9.0896   20.0452   18.5879 H   0  0  0  0  0  0  0  0  0  0  0  0
   -6.3859   18.4726   13.7323 C   0  0  0  0  0  0  0  0  0  0  0  0
   -6.8958   19.7456   13.1639 C   0  0  0  0  0  0  0  0  0  0  0  0
   -6.7527   19.8672   11.6838 C   0  0  0  0  0  0  0  0  0  0  0  0
   -6.1347   21.1692   11.2273 C   0  0  0  0  0  0  0  0  0  0  0  0
   -7.1311   22.3146   11.0069 C   0  0  0  0  0  0  0  0  0  0  0  0
   -6.6090   23.7122   11.2322 C   0  0  0  0  0  0  0  0  0  0  0  0
   -6.6994   24.0199   12.6926 C   0  0  0  0  0  0  0  0  0  0  0  0
  5  7  2  0  0  0
  6  7  1  0  0  0
  7  4  1  0  0  0
  4  3  1  0  0  0
  3  2  1  0  0  0
  2  1  1  0  0  0
  1  9  1  0  0  0
  9 10  1  0  0  0
 10 11  1  0  0  0
 11 12  1  0  0  0
 12 13  1  0  0  0
 13 14  1  0  0  0
 14 15  1  0  0  0
  6  8  1  0  0  0
M  END
> <minimizedAffinity>
-4.91256

$$$$
