6FHK_ADP_A_401
  RCSB PDB10201805283D
Coordinates from PDB:6FHK:A:401 Model:1 without hydrogens
 27 29  0  0  0  0            999 V2000
   20.5830   -8.5270   67.9800   P 0  0  0  0  0  0  0  0  0  0  0  0
   20.3680   -8.0970   66.5250   O 0  0  0  0  0  0  0  0  0  0  0  0
   21.9830   -8.8160   68.3570   O 0  0  0  0  0  0  0  0  0  0  0  0
   19.5490   -9.4590   68.5250   O 0  0  0  0  0  0  0  0  0  0  0  0
   20.9780   -5.8290   69.0890   P 0  0  0  0  0  0  0  0  0  0  0  0
   21.9160   -5.5290   67.9400   O 0  0  0  0  0  0  0  0  0  0  0  0
   19.9280   -4.8520   69.4830   O 0  0  0  0  0  0  0  0  0  0  0  0
   20.1940   -7.2180   68.8750   O 0  0  0  0  0  0  0  0  0  0  0  0
   21.9390   -6.1080   70.3250   O 0  0  0  0  0  0  0  0  0  0  0  0
   21.3060   -6.4140   71.5620   C 0  0  0  0  0  0  0  0  0  0  0  0
   22.3700   -6.3850   72.6190   C 0  0  0  0  0  0  0  0  0  0  0  0
   22.8360   -5.0300   72.6660   O 0  0  0  0  0  0  0  0  0  0  0  0
   21.7830   -6.7140   73.9750   C 0  0  0  0  0  0  0  0  0  0  0  0
   22.7070   -7.5990   74.6080   O 0  0  0  0  0  0  0  0  0  0  0  0
   21.8030   -5.3630   74.6550   C 0  0  0  0  0  0  0  0  0  0  0  0
   21.9380   -5.4360   76.0750   O 0  0  0  0  0  0  0  0  0  0  0  0
   23.0260   -4.7090   74.0350   C 0  0  0  0  0  0  0  0  0  0  0  0
   22.9640   -3.2450   74.1520   N 0  0  0  0  0  0  0  0  0  0  0  0
   21.9810   -2.4480   73.6890   C 0  0  0  0  0  0  0  0  0  0  0  0
   22.2720   -1.1680   73.9710   N 0  0  0  0  0  0  0  0  0  0  0  0
   23.4640   -1.1600   74.6170   C 0  0  0  0  0  0  0  0  0  0  0  0
   24.3360   -0.1340   75.2180   C 0  0  0  0  0  0  0  0  0  0  0  0
   24.0010    1.1780   75.1810   N 0  0  0  0  0  0  0  0  0  0  0  0
   25.4910   -0.5670   75.7650   N 0  0  0  0  0  0  0  0  0  0  0  0
   25.8440   -1.8680   75.8270   C 0  0  0  0  0  0  0  0  0  0  0  0
   25.0920   -2.8540   75.3130   N 0  0  0  0  0  0  0  0  0  0  0  0
   23.9190   -2.5260   74.7250   C 0  0  0  0  0  0  0  0  0  0  0  0
  1  2  2  0  0  0  0
  1  3  1  0  0  0  0
  1  4  1  0  0  0  0
  1  8  1  0  0  0  0
  5  6  2  0  0  0  0
  5  7  1  0  0  0  0
  5  8  1  0  0  0  0
  5  9  1  0  0  0  0
  9 10  1  0  0  0  0
 10 11  1  0  0  0  0
 11 12  1  0  0  0  0
 11 13  1  0  0  0  0
 12 17  1  0  0  0  0
 13 14  1  0  0  0  0
 13 15  1  0  0  0  0
 15 16  1  0  0  0  0
 15 17  1  0  0  0  0
 17 18  1  0  0  0  0
 18 19  1  0  0  0  0
 18 27  1  0  0  0  0
 19 20  2  0  0  0  0
 20 21  1  0  0  0  0
 21 22  1  0  0  0  0
 21 27  2  0  0  0  0
 22 23  1  0  0  0  0
 22 24  2  0  0  0  0
 24 25  1  0  0  0  0
 25 26  2  0  0  0  0
 26 27  1  0  0  0  0
A    1
PB
A    2
O1B
A    3
O2B
A    4
O3B
A    5
PA
A    6
O1A
A    7
O2A
A    8
O3A
A    9
O5'
A   10
C5'
A   11
C4'
A   12
O4'
A   13
C3'
A   14
O3'
A   15
C2'
A   16
O2'
A   17
C1'
A   18
N9
A   19
C8
A   20
N7
A   21
C5
A   22
C6
A   23
N6
A   24
N1
A   25
C2
A   26
N3
A   27
C4
M  END
>  <InstanceId>
6FHK_ADP_A_401

>  <ChemCompId>
ADP

>  <PdbId>
6FHK

>  <ChainId>
A

>  <ResidueNumber>
401

>  <InsertionCode>


>  <Model>
1

>  <AltIds>


>  <MissingHeavyAtoms>
0

>  <ObservedFormula>
C10 N5 O10 P2

>  <Name>
ADENOSINE-5'-DIPHOSPHATE

>  <SystematicName>
[(2R,3S,4R,5R)-5-(6-aminopurin-9-yl)-3,4-dihydroxy-oxolan-2-yl]methyl phosphono hydrogen phosphate

>  <Synonyms>


>  <Type>
NON-POLYMER

>  <Formula>
C10 H15 N5 O10 P2

>  <MolecularWeight>
427.201

>  <ModifiedDate>
2011-06-04

>  <Parent>
A

>  <OneLetterCode>


>  <SubcomponentList>


>  <AmbiguousFlag>
N

>  <InChI>
InChI=1S/C10H15N5O10P2/c11-8-5-9(13-2-12-8)15(3-14-5)10-7(17)6(16)4(24-10)1-23-27(21,22)25-26(18,19)20/h2-4,6-7,10,16-17H,1H2,(H,21,22)(H2,11,12,13)(H2,18,19,20)/t4-,6-,7-,10-/m1/s1

>  <InChIKey>
XTWYTFMLZFPYCI-KQYNXXCUSA-N

>  <SMILES>
c1nc(c2c(n1)n(cn2)[C@H]3[C@@H]([C@@H]([C@H](O3)CO[P@](=O)(O)OP(=O)(O)O)O)O)N

$$$$
