1XH9_R69_A_351
  RCSB PDB12061704383D
Coordinates from PDB:1XH9:A:351 Model:1 without hydrogens
 37 40  0  0  0  0            999 V2000
   10.0720   39.6130    9.4250   O 0  0  0  0  0  0  0  0  0  0  0  0
   10.1020   40.8510    9.2840   C 0  0  0  0  0  0  0  0  0  0  0  0
   10.2490   41.4880    7.9680   C 0  0  0  0  0  0  0  0  0  0  0  0
   10.0960   40.7380    6.8000   C 0  0  0  0  0  0  0  0  0  0  0  0
   10.2090   41.3170    5.5390   C 0  0  0  0  0  0  0  0  0  0  0  0
   10.4740   42.6110    5.4030   N 0  0  0  0  0  0  0  0  0  0  0  0
   10.6380   43.3550    6.5060   C 0  0  0  0  0  0  0  0  0  0  0  0
   10.5300   42.8480    7.7990   C 0  0  0  0  0  0  0  0  0  0  0  0
    9.9370   41.6510   10.4070   N 0  0  0  0  0  0  0  0  0  0  0  0
    9.3990   41.1270   11.6700   C 0  0  0  0  0  0  0  0  0  0  0  0
    7.9570   41.6440   11.8140   C 0  0  0  0  0  0  0  0  0  0  0  0
    7.3140   41.0610   13.0440   N 0  0  0  0  0  0  0  0  0  0  0  0
    7.5170   41.9130   14.2990   C 0  0  0  0  0  0  0  0  0  0  0  0
    8.9340   41.8200   14.8670   C 0  0  0  0  0  0  0  0  0  0  0  0
    9.9800   42.4120   13.9090   C 0  0  0  0  0  0  0  0  0  0  0  0
   10.4410   41.4570   12.7840   C 0  0  0  0  0  0  0  0  0  0  0  0
   10.9590   40.1770   13.3160   N 0  0  0  0  0  0  0  0  0  0  0  0
   12.1220   40.1060   14.0600   C 0  0  0  0  0  0  0  0  0  0  0  0
   12.8560   41.0850   14.1060   O 0  0  0  0  0  0  0  0  0  0  0  0
   12.4330   38.8970   14.8490   C 0  0  0  0  0  0  0  0  0  0  0  0
   13.7470   38.6670   15.3180   C 0  0  0  0  0  0  0  0  0  0  0  0
   14.0360   37.5560   16.0970   C 0  0  0  0  0  0  0  0  0  0  0  0
   11.4330   37.9930   15.1920   C 0  0  0  0  0  0  0  0  0  0  0  0
   11.7310   36.8840   15.9670   C 0  0  0  0  0  0  0  0  0  0  0  0
   13.0190   36.6430   16.4290   C 0  0  0  0  0  0  0  0  0  0  0  0
   13.3100   35.5040   17.2950   C 0  0  0  0  0  0  0  0  0  0  0  0
   14.2690   35.6380   18.0900   O 0  0  0  0  0  0  0  0  0  0  0  0
   12.5680   34.2790   17.3660   C 0  0  0  0  0  0  0  0  0  0  0  0
   12.4150   33.4450   16.2240   C 0  0  0  0  0  0  0  0  0  0  0  0
   12.9030   33.7670   15.0670   O 0  0  0  0  0  0  0  0  0  0  0  0
   11.6880   32.2340   16.3820   C 0  0  0  0  0  0  0  0  0  0  0  0
   11.1520   31.8950   17.6050   C 0  0  0  0  0  0  0  0  0  0  0  0
   12.0210   33.9220   18.6160   C 0  0  0  0  0  0  0  0  0  0  0  0
   11.3170   32.7300   18.7380   C 0  0  0  0  0  0  0  0  0  0  0  0
   10.7360   32.3640   19.9810   N 0  0  0  0  0  0  0  0  0  0  0  0
   10.6010   30.9260   20.2820   C 0  0  0  0  0  0  0  0  0  0  0  0
    9.5650   33.1730   20.3690   C 0  0  0  0  0  0  0  0  0  0  0  0
  1  2  2  0  0  0  0
  2  3  1  0  0  0  0
  2  9  1  0  0  0  0
  3  4  2  0  0  0  0
  3  8  1  0  0  0  0
  4  5  1  0  0  0  0
  5  6  2  0  0  0  0
  6  7  1  0  0  0  0
  7  8  2  0  0  0  0
  9 10  1  0  0  0  0
 10 11  1  0  0  0  0
 10 16  1  0  0  0  0
 11 12  1  0  0  0  0
 12 13  1  0  0  0  0
 13 14  1  0  0  0  0
 14 15  1  0  0  0  0
 15 16  1  0  0  0  0
 16 17  1  0  0  0  0
 17 18  1  0  0  0  0
 18 19  2  0  0  0  0
 18 20  1  0  0  0  0
 20 21  2  0  0  0  0
 20 23  1  0  0  0  0
 21 22  1  0  0  0  0
 22 25  2  0  0  0  0
 23 24  2  0  0  0  0
 24 25  1  0  0  0  0
 25 26  1  0  0  0  0
 26 27  2  0  0  0  0
 26 28  1  0  0  0  0
 28 29  2  0  0  0  0
 28 33  1  0  0  0  0
 29 30  1  0  0  0  0
 29 31  1  0  0  0  0
 31 32  2  0  0  0  0
 32 34  1  0  0  0  0
 33 34  2  0  0  0  0
 34 35  1  0  0  0  0
 35 36  1  0  0  0  0
 35 37  1  0  0  0  0
A    1
O22
A    2
C21
A    3
C14
A    4
C13
A    5
C12
A    6
N11
A    7
C16
A    8
C15
A    9
N23
A   10
C31
A   11
C32
A   12
N33
A   13
C34
A   14
C35
A   15
C36
A   16
C37
A   17
N41
A   18
C42
A   19
O43
A   20
C51
A   21
C52
A   22
C53
A   23
C56
A   24
C55
A   25
C54
A   26
C61
A   27
O62
A   28
C71
A   29
C72
A   30
O92
A   31
C73
A   32
C74
A   33
C76
A   34
C75
A   35
N95
A   36
C98
A   37
C99
M  END
>  <InstanceId>
1XH9_R69_A_351

>  <ChemCompId>
R69

>  <PdbId>
1XH9

>  <ChainId>
A

>  <ResidueNumber>
351

>  <InsertionCode>


>  <Model>
1

>  <AltIds>


>  <MissingHeavyAtoms>
0

>  <ObservedFormula>
C28 N5 O4

>  <Name>
N-[4-({4-[5-(DIMETHYLAMINO)-2-HYDROXYBENZOYL]BENZOYL}AMINO)AZEPAN-3-YL]ISONICOTINAMIDE

>  <SystematicName>
N-[(3R,4R)-4-[[4-(5-dimethylamino-2-hydroxy-phenyl)carbonylphenyl]carbonylamino]azepan-3-yl]pyridine-4-carboxamide

>  <Synonyms>


>  <Type>
NON-POLYMER

>  <Formula>
C28 H31 N5 O4

>  <MolecularWeight>
501.577

>  <ModifiedDate>
2011-06-04

>  <Parent>


>  <OneLetterCode>


>  <SubcomponentList>


>  <AmbiguousFlag>
N

>  <InChI>
InChI=1S/C28H31N5O4/c1-33(2)21-9-10-25(34)22(16-21)26(35)18-5-7-19(8-6-18)27(36)31-23-4-3-13-30-17-24(23)32-28(37)20-11-14-29-15-12-20/h5-12,14-16,23-24,30,34H,3-4,13,17H2,1-2H3,(H,31,36)(H,32,37)/t23-,24-/m1/s1

>  <InChIKey>
NYQLXXDGJNYPPH-DNQXCXABSA-N

>  <SMILES>
CN(C)c1ccc(c(c1)C(=O)c2ccc(cc2)C(=O)N[C@@H]3CCCNC[C@H]3NC(=O)c4ccncc4)O

$$$$
