5JSG_6P9_A_301


 44 49  0  0  0  0  0  0  0  0999 V2000
   12.9828   38.6769   21.5983 C   0  0  0  0  0  0  0  0  0  0  0  0
   12.1417   39.5712   22.3466 C   0  0  0  0  0  0  0  0  0  0  0  0
   11.3926   40.5558   21.6162 C   0  0  0  0  0  0  0  0  0  0  0  0
   11.3991   40.7158   20.1993 C   0  0  0  0  0  0  0  0  0  0  0  0
   12.2368   39.8204   19.5588 C   0  0  0  0  0  0  0  0  0  0  0  0
   12.9866   38.8540   20.2070 C   0  0  0  0  0  0  0  0  0  0  0  0
   11.9170   35.9186   22.2083 C   0  0  0  0  0  0  0  0  0  0  0  0
   11.7037   34.5398   21.5499 C   0  0  0  0  0  0  0  0  0  0  0  0
   15.0049   37.7746   22.4435 O   0  0  0  0  0  0  0  0  0  0  0  0
   13.8512   37.5712   22.2008 C   0  0  0  0  0  0  0  0  0  0  0  0
   13.2840   36.2898   22.4540 N   0  0  0  0  0  0  0  0  0  0  0  0
   14.0397   35.1675   23.0230 C   0  0  0  0  0  0  0  0  0  0  0  0
   14.2136   34.0534   21.9901 C   0  0  0  0  0  0  0  0  0  0  0  0
   12.9884   33.8081   21.0919 C   0  0  0  0  0  0  0  0  0  0  0  0
   12.6685   32.3256   20.9445 C   0  0  0  0  0  0  0  0  0  0  0  0
   11.2762   32.0963   20.3319 C   0  0  0  0  0  0  0  0  0  0  0  0
   13.2860   30.1579   18.2053 C   0  0  0  0  0  0  0  0  0  0  0  0
   12.0886   30.4475   17.3012 C   0  0  0  0  0  0  0  0  0  0  0  0
   11.0647   31.1884   18.1695 C   0  0  0  0  0  0  0  0  0  0  0  0
   12.7986   30.3477   19.6349 C   0  0  0  0  0  0  0  0  0  0  0  0
   11.3504   30.7876   19.5810 N   0  0  0  0  0  0  0  0  0  0  0  0
   10.5923   41.7940   19.4217 C   0  0  0  0  0  0  0  0  0  0  0  0
   10.9650   43.1734   19.3755 N   0  0  0  0  0  0  0  0  0  0  0  0
   10.2248   44.2637   18.6230 C   0  0  0  0  0  0  0  0  0  0  0  0
   11.1762   45.1072   17.7203 C   0  0  0  0  0  0  0  0  0  0  0  0
   12.3522   45.6853   18.4862 C   0  0  0  0  0  0  0  0  0  0  0  0
   13.0798   44.5292   19.1485 C   0  0  0  0  0  0  0  0  0  0  0  0
   12.1211   43.7559   20.0528 C   0  0  0  0  0  0  0  0  0  0  0  0
    9.6128   41.4591   18.8096 O   0  0  0  0  0  0  0  0  0  0  0  0
   13.2742   46.4725   17.6076 C   0  0  0  0  0  0  0  0  0  0  0  0
   12.5494   46.8119   16.2777 C   0  0  0  0  0  0  0  0  0  0  0  0
   12.2198   48.2351   16.3177 N   0  0  0  0  0  0  0  0  0  0  0  0
   13.0536   48.7116   17.4497 C   0  0  0  0  0  0  0  0  0  0  0  0
   13.4856   50.1367   17.0765 C   0  0  0  0  0  0  0  0  0  0  0  0
   13.1212   50.3118   15.5992 C   0  0  0  0  0  0  0  0  0  0  0  0
   12.8121   48.9056   15.1218 C   0  0  0  0  0  0  0  0  0  0  0  0
   12.0780   39.4613   23.7821 N   0  0  0  0  0  0  0  0  0  0  0  0
   11.5103   38.7248   24.1055 H   0  0  0  0  0  0  0  0  0  0  0  0
   12.7039   40.2455   24.8440 C   0  0  0  0  0  0  0  0  0  0  0  0
   14.0308   40.0036   25.2639 C   0  0  0  0  0  0  0  0  0  0  0  0
   14.6378   40.7462   26.2838 C   0  0  0  0  0  0  0  0  0  0  0  0
   13.9599   41.7658   26.9387 C   0  0  0  0  0  0  0  0  0  0  0  0
   12.6531   42.0271   26.5497 C   0  0  0  0  0  0  0  0  0  0  0  0
   12.0358   41.2899   25.5369 C   0  0  0  0  0  0  0  0  0  0  0  0
 20 17  1  0  0  0
 20 21  1  0  0  0
 17 18  1  0  0  0
 16 21  1  0  0  0
 16 15  1  0  0  0
 21 19  1  0  0  0
 18 19  1  0  0  0
 13 14  1  0  0  0
 13 12  1  0  0  0
 35 36  1  0  0  0
 35 34  1  0  0  0
 15 14  1  0  0  0
 36 32  1  0  0  0
 14  8  1  0  0  0
 12 11  1  0  0  0
  9 10  2  0  0  0
 34 33  1  0  0  0
 32 33  1  0  0  0
 32 31  1  0  0  0
 11 10  1  0  0  0
 11  7  1  0  0  0
 10  1  1  0  0  0
  8  7  1  0  0  0
 31 30  1  0  0  0
  6  1  2  0  0  0
  6  5  1  0  0  0
  1  2  1  0  0  0
 30 26  1  0  0  0
 27 26  1  0  0  0
 27 28  1  0  0  0
  5  4  2  0  0  0
  2 37  1  0  0  0
  2  3  2  0  0  0
 26 25  1  0  0  0
 28 23  1  0  0  0
 37 39  1  0  0  0
  4  3  1  0  0  0
  4 22  1  0  0  0
 40 39  2  0  0  0
 40 41  1  0  0  0
 25 24  1  0  0  0
 23 22  1  0  0  0
 23 24  1  0  0  0
 39 44  1  0  0  0
 22 29  2  0  0  0
 41 42  2  0  0  0
 44 43  2  0  0  0
 42 43  1  0  0  0
 37 38  1  0  0  0
M  END
> <minimizedAffinity>
-10.19100

$$$$
5JSG_6P9_A_301


 44 49  0  0  0  0  0  0  0  0999 V2000
   11.3495   40.9595   20.2000 C   0  0  0  0  0  0  0  0  0  0  0  0
   11.2301   40.7011   21.6093 C   0  0  0  0  0  0  0  0  0  0  0  0
   12.0922   39.7059   22.1840 C   0  0  0  0  0  0  0  0  0  0  0  0
   13.0755   38.9551   21.4750 C   0  0  0  0  0  0  0  0  0  0  0  0
   13.1202   39.2616   20.1267 C   0  0  0  0  0  0  0  0  0  0  0  0
   12.3134   40.2054   19.5148 C   0  0  0  0  0  0  0  0  0  0  0  0
   12.0018   43.9072   20.1563 C   0  0  0  0  0  0  0  0  0  0  0  0
   12.8546   44.9382   19.3883 C   0  0  0  0  0  0  0  0  0  0  0  0
    9.5718   41.6199   18.7785 O   0  0  0  0  0  0  0  0  0  0  0  0
   10.5189   41.9771   19.4161 C   0  0  0  0  0  0  0  0  0  0  0  0
   10.8904   43.3516   19.4331 N   0  0  0  0  0  0  0  0  0  0  0  0
   10.1593   44.3974   18.7076 C   0  0  0  0  0  0  0  0  0  0  0  0
   11.0082   44.9585   17.5662 C   0  0  0  0  0  0  0  0  0  0  0  0
   12.5036   45.1191   17.8918 C   0  0  0  0  0  0  0  0  0  0  0  0
   13.0537   46.4629   17.4300 C   0  0  0  0  0  0  0  0  0  0  0  0
   12.3788   46.9457   16.1346 C   0  0  0  0  0  0  0  0  0  0  0  0
   13.1080   50.3346   15.5844 C   0  0  0  0  0  0  0  0  0  0  0  0
   13.2439   50.2436   17.1038 C   0  0  0  0  0  0  0  0  0  0  0  0
   12.8162   48.8222   17.4883 C   0  0  0  0  0  0  0  0  0  0  0  0
   12.2398   49.1580   15.1612 C   0  0  0  0  0  0  0  0  0  0  0  0
   11.9037   48.3548   16.4004 N   0  0  0  0  0  0  0  0  0  0  0  0
   13.9945   37.8716   22.1071 C   0  0  0  0  0  0  0  0  0  0  0  0
   13.5730   36.5272   22.3496 N   0  0  0  0  0  0  0  0  0  0  0  0
   14.4297   35.4274   22.9493 C   0  0  0  0  0  0  0  0  0  0  0  0
   14.3975   34.1232   22.0953 C   0  0  0  0  0  0  0  0  0  0  0  0
   12.9870   33.6258   21.8364 C   0  0  0  0  0  0  0  0  0  0  0  0
   12.2184   34.7544   21.1729 C   0  0  0  0  0  0  0  0  0  0  0  0
   12.2422   35.9975   22.0613 C   0  0  0  0  0  0  0  0  0  0  0  0
   15.1254   38.1630   22.3945 O   0  0  0  0  0  0  0  0  0  0  0  0
   12.9637   32.3878   20.9947 C   0  0  0  0  0  0  0  0  0  0  0  0
   11.4921   31.9470   20.7720 C   0  0  0  0  0  0  0  0  0  0  0  0
   11.4939   30.9758   19.6800 N   0  0  0  0  0  0  0  0  0  0  0  0
   11.5849   31.8548   18.4873 C   0  0  0  0  0  0  0  0  0  0  0  0
   12.4276   31.0807   17.4639 C   0  0  0  0  0  0  0  0  0  0  0  0
   13.0379   29.9025   18.2290 C   0  0  0  0  0  0  0  0  0  0  0  0
   12.7920   30.2373   19.6879 C   0  0  0  0  0  0  0  0  0  0  0  0
   10.2637   41.4299   22.3915 N   0  0  0  0  0  0  0  0  0  0  0  0
    9.3273   41.2446   22.1505 H   0  0  0  0  0  0  0  0  0  0  0  0
   10.4229   42.3941   23.4775 C   0  0  0  0  0  0  0  0  0  0  0  0
   10.8704   42.0036   24.7592 C   0  0  0  0  0  0  0  0  0  0  0  0
   11.0215   42.9190   25.8077 C   0  0  0  0  0  0  0  0  0  0  0  0
   10.7364   44.2673   25.6383 C   0  0  0  0  0  0  0  0  0  0  0  0
   10.2929   44.6825   24.3901 C   0  0  0  0  0  0  0  0  0  0  0  0
   10.1340   43.7777   23.3381 C   0  0  0  0  0  0  0  0  0  0  0  0
 20 17  1  0  0  0
 20 21  1  0  0  0
 17 18  1  0  0  0
 16 21  1  0  0  0
 16 15  1  0  0  0
 21 19  1  0  0  0
 18 19  1  0  0  0
 13 14  1  0  0  0
 13 12  1  0  0  0
 35 36  1  0  0  0
 35 34  1  0  0  0
 15 14  1  0  0  0
 36 32  1  0  0  0
 14  8  1  0  0  0
 12 11  1  0  0  0
  9 10  2  0  0  0
 34 33  1  0  0  0
 32 33  1  0  0  0
 32 31  1  0  0  0
 11 10  1  0  0  0
 11  7  1  0  0  0
 10  1  1  0  0  0
  8  7  1  0  0  0
 31 30  1  0  0  0
  6  1  2  0  0  0
  6  5  1  0  0  0
  1  2  1  0  0  0
 30 26  1  0  0  0
 27 26  1  0  0  0
 27 28  1  0  0  0
  5  4  2  0  0  0
  2 37  1  0  0  0
  2  3  2  0  0  0
 26 25  1  0  0  0
 28 23  1  0  0  0
 37 39  1  0  0  0
  4  3  1  0  0  0
  4 22  1  0  0  0
 40 39  2  0  0  0
 40 41  1  0  0  0
 25 24  1  0  0  0
 23 22  1  0  0  0
 23 24  1  0  0  0
 39 44  1  0  0  0
 22 29  2  0  0  0
 41 42  2  0  0  0
 44 43  2  0  0  0
 42 43  1  0  0  0
 37 38  1  0  0  0
M  END
> <minimizedAffinity>
-10.16821

$$$$
5JSG_6P9_A_301


 44 49  0  0  0  0  0  0  0  0999 V2000
   11.1201   40.7480   20.4464 C   0  0  0  0  0  0  0  0  0  0  0  0
   11.5358   39.8258   19.4248 C   0  0  0  0  0  0  0  0  0  0  0  0
   12.4929   38.8157   19.7823 C   0  0  0  0  0  0  0  0  0  0  0  0
   13.0611   38.6371   21.0778 C   0  0  0  0  0  0  0  0  0  0  0  0
   12.6119   39.5679   21.9974 C   0  0  0  0  0  0  0  0  0  0  0  0
   11.6961   40.5660   21.7122 C   0  0  0  0  0  0  0  0  0  0  0  0
   11.9678   43.6084   19.9819 C   0  0  0  0  0  0  0  0  0  0  0  0
   12.3485   44.5797   18.8453 C   0  0  0  0  0  0  0  0  0  0  0  0
    8.9405   41.6627   20.2725 O   0  0  0  0  0  0  0  0  0  0  0  0
   10.1158   41.8854   20.2526 C   0  0  0  0  0  0  0  0  0  0  0  0
   10.5872   43.2102   20.0285 N   0  0  0  0  0  0  0  0  0  0  0  0
    9.7004   44.3622   19.8258 C   0  0  0  0  0  0  0  0  0  0  0  0
    9.8123   44.8857   18.3933 C   0  0  0  0  0  0  0  0  0  0  0  0
   11.2360   44.8704   17.8093 C   0  0  0  0  0  0  0  0  0  0  0  0
   11.5788   46.1694   17.0903 C   0  0  0  0  0  0  0  0  0  0  0  0
   12.6110   47.0023   17.8695 C   0  0  0  0  0  0  0  0  0  0  0  0
   12.0100   49.4930   15.4705 C   0  0  0  0  0  0  0  0  0  0  0  0
   13.2318   50.0618   16.1907 C   0  0  0  0  0  0  0  0  0  0  0  0
   13.5177   49.1158   17.3631 C   0  0  0  0  0  0  0  0  0  0  0  0
   11.3682   48.5034   16.4329 C   0  0  0  0  0  0  0  0  0  0  0  0
   12.2188   48.4494   17.6848 N   0  0  0  0  0  0  0  0  0  0  0  0
   14.1058   37.5466   21.4488 C   0  0  0  0  0  0  0  0  0  0  0  0
   13.7588   36.2999   22.0564 N   0  0  0  0  0  0  0  0  0  0  0  0
   14.7326   35.1962   22.4263 C   0  0  0  0  0  0  0  0  0  0  0  0
   14.2816   33.8058   21.8833 C   0  0  0  0  0  0  0  0  0  0  0  0
   12.8697   33.4411   22.3043 C   0  0  0  0  0  0  0  0  0  0  0  0
   11.9505   34.5552   21.8367 C   0  0  0  0  0  0  0  0  0  0  0  0
   12.4053   35.8906   22.4239 C   0  0  0  0  0  0  0  0  0  0  0  0
   15.2659   37.7434   21.2004 O   0  0  0  0  0  0  0  0  0  0  0  0
   12.4353   32.1165   21.7580 C   0  0  0  0  0  0  0  0  0  0  0  0
   11.2069   32.3220   20.8316 C   0  0  0  0  0  0  0  0  0  0  0  0
   11.3956   31.4582   19.6680 N   0  0  0  0  0  0  0  0  0  0  0  0
   12.1881   32.3292   18.7643 C   0  0  0  0  0  0  0  0  0  0  0  0
   13.1375   31.3891   18.0083 C   0  0  0  0  0  0  0  0  0  0  0  0
   13.0540   30.0405   18.7295 C   0  0  0  0  0  0  0  0  0  0  0  0
   12.3362   30.3555   20.0281 C   0  0  0  0  0  0  0  0  0  0  0  0
   10.9953   39.9404   18.0938 N   0  0  0  0  0  0  0  0  0  0  0  0
   11.4977   40.5492   17.5054 H   0  0  0  0  0  0  0  0  0  0  0  0
    9.8363   39.3163   17.4601 C   0  0  0  0  0  0  0  0  0  0  0  0
    8.6005   39.9904   17.3414 C   0  0  0  0  0  0  0  0  0  0  0  0
    7.4828   39.3992   16.7403 C   0  0  0  0  0  0  0  0  0  0  0  0
    7.5339   38.1101   16.2269 C   0  0  0  0  0  0  0  0  0  0  0  0
    8.7343   37.4204   16.3296 C   0  0  0  0  0  0  0  0  0  0  0  0
    9.8544   37.9982   16.9313 C   0  0  0  0  0  0  0  0  0  0  0  0
 20 17  1  0  0  0
 20 21  1  0  0  0
 17 18  1  0  0  0
 16 21  1  0  0  0
 16 15  1  0  0  0
 21 19  1  0  0  0
 18 19  1  0  0  0
 13 14  1  0  0  0
 13 12  1  0  0  0
 35 36  1  0  0  0
 35 34  1  0  0  0
 15 14  1  0  0  0
 36 32  1  0  0  0
 14  8  1  0  0  0
 12 11  1  0  0  0
  9 10  2  0  0  0
 34 33  1  0  0  0
 32 33  1  0  0  0
 32 31  1  0  0  0
 11 10  1  0  0  0
 11  7  1  0  0  0
 10  1  1  0  0  0
  8  7  1  0  0  0
 31 30  1  0  0  0
  6  1  2  0  0  0
  6  5  1  0  0  0
  1  2  1  0  0  0
 30 26  1  0  0  0
 27 26  1  0  0  0
 27 28  1  0  0  0
  5  4  2  0  0  0
  2 37  1  0  0  0
  2  3  2  0  0  0
 26 25  1  0  0  0
 28 23  1  0  0  0
 37 39  1  0  0  0
  4  3  1  0  0  0
  4 22  1  0  0  0
 40 39  2  0  0  0
 40 41  1  0  0  0
 25 24  1  0  0  0
 23 22  1  0  0  0
 23 24  1  0  0  0
 39 44  1  0  0  0
 22 29  2  0  0  0
 41 42  2  0  0  0
 44 43  2  0  0  0
 42 43  1  0  0  0
 37 38  1  0  0  0
M  END
> <minimizedAffinity>
-9.84960

$$$$
5JSG_6P9_A_301


 44 49  0  0  0  0  0  0  0  0999 V2000
   11.2772   40.9693   20.3000 C   0  0  0  0  0  0  0  0  0  0  0  0
   11.1262   40.6991   21.7040 C   0  0  0  0  0  0  0  0  0  0  0  0
   11.9701   39.6935   22.2879 C   0  0  0  0  0  0  0  0  0  0  0  0
   12.9639   38.9432   21.5932 C   0  0  0  0  0  0  0  0  0  0  0  0
   13.0391   39.2615   20.2490 C   0  0  0  0  0  0  0  0  0  0  0  0
   12.2510   40.2157   19.6286 C   0  0  0  0  0  0  0  0  0  0  0  0
   12.0021   43.8993   20.2230 C   0  0  0  0  0  0  0  0  0  0  0  0
   12.8777   44.9007   19.4415 C   0  0  0  0  0  0  0  0  0  0  0  0
    9.5116   41.6586   18.8770 O   0  0  0  0  0  0  0  0  0  0  0  0
   10.4694   41.9989   19.5079 C   0  0  0  0  0  0  0  0  0  0  0  0
   10.8749   43.3639   19.5091 N   0  0  0  0  0  0  0  0  0  0  0  0
   10.1675   44.4198   18.7749 C   0  0  0  0  0  0  0  0  0  0  0  0
   11.0262   44.9477   17.6250 C   0  0  0  0  0  0  0  0  0  0  0  0
   12.5262   45.0745   17.9442 C   0  0  0  0  0  0  0  0  0  0  0  0
   13.1079   46.3994   17.4665 C   0  0  0  0  0  0  0  0  0  0  0  0
   12.3914   46.9215   16.2094 C   0  0  0  0  0  0  0  0  0  0  0  0
   13.0989   50.3010   15.5781 C   0  0  0  0  0  0  0  0  0  0  0  0
   13.3900   50.2104   17.0755 C   0  0  0  0  0  0  0  0  0  0  0  0
   12.9880   48.7947   17.5058 C   0  0  0  0  0  0  0  0  0  0  0  0
   12.1781   49.1341   15.2498 C   0  0  0  0  0  0  0  0  0  0  0  0
   11.9626   48.3365   16.5192 N   0  0  0  0  0  0  0  0  0  0  0  0
   13.8629   37.8486   22.2348 C   0  0  0  0  0  0  0  0  0  0  0  0
   13.4425   36.4947   22.4194 N   0  0  0  0  0  0  0  0  0  0  0  0
   14.2808   35.3843   23.0254 C   0  0  0  0  0  0  0  0  0  0  0  0
   14.2981   34.1052   22.1339 C   0  0  0  0  0  0  0  0  0  0  0  0
   12.9049   33.6052   21.7975 C   0  0  0  0  0  0  0  0  0  0  0  0
   12.1572   34.7470   21.1327 C   0  0  0  0  0  0  0  0  0  0  0  0
   12.1306   35.9639   22.0564 C   0  0  0  0  0  0  0  0  0  0  0  0
   14.9772   38.1398   22.5810 O   0  0  0  0  0  0  0  0  0  0  0  0
   12.9300   32.3920   20.9207 C   0  0  0  0  0  0  0  0  0  0  0  0
   11.4748   31.9223   20.6537 C   0  0  0  0  0  0  0  0  0  0  0  0
   11.5495   30.7923   19.7300 N   0  0  0  0  0  0  0  0  0  0  0  0
   11.1380   31.4163   18.4475 C   0  0  0  0  0  0  0  0  0  0  0  0
   11.9532   30.7046   17.3587 C   0  0  0  0  0  0  0  0  0  0  0  0
   13.0243   29.8968   18.0978 C   0  0  0  0  0  0  0  0  0  0  0  0
   12.9831   30.4324   19.5164 C   0  0  0  0  0  0  0  0  0  0  0  0
   10.1476   41.4266   22.4721 N   0  0  0  0  0  0  0  0  0  0  0  0
   10.5313   42.0936   23.0861 H   0  0  0  0  0  0  0  0  0  0  0  0
    8.6889   41.3528   22.5039 C   0  0  0  0  0  0  0  0  0  0  0  0
    7.8936   42.4791   22.8116 C   0  0  0  0  0  0  0  0  0  0  0  0
    6.4955   42.4175   22.8494 C   0  0  0  0  0  0  0  0  0  0  0  0
    5.8155   41.2363   22.5842 C   0  0  0  0  0  0  0  0  0  0  0  0
    6.5691   40.1108   22.2797 C   0  0  0  0  0  0  0  0  0  0  0  0
    7.9643   40.1592   22.2436 C   0  0  0  0  0  0  0  0  0  0  0  0
 20 17  1  0  0  0
 20 21  1  0  0  0
 17 18  1  0  0  0
 16 21  1  0  0  0
 16 15  1  0  0  0
 21 19  1  0  0  0
 18 19  1  0  0  0
 13 14  1  0  0  0
 13 12  1  0  0  0
 35 36  1  0  0  0
 35 34  1  0  0  0
 15 14  1  0  0  0
 36 32  1  0  0  0
 14  8  1  0  0  0
 12 11  1  0  0  0
  9 10  2  0  0  0
 34 33  1  0  0  0
 32 33  1  0  0  0
 32 31  1  0  0  0
 11 10  1  0  0  0
 11  7  1  0  0  0
 10  1  1  0  0  0
  8  7  1  0  0  0
 31 30  1  0  0  0
  6  1  2  0  0  0
  6  5  1  0  0  0
  1  2  1  0  0  0
 30 26  1  0  0  0
 27 26  1  0  0  0
 27 28  1  0  0  0
  5  4  2  0  0  0
  2 37  1  0  0  0
  2  3  2  0  0  0
 26 25  1  0  0  0
 28 23  1  0  0  0
 37 39  1  0  0  0
  4  3  1  0  0  0
  4 22  1  0  0  0
 40 39  2  0  0  0
 40 41  1  0  0  0
 25 24  1  0  0  0
 23 22  1  0  0  0
 23 24  1  0  0  0
 39 44  1  0  0  0
 22 29  2  0  0  0
 41 42  2  0  0  0
 44 43  2  0  0  0
 42 43  1  0  0  0
 37 38  1  0  0  0
M  END
> <minimizedAffinity>
-9.58094

$$$$
5JSG_6P9_A_301


 44 49  0  0  0  0  0  0  0  0999 V2000
   10.3462   39.3110   22.3695 C   0  0  0  0  0  0  0  0  0  0  0  0
   11.3959   39.9981   21.6674 C   0  0  0  0  0  0  0  0  0  0  0  0
   11.0188   41.0191   20.7295 C   0  0  0  0  0  0  0  0  0  0  0  0
    9.6823   41.4245   20.4421 C   0  0  0  0  0  0  0  0  0  0  0  0
    8.7363   40.7104   21.1556 C   0  0  0  0  0  0  0  0  0  0  0  0
    9.0369   39.7136   22.0679 C   0  0  0  0  0  0  0  0  0  0  0  0
    9.9492   36.3901   21.7161 C   0  0  0  0  0  0  0  0  0  0  0  0
   10.7099   35.1689   21.1592 C   0  0  0  0  0  0  0  0  0  0  0  0
   10.8963   38.4657   24.5143 O   0  0  0  0  0  0  0  0  0  0  0  0
   10.5544   38.1992   23.3993 C   0  0  0  0  0  0  0  0  0  0  0  0
   10.3579   36.8412   23.0185 N   0  0  0  0  0  0  0  0  0  0  0  0
   10.5401   35.7087   23.9342 C   0  0  0  0  0  0  0  0  0  0  0  0
   11.7457   34.8649   23.5182 C   0  0  0  0  0  0  0  0  0  0  0  0
   11.9186   34.6902   21.9991 C   0  0  0  0  0  0  0  0  0  0  0  0
   12.2271   33.2481   21.6155 C   0  0  0  0  0  0  0  0  0  0  0  0
   13.2018   33.1651   20.4283 C   0  0  0  0  0  0  0  0  0  0  0  0
   12.6451   31.3300   17.4886 C   0  0  0  0  0  0  0  0  0  0  0  0
   11.4076   30.9640   18.3071 C   0  0  0  0  0  0  0  0  0  0  0  0
   11.5986   31.6087   19.6851 C   0  0  0  0  0  0  0  0  0  0  0  0
   13.6922   31.8060   18.4857 C   0  0  0  0  0  0  0  0  0  0  0  0
   13.0737   31.7683   19.8677 N   0  0  0  0  0  0  0  0  0  0  0  0
    9.2869   42.5234   19.4154 C   0  0  0  0  0  0  0  0  0  0  0  0
   10.0097   43.7465   19.2555 N   0  0  0  0  0  0  0  0  0  0  0  0
    9.6781   44.8451   18.2624 C   0  0  0  0  0  0  0  0  0  0  0  0
   10.9202   45.2770   17.4246 C   0  0  0  0  0  0  0  0  0  0  0  0
   12.1030   45.6726   18.2897 C   0  0  0  0  0  0  0  0  0  0  0  0
   12.4164   44.4994   19.2006 C   0  0  0  0  0  0  0  0  0  0  0  0
   11.1853   44.1367   20.0301 C   0  0  0  0  0  0  0  0  0  0  0  0
    8.3370   42.3383   18.7016 O   0  0  0  0  0  0  0  0  0  0  0  0
   13.2993   46.0616   17.4778 C   0  0  0  0  0  0  0  0  0  0  0  0
   13.7090   47.5160   17.8331 C   0  0  0  0  0  0  0  0  0  0  0  0
   12.7603   48.4058   17.1669 N   0  0  0  0  0  0  0  0  0  0  0  0
   13.4779   49.7046   17.2060 C   0  0  0  0  0  0  0  0  0  0  0  0
   13.0975   50.4289   15.9070 C   0  0  0  0  0  0  0  0  0  0  0  0
   12.4036   49.3816   15.0310 C   0  0  0  0  0  0  0  0  0  0  0  0
   12.7085   48.0621   15.7143 C   0  0  0  0  0  0  0  0  0  0  0  0
   12.7716   39.6474   21.9148 N   0  0  0  0  0  0  0  0  0  0  0  0
   13.2514   40.2813   22.4954 H   0  0  0  0  0  0  0  0  0  0  0  0
   13.5827   38.5208   21.4594 C   0  0  0  0  0  0  0  0  0  0  0  0
   13.7227   38.2111   20.0882 C   0  0  0  0  0  0  0  0  0  0  0  0
   14.4936   37.1310   19.6421 C   0  0  0  0  0  0  0  0  0  0  0  0
   15.1642   36.3034   20.5328 C   0  0  0  0  0  0  0  0  0  0  0  0
   15.0452   36.5807   21.8879 C   0  0  0  0  0  0  0  0  0  0  0  0
   14.2753   37.6526   22.3448 C   0  0  0  0  0  0  0  0  0  0  0  0
 20 17  1  0  0  0
 20 21  1  0  0  0
 17 18  1  0  0  0
 16 21  1  0  0  0
 16 15  1  0  0  0
 21 19  1  0  0  0
 18 19  1  0  0  0
 13 14  1  0  0  0
 13 12  1  0  0  0
 35 36  1  0  0  0
 35 34  1  0  0  0
 15 14  1  0  0  0
 36 32  1  0  0  0
 14  8  1  0  0  0
 12 11  1  0  0  0
  9 10  2  0  0  0
 34 33  1  0  0  0
 32 33  1  0  0  0
 32 31  1  0  0  0
 11 10  1  0  0  0
 11  7  1  0  0  0
 10  1  1  0  0  0
  8  7  1  0  0  0
 31 30  1  0  0  0
  6  1  2  0  0  0
  6  5  1  0  0  0
  1  2  1  0  0  0
 30 26  1  0  0  0
 27 26  1  0  0  0
 27 28  1  0  0  0
  5  4  2  0  0  0
  2 37  1  0  0  0
  2  3  2  0  0  0
 26 25  1  0  0  0
 28 23  1  0  0  0
 37 39  1  0  0  0
  4  3  1  0  0  0
  4 22  1  0  0  0
 40 39  2  0  0  0
 40 41  1  0  0  0
 25 24  1  0  0  0
 23 22  1  0  0  0
 23 24  1  0  0  0
 39 44  1  0  0  0
 22 29  2  0  0  0
 41 42  2  0  0  0
 44 43  2  0  0  0
 42 43  1  0  0  0
 37 38  1  0  0  0
M  END
> <minimizedAffinity>
-9.07067

$$$$
5JSG_6P9_A_301


 44 49  0  0  0  0  0  0  0  0999 V2000
   13.4761   37.3995   21.2610 C   0  0  0  0  0  0  0  0  0  0  0  0
   12.7662   36.9581   20.0913 C   0  0  0  0  0  0  0  0  0  0  0  0
   11.8821   37.8921   19.4511 C   0  0  0  0  0  0  0  0  0  0  0  0
   11.6560   39.2363   19.8698 C   0  0  0  0  0  0  0  0  0  0  0  0
   12.3726   39.5765   21.0031 C   0  0  0  0  0  0  0  0  0  0  0  0
   13.2348   38.7203   21.6664 C   0  0  0  0  0  0  0  0  0  0  0  0
   12.6039   35.6974   23.5972 C   0  0  0  0  0  0  0  0  0  0  0  0
   12.0699   34.2873   23.9238 C   0  0  0  0  0  0  0  0  0  0  0  0
   15.6165   36.5297   21.7899 O   0  0  0  0  0  0  0  0  0  0  0  0
   14.4543   36.5487   22.0729 C   0  0  0  0  0  0  0  0  0  0  0  0
   13.9710   35.7623   23.1572 N   0  0  0  0  0  0  0  0  0  0  0  0
   14.8317   34.9111   23.9874 C   0  0  0  0  0  0  0  0  0  0  0  0
   14.5138   33.4330   23.7582 C   0  0  0  0  0  0  0  0  0  0  0  0
   13.0189   33.1136   23.5812 C   0  0  0  0  0  0  0  0  0  0  0  0
   12.5888   31.8975   24.3924 C   0  0  0  0  0  0  0  0  0  0  0  0
   11.2102   32.1000   25.0444 C   0  0  0  0  0  0  0  0  0  0  0  0
   10.3756   29.2724   23.1398 C   0  0  0  0  0  0  0  0  0  0  0  0
    8.9908   29.7931   23.5224 C   0  0  0  0  0  0  0  0  0  0  0  0
    9.2238   30.9691   24.4783 C   0  0  0  0  0  0  0  0  0  0  0  0
   11.3470   29.8507   24.1592 C   0  0  0  0  0  0  0  0  0  0  0  0
   10.5617   30.7369   25.1035 N   0  0  0  0  0  0  0  0  0  0  0  0
   10.6867   40.2339   19.1745 C   0  0  0  0  0  0  0  0  0  0  0  0
   10.7020   41.6428   19.4164 N   0  0  0  0  0  0  0  0  0  0  0  0
    9.7911   42.6622   18.7575 C   0  0  0  0  0  0  0  0  0  0  0  0
   10.5856   43.8633   18.1597 C   0  0  0  0  0  0  0  0  0  0  0  0
   11.4935   44.5309   19.1766 C   0  0  0  0  0  0  0  0  0  0  0  0
   12.4180   43.4639   19.7347 C   0  0  0  0  0  0  0  0  0  0  0  0
   11.5985   42.3276   20.3449 C   0  0  0  0  0  0  0  0  0  0  0  0
    9.8910   39.8125   18.3773 O   0  0  0  0  0  0  0  0  0  0  0  0
   12.2715   45.6668   18.5885 C   0  0  0  0  0  0  0  0  0  0  0  0
   11.3395   46.5080   17.6757 C   0  0  0  0  0  0  0  0  0  0  0  0
   12.1678   47.5301   17.0394 N   0  0  0  0  0  0  0  0  0  0  0  0
   12.6815   46.8106   15.8469 C   0  0  0  0  0  0  0  0  0  0  0  0
   12.7849   47.8663   14.7372 C   0  0  0  0  0  0  0  0  0  0  0  0
   12.0406   49.0985   15.2602 C   0  0  0  0  0  0  0  0  0  0  0  0
   11.2821   48.5901   16.4715 C   0  0  0  0  0  0  0  0  0  0  0  0
   12.9532   35.6145   19.6049 N   0  0  0  0  0  0  0  0  0  0  0  0
   13.6282   35.5335   18.8928 H   0  0  0  0  0  0  0  0  0  0  0  0
   12.3219   34.3509   19.9778 C   0  0  0  0  0  0  0  0  0  0  0  0
   10.9978   34.2968   20.4671 C   0  0  0  0  0  0  0  0  0  0  0  0
   10.3856   33.0917   20.8317 C   0  0  0  0  0  0  0  0  0  0  0  0
   11.0553   31.8796   20.7297 C   0  0  0  0  0  0  0  0  0  0  0  0
   12.3592   31.8995   20.2534 C   0  0  0  0  0  0  0  0  0  0  0  0
   12.9816   33.0961   19.8911 C   0  0  0  0  0  0  0  0  0  0  0  0
 20 17  1  0  0  0
 20 21  1  0  0  0
 17 18  1  0  0  0
 16 21  1  0  0  0
 16 15  1  0  0  0
 21 19  1  0  0  0
 18 19  1  0  0  0
 13 14  1  0  0  0
 13 12  1  0  0  0
 35 36  1  0  0  0
 35 34  1  0  0  0
 15 14  1  0  0  0
 36 32  1  0  0  0
 14  8  1  0  0  0
 12 11  1  0  0  0
  9 10  2  0  0  0
 34 33  1  0  0  0
 32 33  1  0  0  0
 32 31  1  0  0  0
 11 10  1  0  0  0
 11  7  1  0  0  0
 10  1  1  0  0  0
  8  7  1  0  0  0
 31 30  1  0  0  0
  6  1  2  0  0  0
  6  5  1  0  0  0
  1  2  1  0  0  0
 30 26  1  0  0  0
 27 26  1  0  0  0
 27 28  1  0  0  0
  5  4  2  0  0  0
  2 37  1  0  0  0
  2  3  2  0  0  0
 26 25  1  0  0  0
 28 23  1  0  0  0
 37 39  1  0  0  0
  4  3  1  0  0  0
  4 22  1  0  0  0
 40 39  2  0  0  0
 40 41  1  0  0  0
 25 24  1  0  0  0
 23 22  1  0  0  0
 23 24  1  0  0  0
 39 44  1  0  0  0
 22 29  2  0  0  0
 41 42  2  0  0  0
 44 43  2  0  0  0
 42 43  1  0  0  0
 37 38  1  0  0  0
M  END
> <minimizedAffinity>
-8.98688

$$$$
5JSG_6P9_A_301


 44 49  0  0  0  0  0  0  0  0999 V2000
    9.9374   41.8074   19.9007 C   0  0  0  0  0  0  0  0  0  0  0  0
   11.2353   42.4081   20.0479 C   0  0  0  0  0  0  0  0  0  0  0  0
   12.3809   41.5413   20.0333 C   0  0  0  0  0  0  0  0  0  0  0  0
   12.3440   40.1254   19.8693 C   0  0  0  0  0  0  0  0  0  0  0  0
   11.0587   39.6302   19.7400 C   0  0  0  0  0  0  0  0  0  0  0  0
    9.9171   40.4130   19.7514 C   0  0  0  0  0  0  0  0  0  0  0  0
    8.9466   43.3358   17.4927 C   0  0  0  0  0  0  0  0  0  0  0  0
    8.1317   43.1409   16.1972 C   0  0  0  0  0  0  0  0  0  0  0  0
    7.9094   42.5666   20.8642 O   0  0  0  0  0  0  0  0  0  0  0  0
    8.6094   42.5667   19.8941 C   0  0  0  0  0  0  0  0  0  0  0  0
    8.2001   43.2588   18.7189 N   0  0  0  0  0  0  0  0  0  0  0  0
    6.9419   44.0078   18.6167 C   0  0  0  0  0  0  0  0  0  0  0  0
    5.9836   43.3250   17.6400 C   0  0  0  0  0  0  0  0  0  0  0  0
    6.6527   42.7273   16.3898 C   0  0  0  0  0  0  0  0  0  0  0  0
    5.8919   43.0616   15.1125 C   0  0  0  0  0  0  0  0  0  0  0  0
    5.3041   41.8049   14.4481 C   0  0  0  0  0  0  0  0  0  0  0  0
    4.5611   43.9850   11.7996 C   0  0  0  0  0  0  0  0  0  0  0  0
    3.7351   42.7579   11.4160 C   0  0  0  0  0  0  0  0  0  0  0  0
    4.0808   41.6707   12.4404 C   0  0  0  0  0  0  0  0  0  0  0  0
    5.6471   43.4913   12.7452 C   0  0  0  0  0  0  0  0  0  0  0  0
    5.4429   42.0057   12.9573 N   0  0  0  0  0  0  0  0  0  0  0  0
   13.5914   39.1969   19.8673 C   0  0  0  0  0  0  0  0  0  0  0  0
   13.6838   38.0027   20.6478 N   0  0  0  0  0  0  0  0  0  0  0  0
   14.8680   37.0540   20.6740 C   0  0  0  0  0  0  0  0  0  0  0  0
   14.4400   35.5708   20.4541 C   0  0  0  0  0  0  0  0  0  0  0  0
   13.3669   35.1189   21.4278 C   0  0  0  0  0  0  0  0  0  0  0  0
   12.1932   36.0719   21.2898 C   0  0  0  0  0  0  0  0  0  0  0  0
   12.6494   37.5064   21.5524 C   0  0  0  0  0  0  0  0  0  0  0  0
   14.5252   39.4780   19.1635 O   0  0  0  0  0  0  0  0  0  0  0  0
   12.9436   33.7021   21.1937 C   0  0  0  0  0  0  0  0  0  0  0  0
   12.9274   33.4174   19.6679 C   0  0  0  0  0  0  0  0  0  0  0  0
   13.5776   32.1246   19.4640 N   0  0  0  0  0  0  0  0  0  0  0  0
   12.7261   31.2208   20.2774 C   0  0  0  0  0  0  0  0  0  0  0  0
   12.7058   29.8819   19.5268 C   0  0  0  0  0  0  0  0  0  0  0  0
   13.3124   30.1645   18.1491 C   0  0  0  0  0  0  0  0  0  0  0  0
   13.3430   31.6783   18.0581 C   0  0  0  0  0  0  0  0  0  0  0  0
   11.3495   43.8357   20.2082 N   0  0  0  0  0  0  0  0  0  0  0  0
   10.9433   44.1826   21.0352 H   0  0  0  0  0  0  0  0  0  0  0  0
   11.9592   44.8611   19.3650 C   0  0  0  0  0  0  0  0  0  0  0  0
   13.3508   44.8956   19.1244 C   0  0  0  0  0  0  0  0  0  0  0  0
   13.9453   45.8767   18.3219 C   0  0  0  0  0  0  0  0  0  0  0  0
   13.1901   46.8731   17.7177 C   0  0  0  0  0  0  0  0  0  0  0  0
   11.8192   46.8674   17.9361 C   0  0  0  0  0  0  0  0  0  0  0  0
   11.2158   45.8965   18.7384 C   0  0  0  0  0  0  0  0  0  0  0  0
 20 17  1  0  0  0
 20 21  1  0  0  0
 17 18  1  0  0  0
 16 21  1  0  0  0
 16 15  1  0  0  0
 21 19  1  0  0  0
 18 19  1  0  0  0
 13 14  1  0  0  0
 13 12  1  0  0  0
 35 36  1  0  0  0
 35 34  1  0  0  0
 15 14  1  0  0  0
 36 32  1  0  0  0
 14  8  1  0  0  0
 12 11  1  0  0  0
  9 10  2  0  0  0
 34 33  1  0  0  0
 32 33  1  0  0  0
 32 31  1  0  0  0
 11 10  1  0  0  0
 11  7  1  0  0  0
 10  1  1  0  0  0
  8  7  1  0  0  0
 31 30  1  0  0  0
  6  1  2  0  0  0
  6  5  1  0  0  0
  1  2  1  0  0  0
 30 26  1  0  0  0
 27 26  1  0  0  0
 27 28  1  0  0  0
  5  4  2  0  0  0
  2 37  1  0  0  0
  2  3  2  0  0  0
 26 25  1  0  0  0
 28 23  1  0  0  0
 37 39  1  0  0  0
  4  3  1  0  0  0
  4 22  1  0  0  0
 40 39  2  0  0  0
 40 41  1  0  0  0
 25 24  1  0  0  0
 23 22  1  0  0  0
 23 24  1  0  0  0
 39 44  1  0  0  0
 22 29  2  0  0  0
 41 42  2  0  0  0
 44 43  2  0  0  0
 42 43  1  0  0  0
 37 38  1  0  0  0
M  END
> <minimizedAffinity>
-8.79987

$$$$
5JSG_6P9_A_301


 44 49  0  0  0  0  0  0  0  0999 V2000
    9.8045   41.8486   20.9596 C   0  0  0  0  0  0  0  0  0  0  0  0
   10.7883   42.3753   20.0531 C   0  0  0  0  0  0  0  0  0  0  0  0
   11.9454   41.5697   19.7773 C   0  0  0  0  0  0  0  0  0  0  0  0
   12.1989   40.2748   20.3178 C   0  0  0  0  0  0  0  0  0  0  0  0
   11.2073   39.8470   21.1824 C   0  0  0  0  0  0  0  0  0  0  0  0
   10.0735   40.5788   21.4911 C   0  0  0  0  0  0  0  0  0  0  0  0
    9.7963   44.3865   22.5951 C   0  0  0  0  0  0  0  0  0  0  0  0
    9.8599   45.9197   22.4352 C   0  0  0  0  0  0  0  0  0  0  0  0
    7.4516   42.1221   21.0426 O   0  0  0  0  0  0  0  0  0  0  0  0
    8.5148   42.5601   21.3728 C   0  0  0  0  0  0  0  0  0  0  0  0
    8.5864   43.7594   22.1371 N   0  0  0  0  0  0  0  0  0  0  0  0
    7.4053   44.5138   22.5731 C   0  0  0  0  0  0  0  0  0  0  0  0
    7.3312   45.8637   21.8584 C   0  0  0  0  0  0  0  0  0  0  0  0
    8.6871   46.5631   21.6568 C   0  0  0  0  0  0  0  0  0  0  0  0
    8.6312   48.0437   22.0128 C   0  0  0  0  0  0  0  0  0  0  0  0
    8.5939   48.9351   20.7597 C   0  0  0  0  0  0  0  0  0  0  0  0
    9.3227   48.6501   17.3381 C   0  0  0  0  0  0  0  0  0  0  0  0
    7.7994   48.5298   17.3292 C   0  0  0  0  0  0  0  0  0  0  0  0
    7.3621   48.5079   18.7987 C   0  0  0  0  0  0  0  0  0  0  0  0
    9.7724   48.2873   18.7465 C   0  0  0  0  0  0  0  0  0  0  0  0
    8.5361   48.0016   19.5734 N   0  0  0  0  0  0  0  0  0  0  0  0
   13.4620   39.4179   20.0203 C   0  0  0  0  0  0  0  0  0  0  0  0
   13.8102   38.2468   20.7626 N   0  0  0  0  0  0  0  0  0  0  0  0
   15.0200   37.3667   20.5079 C   0  0  0  0  0  0  0  0  0  0  0  0
   14.6404   35.8577   20.4068 C   0  0  0  0  0  0  0  0  0  0  0  0
   13.8619   35.3661   21.6135 C   0  0  0  0  0  0  0  0  0  0  0  0
   12.6351   36.2487   21.7571 C   0  0  0  0  0  0  0  0  0  0  0  0
   13.0552   37.7116   21.8932 C   0  0  0  0  0  0  0  0  0  0  0  0
   14.1806   39.7367   19.1102 O   0  0  0  0  0  0  0  0  0  0  0  0
   13.4794   33.9233   21.4971 C   0  0  0  0  0  0  0  0  0  0  0  0
   13.1828   33.5899   20.0104 C   0  0  0  0  0  0  0  0  0  0  0  0
   13.7082   32.2502   19.7562 N   0  0  0  0  0  0  0  0  0  0  0  0
   12.6614   31.3897   20.3622 C   0  0  0  0  0  0  0  0  0  0  0  0
   12.5943   30.1341   19.4814 C   0  0  0  0  0  0  0  0  0  0  0  0
   13.4070   30.4599   18.2247 C   0  0  0  0  0  0  0  0  0  0  0  0
   13.6159   31.9607   18.2939 C   0  0  0  0  0  0  0  0  0  0  0  0
   10.5933   43.6745   19.4608 N   0  0  0  0  0  0  0  0  0  0  0  0
    9.6901   44.0449   19.5889 H   0  0  0  0  0  0  0  0  0  0  0  0
   11.4940   44.5412   18.7047 C   0  0  0  0  0  0  0  0  0  0  0  0
   11.1168   45.1066   17.4662 C   0  0  0  0  0  0  0  0  0  0  0  0
   11.9745   45.9343   16.7317 C   0  0  0  0  0  0  0  0  0  0  0  0
   13.2490   46.2430   17.1879 C   0  0  0  0  0  0  0  0  0  0  0  0
   13.6501   45.7014   18.4016 C   0  0  0  0  0  0  0  0  0  0  0  0
   12.8050   44.8708   19.1407 C   0  0  0  0  0  0  0  0  0  0  0  0
 20 17  1  0  0  0
 20 21  1  0  0  0
 17 18  1  0  0  0
 16 21  1  0  0  0
 16 15  1  0  0  0
 21 19  1  0  0  0
 18 19  1  0  0  0
 13 14  1  0  0  0
 13 12  1  0  0  0
 35 36  1  0  0  0
 35 34  1  0  0  0
 15 14  1  0  0  0
 36 32  1  0  0  0
 14  8  1  0  0  0
 12 11  1  0  0  0
  9 10  2  0  0  0
 34 33  1  0  0  0
 32 33  1  0  0  0
 32 31  1  0  0  0
 11 10  1  0  0  0
 11  7  1  0  0  0
 10  1  1  0  0  0
  8  7  1  0  0  0
 31 30  1  0  0  0
  6  1  2  0  0  0
  6  5  1  0  0  0
  1  2  1  0  0  0
 30 26  1  0  0  0
 27 26  1  0  0  0
 27 28  1  0  0  0
  5  4  2  0  0  0
  2 37  1  0  0  0
  2  3  2  0  0  0
 26 25  1  0  0  0
 28 23  1  0  0  0
 37 39  1  0  0  0
  4  3  1  0  0  0
  4 22  1  0  0  0
 40 39  2  0  0  0
 40 41  1  0  0  0
 25 24  1  0  0  0
 23 22  1  0  0  0
 23 24  1  0  0  0
 39 44  1  0  0  0
 22 29  2  0  0  0
 41 42  2  0  0  0
 44 43  2  0  0  0
 42 43  1  0  0  0
 37 38  1  0  0  0
M  END
> <minimizedAffinity>
-8.74032

$$$$
5JSG_6P9_A_301


 44 49  0  0  0  0  0  0  0  0999 V2000
   12.7488   32.7801   23.3126 C   0  0  0  0  0  0  0  0  0  0  0  0
   12.6464   32.7298   21.8794 C   0  0  0  0  0  0  0  0  0  0  0  0
   13.1448   33.8509   21.1318 C   0  0  0  0  0  0  0  0  0  0  0  0
   13.7512   35.0137   21.6914 C   0  0  0  0  0  0  0  0  0  0  0  0
   13.8050   34.9826   23.0734 C   0  0  0  0  0  0  0  0  0  0  0  0
   13.3376   33.9349   23.8482 C   0  0  0  0  0  0  0  0  0  0  0  0
    9.9304   32.6713   24.3898 C   0  0  0  0  0  0  0  0  0  0  0  0
    8.5326   32.1163   24.0455 C   0  0  0  0  0  0  0  0  0  0  0  0
   13.0219   30.8205   24.6176 O   0  0  0  0  0  0  0  0  0  0  0  0
   12.2729   31.6861   24.2700 C   0  0  0  0  0  0  0  0  0  0  0  0
   10.9257   31.6917   24.7313 N   0  0  0  0  0  0  0  0  0  0  0  0
   10.3780   30.6815   25.6445 C   0  0  0  0  0  0  0  0  0  0  0  0
    9.3382   29.8154   24.9324 C   0  0  0  0  0  0  0  0  0  0  0  0
    8.4258   30.5750   23.9534 C   0  0  0  0  0  0  0  0  0  0  0  0
    6.9608   30.1864   24.1101 C   0  0  0  0  0  0  0  0  0  0  0  0
    6.7504   29.1921   25.2649 C   0  0  0  0  0  0  0  0  0  0  0  0
    6.1491   29.5431   28.7051 C   0  0  0  0  0  0  0  0  0  0  0  0
    4.8313   28.9299   28.2335 C   0  0  0  0  0  0  0  0  0  0  0  0
    4.9193   28.8474   26.7049 C   0  0  0  0  0  0  0  0  0  0  0  0
    6.7910   30.1741   27.4775 C   0  0  0  0  0  0  0  0  0  0  0  0
    5.8943   29.9011   26.2879 N   0  0  0  0  0  0  0  0  0  0  0  0
   14.2761   36.2261   20.8711 C   0  0  0  0  0  0  0  0  0  0  0  0
   13.4317   37.2751   20.3911 N   0  0  0  0  0  0  0  0  0  0  0  0
   13.8905   38.4861   19.5998 C   0  0  0  0  0  0  0  0  0  0  0  0
   13.3584   39.8214   20.2043 C   0  0  0  0  0  0  0  0  0  0  0  0
   11.8501   39.8291   20.3735 C   0  0  0  0  0  0  0  0  0  0  0  0
   11.4798   38.6333   21.2323 C   0  0  0  0  0  0  0  0  0  0  0  0
   11.9851   37.3456   20.5831 C   0  0  0  0  0  0  0  0  0  0  0  0
   15.4531   36.3052   20.6376 O   0  0  0  0  0  0  0  0  0  0  0  0
   11.3499   41.1044   20.9777 C   0  0  0  0  0  0  0  0  0  0  0  0
   10.3985   41.8088   19.9736 C   0  0  0  0  0  0  0  0  0  0  0  0
   11.2253   42.6625   19.1232 N   0  0  0  0  0  0  0  0  0  0  0  0
   10.2065   43.5147   18.4604 C   0  0  0  0  0  0  0  0  0  0  0  0
   10.8666   44.8892   18.2821 C   0  0  0  0  0  0  0  0  0  0  0  0
   12.1457   44.8521   19.1238 C   0  0  0  0  0  0  0  0  0  0  0  0
   11.9903   43.6129   19.9847 C   0  0  0  0  0  0  0  0  0  0  0  0
   12.0532   31.5805   21.2439 N   0  0  0  0  0  0  0  0  0  0  0  0
   11.5301   31.0088   21.8511 H   0  0  0  0  0  0  0  0  0  0  0  0
   12.0881   31.1106   19.8610 C   0  0  0  0  0  0  0  0  0  0  0  0
   13.1223   30.2740   19.3854 C   0  0  0  0  0  0  0  0  0  0  0  0
   13.1672   29.8224   18.0610 C   0  0  0  0  0  0  0  0  0  0  0  0
   12.1894   30.1776   17.1415 C   0  0  0  0  0  0  0  0  0  0  0  0
   11.1599   31.0004   17.5778 C   0  0  0  0  0  0  0  0  0  0  0  0
   11.1072   31.4607   18.8953 C   0  0  0  0  0  0  0  0  0  0  0  0
 20 17  1  0  0  0
 20 21  1  0  0  0
 17 18  1  0  0  0
 16 21  1  0  0  0
 16 15  1  0  0  0
 21 19  1  0  0  0
 18 19  1  0  0  0
 13 14  1  0  0  0
 13 12  1  0  0  0
 35 36  1  0  0  0
 35 34  1  0  0  0
 15 14  1  0  0  0
 36 32  1  0  0  0
 14  8  1  0  0  0
 12 11  1  0  0  0
  9 10  2  0  0  0
 34 33  1  0  0  0
 32 33  1  0  0  0
 32 31  1  0  0  0
 11 10  1  0  0  0
 11  7  1  0  0  0
 10  1  1  0  0  0
  8  7  1  0  0  0
 31 30  1  0  0  0
  6  1  2  0  0  0
  6  5  1  0  0  0
  1  2  1  0  0  0
 30 26  1  0  0  0
 27 26  1  0  0  0
 27 28  1  0  0  0
  5  4  2  0  0  0
  2 37  1  0  0  0
  2  3  2  0  0  0
 26 25  1  0  0  0
 28 23  1  0  0  0
 37 39  1  0  0  0
  4  3  1  0  0  0
  4 22  1  0  0  0
 40 39  2  0  0  0
 40 41  1  0  0  0
 25 24  1  0  0  0
 23 22  1  0  0  0
 23 24  1  0  0  0
 39 44  1  0  0  0
 22 29  2  0  0  0
 41 42  2  0  0  0
 44 43  2  0  0  0
 42 43  1  0  0  0
 37 38  1  0  0  0
M  END
> <minimizedAffinity>
-8.61501

$$$$
5JSG_6P9_A_301


 44 49  0  0  0  0  0  0  0  0999 V2000
   10.1257   42.1953   21.2476 C   0  0  0  0  0  0  0  0  0  0  0  0
   11.0324   42.6326   20.2211 C   0  0  0  0  0  0  0  0  0  0  0  0
   12.0908   41.7405   19.8367 C   0  0  0  0  0  0  0  0  0  0  0  0
   12.3141   40.4408   20.3790 C   0  0  0  0  0  0  0  0  0  0  0  0
   11.4016   40.1019   21.3620 C   0  0  0  0  0  0  0  0  0  0  0  0
   10.3651   40.9194   21.7785 C   0  0  0  0  0  0  0  0  0  0  0  0
   10.3915   44.1245   23.5549 C   0  0  0  0  0  0  0  0  0  0  0  0
   10.7413   45.5965   23.8567 C   0  0  0  0  0  0  0  0  0  0  0  0
    7.8627   42.8988   21.2882 O   0  0  0  0  0  0  0  0  0  0  0  0
    8.9453   43.0058   21.7860 C   0  0  0  0  0  0  0  0  0  0  0  0
    9.1457   43.9047   22.8720 N   0  0  0  0  0  0  0  0  0  0  0  0
    8.0766   44.7275   23.4503 C   0  0  0  0  0  0  0  0  0  0  0  0
    8.3183   46.2097   23.1618 C   0  0  0  0  0  0  0  0  0  0  0  0
    9.7898   46.6522   23.2438 C   0  0  0  0  0  0  0  0  0  0  0  0
    9.9585   47.9547   24.0165 C   0  0  0  0  0  0  0  0  0  0  0  0
   11.2001   47.9277   24.9242 C   0  0  0  0  0  0  0  0  0  0  0  0
   11.6226   51.3340   25.6579 C   0  0  0  0  0  0  0  0  0  0  0  0
   12.5424   50.6898   26.6944 C   0  0  0  0  0  0  0  0  0  0  0  0
   12.3437   49.1751   26.5617 C   0  0  0  0  0  0  0  0  0  0  0  0
   10.6288   50.2590   25.2407 C   0  0  0  0  0  0  0  0  0  0  0  0
   10.9796   48.9849   25.9805 N   0  0  0  0  0  0  0  0  0  0  0  0
   13.4714   39.4893   19.9623 C   0  0  0  0  0  0  0  0  0  0  0  0
   13.7416   38.2469   20.6159 N   0  0  0  0  0  0  0  0  0  0  0  0
   14.8458   37.2747   20.2435 C   0  0  0  0  0  0  0  0  0  0  0  0
   14.3170   35.8172   20.0782 C   0  0  0  0  0  0  0  0  0  0  0  0
   13.5568   35.3268   21.2971 C   0  0  0  0  0  0  0  0  0  0  0  0
   12.4303   36.3100   21.5598 C   0  0  0  0  0  0  0  0  0  0  0  0
   12.9967   37.7157   21.7550 C   0  0  0  0  0  0  0  0  0  0  0  0
   14.1703   39.7952   19.0327 O   0  0  0  0  0  0  0  0  0  0  0  0
   13.0309   33.9362   21.1205 C   0  0  0  0  0  0  0  0  0  0  0  0
   13.0459   33.5702   19.6121 C   0  0  0  0  0  0  0  0  0  0  0  0
   13.6423   32.2410   19.4973 N   0  0  0  0  0  0  0  0  0  0  0  0
   12.7413   31.4255   20.3498 C   0  0  0  0  0  0  0  0  0  0  0  0
   12.6734   30.0452   19.6812 C   0  0  0  0  0  0  0  0  0  0  0  0
   13.3107   30.2173   18.2991 C   0  0  0  0  0  0  0  0  0  0  0  0
   13.4081   31.7201   18.1174 C   0  0  0  0  0  0  0  0  0  0  0  0
   10.8614   43.9315   19.6206 N   0  0  0  0  0  0  0  0  0  0  0  0
    9.9965   44.3574   19.8199 H   0  0  0  0  0  0  0  0  0  0  0  0
   11.7400   44.7301   18.7693 C   0  0  0  0  0  0  0  0  0  0  0  0
   11.3028   45.2529   17.5319 C   0  0  0  0  0  0  0  0  0  0  0  0
   12.1385   46.0152   16.7069 C   0  0  0  0  0  0  0  0  0  0  0  0
   13.4494   46.2974   17.0670 C   0  0  0  0  0  0  0  0  0  0  0  0
   13.9096   45.7964   18.2771 C   0  0  0  0  0  0  0  0  0  0  0  0
   13.0866   45.0309   19.1061 C   0  0  0  0  0  0  0  0  0  0  0  0
 20 17  1  0  0  0
 20 21  1  0  0  0
 17 18  1  0  0  0
 16 21  1  0  0  0
 16 15  1  0  0  0
 21 19  1  0  0  0
 18 19  1  0  0  0
 13 14  1  0  0  0
 13 12  1  0  0  0
 35 36  1  0  0  0
 35 34  1  0  0  0
 15 14  1  0  0  0
 36 32  1  0  0  0
 14  8  1  0  0  0
 12 11  1  0  0  0
  9 10  2  0  0  0
 34 33  1  0  0  0
 32 33  1  0  0  0
 32 31  1  0  0  0
 11 10  1  0  0  0
 11  7  1  0  0  0
 10  1  1  0  0  0
  8  7  1  0  0  0
 31 30  1  0  0  0
  6  1  2  0  0  0
  6  5  1  0  0  0
  1  2  1  0  0  0
 30 26  1  0  0  0
 27 26  1  0  0  0
 27 28  1  0  0  0
  5  4  2  0  0  0
  2 37  1  0  0  0
  2  3  2  0  0  0
 26 25  1  0  0  0
 28 23  1  0  0  0
 37 39  1  0  0  0
  4  3  1  0  0  0
  4 22  1  0  0  0
 40 39  2  0  0  0
 40 41  1  0  0  0
 25 24  1  0  0  0
 23 22  1  0  0  0
 23 24  1  0  0  0
 39 44  1  0  0  0
 22 29  2  0  0  0
 41 42  2  0  0  0
 44 43  2  0  0  0
 42 43  1  0  0  0
 37 38  1  0  0  0
M  END
> <minimizedAffinity>
-8.53981

$$$$
