4ER1_0ZP_E_327


 66 71  0  0  0  0  0  0  0  0999 V2000
    2.4234   30.4578   16.3135 C   0  0  0  0  0  0  0  0  0  0  0  0
    2.9000   31.8860   16.0862 C   0  0  0  0  0  0  0  0  0  0  0  0
    2.2358   32.8389   16.5304 O   0  0  0  0  0  0  0  0  0  0  0  0
    3.9295   32.0468   15.3825 N   0  0  0  0  0  0  0  0  0  0  0  0
    4.3460   31.2421   14.9975 H   0  0  0  0  0  0  0  0  0  0  0  0
    4.5600   33.3416   15.0896 C   0  0  0  0  0  0  0  0  0  0  0  0
    4.0361   33.8670   13.7336 C   0  0  0  0  0  0  0  0  0  0  0  0
    3.3543   32.8225   13.0474 O   0  0  0  0  0  0  0  0  0  0  0  0
    2.6046   32.5194   13.5831 H   0  0  0  0  0  0  0  0  0  0  0  0
    3.0545   35.0431   13.9718 C   0  0  0  0  0  0  0  0  0  0  0  0
    2.7709   35.8158   12.7246 C   0  0  0  0  0  0  0  0  0  0  0  0
    2.9835   37.1006   12.9191 C   0  0  0  0  0  0  0  0  0  0  0  0
    2.2504   37.7499   13.6764 O   0  0  0  0  0  0  0  0  0  0  0  0
    3.9925   37.5983   12.2513 N   0  0  0  0  0  0  0  0  0  0  0  0
    4.4937   37.0192   11.6327 H   0  0  0  0  0  0  0  0  0  0  0  0
    4.3887   38.9876   12.4035 C   0  0  0  0  0  0  0  0  0  0  0  0
    4.5027   39.6799   11.0569 C   0  0  0  0  0  0  0  0  0  0  0  0
    3.1571   40.0370   10.4300 C   0  0  0  0  0  0  0  0  0  0  0  0
    5.2857   40.9882   11.1452 C   0  0  0  0  0  0  0  0  0  0  0  0
    4.4192   42.1697   11.5726 C   0  0  0  0  0  0  0  0  0  0  0  0
    1.3499   35.6622   12.3468 C   0  0  0  0  0  0  0  0  0  0  0  0
    1.2115   35.3726   10.8489 C   0  0  0  0  0  0  0  0  0  0  0  0
    2.4340   34.5972   10.3543 C   0  0  0  0  0  0  0  0  0  0  0  0
   -0.0434   34.5319   10.5908 C   0  0  0  0  0  0  0  0  0  0  0  0
    6.0856   33.1598   15.0893 C   0  0  0  0  0  0  0  0  0  0  0  0
    6.6099   32.6703   16.4492 C   0  0  0  0  0  0  0  0  0  0  0  0
    6.7718   33.8879   17.3753 C   0  0  0  0  0  0  0  0  0  0  0  0
    7.8313   31.9827   16.2761 C   0  0  0  0  0  0  0  0  0  0  0  0
    7.3512   33.4836   18.7309 C   0  0  0  0  0  0  0  0  0  0  0  0
    8.4208   31.5435   17.6255 C   0  0  0  0  0  0  0  0  0  0  0  0
    8.6662   32.7536   18.5167 C   0  0  0  0  0  0  0  0  0  0  0  0
    3.5456   28.6380   17.5391 C   0  0  0  0  0  0  0  0  0  0  0  0
    3.2129   27.6803   16.8211 O   0  0  0  0  0  0  0  0  0  0  0  0
    3.1590   29.8908   17.4475 N   0  0  0  0  0  0  0  0  0  0  0  0
    3.3795   30.4923   18.1951 H   0  0  0  0  0  0  0  0  0  0  0  0
    4.4903   28.4371   18.7175 C   0  0  0  0  0  0  0  0  0  0  0  0
    3.5640   28.3721   19.9541 C   0  0  0  0  0  0  0  0  0  0  0  0
    4.2100   27.7732   21.1960 C   0  0  0  0  0  0  0  0  0  0  0  0
    4.6597   26.4497   21.1243 C   0  0  0  0  0  0  0  0  0  0  0  0
    5.2488   25.8528   22.2223 C   0  0  0  0  0  0  0  0  0  0  0  0
    5.3901   26.5691   23.3891 C   0  0  0  0  0  0  0  0  0  0  0  0
    4.9586   27.8959   23.4954 C   0  0  0  0  0  0  0  0  0  0  0  0
    5.0823   28.6672   24.6785 C   0  0  0  0  0  0  0  0  0  0  0  0
    4.6192   30.0047   24.6918 C   0  0  0  0  0  0  0  0  0  0  0  0
    4.0552   30.5954   23.6172 C   0  0  0  0  0  0  0  0  0  0  0  0
    3.9048   29.8944   22.4369 C   0  0  0  0  0  0  0  0  0  0  0  0
    4.3369   28.5847   22.3664 C   0  0  0  0  0  0  0  0  0  0  0  0
    5.4407   29.5492   18.8409 C   0  0  0  0  0  0  0  0  0  0  0  0
    6.6739   29.0921   19.7260 C   0  0  0  0  0  0  0  0  0  0  0  0
    7.2573   27.8449   19.4640 C   0  0  0  0  0  0  0  0  0  0  0  0
    8.3618   27.3946   20.1860 C   0  0  0  0  0  0  0  0  0  0  0  0
    8.9099   28.1873   21.1849 C   0  0  0  0  0  0  0  0  0  0  0  0
    8.3540   29.4316   21.4616 C   0  0  0  0  0  0  0  0  0  0  0  0
    8.9181   30.2031   22.4809 C   0  0  0  0  0  0  0  0  0  0  0  0
    8.3384   31.4331   22.8082 C   0  0  0  0  0  0  0  0  0  0  0  0
    7.2304   31.9031   22.0920 C   0  0  0  0  0  0  0  0  0  0  0  0
    6.6878   31.1382   21.0515 C   0  0  0  0  0  0  0  0  0  0  0  0
    7.2448   29.8934   20.7398 C   0  0  0  0  0  0  0  0  0  0  0  0
    0.9626   30.8186   16.5309 C   0  0  0  0  0  0  0  0  0  0  0  0
   -0.0078   29.9127   17.2738 C   0  0  0  0  0  0  0  0  0  0  0  0
    0.1850   29.3857   18.5516 N   0  0  0  0  0  0  0  0  0  0  0  0
   -1.2181   29.4962   16.8411 C   0  0  0  0  0  0  0  0  0  0  0  0
   -0.9153   28.6836   18.8553 C   0  0  0  0  0  0  0  0  0  0  0  0
   -1.7585   28.7476   17.8404 N   0  0  0  0  0  0  0  0  0  0  0  0
    0.9786   29.5068   19.1215 H   0  0  0  0  0  0  0  0  0  0  0  0
   -2.6441   28.3185   17.8115 H   0  0  0  0  0  0  0  0  0  0  0  0
 32 33  2  0  0  0
 32 36  1  0  0  0
 36 48  1  0  0  0
 36 37  1  0  0  0
 48 49  1  0  0  0
 49 50  2  0  0  0
 49 58  1  0  0  0
 50 51  1  0  0  0
 51 52  2  0  0  0
 52 53  1  0  0  0
 53 54  2  0  0  0
 53 58  1  0  0  0
 54 55  1  0  0  0
 55 56  2  0  0  0
 56 57  1  0  0  0
 57 58  2  0  0  0
 37 38  1  0  0  0
 38 39  2  0  0  0
 38 47  1  0  0  0
 39 40  1  0  0  0
 40 41  2  0  0  0
 41 42  1  0  0  0
 42 43  2  0  0  0
 42 47  1  0  0  0
 43 44  1  0  0  0
 44 45  2  0  0  0
 45 46  1  0  0  0
 46 47  2  0  0  0
 34  1  1  0  0  0
  1  2  1  0  0  0
  1 59  1  0  0  0
  2  3  2  0  0  0
 59 60  1  0  0  0
 60 61  1  0  0  0
 60 62  2  0  0  0
 61 63  2  0  0  0
 62 64  1  0  0  0
 63 64  1  0  0  0
  4  6  1  0  0  0
  6 25  1  0  0  0
  6  7  1  0  0  0
 25 26  1  0  0  0
 26 27  1  0  0  0
 26 28  1  0  0  0
 27 29  1  0  0  0
 28 30  1  0  0  0
 29 31  1  0  0  0
 30 31  1  0  0  0
  7  8  1  0  0  0
  7 10  1  0  0  0
 10 11  1  0  0  0
 11 21  1  0  0  0
 11 12  1  0  0  0
 21 22  1  0  0  0
 22 23  1  0  0  0
 22 24  1  0  0  0
 12 13  2  0  0  0
 14 16  1  0  0  0
 16 17  1  0  0  0
 17 19  1  0  0  0
 17 18  1  0  0  0
 19 20  1  0  0  0
 32 34  1  0  0  0
  2  4  1  0  0  0
 12 14  1  0  0  0
 34 35  1  0  0  0
 61 65  1  0  0  0
 64 66  1  0  0  0
  4  5  1  0  0  0
  8  9  1  0  0  0
 14 15  1  0  0  0
M  CHG 1  61   1
M  END
> <minimizedAffinity>
-10.12892

$$$$
4ER1_0ZP_E_327


 66 71  0  0  0  0  0  0  0  0999 V2000
    2.8525   28.3723   17.1791 C   0  0  0  0  0  0  0  0  0  0  0  0
    4.1525   28.7793   17.8596 C   0  0  0  0  0  0  0  0  0  0  0  0
    4.6255   29.9127   17.6643 O   0  0  0  0  0  0  0  0  0  0  0  0
    4.7419   27.9080   18.5483 N   0  0  0  0  0  0  0  0  0  0  0  0
    4.3425   27.0088   18.5804 H   0  0  0  0  0  0  0  0  0  0  0  0
    5.9800   28.1266   19.3091 C   0  0  0  0  0  0  0  0  0  0  0  0
    7.1947   27.8625   18.3903 C   0  0  0  0  0  0  0  0  0  0  0  0
    6.8583   28.1917   17.0468 O   0  0  0  0  0  0  0  0  0  0  0  0
    6.6168   29.1297   16.9945 H   0  0  0  0  0  0  0  0  0  0  0  0
    8.3928   28.7367   18.8423 C   0  0  0  0  0  0  0  0  0  0  0  0
    7.9806   30.1202   19.2281 C   0  0  0  0  0  0  0  0  0  0  0  0
    8.3805   30.9901   18.3241 C   0  0  0  0  0  0  0  0  0  0  0  0
    9.4375   31.6154   18.4801 O   0  0  0  0  0  0  0  0  0  0  0  0
    7.5774   31.1278   17.3004 N   0  0  0  0  0  0  0  0  0  0  0  0
    6.7313   30.6249   17.2805 H   0  0  0  0  0  0  0  0  0  0  0  0
    7.9081   32.0075   16.1926 C   0  0  0  0  0  0  0  0  0  0  0  0
    7.0921   33.2870   16.2410 C   0  0  0  0  0  0  0  0  0  0  0  0
    5.5855   33.0560   16.3296 C   0  0  0  0  0  0  0  0  0  0  0  0
    7.4551   34.1578   17.4421 C   0  0  0  0  0  0  0  0  0  0  0  0
    6.4305   34.0687   18.5698 C   0  0  0  0  0  0  0  0  0  0  0  0
    8.6168   30.4989   20.5077 C   0  0  0  0  0  0  0  0  0  0  0  0
    7.5603   30.7720   21.5829 C   0  0  0  0  0  0  0  0  0  0  0  0
    8.0863   30.3352   22.9514 C   0  0  0  0  0  0  0  0  0  0  0  0
    7.2380   32.2693   21.6332 C   0  0  0  0  0  0  0  0  0  0  0  0
    5.9738   27.2056   20.5389 C   0  0  0  0  0  0  0  0  0  0  0  0
    5.6135   27.9635   21.8271 C   0  0  0  0  0  0  0  0  0  0  0  0
    5.4773   26.9429   22.9702 C   0  0  0  0  0  0  0  0  0  0  0  0
    4.4205   28.6953   21.6386 C   0  0  0  0  0  0  0  0  0  0  0  0
    5.0572   27.6203   24.2746 C   0  0  0  0  0  0  0  0  0  0  0  0
    3.9916   29.4066   22.9315 C   0  0  0  0  0  0  0  0  0  0  0  0
    3.7693   28.3933   24.0462 C   0  0  0  0  0  0  0  0  0  0  0  0
    1.3579   26.5635   17.9322 C   0  0  0  0  0  0  0  0  0  0  0  0
    1.1774   25.9895   16.8453 O   0  0  0  0  0  0  0  0  0  0  0  0
    2.0040   27.6857   18.1573 N   0  0  0  0  0  0  0  0  0  0  0  0
    1.9112   28.0950   19.0478 H   0  0  0  0  0  0  0  0  0  0  0  0
    0.7738   25.9954   19.2197 C   0  0  0  0  0  0  0  0  0  0  0  0
    1.9404   26.0460   20.2335 C   0  0  0  0  0  0  0  0  0  0  0  0
    1.5093   26.2141   21.6841 C   0  0  0  0  0  0  0  0  0  0  0  0
    0.5584   27.1998   21.9726 C   0  0  0  0  0  0  0  0  0  0  0  0
    0.1341   27.4005   23.2720 C   0  0  0  0  0  0  0  0  0  0  0  0
    0.6541   26.6242   24.2827 C   0  0  0  0  0  0  0  0  0  0  0  0
    1.6010   25.6253   24.0309 C   0  0  0  0  0  0  0  0  0  0  0  0
    2.1635   24.8067   25.0426 C   0  0  0  0  0  0  0  0  0  0  0  0
    3.1142   23.8182   24.6926 C   0  0  0  0  0  0  0  0  0  0  0  0
    3.5214   23.6102   23.4227 C   0  0  0  0  0  0  0  0  0  0  0  0
    3.0114   24.3778   22.3941 C   0  0  0  0  0  0  0  0  0  0  0  0
    2.0817   25.3589   22.6768 C   0  0  0  0  0  0  0  0  0  0  0  0
    0.3073   24.6156   19.0360 C   0  0  0  0  0  0  0  0  0  0  0  0
   -0.4753   24.1474   20.3327 C   0  0  0  0  0  0  0  0  0  0  0  0
   -1.6033   24.8778   20.7311 C   0  0  0  0  0  0  0  0  0  0  0  0
   -2.3534   24.5036   21.8453 C   0  0  0  0  0  0  0  0  0  0  0  0
   -1.9920   23.3850   22.5832 C   0  0  0  0  0  0  0  0  0  0  0  0
   -0.8805   22.6392   22.2065 C   0  0  0  0  0  0  0  0  0  0  0  0
   -0.5322   21.5253   22.9749 C   0  0  0  0  0  0  0  0  0  0  0  0
    0.6137   20.7958   22.6415 C   0  0  0  0  0  0  0  0  0  0  0  0
    1.3779   21.1549   21.5241 C   0  0  0  0  0  0  0  0  0  0  0  0
    1.0065   22.2550   20.7405 C   0  0  0  0  0  0  0  0  0  0  0  0
   -0.1215   23.0066   21.0868 C   0  0  0  0  0  0  0  0  0  0  0  0
    2.4523   29.7790   16.7638 C   0  0  0  0  0  0  0  0  0  0  0  0
    1.1789   30.0776   15.9869 C   0  0  0  0  0  0  0  0  0  0  0  0
    1.0319   31.0656   15.0123 N   0  0  0  0  0  0  0  0  0  0  0  0
   -0.0002   29.4253   16.0851 C   0  0  0  0  0  0  0  0  0  0  0  0
   -0.2200   30.9699   14.5439 C   0  0  0  0  0  0  0  0  0  0  0  0
   -0.8411   29.9909   15.1774 N   0  0  0  0  0  0  0  0  0  0  0  0
    1.7176   31.7104   14.7236 H   0  0  0  0  0  0  0  0  0  0  0  0
   -1.7717   29.7127   15.0168 H   0  0  0  0  0  0  0  0  0  0  0  0
 32 33  2  0  0  0
 32 36  1  0  0  0
 36 48  1  0  0  0
 36 37  1  0  0  0
 48 49  1  0  0  0
 49 50  2  0  0  0
 49 58  1  0  0  0
 50 51  1  0  0  0
 51 52  2  0  0  0
 52 53  1  0  0  0
 53 54  2  0  0  0
 53 58  1  0  0  0
 54 55  1  0  0  0
 55 56  2  0  0  0
 56 57  1  0  0  0
 57 58  2  0  0  0
 37 38  1  0  0  0
 38 39  2  0  0  0
 38 47  1  0  0  0
 39 40  1  0  0  0
 40 41  2  0  0  0
 41 42  1  0  0  0
 42 43  2  0  0  0
 42 47  1  0  0  0
 43 44  1  0  0  0
 44 45  2  0  0  0
 45 46  1  0  0  0
 46 47  2  0  0  0
 34  1  1  0  0  0
  1  2  1  0  0  0
  1 59  1  0  0  0
  2  3  2  0  0  0
 59 60  1  0  0  0
 60 61  1  0  0  0
 60 62  2  0  0  0
 61 63  2  0  0  0
 62 64  1  0  0  0
 63 64  1  0  0  0
  4  6  1  0  0  0
  6 25  1  0  0  0
  6  7  1  0  0  0
 25 26  1  0  0  0
 26 27  1  0  0  0
 26 28  1  0  0  0
 27 29  1  0  0  0
 28 30  1  0  0  0
 29 31  1  0  0  0
 30 31  1  0  0  0
  7  8  1  0  0  0
  7 10  1  0  0  0
 10 11  1  0  0  0
 11 21  1  0  0  0
 11 12  1  0  0  0
 21 22  1  0  0  0
 22 23  1  0  0  0
 22 24  1  0  0  0
 12 13  2  0  0  0
 14 16  1  0  0  0
 16 17  1  0  0  0
 17 19  1  0  0  0
 17 18  1  0  0  0
 19 20  1  0  0  0
 32 34  1  0  0  0
  2  4  1  0  0  0
 12 14  1  0  0  0
 34 35  1  0  0  0
 61 65  1  0  0  0
 64 66  1  0  0  0
  4  5  1  0  0  0
  8  9  1  0  0  0
 14 15  1  0  0  0
M  CHG 1  61   1
M  END
> <minimizedAffinity>
-9.87345

$$$$
4ER1_0ZP_E_327


 66 71  0  0  0  0  0  0  0  0999 V2000
    4.1617   32.7983   14.6553 C   0  0  0  0  0  0  0  0  0  0  0  0
    3.1837   32.2203   15.6694 C   0  0  0  0  0  0  0  0  0  0  0  0
    2.4728   32.9820   16.3482 O   0  0  0  0  0  0  0  0  0  0  0  0
    3.1882   30.9734   15.8310 N   0  0  0  0  0  0  0  0  0  0  0  0
    3.8439   30.4514   15.3145 H   0  0  0  0  0  0  0  0  0  0  0  0
    2.2916   30.2340   16.7304 C   0  0  0  0  0  0  0  0  0  0  0  0
    3.0421   29.0100   17.3031 C   0  0  0  0  0  0  0  0  0  0  0  0
    4.1958   28.7439   16.5127 O   0  0  0  0  0  0  0  0  0  0  0  0
    4.7840   29.5150   16.5293 H   0  0  0  0  0  0  0  0  0  0  0  0
    3.4818   29.3007   18.7611 C   0  0  0  0  0  0  0  0  0  0  0  0
    3.0194   28.2521   19.7201 C   0  0  0  0  0  0  0  0  0  0  0  0
    3.9064   27.2829   19.8074 C   0  0  0  0  0  0  0  0  0  0  0  0
    3.6021   26.1244   19.4946 O   0  0  0  0  0  0  0  0  0  0  0  0
    5.0813   27.6509   20.2501 N   0  0  0  0  0  0  0  0  0  0  0  0
    5.2225   28.5865   20.5221 H   0  0  0  0  0  0  0  0  0  0  0  0
    6.1818   26.7078   20.3487 C   0  0  0  0  0  0  0  0  0  0  0  0
    7.4683   27.3015   19.8028 C   0  0  0  0  0  0  0  0  0  0  0  0
    7.2770   28.6347   19.0836 C   0  0  0  0  0  0  0  0  0  0  0  0
    8.4961   27.5608   20.9023 C   0  0  0  0  0  0  0  0  0  0  0  0
    8.2855   28.8981   21.6071 C   0  0  0  0  0  0  0  0  0  0  0  0
    1.7595   27.6469   19.2385 C   0  0  0  0  0  0  0  0  0  0  0  0
    0.6518   27.7842   20.2878 C   0  0  0  0  0  0  0  0  0  0  0  0
    0.6396   29.2080   20.8474 C   0  0  0  0  0  0  0  0  0  0  0  0
   -0.7117   27.4922   19.6525 C   0  0  0  0  0  0  0  0  0  0  0  0
    1.0328   29.8272   15.9490 C   0  0  0  0  0  0  0  0  0  0  0  0
   -0.2109   29.7602   16.8504 C   0  0  0  0  0  0  0  0  0  0  0  0
   -1.4447   29.5295   15.9609 C   0  0  0  0  0  0  0  0  0  0  0  0
   -0.3268   30.9503   17.6017 C   0  0  0  0  0  0  0  0  0  0  0  0
   -2.7313   29.5143   16.7862 C   0  0  0  0  0  0  0  0  0  0  0  0
   -1.6016   30.9470   18.4598 C   0  0  0  0  0  0  0  0  0  0  0  0
   -2.8350   30.8070   17.5776 C   0  0  0  0  0  0  0  0  0  0  0  0
    3.8642   34.1559   12.6204 C   0  0  0  0  0  0  0  0  0  0  0  0
    4.9856   33.9972   12.1100 O   0  0  0  0  0  0  0  0  0  0  0  0
    3.4444   33.7445   13.7960 N   0  0  0  0  0  0  0  0  0  0  0  0
    2.5857   34.0977   14.1232 H   0  0  0  0  0  0  0  0  0  0  0  0
    2.7786   34.9359   11.8891 C   0  0  0  0  0  0  0  0  0  0  0  0
    2.1185   35.8063   12.9837 C   0  0  0  0  0  0  0  0  0  0  0  0
    2.4614   37.2877   12.9044 C   0  0  0  0  0  0  0  0  0  0  0  0
    3.7761   37.6367   12.5747 C   0  0  0  0  0  0  0  0  0  0  0  0
    4.1455   38.9656   12.4937 C   0  0  0  0  0  0  0  0  0  0  0  0
    3.2109   39.9454   12.7405 C   0  0  0  0  0  0  0  0  0  0  0  0
    1.8862   39.6341   13.0660 C   0  0  0  0  0  0  0  0  0  0  0  0
    0.8942   40.6119   13.3305 C   0  0  0  0  0  0  0  0  0  0  0  0
   -0.4225   40.2023   13.6495 C   0  0  0  0  0  0  0  0  0  0  0  0
   -0.7905   38.9054   13.7166 C   0  0  0  0  0  0  0  0  0  0  0  0
    0.1319   37.9071   13.4718 C   0  0  0  0  0  0  0  0  0  0  0  0
    1.4327   38.2479   13.1577 C   0  0  0  0  0  0  0  0  0  0  0  0
    1.7915   34.0386   11.2763 C   0  0  0  0  0  0  0  0  0  0  0  0
    0.3325   34.5931   11.5533 C   0  0  0  0  0  0  0  0  0  0  0  0
   -0.1789   35.5808   10.7004 C   0  0  0  0  0  0  0  0  0  0  0  0
   -1.4652   36.0913   10.8706 C   0  0  0  0  0  0  0  0  0  0  0  0
   -2.2704   35.6193   11.8979 C   0  0  0  0  0  0  0  0  0  0  0  0
   -1.7898   34.6355   12.7551 C   0  0  0  0  0  0  0  0  0  0  0  0
   -2.6172   34.1879   13.7883 C   0  0  0  0  0  0  0  0  0  0  0  0
   -2.1299   33.2379   14.6919 C   0  0  0  0  0  0  0  0  0  0  0  0
   -0.8415   32.7116   14.5350 C   0  0  0  0  0  0  0  0  0  0  0  0
   -0.0279   33.1428   13.4794 C   0  0  0  0  0  0  0  0  0  0  0  0
   -0.4988   34.1150   12.5906 C   0  0  0  0  0  0  0  0  0  0  0  0
    5.1247   33.3706   15.6832 C   0  0  0  0  0  0  0  0  0  0  0  0
    6.5103   32.7915   15.9259 C   0  0  0  0  0  0  0  0  0  0  0  0
    7.4645   32.5226   14.9437 N   0  0  0  0  0  0  0  0  0  0  0  0
    7.0559   32.4729   17.1202 C   0  0  0  0  0  0  0  0  0  0  0  0
    8.5562   32.0669   15.5732 C   0  0  0  0  0  0  0  0  0  0  0  0
    8.3208   32.0374   16.8728 N   0  0  0  0  0  0  0  0  0  0  0  0
    7.3562   32.6447   13.9728 H   0  0  0  0  0  0  0  0  0  0  0  0
    8.9636   31.7446   17.5586 H   0  0  0  0  0  0  0  0  0  0  0  0
 32 33  2  0  0  0
 32 36  1  0  0  0
 36 48  1  0  0  0
 36 37  1  0  0  0
 48 49  1  0  0  0
 49 50  2  0  0  0
 49 58  1  0  0  0
 50 51  1  0  0  0
 51 52  2  0  0  0
 52 53  1  0  0  0
 53 54  2  0  0  0
 53 58  1  0  0  0
 54 55  1  0  0  0
 55 56  2  0  0  0
 56 57  1  0  0  0
 57 58  2  0  0  0
 37 38  1  0  0  0
 38 39  2  0  0  0
 38 47  1  0  0  0
 39 40  1  0  0  0
 40 41  2  0  0  0
 41 42  1  0  0  0
 42 43  2  0  0  0
 42 47  1  0  0  0
 43 44  1  0  0  0
 44 45  2  0  0  0
 45 46  1  0  0  0
 46 47  2  0  0  0
 34  1  1  0  0  0
  1  2  1  0  0  0
  1 59  1  0  0  0
  2  3  2  0  0  0
 59 60  1  0  0  0
 60 61  1  0  0  0
 60 62  2  0  0  0
 61 63  2  0  0  0
 62 64  1  0  0  0
 63 64  1  0  0  0
  4  6  1  0  0  0
  6 25  1  0  0  0
  6  7  1  0  0  0
 25 26  1  0  0  0
 26 27  1  0  0  0
 26 28  1  0  0  0
 27 29  1  0  0  0
 28 30  1  0  0  0
 29 31  1  0  0  0
 30 31  1  0  0  0
  7  8  1  0  0  0
  7 10  1  0  0  0
 10 11  1  0  0  0
 11 21  1  0  0  0
 11 12  1  0  0  0
 21 22  1  0  0  0
 22 23  1  0  0  0
 22 24  1  0  0  0
 12 13  2  0  0  0
 14 16  1  0  0  0
 16 17  1  0  0  0
 17 19  1  0  0  0
 17 18  1  0  0  0
 19 20  1  0  0  0
 32 34  1  0  0  0
  2  4  1  0  0  0
 12 14  1  0  0  0
 34 35  1  0  0  0
 61 65  1  0  0  0
 64 66  1  0  0  0
  4  5  1  0  0  0
  8  9  1  0  0  0
 14 15  1  0  0  0
M  CHG 1  61   1
M  END
> <minimizedAffinity>
-9.54061

$$$$
4ER1_0ZP_E_327


 66 71  0  0  0  0  0  0  0  0999 V2000
    3.0846   28.2268   17.0768 C   0  0  0  0  0  0  0  0  0  0  0  0
    4.3212   28.6793   17.8416 C   0  0  0  0  0  0  0  0  0  0  0  0
    4.6775   29.8698   17.7946 O   0  0  0  0  0  0  0  0  0  0  0  0
    4.9841   27.7964   18.4432 N   0  0  0  0  0  0  0  0  0  0  0  0
    4.6799   26.8640   18.3578 H   0  0  0  0  0  0  0  0  0  0  0  0
    6.1771   28.0469   19.2639 C   0  0  0  0  0  0  0  0  0  0  0  0
    7.4354   27.9660   18.3697 C   0  0  0  0  0  0  0  0  0  0  0  0
    7.1011   28.3444   17.0387 O   0  0  0  0  0  0  0  0  0  0  0  0
    6.7659   29.2546   17.0358 H   0  0  0  0  0  0  0  0  0  0  0  0
    8.5254   28.9261   18.9117 C   0  0  0  0  0  0  0  0  0  0  0  0
    7.9855   30.2798   19.2417 C   0  0  0  0  0  0  0  0  0  0  0  0
    8.3216   31.1500   18.3124 C   0  0  0  0  0  0  0  0  0  0  0  0
    9.3416   31.8401   18.4391 O   0  0  0  0  0  0  0  0  0  0  0  0
    7.4988   31.2158   17.2973 N   0  0  0  0  0  0  0  0  0  0  0  0
    6.6838   30.6635   17.3008 H   0  0  0  0  0  0  0  0  0  0  0  0
    7.7628   32.0868   16.1650 C   0  0  0  0  0  0  0  0  0  0  0  0
    6.8069   33.2663   16.1412 C   0  0  0  0  0  0  0  0  0  0  0  0
    5.8867   33.2912   14.9231 C   0  0  0  0  0  0  0  0  0  0  0  0
    5.8892   33.2900   17.3618 C   0  0  0  0  0  0  0  0  0  0  0  0
    6.4617   34.1057   18.5178 C   0  0  0  0  0  0  0  0  0  0  0  0
    8.5639   30.7581   20.5154 C   0  0  0  0  0  0  0  0  0  0  0  0
    7.4728   30.9445   21.5745 C   0  0  0  0  0  0  0  0  0  0  0  0
    8.0117   30.5502   22.9509 C   0  0  0  0  0  0  0  0  0  0  0  0
    7.0305   32.4109   21.6195 C   0  0  0  0  0  0  0  0  0  0  0  0
    6.2139   27.0227   20.4085 C   0  0  0  0  0  0  0  0  0  0  0  0
    6.0495   27.6876   21.7849 C   0  0  0  0  0  0  0  0  0  0  0  0
    6.1642   26.6005   22.8673 C   0  0  0  0  0  0  0  0  0  0  0  0
    4.8087   28.3586   21.8514 C   0  0  0  0  0  0  0  0  0  0  0  0
    5.9477   27.1808   24.2649 C   0  0  0  0  0  0  0  0  0  0  0  0
    4.5799   28.9729   23.2412 C   0  0  0  0  0  0  0  0  0  0  0  0
    4.6046   27.8895   24.3111 C   0  0  0  0  0  0  0  0  0  0  0  0
    1.6264   26.2707   17.4233 C   0  0  0  0  0  0  0  0  0  0  0  0
    1.2662   26.0811   16.2496 O   0  0  0  0  0  0  0  0  0  0  0  0
    2.3512   27.2592   17.8978 N   0  0  0  0  0  0  0  0  0  0  0  0
    2.4055   27.3567   18.8760 H   0  0  0  0  0  0  0  0  0  0  0  0
    1.2040   25.3148   18.5321 C   0  0  0  0  0  0  0  0  0  0  0  0
    0.0190   26.0235   19.2284 C   0  0  0  0  0  0  0  0  0  0  0  0
    0.2257   26.2874   20.7137 C   0  0  0  0  0  0  0  0  0  0  0  0
    0.9891   27.4024   21.0785 C   0  0  0  0  0  0  0  0  0  0  0  0
    1.2142   27.6876   22.4115 C   0  0  0  0  0  0  0  0  0  0  0  0
    0.6827   26.8664   23.3798 C   0  0  0  0  0  0  0  0  0  0  0  0
   -0.0908   25.7473   23.0525 C   0  0  0  0  0  0  0  0  0  0  0  0
   -0.6534   24.8747   24.0181 C   0  0  0  0  0  0  0  0  0  0  0  0
   -1.4256   23.7674   23.5928 C   0  0  0  0  0  0  0  0  0  0  0  0
   -1.6587   23.4930   22.2919 C   0  0  0  0  0  0  0  0  0  0  0  0
   -1.1350   24.3048   21.3051 C   0  0  0  0  0  0  0  0  0  0  0  0
   -0.3718   25.3991   21.6614 C   0  0  0  0  0  0  0  0  0  0  0  0
    2.2967   25.0780   19.4836 C   0  0  0  0  0  0  0  0  0  0  0  0
    2.0305   23.7245   20.2647 C   0  0  0  0  0  0  0  0  0  0  0  0
    1.3602   22.6900   19.5977 C   0  0  0  0  0  0  0  0  0  0  0  0
    1.1190   21.4642   20.2168 C   0  0  0  0  0  0  0  0  0  0  0  0
    1.5489   21.2459   21.5183 C   0  0  0  0  0  0  0  0  0  0  0  0
    2.2213   22.2535   22.2012 C   0  0  0  0  0  0  0  0  0  0  0  0
    2.6315   22.0109   23.5147 C   0  0  0  0  0  0  0  0  0  0  0  0
    3.2613   23.0318   24.2341 C   0  0  0  0  0  0  0  0  0  0  0  0
    3.5146   24.2687   23.6278 C   0  0  0  0  0  0  0  0  0  0  0  0
    3.1273   24.4954   22.3009 C   0  0  0  0  0  0  0  0  0  0  0  0
    2.4699   23.4883   21.5863 C   0  0  0  0  0  0  0  0  0  0  0  0
    2.4861   29.6158   16.9217 C   0  0  0  0  0  0  0  0  0  0  0  0
    1.1751   29.8712   16.1935 C   0  0  0  0  0  0  0  0  0  0  0  0
    1.0197   30.6450   15.0425 N   0  0  0  0  0  0  0  0  0  0  0  0
   -0.0390   29.3734   16.5152 C   0  0  0  0  0  0  0  0  0  0  0  0
   -0.2737   30.5785   14.6981 C   0  0  0  0  0  0  0  0  0  0  0  0
   -0.9112   29.8186   15.5707 N   0  0  0  0  0  0  0  0  0  0  0  0
    1.7260   31.1448   14.5729 H   0  0  0  0  0  0  0  0  0  0  0  0
   -1.8722   29.6066   15.5419 H   0  0  0  0  0  0  0  0  0  0  0  0
 32 33  2  0  0  0
 32 36  1  0  0  0
 36 48  1  0  0  0
 36 37  1  0  0  0
 48 49  1  0  0  0
 49 50  2  0  0  0
 49 58  1  0  0  0
 50 51  1  0  0  0
 51 52  2  0  0  0
 52 53  1  0  0  0
 53 54  2  0  0  0
 53 58  1  0  0  0
 54 55  1  0  0  0
 55 56  2  0  0  0
 56 57  1  0  0  0
 57 58  2  0  0  0
 37 38  1  0  0  0
 38 39  2  0  0  0
 38 47  1  0  0  0
 39 40  1  0  0  0
 40 41  2  0  0  0
 41 42  1  0  0  0
 42 43  2  0  0  0
 42 47  1  0  0  0
 43 44  1  0  0  0
 44 45  2  0  0  0
 45 46  1  0  0  0
 46 47  2  0  0  0
 34  1  1  0  0  0
  1  2  1  0  0  0
  1 59  1  0  0  0
  2  3  2  0  0  0
 59 60  1  0  0  0
 60 61  1  0  0  0
 60 62  2  0  0  0
 61 63  2  0  0  0
 62 64  1  0  0  0
 63 64  1  0  0  0
  4  6  1  0  0  0
  6 25  1  0  0  0
  6  7  1  0  0  0
 25 26  1  0  0  0
 26 27  1  0  0  0
 26 28  1  0  0  0
 27 29  1  0  0  0
 28 30  1  0  0  0
 29 31  1  0  0  0
 30 31  1  0  0  0
  7  8  1  0  0  0
  7 10  1  0  0  0
 10 11  1  0  0  0
 11 21  1  0  0  0
 11 12  1  0  0  0
 21 22  1  0  0  0
 22 23  1  0  0  0
 22 24  1  0  0  0
 12 13  2  0  0  0
 14 16  1  0  0  0
 16 17  1  0  0  0
 17 19  1  0  0  0
 17 18  1  0  0  0
 19 20  1  0  0  0
 32 34  1  0  0  0
  2  4  1  0  0  0
 12 14  1  0  0  0
 34 35  1  0  0  0
 61 65  1  0  0  0
 64 66  1  0  0  0
  4  5  1  0  0  0
  8  9  1  0  0  0
 14 15  1  0  0  0
M  CHG 1  61   1
M  END
> <minimizedAffinity>
-9.52283

$$$$
4ER1_0ZP_E_327


 66 71  0  0  0  0  0  0  0  0999 V2000
    2.0606   30.4150   16.3503 C   0  0  0  0  0  0  0  0  0  0  0  0
    2.4142   31.8238   15.8932 C   0  0  0  0  0  0  0  0  0  0  0  0
    1.7077   32.7849   16.2448 O   0  0  0  0  0  0  0  0  0  0  0  0
    3.3853   31.9489   15.1044 N   0  0  0  0  0  0  0  0  0  0  0  0
    3.8376   31.1263   14.8077 H   0  0  0  0  0  0  0  0  0  0  0  0
    3.8983   33.2265   14.5905 C   0  0  0  0  0  0  0  0  0  0  0  0
    3.2060   33.5488   13.2465 C   0  0  0  0  0  0  0  0  0  0  0  0
    2.1965   32.5799   12.9845 O   0  0  0  0  0  0  0  0  0  0  0  0
    1.5371   32.5995   13.6956 H   0  0  0  0  0  0  0  0  0  0  0  0
    2.5547   34.9540   13.3169 C   0  0  0  0  0  0  0  0  0  0  0  0
    3.1593   35.9161   12.3465 C   0  0  0  0  0  0  0  0  0  0  0  0
    3.3103   37.0998   12.9033 C   0  0  0  0  0  0  0  0  0  0  0  0
    2.6182   37.4281   13.8759 O   0  0  0  0  0  0  0  0  0  0  0  0
    4.2141   37.8606   12.3412 N   0  0  0  0  0  0  0  0  0  0  0  0
    4.6855   37.5373   11.5396 H   0  0  0  0  0  0  0  0  0  0  0  0
    4.5367   39.1726   12.8752 C   0  0  0  0  0  0  0  0  0  0  0  0
    4.1296   40.2752   11.9140 C   0  0  0  0  0  0  0  0  0  0  0  0
    5.2141   41.3248   11.6828 C   0  0  0  0  0  0  0  0  0  0  0  0
    3.7687   39.7325   10.5328 C   0  0  0  0  0  0  0  0  0  0  0  0
    2.3713   40.1465   10.0800 C   0  0  0  0  0  0  0  0  0  0  0  0
    2.2625   36.0930   11.1846 C   0  0  0  0  0  0  0  0  0  0  0  0
    0.8311   35.6709   11.5306 C   0  0  0  0  0  0  0  0  0  0  0  0
   -0.0982   36.8845   11.4678 C   0  0  0  0  0  0  0  0  0  0  0  0
    0.3380   34.6197   10.5305 C   0  0  0  0  0  0  0  0  0  0  0  0
    5.4244   33.1241   14.4451 C   0  0  0  0  0  0  0  0  0  0  0  0
    6.1038   32.7071   15.7598 C   0  0  0  0  0  0  0  0  0  0  0  0
    5.7082   33.7147   16.8529 C   0  0  0  0  0  0  0  0  0  0  0  0
    7.5039   32.6542   15.5836 C   0  0  0  0  0  0  0  0  0  0  0  0
    6.3995   33.3979   18.1790 C   0  0  0  0  0  0  0  0  0  0  0  0
    8.2198   32.3118   16.8995 C   0  0  0  0  0  0  0  0  0  0  0  0
    7.9028   33.3544   17.9632 C   0  0  0  0  0  0  0  0  0  0  0  0
    3.6560   29.1135   17.7044 C   0  0  0  0  0  0  0  0  0  0  0  0
    3.8290   28.1516   16.9374 O   0  0  0  0  0  0  0  0  0  0  0  0
    2.8133   30.1133   17.5712 N   0  0  0  0  0  0  0  0  0  0  0  0
    2.6778   30.7025   18.3482 H   0  0  0  0  0  0  0  0  0  0  0  0
    4.4458   29.2269   19.0024 C   0  0  0  0  0  0  0  0  0  0  0  0
    5.9137   29.4096   18.5517 C   0  0  0  0  0  0  0  0  0  0  0  0
    6.9487   28.9679   19.5775 C   0  0  0  0  0  0  0  0  0  0  0  0
    7.5074   27.6927   19.4337 C   0  0  0  0  0  0  0  0  0  0  0  0
    8.4472   27.2369   20.3381 C   0  0  0  0  0  0  0  0  0  0  0  0
    8.8304   28.0461   21.3835 C   0  0  0  0  0  0  0  0  0  0  0  0
    8.2984   29.3289   21.5550 C   0  0  0  0  0  0  0  0  0  0  0  0
    8.6631   30.1921   22.6189 C   0  0  0  0  0  0  0  0  0  0  0  0
    8.0735   31.4756   22.7101 C   0  0  0  0  0  0  0  0  0  0  0  0
    7.1649   31.9294   21.8210 C   0  0  0  0  0  0  0  0  0  0  0  0
    6.7676   31.1335   20.7647 C   0  0  0  0  0  0  0  0  0  0  0  0
    7.3083   29.8704   20.6265 C   0  0  0  0  0  0  0  0  0  0  0  0
    4.3038   28.0198   19.8259 C   0  0  0  0  0  0  0  0  0  0  0  0
    4.3484   28.4201   21.3591 C   0  0  0  0  0  0  0  0  0  0  0  0
    3.7555   29.6283   21.7506 C   0  0  0  0  0  0  0  0  0  0  0  0
    3.7345   30.0267   23.0866 C   0  0  0  0  0  0  0  0  0  0  0  0
    4.3039   29.2198   24.0619 C   0  0  0  0  0  0  0  0  0  0  0  0
    4.8939   28.0133   23.7015 C   0  0  0  0  0  0  0  0  0  0  0  0
    5.4707   27.2269   24.7022 C   0  0  0  0  0  0  0  0  0  0  0  0
    6.1154   26.0367   24.3502 C   0  0  0  0  0  0  0  0  0  0  0  0
    6.1440   25.6189   23.0137 C   0  0  0  0  0  0  0  0  0  0  0  0
    5.5380   26.3972   22.0191 C   0  0  0  0  0  0  0  0  0  0  0  0
    4.9181   27.6037   22.3613 C   0  0  0  0  0  0  0  0  0  0  0  0
    0.5682   30.6708   16.4879 C   0  0  0  0  0  0  0  0  0  0  0  0
   -0.3447   29.7892   17.3267 C   0  0  0  0  0  0  0  0  0  0  0  0
   -0.0200   29.2189   18.5583 N   0  0  0  0  0  0  0  0  0  0  0  0
   -1.6180   29.4397   17.0403 C   0  0  0  0  0  0  0  0  0  0  0  0
   -1.1064   28.5588   18.9823 C   0  0  0  0  0  0  0  0  0  0  0  0
   -2.0653   28.6887   18.0829 N   0  0  0  0  0  0  0  0  0  0  0  0
    0.8432   29.2883   19.0266 H   0  0  0  0  0  0  0  0  0  0  0  0
   -2.9672   28.3008   18.1560 H   0  0  0  0  0  0  0  0  0  0  0  0
 32 33  2  0  0  0
 32 36  1  0  0  0
 36 48  1  0  0  0
 36 37  1  0  0  0
 48 49  1  0  0  0
 49 50  2  0  0  0
 49 58  1  0  0  0
 50 51  1  0  0  0
 51 52  2  0  0  0
 52 53  1  0  0  0
 53 54  2  0  0  0
 53 58  1  0  0  0
 54 55  1  0  0  0
 55 56  2  0  0  0
 56 57  1  0  0  0
 57 58  2  0  0  0
 37 38  1  0  0  0
 38 39  2  0  0  0
 38 47  1  0  0  0
 39 40  1  0  0  0
 40 41  2  0  0  0
 41 42  1  0  0  0
 42 43  2  0  0  0
 42 47  1  0  0  0
 43 44  1  0  0  0
 44 45  2  0  0  0
 45 46  1  0  0  0
 46 47  2  0  0  0
 34  1  1  0  0  0
  1  2  1  0  0  0
  1 59  1  0  0  0
  2  3  2  0  0  0
 59 60  1  0  0  0
 60 61  1  0  0  0
 60 62  2  0  0  0
 61 63  2  0  0  0
 62 64  1  0  0  0
 63 64  1  0  0  0
  4  6  1  0  0  0
  6 25  1  0  0  0
  6  7  1  0  0  0
 25 26  1  0  0  0
 26 27  1  0  0  0
 26 28  1  0  0  0
 27 29  1  0  0  0
 28 30  1  0  0  0
 29 31  1  0  0  0
 30 31  1  0  0  0
  7  8  1  0  0  0
  7 10  1  0  0  0
 10 11  1  0  0  0
 11 21  1  0  0  0
 11 12  1  0  0  0
 21 22  1  0  0  0
 22 23  1  0  0  0
 22 24  1  0  0  0
 12 13  2  0  0  0
 14 16  1  0  0  0
 16 17  1  0  0  0
 17 19  1  0  0  0
 17 18  1  0  0  0
 19 20  1  0  0  0
 32 34  1  0  0  0
  2  4  1  0  0  0
 12 14  1  0  0  0
 34 35  1  0  0  0
 61 65  1  0  0  0
 64 66  1  0  0  0
  4  5  1  0  0  0
  8  9  1  0  0  0
 14 15  1  0  0  0
M  CHG 1  61   1
M  END
> <minimizedAffinity>
-9.50480

$$$$
4ER1_0ZP_E_327


 66 71  0  0  0  0  0  0  0  0999 V2000
    2.7966   30.8579   16.4390 C   0  0  0  0  0  0  0  0  0  0  0  0
    3.3427   32.2513   16.1578 C   0  0  0  0  0  0  0  0  0  0  0  0
    2.7585   33.2495   16.6146 O   0  0  0  0  0  0  0  0  0  0  0  0
    4.3421   32.3383   15.3998 N   0  0  0  0  0  0  0  0  0  0  0  0
    4.6909   31.5036   15.0115 H   0  0  0  0  0  0  0  0  0  0  0  0
    5.0305   33.5881   15.0482 C   0  0  0  0  0  0  0  0  0  0  0  0
    4.8358   33.8690   13.5407 C   0  0  0  0  0  0  0  0  0  0  0  0
    4.9753   32.6573   12.8067 O   0  0  0  0  0  0  0  0  0  0  0  0
    4.3048   32.0215   13.1018 H   0  0  0  0  0  0  0  0  0  0  0  0
    3.4198   34.4509   13.2952 C   0  0  0  0  0  0  0  0  0  0  0  0
    3.4215   35.5643   12.2987 C   0  0  0  0  0  0  0  0  0  0  0  0
    3.4392   36.7306   12.9096 C   0  0  0  0  0  0  0  0  0  0  0  0
    2.6834   36.9493   13.8654 O   0  0  0  0  0  0  0  0  0  0  0  0
    4.2875   37.5965   12.4172 N   0  0  0  0  0  0  0  0  0  0  0  0
    4.8169   37.3546   11.6232 H   0  0  0  0  0  0  0  0  0  0  0  0
    4.4646   38.9074   13.0178 C   0  0  0  0  0  0  0  0  0  0  0  0
    3.8020   39.9903   12.1849 C   0  0  0  0  0  0  0  0  0  0  0  0
    4.4855   41.3519   12.2851 C   0  0  0  0  0  0  0  0  0  0  0  0
    3.7771   39.6408   10.6984 C   0  0  0  0  0  0  0  0  0  0  0  0
    2.4643   40.0246   10.0213 C   0  0  0  0  0  0  0  0  0  0  0  0
    2.1874   35.5174   11.4861 C   0  0  0  0  0  0  0  0  0  0  0  0
    1.2255   34.4490   12.0153 C   0  0  0  0  0  0  0  0  0  0  0  0
   -0.0490   35.1117   12.5414 C   0  0  0  0  0  0  0  0  0  0  0  0
    0.8489   33.4788   10.8906 C   0  0  0  0  0  0  0  0  0  0  0  0
    6.5141   33.4585   15.4256 C   0  0  0  0  0  0  0  0  0  0  0  0
    6.7063   32.7771   16.7904 C   0  0  0  0  0  0  0  0  0  0  0  0
    7.1003   33.8509   17.8192 C   0  0  0  0  0  0  0  0  0  0  0  0
    7.6881   31.7669   16.6912 C   0  0  0  0  0  0  0  0  0  0  0  0
    7.3699   33.2347   19.1919 C   0  0  0  0  0  0  0  0  0  0  0  0
    7.9580   31.1147   18.0561 C   0  0  0  0  0  0  0  0  0  0  0  0
    8.4335   32.1580   19.0583 C   0  0  0  0  0  0  0  0  0  0  0  0
    3.9758   29.1426   17.7581 C   0  0  0  0  0  0  0  0  0  0  0  0
    3.8815   28.1866   16.9703 O   0  0  0  0  0  0  0  0  0  0  0  0
    3.4373   30.3366   17.6498 N   0  0  0  0  0  0  0  0  0  0  0  0
    3.4664   30.9237   18.4396 H   0  0  0  0  0  0  0  0  0  0  0  0
    4.7651   29.0090   19.0545 C   0  0  0  0  0  0  0  0  0  0  0  0
    5.1542   27.5138   19.1225 C   0  0  0  0  0  0  0  0  0  0  0  0
    6.2059   27.1824   20.1726 C   0  0  0  0  0  0  0  0  0  0  0  0
    7.4977   27.6873   19.9847 C   0  0  0  0  0  0  0  0  0  0  0  0
    8.4936   27.4139   20.9025 C   0  0  0  0  0  0  0  0  0  0  0  0
    8.2068   26.6400   22.0040 C   0  0  0  0  0  0  0  0  0  0  0  0
    6.9255   26.1241   22.2279 C   0  0  0  0  0  0  0  0  0  0  0  0
    6.5894   25.3208   23.3467 C   0  0  0  0  0  0  0  0  0  0  0  0
    5.2642   24.8451   23.4918 C   0  0  0  0  0  0  0  0  0  0  0  0
    4.2854   25.1209   22.6043 C   0  0  0  0  0  0  0  0  0  0  0  0
    4.5523   25.8961   21.4929 C   0  0  0  0  0  0  0  0  0  0  0  0
    5.8286   26.3862   21.2987 C   0  0  0  0  0  0  0  0  0  0  0  0
    3.9548   29.3863   20.2191 C   0  0  0  0  0  0  0  0  0  0  0  0
    4.9101   29.7217   21.4388 C   0  0  0  0  0  0  0  0  0  0  0  0
    6.0827   30.4473   21.1879 C   0  0  0  0  0  0  0  0  0  0  0  0
    6.9523   30.8001   22.2191 C   0  0  0  0  0  0  0  0  0  0  0  0
    6.6632   30.4371   23.5273 C   0  0  0  0  0  0  0  0  0  0  0  0
    5.5035   29.7217   23.8048 C   0  0  0  0  0  0  0  0  0  0  0  0
    5.2440   29.3585   25.1289 C   0  0  0  0  0  0  0  0  0  0  0  0
    4.1098   28.5928   25.4182 C   0  0  0  0  0  0  0  0  0  0  0  0
    3.2234   28.2315   24.3958 C   0  0  0  0  0  0  0  0  0  0  0  0
    3.4739   28.6242   23.0747 C   0  0  0  0  0  0  0  0  0  0  0  0
    4.6226   29.3643   22.7749 C   0  0  0  0  0  0  0  0  0  0  0  0
    1.3405   31.2836   16.5400 C   0  0  0  0  0  0  0  0  0  0  0  0
    0.2425   30.3531   17.0326 C   0  0  0  0  0  0  0  0  0  0  0  0
   -0.9954   30.7504   17.5398 N   0  0  0  0  0  0  0  0  0  0  0  0
    0.2672   29.0022   17.0332 C   0  0  0  0  0  0  0  0  0  0  0  0
   -1.6821   29.6330   17.8153 C   0  0  0  0  0  0  0  0  0  0  0  0
   -0.9361   28.5856   17.5125 N   0  0  0  0  0  0  0  0  0  0  0  0
   -1.3054   31.6756   17.6704 H   0  0  0  0  0  0  0  0  0  0  0  0
   -1.2094   27.6457   17.6179 H   0  0  0  0  0  0  0  0  0  0  0  0
 32 33  2  0  0  0
 32 36  1  0  0  0
 36 48  1  0  0  0
 36 37  1  0  0  0
 48 49  1  0  0  0
 49 50  2  0  0  0
 49 58  1  0  0  0
 50 51  1  0  0  0
 51 52  2  0  0  0
 52 53  1  0  0  0
 53 54  2  0  0  0
 53 58  1  0  0  0
 54 55  1  0  0  0
 55 56  2  0  0  0
 56 57  1  0  0  0
 57 58  2  0  0  0
 37 38  1  0  0  0
 38 39  2  0  0  0
 38 47  1  0  0  0
 39 40  1  0  0  0
 40 41  2  0  0  0
 41 42  1  0  0  0
 42 43  2  0  0  0
 42 47  1  0  0  0
 43 44  1  0  0  0
 44 45  2  0  0  0
 45 46  1  0  0  0
 46 47  2  0  0  0
 34  1  1  0  0  0
  1  2  1  0  0  0
  1 59  1  0  0  0
  2  3  2  0  0  0
 59 60  1  0  0  0
 60 61  1  0  0  0
 60 62  2  0  0  0
 61 63  2  0  0  0
 62 64  1  0  0  0
 63 64  1  0  0  0
  4  6  1  0  0  0
  6 25  1  0  0  0
  6  7  1  0  0  0
 25 26  1  0  0  0
 26 27  1  0  0  0
 26 28  1  0  0  0
 27 29  1  0  0  0
 28 30  1  0  0  0
 29 31  1  0  0  0
 30 31  1  0  0  0
  7  8  1  0  0  0
  7 10  1  0  0  0
 10 11  1  0  0  0
 11 21  1  0  0  0
 11 12  1  0  0  0
 21 22  1  0  0  0
 22 23  1  0  0  0
 22 24  1  0  0  0
 12 13  2  0  0  0
 14 16  1  0  0  0
 16 17  1  0  0  0
 17 19  1  0  0  0
 17 18  1  0  0  0
 19 20  1  0  0  0
 32 34  1  0  0  0
  2  4  1  0  0  0
 12 14  1  0  0  0
 34 35  1  0  0  0
 61 65  1  0  0  0
 64 66  1  0  0  0
  4  5  1  0  0  0
  8  9  1  0  0  0
 14 15  1  0  0  0
M  CHG 1  61   1
M  END
> <minimizedAffinity>
-9.49949

$$$$
4ER1_0ZP_E_327


 66 71  0  0  0  0  0  0  0  0999 V2000
    3.9444   32.2937   14.9186 C   0  0  0  0  0  0  0  0  0  0  0  0
    3.4706   31.5163   16.1393 C   0  0  0  0  0  0  0  0  0  0  0  0
    2.6207   32.0134   16.8989 O   0  0  0  0  0  0  0  0  0  0  0  0
    4.0235   30.4111   16.3711 N   0  0  0  0  0  0  0  0  0  0  0  0
    4.7486   30.1310   15.7669 H   0  0  0  0  0  0  0  0  0  0  0  0
    3.6724   29.5045   17.4731 C   0  0  0  0  0  0  0  0  0  0  0  0
    4.9683   28.9830   18.1350 C   0  0  0  0  0  0  0  0  0  0  0  0
    6.0688   29.1834   17.2545 O   0  0  0  0  0  0  0  0  0  0  0  0
    6.1650   30.1303   17.0674 H   0  0  0  0  0  0  0  0  0  0  0  0
    5.2281   29.7529   19.4554 C   0  0  0  0  0  0  0  0  0  0  0  0
    5.0962   28.8825   20.6629 C   0  0  0  0  0  0  0  0  0  0  0  0
    5.9645   29.2392   21.5862 C   0  0  0  0  0  0  0  0  0  0  0  0
    5.5821   29.5330   22.7265 O   0  0  0  0  0  0  0  0  0  0  0  0
    7.2109   29.2627   21.1892 N   0  0  0  0  0  0  0  0  0  0  0  0
    7.4212   29.0604   20.2490 H   0  0  0  0  0  0  0  0  0  0  0  0
    8.2911   29.5811   22.1070 C   0  0  0  0  0  0  0  0  0  0  0  0
    8.8661   30.9581   21.8265 C   0  0  0  0  0  0  0  0  0  0  0  0
    8.7950   31.3699   20.3580 C   0  0  0  0  0  0  0  0  0  0  0  0
    8.1434   32.0548   22.6059 C   0  0  0  0  0  0  0  0  0  0  0  0
    7.0501   32.7394   21.7902 C   0  0  0  0  0  0  0  0  0  0  0  0
    5.3906   27.4779   20.3081 C   0  0  0  0  0  0  0  0  0  0  0  0
    4.6569   26.5130   21.2449 C   0  0  0  0  0  0  0  0  0  0  0  0
    3.9783   25.4113   20.4288 C   0  0  0  0  0  0  0  0  0  0  0  0
    5.6511   25.8665   22.2155 C   0  0  0  0  0  0  0  0  0  0  0  0
    2.8067   28.3631   16.9177 C   0  0  0  0  0  0  0  0  0  0  0  0
    2.2747   27.4463   18.0314 C   0  0  0  0  0  0  0  0  0  0  0  0
    1.4754   26.3041   17.3810 C   0  0  0  0  0  0  0  0  0  0  0  0
    1.4799   28.1907   18.9305 C   0  0  0  0  0  0  0  0  0  0  0  0
    0.8611   25.3834   18.4354 C   0  0  0  0  0  0  0  0  0  0  0  0
    0.8714   27.2892   20.0160 C   0  0  0  0  0  0  0  0  0  0  0  0
    0.0063   26.2070   19.3837 C   0  0  0  0  0  0  0  0  0  0  0  0
    2.7928   33.5464   13.1362 C   0  0  0  0  0  0  0  0  0  0  0  0
    3.7649   33.7833   12.3999 O   0  0  0  0  0  0  0  0  0  0  0  0
    2.7948   32.9799   14.3221 N   0  0  0  0  0  0  0  0  0  0  0  0
    1.9635   33.0193   14.8481 H   0  0  0  0  0  0  0  0  0  0  0  0
    1.3837   33.9502   12.7202 C   0  0  0  0  0  0  0  0  0  0  0  0
    0.5506   32.6542   12.8534 C   0  0  0  0  0  0  0  0  0  0  0  0
   -0.6331   32.7596   13.8054 C   0  0  0  0  0  0  0  0  0  0  0  0
   -1.4815   33.8648   13.6721 C   0  0  0  0  0  0  0  0  0  0  0  0
   -2.5681   34.0152   14.5121 C   0  0  0  0  0  0  0  0  0  0  0  0
   -2.8106   33.0700   15.4828 C   0  0  0  0  0  0  0  0  0  0  0  0
   -1.9881   31.9491   15.6409 C   0  0  0  0  0  0  0  0  0  0  0  0
   -2.2007   30.9549   16.6291 C   0  0  0  0  0  0  0  0  0  0  0  0
   -1.3166   29.8528   16.7122 C   0  0  0  0  0  0  0  0  0  0  0  0
   -0.2617   29.6956   15.8850 C   0  0  0  0  0  0  0  0  0  0  0  0
   -0.0014   30.6322   14.9040 C   0  0  0  0  0  0  0  0  0  0  0  0
   -0.8298   31.7297   14.7774 C   0  0  0  0  0  0  0  0  0  0  0  0
    1.3518   34.4460   11.3387 C   0  0  0  0  0  0  0  0  0  0  0  0
    1.0455   36.0013   11.3445 C   0  0  0  0  0  0  0  0  0  0  0  0
    2.0860   36.8851   11.6621 C   0  0  0  0  0  0  0  0  0  0  0  0
    1.8918   38.2658   11.6580 C   0  0  0  0  0  0  0  0  0  0  0  0
    0.6501   38.7925   11.3304 C   0  0  0  0  0  0  0  0  0  0  0  0
   -0.3980   37.9383   11.0058 C   0  0  0  0  0  0  0  0  0  0  0  0
   -1.6406   38.4953   10.6924 C   0  0  0  0  0  0  0  0  0  0  0  0
   -2.7194   37.6490   10.4161 C   0  0  0  0  0  0  0  0  0  0  0  0
   -2.5426   36.2596   10.4127 C   0  0  0  0  0  0  0  0  0  0  0  0
   -1.2870   35.7084   10.6986 C   0  0  0  0  0  0  0  0  0  0  0  0
   -0.2118   36.5491   11.0054 C   0  0  0  0  0  0  0  0  0  0  0  0
    4.9616   33.1421   15.6650 C   0  0  0  0  0  0  0  0  0  0  0  0
    6.4074   32.7118   15.8616 C   0  0  0  0  0  0  0  0  0  0  0  0
    7.3451   32.5182   14.8463 N   0  0  0  0  0  0  0  0  0  0  0  0
    7.0287   32.4777   17.0383 C   0  0  0  0  0  0  0  0  0  0  0  0
    8.5013   32.1899   15.4390 C   0  0  0  0  0  0  0  0  0  0  0  0
    8.3209   32.1668   16.7475 N   0  0  0  0  0  0  0  0  0  0  0  0
    7.1872   32.6062   13.8785 H   0  0  0  0  0  0  0  0  0  0  0  0
    9.0164   31.9564   17.4117 H   0  0  0  0  0  0  0  0  0  0  0  0
 32 33  2  0  0  0
 32 36  1  0  0  0
 36 48  1  0  0  0
 36 37  1  0  0  0
 48 49  1  0  0  0
 49 50  2  0  0  0
 49 58  1  0  0  0
 50 51  1  0  0  0
 51 52  2  0  0  0
 52 53  1  0  0  0
 53 54  2  0  0  0
 53 58  1  0  0  0
 54 55  1  0  0  0
 55 56  2  0  0  0
 56 57  1  0  0  0
 57 58  2  0  0  0
 37 38  1  0  0  0
 38 39  2  0  0  0
 38 47  1  0  0  0
 39 40  1  0  0  0
 40 41  2  0  0  0
 41 42  1  0  0  0
 42 43  2  0  0  0
 42 47  1  0  0  0
 43 44  1  0  0  0
 44 45  2  0  0  0
 45 46  1  0  0  0
 46 47  2  0  0  0
 34  1  1  0  0  0
  1  2  1  0  0  0
  1 59  1  0  0  0
  2  3  2  0  0  0
 59 60  1  0  0  0
 60 61  1  0  0  0
 60 62  2  0  0  0
 61 63  2  0  0  0
 62 64  1  0  0  0
 63 64  1  0  0  0
  4  6  1  0  0  0
  6 25  1  0  0  0
  6  7  1  0  0  0
 25 26  1  0  0  0
 26 27  1  0  0  0
 26 28  1  0  0  0
 27 29  1  0  0  0
 28 30  1  0  0  0
 29 31  1  0  0  0
 30 31  1  0  0  0
  7  8  1  0  0  0
  7 10  1  0  0  0
 10 11  1  0  0  0
 11 21  1  0  0  0
 11 12  1  0  0  0
 21 22  1  0  0  0
 22 23  1  0  0  0
 22 24  1  0  0  0
 12 13  2  0  0  0
 14 16  1  0  0  0
 16 17  1  0  0  0
 17 19  1  0  0  0
 17 18  1  0  0  0
 19 20  1  0  0  0
 32 34  1  0  0  0
  2  4  1  0  0  0
 12 14  1  0  0  0
 34 35  1  0  0  0
 61 65  1  0  0  0
 64 66  1  0  0  0
  4  5  1  0  0  0
  8  9  1  0  0  0
 14 15  1  0  0  0
M  CHG 1  61   1
M  END
> <minimizedAffinity>
-9.42288

$$$$
4ER1_0ZP_E_327


 66 71  0  0  0  0  0  0  0  0999 V2000
    4.2913   33.0243   14.9878 C   0  0  0  0  0  0  0  0  0  0  0  0
    3.3494   32.3226   15.9570 C   0  0  0  0  0  0  0  0  0  0  0  0
    2.4814   32.9772   16.5607 O   0  0  0  0  0  0  0  0  0  0  0  0
    3.5403   31.0971   16.1636 N   0  0  0  0  0  0  0  0  0  0  0  0
    4.3047   30.6743   15.7095 H   0  0  0  0  0  0  0  0  0  0  0  0
    2.7121   30.2464   17.0295 C   0  0  0  0  0  0  0  0  0  0  0  0
    3.6121   29.1989   17.7239 C   0  0  0  0  0  0  0  0  0  0  0  0
    3.6228   27.9970   16.9611 O   0  0  0  0  0  0  0  0  0  0  0  0
    3.9717   28.1797   16.0746 H   0  0  0  0  0  0  0  0  0  0  0  0
    5.0597   29.7430   17.8339 C   0  0  0  0  0  0  0  0  0  0  0  0
    5.7668   29.2506   19.0548 C   0  0  0  0  0  0  0  0  0  0  0  0
    6.6656   30.1268   19.4527 C   0  0  0  0  0  0  0  0  0  0  0  0
    7.8268   30.0712   19.0270 O   0  0  0  0  0  0  0  0  0  0  0  0
    6.2288   31.0108   20.3126 N   0  0  0  0  0  0  0  0  0  0  0  0
    5.3004   30.9519   20.6348 H   0  0  0  0  0  0  0  0  0  0  0  0
    7.0852   32.0773   20.8020 C   0  0  0  0  0  0  0  0  0  0  0  0
    7.3491   31.9345   22.2904 C   0  0  0  0  0  0  0  0  0  0  0  0
    6.5269   30.8365   22.9611 C   0  0  0  0  0  0  0  0  0  0  0  0
    8.8106   31.6066   22.5884 C   0  0  0  0  0  0  0  0  0  0  0  0
    9.1688   30.1568   22.2734 C   0  0  0  0  0  0  0  0  0  0  0  0
    6.4871   27.9960   18.7504 C   0  0  0  0  0  0  0  0  0  0  0  0
    6.2580   26.9544   19.8501 C   0  0  0  0  0  0  0  0  0  0  0  0
    7.4027   27.0080   20.8634 C   0  0  0  0  0  0  0  0  0  0  0  0
    4.9406   27.2416   20.5783 C   0  0  0  0  0  0  0  0  0  0  0  0
    1.6150   29.5917   16.1761 C   0  0  0  0  0  0  0  0  0  0  0  0
    0.2669   29.5332   16.9131 C   0  0  0  0  0  0  0  0  0  0  0  0
   -0.8582   29.4741   15.8656 C   0  0  0  0  0  0  0  0  0  0  0  0
    0.1308   30.6554   17.7595 C   0  0  0  0  0  0  0  0  0  0  0  0
   -2.2361   29.4770   16.5274 C   0  0  0  0  0  0  0  0  0  0  0  0
   -1.2388   30.6664   18.4564 C   0  0  0  0  0  0  0  0  0  0  0  0
   -2.3589   30.6966   17.4251 C   0  0  0  0  0  0  0  0  0  0  0  0
    4.0089   34.7722   13.2738 C   0  0  0  0  0  0  0  0  0  0  0  0
    5.1716   34.8127   12.8380 O   0  0  0  0  0  0  0  0  0  0  0  0
    3.5506   34.0817   14.2939 N   0  0  0  0  0  0  0  0  0  0  0  0
    2.6437   34.2900   14.6154 H   0  0  0  0  0  0  0  0  0  0  0  0
    2.9087   35.6127   12.6377 C   0  0  0  0  0  0  0  0  0  0  0  0
    2.1796   34.6418   11.6800 C   0  0  0  0  0  0  0  0  0  0  0  0
    0.6626   34.7717   11.6838 C   0  0  0  0  0  0  0  0  0  0  0  0
    0.0759   35.6006   10.7205 C   0  0  0  0  0  0  0  0  0  0  0  0
   -1.2958   35.7605   10.6802 C   0  0  0  0  0  0  0  0  0  0  0  0
   -2.0828   35.0991   11.5954 C   0  0  0  0  0  0  0  0  0  0  0  0
   -1.5320   34.2574   12.5680 C   0  0  0  0  0  0  0  0  0  0  0  0
   -2.3061   33.5609   13.5302 C   0  0  0  0  0  0  0  0  0  0  0  0
   -1.6607   32.7280   14.4753 C   0  0  0  0  0  0  0  0  0  0  0  0
   -0.3220   32.5588   14.5095 C   0  0  0  0  0  0  0  0  0  0  0  0
    0.4852   33.2129   13.5997 C   0  0  0  0  0  0  0  0  0  0  0  0
   -0.0895   34.0404   12.6554 C   0  0  0  0  0  0  0  0  0  0  0  0
    3.4629   36.7522   11.8961 C   0  0  0  0  0  0  0  0  0  0  0  0
    2.7190   38.0803   12.3386 C   0  0  0  0  0  0  0  0  0  0  0  0
    1.5651   37.9678   13.1263 C   0  0  0  0  0  0  0  0  0  0  0  0
    0.8791   39.0963   13.5733 C   0  0  0  0  0  0  0  0  0  0  0  0
    1.3375   40.3645   13.2445 C   0  0  0  0  0  0  0  0  0  0  0  0
    2.4832   40.5046   12.4689 C   0  0  0  0  0  0  0  0  0  0  0  0
    2.9148   41.7928   12.1423 C   0  0  0  0  0  0  0  0  0  0  0  0
    4.0342   41.9507   11.3186 C   0  0  0  0  0  0  0  0  0  0  0  0
    4.7377   40.8289   10.8624 C   0  0  0  0  0  0  0  0  0  0  0  0
    4.3171   39.5409   11.2179 C   0  0  0  0  0  0  0  0  0  0  0  0
    3.1804   39.3760   12.0166 C   0  0  0  0  0  0  0  0  0  0  0  0
    5.3036   33.4476   16.0403 C   0  0  0  0  0  0  0  0  0  0  0  0
    6.7111   32.8743   16.1069 C   0  0  0  0  0  0  0  0  0  0  0  0
    7.4591   32.4224   15.0189 N   0  0  0  0  0  0  0  0  0  0  0  0
    7.4768   32.7367   17.2115 C   0  0  0  0  0  0  0  0  0  0  0  0
    8.6524   32.0420   15.4956 C   0  0  0  0  0  0  0  0  0  0  0  0
    8.6714   32.2297   16.8031 N   0  0  0  0  0  0  0  0  0  0  0  0
    7.1659   32.3893   14.0797 H   0  0  0  0  0  0  0  0  0  0  0  0
    9.4347   32.0325   17.3928 H   0  0  0  0  0  0  0  0  0  0  0  0
 32 33  2  0  0  0
 32 36  1  0  0  0
 36 48  1  0  0  0
 36 37  1  0  0  0
 48 49  1  0  0  0
 49 50  2  0  0  0
 49 58  1  0  0  0
 50 51  1  0  0  0
 51 52  2  0  0  0
 52 53  1  0  0  0
 53 54  2  0  0  0
 53 58  1  0  0  0
 54 55  1  0  0  0
 55 56  2  0  0  0
 56 57  1  0  0  0
 57 58  2  0  0  0
 37 38  1  0  0  0
 38 39  2  0  0  0
 38 47  1  0  0  0
 39 40  1  0  0  0
 40 41  2  0  0  0
 41 42  1  0  0  0
 42 43  2  0  0  0
 42 47  1  0  0  0
 43 44  1  0  0  0
 44 45  2  0  0  0
 45 46  1  0  0  0
 46 47  2  0  0  0
 34  1  1  0  0  0
  1  2  1  0  0  0
  1 59  1  0  0  0
  2  3  2  0  0  0
 59 60  1  0  0  0
 60 61  1  0  0  0
 60 62  2  0  0  0
 61 63  2  0  0  0
 62 64  1  0  0  0
 63 64  1  0  0  0
  4  6  1  0  0  0
  6 25  1  0  0  0
  6  7  1  0  0  0
 25 26  1  0  0  0
 26 27  1  0  0  0
 26 28  1  0  0  0
 27 29  1  0  0  0
 28 30  1  0  0  0
 29 31  1  0  0  0
 30 31  1  0  0  0
  7  8  1  0  0  0
  7 10  1  0  0  0
 10 11  1  0  0  0
 11 21  1  0  0  0
 11 12  1  0  0  0
 21 22  1  0  0  0
 22 23  1  0  0  0
 22 24  1  0  0  0
 12 13  2  0  0  0
 14 16  1  0  0  0
 16 17  1  0  0  0
 17 19  1  0  0  0
 17 18  1  0  0  0
 19 20  1  0  0  0
 32 34  1  0  0  0
  2  4  1  0  0  0
 12 14  1  0  0  0
 34 35  1  0  0  0
 61 65  1  0  0  0
 64 66  1  0  0  0
  4  5  1  0  0  0
  8  9  1  0  0  0
 14 15  1  0  0  0
M  CHG 1  61   1
M  END
> <minimizedAffinity>
-9.40412

$$$$
4ER1_0ZP_E_327


 66 71  0  0  0  0  0  0  0  0999 V2000
    4.5037   32.8205   15.5290 C   0  0  0  0  0  0  0  0  0  0  0  0
    3.3943   32.0289   16.2082 C   0  0  0  0  0  0  0  0  0  0  0  0
    2.4379   32.6269   16.7318 O   0  0  0  0  0  0  0  0  0  0  0  0
    3.5318   30.7809   16.2743 N   0  0  0  0  0  0  0  0  0  0  0  0
    4.3615   30.3961   15.9100 H   0  0  0  0  0  0  0  0  0  0  0  0
    2.5513   29.8515   16.8526 C   0  0  0  0  0  0  0  0  0  0  0  0
    3.1819   28.4437   16.9512 C   0  0  0  0  0  0  0  0  0  0  0  0
    4.1515   28.4261   17.9933 O   0  0  0  0  0  0  0  0  0  0  0  0
    3.7241   28.6438   18.8364 H   0  0  0  0  0  0  0  0  0  0  0  0
    2.0811   27.3977   17.2644 C   0  0  0  0  0  0  0  0  0  0  0  0
    1.9182   27.1573   18.7302 C   0  0  0  0  0  0  0  0  0  0  0  0
    2.3696   25.9638   19.0553 C   0  0  0  0  0  0  0  0  0  0  0  0
    3.4977   25.8330   19.5481 O   0  0  0  0  0  0  0  0  0  0  0  0
    1.5476   24.9776   18.8034 N   0  0  0  0  0  0  0  0  0  0  0  0
    0.6870   25.1676   18.3646 H   0  0  0  0  0  0  0  0  0  0  0  0
    1.8783   23.6081   19.1577 C   0  0  0  0  0  0  0  0  0  0  0  0
    1.1260   23.1619   20.3988 C   0  0  0  0  0  0  0  0  0  0  0  0
    1.8465   23.4817   21.7063 C   0  0  0  0  0  0  0  0  0  0  0  0
   -0.2498   23.8162   20.5060 C   0  0  0  0  0  0  0  0  0  0  0  0
   -0.9976   23.4189   21.7758 C   0  0  0  0  0  0  0  0  0  0  0  0
    0.4854   27.1942   19.0924 C   0  0  0  0  0  0  0  0  0  0  0  0
    0.2348   28.1916   20.2278 C   0  0  0  0  0  0  0  0  0  0  0  0
   -0.0179   27.4382   21.5351 C   0  0  0  0  0  0  0  0  0  0  0  0
    1.4570   29.0979   20.4091 C   0  0  0  0  0  0  0  0  0  0  0  0
    1.2874   29.8594   15.9790 C   0  0  0  0  0  0  0  0  0  0  0  0
    0.0032   29.7663   16.8192 C   0  0  0  0  0  0  0  0  0  0  0  0
   -1.1818   29.5165   15.8706 C   0  0  0  0  0  0  0  0  0  0  0  0
   -0.1707   30.9513   17.5675 C   0  0  0  0  0  0  0  0  0  0  0  0
   -2.5063   29.4746   16.6328 C   0  0  0  0  0  0  0  0  0  0  0  0
   -1.4850   30.9215   18.3630 C   0  0  0  0  0  0  0  0  0  0  0  0
   -2.6717   30.7622   17.4220 C   0  0  0  0  0  0  0  0  0  0  0  0
    4.1246   34.1473   13.4873 C   0  0  0  0  0  0  0  0  0  0  0  0
    4.9984   33.6466   12.7599 O   0  0  0  0  0  0  0  0  0  0  0  0
    3.9001   33.9132   14.7610 N   0  0  0  0  0  0  0  0  0  0  0  0
    3.2814   34.5157   15.2336 H   0  0  0  0  0  0  0  0  0  0  0  0
    3.1626   35.1951   12.9411 C   0  0  0  0  0  0  0  0  0  0  0  0
    2.5042   34.5197   11.7156 C   0  0  0  0  0  0  0  0  0  0  0  0
    0.9992   34.7272   11.6132 C   0  0  0  0  0  0  0  0  0  0  0  0
    0.5237   35.5705   10.6023 C   0  0  0  0  0  0  0  0  0  0  0  0
   -0.8318   35.7998   10.4656 C   0  0  0  0  0  0  0  0  0  0  0  0
   -1.7129   35.1933   11.3318 C   0  0  0  0  0  0  0  0  0  0  0  0
   -1.2744   34.3392   12.3497 C   0  0  0  0  0  0  0  0  0  0  0  0
   -2.1477   33.6978   13.2641 C   0  0  0  0  0  0  0  0  0  0  0  0
   -1.6127   32.8472   14.2609 C   0  0  0  0  0  0  0  0  0  0  0  0
   -0.2901   32.6102   14.3894 C   0  0  0  0  0  0  0  0  0  0  0  0
    0.6104   33.2084   13.5300 C   0  0  0  0  0  0  0  0  0  0  0  0
    0.1455   34.0500   12.5389 C   0  0  0  0  0  0  0  0  0  0  0  0
    3.8696   36.4177   12.5404 C   0  0  0  0  0  0  0  0  0  0  0  0
    2.8937   37.6593   12.6779 C   0  0  0  0  0  0  0  0  0  0  0  0
    1.7552   37.5268   13.4847 C   0  0  0  0  0  0  0  0  0  0  0  0
    0.8708   38.5884   13.6714 C   0  0  0  0  0  0  0  0  0  0  0  0
    1.1104   39.8095   13.0566 C   0  0  0  0  0  0  0  0  0  0  0  0
    2.2356   39.9699   12.2554 C   0  0  0  0  0  0  0  0  0  0  0  0
    2.4453   41.2060   11.6385 C   0  0  0  0  0  0  0  0  0  0  0  0
    3.5428   41.3677   10.7867 C   0  0  0  0  0  0  0  0  0  0  0  0
    4.4435   40.3135   10.5893 C   0  0  0  0  0  0  0  0  0  0  0  0
    4.2438   39.0861   11.2341 C   0  0  0  0  0  0  0  0  0  0  0  0
    3.1312   38.9089   12.0634 C   0  0  0  0  0  0  0  0  0  0  0  0
    5.2380   33.1818   16.8103 C   0  0  0  0  0  0  0  0  0  0  0  0
    6.6700   32.7505   17.0887 C   0  0  0  0  0  0  0  0  0  0  0  0
    7.2489   32.6137   18.3512 N   0  0  0  0  0  0  0  0  0  0  0  0
    7.6017   32.4014   16.1746 C   0  0  0  0  0  0  0  0  0  0  0  0
    8.5006   32.1740   18.1620 C   0  0  0  0  0  0  0  0  0  0  0  0
    8.7173   32.0419   16.8655 N   0  0  0  0  0  0  0  0  0  0  0  0
    6.8193   32.8040   19.2163 H   0  0  0  0  0  0  0  0  0  0  0  0
    9.5588   31.7304   16.4605 H   0  0  0  0  0  0  0  0  0  0  0  0
 32 33  2  0  0  0
 32 36  1  0  0  0
 36 48  1  0  0  0
 36 37  1  0  0  0
 48 49  1  0  0  0
 49 50  2  0  0  0
 49 58  1  0  0  0
 50 51  1  0  0  0
 51 52  2  0  0  0
 52 53  1  0  0  0
 53 54  2  0  0  0
 53 58  1  0  0  0
 54 55  1  0  0  0
 55 56  2  0  0  0
 56 57  1  0  0  0
 57 58  2  0  0  0
 37 38  1  0  0  0
 38 39  2  0  0  0
 38 47  1  0  0  0
 39 40  1  0  0  0
 40 41  2  0  0  0
 41 42  1  0  0  0
 42 43  2  0  0  0
 42 47  1  0  0  0
 43 44  1  0  0  0
 44 45  2  0  0  0
 45 46  1  0  0  0
 46 47  2  0  0  0
 34  1  1  0  0  0
  1  2  1  0  0  0
  1 59  1  0  0  0
  2  3  2  0  0  0
 59 60  1  0  0  0
 60 61  1  0  0  0
 60 62  2  0  0  0
 61 63  2  0  0  0
 62 64  1  0  0  0
 63 64  1  0  0  0
  4  6  1  0  0  0
  6 25  1  0  0  0
  6  7  1  0  0  0
 25 26  1  0  0  0
 26 27  1  0  0  0
 26 28  1  0  0  0
 27 29  1  0  0  0
 28 30  1  0  0  0
 29 31  1  0  0  0
 30 31  1  0  0  0
  7  8  1  0  0  0
  7 10  1  0  0  0
 10 11  1  0  0  0
 11 21  1  0  0  0
 11 12  1  0  0  0
 21 22  1  0  0  0
 22 23  1  0  0  0
 22 24  1  0  0  0
 12 13  2  0  0  0
 14 16  1  0  0  0
 16 17  1  0  0  0
 17 19  1  0  0  0
 17 18  1  0  0  0
 19 20  1  0  0  0
 32 34  1  0  0  0
  2  4  1  0  0  0
 12 14  1  0  0  0
 34 35  1  0  0  0
 61 65  1  0  0  0
 64 66  1  0  0  0
  4  5  1  0  0  0
  8  9  1  0  0  0
 14 15  1  0  0  0
M  CHG 1  61   1
M  END
> <minimizedAffinity>
-9.23389

$$$$
4ER1_0ZP_E_327


 66 71  0  0  0  0  0  0  0  0999 V2000
    4.5652   33.0997   15.3531 C   0  0  0  0  0  0  0  0  0  0  0  0
    3.4920   32.3794   16.1581 C   0  0  0  0  0  0  0  0  0  0  0  0
    2.5441   33.0228   16.6420 O   0  0  0  0  0  0  0  0  0  0  0  0
    3.6515   31.1493   16.3637 N   0  0  0  0  0  0  0  0  0  0  0  0
    4.4746   30.7347   16.0175 H   0  0  0  0  0  0  0  0  0  0  0  0
    2.7060   30.2819   17.0800 C   0  0  0  0  0  0  0  0  0  0  0  0
    3.4701   29.0744   17.6695 C   0  0  0  0  0  0  0  0  0  0  0  0
    4.8299   29.1185   17.2506 O   0  0  0  0  0  0  0  0  0  0  0  0
    5.2390   29.9395   17.5660 H   0  0  0  0  0  0  0  0  0  0  0  0
    3.4142   29.1249   19.2181 C   0  0  0  0  0  0  0  0  0  0  0  0
    3.2100   27.7767   19.8293 C   0  0  0  0  0  0  0  0  0  0  0  0
    4.3683   27.2173   20.1110 C   0  0  0  0  0  0  0  0  0  0  0  0
    4.7564   26.2266   19.4781 O   0  0  0  0  0  0  0  0  0  0  0  0
    5.0278   27.7814   21.0900 N   0  0  0  0  0  0  0  0  0  0  0  0
    4.6219   28.5380   21.5717 H   0  0  0  0  0  0  0  0  0  0  0  0
    6.3468   27.3147   21.4811 C   0  0  0  0  0  0  0  0  0  0  0  0
    7.3820   28.4186   21.3578 C   0  0  0  0  0  0  0  0  0  0  0  0
    8.8198   27.9111   21.2784 C   0  0  0  0  0  0  0  0  0  0  0  0
    7.1684   29.2732   20.1102 C   0  0  0  0  0  0  0  0  0  0  0  0
    7.8574   28.7005   18.8746 C   0  0  0  0  0  0  0  0  0  0  0  0
    2.5184   26.8872   18.8723 C   0  0  0  0  0  0  0  0  0  0  0  0
    1.2622   26.2780   19.5030 C   0  0  0  0  0  0  0  0  0  0  0  0
    0.0921   27.2558   19.3794 C   0  0  0  0  0  0  0  0  0  0  0  0
    0.8941   24.9750   18.7855 C   0  0  0  0  0  0  0  0  0  0  0  0
    1.5992   29.8472   16.1071 C   0  0  0  0  0  0  0  0  0  0  0  0
    0.2370   29.7076   16.8060 C   0  0  0  0  0  0  0  0  0  0  0  0
   -0.8466   29.5291   15.7287 C   0  0  0  0  0  0  0  0  0  0  0  0
   -0.0112   30.8417   17.6101 C   0  0  0  0  0  0  0  0  0  0  0  0
   -2.2411   29.4461   16.3496 C   0  0  0  0  0  0  0  0  0  0  0  0
   -1.3989   30.7684   18.2659 C   0  0  0  0  0  0  0  0  0  0  0  0
   -2.4848   30.6798   17.2020 C   0  0  0  0  0  0  0  0  0  0  0  0
    4.1051   34.3595   13.2857 C   0  0  0  0  0  0  0  0  0  0  0  0
    4.9481   33.8330   12.5405 O   0  0  0  0  0  0  0  0  0  0  0  0
    3.9321   34.1680   14.5744 N   0  0  0  0  0  0  0  0  0  0  0  0
    3.3337   34.7873   15.0516 H   0  0  0  0  0  0  0  0  0  0  0  0
    3.1229   35.3911   12.7446 C   0  0  0  0  0  0  0  0  0  0  0  0
    2.4214   34.6806   11.5637 C   0  0  0  0  0  0  0  0  0  0  0  0
    0.9053   34.8213   11.5530 C   0  0  0  0  0  0  0  0  0  0  0  0
    0.3349   35.6673   10.5949 C   0  0  0  0  0  0  0  0  0  0  0  0
   -1.0352   35.8375   10.5421 C   0  0  0  0  0  0  0  0  0  0  0  0
   -1.8366   35.1693   11.4397 C   0  0  0  0  0  0  0  0  0  0  0  0
   -1.3022   34.3105   12.4065 C   0  0  0  0  0  0  0  0  0  0  0  0
   -2.0914   33.6065   13.3507 C   0  0  0  0  0  0  0  0  0  0  0  0
   -1.4621   32.7561   14.2911 C   0  0  0  0  0  0  0  0  0  0  0  0
   -0.1251   32.5771   14.3374 C   0  0  0  0  0  0  0  0  0  0  0  0
    0.6965   33.2377   13.4453 C   0  0  0  0  0  0  0  0  0  0  0  0
    0.1377   34.0821   12.5063 C   0  0  0  0  0  0  0  0  0  0  0  0
    3.8137   36.6016   12.2835 C   0  0  0  0  0  0  0  0  0  0  0  0
    2.8902   37.8645   12.5392 C   0  0  0  0  0  0  0  0  0  0  0  0
    1.7678   37.7139   13.3650 C   0  0  0  0  0  0  0  0  0  0  0  0
    0.9300   38.7903   13.6539 C   0  0  0  0  0  0  0  0  0  0  0  0
    1.2014   40.0444   13.1247 C   0  0  0  0  0  0  0  0  0  0  0  0
    2.3118   40.2228   12.3069 C   0  0  0  0  0  0  0  0  0  0  0  0
    2.5539   41.4931   11.7776 C   0  0  0  0  0  0  0  0  0  0  0  0
    3.6355   41.6777   10.9101 C   0  0  0  0  0  0  0  0  0  0  0  0
    4.4896   40.6089   10.6108 C   0  0  0  0  0  0  0  0  0  0  0  0
    4.2586   39.3448   11.1683 C   0  0  0  0  0  0  0  0  0  0  0  0
    3.1607   39.1470   12.0125 C   0  0  0  0  0  0  0  0  0  0  0  0
    5.4067   33.5060   16.5524 C   0  0  0  0  0  0  0  0  0  0  0  0
    6.7893   32.9312   16.8211 C   0  0  0  0  0  0  0  0  0  0  0  0
    7.4414   32.9203   18.0549 N   0  0  0  0  0  0  0  0  0  0  0  0
    7.5960   32.3145   15.9299 C   0  0  0  0  0  0  0  0  0  0  0  0
    8.6087   32.2872   17.8748 C   0  0  0  0  0  0  0  0  0  0  0  0
    8.7065   31.9199   16.6096 N   0  0  0  0  0  0  0  0  0  0  0  0
    7.1073   33.3046   18.8975 H   0  0  0  0  0  0  0  0  0  0  0  0
    9.4680   31.4341   16.2179 H   0  0  0  0  0  0  0  0  0  0  0  0
 32 33  2  0  0  0
 32 36  1  0  0  0
 36 48  1  0  0  0
 36 37  1  0  0  0
 48 49  1  0  0  0
 49 50  2  0  0  0
 49 58  1  0  0  0
 50 51  1  0  0  0
 51 52  2  0  0  0
 52 53  1  0  0  0
 53 54  2  0  0  0
 53 58  1  0  0  0
 54 55  1  0  0  0
 55 56  2  0  0  0
 56 57  1  0  0  0
 57 58  2  0  0  0
 37 38  1  0  0  0
 38 39  2  0  0  0
 38 47  1  0  0  0
 39 40  1  0  0  0
 40 41  2  0  0  0
 41 42  1  0  0  0
 42 43  2  0  0  0
 42 47  1  0  0  0
 43 44  1  0  0  0
 44 45  2  0  0  0
 45 46  1  0  0  0
 46 47  2  0  0  0
 34  1  1  0  0  0
  1  2  1  0  0  0
  1 59  1  0  0  0
  2  3  2  0  0  0
 59 60  1  0  0  0
 60 61  1  0  0  0
 60 62  2  0  0  0
 61 63  2  0  0  0
 62 64  1  0  0  0
 63 64  1  0  0  0
  4  6  1  0  0  0
  6 25  1  0  0  0
  6  7  1  0  0  0
 25 26  1  0  0  0
 26 27  1  0  0  0
 26 28  1  0  0  0
 27 29  1  0  0  0
 28 30  1  0  0  0
 29 31  1  0  0  0
 30 31  1  0  0  0
  7  8  1  0  0  0
  7 10  1  0  0  0
 10 11  1  0  0  0
 11 21  1  0  0  0
 11 12  1  0  0  0
 21 22  1  0  0  0
 22 23  1  0  0  0
 22 24  1  0  0  0
 12 13  2  0  0  0
 14 16  1  0  0  0
 16 17  1  0  0  0
 17 19  1  0  0  0
 17 18  1  0  0  0
 19 20  1  0  0  0
 32 34  1  0  0  0
  2  4  1  0  0  0
 12 14  1  0  0  0
 34 35  1  0  0  0
 61 65  1  0  0  0
 64 66  1  0  0  0
  4  5  1  0  0  0
  8  9  1  0  0  0
 14 15  1  0  0  0
M  CHG 1  61   1
M  END
> <minimizedAffinity>
-9.23068

$$$$
