3D91_REM_A_350


 49 52  0  0  0  0  0  0  0  0999 V2000
   -3.8486    4.1096   -7.2064 C   0  0  0  0  0  0  0  0  0  0  0  0
   -4.7285    3.9274   -6.0392 C   0  0  0  0  0  0  0  0  0  0  0  0
   -4.8346    2.8125   -5.5504 O   0  0  0  0  0  0  0  0  0  0  0  0
   -5.3221    5.0399   -5.5597 N   0  0  0  0  0  0  0  0  0  0  0  0
   -5.2033    5.9012   -6.0216 H   0  0  0  0  0  0  0  0  0  0  0  0
   -6.1351    4.9629   -4.3627 C   0  0  0  0  0  0  0  0  0  0  0  0
   -7.3319    5.9206   -4.4263 C   0  0  0  0  0  0  0  0  0  0  0  0
   -7.1653    6.7818   -5.5104 O   0  0  0  0  0  0  0  0  0  0  0  0
   -7.1561    6.2679   -6.3331 H   0  0  0  0  0  0  0  0  0  0  0  0
   -8.7048    5.2177   -4.6592 C   0  0  0  0  0  0  0  0  0  0  0  0
   -8.3796    4.3837   -5.7340 O   0  0  0  0  0  0  0  0  0  0  0  0
   -7.6541    3.7933   -5.4772 H   0  0  0  0  0  0  0  0  0  0  0  0
   -9.1366    4.2801   -3.5337 C   0  0  0  0  0  0  0  0  0  0  0  0
  -10.1569    4.8368   -2.5457 C   0  0  0  0  0  0  0  0  0  0  0  0
  -10.6317    3.8761   -3.6339 C   0  0  0  0  0  0  0  0  0  0  0  0
   -5.1019    5.3308   -3.2971 C   0  0  0  0  0  0  0  0  0  0  0  0
   -4.7091    6.8030   -3.3103 C   0  0  0  0  0  0  0  0  0  0  0  0
   -4.9710    7.3693   -1.9094 C   0  0  0  0  0  0  0  0  0  0  0  0
   -4.9531    8.8950   -2.0464 C   0  0  0  0  0  0  0  0  0  0  0  0
   -3.6540    9.4318   -2.6678 C   0  0  0  0  0  0  0  0  0  0  0  0
   -2.9936    8.5778   -3.7800 C   0  0  0  0  0  0  0  0  0  0  0  0
   -3.2295    7.0697   -3.6491 C   0  0  0  0  0  0  0  0  0  0  0  0
   -1.6934    5.1239   -6.8227 C   0  0  0  0  0  0  0  0  0  0  0  0
   -2.0096    6.1582   -7.4004 O   0  0  0  0  0  0  0  0  0  0  0  0
   -2.4980    4.0766   -6.6803 N   0  0  0  0  0  0  0  0  0  0  0  0
   -2.1748    3.2719   -6.2141 H   0  0  0  0  0  0  0  0  0  0  0  0
   -0.3453    4.9514   -6.2352 C   0  0  0  0  0  0  0  0  0  0  0  0
   -0.1406    6.3187   -5.5856 C   0  0  0  0  0  0  0  0  0  0  0  0
    0.4991    6.1987   -4.2169 C   0  0  0  0  0  0  0  0  0  0  0  0
   -0.2747    5.8142   -3.1356 C   0  0  0  0  0  0  0  0  0  0  0  0
    0.3213    5.7258   -1.8951 C   0  0  0  0  0  0  0  0  0  0  0  0
    1.6609    6.0150   -1.7226 C   0  0  0  0  0  0  0  0  0  0  0  0
    2.4317    6.3824   -2.7963 C   0  0  0  0  0  0  0  0  0  0  0  0
    1.8434    6.4783   -4.0436 C   0  0  0  0  0  0  0  0  0  0  0  0
    0.7808    4.6911   -7.2616 C   0  0  0  0  0  0  0  0  0  0  0  0
   -0.1169    2.3793   -7.2231 O   0  0  0  0  0  0  0  0  0  0  0  0
    0.9572    3.1235   -7.8229 S   0  0  0  0  0  0  0  0  0  0  0  0
    2.1879    2.5291   -7.4372 O   0  0  0  0  0  0  0  0  0  0  0  0
    0.9255    3.0627   -9.4990 C   0  0  0  0  0  0  0  0  0  0  0  0
    1.9837    3.9801  -10.1236 C   0  0  0  0  0  0  0  0  0  0  0  0
   -0.4435    3.4559  -10.0633 C   0  0  0  0  0  0  0  0  0  0  0  0
    1.2155    1.6346   -9.9133 C   0  0  0  0  0  0  0  0  0  0  0  0
   -3.9784    2.9344   -8.1474 C   0  0  0  0  0  0  0  0  0  0  0  0
   -5.3677    2.8774   -8.7211 C   0  0  0  0  0  0  0  0  0  0  0  0
   -5.7289    2.5675   -9.9579 C   0  0  0  0  0  0  0  0  0  0  0  0
   -7.0130    2.5831  -10.1669 N   0  0  0  0  0  0  0  0  0  0  0  0
   -7.5388    2.9450   -8.9626 C   0  0  0  0  0  0  0  0  0  0  0  0
   -6.5137    3.1072   -8.0932 N   0  0  0  0  0  0  0  0  0  0  0  0
   -6.6043    3.3562   -7.1450 H   0  0  0  0  0  0  0  0  0  0  0  0
 36 37  2  0  0  0
 37 38  2  0  0  0
 37 39  1  0  0  0
 37 35  1  0  0  0
 39 40  1  0  0  0
 39 41  1  0  0  0
 39 42  1  0  0  0
 35 27  1  0  0  0
 27 28  1  0  0  0
 27 23  1  0  0  0
 28 29  1  0  0  0
 29 30  2  0  0  0
 29 34  1  0  0  0
 30 31  1  0  0  0
 31 32  2  0  0  0
 32 33  1  0  0  0
 33 34  2  0  0  0
 23 24  2  0  0  0
 23 25  1  0  0  0
 25  1  1  0  0  0
  1 43  1  0  0  0
  1  2  1  0  0  0
 43 44  1  0  0  0
 44 45  2  0  0  0
 44 48  1  0  0  0
 45 46  1  0  0  0
 46 47  2  0  0  0
 47 48  1  0  0  0
  2  3  2  0  0  0
  2  4  1  0  0  0
  4  6  1  0  0  0
  6  7  1  0  0  0
  6 16  1  0  0  0
  7  8  1  0  0  0
  7 10  1  0  0  0
 10 13  1  0  0  0
 10 11  1  0  0  0
 13 14  1  0  0  0
 13 15  1  0  0  0
 14 15  1  0  0  0
 16 17  1  0  0  0
 17 18  1  0  0  0
 17 22  1  0  0  0
 18 19  1  0  0  0
 19 20  1  0  0  0
 20 21  1  0  0  0
 21 22  1  0  0  0
 25 26  1  0  0  0
 48 49  1  0  0  0
  4  5  1  0  0  0
  8  9  1  0  0  0
 11 12  1  0  0  0
M  END
> <minimizedAffinity>
-10.96090

$$$$
3D91_REM_A_350


 49 52  0  0  0  0  0  0  0  0999 V2000
   -3.9705    4.0005   -7.2708 C   0  0  0  0  0  0  0  0  0  0  0  0
   -4.7944    3.8445   -6.0598 C   0  0  0  0  0  0  0  0  0  0  0  0
   -4.8792    2.7402   -5.5437 O   0  0  0  0  0  0  0  0  0  0  0  0
   -5.3629    4.9681   -5.5758 N   0  0  0  0  0  0  0  0  0  0  0  0
   -5.2647    5.8195   -6.0603 H   0  0  0  0  0  0  0  0  0  0  0  0
   -6.1184    4.9177   -4.3404 C   0  0  0  0  0  0  0  0  0  0  0  0
   -7.3016    5.8943   -4.3578 C   0  0  0  0  0  0  0  0  0  0  0  0
   -7.1238    6.8020   -5.4014 O   0  0  0  0  0  0  0  0  0  0  0  0
   -7.1226    6.3265   -6.2469 H   0  0  0  0  0  0  0  0  0  0  0  0
   -8.6846    5.2223   -4.6207 C   0  0  0  0  0  0  0  0  0  0  0  0
   -8.3617    4.4021   -5.7068 O   0  0  0  0  0  0  0  0  0  0  0  0
   -7.6509    3.7932   -5.4521 H   0  0  0  0  0  0  0  0  0  0  0  0
   -9.1483    4.2726   -3.5182 C   0  0  0  0  0  0  0  0  0  0  0  0
  -10.1673    4.8318   -2.5303 C   0  0  0  0  0  0  0  0  0  0  0  0
  -10.6505    3.9027   -3.6419 C   0  0  0  0  0  0  0  0  0  0  0  0
   -5.0294    5.2804   -3.3299 C   0  0  0  0  0  0  0  0  0  0  0  0
   -4.6648    6.7599   -3.3303 C   0  0  0  0  0  0  0  0  0  0  0  0
   -4.9653    7.3157   -1.9328 C   0  0  0  0  0  0  0  0  0  0  0  0
   -4.9739    8.8420   -2.0642 C   0  0  0  0  0  0  0  0  0  0  0  0
   -3.6733    9.4059   -2.6577 C   0  0  0  0  0  0  0  0  0  0  0  0
   -2.9747    8.5690   -3.7596 C   0  0  0  0  0  0  0  0  0  0  0  0
   -3.1842    7.0562   -3.6386 C   0  0  0  0  0  0  0  0  0  0  0  0
   -1.8390    5.0723   -6.9114 C   0  0  0  0  0  0  0  0  0  0  0  0
   -2.2196    6.1297   -7.4017 O   0  0  0  0  0  0  0  0  0  0  0  0
   -2.5968    3.9862   -6.8073 N   0  0  0  0  0  0  0  0  0  0  0  0
   -2.2229    3.1655   -6.4124 H   0  0  0  0  0  0  0  0  0  0  0  0
   -0.4599    4.9147   -6.3962 C   0  0  0  0  0  0  0  0  0  0  0  0
   -0.1212    3.5172   -6.9118 C   0  0  0  0  0  0  0  0  0  0  0  0
    0.7006    3.5734   -8.1840 C   0  0  0  0  0  0  0  0  0  0  0  0
    2.0079    4.0250   -8.1301 C   0  0  0  0  0  0  0  0  0  0  0  0
    2.7350    4.0840   -9.3005 C   0  0  0  0  0  0  0  0  0  0  0  0
    2.1802    3.7056  -10.5075 C   0  0  0  0  0  0  0  0  0  0  0  0
    0.8892    3.2445  -10.5596 C   0  0  0  0  0  0  0  0  0  0  0  0
    0.1499    3.1852   -9.3930 C   0  0  0  0  0  0  0  0  0  0  0  0
   -0.3361    4.9430   -4.8556 C   0  0  0  0  0  0  0  0  0  0  0  0
    0.1554    6.2332   -2.7951 O   0  0  0  0  0  0  0  0  0  0  0  0
    0.5365    6.2028   -4.1811 S   0  0  0  0  0  0  0  0  0  0  0  0
    0.2324    7.4634   -4.7600 O   0  0  0  0  0  0  0  0  0  0  0  0
    2.1871    5.9897   -4.3907 C   0  0  0  0  0  0  0  0  0  0  0  0
    2.5667    4.5055   -4.4610 C   0  0  0  0  0  0  0  0  0  0  0  0
    2.9988    6.6396   -3.2655 C   0  0  0  0  0  0  0  0  0  0  0  0
    2.5745    6.6522   -5.6970 C   0  0  0  0  0  0  0  0  0  0  0  0
   -4.1376    2.8013   -8.1748 C   0  0  0  0  0  0  0  0  0  0  0  0
   -5.5432    2.7421   -8.7074 C   0  0  0  0  0  0  0  0  0  0  0  0
   -5.9352    2.6442   -9.9694 C   0  0  0  0  0  0  0  0  0  0  0  0
   -7.2251    2.5956  -10.1335 N   0  0  0  0  0  0  0  0  0  0  0  0
   -7.7219    2.6791   -8.8670 C   0  0  0  0  0  0  0  0  0  0  0  0
   -6.6738    2.7557   -8.0134 N   0  0  0  0  0  0  0  0  0  0  0  0
   -6.7402    2.8124   -7.0327 H   0  0  0  0  0  0  0  0  0  0  0  0
 36 37  2  0  0  0
 37 38  2  0  0  0
 37 39  1  0  0  0
 37 35  1  0  0  0
 39 40  1  0  0  0
 39 41  1  0  0  0
 39 42  1  0  0  0
 35 27  1  0  0  0
 27 28  1  0  0  0
 27 23  1  0  0  0
 28 29  1  0  0  0
 29 30  2  0  0  0
 29 34  1  0  0  0
 30 31  1  0  0  0
 31 32  2  0  0  0
 32 33  1  0  0  0
 33 34  2  0  0  0
 23 24  2  0  0  0
 23 25  1  0  0  0
 25  1  1  0  0  0
  1 43  1  0  0  0
  1  2  1  0  0  0
 43 44  1  0  0  0
 44 45  2  0  0  0
 44 48  1  0  0  0
 45 46  1  0  0  0
 46 47  2  0  0  0
 47 48  1  0  0  0
  2  3  2  0  0  0
  2  4  1  0  0  0
  4  6  1  0  0  0
  6  7  1  0  0  0
  6 16  1  0  0  0
  7  8  1  0  0  0
  7 10  1  0  0  0
 10 13  1  0  0  0
 10 11  1  0  0  0
 13 14  1  0  0  0
 13 15  1  0  0  0
 14 15  1  0  0  0
 16 17  1  0  0  0
 17 18  1  0  0  0
 17 22  1  0  0  0
 18 19  1  0  0  0
 19 20  1  0  0  0
 20 21  1  0  0  0
 21 22  1  0  0  0
 25 26  1  0  0  0
 48 49  1  0  0  0
  4  5  1  0  0  0
  8  9  1  0  0  0
 11 12  1  0  0  0
M  END
> <minimizedAffinity>
-10.71623

$$$$
3D91_REM_A_350


 49 52  0  0  0  0  0  0  0  0999 V2000
   -3.6697    3.7673   -7.6483 C   0  0  0  0  0  0  0  0  0  0  0  0
   -3.9227    4.1989   -6.2629 C   0  0  0  0  0  0  0  0  0  0  0  0
   -4.7062    3.5565   -5.5800 O   0  0  0  0  0  0  0  0  0  0  0  0
   -3.2156    5.2635   -5.8309 N   0  0  0  0  0  0  0  0  0  0  0  0
   -2.6166    5.7421   -6.4484 H   0  0  0  0  0  0  0  0  0  0  0  0
   -3.3408    5.7002   -4.4549 C   0  0  0  0  0  0  0  0  0  0  0  0
   -4.7303    6.2842   -4.1684 C   0  0  0  0  0  0  0  0  0  0  0  0
   -5.4585    5.3682   -3.4099 O   0  0  0  0  0  0  0  0  0  0  0  0
   -5.0164    5.2300   -2.5577 H   0  0  0  0  0  0  0  0  0  0  0  0
   -4.7132    7.5996   -3.3301 C   0  0  0  0  0  0  0  0  0  0  0  0
   -5.8375    8.2453   -3.8550 O   0  0  0  0  0  0  0  0  0  0  0  0
   -6.6202    7.6869   -3.7272 H   0  0  0  0  0  0  0  0  0  0  0  0
   -5.0109    7.4089   -1.8444 C   0  0  0  0  0  0  0  0  0  0  0  0
   -3.9837    6.6113   -1.0472 C   0  0  0  0  0  0  0  0  0  0  0  0
   -3.9858    8.1343   -0.9324 C   0  0  0  0  0  0  0  0  0  0  0  0
   -2.2094    6.7263   -4.3816 C   0  0  0  0  0  0  0  0  0  0  0  0
   -0.9439    6.1934   -3.7211 C   0  0  0  0  0  0  0  0  0  0  0  0
    0.2525    6.9179   -4.3501 C   0  0  0  0  0  0  0  0  0  0  0  0
    1.4977    6.1083   -3.9753 C   0  0  0  0  0  0  0  0  0  0  0  0
    1.6571    5.9095   -2.4597 C   0  0  0  0  0  0  0  0  0  0  0  0
    0.3630    5.7096   -1.6302 C   0  0  0  0  0  0  0  0  0  0  0  0
   -0.8722    6.4161   -2.1978 C   0  0  0  0  0  0  0  0  0  0  0  0
   -1.6031    3.7722   -8.8933 C   0  0  0  0  0  0  0  0  0  0  0  0
   -2.1624    4.0885   -9.9376 O   0  0  0  0  0  0  0  0  0  0  0  0
   -2.2343    3.5848   -7.7396 N   0  0  0  0  0  0  0  0  0  0  0  0
   -1.7237    3.3200   -6.9406 H   0  0  0  0  0  0  0  0  0  0  0  0
   -0.1397    3.5534   -8.8392 C   0  0  0  0  0  0  0  0  0  0  0  0
    0.1171    2.9980  -10.2389 C   0  0  0  0  0  0  0  0  0  0  0  0
    1.5749    2.6346  -10.4386 C   0  0  0  0  0  0  0  0  0  0  0  0
    1.9202    1.3165  -10.6821 C   0  0  0  0  0  0  0  0  0  0  0  0
    3.2531    1.0023  -10.8456 C   0  0  0  0  0  0  0  0  0  0  0  0
    4.2320    1.9737  -10.7675 C   0  0  0  0  0  0  0  0  0  0  0  0
    3.8893    3.2825  -10.5404 C   0  0  0  0  0  0  0  0  0  0  0  0
    2.5565    3.6078  -10.3709 C   0  0  0  0  0  0  0  0  0  0  0  0
    0.3236    2.5264   -7.7808 C   0  0  0  0  0  0  0  0  0  0  0  0
    0.2339    3.3833   -5.4550 O   0  0  0  0  0  0  0  0  0  0  0  0
    1.2031    3.1106   -6.4813 S   0  0  0  0  0  0  0  0  0  0  0  0
    1.8987    4.3133   -6.7755 O   0  0  0  0  0  0  0  0  0  0  0  0
    2.3731    2.0147   -5.9875 C   0  0  0  0  0  0  0  0  0  0  0  0
    3.2865    1.5943   -7.1454 C   0  0  0  0  0  0  0  0  0  0  0  0
    1.7574    0.7507   -5.3790 C   0  0  0  0  0  0  0  0  0  0  0  0
    3.2160    2.6892   -4.9246 C   0  0  0  0  0  0  0  0  0  0  0  0
   -4.2973    2.4155   -7.8976 C   0  0  0  0  0  0  0  0  0  0  0  0
   -5.6346    2.5774   -8.5671 C   0  0  0  0  0  0  0  0  0  0  0  0
   -5.9128    2.5177   -9.8613 C   0  0  0  0  0  0  0  0  0  0  0  0
   -7.1706    2.6790  -10.1528 N   0  0  0  0  0  0  0  0  0  0  0  0
   -7.7674    2.8714   -8.9425 C   0  0  0  0  0  0  0  0  0  0  0  0
   -6.8093    2.7927   -7.9892 N   0  0  0  0  0  0  0  0  0  0  0  0
   -6.9603    2.8813   -7.0204 H   0  0  0  0  0  0  0  0  0  0  0  0
 36 37  2  0  0  0
 37 38  2  0  0  0
 37 39  1  0  0  0
 37 35  1  0  0  0
 39 40  1  0  0  0
 39 41  1  0  0  0
 39 42  1  0  0  0
 35 27  1  0  0  0
 27 28  1  0  0  0
 27 23  1  0  0  0
 28 29  1  0  0  0
 29 30  2  0  0  0
 29 34  1  0  0  0
 30 31  1  0  0  0
 31 32  2  0  0  0
 32 33  1  0  0  0
 33 34  2  0  0  0
 23 24  2  0  0  0
 23 25  1  0  0  0
 25  1  1  0  0  0
  1 43  1  0  0  0
  1  2  1  0  0  0
 43 44  1  0  0  0
 44 45  2  0  0  0
 44 48  1  0  0  0
 45 46  1  0  0  0
 46 47  2  0  0  0
 47 48  1  0  0  0
  2  3  2  0  0  0
  2  4  1  0  0  0
  4  6  1  0  0  0
  6  7  1  0  0  0
  6 16  1  0  0  0
  7  8  1  0  0  0
  7 10  1  0  0  0
 10 13  1  0  0  0
 10 11  1  0  0  0
 13 14  1  0  0  0
 13 15  1  0  0  0
 14 15  1  0  0  0
 16 17  1  0  0  0
 17 18  1  0  0  0
 17 22  1  0  0  0
 18 19  1  0  0  0
 19 20  1  0  0  0
 20 21  1  0  0  0
 21 22  1  0  0  0
 25 26  1  0  0  0
 48 49  1  0  0  0
  4  5  1  0  0  0
  8  9  1  0  0  0
 11 12  1  0  0  0
M  END
> <minimizedAffinity>
-9.82801

$$$$
3D91_REM_A_350


 49 52  0  0  0  0  0  0  0  0999 V2000
   -3.8993    4.3693   -6.4874 C   0  0  0  0  0  0  0  0  0  0  0  0
   -3.7824    5.1279   -5.2302 C   0  0  0  0  0  0  0  0  0  0  0  0
   -4.2110    4.6297   -4.2001 O   0  0  0  0  0  0  0  0  0  0  0  0
   -3.1520    6.3180   -5.3077 N   0  0  0  0  0  0  0  0  0  0  0  0
   -2.8514    6.6619   -6.1798 H   0  0  0  0  0  0  0  0  0  0  0  0
   -2.9187    7.0886   -4.1029 C   0  0  0  0  0  0  0  0  0  0  0  0
   -4.1135    7.9896   -3.7645 C   0  0  0  0  0  0  0  0  0  0  0  0
   -5.2908    7.2603   -3.9281 O   0  0  0  0  0  0  0  0  0  0  0  0
   -5.2989    6.5157   -3.3064 H   0  0  0  0  0  0  0  0  0  0  0  0
   -4.1381    8.4959   -2.2893 C   0  0  0  0  0  0  0  0  0  0  0  0
   -5.1814    9.4248   -2.3609 O   0  0  0  0  0  0  0  0  0  0  0  0
   -5.9911    8.9794   -2.6560 H   0  0  0  0  0  0  0  0  0  0  0  0
   -4.5910    7.4541   -1.2685 C   0  0  0  0  0  0  0  0  0  0  0  0
   -3.6536    6.2705   -1.0509 C   0  0  0  0  0  0  0  0  0  0  0  0
   -3.6679    7.3992   -0.0221 C   0  0  0  0  0  0  0  0  0  0  0  0
   -1.6563    7.8551   -4.4995 C   0  0  0  0  0  0  0  0  0  0  0  0
   -0.3885    7.3260   -3.8402 C   0  0  0  0  0  0  0  0  0  0  0  0
   -0.7517    6.0338   -3.0984 C   0  0  0  0  0  0  0  0  0  0  0  0
    0.4065    5.7427   -2.1390 C   0  0  0  0  0  0  0  0  0  0  0  0
    1.7695    5.6567   -2.8438 C   0  0  0  0  0  0  0  0  0  0  0  0
    2.0146    6.6182   -4.0346 C   0  0  0  0  0  0  0  0  0  0  0  0
    0.7536    6.9930   -4.8199 C   0  0  0  0  0  0  0  0  0  0  0  0
   -1.6099    4.1945   -7.2286 C   0  0  0  0  0  0  0  0  0  0  0  0
   -1.6221    5.3146   -7.7271 O   0  0  0  0  0  0  0  0  0  0  0  0
   -2.6516    3.6422   -6.6167 N   0  0  0  0  0  0  0  0  0  0  0  0
   -2.5759    2.7324   -6.2482 H   0  0  0  0  0  0  0  0  0  0  0  0
   -0.4024    3.3395   -7.2852 C   0  0  0  0  0  0  0  0  0  0  0  0
    0.3407    3.8133   -6.0374 C   0  0  0  0  0  0  0  0  0  0  0  0
    1.4011    2.8202   -5.6059 C   0  0  0  0  0  0  0  0  0  0  0  0
    1.0513    1.4965   -5.4031 C   0  0  0  0  0  0  0  0  0  0  0  0
    2.0264    0.6106   -4.9954 C   0  0  0  0  0  0  0  0  0  0  0  0
    3.3278    1.0246   -4.7879 C   0  0  0  0  0  0  0  0  0  0  0  0
    3.6783    2.3335   -5.0024 C   0  0  0  0  0  0  0  0  0  0  0  0
    2.7078    3.2308   -5.4072 C   0  0  0  0  0  0  0  0  0  0  0  0
    0.4867    3.5548   -8.5312 C   0  0  0  0  0  0  0  0  0  0  0  0
    0.3754    2.4694  -10.7586 O   0  0  0  0  0  0  0  0  0  0  0  0
    0.8749    2.2014   -9.4373 S   0  0  0  0  0  0  0  0  0  0  0  0
    0.2618    1.0144   -8.9558 O   0  0  0  0  0  0  0  0  0  0  0  0
    2.5254    1.9026   -9.4211 C   0  0  0  0  0  0  0  0  0  0  0  0
    3.3198    3.1131   -8.9159 C   0  0  0  0  0  0  0  0  0  0  0  0
    3.0557    1.5259  -10.8082 C   0  0  0  0  0  0  0  0  0  0  0  0
    2.7727    0.7356   -8.4871 C   0  0  0  0  0  0  0  0  0  0  0  0
   -4.9959    3.3359   -6.3743 C   0  0  0  0  0  0  0  0  0  0  0  0
   -5.5989    3.0661   -7.7258 C   0  0  0  0  0  0  0  0  0  0  0  0
   -4.9898    2.6348   -8.8208 C   0  0  0  0  0  0  0  0  0  0  0  0
   -5.7723    2.4735   -9.8477 N   0  0  0  0  0  0  0  0  0  0  0  0
   -7.0012    2.8413   -9.3869 C   0  0  0  0  0  0  0  0  0  0  0  0
   -6.8704    3.1876   -8.0846 N   0  0  0  0  0  0  0  0  0  0  0  0
   -7.6029    3.4828   -7.4968 H   0  0  0  0  0  0  0  0  0  0  0  0
 36 37  2  0  0  0
 37 38  2  0  0  0
 37 39  1  0  0  0
 37 35  1  0  0  0
 39 40  1  0  0  0
 39 41  1  0  0  0
 39 42  1  0  0  0
 35 27  1  0  0  0
 27 28  1  0  0  0
 27 23  1  0  0  0
 28 29  1  0  0  0
 29 30  2  0  0  0
 29 34  1  0  0  0
 30 31  1  0  0  0
 31 32  2  0  0  0
 32 33  1  0  0  0
 33 34  2  0  0  0
 23 24  2  0  0  0
 23 25  1  0  0  0
 25  1  1  0  0  0
  1 43  1  0  0  0
  1  2  1  0  0  0
 43 44  1  0  0  0
 44 45  2  0  0  0
 44 48  1  0  0  0
 45 46  1  0  0  0
 46 47  2  0  0  0
 47 48  1  0  0  0
  2  3  2  0  0  0
  2  4  1  0  0  0
  4  6  1  0  0  0
  6  7  1  0  0  0
  6 16  1  0  0  0
  7  8  1  0  0  0
  7 10  1  0  0  0
 10 13  1  0  0  0
 10 11  1  0  0  0
 13 14  1  0  0  0
 13 15  1  0  0  0
 14 15  1  0  0  0
 16 17  1  0  0  0
 17 18  1  0  0  0
 17 22  1  0  0  0
 18 19  1  0  0  0
 19 20  1  0  0  0
 20 21  1  0  0  0
 21 22  1  0  0  0
 25 26  1  0  0  0
 48 49  1  0  0  0
  4  5  1  0  0  0
  8  9  1  0  0  0
 11 12  1  0  0  0
M  END
> <minimizedAffinity>
-9.62405

$$$$
3D91_REM_A_350


 49 52  0  0  0  0  0  0  0  0999 V2000
   -3.0183    3.6569   -8.0484 C   0  0  0  0  0  0  0  0  0  0  0  0
   -3.0867    4.5568   -6.8843 C   0  0  0  0  0  0  0  0  0  0  0  0
   -4.0646    4.5011   -6.1539 O   0  0  0  0  0  0  0  0  0  0  0  0
   -2.0175    5.3544   -6.6830 N   0  0  0  0  0  0  0  0  0  0  0  0
   -1.2744    5.3566   -7.3287 H   0  0  0  0  0  0  0  0  0  0  0  0
   -1.9666    6.2078   -5.5130 C   0  0  0  0  0  0  0  0  0  0  0  0
   -1.4136    7.5991   -5.8484 C   0  0  0  0  0  0  0  0  0  0  0  0
   -1.8681    7.9740   -7.1124 O   0  0  0  0  0  0  0  0  0  0  0  0
   -2.8360    8.0370   -7.1024 H   0  0  0  0  0  0  0  0  0  0  0  0
   -1.8884    8.7284   -4.8826 C   0  0  0  0  0  0  0  0  0  0  0  0
   -2.5393    9.5738   -5.7871 O   0  0  0  0  0  0  0  0  0  0  0  0
   -3.2510    9.0863   -6.2307 H   0  0  0  0  0  0  0  0  0  0  0  0
   -2.9610    8.2994   -3.8836 C   0  0  0  0  0  0  0  0  0  0  0  0
   -2.4648    7.8431   -2.5152 C   0  0  0  0  0  0  0  0  0  0  0  0
   -3.0482    9.2473   -2.6578 C   0  0  0  0  0  0  0  0  0  0  0  0
   -1.0575    5.3820   -4.6021 C   0  0  0  0  0  0  0  0  0  0  0  0
    0.2419    6.0877   -4.2343 C   0  0  0  0  0  0  0  0  0  0  0  0
    0.9430    5.2468   -3.1604 C   0  0  0  0  0  0  0  0  0  0  0  0
    2.0118    6.1465   -2.5321 C   0  0  0  0  0  0  0  0  0  0  0  0
    2.9935    6.7294   -3.5607 C   0  0  0  0  0  0  0  0  0  0  0  0
    2.4216    7.1130   -4.9495 C   0  0  0  0  0  0  0  0  0  0  0  0
    1.2302    6.2637   -5.4037 C   0  0  0  0  0  0  0  0  0  0  0  0
   -0.9350    3.2115   -9.1810 C   0  0  0  0  0  0  0  0  0  0  0  0
   -1.3465    3.6629  -10.2441 O   0  0  0  0  0  0  0  0  0  0  0  0
   -1.6585    3.1544   -8.0683 N   0  0  0  0  0  0  0  0  0  0  0  0
   -1.2684    2.7681   -7.2511 H   0  0  0  0  0  0  0  0  0  0  0  0
    0.4353    2.6651   -9.0552 C   0  0  0  0  0  0  0  0  0  0  0  0
    1.1771    3.8808   -8.5027 C   0  0  0  0  0  0  0  0  0  0  0  0
    1.9881    3.5302   -7.2712 C   0  0  0  0  0  0  0  0  0  0  0  0
    1.4559    2.6670   -6.3291 C   0  0  0  0  0  0  0  0  0  0  0  0
    2.2020    2.3721   -5.2074 C   0  0  0  0  0  0  0  0  0  0  0  0
    3.4543    2.9228   -5.0159 C   0  0  0  0  0  0  0  0  0  0  0  0
    3.9883    3.7672   -5.9560 C   0  0  0  0  0  0  0  0  0  0  0  0
    3.2471    4.0728   -7.0822 C   0  0  0  0  0  0  0  0  0  0  0  0
    1.0824    2.2244  -10.3881 C   0  0  0  0  0  0  0  0  0  0  0  0
    1.8474    0.1306  -11.4754 O   0  0  0  0  0  0  0  0  0  0  0  0
    2.1574    0.9420  -10.3297 S   0  0  0  0  0  0  0  0  0  0  0  0
    2.0127    0.1470   -9.1619 O   0  0  0  0  0  0  0  0  0  0  0  0
    3.7487    1.4724  -10.3276 C   0  0  0  0  0  0  0  0  0  0  0  0
    3.8478    2.9813  -10.5825 C   0  0  0  0  0  0  0  0  0  0  0  0
    4.5970    0.7514  -11.3802 C   0  0  0  0  0  0  0  0  0  0  0  0
    4.3324    1.1713   -8.9623 C   0  0  0  0  0  0  0  0  0  0  0  0
   -3.9208    2.4629   -7.8399 C   0  0  0  0  0  0  0  0  0  0  0  0
   -5.2390    2.6791   -8.5313 C   0  0  0  0  0  0  0  0  0  0  0  0
   -5.5348    2.4789   -9.8074 C   0  0  0  0  0  0  0  0  0  0  0  0
   -6.7705    2.7360  -10.1236 N   0  0  0  0  0  0  0  0  0  0  0  0
   -7.3310    3.1511   -8.9525 C   0  0  0  0  0  0  0  0  0  0  0  0
   -6.3777    3.0958   -7.9927 N   0  0  0  0  0  0  0  0  0  0  0  0
   -6.5087    3.3281   -7.0450 H   0  0  0  0  0  0  0  0  0  0  0  0
 36 37  2  0  0  0
 37 38  2  0  0  0
 37 39  1  0  0  0
 37 35  1  0  0  0
 39 40  1  0  0  0
 39 41  1  0  0  0
 39 42  1  0  0  0
 35 27  1  0  0  0
 27 28  1  0  0  0
 27 23  1  0  0  0
 28 29  1  0  0  0
 29 30  2  0  0  0
 29 34  1  0  0  0
 30 31  1  0  0  0
 31 32  2  0  0  0
 32 33  1  0  0  0
 33 34  2  0  0  0
 23 24  2  0  0  0
 23 25  1  0  0  0
 25  1  1  0  0  0
  1 43  1  0  0  0
  1  2  1  0  0  0
 43 44  1  0  0  0
 44 45  2  0  0  0
 44 48  1  0  0  0
 45 46  1  0  0  0
 46 47  2  0  0  0
 47 48  1  0  0  0
  2  3  2  0  0  0
  2  4  1  0  0  0
  4  6  1  0  0  0
  6  7  1  0  0  0
  6 16  1  0  0  0
  7  8  1  0  0  0
  7 10  1  0  0  0
 10 13  1  0  0  0
 10 11  1  0  0  0
 13 14  1  0  0  0
 13 15  1  0  0  0
 14 15  1  0  0  0
 16 17  1  0  0  0
 17 18  1  0  0  0
 17 22  1  0  0  0
 18 19  1  0  0  0
 19 20  1  0  0  0
 20 21  1  0  0  0
 21 22  1  0  0  0
 25 26  1  0  0  0
 48 49  1  0  0  0
  4  5  1  0  0  0
  8  9  1  0  0  0
 11 12  1  0  0  0
M  END
> <minimizedAffinity>
-9.56480

$$$$
3D91_REM_A_350


 49 52  0  0  0  0  0  0  0  0999 V2000
   -2.8763    4.2740   -6.8468 C   0  0  0  0  0  0  0  0  0  0  0  0
   -1.7804    4.1434   -7.8223 C   0  0  0  0  0  0  0  0  0  0  0  0
   -1.9609    4.5335   -8.9661 O   0  0  0  0  0  0  0  0  0  0  0  0
   -0.6208    3.6384   -7.3531 N   0  0  0  0  0  0  0  0  0  0  0  0
   -0.5589    3.3267   -6.4213 H   0  0  0  0  0  0  0  0  0  0  0  0
    0.5335    3.5562   -8.2253 C   0  0  0  0  0  0  0  0  0  0  0  0
    0.4768    2.3165   -9.1274 C   0  0  0  0  0  0  0  0  0  0  0  0
    0.0375    2.6987  -10.3946 O   0  0  0  0  0  0  0  0  0  0  0  0
    0.6747    3.3172  -10.7848 H   0  0  0  0  0  0  0  0  0  0  0  0
    1.8563    1.6250   -9.3553 C   0  0  0  0  0  0  0  0  0  0  0  0
    1.4378    0.3236   -9.6517 O   0  0  0  0  0  0  0  0  0  0  0  0
    0.8538    0.3403  -10.4260 H   0  0  0  0  0  0  0  0  0  0  0  0
    2.6081    2.1025  -10.5959 C   0  0  0  0  0  0  0  0  0  0  0  0
    3.5631    3.2752  -10.3965 C   0  0  0  0  0  0  0  0  0  0  0  0
    4.1384    1.8639  -10.4951 C   0  0  0  0  0  0  0  0  0  0  0  0
    1.6626    3.5225   -7.1947 C   0  0  0  0  0  0  0  0  0  0  0  0
    1.6521    4.7088   -6.2386 C   0  0  0  0  0  0  0  0  0  0  0  0
    2.1331    4.2108   -4.8702 C   0  0  0  0  0  0  0  0  0  0  0  0
    1.7441    5.2885   -3.8535 C   0  0  0  0  0  0  0  0  0  0  0  0
    2.2964    6.6792   -4.2040 C   0  0  0  0  0  0  0  0  0  0  0  0
    2.3573    7.0608   -5.7052 C   0  0  0  0  0  0  0  0  0  0  0  0
    2.5671    5.8770   -6.6548 C   0  0  0  0  0  0  0  0  0  0  0  0
   -2.1624    5.9622   -5.2779 C   0  0  0  0  0  0  0  0  0  0  0  0
   -1.5802    5.1462   -4.5718 O   0  0  0  0  0  0  0  0  0  0  0  0
   -2.8221    5.6480   -6.3873 N   0  0  0  0  0  0  0  0  0  0  0  0
   -3.2776    6.3534   -6.9013 H   0  0  0  0  0  0  0  0  0  0  0  0
   -2.1887    7.4012   -4.9304 C   0  0  0  0  0  0  0  0  0  0  0  0
   -0.9302    7.8899   -5.6451 C   0  0  0  0  0  0  0  0  0  0  0  0
   -1.1976    9.1406   -6.4583 C   0  0  0  0  0  0  0  0  0  0  0  0
   -1.9610    9.0533   -7.6096 C   0  0  0  0  0  0  0  0  0  0  0  0
   -2.1805   10.1991   -8.3450 C   0  0  0  0  0  0  0  0  0  0  0  0
   -1.6524   11.4136   -7.9524 C   0  0  0  0  0  0  0  0  0  0  0  0
   -0.9076   11.5035   -6.8039 C   0  0  0  0  0  0  0  0  0  0  0  0
   -0.6779   10.3603   -6.0613 C   0  0  0  0  0  0  0  0  0  0  0  0
   -2.0778    7.7053   -3.4188 C   0  0  0  0  0  0  0  0  0  0  0  0
   -3.9709    9.2515   -3.8398 O   0  0  0  0  0  0  0  0  0  0  0  0
   -3.2921    8.6326   -2.7338 S   0  0  0  0  0  0  0  0  0  0  0  0
   -2.7981    9.6538   -1.8795 O   0  0  0  0  0  0  0  0  0  0  0  0
   -4.3180    7.7017   -1.7878 C   0  0  0  0  0  0  0  0  0  0  0  0
   -5.6047    8.4551   -1.4296 C   0  0  0  0  0  0  0  0  0  0  0  0
   -3.6485    7.2497   -0.4860 C   0  0  0  0  0  0  0  0  0  0  0  0
   -4.6846    6.4665   -2.5849 C   0  0  0  0  0  0  0  0  0  0  0  0
   -4.2109    4.0965   -7.5329 C   0  0  0  0  0  0  0  0  0  0  0  0
   -5.3316    4.2639   -6.5437 C   0  0  0  0  0  0  0  0  0  0  0  0
   -5.5355    3.5935   -5.4190 C   0  0  0  0  0  0  0  0  0  0  0  0
   -6.5860    3.9676   -4.7485 N   0  0  0  0  0  0  0  0  0  0  0  0
   -7.1232    4.9649   -5.5067 C   0  0  0  0  0  0  0  0  0  0  0  0
   -6.3315    5.1346   -6.5918 N   0  0  0  0  0  0  0  0  0  0  0  0
   -6.4751    5.7991   -7.3039 H   0  0  0  0  0  0  0  0  0  0  0  0
 36 37  2  0  0  0
 37 38  2  0  0  0
 37 39  1  0  0  0
 37 35  1  0  0  0
 39 40  1  0  0  0
 39 41  1  0  0  0
 39 42  1  0  0  0
 35 27  1  0  0  0
 27 28  1  0  0  0
 27 23  1  0  0  0
 28 29  1  0  0  0
 29 30  2  0  0  0
 29 34  1  0  0  0
 30 31  1  0  0  0
 31 32  2  0  0  0
 32 33  1  0  0  0
 33 34  2  0  0  0
 23 24  2  0  0  0
 23 25  1  0  0  0
 25  1  1  0  0  0
  1 43  1  0  0  0
  1  2  1  0  0  0
 43 44  1  0  0  0
 44 45  2  0  0  0
 44 48  1  0  0  0
 45 46  1  0  0  0
 46 47  2  0  0  0
 47 48  1  0  0  0
  2  3  2  0  0  0
  2  4  1  0  0  0
  4  6  1  0  0  0
  6  7  1  0  0  0
  6 16  1  0  0  0
  7  8  1  0  0  0
  7 10  1  0  0  0
 10 13  1  0  0  0
 10 11  1  0  0  0
 13 14  1  0  0  0
 13 15  1  0  0  0
 14 15  1  0  0  0
 16 17  1  0  0  0
 17 18  1  0  0  0
 17 22  1  0  0  0
 18 19  1  0  0  0
 19 20  1  0  0  0
 20 21  1  0  0  0
 21 22  1  0  0  0
 25 26  1  0  0  0
 48 49  1  0  0  0
  4  5  1  0  0  0
  8  9  1  0  0  0
 11 12  1  0  0  0
M  END
> <minimizedAffinity>
-9.51263

$$$$
3D91_REM_A_350


 49 52  0  0  0  0  0  0  0  0999 V2000
   -2.7237    3.6583   -8.3205 C   0  0  0  0  0  0  0  0  0  0  0  0
   -2.8285    4.4938   -7.1120 C   0  0  0  0  0  0  0  0  0  0  0  0
   -3.7648    4.3100   -6.3487 O   0  0  0  0  0  0  0  0  0  0  0  0
   -1.8329    5.3819   -6.9122 N   0  0  0  0  0  0  0  0  0  0  0  0
   -1.1213    5.4858   -7.5847 H   0  0  0  0  0  0  0  0  0  0  0  0
   -1.8143    6.1826   -5.7046 C   0  0  0  0  0  0  0  0  0  0  0  0
   -1.2615    7.5900   -5.9645 C   0  0  0  0  0  0  0  0  0  0  0  0
   -1.7198    8.0342   -7.2044 O   0  0  0  0  0  0  0  0  0  0  0  0
   -2.6876    8.0971   -7.1879 H   0  0  0  0  0  0  0  0  0  0  0  0
   -1.7324    8.6645   -4.9364 C   0  0  0  0  0  0  0  0  0  0  0  0
   -2.3998    9.5505   -5.7886 O   0  0  0  0  0  0  0  0  0  0  0  0
   -3.1134    9.0812   -6.2483 H   0  0  0  0  0  0  0  0  0  0  0  0
   -2.7900    8.1767   -3.9485 C   0  0  0  0  0  0  0  0  0  0  0  0
   -2.2841    7.7514   -2.5736 C   0  0  0  0  0  0  0  0  0  0  0  0
   -2.9447    9.1199   -2.7258 C   0  0  0  0  0  0  0  0  0  0  0  0
   -0.9222    5.3211   -4.8099 C   0  0  0  0  0  0  0  0  0  0  0  0
    0.4260    5.9584   -4.4973 C   0  0  0  0  0  0  0  0  0  0  0  0
    0.8396    5.5109   -3.0899 C   0  0  0  0  0  0  0  0  0  0  0  0
    1.9647    6.4516   -2.6472 C   0  0  0  0  0  0  0  0  0  0  0  0
    3.1471    6.4850   -3.6283 C   0  0  0  0  0  0  0  0  0  0  0  0
    2.8187    6.3785   -5.1394 C   0  0  0  0  0  0  0  0  0  0  0  0
    1.5617    5.5642   -5.4616 C   0  0  0  0  0  0  0  0  0  0  0  0
   -0.6727    3.2368   -9.5193 C   0  0  0  0  0  0  0  0  0  0  0  0
   -1.1555    3.5878  -10.5904 O   0  0  0  0  0  0  0  0  0  0  0  0
   -1.3410    3.2250   -8.3713 N   0  0  0  0  0  0  0  0  0  0  0  0
   -0.8941    2.9197   -7.5489 H   0  0  0  0  0  0  0  0  0  0  0  0
    0.7293    2.7709   -9.4224 C   0  0  0  0  0  0  0  0  0  0  0  0
    1.4202    3.7474  -10.3726 C   0  0  0  0  0  0  0  0  0  0  0  0
    2.8321    4.0639   -9.9215 C   0  0  0  0  0  0  0  0  0  0  0  0
    3.0292    4.7647   -8.7443 C   0  0  0  0  0  0  0  0  0  0  0  0
    4.3204    5.0572   -8.3581 C   0  0  0  0  0  0  0  0  0  0  0  0
    5.4021    4.6666   -9.1232 C   0  0  0  0  0  0  0  0  0  0  0  0
    5.2081    3.9596  -10.2827 C   0  0  0  0  0  0  0  0  0  0  0  0
    3.9177    3.6646  -10.6814 C   0  0  0  0  0  0  0  0  0  0  0  0
    0.9659    1.3219   -9.9060 C   0  0  0  0  0  0  0  0  0  0  0  0
    0.6322   -0.9613   -8.9962 O   0  0  0  0  0  0  0  0  0  0  0  0
    1.4447    0.2008   -8.7581 S   0  0  0  0  0  0  0  0  0  0  0  0
    1.2245    0.6395   -7.4256 O   0  0  0  0  0  0  0  0  0  0  0  0
    3.0861   -0.1279   -8.8660 C   0  0  0  0  0  0  0  0  0  0  0  0
    3.5898   -0.0508  -10.3124 C   0  0  0  0  0  0  0  0  0  0  0  0
    3.4335   -1.5126   -8.3103 C   0  0  0  0  0  0  0  0  0  0  0  0
    3.8185    0.9104   -8.0410 C   0  0  0  0  0  0  0  0  0  0  0  0
   -3.5652    2.4123   -8.1693 C   0  0  0  0  0  0  0  0  0  0  0  0
   -4.9474    2.6480   -8.7139 C   0  0  0  0  0  0  0  0  0  0  0  0
   -5.3601    2.5425   -9.9688 C   0  0  0  0  0  0  0  0  0  0  0  0
   -6.6250    2.7911  -10.1455 N   0  0  0  0  0  0  0  0  0  0  0  0
   -7.0786    3.0962   -8.8969 C   0  0  0  0  0  0  0  0  0  0  0  0
   -6.0371    2.9898   -8.0385 N   0  0  0  0  0  0  0  0  0  0  0  0
   -6.0812    3.1419   -7.0669 H   0  0  0  0  0  0  0  0  0  0  0  0
 36 37  2  0  0  0
 37 38  2  0  0  0
 37 39  1  0  0  0
 37 35  1  0  0  0
 39 40  1  0  0  0
 39 41  1  0  0  0
 39 42  1  0  0  0
 35 27  1  0  0  0
 27 28  1  0  0  0
 27 23  1  0  0  0
 28 29  1  0  0  0
 29 30  2  0  0  0
 29 34  1  0  0  0
 30 31  1  0  0  0
 31 32  2  0  0  0
 32 33  1  0  0  0
 33 34  2  0  0  0
 23 24  2  0  0  0
 23 25  1  0  0  0
 25  1  1  0  0  0
  1 43  1  0  0  0
  1  2  1  0  0  0
 43 44  1  0  0  0
 44 45  2  0  0  0
 44 48  1  0  0  0
 45 46  1  0  0  0
 46 47  2  0  0  0
 47 48  1  0  0  0
  2  3  2  0  0  0
  2  4  1  0  0  0
  4  6  1  0  0  0
  6  7  1  0  0  0
  6 16  1  0  0  0
  7  8  1  0  0  0
  7 10  1  0  0  0
 10 13  1  0  0  0
 10 11  1  0  0  0
 13 14  1  0  0  0
 13 15  1  0  0  0
 14 15  1  0  0  0
 16 17  1  0  0  0
 17 18  1  0  0  0
 17 22  1  0  0  0
 18 19  1  0  0  0
 19 20  1  0  0  0
 20 21  1  0  0  0
 21 22  1  0  0  0
 25 26  1  0  0  0
 48 49  1  0  0  0
  4  5  1  0  0  0
  8  9  1  0  0  0
 11 12  1  0  0  0
M  END
> <minimizedAffinity>
-9.39605

$$$$
3D91_REM_A_350


 49 52  0  0  0  0  0  0  0  0999 V2000
   -2.4784    4.4489   -7.9025 C   0  0  0  0  0  0  0  0  0  0  0  0
   -2.0142    5.4724   -6.9503 C   0  0  0  0  0  0  0  0  0  0  0  0
   -2.0118    6.6433   -7.2994 O   0  0  0  0  0  0  0  0  0  0  0  0
   -1.6680    5.0324   -5.7229 N   0  0  0  0  0  0  0  0  0  0  0  0
   -1.6774    4.0684   -5.5230 H   0  0  0  0  0  0  0  0  0  0  0  0
   -1.2823    5.9833   -4.6998 C   0  0  0  0  0  0  0  0  0  0  0  0
    0.0940    5.6535   -4.1074 C   0  0  0  0  0  0  0  0  0  0  0  0
    0.1998    4.2718   -3.9508 O   0  0  0  0  0  0  0  0  0  0  0  0
    0.1430    3.8427   -4.8189 H   0  0  0  0  0  0  0  0  0  0  0  0
    1.2970    6.0641   -5.0116 C   0  0  0  0  0  0  0  0  0  0  0  0
    0.6742    6.9957   -5.8487 O   0  0  0  0  0  0  0  0  0  0  0  0
    0.2997    7.7122   -5.3129 H   0  0  0  0  0  0  0  0  0  0  0  0
    2.3977    6.8385   -4.2898 C   0  0  0  0  0  0  0  0  0  0  0  0
    2.6992    6.4065   -2.8582 C   0  0  0  0  0  0  0  0  0  0  0  0
    3.6384    5.9602   -3.9768 C   0  0  0  0  0  0  0  0  0  0  0  0
   -2.4384    5.8184   -3.7126 C   0  0  0  0  0  0  0  0  0  0  0  0
   -3.2057    7.1084   -3.4501 C   0  0  0  0  0  0  0  0  0  0  0  0
   -4.6164    6.7269   -2.9849 C   0  0  0  0  0  0  0  0  0  0  0  0
   -5.4725    7.9910   -3.1099 C   0  0  0  0  0  0  0  0  0  0  0  0
   -4.8992    9.1894   -2.3373 C   0  0  0  0  0  0  0  0  0  0  0  0
   -3.3566    9.3371   -2.2996 C   0  0  0  0  0  0  0  0  0  0  0  0
   -2.5887    8.0130   -2.3657 C   0  0  0  0  0  0  0  0  0  0  0  0
   -1.0281    3.5170   -9.5905 C   0  0  0  0  0  0  0  0  0  0  0  0
   -1.7543    3.8885  -10.5060 O   0  0  0  0  0  0  0  0  0  0  0  0
   -1.2868    3.7274   -8.3046 N   0  0  0  0  0  0  0  0  0  0  0  0
   -0.6648    3.3910   -7.6197 H   0  0  0  0  0  0  0  0  0  0  0  0
    0.2226    2.7697   -9.8545 C   0  0  0  0  0  0  0  0  0  0  0  0
    0.3966    2.0288   -8.5301 C   0  0  0  0  0  0  0  0  0  0  0  0
    0.5964    0.5415   -8.7421 C   0  0  0  0  0  0  0  0  0  0  0  0
    1.6392    0.1019   -9.5392 C   0  0  0  0  0  0  0  0  0  0  0  0
    1.7958   -1.2544   -9.7334 C   0  0  0  0  0  0  0  0  0  0  0  0
    0.9345   -2.1646   -9.1521 C   0  0  0  0  0  0  0  0  0  0  0  0
   -0.0906   -1.7304   -8.3506 C   0  0  0  0  0  0  0  0  0  0  0  0
   -0.2592   -0.3727   -8.1526 C   0  0  0  0  0  0  0  0  0  0  0  0
    1.4623    3.6540  -10.1208 C   0  0  0  0  0  0  0  0  0  0  0  0
    1.5578    3.7739   -7.6453 O   0  0  0  0  0  0  0  0  0  0  0  0
    2.3362    4.1677   -8.7882 S   0  0  0  0  0  0  0  0  0  0  0  0
    2.5146    5.5760   -8.7486 O   0  0  0  0  0  0  0  0  0  0  0  0
    3.8795    3.5107   -8.7737 C   0  0  0  0  0  0  0  0  0  0  0  0
    4.0522    2.4838   -7.6479 C   0  0  0  0  0  0  0  0  0  0  0  0
    4.9606    4.5844   -8.6135 C   0  0  0  0  0  0  0  0  0  0  0  0
    4.0962    2.8156  -10.1023 C   0  0  0  0  0  0  0  0  0  0  0  0
   -3.3753    3.4534   -7.2039 C   0  0  0  0  0  0  0  0  0  0  0  0
   -4.5602    3.1228   -8.0696 C   0  0  0  0  0  0  0  0  0  0  0  0
   -5.8326    3.0286   -7.7115 C   0  0  0  0  0  0  0  0  0  0  0  0
   -6.6489    2.7433   -8.6838 N   0  0  0  0  0  0  0  0  0  0  0  0
   -5.8376    2.6309   -9.7733 C   0  0  0  0  0  0  0  0  0  0  0  0
   -4.5681    2.8791   -9.3737 N   0  0  0  0  0  0  0  0  0  0  0  0
   -3.7760    2.8788   -9.9584 H   0  0  0  0  0  0  0  0  0  0  0  0
 36 37  2  0  0  0
 37 38  2  0  0  0
 37 39  1  0  0  0
 37 35  1  0  0  0
 39 40  1  0  0  0
 39 41  1  0  0  0
 39 42  1  0  0  0
 35 27  1  0  0  0
 27 28  1  0  0  0
 27 23  1  0  0  0
 28 29  1  0  0  0
 29 30  2  0  0  0
 29 34  1  0  0  0
 30 31  1  0  0  0
 31 32  2  0  0  0
 32 33  1  0  0  0
 33 34  2  0  0  0
 23 24  2  0  0  0
 23 25  1  0  0  0
 25  1  1  0  0  0
  1 43  1  0  0  0
  1  2  1  0  0  0
 43 44  1  0  0  0
 44 45  2  0  0  0
 44 48  1  0  0  0
 45 46  1  0  0  0
 46 47  2  0  0  0
 47 48  1  0  0  0
  2  3  2  0  0  0
  2  4  1  0  0  0
  4  6  1  0  0  0
  6  7  1  0  0  0
  6 16  1  0  0  0
  7  8  1  0  0  0
  7 10  1  0  0  0
 10 13  1  0  0  0
 10 11  1  0  0  0
 13 14  1  0  0  0
 13 15  1  0  0  0
 14 15  1  0  0  0
 16 17  1  0  0  0
 17 18  1  0  0  0
 17 22  1  0  0  0
 18 19  1  0  0  0
 19 20  1  0  0  0
 20 21  1  0  0  0
 21 22  1  0  0  0
 25 26  1  0  0  0
 48 49  1  0  0  0
  4  5  1  0  0  0
  8  9  1  0  0  0
 11 12  1  0  0  0
M  END
> <minimizedAffinity>
-9.31497

$$$$
3D91_REM_A_350


 49 52  0  0  0  0  0  0  0  0999 V2000
   -4.3408    3.9753   -6.9129 C   0  0  0  0  0  0  0  0  0  0  0  0
   -3.0306    4.6470   -6.9588 C   0  0  0  0  0  0  0  0  0  0  0  0
   -2.9737    5.7996   -7.3603 O   0  0  0  0  0  0  0  0  0  0  0  0
   -1.9801    3.9382   -6.4961 N   0  0  0  0  0  0  0  0  0  0  0  0
   -2.1026    3.0051   -6.2071 H   0  0  0  0  0  0  0  0  0  0  0  0
   -0.6707    4.5549   -6.4261 C   0  0  0  0  0  0  0  0  0  0  0  0
    0.4486    3.5459   -6.7138 C   0  0  0  0  0  0  0  0  0  0  0  0
   -0.1232    2.3292   -7.0844 O   0  0  0  0  0  0  0  0  0  0  0  0
   -0.6307    2.4463   -7.9027 H   0  0  0  0  0  0  0  0  0  0  0  0
    1.3838    3.9447   -7.8969 C   0  0  0  0  0  0  0  0  0  0  0  0
    2.6352    3.7500   -7.3032 O   0  0  0  0  0  0  0  0  0  0  0  0
    2.7141    2.8288   -7.0097 H   0  0  0  0  0  0  0  0  0  0  0  0
    1.3451    2.9877   -9.0865 C   0  0  0  0  0  0  0  0  0  0  0  0
    0.3670    3.3384  -10.2033 C   0  0  0  0  0  0  0  0  0  0  0  0
    1.8504    3.6454  -10.3983 C   0  0  0  0  0  0  0  0  0  0  0  0
   -0.6820    5.0759   -4.9885 C   0  0  0  0  0  0  0  0  0  0  0  0
    0.6989    5.4496   -4.4638 C   0  0  0  0  0  0  0  0  0  0  0  0
    1.1842    6.6714   -5.2534 C   0  0  0  0  0  0  0  0  0  0  0  0
    2.6910    6.7825   -5.0006 C   0  0  0  0  0  0  0  0  0  0  0  0
    3.0503    6.8620   -3.5085 C   0  0  0  0  0  0  0  0  0  0  0  0
    2.1915    6.0252   -2.5262 C   0  0  0  0  0  0  0  0  0  0  0  0
    0.7393    5.8182   -2.9680 C   0  0  0  0  0  0  0  0  0  0  0  0
   -5.5897    4.3465   -4.8823 C   0  0  0  0  0  0  0  0  0  0  0  0
   -5.3349    3.2280   -4.4493 O   0  0  0  0  0  0  0  0  0  0  0  0
   -5.1685    4.8023   -6.0568 N   0  0  0  0  0  0  0  0  0  0  0  0
   -5.4203    5.7084   -6.3481 H   0  0  0  0  0  0  0  0  0  0  0  0
   -6.4238    5.2982   -4.1137 C   0  0  0  0  0  0  0  0  0  0  0  0
   -7.5934    5.4939   -5.0766 C   0  0  0  0  0  0  0  0  0  0  0  0
   -8.8518    4.8141   -4.5752 C   0  0  0  0  0  0  0  0  0  0  0  0
   -8.9029    4.3542   -3.2707 C   0  0  0  0  0  0  0  0  0  0  0  0
  -10.0505    3.7242   -2.8370 C   0  0  0  0  0  0  0  0  0  0  0  0
  -11.1315    3.5476   -3.6785 C   0  0  0  0  0  0  0  0  0  0  0  0
  -11.0869    4.0158   -4.9672 C   0  0  0  0  0  0  0  0  0  0  0  0
   -9.9399    4.6452   -5.4136 C   0  0  0  0  0  0  0  0  0  0  0  0
   -5.7546    6.6618   -3.8268 C   0  0  0  0  0  0  0  0  0  0  0  0
   -3.2875    6.7427   -4.0689 O   0  0  0  0  0  0  0  0  0  0  0  0
   -4.2800    6.6387   -3.0339 S   0  0  0  0  0  0  0  0  0  0  0  0
   -4.0547    5.4366   -2.3123 O   0  0  0  0  0  0  0  0  0  0  0  0
   -4.1677    7.8764   -1.9072 C   0  0  0  0  0  0  0  0  0  0  0  0
   -3.0353    8.8540   -2.2440 C   0  0  0  0  0  0  0  0  0  0  0  0
   -3.9362    7.3444   -0.4892 C   0  0  0  0  0  0  0  0  0  0  0  0
   -5.4811    8.6315   -1.9207 C   0  0  0  0  0  0  0  0  0  0  0  0
   -4.9820    3.9864   -8.2812 C   0  0  0  0  0  0  0  0  0  0  0  0
   -6.3747    3.4226   -8.2084 C   0  0  0  0  0  0  0  0  0  0  0  0
   -6.7373    2.1656   -7.9976 C   0  0  0  0  0  0  0  0  0  0  0  0
   -8.0234    1.9707   -7.9683 N   0  0  0  0  0  0  0  0  0  0  0  0
   -8.5496    3.2085   -8.1896 C   0  0  0  0  0  0  0  0  0  0  0  0
   -7.5217    4.0798   -8.3211 N   0  0  0  0  0  0  0  0  0  0  0  0
   -7.6113    5.0480   -8.4759 H   0  0  0  0  0  0  0  0  0  0  0  0
 36 37  2  0  0  0
 37 38  2  0  0  0
 37 39  1  0  0  0
 37 35  1  0  0  0
 39 40  1  0  0  0
 39 41  1  0  0  0
 39 42  1  0  0  0
 35 27  1  0  0  0
 27 28  1  0  0  0
 27 23  1  0  0  0
 28 29  1  0  0  0
 29 30  2  0  0  0
 29 34  1  0  0  0
 30 31  1  0  0  0
 31 32  2  0  0  0
 32 33  1  0  0  0
 33 34  2  0  0  0
 23 24  2  0  0  0
 23 25  1  0  0  0
 25  1  1  0  0  0
  1 43  1  0  0  0
  1  2  1  0  0  0
 43 44  1  0  0  0
 44 45  2  0  0  0
 44 48  1  0  0  0
 45 46  1  0  0  0
 46 47  2  0  0  0
 47 48  1  0  0  0
  2  3  2  0  0  0
  2  4  1  0  0  0
  4  6  1  0  0  0
  6  7  1  0  0  0
  6 16  1  0  0  0
  7  8  1  0  0  0
  7 10  1  0  0  0
 10 13  1  0  0  0
 10 11  1  0  0  0
 13 14  1  0  0  0
 13 15  1  0  0  0
 14 15  1  0  0  0
 16 17  1  0  0  0
 17 18  1  0  0  0
 17 22  1  0  0  0
 18 19  1  0  0  0
 19 20  1  0  0  0
 20 21  1  0  0  0
 21 22  1  0  0  0
 25 26  1  0  0  0
 48 49  1  0  0  0
  4  5  1  0  0  0
  8  9  1  0  0  0
 11 12  1  0  0  0
M  END
> <minimizedAffinity>
-9.19719

$$$$
3D91_REM_A_350


 49 52  0  0  0  0  0  0  0  0999 V2000
   -3.2593    3.8857   -7.5439 C   0  0  0  0  0  0  0  0  0  0  0  0
   -3.0911    4.7338   -6.3514 C   0  0  0  0  0  0  0  0  0  0  0  0
   -4.0381    4.8771   -5.5926 O   0  0  0  0  0  0  0  0  0  0  0  0
   -1.8625    5.2568   -6.1594 N   0  0  0  0  0  0  0  0  0  0  0  0
   -1.1542    5.1123   -6.8278 H   0  0  0  0  0  0  0  0  0  0  0  0
   -1.5888    6.0321   -4.9662 C   0  0  0  0  0  0  0  0  0  0  0  0
   -1.0105    7.4121   -5.3056 C   0  0  0  0  0  0  0  0  0  0  0  0
   -1.1802    7.6510   -6.6690 O   0  0  0  0  0  0  0  0  0  0  0  0
   -2.1271    7.6694   -6.8786 H   0  0  0  0  0  0  0  0  0  0  0  0
   -1.7180    8.5998   -4.5829 C   0  0  0  0  0  0  0  0  0  0  0  0
   -2.3679    9.2003   -5.6662 O   0  0  0  0  0  0  0  0  0  0  0  0
   -2.9645    8.5581   -6.0817 H   0  0  0  0  0  0  0  0  0  0  0  0
   -2.8295    8.1856   -3.6210 C   0  0  0  0  0  0  0  0  0  0  0  0
   -2.3962    7.8280   -2.2028 C   0  0  0  0  0  0  0  0  0  0  0  0
   -3.0217    9.1974   -2.4599 C   0  0  0  0  0  0  0  0  0  0  0  0
   -0.6052    5.1065   -4.2491 C   0  0  0  0  0  0  0  0  0  0  0  0
    0.8405    5.5834   -4.3149 C   0  0  0  0  0  0  0  0  0  0  0  0
    1.3280    5.7978   -2.8768 C   0  0  0  0  0  0  0  0  0  0  0  0
    2.6071    6.6354   -2.9712 C   0  0  0  0  0  0  0  0  0  0  0  0
    3.6802    6.0025   -3.8710 C   0  0  0  0  0  0  0  0  0  0  0  0
    3.1923    5.2459   -5.1329 C   0  0  0  0  0  0  0  0  0  0  0  0
    1.8118    4.5966   -4.9915 C   0  0  0  0  0  0  0  0  0  0  0  0
   -1.3431    3.3900   -8.9236 C   0  0  0  0  0  0  0  0  0  0  0  0
   -1.7950    4.0104   -9.8798 O   0  0  0  0  0  0  0  0  0  0  0  0
   -1.9684    3.2616   -7.7586 N   0  0  0  0  0  0  0  0  0  0  0  0
   -1.5522    2.7388   -7.0357 H   0  0  0  0  0  0  0  0  0  0  0  0
   -0.0339    2.7029   -9.0007 C   0  0  0  0  0  0  0  0  0  0  0  0
   -0.3750    1.3658   -8.3456 C   0  0  0  0  0  0  0  0  0  0  0  0
    0.7916    0.3999   -8.4031 C   0  0  0  0  0  0  0  0  0  0  0  0
    1.3777    0.1129   -9.6238 C   0  0  0  0  0  0  0  0  0  0  0  0
    2.4278   -0.7804   -9.6585 C   0  0  0  0  0  0  0  0  0  0  0  0
    2.8919   -1.3843   -8.5061 C   0  0  0  0  0  0  0  0  0  0  0  0
    2.3208   -1.0896   -7.2941 C   0  0  0  0  0  0  0  0  0  0  0  0
    1.2648   -0.1987   -7.2485 C   0  0  0  0  0  0  0  0  0  0  0  0
    1.1061    3.3897   -8.2144 C   0  0  0  0  0  0  0  0  0  0  0  0
    2.3341    5.5081   -8.6095 O   0  0  0  0  0  0  0  0  0  0  0  0
    2.2954    4.1597   -9.1068 S   0  0  0  0  0  0  0  0  0  0  0  0
    2.0097    4.2001  -10.4973 O   0  0  0  0  0  0  0  0  0  0  0  0
    3.7732    3.3786   -8.9661 C   0  0  0  0  0  0  0  0  0  0  0  0
    4.0819    2.5154  -10.1954 C   0  0  0  0  0  0  0  0  0  0  0  0
    3.8352    2.4840   -7.7239 C   0  0  0  0  0  0  0  0  0  0  0  0
    4.8451    4.4416   -8.8377 C   0  0  0  0  0  0  0  0  0  0  0  0
   -4.2397    2.7717   -7.2590 C   0  0  0  0  0  0  0  0  0  0  0  0
   -5.3685    2.8044   -8.2527 C   0  0  0  0  0  0  0  0  0  0  0  0
   -5.3144    2.5835   -9.5582 C   0  0  0  0  0  0  0  0  0  0  0  0
   -6.4608    2.6627  -10.1687 N   0  0  0  0  0  0  0  0  0  0  0  0
   -7.3421    2.9728   -9.1762 C   0  0  0  0  0  0  0  0  0  0  0  0
   -6.6518    3.0418   -8.0136 N   0  0  0  0  0  0  0  0  0  0  0  0
   -7.0405    3.2373   -7.1305 H   0  0  0  0  0  0  0  0  0  0  0  0
 36 37  2  0  0  0
 37 38  2  0  0  0
 37 39  1  0  0  0
 37 35  1  0  0  0
 39 40  1  0  0  0
 39 41  1  0  0  0
 39 42  1  0  0  0
 35 27  1  0  0  0
 27 28  1  0  0  0
 27 23  1  0  0  0
 28 29  1  0  0  0
 29 30  2  0  0  0
 29 34  1  0  0  0
 30 31  1  0  0  0
 31 32  2  0  0  0
 32 33  1  0  0  0
 33 34  2  0  0  0
 23 24  2  0  0  0
 23 25  1  0  0  0
 25  1  1  0  0  0
  1 43  1  0  0  0
  1  2  1  0  0  0
 43 44  1  0  0  0
 44 45  2  0  0  0
 44 48  1  0  0  0
 45 46  1  0  0  0
 46 47  2  0  0  0
 47 48  1  0  0  0
  2  3  2  0  0  0
  2  4  1  0  0  0
  4  6  1  0  0  0
  6  7  1  0  0  0
  6 16  1  0  0  0
  7  8  1  0  0  0
  7 10  1  0  0  0
 10 13  1  0  0  0
 10 11  1  0  0  0
 13 14  1  0  0  0
 13 15  1  0  0  0
 14 15  1  0  0  0
 16 17  1  0  0  0
 17 18  1  0  0  0
 17 22  1  0  0  0
 18 19  1  0  0  0
 19 20  1  0  0  0
 20 21  1  0  0  0
 21 22  1  0  0  0
 25 26  1  0  0  0
 48 49  1  0  0  0
  4  5  1  0  0  0
  8  9  1  0  0  0
 11 12  1  0  0  0
M  END
> <minimizedAffinity>
-9.15158

$$$$
