5KAX_RHQ_A_201


 35 38  0  0  0  0  0  0  0  0999 V2000
   -2.8335   22.1898  -10.4817 C   0  0  0  0  0  0  0  0  0  0  0  0
   -1.5287   22.4910  -10.0391 C   0  0  0  0  0  0  0  0  0  0  0  0
   -0.7961   21.4857   -9.3868 C   0  0  0  0  0  0  0  0  0  0  0  0
   -1.3266   20.1946   -9.1656 C   0  0  0  0  0  0  0  0  0  0  0  0
   -2.6160   19.8839   -9.6067 C   0  0  0  0  0  0  0  0  0  0  0  0
   -3.3692   20.8804  -10.2607 C   0  0  0  0  0  0  0  0  0  0  0  0
   -3.5799   23.1582  -11.1286 O   0  0  0  0  0  0  0  0  0  0  0  0
   -3.1033   24.4224  -11.3664 C   0  0  0  0  0  0  0  0  0  0  0  0
   -1.8158   24.8014  -10.9565 C   0  0  0  0  0  0  0  0  0  0  0  0
   -0.9634   23.8390  -10.2635 C   0  0  0  0  0  0  0  0  0  0  0  0
   -3.9326   25.3606  -12.0290 C   0  0  0  0  0  0  0  0  0  0  0  0
   -3.4580   26.6526  -12.2847 C   0  0  0  0  0  0  0  0  0  0  0  0
   -2.2039   27.0105  -11.8880 C   0  0  0  0  0  0  0  0  0  0  0  0
   -1.3726   26.1123  -11.2205 C   0  0  0  0  0  0  0  0  0  0  0  0
   -1.7364   28.3859  -12.1816 C   0  0  0  0  0  0  0  0  0  0  0  0
   -0.4684   19.1605   -8.4533 C   0  0  0  0  0  0  0  0  0  0  0  0
   -3.1470   18.5396   -9.3589 N   0  0  0  0  0  0  0  0  0  0  0  0
   -2.7562   17.9920   -8.6401 H   0  0  0  0  0  0  0  0  0  0  0  0
    0.4730   24.1436   -9.7801 C   0  0  0  0  0  0  0  0  0  0  0  0
    0.7026   24.4721   -8.3179 C   0  0  0  0  0  0  0  0  0  0  0  0
    1.9850   24.7310   -7.8135 C   0  0  0  0  0  0  0  0  0  0  0  0
    3.1758   24.6859   -8.7341 C   0  0  0  0  0  0  0  0  0  0  0  0
    2.9986   24.3790  -10.0646 C   0  0  0  0  0  0  0  0  0  0  0  0
    1.6015   24.0955  -10.6075 C   0  0  0  0  0  0  0  0  0  0  0  0
    1.5338   23.7704  -12.0872 C   0  0  0  0  0  0  0  0  0  0  0  0
    2.1608   22.8316  -12.5348 O   0  0  0  0  0  0  0  0  0  0  0  0
    0.7695   24.5399  -12.9424 O   0  0  0  0  0  0  0  0  0  0  0  0
    1.4568   25.4340  -13.7818 C   0  0  0  0  0  0  0  0  0  0  0  0
    0.5091   26.3187  -14.4967 C   0  0  0  0  0  0  0  0  0  0  0  0
   -4.2756   27.6554  -12.9707 N   0  0  0  0  0  0  0  0  0  0  0  0
   -3.8517   28.4237  -13.4172 H   0  0  0  0  0  0  0  0  0  0  0  0
   -5.7040   27.5036  -12.9838 C   0  0  0  0  0  0  0  0  0  0  0  0
   -6.3802   28.6928  -13.6115 C   0  0  0  0  0  0  0  0  0  0  0  0
   -4.2413   17.9973  -10.1548 C   0  0  0  0  0  0  0  0  0  0  0  0
   -5.2580   17.3131   -9.2621 C   0  0  0  0  0  0  0  0  0  0  0  0
  1  2  1  0  0  0
  1  6  2  0  0  0
  1  7  1  0  0  0
  2  3  1  0  0  0
  2 10  2  0  0  0
  3  4  2  0  0  0
  4  5  1  0  0  0
  4 16  1  0  0  0
  5  6  1  0  0  0
  5 17  2  0  0  0
  7  8  1  0  0  0
  8  9  2  0  0  0
  8 11  1  0  0  0
  9 10  1  0  0  0
  9 14  1  0  0  0
 10 19  1  0  0  0
 11 12  2  0  0  0
 12 13  1  0  0  0
 12 30  1  0  0  0
 13 14  2  0  0  0
 13 15  1  0  0  0
 30 32  1  0  0  0
 19 20  2  0  0  0
 19 24  1  0  0  0
 20 21  1  0  0  0
 21 22  2  0  0  0
 22 23  1  0  0  0
 23 24  2  0  0  0
 24 25  1  0  0  0
 32 33  1  0  0  0
 17 34  1  0  0  0
 34 35  1  0  0  0
 25 26  2  0  0  0
 25 27  1  0  0  0
 27 28  1  0  0  0
 28 29  1  0  0  0
 30 31  1  0  0  0
 17 18  1  0  0  0
M  CHG 1  17   1
M  END
> <minimizedAffinity>
-9.27267

$$$$
5KAX_RHQ_A_201


 35 38  0  0  0  0  0  0  0  0999 V2000
   -2.7282   24.0360  -11.0261 C   0  0  0  0  0  0  0  0  0  0  0  0
   -1.4159   24.4451  -10.7107 C   0  0  0  0  0  0  0  0  0  0  0  0
   -1.0213   25.7479  -11.0569 C   0  0  0  0  0  0  0  0  0  0  0  0
   -1.8957   26.6492  -11.7052 C   0  0  0  0  0  0  0  0  0  0  0  0
   -3.2004   26.2557  -12.0158 C   0  0  0  0  0  0  0  0  0  0  0  0
   -3.6150   24.9507  -11.6796 C   0  0  0  0  0  0  0  0  0  0  0  0
   -3.1473   22.7595  -10.6970 O   0  0  0  0  0  0  0  0  0  0  0  0
   -2.3330   21.8541  -10.0652 C   0  0  0  0  0  0  0  0  0  0  0  0
   -1.0136   22.1833   -9.7186 C   0  0  0  0  0  0  0  0  0  0  0  0
   -0.4914   23.5104  -10.0336 C   0  0  0  0  0  0  0  0  0  0  0  0
   -2.8344   20.5628   -9.7684 C   0  0  0  0  0  0  0  0  0  0  0  0
   -2.0177   19.6300   -9.1181 C   0  0  0  0  0  0  0  0  0  0  0  0
   -0.7390   19.9602   -8.7800 C   0  0  0  0  0  0  0  0  0  0  0  0
   -0.2151   21.2182   -9.0739 C   0  0  0  0  0  0  0  0  0  0  0  0
    0.0921   18.9468   -8.0882 C   0  0  0  0  0  0  0  0  0  0  0  0
   -1.3928   28.0439  -12.0447 C   0  0  0  0  0  0  0  0  0  0  0  0
   -4.0865   27.2065  -12.6952 N   0  0  0  0  0  0  0  0  0  0  0  0
   -3.6940   27.9560  -13.1986 H   0  0  0  0  0  0  0  0  0  0  0  0
    0.9388   23.9839   -9.6872 C   0  0  0  0  0  0  0  0  0  0  0  0
    1.2356   24.4566   -8.2775 C   0  0  0  0  0  0  0  0  0  0  0  0
    2.5187   24.8725   -7.8947 C   0  0  0  0  0  0  0  0  0  0  0  0
    3.6423   24.8559   -8.8971 C   0  0  0  0  0  0  0  0  0  0  0  0
    3.4045   24.4208  -10.1817 C   0  0  0  0  0  0  0  0  0  0  0  0
    2.0071   23.9667  -10.5919 C   0  0  0  0  0  0  0  0  0  0  0  0
    1.8697   23.5105  -12.0317 C   0  0  0  0  0  0  0  0  0  0  0  0
    2.4477   22.5130  -12.4134 O   0  0  0  0  0  0  0  0  0  0  0  0
    1.0967   24.2255  -12.9255 O   0  0  0  0  0  0  0  0  0  0  0  0
    1.7137   25.3059  -13.5799 C   0  0  0  0  0  0  0  0  0  0  0  0
    0.7310   26.0615  -14.3894 C   0  0  0  0  0  0  0  0  0  0  0  0
   -2.4923   18.2851   -8.7856 N   0  0  0  0  0  0  0  0  0  0  0  0
   -2.1066   17.4961   -9.2306 H   0  0  0  0  0  0  0  0  0  0  0  0
   -3.5278   18.1320   -7.8018 C   0  0  0  0  0  0  0  0  0  0  0  0
   -2.9860   17.5794   -6.5108 C   0  0  0  0  0  0  0  0  0  0  0  0
   -5.5363   27.0647  -12.6408 C   0  0  0  0  0  0  0  0  0  0  0  0
   -6.2087   28.2017  -13.3851 C   0  0  0  0  0  0  0  0  0  0  0  0
  1  2  1  0  0  0
  1  6  2  0  0  0
  1  7  1  0  0  0
  2  3  1  0  0  0
  2 10  2  0  0  0
  3  4  2  0  0  0
  4  5  1  0  0  0
  4 16  1  0  0  0
  5  6  1  0  0  0
  5 17  2  0  0  0
  7  8  1  0  0  0
  8  9  2  0  0  0
  8 11  1  0  0  0
  9 10  1  0  0  0
  9 14  1  0  0  0
 10 19  1  0  0  0
 11 12  2  0  0  0
 12 13  1  0  0  0
 12 30  1  0  0  0
 13 14  2  0  0  0
 13 15  1  0  0  0
 30 32  1  0  0  0
 19 20  2  0  0  0
 19 24  1  0  0  0
 20 21  1  0  0  0
 21 22  2  0  0  0
 22 23  1  0  0  0
 23 24  2  0  0  0
 24 25  1  0  0  0
 32 33  1  0  0  0
 17 34  1  0  0  0
 34 35  1  0  0  0
 25 26  2  0  0  0
 25 27  1  0  0  0
 27 28  1  0  0  0
 28 29  1  0  0  0
 30 31  1  0  0  0
 17 18  1  0  0  0
M  CHG 1  17   1
M  END
> <minimizedAffinity>
-9.03449

$$$$
5KAX_RHQ_A_201


 35 38  0  0  0  0  0  0  0  0999 V2000
   -2.8919   24.5042  -11.4033 C   0  0  0  0  0  0  0  0  0  0  0  0
   -1.5122   24.7758  -11.5125 C   0  0  0  0  0  0  0  0  0  0  0  0
   -1.1118   25.9311  -12.2039 C   0  0  0  0  0  0  0  0  0  0  0  0
   -2.0453   26.8184  -12.7857 C   0  0  0  0  0  0  0  0  0  0  0  0
   -3.4149   26.5618  -12.6770 C   0  0  0  0  0  0  0  0  0  0  0  0
   -3.8374   25.4054  -11.9898 C   0  0  0  0  0  0  0  0  0  0  0  0
   -3.3180   23.3750  -10.7275 O   0  0  0  0  0  0  0  0  0  0  0  0
   -2.4470   22.4891  -10.1456 C   0  0  0  0  0  0  0  0  0  0  0  0
   -1.0593   22.6873  -10.2107 C   0  0  0  0  0  0  0  0  0  0  0  0
   -0.5259   23.8539  -10.9090 C   0  0  0  0  0  0  0  0  0  0  0  0
   -2.9621   21.3513   -9.4770 C   0  0  0  0  0  0  0  0  0  0  0  0
   -2.0863   20.4416   -8.8726 C   0  0  0  0  0  0  0  0  0  0  0  0
   -0.7397   20.6449   -8.9359 C   0  0  0  0  0  0  0  0  0  0  0  0
   -0.2053   21.7476   -9.6005 C   0  0  0  0  0  0  0  0  0  0  0  0
    0.1540   19.6618   -8.2793 C   0  0  0  0  0  0  0  0  0  0  0  0
   -1.5311   28.0494  -13.5162 C   0  0  0  0  0  0  0  0  0  0  0  0
   -4.3635   27.4935  -13.2956 N   0  0  0  0  0  0  0  0  0  0  0  0
   -4.0564   28.0824  -14.0224 H   0  0  0  0  0  0  0  0  0  0  0  0
    0.9807   24.1773  -11.0311 C   0  0  0  0  0  0  0  0  0  0  0  0
    1.6567   24.0337  -12.3805 C   0  0  0  0  0  0  0  0  0  0  0  0
    3.0135   24.3377  -12.5610 C   0  0  0  0  0  0  0  0  0  0  0  0
    3.8352   24.8202  -11.3950 C   0  0  0  0  0  0  0  0  0  0  0  0
    3.2450   24.9709  -10.1602 C   0  0  0  0  0  0  0  0  0  0  0  0
    1.7677   24.6415   -9.9701 C   0  0  0  0  0  0  0  0  0  0  0  0
    1.2324   24.8468   -8.5661 C   0  0  0  0  0  0  0  0  0  0  0  0
    0.1869   25.4394   -8.3924 O   0  0  0  0  0  0  0  0  0  0  0  0
    1.9288   24.3729   -7.4715 O   0  0  0  0  0  0  0  0  0  0  0  0
    1.7854   23.0080   -7.1667 C   0  0  0  0  0  0  0  0  0  0  0  0
    3.0373   22.2708   -7.4514 C   0  0  0  0  0  0  0  0  0  0  0  0
   -2.5708   19.2540   -8.1659 N   0  0  0  0  0  0  0  0  0  0  0  0
   -2.3096   19.0888   -7.2312 H   0  0  0  0  0  0  0  0  0  0  0  0
   -3.4322   18.3332   -8.8543 C   0  0  0  0  0  0  0  0  0  0  0  0
   -2.7041   17.6169   -9.9599 C   0  0  0  0  0  0  0  0  0  0  0  0
   -5.7517   27.5660  -12.8566 C   0  0  0  0  0  0  0  0  0  0  0  0
   -6.4977   28.6352  -13.6307 C   0  0  0  0  0  0  0  0  0  0  0  0
  1  2  1  0  0  0
  1  6  2  0  0  0
  1  7  1  0  0  0
  2  3  1  0  0  0
  2 10  2  0  0  0
  3  4  2  0  0  0
  4  5  1  0  0  0
  4 16  1  0  0  0
  5  6  1  0  0  0
  5 17  2  0  0  0
  7  8  1  0  0  0
  8  9  2  0  0  0
  8 11  1  0  0  0
  9 10  1  0  0  0
  9 14  1  0  0  0
 10 19  1  0  0  0
 11 12  2  0  0  0
 12 13  1  0  0  0
 12 30  1  0  0  0
 13 14  2  0  0  0
 13 15  1  0  0  0
 30 32  1  0  0  0
 19 20  2  0  0  0
 19 24  1  0  0  0
 20 21  1  0  0  0
 21 22  2  0  0  0
 22 23  1  0  0  0
 23 24  2  0  0  0
 24 25  1  0  0  0
 32 33  1  0  0  0
 17 34  1  0  0  0
 34 35  1  0  0  0
 25 26  2  0  0  0
 25 27  1  0  0  0
 27 28  1  0  0  0
 28 29  1  0  0  0
 30 31  1  0  0  0
 17 18  1  0  0  0
M  CHG 1  17   1
M  END
> <minimizedAffinity>
-9.01996

$$$$
5KAX_RHQ_A_201


 35 38  0  0  0  0  0  0  0  0999 V2000
    1.3864   25.0617  -12.8195 C   0  0  0  0  0  0  0  0  0  0  0  0
    0.9479   24.1764  -11.8130 C   0  0  0  0  0  0  0  0  0  0  0  0
    1.8603   23.2360  -11.3071 C   0  0  0  0  0  0  0  0  0  0  0  0
    3.1915   23.1554  -11.7749 C   0  0  0  0  0  0  0  0  0  0  0  0
    3.6377   24.0329  -12.7670 C   0  0  0  0  0  0  0  0  0  0  0  0
    2.7362   24.9822  -13.2905 C   0  0  0  0  0  0  0  0  0  0  0  0
    0.5119   26.0001  -13.3372 O   0  0  0  0  0  0  0  0  0  0  0  0
   -0.7868   26.1149  -12.9104 C   0  0  0  0  0  0  0  0  0  0  0  0
   -1.3001   25.2711  -11.9136 C   0  0  0  0  0  0  0  0  0  0  0  0
   -0.4432   24.2501  -11.3165 C   0  0  0  0  0  0  0  0  0  0  0  0
   -1.6227   27.0975  -13.4959 C   0  0  0  0  0  0  0  0  0  0  0  0
   -2.9483   27.2313  -13.0664 C   0  0  0  0  0  0  0  0  0  0  0  0
   -3.4372   26.4109  -12.0935 C   0  0  0  0  0  0  0  0  0  0  0  0
   -2.6414   25.4255  -11.5113 C   0  0  0  0  0  0  0  0  0  0  0  0
   -4.8442   26.5874  -11.6628 C   0  0  0  0  0  0  0  0  0  0  0  0
    4.1187   22.1102  -11.1739 C   0  0  0  0  0  0  0  0  0  0  0  0
    5.0212   23.9247  -13.2412 N   0  0  0  0  0  0  0  0  0  0  0  0
    5.5102   23.0800  -13.1125 H   0  0  0  0  0  0  0  0  0  0  0  0
   -0.8989   23.2775  -10.2048 C   0  0  0  0  0  0  0  0  0  0  0  0
   -1.8322   22.1374  -10.5624 C   0  0  0  0  0  0  0  0  0  0  0  0
   -2.2593   21.2068   -9.6046 C   0  0  0  0  0  0  0  0  0  0  0  0
   -1.7887   21.3284   -8.1793 C   0  0  0  0  0  0  0  0  0  0  0  0
   -0.9317   22.3473   -7.8281 C   0  0  0  0  0  0  0  0  0  0  0  0
   -0.4679   23.3553   -8.8749 C   0  0  0  0  0  0  0  0  0  0  0  0
    0.4734   24.4308   -8.3679 C   0  0  0  0  0  0  0  0  0  0  0  0
    0.3939   25.5635   -8.7982 O   0  0  0  0  0  0  0  0  0  0  0  0
    1.4350   24.1349   -7.4217 O   0  0  0  0  0  0  0  0  0  0  0  0
    2.7072   23.7720   -7.8973 C   0  0  0  0  0  0  0  0  0  0  0  0
    3.0226   22.3704   -7.5398 C   0  0  0  0  0  0  0  0  0  0  0  0
   -3.8491   28.2349  -13.6373 N   0  0  0  0  0  0  0  0  0  0  0  0
   -4.7686   27.9922  -13.8921 H   0  0  0  0  0  0  0  0  0  0  0  0
   -3.3736   29.5780  -13.8209 C   0  0  0  0  0  0  0  0  0  0  0  0
   -4.4365   30.5905  -13.4882 C   0  0  0  0  0  0  0  0  0  0  0  0
    5.6875   25.0420  -13.8990 C   0  0  0  0  0  0  0  0  0  0  0  0
    6.5825   25.7767  -12.9202 C   0  0  0  0  0  0  0  0  0  0  0  0
  1  2  1  0  0  0
  1  6  2  0  0  0
  1  7  1  0  0  0
  2  3  1  0  0  0
  2 10  2  0  0  0
  3  4  2  0  0  0
  4  5  1  0  0  0
  4 16  1  0  0  0
  5  6  1  0  0  0
  5 17  2  0  0  0
  7  8  1  0  0  0
  8  9  2  0  0  0
  8 11  1  0  0  0
  9 10  1  0  0  0
  9 14  1  0  0  0
 10 19  1  0  0  0
 11 12  2  0  0  0
 12 13  1  0  0  0
 12 30  1  0  0  0
 13 14  2  0  0  0
 13 15  1  0  0  0
 30 32  1  0  0  0
 19 20  2  0  0  0
 19 24  1  0  0  0
 20 21  1  0  0  0
 21 22  2  0  0  0
 22 23  1  0  0  0
 23 24  2  0  0  0
 24 25  1  0  0  0
 32 33  1  0  0  0
 17 34  1  0  0  0
 34 35  1  0  0  0
 25 26  2  0  0  0
 25 27  1  0  0  0
 27 28  1  0  0  0
 28 29  1  0  0  0
 30 31  1  0  0  0
 17 18  1  0  0  0
M  CHG 1  17   1
M  END
> <minimizedAffinity>
-8.58647

$$$$
5KAX_RHQ_A_201


 35 38  0  0  0  0  0  0  0  0999 V2000
   -0.8406   26.2203  -12.9481 C   0  0  0  0  0  0  0  0  0  0  0  0
   -1.3266   25.3440  -11.9556 C   0  0  0  0  0  0  0  0  0  0  0  0
   -2.6573   25.4891  -11.5302 C   0  0  0  0  0  0  0  0  0  0  0  0
   -3.5123   26.4788  -12.0656 C   0  0  0  0  0  0  0  0  0  0  0  0
   -3.0424   27.3475  -13.0547 C   0  0  0  0  0  0  0  0  0  0  0  0
   -1.7084   27.2206  -13.4929 C   0  0  0  0  0  0  0  0  0  0  0  0
    0.4651   26.1021  -13.3889 O   0  0  0  0  0  0  0  0  0  0  0  0
    1.3278   25.1546  -12.8989 C   0  0  0  0  0  0  0  0  0  0  0  0
    0.9217   24.2462  -11.9093 C   0  0  0  0  0  0  0  0  0  0  0  0
   -0.4409   24.3053  -11.3867 C   0  0  0  0  0  0  0  0  0  0  0  0
    2.6530   25.1026  -13.3969 C   0  0  0  0  0  0  0  0  0  0  0  0
    3.5431   24.1371  -12.9116 C   0  0  0  0  0  0  0  0  0  0  0  0
    3.1384   23.2550  -11.9542 C   0  0  0  0  0  0  0  0  0  0  0  0
    1.8451   23.2937  -11.4354 C   0  0  0  0  0  0  0  0  0  0  0  0
    4.1088   22.2449  -11.4699 C   0  0  0  0  0  0  0  0  0  0  0  0
   -4.9415   26.5695  -11.5533 C   0  0  0  0  0  0  0  0  0  0  0  0
   -3.9465   28.3709  -13.5893 N   0  0  0  0  0  0  0  0  0  0  0  0
   -4.7277   28.6488  -13.0584 H   0  0  0  0  0  0  0  0  0  0  0  0
   -0.9979   23.3483  -10.3081 C   0  0  0  0  0  0  0  0  0  0  0  0
   -1.9922   22.2790  -10.7165 C   0  0  0  0  0  0  0  0  0  0  0  0
   -2.5127   21.3644   -9.7899 C   0  0  0  0  0  0  0  0  0  0  0  0
   -2.0840   21.4321   -8.3479 C   0  0  0  0  0  0  0  0  0  0  0  0
   -1.1736   22.3857   -7.9507 C   0  0  0  0  0  0  0  0  0  0  0  0
   -0.6084   23.3764   -8.9636 C   0  0  0  0  0  0  0  0  0  0  0  0
    0.3846   24.3784   -8.4068 C   0  0  0  0  0  0  0  0  0  0  0  0
    0.3863   25.5240   -8.8096 O   0  0  0  0  0  0  0  0  0  0  0  0
    1.3017   24.0002   -7.4458 O   0  0  0  0  0  0  0  0  0  0  0  0
    2.5937   23.6713   -7.8919 C   0  0  0  0  0  0  0  0  0  0  0  0
    2.7802   22.2030   -7.9279 C   0  0  0  0  0  0  0  0  0  0  0  0
    4.9207   24.0404  -13.3988 N   0  0  0  0  0  0  0  0  0  0  0  0
    5.2599   23.1942  -13.7703 H   0  0  0  0  0  0  0  0  0  0  0  0
    5.7707   25.1963  -13.3274 C   0  0  0  0  0  0  0  0  0  0  0  0
    6.1666   25.5041  -11.9082 C   0  0  0  0  0  0  0  0  0  0  0  0
   -3.7125   28.9854  -14.8903 C   0  0  0  0  0  0  0  0  0  0  0  0
   -4.7275   30.0815  -15.1495 C   0  0  0  0  0  0  0  0  0  0  0  0
  1  2  1  0  0  0
  1  6  2  0  0  0
  1  7  1  0  0  0
  2  3  1  0  0  0
  2 10  2  0  0  0
  3  4  2  0  0  0
  4  5  1  0  0  0
  4 16  1  0  0  0
  5  6  1  0  0  0
  5 17  2  0  0  0
  7  8  1  0  0  0
  8  9  2  0  0  0
  8 11  1  0  0  0
  9 10  1  0  0  0
  9 14  1  0  0  0
 10 19  1  0  0  0
 11 12  2  0  0  0
 12 13  1  0  0  0
 12 30  1  0  0  0
 13 14  2  0  0  0
 13 15  1  0  0  0
 30 32  1  0  0  0
 19 20  2  0  0  0
 19 24  1  0  0  0
 20 21  1  0  0  0
 21 22  2  0  0  0
 22 23  1  0  0  0
 23 24  2  0  0  0
 24 25  1  0  0  0
 32 33  1  0  0  0
 17 34  1  0  0  0
 34 35  1  0  0  0
 25 26  2  0  0  0
 25 27  1  0  0  0
 27 28  1  0  0  0
 28 29  1  0  0  0
 30 31  1  0  0  0
 17 18  1  0  0  0
M  CHG 1  17   1
M  END
> <minimizedAffinity>
-8.57400

$$$$
5KAX_RHQ_A_201


 35 38  0  0  0  0  0  0  0  0999 V2000
   -2.3552   23.8486  -10.7713 C   0  0  0  0  0  0  0  0  0  0  0  0
   -1.0442   24.2904  -10.4975 C   0  0  0  0  0  0  0  0  0  0  0  0
   -0.6837   25.5919  -10.8836 C   0  0  0  0  0  0  0  0  0  0  0  0
   -1.5910   26.4604  -11.5316 C   0  0  0  0  0  0  0  0  0  0  0  0
   -2.8947   26.0346  -11.8011 C   0  0  0  0  0  0  0  0  0  0  0  0
   -3.2752   24.7303  -11.4245 C   0  0  0  0  0  0  0  0  0  0  0  0
   -2.7410   22.5726  -10.4024 O   0  0  0  0  0  0  0  0  0  0  0  0
   -1.8942   21.6983   -9.7694 C   0  0  0  0  0  0  0  0  0  0  0  0
   -0.5737   22.0611   -9.4627 C   0  0  0  0  0  0  0  0  0  0  0  0
   -0.0854   23.3900   -9.8213 C   0  0  0  0  0  0  0  0  0  0  0  0
   -2.3627   20.4051   -9.4304 C   0  0  0  0  0  0  0  0  0  0  0  0
   -1.5125   19.5040   -8.7784 C   0  0  0  0  0  0  0  0  0  0  0  0
   -0.2329   19.8667   -8.4792 C   0  0  0  0  0  0  0  0  0  0  0  0
    0.2588   21.1272   -8.8151 C   0  0  0  0  0  0  0  0  0  0  0  0
    0.6343   18.8863   -7.7842 C   0  0  0  0  0  0  0  0  0  0  0  0
   -1.1240   27.8560  -11.9157 C   0  0  0  0  0  0  0  0  0  0  0  0
   -3.8152   26.9516  -12.4810 N   0  0  0  0  0  0  0  0  0  0  0  0
   -3.4497   27.6963  -13.0112 H   0  0  0  0  0  0  0  0  0  0  0  0
    1.3428   23.8991   -9.5208 C   0  0  0  0  0  0  0  0  0  0  0  0
    1.6729   24.3799   -8.1213 C   0  0  0  0  0  0  0  0  0  0  0  0
    2.9569   24.8279   -7.7798 C   0  0  0  0  0  0  0  0  0  0  0  0
    4.0479   24.8384   -8.8177 C   0  0  0  0  0  0  0  0  0  0  0  0
    3.7799   24.3967  -10.0940 C   0  0  0  0  0  0  0  0  0  0  0  0
    2.3818   23.9078  -10.4593 C   0  0  0  0  0  0  0  0  0  0  0  0
    2.2097   23.4473  -11.8940 C   0  0  0  0  0  0  0  0  0  0  0  0
    1.6706   24.1711  -12.7065 O   0  0  0  0  0  0  0  0  0  0  0  0
    2.6531   22.2009  -12.2907 O   0  0  0  0  0  0  0  0  0  0  0  0
    4.0126   22.0861  -12.6301 C   0  0  0  0  0  0  0  0  0  0  0  0
    4.3581   20.6827  -12.9513 C   0  0  0  0  0  0  0  0  0  0  0  0
   -1.9523   18.1586   -8.4031 N   0  0  0  0  0  0  0  0  0  0  0  0
   -1.5429   17.3659   -8.8193 H   0  0  0  0  0  0  0  0  0  0  0  0
   -2.9890   18.0103   -7.4197 C   0  0  0  0  0  0  0  0  0  0  0  0
   -2.4293   18.0124   -6.0224 C   0  0  0  0  0  0  0  0  0  0  0  0
   -5.2603   26.7834  -12.3881 C   0  0  0  0  0  0  0  0  0  0  0  0
   -5.9726   27.8930  -13.1366 C   0  0  0  0  0  0  0  0  0  0  0  0
  1  2  1  0  0  0
  1  6  2  0  0  0
  1  7  1  0  0  0
  2  3  1  0  0  0
  2 10  2  0  0  0
  3  4  2  0  0  0
  4  5  1  0  0  0
  4 16  1  0  0  0
  5  6  1  0  0  0
  5 17  2  0  0  0
  7  8  1  0  0  0
  8  9  2  0  0  0
  8 11  1  0  0  0
  9 10  1  0  0  0
  9 14  1  0  0  0
 10 19  1  0  0  0
 11 12  2  0  0  0
 12 13  1  0  0  0
 12 30  1  0  0  0
 13 14  2  0  0  0
 13 15  1  0  0  0
 30 32  1  0  0  0
 19 20  2  0  0  0
 19 24  1  0  0  0
 20 21  1  0  0  0
 21 22  2  0  0  0
 22 23  1  0  0  0
 23 24  2  0  0  0
 24 25  1  0  0  0
 32 33  1  0  0  0
 17 34  1  0  0  0
 34 35  1  0  0  0
 25 26  2  0  0  0
 25 27  1  0  0  0
 27 28  1  0  0  0
 28 29  1  0  0  0
 30 31  1  0  0  0
 17 18  1  0  0  0
M  CHG 1  17   1
M  END
> <minimizedAffinity>
-8.34841

$$$$
5KAX_RHQ_A_201


 35 38  0  0  0  0  0  0  0  0999 V2000
   -4.5885   28.6702  -14.1164 C   0  0  0  0  0  0  0  0  0  0  0  0
   -3.5470   29.1386  -14.9441 C   0  0  0  0  0  0  0  0  0  0  0  0
   -3.8346   30.1574  -15.8672 C   0  0  0  0  0  0  0  0  0  0  0  0
   -5.1259   30.7192  -15.9862 C   0  0  0  0  0  0  0  0  0  0  0  0
   -6.1631   30.2668  -15.1657 C   0  0  0  0  0  0  0  0  0  0  0  0
   -5.8958   29.2422  -14.2348 C   0  0  0  0  0  0  0  0  0  0  0  0
   -4.3367   27.6685  -13.1964 O   0  0  0  0  0  0  0  0  0  0  0  0
   -3.0985   27.0974  -13.0456 C   0  0  0  0  0  0  0  0  0  0  0  0
   -2.0103   27.5068  -13.8315 C   0  0  0  0  0  0  0  0  0  0  0  0
   -2.1920   28.5574  -14.8298 C   0  0  0  0  0  0  0  0  0  0  0  0
   -2.9228   26.0708  -12.0854 C   0  0  0  0  0  0  0  0  0  0  0  0
   -1.6637   25.4830  -11.9152 C   0  0  0  0  0  0  0  0  0  0  0  0
   -0.6108   25.8906  -12.6792 C   0  0  0  0  0  0  0  0  0  0  0  0
   -0.7591   26.8877  -13.6421 C   0  0  0  0  0  0  0  0  0  0  0  0
    0.7071   25.2472  -12.4655 C   0  0  0  0  0  0  0  0  0  0  0  0
   -5.3556   31.8210  -17.0092 C   0  0  0  0  0  0  0  0  0  0  0  0
   -7.4960   30.8604  -15.3132 N   0  0  0  0  0  0  0  0  0  0  0  0
   -7.7320   31.3121  -16.1555 H   0  0  0  0  0  0  0  0  0  0  0  0
   -1.0629   29.0940  -15.7390 C   0  0  0  0  0  0  0  0  0  0  0  0
   -0.2938   30.3269  -15.3065 C   0  0  0  0  0  0  0  0  0  0  0  0
    0.7584   30.8459  -16.0742 C   0  0  0  0  0  0  0  0  0  0  0  0
    1.1475   30.1738  -17.3643 C   0  0  0  0  0  0  0  0  0  0  0  0
    0.4740   29.0457  -17.7763 C   0  0  0  0  0  0  0  0  0  0  0  0
   -0.6682   28.4837  -16.9357 C   0  0  0  0  0  0  0  0  0  0  0  0
   -1.3327   27.2396  -17.4928 C   0  0  0  0  0  0  0  0  0  0  0  0
   -0.6913   26.2188  -17.6390 O   0  0  0  0  0  0  0  0  0  0  0  0
   -2.6673   27.2541  -17.8483 O   0  0  0  0  0  0  0  0  0  0  0  0
   -2.9662   27.5430  -19.1912 C   0  0  0  0  0  0  0  0  0  0  0  0
   -3.4749   28.9263  -19.3314 C   0  0  0  0  0  0  0  0  0  0  0  0
   -1.4314   24.4224  -10.9325 N   0  0  0  0  0  0  0  0  0  0  0  0
   -0.5152   24.1889  -10.6580 H   0  0  0  0  0  0  0  0  0  0  0  0
   -2.5577   23.7270  -10.3743 C   0  0  0  0  0  0  0  0  0  0  0  0
   -2.1899   23.0113   -9.1023 C   0  0  0  0  0  0  0  0  0  0  0  0
   -8.4788   30.7954  -14.2385 C   0  0  0  0  0  0  0  0  0  0  0  0
   -9.7396   31.5425  -14.6269 C   0  0  0  0  0  0  0  0  0  0  0  0
  1  2  1  0  0  0
  1  6  2  0  0  0
  1  7  1  0  0  0
  2  3  1  0  0  0
  2 10  2  0  0  0
  3  4  2  0  0  0
  4  5  1  0  0  0
  4 16  1  0  0  0
  5  6  1  0  0  0
  5 17  2  0  0  0
  7  8  1  0  0  0
  8  9  2  0  0  0
  8 11  1  0  0  0
  9 10  1  0  0  0
  9 14  1  0  0  0
 10 19  1  0  0  0
 11 12  2  0  0  0
 12 13  1  0  0  0
 12 30  1  0  0  0
 13 14  2  0  0  0
 13 15  1  0  0  0
 30 32  1  0  0  0
 19 20  2  0  0  0
 19 24  1  0  0  0
 20 21  1  0  0  0
 21 22  2  0  0  0
 22 23  1  0  0  0
 23 24  2  0  0  0
 24 25  1  0  0  0
 32 33  1  0  0  0
 17 34  1  0  0  0
 34 35  1  0  0  0
 25 26  2  0  0  0
 25 27  1  0  0  0
 27 28  1  0  0  0
 28 29  1  0  0  0
 30 31  1  0  0  0
 17 18  1  0  0  0
M  CHG 1  17   1
M  END
> <minimizedAffinity>
-7.87868

$$$$
5KAX_RHQ_A_201


 35 38  0  0  0  0  0  0  0  0999 V2000
   -5.2406   29.7702  -15.0720 C   0  0  0  0  0  0  0  0  0  0  0  0
   -4.3047   30.1635  -16.0510 C   0  0  0  0  0  0  0  0  0  0  0  0
   -4.7031   31.1026  -17.0165 C   0  0  0  0  0  0  0  0  0  0  0  0
   -6.0027   31.6576  -17.0316 C   0  0  0  0  0  0  0  0  0  0  0  0
   -6.9353   31.2796  -16.0616 C   0  0  0  0  0  0  0  0  0  0  0  0
   -6.5560   30.3355  -15.0855 C   0  0  0  0  0  0  0  0  0  0  0  0
   -4.8781   28.8480  -14.1068 O   0  0  0  0  0  0  0  0  0  0  0  0
   -3.6275   28.2867  -14.0534 C   0  0  0  0  0  0  0  0  0  0  0  0
   -2.6400   28.6245  -14.9916 C   0  0  0  0  0  0  0  0  0  0  0  0
   -2.9422   29.5885  -16.0464 C   0  0  0  0  0  0  0  0  0  0  0  0
   -3.3359   27.3434  -13.0375 C   0  0  0  0  0  0  0  0  0  0  0  0
   -2.0621   26.7669  -12.9659 C   0  0  0  0  0  0  0  0  0  0  0  0
   -1.1071   27.1050  -13.8782 C   0  0  0  0  0  0  0  0  0  0  0  0
   -1.3718   28.0185  -14.8973 C   0  0  0  0  0  0  0  0  0  0  0  0
    0.2303   26.4764  -13.7656 C   0  0  0  0  0  0  0  0  0  0  0  0
   -6.3557   32.6708  -18.1097 C   0  0  0  0  0  0  0  0  0  0  0  0
   -8.2797   31.8640  -16.1027 N   0  0  0  0  0  0  0  0  0  0  0  0
   -8.6142   32.2446  -16.9468 H   0  0  0  0  0  0  0  0  0  0  0  0
   -1.9291   30.0426  -17.1220 C   0  0  0  0  0  0  0  0  0  0  0  0
   -1.0478   31.2441  -16.8415 C   0  0  0  0  0  0  0  0  0  0  0  0
   -0.0915   31.6881  -17.7657 C   0  0  0  0  0  0  0  0  0  0  0  0
    0.0776   30.9648  -19.0756 C   0  0  0  0  0  0  0  0  0  0  0  0
   -0.7012   29.8636  -19.3525 C   0  0  0  0  0  0  0  0  0  0  0  0
   -1.7382   29.3831  -18.3422 C   0  0  0  0  0  0  0  0  0  0  0  0
   -2.5344   28.1619  -18.7602 C   0  0  0  0  0  0  0  0  0  0  0  0
   -3.4941   28.2813  -19.4946 O   0  0  0  0  0  0  0  0  0  0  0  0
   -2.1855   26.9052  -18.3056 O   0  0  0  0  0  0  0  0  0  0  0  0
   -1.0185   26.3342  -18.8427 C   0  0  0  0  0  0  0  0  0  0  0  0
   -0.0178   26.0845  -17.7805 C   0  0  0  0  0  0  0  0  0  0  0  0
   -1.7115   25.7914  -11.9315 N   0  0  0  0  0  0  0  0  0  0  0  0
   -1.7211   24.8274  -12.1314 H   0  0  0  0  0  0  0  0  0  0  0  0
   -1.3533   26.2592  -10.6214 C   0  0  0  0  0  0  0  0  0  0  0  0
   -0.3118   25.3778   -9.9857 C   0  0  0  0  0  0  0  0  0  0  0  0
   -9.1310   31.8931  -14.9197 C   0  0  0  0  0  0  0  0  0  0  0  0
  -10.5695   31.5940  -15.2939 C   0  0  0  0  0  0  0  0  0  0  0  0
  1  2  1  0  0  0
  1  6  2  0  0  0
  1  7  1  0  0  0
  2  3  1  0  0  0
  2 10  2  0  0  0
  3  4  2  0  0  0
  4  5  1  0  0  0
  4 16  1  0  0  0
  5  6  1  0  0  0
  5 17  2  0  0  0
  7  8  1  0  0  0
  8  9  2  0  0  0
  8 11  1  0  0  0
  9 10  1  0  0  0
  9 14  1  0  0  0
 10 19  1  0  0  0
 11 12  2  0  0  0
 12 13  1  0  0  0
 12 30  1  0  0  0
 13 14  2  0  0  0
 13 15  1  0  0  0
 30 32  1  0  0  0
 19 20  2  0  0  0
 19 24  1  0  0  0
 20 21  1  0  0  0
 21 22  2  0  0  0
 22 23  1  0  0  0
 23 24  2  0  0  0
 24 25  1  0  0  0
 32 33  1  0  0  0
 17 34  1  0  0  0
 34 35  1  0  0  0
 25 26  2  0  0  0
 25 27  1  0  0  0
 27 28  1  0  0  0
 28 29  1  0  0  0
 30 31  1  0  0  0
 17 18  1  0  0  0
M  CHG 1  17   1
M  END
> <minimizedAffinity>
-7.37903

$$$$
5KAX_RHQ_A_201


 35 38  0  0  0  0  0  0  0  0999 V2000
   -4.9391   29.6379  -14.9274 C   0  0  0  0  0  0  0  0  0  0  0  0
   -4.0282   29.6190  -16.0040 C   0  0  0  0  0  0  0  0  0  0  0  0
   -4.3529   30.3383  -17.1660 C   0  0  0  0  0  0  0  0  0  0  0  0
   -5.5548   31.0725  -17.2825 C   0  0  0  0  0  0  0  0  0  0  0  0
   -6.4608   31.1032  -16.2186 C   0  0  0  0  0  0  0  0  0  0  0  0
   -6.1550   30.3849  -15.0445 C   0  0  0  0  0  0  0  0  0  0  0  0
   -4.6475   28.9406  -13.7690 O   0  0  0  0  0  0  0  0  0  0  0  0
   -3.4920   28.2178  -13.6123 C   0  0  0  0  0  0  0  0  0  0  0  0
   -2.5355   28.1478  -14.6368 C   0  0  0  0  0  0  0  0  0  0  0  0
   -2.7679   28.8532  -15.8945 C   0  0  0  0  0  0  0  0  0  0  0  0
   -3.2698   27.5242  -12.3972 C   0  0  0  0  0  0  0  0  0  0  0  0
   -2.0925   26.7878  -12.2198 C   0  0  0  0  0  0  0  0  0  0  0  0
   -1.1661   26.7298  -13.2182 C   0  0  0  0  0  0  0  0  0  0  0  0
   -1.3663   27.3898  -14.4297 C   0  0  0  0  0  0  0  0  0  0  0  0
    0.0694   25.9437  -12.9899 C   0  0  0  0  0  0  0  0  0  0  0  0
   -5.8319   31.8270  -18.5737 C   0  0  0  0  0  0  0  0  0  0  0  0
   -7.7045   31.8661  -16.3664 N   0  0  0  0  0  0  0  0  0  0  0  0
   -8.0392   32.0721  -17.2690 H   0  0  0  0  0  0  0  0  0  0  0  0
   -1.7789   28.8558  -17.0825 C   0  0  0  0  0  0  0  0  0  0  0  0
   -1.9165   27.7943  -18.1562 C   0  0  0  0  0  0  0  0  0  0  0  0
   -1.0675   27.7601  -19.2715 C   0  0  0  0  0  0  0  0  0  0  0  0
    0.0143   28.7967  -19.4223 C   0  0  0  0  0  0  0  0  0  0  0  0
    0.1554   29.7795  -18.4683 C   0  0  0  0  0  0  0  0  0  0  0  0
   -0.7729   29.8137  -17.2583 C   0  0  0  0  0  0  0  0  0  0  0  0
   -0.5193   30.9421  -16.2774 C   0  0  0  0  0  0  0  0  0  0  0  0
    0.3857   30.8585  -15.4720 O   0  0  0  0  0  0  0  0  0  0  0  0
   -1.3165   32.0700  -16.2811 O   0  0  0  0  0  0  0  0  0  0  0  0
   -1.0601   33.0287  -17.2769 C   0  0  0  0  0  0  0  0  0  0  0  0
   -2.2104   33.1481  -18.2011 C   0  0  0  0  0  0  0  0  0  0  0  0
   -1.8154   26.0587  -10.9803 N   0  0  0  0  0  0  0  0  0  0  0  0
   -1.4427   26.5273  -10.1988 H   0  0  0  0  0  0  0  0  0  0  0  0
   -2.0944   24.6508  -10.9197 C   0  0  0  0  0  0  0  0  0  0  0  0
   -3.5731   24.3840  -10.8306 C   0  0  0  0  0  0  0  0  0  0  0  0
   -8.4554   32.3258  -15.2046 C   0  0  0  0  0  0  0  0  0  0  0  0
   -9.7855   31.6039  -15.1131 C   0  0  0  0  0  0  0  0  0  0  0  0
  1  2  1  0  0  0
  1  6  2  0  0  0
  1  7  1  0  0  0
  2  3  1  0  0  0
  2 10  2  0  0  0
  3  4  2  0  0  0
  4  5  1  0  0  0
  4 16  1  0  0  0
  5  6  1  0  0  0
  5 17  2  0  0  0
  7  8  1  0  0  0
  8  9  2  0  0  0
  8 11  1  0  0  0
  9 10  1  0  0  0
  9 14  1  0  0  0
 10 19  1  0  0  0
 11 12  2  0  0  0
 12 13  1  0  0  0
 12 30  1  0  0  0
 13 14  2  0  0  0
 13 15  1  0  0  0
 30 32  1  0  0  0
 19 20  2  0  0  0
 19 24  1  0  0  0
 20 21  1  0  0  0
 21 22  2  0  0  0
 22 23  1  0  0  0
 23 24  2  0  0  0
 24 25  1  0  0  0
 32 33  1  0  0  0
 17 34  1  0  0  0
 34 35  1  0  0  0
 25 26  2  0  0  0
 25 27  1  0  0  0
 27 28  1  0  0  0
 28 29  1  0  0  0
 30 31  1  0  0  0
 17 18  1  0  0  0
M  CHG 1  17   1
M  END
> <minimizedAffinity>
-7.22603

$$$$
5KAX_RHQ_A_201


 35 38  0  0  0  0  0  0  0  0999 V2000
   -0.0446   24.5137  -11.9604 C   0  0  0  0  0  0  0  0  0  0  0  0
    0.5990   23.6589  -11.0415 C   0  0  0  0  0  0  0  0  0  0  0  0
   -0.1730   23.0623  -10.0310 C   0  0  0  0  0  0  0  0  0  0  0  0
   -1.5622   23.2935   -9.9131 C   0  0  0  0  0  0  0  0  0  0  0  0
   -2.2105   24.1334  -10.8229 C   0  0  0  0  0  0  0  0  0  0  0  0
   -1.4528   24.7447  -11.8428 C   0  0  0  0  0  0  0  0  0  0  0  0
    0.6880   25.1153  -12.9677 O   0  0  0  0  0  0  0  0  0  0  0  0
    2.0368   24.9165  -13.1206 C   0  0  0  0  0  0  0  0  0  0  0  0
    2.7506   24.0816  -12.2472 C   0  0  0  0  0  0  0  0  0  0  0  0
    2.0524   23.4105  -11.1539 C   0  0  0  0  0  0  0  0  0  0  0  0
    2.7177   25.5751  -14.1739 C   0  0  0  0  0  0  0  0  0  0  0  0
    4.0927   25.3771  -14.3468 C   0  0  0  0  0  0  0  0  0  0  0  0
    4.7773   24.5600  -13.4971 C   0  0  0  0  0  0  0  0  0  0  0  0
    4.1353   23.9118  -12.4430 C   0  0  0  0  0  0  0  0  0  0  0  0
    6.2310   24.3724  -13.7164 C   0  0  0  0  0  0  0  0  0  0  0  0
   -2.3278   22.6078   -8.7920 C   0  0  0  0  0  0  0  0  0  0  0  0
   -3.6513   24.3634  -10.6753 N   0  0  0  0  0  0  0  0  0  0  0  0
   -4.0776   24.2056   -9.8020 H   0  0  0  0  0  0  0  0  0  0  0  0
    2.7349   22.4610  -10.1429 C   0  0  0  0  0  0  0  0  0  0  0  0
    3.1058   21.0591  -10.5854 C   0  0  0  0  0  0  0  0  0  0  0  0
    3.7506   20.1607   -9.7234 C   0  0  0  0  0  0  0  0  0  0  0  0
    4.0906   20.5828   -8.3185 C   0  0  0  0  0  0  0  0  0  0  0  0
    3.7758   21.8538   -7.8927 C   0  0  0  0  0  0  0  0  0  0  0  0
    3.0768   22.8282   -8.8357 C   0  0  0  0  0  0  0  0  0  0  0  0
    2.7821   24.1968   -8.2529 C   0  0  0  0  0  0  0  0  0  0  0  0
    1.9187   24.3276   -7.4091 O   0  0  0  0  0  0  0  0  0  0  0  0
    3.4821   25.3086   -8.6792 O   0  0  0  0  0  0  0  0  0  0  0  0
    4.8811   25.1918   -8.7522 C   0  0  0  0  0  0  0  0  0  0  0  0
    5.4323   26.1026   -9.7811 C   0  0  0  0  0  0  0  0  0  0  0  0
    4.8392   26.0314  -15.4235 N   0  0  0  0  0  0  0  0  0  0  0  0
    5.6693   26.5232  -15.2273 H   0  0  0  0  0  0  0  0  0  0  0  0
    4.3447   25.9465  -16.7695 C   0  0  0  0  0  0  0  0  0  0  0  0
    4.8043   24.6840  -17.4482 C   0  0  0  0  0  0  0  0  0  0  0  0
   -4.4654   24.8208  -11.7947 C   0  0  0  0  0  0  0  0  0  0  0  0
   -4.7978   26.2922  -11.6424 C   0  0  0  0  0  0  0  0  0  0  0  0
  1  2  1  0  0  0
  1  6  2  0  0  0
  1  7  1  0  0  0
  2  3  1  0  0  0
  2 10  2  0  0  0
  3  4  2  0  0  0
  4  5  1  0  0  0
  4 16  1  0  0  0
  5  6  1  0  0  0
  5 17  2  0  0  0
  7  8  1  0  0  0
  8  9  2  0  0  0
  8 11  1  0  0  0
  9 10  1  0  0  0
  9 14  1  0  0  0
 10 19  1  0  0  0
 11 12  2  0  0  0
 12 13  1  0  0  0
 12 30  1  0  0  0
 13 14  2  0  0  0
 13 15  1  0  0  0
 30 32  1  0  0  0
 19 20  2  0  0  0
 19 24  1  0  0  0
 20 21  1  0  0  0
 21 22  2  0  0  0
 22 23  1  0  0  0
 23 24  2  0  0  0
 24 25  1  0  0  0
 32 33  1  0  0  0
 17 34  1  0  0  0
 34 35  1  0  0  0
 25 26  2  0  0  0
 25 27  1  0  0  0
 27 28  1  0  0  0
 28 29  1  0  0  0
 30 31  1  0  0  0
 17 18  1  0  0  0
M  CHG 1  17   1
M  END
> <minimizedAffinity>
-7.22264

$$$$
