1FCY_564_A_450


 30 33  0  0  0  0  0  0  0  0999 V2000
   40.0162   13.8725   84.2812 C   0  0  0  0  0  0  0  0  0  0  0  0
   39.6133   12.6822   84.3955 O   0  0  0  0  0  0  0  0  0  0  0  0
   42.7476   13.7997   81.7322 C   0  0  0  0  0  0  0  0  0  0  0  0
   43.0311   13.0517   80.4383 C   0  0  0  0  0  0  0  0  0  0  0  0
   44.4436   13.2973   79.9471 C   0  0  0  0  0  0  0  0  0  0  0  0
   44.9624   14.6635   80.1440 C   0  0  0  0  0  0  0  0  0  0  0  0
   44.9515   15.1161   81.5811 C   0  0  0  0  0  0  0  0  0  0  0  0
   43.6168   14.7509   82.2724 C   0  0  0  0  0  0  0  0  0  0  0  0
   42.0288   13.5572   79.3902 C   0  0  0  0  0  0  0  0  0  0  0  0
   42.8945   11.5596   80.6376 C   0  0  0  0  0  0  0  0  0  0  0  0
   45.0447   16.6270   81.4434 C   0  0  0  0  0  0  0  0  0  0  0  0
   46.1153   14.5981   82.4399 C   0  0  0  0  0  0  0  0  0  0  0  0
   41.2483   14.1846   83.6104 C   0  0  0  0  0  0  0  0  0  0  0  0
   41.5650   13.5240   82.4101 C   0  0  0  0  0  0  0  0  0  0  0  0
   43.3070   15.4050   83.4625 C   0  0  0  0  0  0  0  0  0  0  0  0
   42.1632   15.1108   84.0871 C   0  0  0  0  0  0  0  0  0  0  0  0
   35.6295   17.4377   87.6022 C   0  0  0  0  0  0  0  0  0  0  0  0
   35.6457   16.1073   88.1431 C   0  0  0  0  0  0  0  0  0  0  0  0
   36.5247   15.1840   87.5886 C   0  0  0  0  0  0  0  0  0  0  0  0
   37.3783   15.5244   86.5069 C   0  0  0  0  0  0  0  0  0  0  0  0
   37.3511   16.8220   85.9997 C   0  0  0  0  0  0  0  0  0  0  0  0
   36.4792   17.7801   86.5474 C   0  0  0  0  0  0  0  0  0  0  0  0
   38.2605   14.5771   85.9265 C   0  0  0  0  0  0  0  0  0  0  0  0
   39.1144   14.8934   84.8759 C   0  0  0  0  0  0  0  0  0  0  0  0
   39.0441   16.2211   84.3932 C   0  0  0  0  0  0  0  0  0  0  0  0
   38.1943   17.1646   84.9307 C   0  0  0  0  0  0  0  0  0  0  0  0
   34.7152   18.3999   88.1955 C   0  0  0  0  0  0  0  0  0  0  0  0
   33.6280   18.0289   88.5300 O   0  0  0  0  0  0  0  0  0  0  0  0
   35.1428   19.6233   88.3108 O   0  0  0  0  0  0  0  0  0  0  0  0
   36.0079   19.8458   88.0279 H   0  0  0  0  0  0  0  0  0  0  0  0
 27 17  1  0  0  0
 27 28  2  0  0  0
 27 29  1  0  0  0
 17 18  2  0  0  0
 17 22  1  0  0  0
 18 19  1  0  0  0
 19 20  2  0  0  0
 20 21  1  0  0  0
 20 23  1  0  0  0
 21 22  2  0  0  0
 21 26  1  0  0  0
  3  4  1  0  0  0
  3  8  2  0  0  0
  3 14  1  0  0  0
  4  5  1  0  0  0
  4  9  1  0  0  0
  4 10  1  0  0  0
  5  6  1  0  0  0
  6  7  1  0  0  0
  7  8  1  0  0  0
  7 11  1  0  0  0
  7 12  1  0  0  0
  8 15  1  0  0  0
 23 24  2  0  0  0
 24 25  1  0  0  0
 24  1  1  0  0  0
 25 26  2  0  0  0
 13 14  2  0  0  0
 13 16  1  0  0  0
 13  1  1  0  0  0
 15 16  2  0  0  0
  1  2  2  0  0  0
 29 30  1  0  0  0
M  END
> <minimizedAffinity>
-16.05708

$$$$
1FCY_564_A_450


 30 33  0  0  0  0  0  0  0  0999 V2000
   40.2341   13.7592   84.6554 C   0  0  0  0  0  0  0  0  0  0  0  0
   40.1956   12.6898   85.3241 O   0  0  0  0  0  0  0  0  0  0  0  0
   42.8154   15.2488   82.4011 C   0  0  0  0  0  0  0  0  0  0  0  0
   43.6602   16.5135   82.3735 C   0  0  0  0  0  0  0  0  0  0  0  0
   44.3916   16.6700   81.0555 C   0  0  0  0  0  0  0  0  0  0  0  0
   44.8999   15.4241   80.4523 C   0  0  0  0  0  0  0  0  0  0  0  0
   43.8319   14.3917   80.2001 C   0  0  0  0  0  0  0  0  0  0  0  0
   42.8804   14.2634   81.4129 C   0  0  0  0  0  0  0  0  0  0  0  0
   44.6806   16.4053   83.5162 C   0  0  0  0  0  0  0  0  0  0  0  0
   42.7959   17.7424   82.5385 C   0  0  0  0  0  0  0  0  0  0  0  0
   44.6446   13.1140   80.0665 C   0  0  0  0  0  0  0  0  0  0  0  0
   42.9945   14.6120   78.9310 C   0  0  0  0  0  0  0  0  0  0  0  0
   41.1301   13.9142   83.5425 C   0  0  0  0  0  0  0  0  0  0  0  0
   41.9360   15.0639   83.4625 C   0  0  0  0  0  0  0  0  0  0  0  0
   42.0815   13.1248   81.4879 C   0  0  0  0  0  0  0  0  0  0  0  0
   41.2460   12.9841   82.5209 C   0  0  0  0  0  0  0  0  0  0  0  0
   35.5741   17.4916   87.3641 C   0  0  0  0  0  0  0  0  0  0  0  0
   35.5526   16.2002   87.9923 C   0  0  0  0  0  0  0  0  0  0  0  0
   36.4783   15.2513   87.5739 C   0  0  0  0  0  0  0  0  0  0  0  0
   37.4156   15.5279   86.5446 C   0  0  0  0  0  0  0  0  0  0  0  0
   37.4235   16.7887   85.9511 C   0  0  0  0  0  0  0  0  0  0  0  0
   36.5053   17.7720   86.3611 C   0  0  0  0  0  0  0  0  0  0  0  0
   38.3468   14.5533   86.1023 C   0  0  0  0  0  0  0  0  0  0  0  0
   39.2819   14.8080   85.1055 C   0  0  0  0  0  0  0  0  0  0  0  0
   39.2448   16.1000   84.5309 C   0  0  0  0  0  0  0  0  0  0  0  0
   38.3494   17.0683   84.9334 C   0  0  0  0  0  0  0  0  0  0  0  0
   34.6098   18.4816   87.8156 C   0  0  0  0  0  0  0  0  0  0  0  0
   34.7458   19.6176   87.4658 O   0  0  0  0  0  0  0  0  0  0  0  0
   33.6567   18.0609   88.5949 O   0  0  0  0  0  0  0  0  0  0  0  0
   33.6092   17.1551   88.8300 H   0  0  0  0  0  0  0  0  0  0  0  0
 27 17  1  0  0  0
 27 28  2  0  0  0
 27 29  1  0  0  0
 17 18  2  0  0  0
 17 22  1  0  0  0
 18 19  1  0  0  0
 19 20  2  0  0  0
 20 21  1  0  0  0
 20 23  1  0  0  0
 21 22  2  0  0  0
 21 26  1  0  0  0
  3  4  1  0  0  0
  3  8  2  0  0  0
  3 14  1  0  0  0
  4  5  1  0  0  0
  4  9  1  0  0  0
  4 10  1  0  0  0
  5  6  1  0  0  0
  6  7  1  0  0  0
  7  8  1  0  0  0
  7 11  1  0  0  0
  7 12  1  0  0  0
  8 15  1  0  0  0
 23 24  2  0  0  0
 24 25  1  0  0  0
 24  1  1  0  0  0
 25 26  2  0  0  0
 13 14  2  0  0  0
 13 16  1  0  0  0
 13  1  1  0  0  0
 15 16  2  0  0  0
  1  2  2  0  0  0
 29 30  1  0  0  0
M  END
> <minimizedAffinity>
-14.95237

$$$$
1FCY_564_A_450


 30 33  0  0  0  0  0  0  0  0999 V2000
   41.3324   15.7648   84.6239 C   0  0  0  0  0  0  0  0  0  0  0  0
   42.0970   16.6022   85.1775 O   0  0  0  0  0  0  0  0  0  0  0  0
   43.4728   14.4929   81.8375 C   0  0  0  0  0  0  0  0  0  0  0  0
   44.8081   14.8663   81.2117 C   0  0  0  0  0  0  0  0  0  0  0  0
   45.0643   14.0920   79.9344 C   0  0  0  0  0  0  0  0  0  0  0  0
   44.6099   12.6892   79.9329 C   0  0  0  0  0  0  0  0  0  0  0  0
   43.1385   12.5271   80.2138 C   0  0  0  0  0  0  0  0  0  0  0  0
   42.6922   13.4226   81.3935 C   0  0  0  0  0  0  0  0  0  0  0  0
   45.9012   14.5366   82.2389 C   0  0  0  0  0  0  0  0  0  0  0  0
   44.8397   16.3321   80.8442 C   0  0  0  0  0  0  0  0  0  0  0  0
   43.0497   11.0688   80.6333 C   0  0  0  0  0  0  0  0  0  0  0  0
   42.2108   12.7824   79.0159 C   0  0  0  0  0  0  0  0  0  0  0  0
   41.7798   14.9556   83.5237 C   0  0  0  0  0  0  0  0  0  0  0  0
   43.0066   15.2536   82.9044 C   0  0  0  0  0  0  0  0  0  0  0  0
   41.4753   13.1267   82.0032 C   0  0  0  0  0  0  0  0  0  0  0  0
   41.0588   13.8824   83.0232 C   0  0  0  0  0  0  0  0  0  0  0  0
   35.4433   16.6398   87.3691 C   0  0  0  0  0  0  0  0  0  0  0  0
   36.0692   17.9219   87.2039 C   0  0  0  0  0  0  0  0  0  0  0  0
   37.3304   17.9662   86.6208 C   0  0  0  0  0  0  0  0  0  0  0  0
   38.0027   16.7862   86.2088 C   0  0  0  0  0  0  0  0  0  0  0  0
   37.3762   15.5523   86.3731 C   0  0  0  0  0  0  0  0  0  0  0  0
   36.0961   15.4776   86.9509 C   0  0  0  0  0  0  0  0  0  0  0  0
   39.2986   16.8286   85.6329 C   0  0  0  0  0  0  0  0  0  0  0  0
   39.9688   15.6863   85.2101 C   0  0  0  0  0  0  0  0  0  0  0  0
   39.2931   14.4589   85.4045 C   0  0  0  0  0  0  0  0  0  0  0  0
   38.0361   14.3819   85.9661 C   0  0  0  0  0  0  0  0  0  0  0  0
   34.1197   16.6037   87.9696 C   0  0  0  0  0  0  0  0  0  0  0  0
   33.5813   17.6383   88.2365 O   0  0  0  0  0  0  0  0  0  0  0  0
   33.6079   15.4287   88.1938 O   0  0  0  0  0  0  0  0  0  0  0  0
   34.0852   14.6573   87.9593 H   0  0  0  0  0  0  0  0  0  0  0  0
 27 17  1  0  0  0
 27 28  2  0  0  0
 27 29  1  0  0  0
 17 18  2  0  0  0
 17 22  1  0  0  0
 18 19  1  0  0  0
 19 20  2  0  0  0
 20 21  1  0  0  0
 20 23  1  0  0  0
 21 22  2  0  0  0
 21 26  1  0  0  0
  3  4  1  0  0  0
  3  8  2  0  0  0
  3 14  1  0  0  0
  4  5  1  0  0  0
  4  9  1  0  0  0
  4 10  1  0  0  0
  5  6  1  0  0  0
  6  7  1  0  0  0
  7  8  1  0  0  0
  7 11  1  0  0  0
  7 12  1  0  0  0
  8 15  1  0  0  0
 23 24  2  0  0  0
 24 25  1  0  0  0
 24  1  1  0  0  0
 25 26  2  0  0  0
 13 14  2  0  0  0
 13 16  1  0  0  0
 13  1  1  0  0  0
 15 16  2  0  0  0
  1  2  2  0  0  0
 29 30  1  0  0  0
M  END
> <minimizedAffinity>
-13.86769

$$$$
