1OS0_0PQ_A_605


 40 42  0  0  0  0  0  0  0  0999 V2000
   34.4600   41.1826   -7.3612 C   0  0  0  0  0  0  0  0  0  0  0  0
   35.1784   41.9784   -6.2641 C   0  0  0  0  0  0  0  0  0  0  0  0
   34.9974   43.1773   -6.0729 O   0  0  0  0  0  0  0  0  0  0  0  0
   35.9927   41.2665   -5.5217 N   0  0  0  0  0  0  0  0  0  0  0  0
   35.9925   40.3102   -5.7558 H   0  0  0  0  0  0  0  0  0  0  0  0
   36.8917   41.5846   -4.4321 C   0  0  0  0  0  0  0  0  0  0  0  0
   37.7479   40.3443   -4.1644 C   0  0  0  0  0  0  0  0  0  0  0  0
   38.8837   40.4967   -3.7217 O   0  0  0  0  0  0  0  0  0  0  0  0
   37.2551   39.2292   -4.4164 O   0  0  0  0  0  0  0  0  0  0  0  0
   36.3829   39.1677   -4.7532 H   0  0  0  0  0  0  0  0  0  0  0  0
   36.0466   41.9581   -3.2465 C   0  0  0  0  0  0  0  0  0  0  0  0
   36.5533   42.4047   -1.9151 C   0  0  0  0  0  0  0  0  0  0  0  0
   36.5585   41.5607   -0.8231 C   0  0  0  0  0  0  0  0  0  0  0  0
   37.0563   43.6898   -1.7513 C   0  0  0  0  0  0  0  0  0  0  0  0
   37.0446   41.9448    0.4141 C   0  0  0  0  0  0  0  0  0  0  0  0
   37.5416   44.0952   -0.5229 C   0  0  0  0  0  0  0  0  0  0  0  0
   37.5419   43.2283    0.5587 C   0  0  0  0  0  0  0  0  0  0  0  0
   34.0095   39.7641   -6.9607 C   0  0  0  0  0  0  0  0  0  0  0  0
   34.9563   38.4364   -7.6213 P   0  0  0  0  0  0  0  0  0  0  0  0
   36.1502   38.1611   -6.7569 O   0  0  0  0  0  0  0  0  0  0  0  0
   35.4650   38.7297   -8.9762 O   0  0  0  0  0  0  0  0  0  0  0  0
   35.9790   37.9732   -9.2994 H   0  0  0  0  0  0  0  0  0  0  0  0
   34.2175   35.9648   -7.1243 N   0  0  0  0  0  0  0  0  0  0  0  0
   33.7200   37.2443   -7.6779 C   0  0  0  0  0  0  0  0  0  0  0  0
   35.1466   35.7712   -7.4978 H   0  0  0  0  0  0  0  0  0  0  0  0
   33.5819   35.2112   -7.3860 H   0  0  0  0  0  0  0  0  0  0  0  0
   32.4023   37.3326   -7.0287 C   0  0  0  0  0  0  0  0  0  0  0  0
   31.2501   37.4803   -8.0169 C   0  0  0  0  0  0  0  0  0  0  0  0
   30.2106   36.5403   -7.9621 C   0  0  0  0  0  0  0  0  0  0  0  0
   31.2456   38.4822   -8.9638 C   0  0  0  0  0  0  0  0  0  0  0  0
   29.1847   36.7094   -8.8970 C   0  0  0  0  0  0  0  0  0  0  0  0
   30.2286   38.6308   -9.8079 C   0  0  0  0  0  0  0  0  0  0  0  0
   29.1670   37.7496   -9.8148 C   0  0  0  0  0  0  0  0  0  0  0  0
   33.2541   41.9628   -7.9125 C   0  0  0  0  0  0  0  0  0  0  0  0
   33.2523   42.2064   -9.4054 C   0  0  0  0  0  0  0  0  0  0  0  0
   33.5007   43.4664   -9.9276 C   0  0  0  0  0  0  0  0  0  0  0  0
   33.0260   41.1489  -10.2708 C   0  0  0  0  0  0  0  0  0  0  0  0
   33.4923   43.6941  -11.2896 C   0  0  0  0  0  0  0  0  0  0  0  0
   32.9873   41.3721  -11.6326 C   0  0  0  0  0  0  0  0  0  0  0  0
   33.2391   42.6358  -12.1415 C   0  0  0  0  0  0  0  0  0  0  0  0
 23 24  1  0  0  0
 24 19  1  0  0  0
 24 27  1  0  0  0
 19 20  2  0  0  0
 19 21  1  0  0  0
 27 28  1  0  0  0
 28 29  2  0  0  0
 28 30  1  0  0  0
 29 31  1  0  0  0
 30 32  2  0  0  0
 31 33  2  0  0  0
 32 33  1  0  0  0
 18  1  1  0  0  0
  1 34  1  0  0  0
  1  2  1  0  0  0
 34 35  1  0  0  0
 35 36  2  0  0  0
 35 37  1  0  0  0
 36 38  1  0  0  0
 37 39  2  0  0  0
 38 40  2  0  0  0
 39 40  1  0  0  0
  2  3  2  0  0  0
  4  6  1  0  0  0
  6  7  1  0  0  0
  6 11  1  0  0  0
  7  8  2  0  0  0
  7  9  1  0  0  0
 11 12  1  0  0  0
 12 13  2  0  0  0
 12 14  1  0  0  0
 13 15  1  0  0  0
 14 16  2  0  0  0
 15 17  2  0  0  0
 16 17  1  0  0  0
 19 18  1  0  0  0
  2  4  1  0  0  0
 23 25  1  0  0  0
 23 26  1  0  0  0
 21 22  1  0  0  0
  4  5  1  0  0  0
  9 10  1  0  0  0
M  END
> <minimizedAffinity>
-9.91380

$$$$
1OS0_0PQ_A_605


 40 42  0  0  0  0  0  0  0  0999 V2000
   34.4089   41.1051   -7.3560 C   0  0  0  0  0  0  0  0  0  0  0  0
   35.6303   41.7080   -6.6504 C   0  0  0  0  0  0  0  0  0  0  0  0
   36.4419   42.4370   -7.2131 O   0  0  0  0  0  0  0  0  0  0  0  0
   35.7293   41.4008   -5.3788 N   0  0  0  0  0  0  0  0  0  0  0  0
   34.9769   40.8557   -5.0533 H   0  0  0  0  0  0  0  0  0  0  0  0
   36.7072   41.6909   -4.3511 C   0  0  0  0  0  0  0  0  0  0  0  0
   37.5897   40.4504   -4.1916 C   0  0  0  0  0  0  0  0  0  0  0  0
   38.7372   40.5929   -3.7769 O   0  0  0  0  0  0  0  0  0  0  0  0
   37.1049   39.3457   -4.4989 O   0  0  0  0  0  0  0  0  0  0  0  0
   36.2229   39.2915   -4.8107 H   0  0  0  0  0  0  0  0  0  0  0  0
   35.9532   42.0172   -3.0925 C   0  0  0  0  0  0  0  0  0  0  0  0
   36.5577   42.4223   -1.7889 C   0  0  0  0  0  0  0  0  0  0  0  0
   37.1202   43.6698   -1.6092 C   0  0  0  0  0  0  0  0  0  0  0  0
   36.5472   41.5475   -0.7091 C   0  0  0  0  0  0  0  0  0  0  0  0
   37.6650   44.0756   -0.4038 C   0  0  0  0  0  0  0  0  0  0  0  0
   37.0909   41.9310    0.5018 C   0  0  0  0  0  0  0  0  0  0  0  0
   37.6456   43.1913    0.6607 C   0  0  0  0  0  0  0  0  0  0  0  0
   33.9037   39.7695   -6.7760 C   0  0  0  0  0  0  0  0  0  0  0  0
   34.6752   38.3153   -7.3971 P   0  0  0  0  0  0  0  0  0  0  0  0
   33.8714   37.1006   -7.0410 O   0  0  0  0  0  0  0  0  0  0  0  0
   36.0273   38.1150   -6.8380 O   0  0  0  0  0  0  0  0  0  0  0  0
   36.4129   37.3049   -7.2068 H   0  0  0  0  0  0  0  0  0  0  0  0
   36.1121   38.4840   -9.5899 N   0  0  0  0  0  0  0  0  0  0  0  0
   34.7595   38.7588   -9.0550 C   0  0  0  0  0  0  0  0  0  0  0  0
   36.8134   38.8119   -8.9257 H   0  0  0  0  0  0  0  0  0  0  0  0
   36.2316   38.9705  -10.4784 H   0  0  0  0  0  0  0  0  0  0  0  0
   33.9199   38.2226  -10.1380 C   0  0  0  0  0  0  0  0  0  0  0  0
   32.8324   39.1892  -10.5951 C   0  0  0  0  0  0  0  0  0  0  0  0
   32.9522   39.7604  -11.8705 C   0  0  0  0  0  0  0  0  0  0  0  0
   31.7823   39.5255   -9.7677 C   0  0  0  0  0  0  0  0  0  0  0  0
   31.9385   40.6503  -12.2384 C   0  0  0  0  0  0  0  0  0  0  0  0
   30.8174   40.3456  -10.1741 C   0  0  0  0  0  0  0  0  0  0  0  0
   30.8610   40.9454  -11.4159 C   0  0  0  0  0  0  0  0  0  0  0  0
   33.2455   42.1104   -7.4063 C   0  0  0  0  0  0  0  0  0  0  0  0
   33.0662   42.8473   -8.7151 C   0  0  0  0  0  0  0  0  0  0  0  0
   31.9924   43.7006   -8.9174 C   0  0  0  0  0  0  0  0  0  0  0  0
   34.0041   42.6909   -9.7222 C   0  0  0  0  0  0  0  0  0  0  0  0
   31.8213   44.3691  -10.1135 C   0  0  0  0  0  0  0  0  0  0  0  0
   33.8266   43.3325  -10.9317 C   0  0  0  0  0  0  0  0  0  0  0  0
   32.7500   44.1840  -11.1201 C   0  0  0  0  0  0  0  0  0  0  0  0
 23 24  1  0  0  0
 24 19  1  0  0  0
 24 27  1  0  0  0
 19 20  2  0  0  0
 19 21  1  0  0  0
 27 28  1  0  0  0
 28 29  2  0  0  0
 28 30  1  0  0  0
 29 31  1  0  0  0
 30 32  2  0  0  0
 31 33  2  0  0  0
 32 33  1  0  0  0
 18  1  1  0  0  0
  1 34  1  0  0  0
  1  2  1  0  0  0
 34 35  1  0  0  0
 35 36  2  0  0  0
 35 37  1  0  0  0
 36 38  1  0  0  0
 37 39  2  0  0  0
 38 40  2  0  0  0
 39 40  1  0  0  0
  2  3  2  0  0  0
  4  6  1  0  0  0
  6  7  1  0  0  0
  6 11  1  0  0  0
  7  8  2  0  0  0
  7  9  1  0  0  0
 11 12  1  0  0  0
 12 13  2  0  0  0
 12 14  1  0  0  0
 13 15  1  0  0  0
 14 16  2  0  0  0
 15 17  2  0  0  0
 16 17  1  0  0  0
 19 18  1  0  0  0
  2  4  1  0  0  0
 23 25  1  0  0  0
 23 26  1  0  0  0
 21 22  1  0  0  0
  4  5  1  0  0  0
  9 10  1  0  0  0
M  END
> <minimizedAffinity>
-9.85899

$$$$
1OS0_0PQ_A_605


 40 42  0  0  0  0  0  0  0  0999 V2000
   33.7130   40.0091   -7.5990 C   0  0  0  0  0  0  0  0  0  0  0  0
   32.9622   38.7494   -7.1490 C   0  0  0  0  0  0  0  0  0  0  0  0
   33.1925   38.1689   -6.0923 O   0  0  0  0  0  0  0  0  0  0  0  0
   32.0279   38.3487   -7.9783 N   0  0  0  0  0  0  0  0  0  0  0  0
   31.9195   38.9439   -8.7550 H   0  0  0  0  0  0  0  0  0  0  0  0
   31.1218   37.2194   -7.9971 C   0  0  0  0  0  0  0  0  0  0  0  0
   31.9671   35.9533   -8.1565 C   0  0  0  0  0  0  0  0  0  0  0  0
   31.9948   35.1432   -7.2333 O   0  0  0  0  0  0  0  0  0  0  0  0
   32.5997   35.8034   -9.2181 O   0  0  0  0  0  0  0  0  0  0  0  0
   32.5444   36.4521   -9.8920 H   0  0  0  0  0  0  0  0  0  0  0  0
   30.1771   37.4203   -9.1488 C   0  0  0  0  0  0  0  0  0  0  0  0
   30.3411   38.4100  -10.2544 C   0  0  0  0  0  0  0  0  0  0  0  0
   31.1248   38.1386  -11.3576 C   0  0  0  0  0  0  0  0  0  0  0  0
   29.6824   39.6327  -10.2045 C   0  0  0  0  0  0  0  0  0  0  0  0
   31.2728   39.0306  -12.4050 C   0  0  0  0  0  0  0  0  0  0  0  0
   29.8210   40.5399  -11.2374 C   0  0  0  0  0  0  0  0  0  0  0  0
   30.6092   40.2433  -12.3383 C   0  0  0  0  0  0  0  0  0  0  0  0
   35.1536   40.1443   -7.0683 C   0  0  0  0  0  0  0  0  0  0  0  0
   35.5331   41.6464   -6.2345 P   0  0  0  0  0  0  0  0  0  0  0  0
   34.2902   42.4577   -6.0209 O   0  0  0  0  0  0  0  0  0  0  0  0
   36.4718   42.4913   -6.9997 O   0  0  0  0  0  0  0  0  0  0  0  0
   36.6517   43.3054   -6.5040 H   0  0  0  0  0  0  0  0  0  0  0  0
   36.7634   39.6048   -5.1300 N   0  0  0  0  0  0  0  0  0  0  0  0
   36.3006   40.9822   -4.8479 C   0  0  0  0  0  0  0  0  0  0  0  0
   36.0275   39.0915   -5.6153 H   0  0  0  0  0  0  0  0  0  0  0  0
   36.9845   39.1340   -4.2526 H   0  0  0  0  0  0  0  0  0  0  0  0
   37.4800   41.5353   -4.1634 C   0  0  0  0  0  0  0  0  0  0  0  0
   37.1930   41.9893   -2.7360 C   0  0  0  0  0  0  0  0  0  0  0  0
   37.1654   41.0147   -1.7276 C   0  0  0  0  0  0  0  0  0  0  0  0
   36.9285   43.3109   -2.4467 C   0  0  0  0  0  0  0  0  0  0  0  0
   36.8845   41.4779   -0.4386 C   0  0  0  0  0  0  0  0  0  0  0  0
   36.7064   43.7143   -1.1989 C   0  0  0  0  0  0  0  0  0  0  0  0
   36.6664   42.8174   -0.1512 C   0  0  0  0  0  0  0  0  0  0  0  0
   33.7222   40.1308   -9.1326 C   0  0  0  0  0  0  0  0  0  0  0  0
   33.2543   41.4559   -9.6922 C   0  0  0  0  0  0  0  0  0  0  0  0
   32.6000   42.3816   -8.8941 C   0  0  0  0  0  0  0  0  0  0  0  0
   33.5065   41.7656  -11.0185 C   0  0  0  0  0  0  0  0  0  0  0  0
   32.1648   43.5891   -9.4034 C   0  0  0  0  0  0  0  0  0  0  0  0
   33.0502   42.9579  -11.5440 C   0  0  0  0  0  0  0  0  0  0  0  0
   32.3992   43.8750  -10.7350 C   0  0  0  0  0  0  0  0  0  0  0  0
 23 24  1  0  0  0
 24 19  1  0  0  0
 24 27  1  0  0  0
 19 20  2  0  0  0
 19 21  1  0  0  0
 27 28  1  0  0  0
 28 29  2  0  0  0
 28 30  1  0  0  0
 29 31  1  0  0  0
 30 32  2  0  0  0
 31 33  2  0  0  0
 32 33  1  0  0  0
 18  1  1  0  0  0
  1 34  1  0  0  0
  1  2  1  0  0  0
 34 35  1  0  0  0
 35 36  2  0  0  0
 35 37  1  0  0  0
 36 38  1  0  0  0
 37 39  2  0  0  0
 38 40  2  0  0  0
 39 40  1  0  0  0
  2  3  2  0  0  0
  4  6  1  0  0  0
  6  7  1  0  0  0
  6 11  1  0  0  0
  7  8  2  0  0  0
  7  9  1  0  0  0
 11 12  1  0  0  0
 12 13  2  0  0  0
 12 14  1  0  0  0
 13 15  1  0  0  0
 14 16  2  0  0  0
 15 17  2  0  0  0
 16 17  1  0  0  0
 19 18  1  0  0  0
  2  4  1  0  0  0
 23 25  1  0  0  0
 23 26  1  0  0  0
 21 22  1  0  0  0
  4  5  1  0  0  0
  9 10  1  0  0  0
M  END
> <minimizedAffinity>
-9.05804

$$$$
1OS0_0PQ_A_605


 40 42  0  0  0  0  0  0  0  0999 V2000
   34.5311   39.4752   -6.5048 C   0  0  0  0  0  0  0  0  0  0  0  0
   35.8957   39.8185   -5.8942 C   0  0  0  0  0  0  0  0  0  0  0  0
   36.9422   39.2744   -6.2340 O   0  0  0  0  0  0  0  0  0  0  0  0
   35.8620   40.7661   -4.9875 N   0  0  0  0  0  0  0  0  0  0  0  0
   34.9632   41.1472   -4.8602 H   0  0  0  0  0  0  0  0  0  0  0  0
   36.8622   41.3721   -4.1337 C   0  0  0  0  0  0  0  0  0  0  0  0
   37.8626   40.2793   -3.7490 C   0  0  0  0  0  0  0  0  0  0  0  0
   37.5289   39.4425   -2.9138 O   0  0  0  0  0  0  0  0  0  0  0  0
   38.9803   40.2918   -4.2970 O   0  0  0  0  0  0  0  0  0  0  0  0
   39.1851   40.9530   -4.9286 H   0  0  0  0  0  0  0  0  0  0  0  0
   36.1493   41.9365   -2.9368 C   0  0  0  0  0  0  0  0  0  0  0  0
   36.7856   42.6728   -1.8047 C   0  0  0  0  0  0  0  0  0  0  0  0
   37.2438   43.9666   -1.9501 C   0  0  0  0  0  0  0  0  0  0  0  0
   36.9119   42.0700   -0.5589 C   0  0  0  0  0  0  0  0  0  0  0  0
   37.8152   44.6768   -0.9091 C   0  0  0  0  0  0  0  0  0  0  0  0
   37.4844   42.7598    0.4925 C   0  0  0  0  0  0  0  0  0  0  0  0
   37.9326   44.0606    0.3246 C   0  0  0  0  0  0  0  0  0  0  0  0
   34.0937   40.3632   -7.6861 C   0  0  0  0  0  0  0  0  0  0  0  0
   34.2836   42.0979   -7.4617 P   0  0  0  0  0  0  0  0  0  0  0  0
   35.7297   42.4844   -7.5502 O   0  0  0  0  0  0  0  0  0  0  0  0
   33.7980   42.5494   -6.1422 O   0  0  0  0  0  0  0  0  0  0  0  0
   33.9219   43.5082   -6.0629 H   0  0  0  0  0  0  0  0  0  0  0  0
   32.2625   43.6138   -8.1822 N   0  0  0  0  0  0  0  0  0  0  0  0
   33.2361   42.6338   -8.7140 C   0  0  0  0  0  0  0  0  0  0  0  0
   31.8865   43.2734   -7.2972 H   0  0  0  0  0  0  0  0  0  0  0  0
   31.5019   43.7345   -8.8509 H   0  0  0  0  0  0  0  0  0  0  0  0
   33.6470   43.3007   -9.9598 C   0  0  0  0  0  0  0  0  0  0  0  0
   33.2709   42.5211  -11.2154 C   0  0  0  0  0  0  0  0  0  0  0  0
   33.1221   41.1306  -11.1078 C   0  0  0  0  0  0  0  0  0  0  0  0
   33.1198   43.1545  -12.4305 C   0  0  0  0  0  0  0  0  0  0  0  0
   32.7908   40.4590  -12.2885 C   0  0  0  0  0  0  0  0  0  0  0  0
   32.7636   42.4817  -13.5211 C   0  0  0  0  0  0  0  0  0  0  0  0
   32.5948   41.1126  -13.4964 C   0  0  0  0  0  0  0  0  0  0  0  0
   34.4695   37.9977   -6.9289 C   0  0  0  0  0  0  0  0  0  0  0  0
   34.4700   37.7382   -8.4191 C   0  0  0  0  0  0  0  0  0  0  0  0
   33.3070   37.3870   -9.0871 C   0  0  0  0  0  0  0  0  0  0  0  0
   35.6455   37.8798   -9.1377 C   0  0  0  0  0  0  0  0  0  0  0  0
   33.3051   37.1420  -10.4461 C   0  0  0  0  0  0  0  0  0  0  0  0
   35.6598   37.6092  -10.4914 C   0  0  0  0  0  0  0  0  0  0  0  0
   34.4901   37.2609  -11.1472 C   0  0  0  0  0  0  0  0  0  0  0  0
 23 24  1  0  0  0
 24 19  1  0  0  0
 24 27  1  0  0  0
 19 20  2  0  0  0
 19 21  1  0  0  0
 27 28  1  0  0  0
 28 29  2  0  0  0
 28 30  1  0  0  0
 29 31  1  0  0  0
 30 32  2  0  0  0
 31 33  2  0  0  0
 32 33  1  0  0  0
 18  1  1  0  0  0
  1 34  1  0  0  0
  1  2  1  0  0  0
 34 35  1  0  0  0
 35 36  2  0  0  0
 35 37  1  0  0  0
 36 38  1  0  0  0
 37 39  2  0  0  0
 38 40  2  0  0  0
 39 40  1  0  0  0
  2  3  2  0  0  0
  4  6  1  0  0  0
  6  7  1  0  0  0
  6 11  1  0  0  0
  7  8  2  0  0  0
  7  9  1  0  0  0
 11 12  1  0  0  0
 12 13  2  0  0  0
 12 14  1  0  0  0
 13 15  1  0  0  0
 14 16  2  0  0  0
 15 17  2  0  0  0
 16 17  1  0  0  0
 19 18  1  0  0  0
  2  4  1  0  0  0
 23 25  1  0  0  0
 23 26  1  0  0  0
 21 22  1  0  0  0
  4  5  1  0  0  0
  9 10  1  0  0  0
M  END
> <minimizedAffinity>
-8.86242

$$$$
1OS0_0PQ_A_605


 40 42  0  0  0  0  0  0  0  0999 V2000
   33.3020   39.3725   -8.4818 C   0  0  0  0  0  0  0  0  0  0  0  0
   33.2310   38.2648   -7.4231 C   0  0  0  0  0  0  0  0  0  0  0  0
   33.2047   38.4868   -6.2161 O   0  0  0  0  0  0  0  0  0  0  0  0
   33.1759   37.0487   -7.9123 N   0  0  0  0  0  0  0  0  0  0  0  0
   33.1485   37.0290   -8.8962 H   0  0  0  0  0  0  0  0  0  0  0  0
   33.1467   35.7293   -7.3166 C   0  0  0  0  0  0  0  0  0  0  0  0
   34.5281   35.1018   -7.5191 C   0  0  0  0  0  0  0  0  0  0  0  0
   34.7787   34.5634   -8.5945 O   0  0  0  0  0  0  0  0  0  0  0  0
   35.3388   35.1580   -6.5760 O   0  0  0  0  0  0  0  0  0  0  0  0
   35.0976   35.5809   -5.7754 H   0  0  0  0  0  0  0  0  0  0  0  0
   32.0620   34.9492   -8.0050 C   0  0  0  0  0  0  0  0  0  0  0  0
   30.9010   35.5275   -8.7442 C   0  0  0  0  0  0  0  0  0  0  0  0
   30.0485   36.4381   -8.1534 C   0  0  0  0  0  0  0  0  0  0  0  0
   30.6642   35.1721  -10.0667 C   0  0  0  0  0  0  0  0  0  0  0  0
   28.9804   37.0050   -8.8259 C   0  0  0  0  0  0  0  0  0  0  0  0
   29.5999   35.7224  -10.7547 C   0  0  0  0  0  0  0  0  0  0  0  0
   28.7599   36.6394  -10.1425 C   0  0  0  0  0  0  0  0  0  0  0  0
   34.5808   40.2323   -8.4535 C   0  0  0  0  0  0  0  0  0  0  0  0
   34.4318   41.8158   -7.7013 P   0  0  0  0  0  0  0  0  0  0  0  0
   35.7777   42.4633   -7.5679 O   0  0  0  0  0  0  0  0  0  0  0  0
   33.8547   41.7403   -6.3442 O   0  0  0  0  0  0  0  0  0  0  0  0
   33.7914   42.6329   -5.9696 H   0  0  0  0  0  0  0  0  0  0  0  0
   32.3549   43.3802   -8.0766 N   0  0  0  0  0  0  0  0  0  0  0  0
   33.3142   42.5174   -8.8020 C   0  0  0  0  0  0  0  0  0  0  0  0
   32.0293   42.8974   -7.2391 H   0  0  0  0  0  0  0  0  0  0  0  0
   31.5595   43.5870   -8.6807 H   0  0  0  0  0  0  0  0  0  0  0  0
   33.6515   43.3799   -9.9457 C   0  0  0  0  0  0  0  0  0  0  0  0
   32.7841   43.1227  -11.1734 C   0  0  0  0  0  0  0  0  0  0  0  0
   31.6239   43.8944  -11.3338 C   0  0  0  0  0  0  0  0  0  0  0  0
   33.1052   42.1353  -12.0803 C   0  0  0  0  0  0  0  0  0  0  0  0
   30.8548   43.6120  -12.4668 C   0  0  0  0  0  0  0  0  0  0  0  0
   32.3666   41.9280  -13.1667 C   0  0  0  0  0  0  0  0  0  0  0  0
   31.2125   42.6478  -13.3980 C   0  0  0  0  0  0  0  0  0  0  0  0
   33.1045   38.8008   -9.8963 C   0  0  0  0  0  0  0  0  0  0  0  0
   31.8012   39.1573  -10.5762 C   0  0  0  0  0  0  0  0  0  0  0  0
   30.8738   39.9848   -9.9620 C   0  0  0  0  0  0  0  0  0  0  0  0
   31.5375   38.6728  -11.8467 C   0  0  0  0  0  0  0  0  0  0  0  0
   29.6796   40.3063  -10.5764 C   0  0  0  0  0  0  0  0  0  0  0  0
   30.3343   38.9651  -12.4572 C   0  0  0  0  0  0  0  0  0  0  0  0
   29.4170   39.7949  -11.8332 C   0  0  0  0  0  0  0  0  0  0  0  0
 23 24  1  0  0  0
 24 19  1  0  0  0
 24 27  1  0  0  0
 19 20  2  0  0  0
 19 21  1  0  0  0
 27 28  1  0  0  0
 28 29  2  0  0  0
 28 30  1  0  0  0
 29 31  1  0  0  0
 30 32  2  0  0  0
 31 33  2  0  0  0
 32 33  1  0  0  0
 18  1  1  0  0  0
  1 34  1  0  0  0
  1  2  1  0  0  0
 34 35  1  0  0  0
 35 36  2  0  0  0
 35 37  1  0  0  0
 36 38  1  0  0  0
 37 39  2  0  0  0
 38 40  2  0  0  0
 39 40  1  0  0  0
  2  3  2  0  0  0
  4  6  1  0  0  0
  6  7  1  0  0  0
  6 11  1  0  0  0
  7  8  2  0  0  0
  7  9  1  0  0  0
 11 12  1  0  0  0
 12 13  2  0  0  0
 12 14  1  0  0  0
 13 15  1  0  0  0
 14 16  2  0  0  0
 15 17  2  0  0  0
 16 17  1  0  0  0
 19 18  1  0  0  0
  2  4  1  0  0  0
 23 25  1  0  0  0
 23 26  1  0  0  0
 21 22  1  0  0  0
  4  5  1  0  0  0
  9 10  1  0  0  0
M  END
> <minimizedAffinity>
-8.75157

$$$$
1OS0_0PQ_A_605


 40 42  0  0  0  0  0  0  0  0999 V2000
   34.5438   40.2752   -6.7895 C   0  0  0  0  0  0  0  0  0  0  0  0
   34.1917   38.8008   -7.0241 C   0  0  0  0  0  0  0  0  0  0  0  0
   35.0336   37.9108   -7.1014 O   0  0  0  0  0  0  0  0  0  0  0  0
   32.9056   38.5570   -7.1131 N   0  0  0  0  0  0  0  0  0  0  0  0
   32.3502   39.3582   -6.9758 H   0  0  0  0  0  0  0  0  0  0  0  0
   32.1274   37.3633   -7.3699 C   0  0  0  0  0  0  0  0  0  0  0  0
   32.9998   36.1583   -7.0092 C   0  0  0  0  0  0  0  0  0  0  0  0
   33.0242   35.7769   -5.8417 O   0  0  0  0  0  0  0  0  0  0  0  0
   33.6565   35.6197   -7.9194 O   0  0  0  0  0  0  0  0  0  0  0  0
   33.6024   35.9499   -8.7946 H   0  0  0  0  0  0  0  0  0  0  0  0
   31.7507   37.3766   -8.8249 C   0  0  0  0  0  0  0  0  0  0  0  0
   30.4906   37.9347   -9.3988 C   0  0  0  0  0  0  0  0  0  0  0  0
   29.3492   37.1682   -9.5191 C   0  0  0  0  0  0  0  0  0  0  0  0
   30.4343   39.2612   -9.8094 C   0  0  0  0  0  0  0  0  0  0  0  0
   28.1636   37.6703  -10.0258 C   0  0  0  0  0  0  0  0  0  0  0  0
   29.2618   39.7809  -10.3233 C   0  0  0  0  0  0  0  0  0  0  0  0
   28.1259   38.9936  -10.4296 C   0  0  0  0  0  0  0  0  0  0  0  0
   35.5198   40.5444   -5.6275 C   0  0  0  0  0  0  0  0  0  0  0  0
   35.8966   42.2332   -5.3092 P   0  0  0  0  0  0  0  0  0  0  0  0
   34.8393   43.1258   -5.8869 O   0  0  0  0  0  0  0  0  0  0  0  0
   37.1814   42.6443   -5.9101 O   0  0  0  0  0  0  0  0  0  0  0  0
   37.3477   43.5788   -5.7100 H   0  0  0  0  0  0  0  0  0  0  0  0
   34.7935   41.5565   -3.0231 N   0  0  0  0  0  0  0  0  0  0  0  0
   36.0222   42.1490   -3.5976 C   0  0  0  0  0  0  0  0  0  0  0  0
   33.9753   41.9742   -3.4663 H   0  0  0  0  0  0  0  0  0  0  0  0
   34.7659   41.7372   -2.0196 H   0  0  0  0  0  0  0  0  0  0  0  0
   37.0572   41.4272   -2.8403 C   0  0  0  0  0  0  0  0  0  0  0  0
   37.3559   42.0495   -1.4804 C   0  0  0  0  0  0  0  0  0  0  0  0
   36.8979   41.3816   -0.3353 C   0  0  0  0  0  0  0  0  0  0  0  0
   38.0209   43.2526   -1.3763 C   0  0  0  0  0  0  0  0  0  0  0  0
   37.1840   41.9983    0.8865 C   0  0  0  0  0  0  0  0  0  0  0  0
   38.3081   43.7833   -0.1911 C   0  0  0  0  0  0  0  0  0  0  0  0
   37.8953   43.1856    0.9818 C   0  0  0  0  0  0  0  0  0  0  0  0
   35.0885   40.9259   -8.0726 C   0  0  0  0  0  0  0  0  0  0  0  0
   34.0505   41.4724   -9.0275 C   0  0  0  0  0  0  0  0  0  0  0  0
   33.7867   40.8466  -10.2362 C   0  0  0  0  0  0  0  0  0  0  0  0
   33.3287   42.6023   -8.6799 C   0  0  0  0  0  0  0  0  0  0  0  0
   32.8451   41.3469  -11.1138 C   0  0  0  0  0  0  0  0  0  0  0  0
   32.4059   43.1263   -9.5629 C   0  0  0  0  0  0  0  0  0  0  0  0
   32.1505   42.4901  -10.7668 C   0  0  0  0  0  0  0  0  0  0  0  0
 23 24  1  0  0  0
 24 19  1  0  0  0
 24 27  1  0  0  0
 19 20  2  0  0  0
 19 21  1  0  0  0
 27 28  1  0  0  0
 28 29  2  0  0  0
 28 30  1  0  0  0
 29 31  1  0  0  0
 30 32  2  0  0  0
 31 33  2  0  0  0
 32 33  1  0  0  0
 18  1  1  0  0  0
  1 34  1  0  0  0
  1  2  1  0  0  0
 34 35  1  0  0  0
 35 36  2  0  0  0
 35 37  1  0  0  0
 36 38  1  0  0  0
 37 39  2  0  0  0
 38 40  2  0  0  0
 39 40  1  0  0  0
  2  3  2  0  0  0
  4  6  1  0  0  0
  6  7  1  0  0  0
  6 11  1  0  0  0
  7  8  2  0  0  0
  7  9  1  0  0  0
 11 12  1  0  0  0
 12 13  2  0  0  0
 12 14  1  0  0  0
 13 15  1  0  0  0
 14 16  2  0  0  0
 15 17  2  0  0  0
 16 17  1  0  0  0
 19 18  1  0  0  0
  2  4  1  0  0  0
 23 25  1  0  0  0
 23 26  1  0  0  0
 21 22  1  0  0  0
  4  5  1  0  0  0
  9 10  1  0  0  0
M  END
> <minimizedAffinity>
-8.73646

$$$$
1OS0_0PQ_A_605


 40 42  0  0  0  0  0  0  0  0999 V2000
   34.9927   39.2228   -6.6232 C   0  0  0  0  0  0  0  0  0  0  0  0
   36.2609   39.4523   -5.7912 C   0  0  0  0  0  0  0  0  0  0  0  0
   37.2226   38.6897   -5.8042 O   0  0  0  0  0  0  0  0  0  0  0  0
   36.2487   40.5511   -5.0745 N   0  0  0  0  0  0  0  0  0  0  0  0
   35.4361   41.0906   -5.2082 H   0  0  0  0  0  0  0  0  0  0  0  0
   37.1733   41.1411   -4.1292 C   0  0  0  0  0  0  0  0  0  0  0  0
   38.0869   40.0236   -3.6197 C   0  0  0  0  0  0  0  0  0  0  0  0
   39.2763   40.0494   -3.9259 O   0  0  0  0  0  0  0  0  0  0  0  0
   37.5791   39.1280   -2.9199 O   0  0  0  0  0  0  0  0  0  0  0  0
   36.6653   39.1551   -2.7148 H   0  0  0  0  0  0  0  0  0  0  0  0
   36.3575   41.7551   -3.0261 C   0  0  0  0  0  0  0  0  0  0  0  0
   36.8895   42.5586   -1.8859 C   0  0  0  0  0  0  0  0  0  0  0  0
   37.2668   43.8768   -2.0439 C   0  0  0  0  0  0  0  0  0  0  0  0
   36.9973   41.9944   -0.6204 C   0  0  0  0  0  0  0  0  0  0  0  0
   37.7403   44.6477   -0.9970 C   0  0  0  0  0  0  0  0  0  0  0  0
   37.4727   42.7452    0.4375 C   0  0  0  0  0  0  0  0  0  0  0  0
   37.8406   44.0692    0.2563 C   0  0  0  0  0  0  0  0  0  0  0  0
   34.8534   40.1126   -7.8740 C   0  0  0  0  0  0  0  0  0  0  0  0
   34.5401   41.8185   -7.5788 P   0  0  0  0  0  0  0  0  0  0  0  0
   35.8283   42.5740   -7.4434 O   0  0  0  0  0  0  0  0  0  0  0  0
   33.7780   42.0418   -6.3338 O   0  0  0  0  0  0  0  0  0  0  0  0
   33.6290   42.9925   -6.2120 H   0  0  0  0  0  0  0  0  0  0  0  0
   32.7982   40.9344   -9.3354 N   0  0  0  0  0  0  0  0  0  0  0  0
   33.5664   42.1418   -8.9572 C   0  0  0  0  0  0  0  0  0  0  0  0
   33.4110   40.1195   -9.3089 H   0  0  0  0  0  0  0  0  0  0  0  0
   32.4261   41.0496  -10.2781 H   0  0  0  0  0  0  0  0  0  0  0  0
   32.5236   43.1753   -9.0569 C   0  0  0  0  0  0  0  0  0  0  0  0
   32.6021   43.9915  -10.3428 C   0  0  0  0  0  0  0  0  0  0  0  0
   33.7592   43.8757  -11.1270 C   0  0  0  0  0  0  0  0  0  0  0  0
   31.5863   44.8492  -10.7072 C   0  0  0  0  0  0  0  0  0  0  0  0
   33.7900   44.6539  -12.2882 C   0  0  0  0  0  0  0  0  0  0  0  0
   31.6391   45.5404  -11.8423 C   0  0  0  0  0  0  0  0  0  0  0  0
   32.7414   45.4782  -12.6697 C   0  0  0  0  0  0  0  0  0  0  0  0
   34.8576   37.7459   -7.0319 C   0  0  0  0  0  0  0  0  0  0  0  0
   33.5928   37.3803   -7.7767 C   0  0  0  0  0  0  0  0  0  0  0  0
   33.6422   36.8217   -9.0446 C   0  0  0  0  0  0  0  0  0  0  0  0
   32.3619   37.5799   -7.1737 C   0  0  0  0  0  0  0  0  0  0  0  0
   32.4895   36.4937   -9.7307 C   0  0  0  0  0  0  0  0  0  0  0  0
   31.2033   37.2819   -7.8627 C   0  0  0  0  0  0  0  0  0  0  0  0
   31.2668   36.7225   -9.1286 C   0  0  0  0  0  0  0  0  0  0  0  0
 23 24  1  0  0  0
 24 19  1  0  0  0
 24 27  1  0  0  0
 19 20  2  0  0  0
 19 21  1  0  0  0
 27 28  1  0  0  0
 28 29  2  0  0  0
 28 30  1  0  0  0
 29 31  1  0  0  0
 30 32  2  0  0  0
 31 33  2  0  0  0
 32 33  1  0  0  0
 18  1  1  0  0  0
  1 34  1  0  0  0
  1  2  1  0  0  0
 34 35  1  0  0  0
 35 36  2  0  0  0
 35 37  1  0  0  0
 36 38  1  0  0  0
 37 39  2  0  0  0
 38 40  2  0  0  0
 39 40  1  0  0  0
  2  3  2  0  0  0
  4  6  1  0  0  0
  6  7  1  0  0  0
  6 11  1  0  0  0
  7  8  2  0  0  0
  7  9  1  0  0  0
 11 12  1  0  0  0
 12 13  2  0  0  0
 12 14  1  0  0  0
 13 15  1  0  0  0
 14 16  2  0  0  0
 15 17  2  0  0  0
 16 17  1  0  0  0
 19 18  1  0  0  0
  2  4  1  0  0  0
 23 25  1  0  0  0
 23 26  1  0  0  0
 21 22  1  0  0  0
  4  5  1  0  0  0
  9 10  1  0  0  0
M  END
> <minimizedAffinity>
-8.67689

$$$$
1OS0_0PQ_A_605


 40 42  0  0  0  0  0  0  0  0999 V2000
   34.1312   38.0682   -8.2635 C   0  0  0  0  0  0  0  0  0  0  0  0
   34.9039   39.3440   -8.6215 C   0  0  0  0  0  0  0  0  0  0  0  0
   35.9280   39.3442   -9.2983 O   0  0  0  0  0  0  0  0  0  0  0  0
   34.3673   40.4503   -8.1639 N   0  0  0  0  0  0  0  0  0  0  0  0
   33.5191   40.2999   -7.6872 H   0  0  0  0  0  0  0  0  0  0  0  0
   34.7542   41.8449   -8.2090 C   0  0  0  0  0  0  0  0  0  0  0  0
   35.0363   42.2913   -6.7723 C   0  0  0  0  0  0  0  0  0  0  0  0
   36.2042   42.4220   -6.4144 O   0  0  0  0  0  0  0  0  0  0  0  0
   34.0635   42.4957   -6.0228 O   0  0  0  0  0  0  0  0  0  0  0  0
   33.1913   42.3815   -6.3455 H   0  0  0  0  0  0  0  0  0  0  0  0
   33.6160   42.6073   -8.8276 C   0  0  0  0  0  0  0  0  0  0  0  0
   33.3731   42.7858  -10.2897 C   0  0  0  0  0  0  0  0  0  0  0  0
   33.5692   44.0019  -10.9122 C   0  0  0  0  0  0  0  0  0  0  0  0
   32.9594   41.7114  -11.0681 C   0  0  0  0  0  0  0  0  0  0  0  0
   33.3733   44.1852  -12.2696 C   0  0  0  0  0  0  0  0  0  0  0  0
   32.7527   41.8743  -12.4245 C   0  0  0  0  0  0  0  0  0  0  0  0
   32.9613   43.1040  -13.0292 C   0  0  0  0  0  0  0  0  0  0  0  0
   34.9168   37.0297   -7.4389 C   0  0  0  0  0  0  0  0  0  0  0  0
   34.5442   35.3413   -7.7645 P   0  0  0  0  0  0  0  0  0  0  0  0
   33.2737   34.9409   -7.0759 O   0  0  0  0  0  0  0  0  0  0  0  0
   35.6008   34.4301   -7.2807 O   0  0  0  0  0  0  0  0  0  0  0  0
   35.3540   33.5136   -7.4808 H   0  0  0  0  0  0  0  0  0  0  0  0
   35.5879   34.5269  -10.0336 N   0  0  0  0  0  0  0  0  0  0  0  0
   34.5345   35.4081   -9.4815 C   0  0  0  0  0  0  0  0  0  0  0  0
   36.4532   34.6626   -9.5110 H   0  0  0  0  0  0  0  0  0  0  0  0
   35.7437   34.7570  -11.0150 H   0  0  0  0  0  0  0  0  0  0  0  0
   33.4009   35.0643  -10.3545 C   0  0  0  0  0  0  0  0  0  0  0  0
   32.9940   36.1969  -11.2914 C   0  0  0  0  0  0  0  0  0  0  0  0
   31.7390   36.1191  -11.9128 C   0  0  0  0  0  0  0  0  0  0  0  0
   33.8470   37.2476  -11.5539 C   0  0  0  0  0  0  0  0  0  0  0  0
   31.4175   37.1735  -12.7730 C   0  0  0  0  0  0  0  0  0  0  0  0
   33.4837   38.2510  -12.3477 C   0  0  0  0  0  0  0  0  0  0  0  0
   32.2644   38.2499  -12.9934 C   0  0  0  0  0  0  0  0  0  0  0  0
   32.8150   38.4018   -7.5403 C   0  0  0  0  0  0  0  0  0  0  0  0
   31.5505   38.2035   -8.3464 C   0  0  0  0  0  0  0  0  0  0  0  0
   30.7336   37.1023   -8.1414 C   0  0  0  0  0  0  0  0  0  0  0  0
   31.1840   39.1508   -9.2881 C   0  0  0  0  0  0  0  0  0  0  0  0
   29.5825   36.9141   -8.8806 C   0  0  0  0  0  0  0  0  0  0  0  0
   30.0505   38.9571  -10.0519 C   0  0  0  0  0  0  0  0  0  0  0  0
   29.2418   37.8531   -9.8357 C   0  0  0  0  0  0  0  0  0  0  0  0
 23 24  1  0  0  0
 24 19  1  0  0  0
 24 27  1  0  0  0
 19 20  2  0  0  0
 19 21  1  0  0  0
 27 28  1  0  0  0
 28 29  2  0  0  0
 28 30  1  0  0  0
 29 31  1  0  0  0
 30 32  2  0  0  0
 31 33  2  0  0  0
 32 33  1  0  0  0
 18  1  1  0  0  0
  1 34  1  0  0  0
  1  2  1  0  0  0
 34 35  1  0  0  0
 35 36  2  0  0  0
 35 37  1  0  0  0
 36 38  1  0  0  0
 37 39  2  0  0  0
 38 40  2  0  0  0
 39 40  1  0  0  0
  2  3  2  0  0  0
  4  6  1  0  0  0
  6  7  1  0  0  0
  6 11  1  0  0  0
  7  8  2  0  0  0
  7  9  1  0  0  0
 11 12  1  0  0  0
 12 13  2  0  0  0
 12 14  1  0  0  0
 13 15  1  0  0  0
 14 16  2  0  0  0
 15 17  2  0  0  0
 16 17  1  0  0  0
 19 18  1  0  0  0
  2  4  1  0  0  0
 23 25  1  0  0  0
 23 26  1  0  0  0
 21 22  1  0  0  0
  4  5  1  0  0  0
  9 10  1  0  0  0
M  END
> <minimizedAffinity>
-8.67657

$$$$
1OS0_0PQ_A_605


 40 42  0  0  0  0  0  0  0  0999 V2000
   34.4805   41.2166   -7.3787 C   0  0  0  0  0  0  0  0  0  0  0  0
   35.1908   41.9928   -6.2625 C   0  0  0  0  0  0  0  0  0  0  0  0
   34.9962   43.1844   -6.0411 O   0  0  0  0  0  0  0  0  0  0  0  0
   36.0140   41.2718   -5.5388 N   0  0  0  0  0  0  0  0  0  0  0  0
   36.0245   40.3218   -5.7968 H   0  0  0  0  0  0  0  0  0  0  0  0
   36.9104   41.5728   -4.4422 C   0  0  0  0  0  0  0  0  0  0  0  0
   37.7536   40.3224   -4.1802 C   0  0  0  0  0  0  0  0  0  0  0  0
   38.8907   40.4610   -3.7363 O   0  0  0  0  0  0  0  0  0  0  0  0
   37.2495   39.2137   -4.4379 O   0  0  0  0  0  0  0  0  0  0  0  0
   36.3769   39.1629   -4.7753 H   0  0  0  0  0  0  0  0  0  0  0  0
   36.0628   41.9447   -3.2579 C   0  0  0  0  0  0  0  0  0  0  0  0
   36.5663   42.4053   -1.9301 C   0  0  0  0  0  0  0  0  0  0  0  0
   37.0302   43.6910   -1.7388 C   0  0  0  0  0  0  0  0  0  0  0  0
   36.5582   41.5436   -0.8397 C   0  0  0  0  0  0  0  0  0  0  0  0
   37.4794   44.1471   -0.5122 C   0  0  0  0  0  0  0  0  0  0  0  0
   37.0076   41.9774    0.3927 C   0  0  0  0  0  0  0  0  0  0  0  0
   37.4640   43.2751    0.5625 C   0  0  0  0  0  0  0  0  0  0  0  0
   34.0142   39.7966   -7.0022 C   0  0  0  0  0  0  0  0  0  0  0  0
   35.0004   38.4722   -7.6096 P   0  0  0  0  0  0  0  0  0  0  0  0
   36.1069   38.1566   -6.6480 O   0  0  0  0  0  0  0  0  0  0  0  0
   35.6343   38.7924   -8.9043 O   0  0  0  0  0  0  0  0  0  0  0  0
   36.1660   38.0368   -9.1996 H   0  0  0  0  0  0  0  0  0  0  0  0
   32.7659   37.7728   -8.8009 N   0  0  0  0  0  0  0  0  0  0  0  0
   33.7594   37.3007   -7.8104 C   0  0  0  0  0  0  0  0  0  0  0  0
   32.5367   38.7489   -8.6139 H   0  0  0  0  0  0  0  0  0  0  0  0
   31.9208   37.2058   -8.7316 H   0  0  0  0  0  0  0  0  0  0  0  0
   33.9464   35.9084   -8.2485 C   0  0  0  0  0  0  0  0  0  0  0  0
   34.2934   34.9571   -7.1081 C   0  0  0  0  0  0  0  0  0  0  0  0
   35.6417   34.6208   -6.9178 C   0  0  0  0  0  0  0  0  0  0  0  0
   33.3109   34.4099   -6.3108 C   0  0  0  0  0  0  0  0  0  0  0  0
   35.9077   33.7351   -5.8692 C   0  0  0  0  0  0  0  0  0  0  0  0
   33.6127   33.6028   -5.2977 C   0  0  0  0  0  0  0  0  0  0  0  0
   34.9157   33.2273   -5.0430 C   0  0  0  0  0  0  0  0  0  0  0  0
   33.2876   42.0130   -7.9352 C   0  0  0  0  0  0  0  0  0  0  0  0
   33.2604   42.1982   -9.4361 C   0  0  0  0  0  0  0  0  0  0  0  0
   33.5328   43.4293  -10.0127 C   0  0  0  0  0  0  0  0  0  0  0  0
   32.9858   41.1148  -10.2542 C   0  0  0  0  0  0  0  0  0  0  0  0
   33.5014   43.6040  -11.3822 C   0  0  0  0  0  0  0  0  0  0  0  0
   32.9239   41.2859  -11.6227 C   0  0  0  0  0  0  0  0  0  0  0  0
   33.2001   42.5211  -12.1862 C   0  0  0  0  0  0  0  0  0  0  0  0
 23 24  1  0  0  0
 24 19  1  0  0  0
 24 27  1  0  0  0
 19 20  2  0  0  0
 19 21  1  0  0  0
 27 28  1  0  0  0
 28 29  2  0  0  0
 28 30  1  0  0  0
 29 31  1  0  0  0
 30 32  2  0  0  0
 31 33  2  0  0  0
 32 33  1  0  0  0
 18  1  1  0  0  0
  1 34  1  0  0  0
  1  2  1  0  0  0
 34 35  1  0  0  0
 35 36  2  0  0  0
 35 37  1  0  0  0
 36 38  1  0  0  0
 37 39  2  0  0  0
 38 40  2  0  0  0
 39 40  1  0  0  0
  2  3  2  0  0  0
  4  6  1  0  0  0
  6  7  1  0  0  0
  6 11  1  0  0  0
  7  8  2  0  0  0
  7  9  1  0  0  0
 11 12  1  0  0  0
 12 13  2  0  0  0
 12 14  1  0  0  0
 13 15  1  0  0  0
 14 16  2  0  0  0
 15 17  2  0  0  0
 16 17  1  0  0  0
 19 18  1  0  0  0
  2  4  1  0  0  0
 23 25  1  0  0  0
 23 26  1  0  0  0
 21 22  1  0  0  0
  4  5  1  0  0  0
  9 10  1  0  0  0
M  END
> <minimizedAffinity>
-8.29533

$$$$
1OS0_0PQ_A_605


 40 42  0  0  0  0  0  0  0  0999 V2000
   34.0108   39.7240   -7.4073 C   0  0  0  0  0  0  0  0  0  0  0  0
   33.3831   38.3363   -7.2250 C   0  0  0  0  0  0  0  0  0  0  0  0
   32.5014   38.0978   -6.4050 O   0  0  0  0  0  0  0  0  0  0  0  0
   33.8493   37.4183   -8.0382 N   0  0  0  0  0  0  0  0  0  0  0  0
   34.5111   37.7685   -8.6774 H   0  0  0  0  0  0  0  0  0  0  0  0
   33.5998   36.0010   -8.1978 C   0  0  0  0  0  0  0  0  0  0  0  0
   34.5911   35.2549   -7.3013 C   0  0  0  0  0  0  0  0  0  0  0  0
   34.2251   34.9046   -6.1822 O   0  0  0  0  0  0  0  0  0  0  0  0
   35.7343   35.0421   -7.7457 O   0  0  0  0  0  0  0  0  0  0  0  0
   35.9632   35.3304   -8.6074 H   0  0  0  0  0  0  0  0  0  0  0  0
   33.7904   35.6721   -9.6521 C   0  0  0  0  0  0  0  0  0  0  0  0
   33.6083   36.6152  -10.7949 C   0  0  0  0  0  0  0  0  0  0  0  0
   34.6762   37.2843  -11.3577 C   0  0  0  0  0  0  0  0  0  0  0  0
   32.3457   36.8251  -11.3364 C   0  0  0  0  0  0  0  0  0  0  0  0
   34.5349   38.1447  -12.4320 C   0  0  0  0  0  0  0  0  0  0  0  0
   32.1819   37.6844  -12.4059 C   0  0  0  0  0  0  0  0  0  0  0  0
   33.2701   38.3416  -12.9584 C   0  0  0  0  0  0  0  0  0  0  0  0
   35.2535   40.0059   -6.5402 C   0  0  0  0  0  0  0  0  0  0  0  0
   35.5281   41.6886   -6.1060 P   0  0  0  0  0  0  0  0  0  0  0  0
   34.2283   42.4332   -6.0387 O   0  0  0  0  0  0  0  0  0  0  0  0
   36.3754   42.3911   -7.0905 O   0  0  0  0  0  0  0  0  0  0  0  0
   36.4997   43.3118   -6.8116 H   0  0  0  0  0  0  0  0  0  0  0  0
   37.1830   40.1958   -4.7152 N   0  0  0  0  0  0  0  0  0  0  0  0
   36.3809   41.4372   -4.6355 C   0  0  0  0  0  0  0  0  0  0  0  0
   36.6181   39.4517   -5.1246 H   0  0  0  0  0  0  0  0  0  0  0  0
   37.4792   39.9216   -3.7785 H   0  0  0  0  0  0  0  0  0  0  0  0
   37.3572   42.3588   -4.0329 C   0  0  0  0  0  0  0  0  0  0  0  0
   37.1937   42.5110   -2.5242 C   0  0  0  0  0  0  0  0  0  0  0  0
   37.2050   43.8068   -1.9877 C   0  0  0  0  0  0  0  0  0  0  0  0
   37.0782   41.4091   -1.7038 C   0  0  0  0  0  0  0  0  0  0  0  0
   37.0660   43.8938   -0.5992 C   0  0  0  0  0  0  0  0  0  0  0  0
   36.9067   41.5395   -0.3914 C   0  0  0  0  0  0  0  0  0  0  0  0
   36.9030   42.7802    0.2120 C   0  0  0  0  0  0  0  0  0  0  0  0
   34.3501   39.9892   -8.8842 C   0  0  0  0  0  0  0  0  0  0  0  0
   33.1991   40.4423   -9.7547 C   0  0  0  0  0  0  0  0  0  0  0  0
   31.9124   39.9698   -9.5470 C   0  0  0  0  0  0  0  0  0  0  0  0
   33.4252   41.3668  -10.7610 C   0  0  0  0  0  0  0  0  0  0  0  0
   30.8605   40.3754  -10.3444 C   0  0  0  0  0  0  0  0  0  0  0  0
   32.3857   41.7566  -11.5817 C   0  0  0  0  0  0  0  0  0  0  0  0
   31.1042   41.2781  -11.3621 C   0  0  0  0  0  0  0  0  0  0  0  0
 23 24  1  0  0  0
 24 19  1  0  0  0
 24 27  1  0  0  0
 19 20  2  0  0  0
 19 21  1  0  0  0
 27 28  1  0  0  0
 28 29  2  0  0  0
 28 30  1  0  0  0
 29 31  1  0  0  0
 30 32  2  0  0  0
 31 33  2  0  0  0
 32 33  1  0  0  0
 18  1  1  0  0  0
  1 34  1  0  0  0
  1  2  1  0  0  0
 34 35  1  0  0  0
 35 36  2  0  0  0
 35 37  1  0  0  0
 36 38  1  0  0  0
 37 39  2  0  0  0
 38 40  2  0  0  0
 39 40  1  0  0  0
  2  3  2  0  0  0
  4  6  1  0  0  0
  6  7  1  0  0  0
  6 11  1  0  0  0
  7  8  2  0  0  0
  7  9  1  0  0  0
 11 12  1  0  0  0
 12 13  2  0  0  0
 12 14  1  0  0  0
 13 15  1  0  0  0
 14 16  2  0  0  0
 15 17  2  0  0  0
 16 17  1  0  0  0
 19 18  1  0  0  0
  2  4  1  0  0  0
 23 25  1  0  0  0
 23 26  1  0  0  0
 21 22  1  0  0  0
  4  5  1  0  0  0
  9 10  1  0  0  0
M  END
> <minimizedAffinity>
-8.27257

$$$$
