3HL7_I47_A_401


 30 33  0  0  0  0  0  0  0  0999 V2000
   35.2208   35.8261   20.1340 C   0  0  0  0  0  0  0  0  0  0  0  0
   34.7201   34.5702   20.3315 N   0  0  0  0  0  0  0  0  0  0  0  0
   33.9863   34.4535   21.4525 N   0  0  0  0  0  0  0  0  0  0  0  0
   34.0212   35.6652   22.0204 C   0  0  0  0  0  0  0  0  0  0  0  0
   34.7786   36.5681   21.2301 C   0  0  0  0  0  0  0  0  0  0  0  0
   34.8811   33.8220   19.7122 H   0  0  0  0  0  0  0  0  0  0  0  0
   33.3426   35.9425   23.3236 C   0  0  0  0  0  0  0  0  0  0  0  0
   32.0129   35.2472   23.5422 C   0  0  0  0  0  0  0  0  0  0  0  0
   31.4124   35.5841   24.9058 C   0  0  0  0  0  0  0  0  0  0  0  0
   32.3701   35.3676   25.9694 N   0  0  0  0  0  0  0  0  0  0  0  0
   33.6956   35.9321   25.8276 C   0  0  0  0  0  0  0  0  0  0  0  0
   34.3030   35.6394   24.4602 C   0  0  0  0  0  0  0  0  0  0  0  0
   32.0157   34.6519   27.1024 C   0  0  0  0  0  0  0  0  0  0  0  0
   31.3091   33.6482   27.1040 O   0  0  0  0  0  0  0  0  0  0  0  0
   32.5930   35.2421   28.3642 C   0  0  0  0  0  0  0  0  0  0  0  0
   31.6915   36.2525   28.8126 O   0  0  0  0  0  0  0  0  0  0  0  0
   31.5917   36.9264   28.1222 H   0  0  0  0  0  0  0  0  0  0  0  0
   36.0134   36.1362   18.9724 C   0  0  0  0  0  0  0  0  0  0  0  0
   35.4816   36.0352   17.7050 C   0  0  0  0  0  0  0  0  0  0  0  0
   36.2348   36.3841   16.5991 C   0  0  0  0  0  0  0  0  0  0  0  0
   37.5274   36.8309   16.7405 C   0  0  0  0  0  0  0  0  0  0  0  0
   38.0671   36.9082   18.0076 C   0  0  0  0  0  0  0  0  0  0  0  0
   37.3168   36.5632   19.1078 C   0  0  0  0  0  0  0  0  0  0  0  0
   38.4511   37.3115   15.3605 Cl  0  0  0  0  0  0  0  0  0  0  0  0
   34.9751   37.9864   21.4657 C   0  0  0  0  0  0  0  0  0  0  0  0
   34.5709   38.9477   20.5548 C   0  0  0  0  0  0  0  0  0  0  0  0
   34.8830   40.2457   20.8807 C   0  0  0  0  0  0  0  0  0  0  0  0
   35.5490   40.6138   21.9851 N   0  0  0  0  0  0  0  0  0  0  0  0
   35.9034   39.6041   22.7882 C   0  0  0  0  0  0  0  0  0  0  0  0
   35.6532   38.3003   22.5815 N   0  0  0  0  0  0  0  0  0  0  0  0
 18  1  1  0  0  0
  1  2  1  0  0  0
  1  5  2  0  0  0
  2  3  1  0  0  0
  3  4  2  0  0  0
  5  4  1  0  0  0
  4  7  1  0  0  0
  5 25  1  0  0  0
 19 18  2  0  0  0
 18 23  1  0  0  0
 30 25  2  0  0  0
 25 26  1  0  0  0
  7  8  1  0  0  0
  7 12  1  0  0  0
 20 19  1  0  0  0
 20 21  2  0  0  0
 24 21  1  0  0  0
 21 22  1  0  0  0
 22 23  2  0  0  0
 26 27  2  0  0  0
 28 27  1  0  0  0
 29 28  2  0  0  0
 30 29  1  0  0  0
  8  9  1  0  0  0
  9 10  1  0  0  0
 11 10  1  0  0  0
 10 13  1  0  0  0
 12 11  1  0  0  0
 14 13  2  0  0  0
 13 15  1  0  0  0
 15 16  1  0  0  0
  2  6  1  0  0  0
 16 17  1  0  0  0
M  END
> <minimizedAffinity>
-9.93984

$$$$
3HL7_I47_A_401


 30 33  0  0  0  0  0  0  0  0999 V2000
   35.6337   35.7922   19.6835 C   0  0  0  0  0  0  0  0  0  0  0  0
   35.2442   34.4871   19.7926 N   0  0  0  0  0  0  0  0  0  0  0  0
   34.6251   34.2054   20.9529 N   0  0  0  0  0  0  0  0  0  0  0  0
   34.6243   35.3563   21.6365 C   0  0  0  0  0  0  0  0  0  0  0  0
   35.2406   36.3884   20.8824 C   0  0  0  0  0  0  0  0  0  0  0  0
   35.4017   33.8168   19.0889 H   0  0  0  0  0  0  0  0  0  0  0  0
   34.0484   35.4526   23.0130 C   0  0  0  0  0  0  0  0  0  0  0  0
   35.0498   35.5283   24.1491 C   0  0  0  0  0  0  0  0  0  0  0  0
   34.3608   35.6393   25.5079 C   0  0  0  0  0  0  0  0  0  0  0  0
   33.3826   36.7062   25.5153 N   0  0  0  0  0  0  0  0  0  0  0  0
   32.4210   36.7659   24.4349 C   0  0  0  0  0  0  0  0  0  0  0  0
   33.0808   36.6218   23.0680 C   0  0  0  0  0  0  0  0  0  0  0  0
   33.3599   37.6350   26.5442 C   0  0  0  0  0  0  0  0  0  0  0  0
   34.3566   38.1161   27.0752 O   0  0  0  0  0  0  0  0  0  0  0  0
   31.9585   38.0034   26.9609 C   0  0  0  0  0  0  0  0  0  0  0  0
   31.6029   37.1575   28.0530 O   0  0  0  0  0  0  0  0  0  0  0  0
   31.6550   36.2300   27.7739 H   0  0  0  0  0  0  0  0  0  0  0  0
   36.2936   36.2743   18.4978 C   0  0  0  0  0  0  0  0  0  0  0  0
   37.6166   36.6590   18.5307 C   0  0  0  0  0  0  0  0  0  0  0  0
   38.2553   37.0721   17.3761 C   0  0  0  0  0  0  0  0  0  0  0  0
   37.5839   37.1139   16.1769 C   0  0  0  0  0  0  0  0  0  0  0  0
   36.2530   36.7523   16.1495 C   0  0  0  0  0  0  0  0  0  0  0  0
   35.6185   36.3391   17.2980 C   0  0  0  0  0  0  0  0  0  0  0  0
   38.3970   37.5854   14.7260 Cl  0  0  0  0  0  0  0  0  0  0  0  0
   35.3554   37.7888   21.2444 C   0  0  0  0  0  0  0  0  0  0  0  0
   36.0669   38.2068   22.3563 C   0  0  0  0  0  0  0  0  0  0  0  0
   36.0323   39.5563   22.6130 C   0  0  0  0  0  0  0  0  0  0  0  0
   35.3562   40.4532   21.8801 N   0  0  0  0  0  0  0  0  0  0  0  0
   34.6930   39.9391   20.8379 C   0  0  0  0  0  0  0  0  0  0  0  0
   34.6537   38.6439   20.4828 N   0  0  0  0  0  0  0  0  0  0  0  0
 18  1  1  0  0  0
  1  2  1  0  0  0
  1  5  2  0  0  0
  2  3  1  0  0  0
  3  4  2  0  0  0
  5  4  1  0  0  0
  4  7  1  0  0  0
  5 25  1  0  0  0
 19 18  2  0  0  0
 18 23  1  0  0  0
 30 25  2  0  0  0
 25 26  1  0  0  0
  7  8  1  0  0  0
  7 12  1  0  0  0
 20 19  1  0  0  0
 20 21  2  0  0  0
 24 21  1  0  0  0
 21 22  1  0  0  0
 22 23  2  0  0  0
 26 27  2  0  0  0
 28 27  1  0  0  0
 29 28  2  0  0  0
 30 29  1  0  0  0
  8  9  1  0  0  0
  9 10  1  0  0  0
 11 10  1  0  0  0
 10 13  1  0  0  0
 12 11  1  0  0  0
 14 13  2  0  0  0
 13 15  1  0  0  0
 15 16  1  0  0  0
  2  6  1  0  0  0
 16 17  1  0  0  0
M  END
> <minimizedAffinity>
-9.91369

$$$$
3HL7_I47_A_401


 30 33  0  0  0  0  0  0  0  0999 V2000
   35.0066   38.9660   23.8127 C   0  0  0  0  0  0  0  0  0  0  0  0
   35.6410   40.0519   23.2786 N   0  0  0  0  0  0  0  0  0  0  0  0
   35.9664   39.9014   21.9823 N   0  0  0  0  0  0  0  0  0  0  0  0
   35.5505   38.6709   21.6585 C   0  0  0  0  0  0  0  0  0  0  0  0
   34.9343   38.0407   22.7705 C   0  0  0  0  0  0  0  0  0  0  0  0
   35.8408   40.8668   23.7936 H   0  0  0  0  0  0  0  0  0  0  0  0
   35.7625   38.1038   20.2914 C   0  0  0  0  0  0  0  0  0  0  0  0
   36.4726   36.7654   20.2293 C   0  0  0  0  0  0  0  0  0  0  0  0
   36.6249   36.2686   18.7929 C   0  0  0  0  0  0  0  0  0  0  0  0
   35.3592   36.2949   18.0910 N   0  0  0  0  0  0  0  0  0  0  0  0
   34.5675   37.5057   18.1445 C   0  0  0  0  0  0  0  0  0  0  0  0
   34.4303   38.0418   19.5651 C   0  0  0  0  0  0  0  0  0  0  0  0
   34.9289   35.1911   17.3713 C   0  0  0  0  0  0  0  0  0  0  0  0
   35.0684   34.0249   17.7280 O   0  0  0  0  0  0  0  0  0  0  0  0
   34.2599   35.5703   16.0743 C   0  0  0  0  0  0  0  0  0  0  0  0
   33.1341   34.7101   15.9087 O   0  0  0  0  0  0  0  0  0  0  0  0
   33.4319   33.7870   15.8946 H   0  0  0  0  0  0  0  0  0  0  0  0
   34.5680   38.9615   25.1843 C   0  0  0  0  0  0  0  0  0  0  0  0
   33.2282   38.8889   25.4989 C   0  0  0  0  0  0  0  0  0  0  0  0
   32.8202   38.8337   26.8189 C   0  0  0  0  0  0  0  0  0  0  0  0
   33.7395   38.8570   27.8412 C   0  0  0  0  0  0  0  0  0  0  0  0
   35.0789   38.9547   27.5260 C   0  0  0  0  0  0  0  0  0  0  0  0
   35.4846   39.0072   26.2126 C   0  0  0  0  0  0  0  0  0  0  0  0
   33.2301   38.7403   29.4891 Cl  0  0  0  0  0  0  0  0  0  0  0  0
   34.2846   36.7434   22.7932 C   0  0  0  0  0  0  0  0  0  0  0  0
   32.9114   36.6047   22.6812 C   0  0  0  0  0  0  0  0  0  0  0  0
   32.4318   35.3213   22.7870 C   0  0  0  0  0  0  0  0  0  0  0  0
   33.1943   34.2393   23.0025 N   0  0  0  0  0  0  0  0  0  0  0  0
   34.5044   34.4895   23.1085 C   0  0  0  0  0  0  0  0  0  0  0  0
   35.0922   35.6944   23.0191 N   0  0  0  0  0  0  0  0  0  0  0  0
 18  1  1  0  0  0
  1  2  1  0  0  0
  1  5  2  0  0  0
  2  3  1  0  0  0
  3  4  2  0  0  0
  5  4  1  0  0  0
  4  7  1  0  0  0
  5 25  1  0  0  0
 19 18  2  0  0  0
 18 23  1  0  0  0
 30 25  2  0  0  0
 25 26  1  0  0  0
  7  8  1  0  0  0
  7 12  1  0  0  0
 20 19  1  0  0  0
 20 21  2  0  0  0
 24 21  1  0  0  0
 21 22  1  0  0  0
 22 23  2  0  0  0
 26 27  2  0  0  0
 28 27  1  0  0  0
 29 28  2  0  0  0
 30 29  1  0  0  0
  8  9  1  0  0  0
  9 10  1  0  0  0
 11 10  1  0  0  0
 10 13  1  0  0  0
 12 11  1  0  0  0
 14 13  2  0  0  0
 13 15  1  0  0  0
 15 16  1  0  0  0
  2  6  1  0  0  0
 16 17  1  0  0  0
M  END
> <minimizedAffinity>
-8.88209

$$$$
3HL7_I47_A_401


 30 33  0  0  0  0  0  0  0  0999 V2000
   35.3832   38.3483   20.6642 C   0  0  0  0  0  0  0  0  0  0  0  0
   35.6810   39.6816   20.6906 N   0  0  0  0  0  0  0  0  0  0  0  0
   35.4769   40.2549   21.8900 N   0  0  0  0  0  0  0  0  0  0  0  0
   35.0122   39.2728   22.6719 C   0  0  0  0  0  0  0  0  0  0  0  0
   34.9391   38.0513   21.9534 C   0  0  0  0  0  0  0  0  0  0  0  0
   36.0133   40.1755   19.9065 H   0  0  0  0  0  0  0  0  0  0  0  0
   34.6262   39.5174   24.0956 C   0  0  0  0  0  0  0  0  0  0  0  0
   33.2899   38.9472   24.5297 C   0  0  0  0  0  0  0  0  0  0  0  0
   32.9983   39.2384   26.0006 C   0  0  0  0  0  0  0  0  0  0  0  0
   34.1068   38.8443   26.8439 N   0  0  0  0  0  0  0  0  0  0  0  0
   35.4382   39.2794   26.4786 C   0  0  0  0  0  0  0  0  0  0  0  0
   35.7410   39.0316   25.0050 C   0  0  0  0  0  0  0  0  0  0  0  0
   33.8909   38.0840   27.9828 C   0  0  0  0  0  0  0  0  0  0  0  0
   33.0863   37.1606   28.0661 O   0  0  0  0  0  0  0  0  0  0  0  0
   34.7582   38.5137   29.1389 C   0  0  0  0  0  0  0  0  0  0  0  0
   34.1470   39.6609   29.7262 O   0  0  0  0  0  0  0  0  0  0  0  0
   34.0725   40.3635   29.0616 H   0  0  0  0  0  0  0  0  0  0  0  0
   35.5618   37.5704   19.4656 C   0  0  0  0  0  0  0  0  0  0  0  0
   34.5235   37.3898   18.5775 C   0  0  0  0  0  0  0  0  0  0  0  0
   34.7191   36.6841   17.4046 C   0  0  0  0  0  0  0  0  0  0  0  0
   35.9476   36.1443   17.1047 C   0  0  0  0  0  0  0  0  0  0  0  0
   36.9798   36.3043   18.0058 C   0  0  0  0  0  0  0  0  0  0  0  0
   36.7854   37.0085   19.1715 C   0  0  0  0  0  0  0  0  0  0  0  0
   36.2024   35.3031   15.6161 Cl  0  0  0  0  0  0  0  0  0  0  0  0
   34.5680   36.7491   22.4748 C   0  0  0  0  0  0  0  0  0  0  0  0
   33.3393   36.1702   22.2056 C   0  0  0  0  0  0  0  0  0  0  0  0
   33.1007   34.9653   22.8217 C   0  0  0  0  0  0  0  0  0  0  0  0
   33.9569   34.3528   23.6527 N   0  0  0  0  0  0  0  0  0  0  0  0
   35.1072   35.0061   23.8529 C   0  0  0  0  0  0  0  0  0  0  0  0
   35.4572   36.1828   23.3069 N   0  0  0  0  0  0  0  0  0  0  0  0
 18  1  1  0  0  0
  1  2  1  0  0  0
  1  5  2  0  0  0
  2  3  1  0  0  0
  3  4  2  0  0  0
  5  4  1  0  0  0
  4  7  1  0  0  0
  5 25  1  0  0  0
 19 18  2  0  0  0
 18 23  1  0  0  0
 30 25  2  0  0  0
 25 26  1  0  0  0
  7  8  1  0  0  0
  7 12  1  0  0  0
 20 19  1  0  0  0
 20 21  2  0  0  0
 24 21  1  0  0  0
 21 22  1  0  0  0
 22 23  2  0  0  0
 26 27  2  0  0  0
 28 27  1  0  0  0
 29 28  2  0  0  0
 30 29  1  0  0  0
  8  9  1  0  0  0
  9 10  1  0  0  0
 11 10  1  0  0  0
 10 13  1  0  0  0
 12 11  1  0  0  0
 14 13  2  0  0  0
 13 15  1  0  0  0
 15 16  1  0  0  0
  2  6  1  0  0  0
 16 17  1  0  0  0
M  END
> <minimizedAffinity>
-8.75525

$$$$
3HL7_I47_A_401


 30 33  0  0  0  0  0  0  0  0999 V2000
   32.8963   34.3403   23.1986 C   0  0  0  0  0  0  0  0  0  0  0  0
   33.2346   33.3623   22.3064 N   0  0  0  0  0  0  0  0  0  0  0  0
   33.9101   33.8196   21.2371 N   0  0  0  0  0  0  0  0  0  0  0  0
   34.0024   35.1422   21.4218 C   0  0  0  0  0  0  0  0  0  0  0  0
   33.3870   35.5225   22.6425 C   0  0  0  0  0  0  0  0  0  0  0  0
   33.0058   32.4133   22.4341 H   0  0  0  0  0  0  0  0  0  0  0  0
   34.6644   36.0317   20.4188 C   0  0  0  0  0  0  0  0  0  0  0  0
   35.8775   36.7987   20.9082 C   0  0  0  0  0  0  0  0  0  0  0  0
   36.4865   37.6631   19.8058 C   0  0  0  0  0  0  0  0  0  0  0  0
   36.7251   36.8914   18.6047 N   0  0  0  0  0  0  0  0  0  0  0  0
   35.6508   36.0684   18.0906 C   0  0  0  0  0  0  0  0  0  0  0  0
   35.0025   35.2213   19.1799 C   0  0  0  0  0  0  0  0  0  0  0  0
   37.9484   36.9567   17.9559 C   0  0  0  0  0  0  0  0  0  0  0  0
   39.0377   37.0097   18.5192 O   0  0  0  0  0  0  0  0  0  0  0  0
   37.8082   36.9603   16.4546 C   0  0  0  0  0  0  0  0  0  0  0  0
   38.8166   37.8251   15.9350 O   0  0  0  0  0  0  0  0  0  0  0  0
   38.6994   38.7154   16.3018 H   0  0  0  0  0  0  0  0  0  0  0  0
   32.1873   34.0265   24.4120 C   0  0  0  0  0  0  0  0  0  0  0  0
   31.1527   33.1161   24.4123 C   0  0  0  0  0  0  0  0  0  0  0  0
   30.5119   32.7836   25.5916 C   0  0  0  0  0  0  0  0  0  0  0  0
   30.8880   33.3579   26.7829 C   0  0  0  0  0  0  0  0  0  0  0  0
   31.9071   34.2876   26.7781 C   0  0  0  0  0  0  0  0  0  0  0  0
   32.5461   34.6163   25.6050 C   0  0  0  0  0  0  0  0  0  0  0  0
   30.1173   32.9058   28.2629 Cl  0  0  0  0  0  0  0  0  0  0  0  0
   33.3553   36.8480   23.2320 C   0  0  0  0  0  0  0  0  0  0  0  0
   34.4287   37.3676   23.9357 C   0  0  0  0  0  0  0  0  0  0  0  0
   34.2306   38.6072   24.4947 C   0  0  0  0  0  0  0  0  0  0  0  0
   33.0886   39.3055   24.4120 N   0  0  0  0  0  0  0  0  0  0  0  0
   32.1132   38.7043   23.7212 C   0  0  0  0  0  0  0  0  0  0  0  0
   32.1867   37.5014   23.1270 N   0  0  0  0  0  0  0  0  0  0  0  0
 18  1  1  0  0  0
  1  2  1  0  0  0
  1  5  2  0  0  0
  2  3  1  0  0  0
  3  4  2  0  0  0
  5  4  1  0  0  0
  4  7  1  0  0  0
  5 25  1  0  0  0
 19 18  2  0  0  0
 18 23  1  0  0  0
 30 25  2  0  0  0
 25 26  1  0  0  0
  7  8  1  0  0  0
  7 12  1  0  0  0
 20 19  1  0  0  0
 20 21  2  0  0  0
 24 21  1  0  0  0
 21 22  1  0  0  0
 22 23  2  0  0  0
 26 27  2  0  0  0
 28 27  1  0  0  0
 29 28  2  0  0  0
 30 29  1  0  0  0
  8  9  1  0  0  0
  9 10  1  0  0  0
 11 10  1  0  0  0
 10 13  1  0  0  0
 12 11  1  0  0  0
 14 13  2  0  0  0
 13 15  1  0  0  0
 15 16  1  0  0  0
  2  6  1  0  0  0
 16 17  1  0  0  0
M  END
> <minimizedAffinity>
-8.60664

$$$$
3HL7_I47_A_401


 30 33  0  0  0  0  0  0  0  0999 V2000
   35.4042   37.9090   22.2084 C   0  0  0  0  0  0  0  0  0  0  0  0
   36.6004   38.4959   22.5109 N   0  0  0  0  0  0  0  0  0  0  0  0
   36.6781   38.9370   23.7791 N   0  0  0  0  0  0  0  0  0  0  0  0
   35.4891   38.6487   24.3224 C   0  0  0  0  0  0  0  0  0  0  0  0
   34.6519   37.9963   23.3805 C   0  0  0  0  0  0  0  0  0  0  0  0
   37.3355   38.5872   21.8624 H   0  0  0  0  0  0  0  0  0  0  0  0
   35.1599   39.0162   25.7338 C   0  0  0  0  0  0  0  0  0  0  0  0
   35.0250   37.8617   26.7075 C   0  0  0  0  0  0  0  0  0  0  0  0
   34.7038   38.3443   28.1208 C   0  0  0  0  0  0  0  0  0  0  0  0
   35.6321   39.3687   28.5497 N   0  0  0  0  0  0  0  0  0  0  0  0
   35.8858   40.4833   27.6614 C   0  0  0  0  0  0  0  0  0  0  0  0
   36.1745   40.0288   26.2350 C   0  0  0  0  0  0  0  0  0  0  0  0
   36.2466   39.2891   29.7897 C   0  0  0  0  0  0  0  0  0  0  0  0
   36.6614   38.2528   30.3003 O   0  0  0  0  0  0  0  0  0  0  0  0
   36.3556   40.6307   30.4692 C   0  0  0  0  0  0  0  0  0  0  0  0
   35.0477   40.9930   30.9082 O   0  0  0  0  0  0  0  0  0  0  0  0
   34.4498   41.0321   30.1453 H   0  0  0  0  0  0  0  0  0  0  0  0
   35.1545   37.3618   20.9000 C   0  0  0  0  0  0  0  0  0  0  0  0
   35.0407   36.0013   20.7115 C   0  0  0  0  0  0  0  0  0  0  0  0
   34.7503   35.4889   19.4605 C   0  0  0  0  0  0  0  0  0  0  0  0
   34.5764   36.3231   18.3814 C   0  0  0  0  0  0  0  0  0  0  0  0
   34.7149   37.6831   18.5658 C   0  0  0  0  0  0  0  0  0  0  0  0
   35.0015   38.1927   19.8111 C   0  0  0  0  0  0  0  0  0  0  0  0
   34.1667   35.6836   16.8284 Cl  0  0  0  0  0  0  0  0  0  0  0  0
   33.3270   37.4529   23.6147 C   0  0  0  0  0  0  0  0  0  0  0  0
   32.1801   38.2120   23.4545 C   0  0  0  0  0  0  0  0  0  0  0  0
   31.0008   37.5848   23.7770 C   0  0  0  0  0  0  0  0  0  0  0  0
   30.9082   36.3288   24.2382 N   0  0  0  0  0  0  0  0  0  0  0  0
   32.0778   35.6921   24.3676 C   0  0  0  0  0  0  0  0  0  0  0  0
   33.2908   36.1944   24.0822 N   0  0  0  0  0  0  0  0  0  0  0  0
 18  1  1  0  0  0
  1  2  1  0  0  0
  1  5  2  0  0  0
  2  3  1  0  0  0
  3  4  2  0  0  0
  5  4  1  0  0  0
  4  7  1  0  0  0
  5 25  1  0  0  0
 19 18  2  0  0  0
 18 23  1  0  0  0
 30 25  2  0  0  0
 25 26  1  0  0  0
  7  8  1  0  0  0
  7 12  1  0  0  0
 20 19  1  0  0  0
 20 21  2  0  0  0
 24 21  1  0  0  0
 21 22  1  0  0  0
 22 23  2  0  0  0
 26 27  2  0  0  0
 28 27  1  0  0  0
 29 28  2  0  0  0
 30 29  1  0  0  0
  8  9  1  0  0  0
  9 10  1  0  0  0
 11 10  1  0  0  0
 10 13  1  0  0  0
 12 11  1  0  0  0
 14 13  2  0  0  0
 13 15  1  0  0  0
 15 16  1  0  0  0
  2  6  1  0  0  0
 16 17  1  0  0  0
M  END
> <minimizedAffinity>
-8.53151

$$$$
3HL7_I47_A_401


 30 33  0  0  0  0  0  0  0  0999 V2000
   33.2022   34.3628   22.2909 C   0  0  0  0  0  0  0  0  0  0  0  0
   33.3276   33.4596   21.2733 N   0  0  0  0  0  0  0  0  0  0  0  0
   34.0965   33.8947   20.2592 N   0  0  0  0  0  0  0  0  0  0  0  0
   34.4731   35.1300   20.6117 C   0  0  0  0  0  0  0  0  0  0  0  0
   33.9440   35.4723   21.8830 C   0  0  0  0  0  0  0  0  0  0  0  0
   32.8962   32.5747   21.2815 H   0  0  0  0  0  0  0  0  0  0  0  0
   35.3225   35.9775   19.7195 C   0  0  0  0  0  0  0  0  0  0  0  0
   36.7710   35.5516   19.5794 C   0  0  0  0  0  0  0  0  0  0  0  0
   37.5456   36.4714   18.6374 C   0  0  0  0  0  0  0  0  0  0  0  0
   36.8559   36.6316   17.3749 N   0  0  0  0  0  0  0  0  0  0  0  0
   35.4488   36.9710   17.3975 C   0  0  0  0  0  0  0  0  0  0  0  0
   34.6590   36.0891   18.3582 C   0  0  0  0  0  0  0  0  0  0  0  0
   37.5354   36.4806   16.1761 C   0  0  0  0  0  0  0  0  0  0  0  0
   38.3956   35.6318   15.9610 O   0  0  0  0  0  0  0  0  0  0  0  0
   37.1080   37.4868   15.1376 C   0  0  0  0  0  0  0  0  0  0  0  0
   38.2744   37.8715   14.4123 O   0  0  0  0  0  0  0  0  0  0  0  0
   38.9248   38.2511   15.0237 H   0  0  0  0  0  0  0  0  0  0  0  0
   32.4305   34.0551   23.4670 C   0  0  0  0  0  0  0  0  0  0  0  0
   31.5973   32.9578   23.5001 C   0  0  0  0  0  0  0  0  0  0  0  0
   30.8996   32.6419   24.6513 C   0  0  0  0  0  0  0  0  0  0  0  0
   31.0172   33.4174   25.7805 C   0  0  0  0  0  0  0  0  0  0  0  0
   31.8321   34.5297   25.7389 C   0  0  0  0  0  0  0  0  0  0  0  0
   32.5279   34.8423   24.5941 C   0  0  0  0  0  0  0  0  0  0  0  0
   30.1809   32.9940   27.2331 Cl  0  0  0  0  0  0  0  0  0  0  0  0
   34.1964   36.6846   22.6395 C   0  0  0  0  0  0  0  0  0  0  0  0
   33.3096   37.7479   22.6452 C   0  0  0  0  0  0  0  0  0  0  0  0
   33.7124   38.8557   23.3516 C   0  0  0  0  0  0  0  0  0  0  0  0
   34.8833   38.9625   23.9967 N   0  0  0  0  0  0  0  0  0  0  0  0
   35.6687   37.8824   23.9145 C   0  0  0  0  0  0  0  0  0  0  0  0
   35.3856   36.7432   23.2607 N   0  0  0  0  0  0  0  0  0  0  0  0
 18  1  1  0  0  0
  1  2  1  0  0  0
  1  5  2  0  0  0
  2  3  1  0  0  0
  3  4  2  0  0  0
  5  4  1  0  0  0
  4  7  1  0  0  0
  5 25  1  0  0  0
 19 18  2  0  0  0
 18 23  1  0  0  0
 30 25  2  0  0  0
 25 26  1  0  0  0
  7  8  1  0  0  0
  7 12  1  0  0  0
 20 19  1  0  0  0
 20 21  2  0  0  0
 24 21  1  0  0  0
 21 22  1  0  0  0
 22 23  2  0  0  0
 26 27  2  0  0  0
 28 27  1  0  0  0
 29 28  2  0  0  0
 30 29  1  0  0  0
  8  9  1  0  0  0
  9 10  1  0  0  0
 11 10  1  0  0  0
 10 13  1  0  0  0
 12 11  1  0  0  0
 14 13  2  0  0  0
 13 15  1  0  0  0
 15 16  1  0  0  0
  2  6  1  0  0  0
 16 17  1  0  0  0
M  END
> <minimizedAffinity>
-8.48996

$$$$
3HL7_I47_A_401


 30 33  0  0  0  0  0  0  0  0999 V2000
   35.4730   38.3707   24.1288 C   0  0  0  0  0  0  0  0  0  0  0  0
   36.5997   38.6295   23.4004 N   0  0  0  0  0  0  0  0  0  0  0  0
   36.4672   38.3587   22.0897 N   0  0  0  0  0  0  0  0  0  0  0  0
   35.2210   37.8889   21.9544 C   0  0  0  0  0  0  0  0  0  0  0  0
   34.5494   37.8808   23.2044 C   0  0  0  0  0  0  0  0  0  0  0  0
   37.4294   38.9807   23.7972 H   0  0  0  0  0  0  0  0  0  0  0  0
   34.6908   37.4362   20.6317 C   0  0  0  0  0  0  0  0  0  0  0  0
   35.1180   38.2544   19.4287 C   0  0  0  0  0  0  0  0  0  0  0  0
   34.5364   37.7010   18.1291 C   0  0  0  0  0  0  0  0  0  0  0  0
   34.7982   36.2834   17.9981 N   0  0  0  0  0  0  0  0  0  0  0  0
   34.4899   35.4201   19.1185 C   0  0  0  0  0  0  0  0  0  0  0  0
   35.0299   35.9692   20.4343 C   0  0  0  0  0  0  0  0  0  0  0  0
   35.3145   35.7676   16.8195 C   0  0  0  0  0  0  0  0  0  0  0  0
   36.1749   36.3127   16.1345 O   0  0  0  0  0  0  0  0  0  0  0  0
   34.6994   34.4417   16.4493 C   0  0  0  0  0  0  0  0  0  0  0  0
   33.3807   34.7027   15.9721 O   0  0  0  0  0  0  0  0  0  0  0  0
   32.8682   35.1474   16.6652 H   0  0  0  0  0  0  0  0  0  0  0  0
   35.4301   38.6217   25.5461 C   0  0  0  0  0  0  0  0  0  0  0  0
   34.9908   37.6541   26.4236 C   0  0  0  0  0  0  0  0  0  0  0  0
   35.0015   37.8869   27.7865 C   0  0  0  0  0  0  0  0  0  0  0  0
   35.4429   39.0869   28.2920 C   0  0  0  0  0  0  0  0  0  0  0  0
   35.8592   40.0641   27.4117 C   0  0  0  0  0  0  0  0  0  0  0  0
   35.8506   39.8313   26.0559 C   0  0  0  0  0  0  0  0  0  0  0  0
   35.5000   39.3585   29.9983 Cl  0  0  0  0  0  0  0  0  0  0  0  0
   33.1648   37.5247   23.4527 C   0  0  0  0  0  0  0  0  0  0  0  0
   32.1898   38.4785   23.6912 C   0  0  0  0  0  0  0  0  0  0  0  0
   30.9371   37.9911   23.9772 C   0  0  0  0  0  0  0  0  0  0  0  0
   30.6260   36.6887   24.0516 N   0  0  0  0  0  0  0  0  0  0  0  0
   31.6459   35.8550   23.8171 C   0  0  0  0  0  0  0  0  0  0  0  0
   32.9087   36.2083   23.5243 N   0  0  0  0  0  0  0  0  0  0  0  0
 18  1  1  0  0  0
  1  2  1  0  0  0
  1  5  2  0  0  0
  2  3  1  0  0  0
  3  4  2  0  0  0
  5  4  1  0  0  0
  4  7  1  0  0  0
  5 25  1  0  0  0
 19 18  2  0  0  0
 18 23  1  0  0  0
 30 25  2  0  0  0
 25 26  1  0  0  0
  7  8  1  0  0  0
  7 12  1  0  0  0
 20 19  1  0  0  0
 20 21  2  0  0  0
 24 21  1  0  0  0
 21 22  1  0  0  0
 22 23  2  0  0  0
 26 27  2  0  0  0
 28 27  1  0  0  0
 29 28  2  0  0  0
 30 29  1  0  0  0
  8  9  1  0  0  0
  9 10  1  0  0  0
 11 10  1  0  0  0
 10 13  1  0  0  0
 12 11  1  0  0  0
 14 13  2  0  0  0
 13 15  1  0  0  0
 15 16  1  0  0  0
  2  6  1  0  0  0
 16 17  1  0  0  0
M  END
> <minimizedAffinity>
-8.39341

$$$$
3HL7_I47_A_401


 30 33  0  0  0  0  0  0  0  0999 V2000
   35.3460   37.4287   21.5705 C   0  0  0  0  0  0  0  0  0  0  0  0
   35.9406   38.5252   22.1283 N   0  0  0  0  0  0  0  0  0  0  0  0
   35.6239   38.7093   23.4224 N   0  0  0  0  0  0  0  0  0  0  0  0
   34.7795   37.7142   23.7202 C   0  0  0  0  0  0  0  0  0  0  0  0
   34.5747   36.8759   22.5938 C   0  0  0  0  0  0  0  0  0  0  0  0
   36.5434   39.1234   21.6304 H   0  0  0  0  0  0  0  0  0  0  0  0
   34.1633   37.5854   25.0764 C   0  0  0  0  0  0  0  0  0  0  0  0
   34.8890   36.6808   26.0534 C   0  0  0  0  0  0  0  0  0  0  0  0
   34.1883   36.6306   27.4098 C   0  0  0  0  0  0  0  0  0  0  0  0
   33.9342   37.9614   27.9194 N   0  0  0  0  0  0  0  0  0  0  0  0
   33.3062   38.9262   27.0417 C   0  0  0  0  0  0  0  0  0  0  0  0
   33.9659   38.9700   25.6679 C   0  0  0  0  0  0  0  0  0  0  0  0
   34.2694   38.2932   29.2229 C   0  0  0  0  0  0  0  0  0  0  0  0
   35.2874   37.9227   29.8001 O   0  0  0  0  0  0  0  0  0  0  0  0
   33.2355   39.1717   29.8809 C   0  0  0  0  0  0  0  0  0  0  0  0
   32.6692   38.4285   30.9587 O   0  0  0  0  0  0  0  0  0  0  0  0
   32.2715   37.6131   30.6153 H   0  0  0  0  0  0  0  0  0  0  0  0
   35.5896   37.0687   20.1977 C   0  0  0  0  0  0  0  0  0  0  0  0
   36.7530   36.4283   19.8294 C   0  0  0  0  0  0  0  0  0  0  0  0
   36.9549   36.0412   18.5174 C   0  0  0  0  0  0  0  0  0  0  0  0
   36.0052   36.2926   17.5555 C   0  0  0  0  0  0  0  0  0  0  0  0
   34.8518   36.9557   17.9200 C   0  0  0  0  0  0  0  0  0  0  0  0
   34.6502   37.3385   19.2259 C   0  0  0  0  0  0  0  0  0  0  0  0
   36.2388   35.7660   15.9255 Cl  0  0  0  0  0  0  0  0  0  0  0  0
   33.7990   35.6506   22.5431 C   0  0  0  0  0  0  0  0  0  0  0  0
   34.2142   34.5449   21.8203 C   0  0  0  0  0  0  0  0  0  0  0  0
   33.3454   33.4802   21.8090 C   0  0  0  0  0  0  0  0  0  0  0  0
   32.1537   33.4639   22.4239 N   0  0  0  0  0  0  0  0  0  0  0  0
   31.8471   34.5884   23.0810 C   0  0  0  0  0  0  0  0  0  0  0  0
   32.6114   35.6899   23.1688 N   0  0  0  0  0  0  0  0  0  0  0  0
 18  1  1  0  0  0
  1  2  1  0  0  0
  1  5  2  0  0  0
  2  3  1  0  0  0
  3  4  2  0  0  0
  5  4  1  0  0  0
  4  7  1  0  0  0
  5 25  1  0  0  0
 19 18  2  0  0  0
 18 23  1  0  0  0
 30 25  2  0  0  0
 25 26  1  0  0  0
  7  8  1  0  0  0
  7 12  1  0  0  0
 20 19  1  0  0  0
 20 21  2  0  0  0
 24 21  1  0  0  0
 21 22  1  0  0  0
 22 23  2  0  0  0
 26 27  2  0  0  0
 28 27  1  0  0  0
 29 28  2  0  0  0
 30 29  1  0  0  0
  8  9  1  0  0  0
  9 10  1  0  0  0
 11 10  1  0  0  0
 10 13  1  0  0  0
 12 11  1  0  0  0
 14 13  2  0  0  0
 13 15  1  0  0  0
 15 16  1  0  0  0
  2  6  1  0  0  0
 16 17  1  0  0  0
M  END
> <minimizedAffinity>
-8.32762

$$$$
3HL7_I47_A_401


 30 33  0  0  0  0  0  0  0  0999 V2000
   35.3206   38.6601   24.0900 C   0  0  0  0  0  0  0  0  0  0  0  0
   36.1540   39.6211   24.5888 N   0  0  0  0  0  0  0  0  0  0  0  0
   36.1422   39.6996   25.9314 N   0  0  0  0  0  0  0  0  0  0  0  0
   35.2593   38.7747   26.3275 C   0  0  0  0  0  0  0  0  0  0  0  0
   34.7173   38.0876   25.2106 C   0  0  0  0  0  0  0  0  0  0  0  0
   36.7101   40.2009   24.0197 H   0  0  0  0  0  0  0  0  0  0  0  0
   34.9305   38.5693   27.7716 C   0  0  0  0  0  0  0  0  0  0  0  0
   35.8509   39.2493   28.7665 C   0  0  0  0  0  0  0  0  0  0  0  0
   35.4200   38.9900   30.2089 C   0  0  0  0  0  0  0  0  0  0  0  0
   34.0184   39.2959   30.4015 N   0  0  0  0  0  0  0  0  0  0  0  0
   33.0598   38.7514   29.4634 C   0  0  0  0  0  0  0  0  0  0  0  0
   33.4851   38.9664   28.0152 C   0  0  0  0  0  0  0  0  0  0  0  0
   33.6075   40.0768   31.4707 C   0  0  0  0  0  0  0  0  0  0  0  0
   34.2068   41.0634   31.8881 O   0  0  0  0  0  0  0  0  0  0  0  0
   32.3240   39.5830   32.0888 C   0  0  0  0  0  0  0  0  0  0  0  0
   31.3138   40.5480   31.8004 O   0  0  0  0  0  0  0  0  0  0  0  0
   31.5736   41.4075   32.1674 H   0  0  0  0  0  0  0  0  0  0  0  0
   35.2224   38.4240   22.6729 C   0  0  0  0  0  0  0  0  0  0  0  0
   35.5873   37.2108   22.1303 C   0  0  0  0  0  0  0  0  0  0  0  0
   35.4413   36.9766   20.7754 C   0  0  0  0  0  0  0  0  0  0  0  0
   34.9371   37.9484   19.9436 C   0  0  0  0  0  0  0  0  0  0  0  0
   34.5953   39.1709   20.4834 C   0  0  0  0  0  0  0  0  0  0  0  0
   34.7385   39.4028   21.8318 C   0  0  0  0  0  0  0  0  0  0  0  0
   34.7112   37.6373   18.2582 Cl  0  0  0  0  0  0  0  0  0  0  0  0
   33.7984   36.9648   25.2343 C   0  0  0  0  0  0  0  0  0  0  0  0
   34.2278   35.6653   25.4449 C   0  0  0  0  0  0  0  0  0  0  0  0
   33.2548   34.6975   25.3734 C   0  0  0  0  0  0  0  0  0  0  0  0
   31.9630   34.9357   25.1029 N   0  0  0  0  0  0  0  0  0  0  0  0
   31.6609   36.2237   24.9029 C   0  0  0  0  0  0  0  0  0  0  0  0
   32.5187   37.2568   24.9502 N   0  0  0  0  0  0  0  0  0  0  0  0
 18  1  1  0  0  0
  1  2  1  0  0  0
  1  5  2  0  0  0
  2  3  1  0  0  0
  3  4  2  0  0  0
  5  4  1  0  0  0
  4  7  1  0  0  0
  5 25  1  0  0  0
 19 18  2  0  0  0
 18 23  1  0  0  0
 30 25  2  0  0  0
 25 26  1  0  0  0
  7  8  1  0  0  0
  7 12  1  0  0  0
 20 19  1  0  0  0
 20 21  2  0  0  0
 24 21  1  0  0  0
 21 22  1  0  0  0
 22 23  2  0  0  0
 26 27  2  0  0  0
 28 27  1  0  0  0
 29 28  2  0  0  0
 30 29  1  0  0  0
  8  9  1  0  0  0
  9 10  1  0  0  0
 11 10  1  0  0  0
 10 13  1  0  0  0
 12 11  1  0  0  0
 14 13  2  0  0  0
 13 15  1  0  0  0
 15 16  1  0  0  0
  2  6  1  0  0  0
 16 17  1  0  0  0
M  END
> <minimizedAffinity>
-8.03296

$$$$
