4A4W_YFB_A_999


 32 33  0  0  0  0  0  0  0  0999 V2000
  -16.7487   19.5186  -10.2214 C   0  0  0  0  0  0  0  0  0  0  0  0
  -17.9796   20.0806   -9.8854 C   0  0  0  0  0  0  0  0  0  0  0  0
  -18.0963   21.3996   -9.4568 C   0  0  0  0  0  0  0  0  0  0  0  0
  -15.6237   20.3536  -10.0890 C   0  0  0  0  0  0  0  0  0  0  0  0
  -14.3835   19.8565  -10.3908 O   0  0  0  0  0  0  0  0  0  0  0  0
  -15.7256   21.6850   -9.6604 C   0  0  0  0  0  0  0  0  0  0  0  0
  -16.9840   22.2178   -9.3339 C   0  0  0  0  0  0  0  0  0  0  0  0
  -14.2917   18.9697  -10.6791 H   0  0  0  0  0  0  0  0  0  0  0  0
  -14.4281   22.5358   -9.5631 C   0  0  0  0  0  0  0  0  0  0  0  0
  -14.3362   23.5523  -10.3048 O   0  0  0  0  0  0  0  0  0  0  0  0
  -13.5444   22.1838   -8.7372 O   0  0  0  0  0  0  0  0  0  0  0  0
  -15.0288   23.7620  -10.9001 H   0  0  0  0  0  0  0  0  0  0  0  0
  -19.1081   19.3394   -9.9717 O   0  0  0  0  0  0  0  0  0  0  0  0
  -20.2498   20.1991   -9.8366 C   0  0  0  0  0  0  0  0  0  0  0  0
  -16.5964   18.0530  -10.7066 C   0  0  0  0  0  0  0  0  0  0  0  0
  -16.0361   17.6413  -13.1551 C   0  0  0  0  0  0  0  0  0  0  0  0
  -16.6188   17.5023  -14.5855 C   0  0  0  0  0  0  0  0  0  0  0  0
  -16.8905   17.9158  -12.0757 C   0  0  0  0  0  0  0  0  0  0  0  0
  -14.5117   17.4532  -12.9354 C   0  0  0  0  0  0  0  0  0  0  0  0
  -13.8565   16.4229  -13.8666 C   0  0  0  0  0  0  0  0  0  0  0  0
  -10.6040   14.4286  -12.9999 C   0  0  0  0  0  0  0  0  0  0  0  0
  -11.6884   15.0826  -13.8608 C   0  0  0  0  0  0  0  0  0  0  0  0
  -11.5098   14.9452  -15.3807 C   0  0  0  0  0  0  0  0  0  0  0  0
  -12.7458   15.8032  -13.2681 C   0  0  0  0  0  0  0  0  0  0  0  0
  -17.2747   23.6417   -8.8598 C   0  0  0  0  0  0  0  0  0  0  0  0
  -17.8739   23.6467   -7.4614 C   0  0  0  0  0  0  0  0  0  0  0  0
  -18.0065   25.0775   -6.9298 C   0  0  0  0  0  0  0  0  0  0  0  0
  -18.6777   26.0497   -7.6771 C   0  0  0  0  0  0  0  0  0  0  0  0
  -18.8025   27.3546   -7.1966 C   0  0  0  0  0  0  0  0  0  0  0  0
  -18.2450   27.6743   -5.9547 C   0  0  0  0  0  0  0  0  0  0  0  0
  -17.5770   26.7030   -5.2010 C   0  0  0  0  0  0  0  0  0  0  0  0
  -17.4553   25.4003   -5.6900 C   0  0  0  0  0  0  0  0  0  0  0  0
 21 22  1  0  0  0
 22 23  1  0  0  0
 22 24  2  0  0  0
 24 20  1  0  0  0
 20 19  1  0  0  0
 19 16  1  0  0  0
 16 17  1  0  0  0
 16 18  2  0  0  0
 18 15  1  0  0  0
 15  1  1  0  0  0
  1  2  1  0  0  0
  1  4  2  0  0  0
  2  3  2  0  0  0
  2 13  1  0  0  0
  3  7  1  0  0  0
 13 14  1  0  0  0
  4  5  1  0  0  0
  4  6  1  0  0  0
  6  9  1  0  0  0
  6  7  2  0  0  0
  9 10  1  0  0  0
  9 11  2  0  0  0
  7 25  1  0  0  0
 25 26  1  0  0  0
 26 27  1  0  0  0
 27 28  1  0  0  0
 27 32  2  0  0  0
 28 29  2  0  0  0
 29 30  1  0  0  0
 30 31  2  0  0  0
 31 32  1  0  0  0
  5  8  1  0  0  0
 10 12  1  0  0  0
M  END
> <minimizedAffinity>
-9.64569

$$$$
4A4W_YFB_A_999


 32 33  0  0  0  0  0  0  0  0999 V2000
  -15.0670   18.8790  -11.3495 C   0  0  0  0  0  0  0  0  0  0  0  0
  -14.0283   18.0618  -10.9057 C   0  0  0  0  0  0  0  0  0  0  0  0
  -13.3706   17.1771  -11.7554 C   0  0  0  0  0  0  0  0  0  0  0  0
  -15.4278   18.7508  -12.7038 C   0  0  0  0  0  0  0  0  0  0  0  0
  -16.4503   19.5165  -13.1981 O   0  0  0  0  0  0  0  0  0  0  0  0
  -14.7734   17.8655  -13.5725 C   0  0  0  0  0  0  0  0  0  0  0  0
  -13.7282   17.0602  -13.0897 C   0  0  0  0  0  0  0  0  0  0  0  0
  -16.9017   20.1149  -12.6358 H   0  0  0  0  0  0  0  0  0  0  0  0
  -15.2305   17.8074  -15.0572 C   0  0  0  0  0  0  0  0  0  0  0  0
  -14.3622   18.0222  -15.9471 O   0  0  0  0  0  0  0  0  0  0  0  0
  -16.4346   17.5287  -15.3002 O   0  0  0  0  0  0  0  0  0  0  0  0
  -13.4808   18.2253  -15.7023 H   0  0  0  0  0  0  0  0  0  0  0  0
  -13.6307   18.1144   -9.6136 O   0  0  0  0  0  0  0  0  0  0  0  0
  -12.3976   18.8445   -9.5278 C   0  0  0  0  0  0  0  0  0  0  0  0
  -15.8097   19.8759  -10.4215 C   0  0  0  0  0  0  0  0  0  0  0  0
  -18.1332   19.9399   -9.3843 C   0  0  0  0  0  0  0  0  0  0  0  0
  -19.3061   19.0827   -8.8417 C   0  0  0  0  0  0  0  0  0  0  0  0
  -16.9718   19.3130   -9.8627 C   0  0  0  0  0  0  0  0  0  0  0  0
  -18.2710   21.4852   -9.4090 C   0  0  0  0  0  0  0  0  0  0  0  0
  -17.9876   22.1712   -8.0648 C   0  0  0  0  0  0  0  0  0  0  0  0
  -15.8005   25.3830   -8.5218 C   0  0  0  0  0  0  0  0  0  0  0  0
  -16.1438   23.8937   -8.4257 C   0  0  0  0  0  0  0  0  0  0  0  0
  -14.9667   22.9226   -8.6064 C   0  0  0  0  0  0  0  0  0  0  0  0
  -17.4746   23.4690   -8.2335 C   0  0  0  0  0  0  0  0  0  0  0  0
  -12.9082   16.0528  -13.8956 C   0  0  0  0  0  0  0  0  0  0  0  0
  -12.1205   15.1254  -12.9824 C   0  0  0  0  0  0  0  0  0  0  0  0
  -10.6853   14.9503  -13.4892 C   0  0  0  0  0  0  0  0  0  0  0  0
  -10.3737   15.1990  -14.8291 C   0  0  0  0  0  0  0  0  0  0  0  0
   -9.0672   15.0422  -15.2957 C   0  0  0  0  0  0  0  0  0  0  0  0
   -8.0739   14.6320  -14.4008 C   0  0  0  0  0  0  0  0  0  0  0  0
   -8.3804   14.3872  -13.0577 C   0  0  0  0  0  0  0  0  0  0  0  0
   -9.6905   14.5449  -12.5996 C   0  0  0  0  0  0  0  0  0  0  0  0
 21 22  1  0  0  0
 22 23  1  0  0  0
 22 24  2  0  0  0
 24 20  1  0  0  0
 20 19  1  0  0  0
 19 16  1  0  0  0
 16 17  1  0  0  0
 16 18  2  0  0  0
 18 15  1  0  0  0
 15  1  1  0  0  0
  1  2  1  0  0  0
  1  4  2  0  0  0
  2  3  2  0  0  0
  2 13  1  0  0  0
  3  7  1  0  0  0
 13 14  1  0  0  0
  4  5  1  0  0  0
  4  6  1  0  0  0
  6  9  1  0  0  0
  6  7  2  0  0  0
  9 10  1  0  0  0
  9 11  2  0  0  0
  7 25  1  0  0  0
 25 26  1  0  0  0
 26 27  1  0  0  0
 27 28  1  0  0  0
 27 32  2  0  0  0
 28 29  2  0  0  0
 29 30  1  0  0  0
 30 31  2  0  0  0
 31 32  1  0  0  0
  5  8  1  0  0  0
 10 12  1  0  0  0
M  END
> <minimizedAffinity>
-9.37022

$$$$
4A4W_YFB_A_999


 32 33  0  0  0  0  0  0  0  0999 V2000
  -13.9447   22.2616   -9.6554 C   0  0  0  0  0  0  0  0  0  0  0  0
  -15.1774   21.6447   -9.8642 C   0  0  0  0  0  0  0  0  0  0  0  0
  -15.3039   20.2619   -9.9592 C   0  0  0  0  0  0  0  0  0  0  0  0
  -12.8280   21.4104   -9.5609 C   0  0  0  0  0  0  0  0  0  0  0  0
  -11.5863   21.9561   -9.3693 O   0  0  0  0  0  0  0  0  0  0  0  0
  -12.9398   20.0155   -9.6527 C   0  0  0  0  0  0  0  0  0  0  0  0
  -14.1998   19.4293   -9.8599 C   0  0  0  0  0  0  0  0  0  0  0  0
  -11.4879   22.8857   -9.3051 H   0  0  0  0  0  0  0  0  0  0  0  0
  -11.6514   19.1562   -9.5175 C   0  0  0  0  0  0  0  0  0  0  0  0
  -10.9969   19.2455   -8.4426 O   0  0  0  0  0  0  0  0  0  0  0  0
  -11.3360   18.3994  -10.4739 O   0  0  0  0  0  0  0  0  0  0  0  0
  -11.2832   19.8281   -7.7668 H   0  0  0  0  0  0  0  0  0  0  0  0
  -16.2980   22.3937   -9.9804 O   0  0  0  0  0  0  0  0  0  0  0  0
  -17.4403   21.5900   -9.6487 C   0  0  0  0  0  0  0  0  0  0  0  0
  -13.7816   23.8001   -9.5407 C   0  0  0  0  0  0  0  0  0  0  0  0
  -14.5959   25.1936   -7.5726 C   0  0  0  0  0  0  0  0  0  0  0  0
  -14.4279   25.4698   -6.0559 C   0  0  0  0  0  0  0  0  0  0  0  0
  -13.7874   24.2343   -8.2024 C   0  0  0  0  0  0  0  0  0  0  0  0
  -15.6754   25.9719   -8.3703 C   0  0  0  0  0  0  0  0  0  0  0  0
  -17.0762   25.3445   -8.3251 C   0  0  0  0  0  0  0  0  0  0  0  0
  -19.7163   27.6430   -6.5773 C   0  0  0  0  0  0  0  0  0  0  0  0
  -18.5821   26.6233   -6.7145 C   0  0  0  0  0  0  0  0  0  0  0  0
  -18.0293   26.0559   -5.3978 C   0  0  0  0  0  0  0  0  0  0  0  0
  -18.0635   26.2841   -7.9812 C   0  0  0  0  0  0  0  0  0  0  0  0
  -14.5009   17.9352   -9.9762 C   0  0  0  0  0  0  0  0  0  0  0  0
  -15.4643   17.6533  -11.1195 C   0  0  0  0  0  0  0  0  0  0  0  0
  -14.7217   17.6014  -12.4586 C   0  0  0  0  0  0  0  0  0  0  0  0
  -13.4759   16.9740  -12.5519 C   0  0  0  0  0  0  0  0  0  0  0  0
  -12.7956   16.9228  -13.7701 C   0  0  0  0  0  0  0  0  0  0  0  0
  -13.3804   17.5096  -14.8967 C   0  0  0  0  0  0  0  0  0  0  0  0
  -14.6296   18.1339  -14.8088 C   0  0  0  0  0  0  0  0  0  0  0  0
  -15.3025   18.1821  -13.5858 C   0  0  0  0  0  0  0  0  0  0  0  0
 21 22  1  0  0  0
 22 23  1  0  0  0
 22 24  2  0  0  0
 24 20  1  0  0  0
 20 19  1  0  0  0
 19 16  1  0  0  0
 16 17  1  0  0  0
 16 18  2  0  0  0
 18 15  1  0  0  0
 15  1  1  0  0  0
  1  2  1  0  0  0
  1  4  2  0  0  0
  2  3  2  0  0  0
  2 13  1  0  0  0
  3  7  1  0  0  0
 13 14  1  0  0  0
  4  5  1  0  0  0
  4  6  1  0  0  0
  6  9  1  0  0  0
  6  7  2  0  0  0
  9 10  1  0  0  0
  9 11  2  0  0  0
  7 25  1  0  0  0
 25 26  1  0  0  0
 26 27  1  0  0  0
 27 28  1  0  0  0
 27 32  2  0  0  0
 28 29  2  0  0  0
 29 30  1  0  0  0
 30 31  2  0  0  0
 31 32  1  0  0  0
  5  8  1  0  0  0
 10 12  1  0  0  0
M  END
> <minimizedAffinity>
-9.18836

$$$$
4A4W_YFB_A_999


 32 33  0  0  0  0  0  0  0  0999 V2000
  -14.9427   19.2381  -11.1700 C   0  0  0  0  0  0  0  0  0  0  0  0
  -13.9082   18.4749  -10.6307 C   0  0  0  0  0  0  0  0  0  0  0  0
  -13.3469   17.4022  -11.3174 C   0  0  0  0  0  0  0  0  0  0  0  0
  -15.4025   18.8559  -12.4440 C   0  0  0  0  0  0  0  0  0  0  0  0
  -16.4265   19.5577  -13.0230 O   0  0  0  0  0  0  0  0  0  0  0  0
  -14.8459   17.7790  -13.1490 C   0  0  0  0  0  0  0  0  0  0  0  0
  -13.8017   17.0349  -12.5745 C   0  0  0  0  0  0  0  0  0  0  0  0
  -16.8135   20.2810  -12.5702 H   0  0  0  0  0  0  0  0  0  0  0  0
  -15.4080   17.4438  -14.5591 C   0  0  0  0  0  0  0  0  0  0  0  0
  -16.4405   16.7213  -14.6223 O   0  0  0  0  0  0  0  0  0  0  0  0
  -14.8218   17.9248  -15.5649 O   0  0  0  0  0  0  0  0  0  0  0  0
  -16.8313   16.3928  -13.8366 H   0  0  0  0  0  0  0  0  0  0  0  0
  -13.4191   18.7685   -9.4039 O   0  0  0  0  0  0  0  0  0  0  0  0
  -12.0005   18.9685   -9.4961 C   0  0  0  0  0  0  0  0  0  0  0  0
  -15.5789   20.4409  -10.4248 C   0  0  0  0  0  0  0  0  0  0  0  0
  -17.7505   20.9319   -9.1913 C   0  0  0  0  0  0  0  0  0  0  0  0
  -19.0935   20.3346   -8.6970 C   0  0  0  0  0  0  0  0  0  0  0  0
  -16.8290   20.1163   -9.8669 C   0  0  0  0  0  0  0  0  0  0  0  0
  -17.4537   22.4352   -8.9480 C   0  0  0  0  0  0  0  0  0  0  0  0
  -18.0006   22.9859   -7.6231 C   0  0  0  0  0  0  0  0  0  0  0  0
  -18.9837   26.7501   -7.2078 C   0  0  0  0  0  0  0  0  0  0  0  0
  -18.3175   25.4076   -6.8935 C   0  0  0  0  0  0  0  0  0  0  0  0
  -17.4425   25.3740   -5.6308 C   0  0  0  0  0  0  0  0  0  0  0  0
  -18.4745   24.3027   -7.7555 C   0  0  0  0  0  0  0  0  0  0  0  0
  -13.0803   15.8427  -13.2029 C   0  0  0  0  0  0  0  0  0  0  0  0
  -12.0334   16.2980  -14.2085 C   0  0  0  0  0  0  0  0  0  0  0  0
  -10.6870   15.6180  -13.9401 C   0  0  0  0  0  0  0  0  0  0  0  0
   -9.8293   15.3061  -14.9991 C   0  0  0  0  0  0  0  0  0  0  0  0
   -8.6007   14.6876  -14.7598 C   0  0  0  0  0  0  0  0  0  0  0  0
   -8.2410   14.3847  -13.4428 C   0  0  0  0  0  0  0  0  0  0  0  0
   -9.0941   14.7000  -12.3795 C   0  0  0  0  0  0  0  0  0  0  0  0
  -10.3222   15.3172  -12.6280 C   0  0  0  0  0  0  0  0  0  0  0  0
 21 22  1  0  0  0
 22 23  1  0  0  0
 22 24  2  0  0  0
 24 20  1  0  0  0
 20 19  1  0  0  0
 19 16  1  0  0  0
 16 17  1  0  0  0
 16 18  2  0  0  0
 18 15  1  0  0  0
 15  1  1  0  0  0
  1  2  1  0  0  0
  1  4  2  0  0  0
  2  3  2  0  0  0
  2 13  1  0  0  0
  3  7  1  0  0  0
 13 14  1  0  0  0
  4  5  1  0  0  0
  4  6  1  0  0  0
  6  9  1  0  0  0
  6  7  2  0  0  0
  9 10  1  0  0  0
  9 11  2  0  0  0
  7 25  1  0  0  0
 25 26  1  0  0  0
 26 27  1  0  0  0
 27 28  1  0  0  0
 27 32  2  0  0  0
 28 29  2  0  0  0
 29 30  1  0  0  0
 30 31  2  0  0  0
 31 32  1  0  0  0
  5  8  1  0  0  0
 10 12  1  0  0  0
M  END
> <minimizedAffinity>
-9.09554

$$$$
4A4W_YFB_A_999


 32 33  0  0  0  0  0  0  0  0999 V2000
  -15.8387   19.6084  -10.1646 C   0  0  0  0  0  0  0  0  0  0  0  0
  -14.5229   20.0163   -9.9499 C   0  0  0  0  0  0  0  0  0  0  0  0
  -14.2156   21.2516   -9.3872 C   0  0  0  0  0  0  0  0  0  0  0  0
  -16.8439   20.5214   -9.7953 C   0  0  0  0  0  0  0  0  0  0  0  0
  -18.1570   20.1855   -9.9933 O   0  0  0  0  0  0  0  0  0  0  0  0
  -16.5501   21.7687   -9.2255 C   0  0  0  0  0  0  0  0  0  0  0  0
  -15.2116   22.1437   -9.0210 C   0  0  0  0  0  0  0  0  0  0  0  0
  -18.3767   19.3574  -10.3726 H   0  0  0  0  0  0  0  0  0  0  0  0
  -17.7292   22.7026   -8.8327 C   0  0  0  0  0  0  0  0  0  0  0  0
  -17.9820   23.6787   -9.5911 O   0  0  0  0  0  0  0  0  0  0  0  0
  -18.3861   22.4291   -7.7933 O   0  0  0  0  0  0  0  0  0  0  0  0
  -17.4556   23.8300  -10.3513 H   0  0  0  0  0  0  0  0  0  0  0  0
  -13.4977   19.2020  -10.2911 O   0  0  0  0  0  0  0  0  0  0  0  0
  -12.3938   19.4344   -9.4033 C   0  0  0  0  0  0  0  0  0  0  0  0
  -16.2039   18.2342  -10.7849 C   0  0  0  0  0  0  0  0  0  0  0  0
  -15.3086   17.7699  -13.1219 C   0  0  0  0  0  0  0  0  0  0  0  0
  -15.5847   17.9183  -14.6406 C   0  0  0  0  0  0  0  0  0  0  0  0
  -16.2282   18.2783  -12.1910 C   0  0  0  0  0  0  0  0  0  0  0  0
  -14.0226   17.0395  -12.6525 C   0  0  0  0  0  0  0  0  0  0  0  0
  -13.3660   16.1554  -13.7226 C   0  0  0  0  0  0  0  0  0  0  0  0
   -9.8732   14.4345  -13.3400 C   0  0  0  0  0  0  0  0  0  0  0  0
  -11.1312   14.9688  -14.0305 C   0  0  0  0  0  0  0  0  0  0  0  0
  -11.1958   14.7680  -15.5525 C   0  0  0  0  0  0  0  0  0  0  0  0
  -12.1280   15.6441  -13.2963 C   0  0  0  0  0  0  0  0  0  0  0  0
  -14.7164   23.4543   -8.4095 C   0  0  0  0  0  0  0  0  0  0  0  0
  -14.4246   24.4900   -9.4850 C   0  0  0  0  0  0  0  0  0  0  0  0
  -12.9182   24.5998   -9.7423 C   0  0  0  0  0  0  0  0  0  0  0  0
  -12.0690   25.1153   -8.7588 C   0  0  0  0  0  0  0  0  0  0  0  0
  -10.6955   25.2163   -8.9878 C   0  0  0  0  0  0  0  0  0  0  0  0
  -10.1818   24.7931  -10.2177 C   0  0  0  0  0  0  0  0  0  0  0  0
  -11.0275   24.2716  -11.2028 C   0  0  0  0  0  0  0  0  0  0  0  0
  -12.4007   24.1757  -10.9661 C   0  0  0  0  0  0  0  0  0  0  0  0
 21 22  1  0  0  0
 22 23  1  0  0  0
 22 24  2  0  0  0
 24 20  1  0  0  0
 20 19  1  0  0  0
 19 16  1  0  0  0
 16 17  1  0  0  0
 16 18  2  0  0  0
 18 15  1  0  0  0
 15  1  1  0  0  0
  1  2  1  0  0  0
  1  4  2  0  0  0
  2  3  2  0  0  0
  2 13  1  0  0  0
  3  7  1  0  0  0
 13 14  1  0  0  0
  4  5  1  0  0  0
  4  6  1  0  0  0
  6  9  1  0  0  0
  6  7  2  0  0  0
  9 10  1  0  0  0
  9 11  2  0  0  0
  7 25  1  0  0  0
 25 26  1  0  0  0
 26 27  1  0  0  0
 27 28  1  0  0  0
 27 32  2  0  0  0
 28 29  2  0  0  0
 29 30  1  0  0  0
 30 31  2  0  0  0
 31 32  1  0  0  0
  5  8  1  0  0  0
 10 12  1  0  0  0
M  END
> <minimizedAffinity>
-8.97007

$$$$
4A4W_YFB_A_999


 32 33  0  0  0  0  0  0  0  0999 V2000
  -17.3938   22.5693   -8.1644 C   0  0  0  0  0  0  0  0  0  0  0  0
  -18.0430   21.5737   -8.8930 C   0  0  0  0  0  0  0  0  0  0  0  0
  -17.4006   20.8571   -9.8985 C   0  0  0  0  0  0  0  0  0  0  0  0
  -16.0537   22.8238   -8.5107 C   0  0  0  0  0  0  0  0  0  0  0  0
  -15.3642   23.7996   -7.8409 O   0  0  0  0  0  0  0  0  0  0  0  0
  -15.3923   22.1089   -9.5199 C   0  0  0  0  0  0  0  0  0  0  0  0
  -16.0786   21.1098  -10.2305 C   0  0  0  0  0  0  0  0  0  0  0  0
  -15.7861   24.2899   -7.1629 H   0  0  0  0  0  0  0  0  0  0  0  0
  -13.9051   22.4487   -9.8187 C   0  0  0  0  0  0  0  0  0  0  0  0
  -13.6608   23.5239  -10.4319 O   0  0  0  0  0  0  0  0  0  0  0  0
  -13.0182   21.6493   -9.4172 O   0  0  0  0  0  0  0  0  0  0  0  0
  -14.3654   24.0777  -10.7055 H   0  0  0  0  0  0  0  0  0  0  0  0
  -19.3371   21.2782   -8.6311 O   0  0  0  0  0  0  0  0  0  0  0  0
  -19.5100   19.8533   -8.6515 C   0  0  0  0  0  0  0  0  0  0  0  0
  -18.0886   23.3761   -7.0362 C   0  0  0  0  0  0  0  0  0  0  0  0
  -18.3844   25.8827   -6.7074 C   0  0  0  0  0  0  0  0  0  0  0  0
  -18.7485   27.2206   -7.4018 C   0  0  0  0  0  0  0  0  0  0  0  0
  -18.4057   24.6859   -7.4407 C   0  0  0  0  0  0  0  0  0  0  0  0
  -17.9800   25.8910   -5.2095 C   0  0  0  0  0  0  0  0  0  0  0  0
  -17.0651   27.0554   -4.8034 C   0  0  0  0  0  0  0  0  0  0  0  0
  -14.3260   25.7854   -2.3150 C   0  0  0  0  0  0  0  0  0  0  0  0
  -14.9998   26.1023   -3.6531 C   0  0  0  0  0  0  0  0  0  0  0  0
  -14.1931   25.7426   -4.9104 C   0  0  0  0  0  0  0  0  0  0  0  0
  -16.2607   26.7321   -3.6969 C   0  0  0  0  0  0  0  0  0  0  0  0
  -15.5116   20.2356  -11.3490 C   0  0  0  0  0  0  0  0  0  0  0  0
  -15.1776   18.8400  -10.8437 C   0  0  0  0  0  0  0  0  0  0  0  0
  -14.7596   17.9264  -12.0004 C   0  0  0  0  0  0  0  0  0  0  0  0
  -13.5028   17.3143  -11.9988 C   0  0  0  0  0  0  0  0  0  0  0  0
  -13.1175   16.4799  -13.0498 C   0  0  0  0  0  0  0  0  0  0  0  0
  -14.0093   16.2658  -14.1054 C   0  0  0  0  0  0  0  0  0  0  0  0
  -15.2703   16.8723  -14.1083 C   0  0  0  0  0  0  0  0  0  0  0  0
  -15.6470   17.7069  -13.0537 C   0  0  0  0  0  0  0  0  0  0  0  0
 21 22  1  0  0  0
 22 23  1  0  0  0
 22 24  2  0  0  0
 24 20  1  0  0  0
 20 19  1  0  0  0
 19 16  1  0  0  0
 16 17  1  0  0  0
 16 18  2  0  0  0
 18 15  1  0  0  0
 15  1  1  0  0  0
  1  2  1  0  0  0
  1  4  2  0  0  0
  2  3  2  0  0  0
  2 13  1  0  0  0
  3  7  1  0  0  0
 13 14  1  0  0  0
  4  5  1  0  0  0
  4  6  1  0  0  0
  6  9  1  0  0  0
  6  7  2  0  0  0
  9 10  1  0  0  0
  9 11  2  0  0  0
  7 25  1  0  0  0
 25 26  1  0  0  0
 26 27  1  0  0  0
 27 28  1  0  0  0
 27 32  2  0  0  0
 28 29  2  0  0  0
 29 30  1  0  0  0
 30 31  2  0  0  0
 31 32  1  0  0  0
  5  8  1  0  0  0
 10 12  1  0  0  0
M  END
> <minimizedAffinity>
-8.95855

$$$$
4A4W_YFB_A_999


 32 33  0  0  0  0  0  0  0  0999 V2000
  -15.1468   22.6653   -9.4944 C   0  0  0  0  0  0  0  0  0  0  0  0
  -16.2852   21.9290   -9.8192 C   0  0  0  0  0  0  0  0  0  0  0  0
  -16.2423   20.5518  -10.0154 C   0  0  0  0  0  0  0  0  0  0  0  0
  -13.9438   21.9424   -9.3901 C   0  0  0  0  0  0  0  0  0  0  0  0
  -12.7871   22.6104   -9.0867 O   0  0  0  0  0  0  0  0  0  0  0  0
  -13.8851   20.5546   -9.5830 C   0  0  0  0  0  0  0  0  0  0  0  0
  -15.0543   19.8456   -9.9058 C   0  0  0  0  0  0  0  0  0  0  0  0
  -12.8027   23.5378   -8.9536 H   0  0  0  0  0  0  0  0  0  0  0  0
  -12.5130   19.8402   -9.4283 C   0  0  0  0  0  0  0  0  0  0  0  0
  -12.5197   18.5950   -9.2256 O   0  0  0  0  0  0  0  0  0  0  0  0
  -11.4653   20.5315   -9.5339 O   0  0  0  0  0  0  0  0  0  0  0  0
  -13.3336   18.1359   -9.1562 H   0  0  0  0  0  0  0  0  0  0  0  0
  -17.4788   22.5519   -9.9523 O   0  0  0  0  0  0  0  0  0  0  0  0
  -18.4823   21.8063   -9.2466 C   0  0  0  0  0  0  0  0  0  0  0  0
  -15.1728   24.1995   -9.2658 C   0  0  0  0  0  0  0  0  0  0  0  0
  -15.7922   25.0078   -6.9331 C   0  0  0  0  0  0  0  0  0  0  0  0
  -16.9627   25.3895   -5.9902 C   0  0  0  0  0  0  0  0  0  0  0  0
  -16.0612   24.5661   -8.2382 C   0  0  0  0  0  0  0  0  0  0  0  0
  -14.3329   25.1404   -6.4229 C   0  0  0  0  0  0  0  0  0  0  0  0
  -14.1201   26.2510   -5.3841 C   0  0  0  0  0  0  0  0  0  0  0  0
  -14.1346   25.3396   -1.5792 C   0  0  0  0  0  0  0  0  0  0  0  0
  -14.5986   25.9676   -2.8966 C   0  0  0  0  0  0  0  0  0  0  0  0
  -15.8850   26.8048   -2.8224 C   0  0  0  0  0  0  0  0  0  0  0  0
  -13.8967   25.7325   -4.0968 C   0  0  0  0  0  0  0  0  0  0  0  0
  -15.1702   18.3397  -10.1414 C   0  0  0  0  0  0  0  0  0  0  0  0
  -15.8894   18.0388  -11.4479 C   0  0  0  0  0  0  0  0  0  0  0  0
  -14.8858   17.7709  -12.5741 C   0  0  0  0  0  0  0  0  0  0  0  0
  -15.1631   18.1832  -13.8807 C   0  0  0  0  0  0  0  0  0  0  0  0
  -14.2514   17.9426  -14.9103 C   0  0  0  0  0  0  0  0  0  0  0  0
  -13.0550   17.2820  -14.6138 C   0  0  0  0  0  0  0  0  0  0  0  0
  -12.7711   16.8723  -13.3064 C   0  0  0  0  0  0  0  0  0  0  0  0
  -13.6896   17.1156  -12.2826 C   0  0  0  0  0  0  0  0  0  0  0  0
 21 22  1  0  0  0
 22 23  1  0  0  0
 22 24  2  0  0  0
 24 20  1  0  0  0
 20 19  1  0  0  0
 19 16  1  0  0  0
 16 17  1  0  0  0
 16 18  2  0  0  0
 18 15  1  0  0  0
 15  1  1  0  0  0
  1  2  1  0  0  0
  1  4  2  0  0  0
  2  3  2  0  0  0
  2 13  1  0  0  0
  3  7  1  0  0  0
 13 14  1  0  0  0
  4  5  1  0  0  0
  4  6  1  0  0  0
  6  9  1  0  0  0
  6  7  2  0  0  0
  9 10  1  0  0  0
  9 11  2  0  0  0
  7 25  1  0  0  0
 25 26  1  0  0  0
 26 27  1  0  0  0
 27 28  1  0  0  0
 27 32  2  0  0  0
 28 29  2  0  0  0
 29 30  1  0  0  0
 30 31  2  0  0  0
 31 32  1  0  0  0
  5  8  1  0  0  0
 10 12  1  0  0  0
M  END
> <minimizedAffinity>
-8.80141

$$$$
4A4W_YFB_A_999


 32 33  0  0  0  0  0  0  0  0999 V2000
  -15.1795   23.6039   -7.9931 C   0  0  0  0  0  0  0  0  0  0  0  0
  -14.1898   23.1164   -8.8455 C   0  0  0  0  0  0  0  0  0  0  0  0
  -14.4509   22.1292   -9.7912 C   0  0  0  0  0  0  0  0  0  0  0  0
  -16.4582   23.0321   -8.1289 C   0  0  0  0  0  0  0  0  0  0  0  0
  -17.4710   23.4586   -7.3112 O   0  0  0  0  0  0  0  0  0  0  0  0
  -16.7371   22.0383   -9.0782 C   0  0  0  0  0  0  0  0  0  0  0  0
  -15.7146   21.5744   -9.9227 C   0  0  0  0  0  0  0  0  0  0  0  0
  -17.3075   24.1217   -6.6696 H   0  0  0  0  0  0  0  0  0  0  0  0
  -18.1854   21.4801   -9.1661 C   0  0  0  0  0  0  0  0  0  0  0  0
  -19.0670   22.2162   -9.6885 O   0  0  0  0  0  0  0  0  0  0  0  0
  -18.4038   20.3173   -8.7338 O   0  0  0  0  0  0  0  0  0  0  0  0
  -18.8418   23.0737   -9.9917 H   0  0  0  0  0  0  0  0  0  0  0  0
  -12.9301   23.6040   -8.7686 O   0  0  0  0  0  0  0  0  0  0  0  0
  -12.1650   23.1139   -9.8800 C   0  0  0  0  0  0  0  0  0  0  0  0
  -14.9120   24.7074   -6.9360 C   0  0  0  0  0  0  0  0  0  0  0  0
  -16.0526   26.9584   -7.2690 C   0  0  0  0  0  0  0  0  0  0  0  0
  -15.9535   28.3424   -7.9614 C   0  0  0  0  0  0  0  0  0  0  0  0
  -15.0476   26.0000   -7.4749 C   0  0  0  0  0  0  0  0  0  0  0  0
  -17.2575   26.6603   -6.3380 C   0  0  0  0  0  0  0  0  0  0  0  0
  -17.2035   27.3731   -4.9789 C   0  0  0  0  0  0  0  0  0  0  0  0
  -14.5432   25.8172   -2.5686 C   0  0  0  0  0  0  0  0  0  0  0  0
  -15.1526   26.7898   -3.5823 C   0  0  0  0  0  0  0  0  0  0  0  0
  -14.2470   27.9496   -4.0250 C   0  0  0  0  0  0  0  0  0  0  0  0
  -16.4824   26.6343   -4.0250 C   0  0  0  0  0  0  0  0  0  0  0  0
  -15.8454   20.5082  -11.0103 C   0  0  0  0  0  0  0  0  0  0  0  0
  -15.4331   19.1381  -10.4931 C   0  0  0  0  0  0  0  0  0  0  0  0
  -14.9400   18.2482  -11.6386 C   0  0  0  0  0  0  0  0  0  0  0  0
  -13.6776   17.6509  -11.5764 C   0  0  0  0  0  0  0  0  0  0  0  0
  -13.2240   16.8381  -12.6170 C   0  0  0  0  0  0  0  0  0  0  0  0
  -14.0532   16.6305  -13.7238 C   0  0  0  0  0  0  0  0  0  0  0  0
  -15.3195   17.2222  -13.7877 C   0  0  0  0  0  0  0  0  0  0  0  0
  -15.7648   18.0353  -12.7430 C   0  0  0  0  0  0  0  0  0  0  0  0
 21 22  1  0  0  0
 22 23  1  0  0  0
 22 24  2  0  0  0
 24 20  1  0  0  0
 20 19  1  0  0  0
 19 16  1  0  0  0
 16 17  1  0  0  0
 16 18  2  0  0  0
 18 15  1  0  0  0
 15  1  1  0  0  0
  1  2  1  0  0  0
  1  4  2  0  0  0
  2  3  2  0  0  0
  2 13  1  0  0  0
  3  7  1  0  0  0
 13 14  1  0  0  0
  4  5  1  0  0  0
  4  6  1  0  0  0
  6  9  1  0  0  0
  6  7  2  0  0  0
  9 10  1  0  0  0
  9 11  2  0  0  0
  7 25  1  0  0  0
 25 26  1  0  0  0
 26 27  1  0  0  0
 27 28  1  0  0  0
 27 32  2  0  0  0
 28 29  2  0  0  0
 29 30  1  0  0  0
 30 31  2  0  0  0
 31 32  1  0  0  0
  5  8  1  0  0  0
 10 12  1  0  0  0
M  END
> <minimizedAffinity>
-8.78883

$$$$
4A4W_YFB_A_999


 32 33  0  0  0  0  0  0  0  0999 V2000
  -16.7234   23.5480   -8.9126 C   0  0  0  0  0  0  0  0  0  0  0  0
  -15.5309   22.9850   -9.3653 C   0  0  0  0  0  0  0  0  0  0  0  0
  -15.4397   21.6455   -9.7321 C   0  0  0  0  0  0  0  0  0  0  0  0
  -17.8309   22.6836   -8.8307 C   0  0  0  0  0  0  0  0  0  0  0  0
  -19.0284   23.1728   -8.3803 O   0  0  0  0  0  0  0  0  0  0  0  0
  -17.7550   21.3324   -9.1985 C   0  0  0  0  0  0  0  0  0  0  0  0
  -16.5365   20.8012   -9.6537 C   0  0  0  0  0  0  0  0  0  0  0  0
  -19.1022   24.0725   -8.1291 H   0  0  0  0  0  0  0  0  0  0  0  0
  -19.0372   20.4599   -9.0913 C   0  0  0  0  0  0  0  0  0  0  0  0
  -19.9309   20.6206   -9.9672 O   0  0  0  0  0  0  0  0  0  0  0  0
  -19.1127   19.6233   -8.1526 O   0  0  0  0  0  0  0  0  0  0  0  0
  -19.8161   21.2607  -10.6418 H   0  0  0  0  0  0  0  0  0  0  0  0
  -14.4162   23.7458   -9.4592 O   0  0  0  0  0  0  0  0  0  0  0  0
  -13.2840   22.8974   -9.7026 C   0  0  0  0  0  0  0  0  0  0  0  0
  -16.8489   25.0393   -8.5041 C   0  0  0  0  0  0  0  0  0  0  0  0
  -17.4160   25.6701   -6.1042 C   0  0  0  0  0  0  0  0  0  0  0  0
  -16.8711   25.7766   -4.6563 C   0  0  0  0  0  0  0  0  0  0  0  0
  -16.5713   25.2391   -7.1393 C   0  0  0  0  0  0  0  0  0  0  0  0
  -18.9006   26.0240   -6.3841 C   0  0  0  0  0  0  0  0  0  0  0  0
  -19.2314   27.5190   -6.2681 C   0  0  0  0  0  0  0  0  0  0  0  0
  -17.2693   29.8833   -8.6905 C   0  0  0  0  0  0  0  0  0  0  0  0
  -17.6088   29.1220   -7.4059 C   0  0  0  0  0  0  0  0  0  0  0  0
  -16.6382   29.3239   -6.2319 C   0  0  0  0  0  0  0  0  0  0  0  0
  -18.7211   28.2570   -7.3502 C   0  0  0  0  0  0  0  0  0  0  0  0
  -16.2806   19.3615  -10.0990 C   0  0  0  0  0  0  0  0  0  0  0  0
  -16.6415   19.1639  -11.5637 C   0  0  0  0  0  0  0  0  0  0  0  0
  -15.6165   18.2642  -12.2616 C   0  0  0  0  0  0  0  0  0  0  0  0
  -14.4049   17.9559  -11.6361 C   0  0  0  0  0  0  0  0  0  0  0  0
  -13.4680   17.1354  -12.2673 C   0  0  0  0  0  0  0  0  0  0  0  0
  -13.7608   16.6262  -13.5364 C   0  0  0  0  0  0  0  0  0  0  0  0
  -14.9745   16.9280  -14.1637 C   0  0  0  0  0  0  0  0  0  0  0  0
  -15.9055   17.7510  -13.5259 C   0  0  0  0  0  0  0  0  0  0  0  0
 21 22  1  0  0  0
 22 23  1  0  0  0
 22 24  2  0  0  0
 24 20  1  0  0  0
 20 19  1  0  0  0
 19 16  1  0  0  0
 16 17  1  0  0  0
 16 18  2  0  0  0
 18 15  1  0  0  0
 15  1  1  0  0  0
  1  2  1  0  0  0
  1  4  2  0  0  0
  2  3  2  0  0  0
  2 13  1  0  0  0
  3  7  1  0  0  0
 13 14  1  0  0  0
  4  5  1  0  0  0
  4  6  1  0  0  0
  6  9  1  0  0  0
  6  7  2  0  0  0
  9 10  1  0  0  0
  9 11  2  0  0  0
  7 25  1  0  0  0
 25 26  1  0  0  0
 26 27  1  0  0  0
 27 28  1  0  0  0
 27 32  2  0  0  0
 28 29  2  0  0  0
 29 30  1  0  0  0
 30 31  2  0  0  0
 31 32  1  0  0  0
  5  8  1  0  0  0
 10 12  1  0  0  0
M  END
> <minimizedAffinity>
-8.78665

$$$$
4A4W_YFB_A_999


 32 33  0  0  0  0  0  0  0  0999 V2000
  -17.4723   23.1760   -8.7841 C   0  0  0  0  0  0  0  0  0  0  0  0
  -17.9491   21.9005   -9.0832 C   0  0  0  0  0  0  0  0  0  0  0  0
  -17.1280   20.9124   -9.6187 C   0  0  0  0  0  0  0  0  0  0  0  0
  -16.1153   23.4182   -9.0677 C   0  0  0  0  0  0  0  0  0  0  0  0
  -15.5893   24.6562   -8.8091 O   0  0  0  0  0  0  0  0  0  0  0  0
  -15.2751   22.4323   -9.6054 C   0  0  0  0  0  0  0  0  0  0  0  0
  -15.7907   21.1569   -9.8906 C   0  0  0  0  0  0  0  0  0  0  0  0
  -16.1321   25.3301   -8.4498 H   0  0  0  0  0  0  0  0  0  0  0  0
  -13.7847   22.7883   -9.8676 C   0  0  0  0  0  0  0  0  0  0  0  0
  -13.5400   23.7684  -10.6234 O   0  0  0  0  0  0  0  0  0  0  0  0
  -12.8976   22.0984   -9.2985 O   0  0  0  0  0  0  0  0  0  0  0  0
  -14.2448   24.2431  -11.0181 H   0  0  0  0  0  0  0  0  0  0  0  0
  -19.2461   21.5917   -8.8533 O   0  0  0  0  0  0  0  0  0  0  0  0
  -19.5997   20.4329   -9.6234 C   0  0  0  0  0  0  0  0  0  0  0  0
  -18.3680   24.2902   -8.1816 C   0  0  0  0  0  0  0  0  0  0  0  0
  -18.2394   25.8334   -6.1616 C   0  0  0  0  0  0  0  0  0  0  0  0
  -17.6633   26.0100   -4.7327 C   0  0  0  0  0  0  0  0  0  0  0  0
  -17.9405   24.6761   -6.8979 C   0  0  0  0  0  0  0  0  0  0  0  0
  -19.1590   26.9357   -6.7504 C   0  0  0  0  0  0  0  0  0  0  0  0
  -18.4626   28.2823   -6.9949 C   0  0  0  0  0  0  0  0  0  0  0  0
  -15.4062   28.1936   -9.4359 C   0  0  0  0  0  0  0  0  0  0  0  0
  -16.1731   28.1800   -8.1104 C   0  0  0  0  0  0  0  0  0  0  0  0
  -15.3148   28.0551   -6.8420 C   0  0  0  0  0  0  0  0  0  0  0  0
  -17.5822   28.2289   -8.0894 C   0  0  0  0  0  0  0  0  0  0  0  0
  -15.0185   19.9710  -10.4686 C   0  0  0  0  0  0  0  0  0  0  0  0
  -15.9449   19.0148  -11.2049 C   0  0  0  0  0  0  0  0  0  0  0  0
  -15.1487   18.0839  -12.1252 C   0  0  0  0  0  0  0  0  0  0  0  0
  -15.7018   17.6379  -13.3291 C   0  0  0  0  0  0  0  0  0  0  0  0
  -14.9799   16.7906  -14.1719 C   0  0  0  0  0  0  0  0  0  0  0  0
  -13.6935   16.3946  -13.7926 C   0  0  0  0  0  0  0  0  0  0  0  0
  -13.1341   16.8430  -12.5910 C   0  0  0  0  0  0  0  0  0  0  0  0
  -13.8639   17.6891  -11.7529 C   0  0  0  0  0  0  0  0  0  0  0  0
 21 22  1  0  0  0
 22 23  1  0  0  0
 22 24  2  0  0  0
 24 20  1  0  0  0
 20 19  1  0  0  0
 19 16  1  0  0  0
 16 17  1  0  0  0
 16 18  2  0  0  0
 18 15  1  0  0  0
 15  1  1  0  0  0
  1  2  1  0  0  0
  1  4  2  0  0  0
  2  3  2  0  0  0
  2 13  1  0  0  0
  3  7  1  0  0  0
 13 14  1  0  0  0
  4  5  1  0  0  0
  4  6  1  0  0  0
  6  9  1  0  0  0
  6  7  2  0  0  0
  9 10  1  0  0  0
  9 11  2  0  0  0
  7 25  1  0  0  0
 25 26  1  0  0  0
 26 27  1  0  0  0
 27 28  1  0  0  0
 27 32  2  0  0  0
 28 29  2  0  0  0
 29 30  1  0  0  0
 30 31  2  0  0  0
 31 32  1  0  0  0
  5  8  1  0  0  0
 10 12  1  0  0  0
M  END
> <minimizedAffinity>
-8.72669

$$$$
