1A99_PUT_A_371
  RCSB PDB12061701583D
Coordinates from PDB:1A99:A:371 Model:1 without hydrogens
  6  5  0  0  0  0            999 V2000
  185.9370    8.2100   65.8030   N 0  0  0  0  0  0  0  0  0  0  0  0
  185.0470    7.2500   65.0860   C 0  0  0  0  0  0  0  0  0  0  0  0
  184.0970    7.9880   64.1260   C 0  0  0  0  0  0  0  0  0  0  0  0
  183.4900    7.0810   63.0700   C 0  0  0  0  0  0  0  0  0  0  0  0
  182.5140    7.8100   62.1680   C 0  0  0  0  0  0  0  0  0  0  0  0
  182.2700    7.0450   60.9210   N 0  0  0  0  0  0  0  0  0  0  0  0
  1  2  1  0  0  0  0
  2  3  1  0  0  0  0
  3  4  1  0  0  0  0
  4  5  1  0  0  0  0
  5  6  1  0  0  0  0
A    1
N2
A    2
C4
A    3
C3
A    4
C2
A    5
C1
A    6
N1
M  END
>  <InstanceId>
1A99_PUT_A_371

>  <ChemCompId>
PUT

>  <PdbId>
1A99

>  <ChainId>
A

>  <ResidueNumber>
371

>  <InsertionCode>


>  <Model>
1

>  <AltIds>


>  <MissingHeavyAtoms>
0

>  <ObservedFormula>
C4 N2

>  <Name>
1,4-DIAMINOBUTANE

>  <SystematicName>
butane-1,4-diamine

>  <Synonyms>
PUTRESCINE

>  <Type>
NON-POLYMER

>  <Formula>
C4 H12 N2

>  <MolecularWeight>
88.151

>  <ModifiedDate>
2011-06-04

>  <Parent>


>  <OneLetterCode>


>  <SubcomponentList>


>  <AmbiguousFlag>
N

>  <InChI>
InChI=1S/C4H12N2/c5-3-1-2-4-6/h1-6H2

>  <InChIKey>
KIDHWZJUCRJVML-UHFFFAOYSA-N

>  <SMILES>
C(CCN)CN

$$$$
