5FL4_9FK_A_269
  RCSB PDB12061717423D
Coordinates from PDB:5FL4:A:269 Model:1 without hydrogens
 24 27  0  0  0  0            999 V2000
    9.0410  -24.6990   59.5870   O 0  0  0  0  0  0  0  0  0  0  0  0
    8.9870  -26.1470   59.6370   S 0  0  0  0  0  0  0  0  0  0  0  0
    8.6000  -26.5610   60.9520   O 0  0  0  0  0  0  0  0  0  0  0  0
    7.9810  -26.8370   58.6000   N 0  0  0  0  0  0  0  0  0  0  0  0
   10.5160  -26.7450   59.3650   C 0  0  0  0  0  0  0  0  0  0  0  0
   11.9280  -25.7510   59.4290   S 0  0  0  0  0  0  0  0  0  0  0  0
   12.9150  -27.1290   59.1360   C 0  0  0  0  0  0  0  0  0  0  0  0
   12.1960  -28.3160   59.0370   C 0  0  0  0  0  0  0  0  0  0  0  0
   10.8010  -28.0940   59.1720   C 0  0  0  0  0  0  0  0  0  0  0  0
   14.3810  -26.8690   59.1260   C 0  0  0  0  0  0  0  0  0  0  0  0
   15.4710  -27.7270   58.9540   C 0  0  0  0  0  0  0  0  0  0  0  0
   16.5040  -26.8760   59.1330   N 0  0  0  0  0  0  0  0  0  0  0  0
   16.1060  -25.5750   59.4360   N 0  0  0  0  0  0  0  0  0  0  0  0
   14.7060  -25.5990   59.4400   N 0  0  0  0  0  0  0  0  0  0  0  0
   17.8490  -27.0340   59.0900   C 0  0  0  0  0  0  0  0  0  0  0  0
   18.7110  -26.1380   58.4340   C 0  0  0  0  0  0  0  0  0  0  0  0
   20.1100  -26.2270   58.4350   C 0  0  0  0  0  0  0  0  0  0  0  0
   20.7590  -27.2390   59.1210   C 0  0  0  0  0  0  0  0  0  0  0  0
   20.0210  -28.1800   59.8270   C 0  0  0  0  0  0  0  0  0  0  0  0
   18.5250  -28.1170   59.8670   C 0  0  0  0  0  0  0  0  0  0  0  0
   20.6920  -29.1860   60.5000   C 0  0  0  0  0  0  0  0  0  0  0  0
   19.9690  -30.1280   61.2190   C 0  0  0  0  0  0  0  0  0  0  0  0
   18.5690  -30.0810   61.2570   C 0  0  0  0  0  0  0  0  0  0  0  0
   17.8530  -29.0850   60.6050   C 0  0  0  0  0  0  0  0  0  0  0  0
  1  2  2  0  0  0  0
  2  3  2  0  0  0  0
  2  4  1  0  0  0  0
  2  5  1  0  0  0  0
  5  6  1  0  0  0  0
  5  9  2  0  0  0  0
  6  7  1  0  0  0  0
  7  8  2  0  0  0  0
  7 10  1  0  0  0  0
  8  9  1  0  0  0  0
 10 11  2  0  0  0  0
 10 14  1  0  0  0  0
 11 12  1  0  0  0  0
 12 13  1  0  0  0  0
 12 15  1  0  0  0  0
 13 14  2  0  0  0  0
 15 16  1  0  0  0  0
 15 20  2  0  0  0  0
 16 17  2  0  0  0  0
 17 18  1  0  0  0  0
 18 19  2  0  0  0  0
 19 20  1  0  0  0  0
 19 21  1  0  0  0  0
 20 24  1  0  0  0  0
 21 22  2  0  0  0  0
 22 23  1  0  0  0  0
 23 24  2  0  0  0  0
A    1
O22
A    2
S21
A    3
O23
A    4
N24
A    5
C19
A    6
S20
A    7
C16
A    8
C17
A    9
C18
A   10
C14
A   11
C15
A   12
N11
A   13
N12
A   14
N13
A   15
C10
A   16
C9
A   17
C8
A   18
C7
A   19
C4
A   20
C3
A   21
C5
A   22
C6
A   23
C1
A   24
C2
M  END
>  <InstanceId>
5FL4_9FK_A_269

>  <ChemCompId>
9FK

>  <PdbId>
5FL4

>  <ChainId>
A

>  <ResidueNumber>
269

>  <InsertionCode>


>  <Model>
1

>  <AltIds>


>  <MissingHeavyAtoms>
0

>  <ObservedFormula>
C16 N4 O2 S2

>  <Name>
5-(1-naphthalen-1-yl-1,2,3-triazol-4-yl)thiophene-2-sulfonamide

>  <SystematicName>
5-(1-naphthalen-1-yl-1,2,3-triazol-4-yl)thiophene-2-sulfonamide

>  <Synonyms>


>  <Type>
non-polymer

>  <Formula>
C16 H12 N4 O2 S2

>  <MolecularWeight>
356.422

>  <ModifiedDate>
2014-09-05

>  <Parent>


>  <OneLetterCode>


>  <SubcomponentList>


>  <AmbiguousFlag>
N

>  <InChI>
InChI=1S/C16H12N4O2S2/c17-24(21,22)16-9-8-15(23-16)13-10-20(19-18-13)14-7-3-5-11-4-1-2-6-12(11)14/h1-10H,(H2,17,21,22)

>  <InChIKey>
KNFVNHRBTIJTNM-UHFFFAOYSA-N

>  <SMILES>
c1ccc2c(c1)cccc2n3cc(nn3)c4ccc(s4)S(=O)(=O)N

$$$$
