2AOC_2NC_B_400
  RCSB PDB12061705013D
Coordinates from PDB:2AOC:B:400 Model:1 without hydrogens
 54 53  0  0  0  0            999 V2000
   23.5570   24.3130   19.6080   C 0  0  0  0  0  0  0  0  0  0  0  0
   23.2750   24.7250   20.7400   O 0  0  0  0  0  0  0  0  0  0  0  0
   24.2310   22.9670   19.4260   C 0  0  0  0  0  0  0  0  0  0  0  0
   23.3250   25.0520   18.5100   N 0  0  0  0  0  0  0  0  0  0  0  0
   22.7600   26.3740   18.5130   C 0  0  0  0  0  0  0  0  0  0  0  0
   21.3920   26.4760   17.8210   C 0  0  0  0  0  0  0  0  0  0  0  0
   20.7600   27.5560   17.9500   O 0  0  0  0  0  0  0  0  0  0  0  0
   23.7080   27.3720   17.8160   C 0  0  0  0  0  0  0  0  0  0  0  0
   23.9050   27.0090   16.4570   O 0  0  0  0  0  0  0  0  0  0  0  0
   25.0950   27.3220   18.5120   C 0  0  0  0  0  0  0  0  0  0  0  0
   20.8700   25.4690   17.1720   N 0  0  0  0  0  0  0  0  0  0  0  0
   19.5340   25.5150   16.5370   C 0  0  0  0  0  0  0  0  0  0  0  0
   18.6290   24.4790   17.1520   C 0  0  0  0  0  0  0  0  0  0  0  0
   18.5270   23.3530   16.6680   O 0  0  0  0  0  0  0  0  0  0  0  0
   19.6230   25.3100   15.0040   C 0  0  0  0  0  0  0  0  0  0  0  0
   20.7810   26.1310   14.4190   C 0  0  0  0  0  0  0  0  0  0  0  0
   18.2870   25.5440   14.3550   C 0  0  0  0  0  0  0  0  0  0  0  0
   20.6370   27.6360   14.4720   C 0  0  0  0  0  0  0  0  0  0  0  0
   18.0410   24.8270   18.2650   N 0  0  0  0  0  0  0  0  0  0  0  0
   17.3080   23.8360   19.0690   C 0  0  0  0  0  0  0  0  0  0  0  0
   15.8110   23.8700   18.8570   C 0  0  0  0  0  0  0  0  0  0  0  0
   17.6270   24.0460   20.5560   C 0  0  0  0  0  0  0  0  0  0  0  0
   19.1140   24.0630   20.9220   C 0  0  0  0  0  0  0  0  0  0  0  0
   19.8820   22.8530   20.4200   C 0  0  0  0  0  0  0  0  0  0  0  0
   19.3310   21.5400   20.9220   C 0  0  0  0  0  0  0  0  0  0  0  0
   15.4340   23.7600   17.4780   N 0  0  0  0  0  0  0  0  0  0  0  0
   14.1590   23.0960   17.2070   C 0  0  0  0  0  0  0  0  0  0  0  0
   14.2020   21.6520   17.6420   C 0  0  0  0  0  0  0  0  0  0  0  0
   15.2370   21.0030   17.6870   O 0  0  0  0  0  0  0  0  0  0  0  0
   13.6830   23.1670   15.7630   C 0  0  0  0  0  0  0  0  0  0  0  0
   14.6790   22.5100   14.8440   C 0  0  0  0  0  0  0  0  0  0  0  0
   14.1690   22.4260   13.4410   C 0  0  0  0  0  0  0  0  0  0  0  0
   15.1590   21.9110   12.4620   C 0  0  0  0  0  0  0  0  0  0  0  0
   13.0420   21.1090   17.9150   N 0  0  0  0  0  0  0  0  0  0  0  0
   12.9040   19.6970   18.3040   C 0  0  0  0  0  0  0  0  0  0  0  0
   11.4810   19.2650   17.9600   C 0  0  0  0  0  0  0  0  0  0  0  0
   10.4990   19.9420   18.2710   O 0  0  0  0  0  0  0  0  0  0  0  0
   13.2590   19.4950   19.7640   C 0  0  0  0  0  0  0  0  0  0  0  0
   13.0610   18.1050   20.3160   C 0  0  0  0  0  0  0  0  0  0  0  0
   11.6510   17.8570   20.8440   C 0  0  0  0  0  0  0  0  0  0  0  0
   10.9740   18.7750   21.2350   O 0  0  0  0  0  0  0  0  0  0  0  0
   11.1870   16.6300   20.8000   N 0  0  0  0  0  0  0  0  0  0  0  0
   11.3810   18.0520   17.4630   N 0  0  0  0  0  0  0  0  0  0  0  0
   10.1000   17.4480   17.1380   C 0  0  0  0  0  0  0  0  0  0  0  0
   10.0400   16.0600   17.7590   C 0  0  0  0  0  0  0  0  0  0  0  0
   11.0360   15.3260   17.7620   O 0  0  0  0  0  0  0  0  0  0  0  0
    9.9260   17.3170   15.6310   C 0  0  0  0  0  0  0  0  0  0  0  0
    9.5630   18.5760   14.8780   C 0  0  0  0  0  0  0  0  0  0  0  0
    9.3630   18.1660   13.4190   C 0  0  0  0  0  0  0  0  0  0  0  0
    8.6890   19.1570   12.6180   N 0  0  0  0  0  0  0  0  0  0  0  0
    8.4920   18.9690   11.3070   C 0  0  0  0  0  0  0  0  0  0  0  0
    8.8940   17.8850   10.6770   N 0  0  0  0  0  0  0  0  0  0  0  0
    7.8870   19.9090   10.6320   N 0  3  0  0  0  0  0  0  0  0  0  0
    8.8050   15.6200   18.2900   N 0  0  0  0  0  0  0  0  0  0  0  0
  1  2  2  0  0  0  0
  1  3  1  0  0  0  0
  4  5  1  0  0  0  0
  5  6  1  0  0  0  0
  5  8  1  0  0  0  0
  6  7  2  0  0  0  0
  8  9  1  0  0  0  0
  8 10  1  0  0  0  0
 11 12  1  0  0  0  0
 12 13  1  0  0  0  0
 12 15  1  0  0  0  0
 13 14  2  0  0  0  0
 15 16  1  0  0  0  0
 15 17  1  0  0  0  0
 16 18  1  0  0  0  0
 19 20  1  0  0  0  0
 20 21  1  0  0  0  0
 20 22  1  0  0  0  0
 22 23  1  0  0  0  0
 23 24  1  0  0  0  0
 24 25  1  0  0  0  0
 26 27  1  0  0  0  0
 27 28  1  0  0  0  0
 27 30  1  0  0  0  0
 28 29  2  0  0  0  0
 30 31  1  0  0  0  0
 31 32  1  0  0  0  0
 32 33  1  0  0  0  0
 34 35  1  0  0  0  0
 35 36  1  0  0  0  0
 35 38  1  0  0  0  0
 36 37  2  0  0  0  0
 38 39  1  0  0  0  0
 39 40  1  0  0  0  0
 40 41  2  0  0  0  0
 40 42  1  0  0  0  0
 43 44  1  0  0  0  0
 44 45  1  0  0  0  0
 44 47  1  0  0  0  0
 45 46  2  0  0  0  0
 47 48  1  0  0  0  0
 48 49  1  0  0  0  0
 49 50  1  0  0  0  0
 50 51  1  0  0  0  0
 51 52  1  0  0  0  0
 51 53  2  0  0  0  0
  1  4  1  0  0  0  0
  6 11  1  0  0  0  0
 13 19  1  0  0  0  0
 21 26  1  0  0  0  0
 28 34  1  0  0  0  0
 36 43  1  0  0  0  0
 45 54  1  0  0  0  0
M  CHG  1  53   1
A    1
C
A    2
O
A    3
CH3
A    4
N
A    5
CA
A    6
C1
A    7
O1
A    8
CB
A    9
OG1
A   10
CG2
A   11
N1
A   12
CA1
A   13
C2
A   14
O2
A   15
CB1
A   16
CG1
A   17
CG21
A   18
CD1
A   19
N2
A   20
CA2
A   21
C3
A   22
CB2
A   23
CG
A   24
CD
A   25
CE
A   26
N3
A   27
CA3
A   28
C4
A   29
O3
A   30
CB3
A   31
CG3
A   32
CD2
A   33
CE1
A   34
N4
A   35
CA4
A   36
C5
A   37
O4
A   38
CB4
A   39
CG4
A   40
CD3
A   41
OE1
A   42
NE2
A   43
N5
A   44
CA5
A   45
C6
A   46
O5
A   47
CB5
A   48
CG5
A   49
CD4
A   50
NE
A   51
CZ
A   52
NH1
A   53
NH2
A   54
N6
M  END
>  <InstanceId>
2AOC_2NC_B_400

>  <ChemCompId>
2NC

>  <PdbId>
2AOC

>  <ChainId>
B

>  <ResidueNumber>
400

>  <InsertionCode>


>  <Model>
1

>  <AltIds>


>  <MissingHeavyAtoms>
0

>  <ObservedFormula>
C35 N11 O8

>  <Name>
N-{(2S)-2-[(N-acetyl-L-threonyl-L-isoleucyl)amino]hexyl}-L-norleucyl-L-glutaminyl-N~5~-[amino(iminio)methyl]-L-ornithinamide

>  <SystematicName>
[[[(4S)-4-[[(2S)-2-[[(2S)-2-[[(2S)-2-[[(2S,3S)-2-[[(2S,3R)-2-acetamido-3-hydroxy-butanoyl]amino]-3-methyl-pentanoyl]amino]hexyl]amino]hexanoyl]amino]-5-azanyl-5-oxo-pentanoyl]amino]-5-azanyl-5-oxo-pentyl]amino]-azanyl-methylidene]azanium

>  <Synonyms>
p2/NC

>  <Type>
peptide-like

>  <Formula>
C35 H68 N11 O8

>  <MolecularWeight>
770.983

>  <ModifiedDate>
2012-01-05

>  <Parent>


>  <OneLetterCode>


>  <SubcomponentList>
ACE THR ILE 2A0 GLN ARG NH2

>  <AmbiguousFlag>
N

>  <InChI>
InChI=1S/C35H67N11O8/c1-7-10-13-23(43-33(53)28(20(4)9-3)46-34(54)29(21(5)47)42-22(6)48)19-41-25(14-11-8-2)31(51)45-26(16-17-27(36)49)32(52)44-24(30(37)50)15-12-18-40-35(38)39/h20-21,23-26,28-29,41,47H,7-19H2,1-6H3,(H2,36,49)(H2,37,50)(H,42,48)(H,43,53)(H,44,52)(H,45,51)(H,46,54)(H4,38,39,40)/p+1/t20-,21+,23-,24-,25-,26-,28-,29-/m0/s1

>  <InChIKey>
MQPXOVRKKPPKFZ-QYKDHROSSA-O

>  <SMILES>
CCCC[C@@H](CN[C@@H](CCCC)C(=O)N[C@@H](CCC(=O)N)C(=O)N[C@@H](CCCNC(=[NH2+])N)C(=O)N)NC(=O)[C@H]([C@@H](C)CC)NC(=O)[C@H]([C@@H](C)O)NC(=O)C

$$$$
