2AOC_2NC_B_400


 70 69  0  0  0  0  0  0  0  0999 V2000
   14.2661   22.9006   16.5134 C   0  0  0  0  0  0  0  0  0  0  0  0
   14.2013   21.4783   17.0125 C   0  0  0  0  0  0  0  0  0  0  0  0
   14.9877   20.6132   16.6555 O   0  0  0  0  0  0  0  0  0  0  0  0
   13.2032   21.2059   17.8155 N   0  0  0  0  0  0  0  0  0  0  0  0
   12.5884   21.9313   18.0706 H   0  0  0  0  0  0  0  0  0  0  0  0
   12.9669   19.8560   18.3503 C   0  0  0  0  0  0  0  0  0  0  0  0
   11.5863   19.4112   17.8751 C   0  0  0  0  0  0  0  0  0  0  0  0
   10.5544   19.9742   18.2462 O   0  0  0  0  0  0  0  0  0  0  0  0
   11.5780   18.2932   17.1835 N   0  0  0  0  0  0  0  0  0  0  0  0
   12.4355   17.8534   16.9821 H   0  0  0  0  0  0  0  0  0  0  0  0
   10.3487   17.6835   16.7056 C   0  0  0  0  0  0  0  0  0  0  0  0
   10.1495   16.3549   17.4204 C   0  0  0  0  0  0  0  0  0  0  0  0
   10.2402   16.2807   18.6521 O   0  0  0  0  0  0  0  0  0  0  0  0
    9.9029   15.2052   16.6342 N   0  0  0  0  0  0  0  0  0  0  0  0
    9.8339   15.2838   15.6553 H   0  0  0  0  0  0  0  0  0  0  0  0
    9.8003   14.3264   17.0659 H   0  0  0  0  0  0  0  0  0  0  0  0
   10.4148   17.4266   15.2063 C   0  0  0  0  0  0  0  0  0  0  0  0
    9.2861   17.9861   14.3716 C   0  0  0  0  0  0  0  0  0  0  0  0
    9.7378   19.3694   13.9033 C   0  0  0  0  0  0  0  0  0  0  0  0
    8.9773   20.4569   14.4661 N   0  0  0  0  0  0  0  0  0  0  0  0
    8.0775   20.6503   14.1166 H   0  0  0  0  0  0  0  0  0  0  0  0
    9.4745   21.2084   15.4566 C   0  0  0  0  0  0  0  0  0  0  0  0
    8.7365   21.6442   16.4561 N   0  0  0  0  0  0  0  0  0  0  0  0
   10.7402   21.5270   15.4149 N   0  0  0  0  0  0  0  0  0  0  0  0
    7.7808   21.4118   16.5003 H   0  0  0  0  0  0  0  0  0  0  0  0
    9.1403   22.2026   17.1592 H   0  0  0  0  0  0  0  0  0  0  0  0
   11.3039   21.2081   14.6734 H   0  0  0  0  0  0  0  0  0  0  0  0
   11.1307   22.0861   16.1249 H   0  0  0  0  0  0  0  0  0  0  0  0
   13.1227   19.8304   19.8581 C   0  0  0  0  0  0  0  0  0  0  0  0
   13.1873   18.4677   20.5024 C   0  0  0  0  0  0  0  0  0  0  0  0
   11.8541   18.0084   21.0854 C   0  0  0  0  0  0  0  0  0  0  0  0
   10.9519   18.7930   21.2412 O   0  0  0  0  0  0  0  0  0  0  0  0
   11.7086   16.7312   21.3505 N   0  0  0  0  0  0  0  0  0  0  0  0
   12.4613   16.1113   21.2146 H   0  0  0  0  0  0  0  0  0  0  0  0
   10.8467   16.3930   21.6853 H   0  0  0  0  0  0  0  0  0  0  0  0
   15.5205   23.5371   16.9151 N   0  0  0  0  0  0  0  0  0  0  0  0
   15.5043   24.4986   16.5750 H   0  0  0  0  0  0  0  0  0  0  0  0
   15.7893   23.5759   18.3230 C   0  0  0  0  0  0  0  0  0  0  0  0
   17.2548   23.7666   18.6438 C   0  0  0  0  0  0  0  0  0  0  0  0
   18.8050   24.4259   16.9130 C   0  0  0  0  0  0  0  0  0  0  0  0
   19.0656   23.2511   16.6590 O   0  0  0  0  0  0  0  0  0  0  0  0
   17.9166   24.7774   17.8035 N   0  0  0  0  0  0  0  0  0  0  0  0
   17.6873   25.7284   17.9137 H   0  0  0  0  0  0  0  0  0  0  0  0
   19.5769   25.5528   16.2769 C   0  0  0  0  0  0  0  0  0  0  0  0
   21.4289   26.4858   17.5899 C   0  0  0  0  0  0  0  0  0  0  0  0
   20.6867   27.4159   17.9981 O   0  0  0  0  0  0  0  0  0  0  0  0
   20.9682   25.5685   16.7811 N   0  0  0  0  0  0  0  0  0  0  0  0
   21.5778   24.8514   16.4925 H   0  0  0  0  0  0  0  0  0  0  0  0
   22.8647   26.4402   18.1351 C   0  0  0  0  0  0  0  0  0  0  0  0
   23.4909   24.4532   19.4549 C   0  0  0  0  0  0  0  0  0  0  0  0
   23.0993   24.9521   20.5172 O   0  0  0  0  0  0  0  0  0  0  0  0
   24.1483   23.0869   19.4439 C   0  0  0  0  0  0  0  0  0  0  0  0
   23.3952   25.1127   18.2881 N   0  0  0  0  0  0  0  0  0  0  0  0
   23.7121   24.6526   17.4774 H   0  0  0  0  0  0  0  0  0  0  0  0
   23.7488   27.2727   17.1834 C   0  0  0  0  0  0  0  0  0  0  0  0
   22.9515   28.1422   16.3924 O   0  0  0  0  0  0  0  0  0  0  0  0
   24.4879   26.3136   16.2116 C   0  0  0  0  0  0  0  0  0  0  0  0
   22.3321   27.6185   15.8605 H   0  0  0  0  0  0  0  0  0  0  0  0
   19.5304   25.4329   14.7330 C   0  0  0  0  0  0  0  0  0  0  0  0
   18.2020   25.8945   14.2008 C   0  0  0  0  0  0  0  0  0  0  0  0
   20.7536   26.1154   14.1045 C   0  0  0  0  0  0  0  0  0  0  0  0
   20.6483   27.6056   13.8664 C   0  0  0  0  0  0  0  0  0  0  0  0
   17.4180   24.1440   20.1230 C   0  0  0  0  0  0  0  0  0  0  0  0
   18.7748   23.8099   20.7496 C   0  0  0  0  0  0  0  0  0  0  0  0
   19.2274   22.3812   20.5043 C   0  0  0  0  0  0  0  0  0  0  0  0
   20.7231   22.1991   20.6004 C   0  0  0  0  0  0  0  0  0  0  0  0
   13.9780   22.9174   15.0189 C   0  0  0  0  0  0  0  0  0  0  0  0
   15.2382   23.1870   14.2395 C   0  0  0  0  0  0  0  0  0  0  0  0
   15.2514   22.4569   12.9348 C   0  0  0  0  0  0  0  0  0  0  0  0
   14.4669   21.1966   12.9333 C   0  0  0  0  0  0  0  0  0  0  0  0
 50 51  2  0  0  0
 50 52  1  0  0  0
 53 49  1  0  0  0
 49 45  1  0  0  0
 49 55  1  0  0  0
 45 46  2  0  0  0
 55 56  1  0  0  0
 55 57  1  0  0  0
 47 44  1  0  0  0
 44 40  1  0  0  0
 44 59  1  0  0  0
 40 41  2  0  0  0
 59 61  1  0  0  0
 59 60  1  0  0  0
 61 62  1  0  0  0
 42 39  1  0  0  0
 39 38  1  0  0  0
 39 63  1  0  0  0
 63 64  1  0  0  0
 64 65  1  0  0  0
 65 66  1  0  0  0
 36  1  1  0  0  0
  1  2  1  0  0  0
  1 67  1  0  0  0
  2  3  2  0  0  0
 67 68  1  0  0  0
 68 69  1  0  0  0
 69 70  1  0  0  0
  4  6  1  0  0  0
  6  7  1  0  0  0
  6 29  1  0  0  0
  7  8  2  0  0  0
 29 30  1  0  0  0
 30 31  1  0  0  0
 31 32  2  0  0  0
 31 33  1  0  0  0
  9 11  1  0  0  0
 11 12  1  0  0  0
 11 17  1  0  0  0
 12 13  2  0  0  0
 17 18  1  0  0  0
 18 19  1  0  0  0
 19 20  1  0  0  0
 20 22  1  0  0  0
 22 23  1  0  0  0
 22 24  2  0  0  0
 50 53  1  0  0  0
 45 47  1  0  0  0
 40 42  1  0  0  0
 38 36  1  0  0  0
  2  4  1  0  0  0
  7  9  1  0  0  0
 12 14  1  0  0  0
 53 54  1  0  0  0
 56 58  1  0  0  0
 47 48  1  0  0  0
 42 43  1  0  0  0
 36 37  1  0  0  0
  4  5  1  0  0  0
 33 34  1  0  0  0
 33 35  1  0  0  0
  9 10  1  0  0  0
 20 21  1  0  0  0
 23 25  1  0  0  0
 23 26  1  0  0  0
 24 27  1  0  0  0
 24 28  1  0  0  0
 14 15  1  0  0  0
 14 16  1  0  0  0
M  CHG 1  24   1
M  END
> <minimizedAffinity>
-8.67506

$$$$
2AOC_2NC_B_400


 70 69  0  0  0  0  0  0  0  0999 V2000
   14.3821   23.0168   16.6778 C   0  0  0  0  0  0  0  0  0  0  0  0
   14.2794   21.5712   17.0972 C   0  0  0  0  0  0  0  0  0  0  0  0
   15.1517   20.7481   16.8609 O   0  0  0  0  0  0  0  0  0  0  0  0
   13.1594   21.2312   17.6846 N   0  0  0  0  0  0  0  0  0  0  0  0
   12.4801   21.9248   17.8479 H   0  0  0  0  0  0  0  0  0  0  0  0
   12.8789   19.8510   18.1096 C   0  0  0  0  0  0  0  0  0  0  0  0
   11.4638   19.5100   17.6504 C   0  0  0  0  0  0  0  0  0  0  0  0
   10.4666   19.9860   18.1967 O   0  0  0  0  0  0  0  0  0  0  0  0
   11.3945   18.5540   16.7505 N   0  0  0  0  0  0  0  0  0  0  0  0
   12.2307   18.1643   16.4067 H   0  0  0  0  0  0  0  0  0  0  0  0
   10.1280   18.0520   16.2453 C   0  0  0  0  0  0  0  0  0  0  0  0
   10.0283   16.5664   16.5593 C   0  0  0  0  0  0  0  0  0  0  0  0
   10.8847   15.7748   16.1462 O   0  0  0  0  0  0  0  0  0  0  0  0
    8.9087   16.1144   17.2963 N   0  0  0  0  0  0  0  0  0  0  0  0
    8.2375   16.7593   17.6169 H   0  0  0  0  0  0  0  0  0  0  0  0
    8.8008   15.1549   17.4887 H   0  0  0  0  0  0  0  0  0  0  0  0
   10.0296   18.2404   14.7375 C   0  0  0  0  0  0  0  0  0  0  0  0
   11.1823   18.9503   14.0659 C   0  0  0  0  0  0  0  0  0  0  0  0
   11.6871   18.0145   12.9676 C   0  0  0  0  0  0  0  0  0  0  0  0
   11.8756   16.6518   13.3985 N   0  0  0  0  0  0  0  0  0  0  0  0
   12.3691   16.4712   14.2310 H   0  0  0  0  0  0  0  0  0  0  0  0
   11.3905   15.6278   12.6850 C   0  0  0  0  0  0  0  0  0  0  0  0
   11.6599   15.4624   11.4069 N   0  0  0  0  0  0  0  0  0  0  0  0
   10.6101   14.7706   13.2863 N   0  0  0  0  0  0  0  0  0  0  0  0
   12.2467   16.1010   10.9409 H   0  0  0  0  0  0  0  0  0  0  0  0
   11.2745   14.7002   10.9172 H   0  0  0  0  0  0  0  0  0  0  0  0
   10.4002   14.8819   14.2417 H   0  0  0  0  0  0  0  0  0  0  0  0
   10.2317   14.0130   12.7842 H   0  0  0  0  0  0  0  0  0  0  0  0
   13.0844   19.6863   19.6026 C   0  0  0  0  0  0  0  0  0  0  0  0
   13.0011   18.2789   20.1395 C   0  0  0  0  0  0  0  0  0  0  0  0
   11.6133   17.9065   20.6529 C   0  0  0  0  0  0  0  0  0  0  0  0
   10.9655   18.6969   21.2931 O   0  0  0  0  0  0  0  0  0  0  0  0
   11.1330   16.7303   20.3235 N   0  0  0  0  0  0  0  0  0  0  0  0
   11.6827   16.1032   19.8002 H   0  0  0  0  0  0  0  0  0  0  0  0
   10.2232   16.4751   20.5997 H   0  0  0  0  0  0  0  0  0  0  0  0
   15.6976   23.5635   17.0100 N   0  0  0  0  0  0  0  0  0  0  0  0
   15.7456   24.5098   16.6323 H   0  0  0  0  0  0  0  0  0  0  0  0
   16.0216   23.6326   18.4050 C   0  0  0  0  0  0  0  0  0  0  0  0
   17.5082   23.7267   18.6666 C   0  0  0  0  0  0  0  0  0  0  0  0
   18.8444   24.5235   16.8192 C   0  0  0  0  0  0  0  0  0  0  0  0
   18.8767   23.3998   16.3205 O   0  0  0  0  0  0  0  0  0  0  0  0
   18.1750   24.7963   17.9069 N   0  0  0  0  0  0  0  0  0  0  0  0
   18.1158   25.7272   18.2218 H   0  0  0  0  0  0  0  0  0  0  0  0
   19.6692   25.6522   16.2567 C   0  0  0  0  0  0  0  0  0  0  0  0
   21.4828   26.5261   17.6608 C   0  0  0  0  0  0  0  0  0  0  0  0
   20.7516   27.4798   18.0325 O   0  0  0  0  0  0  0  0  0  0  0  0
   21.0336   25.6235   16.8293 N   0  0  0  0  0  0  0  0  0  0  0  0
   21.6334   24.8870   16.5706 H   0  0  0  0  0  0  0  0  0  0  0  0
   22.8876   26.4348   18.2763 C   0  0  0  0  0  0  0  0  0  0  0  0
   23.2343   24.3833   19.6004 C   0  0  0  0  0  0  0  0  0  0  0  0
   22.6631   24.8478   20.5947 O   0  0  0  0  0  0  0  0  0  0  0  0
   23.8629   23.0043   19.6496 C   0  0  0  0  0  0  0  0  0  0  0  0
   23.3622   25.0909   18.4653 N   0  0  0  0  0  0  0  0  0  0  0  0
   23.8146   24.6567   17.7064 H   0  0  0  0  0  0  0  0  0  0  0  0
   23.8466   27.2267   17.3632 C   0  0  0  0  0  0  0  0  0  0  0  0
   23.1315   28.1891   16.6018 O   0  0  0  0  0  0  0  0  0  0  0  0
   24.5126   26.2473   16.3593 C   0  0  0  0  0  0  0  0  0  0  0  0
   22.4757   27.7395   16.0462 H   0  0  0  0  0  0  0  0  0  0  0  0
   19.6976   25.5788   14.7095 C   0  0  0  0  0  0  0  0  0  0  0  0
   18.4600   26.1988   14.1222 C   0  0  0  0  0  0  0  0  0  0  0  0
   21.0218   26.1378   14.1698 C   0  0  0  0  0  0  0  0  0  0  0  0
   21.0321   27.6016   13.7880 C   0  0  0  0  0  0  0  0  0  0  0  0
   17.7597   23.9312   20.1672 C   0  0  0  0  0  0  0  0  0  0  0  0
   19.2260   23.8947   20.6076 C   0  0  0  0  0  0  0  0  0  0  0  0
   19.9311   22.5901   20.2808 C   0  0  0  0  0  0  0  0  0  0  0  0
   19.3165   21.3882   20.9570 C   0  0  0  0  0  0  0  0  0  0  0  0
   13.9767   23.1410   15.2159 C   0  0  0  0  0  0  0  0  0  0  0  0
   15.1915   23.1223   14.3259 C   0  0  0  0  0  0  0  0  0  0  0  0
   14.9244   22.4144   13.0363 C   0  0  0  0  0  0  0  0  0  0  0  0
   14.3687   21.0470   13.1948 C   0  0  0  0  0  0  0  0  0  0  0  0
 50 51  2  0  0  0
 50 52  1  0  0  0
 53 49  1  0  0  0
 49 45  1  0  0  0
 49 55  1  0  0  0
 45 46  2  0  0  0
 55 56  1  0  0  0
 55 57  1  0  0  0
 47 44  1  0  0  0
 44 40  1  0  0  0
 44 59  1  0  0  0
 40 41  2  0  0  0
 59 61  1  0  0  0
 59 60  1  0  0  0
 61 62  1  0  0  0
 42 39  1  0  0  0
 39 38  1  0  0  0
 39 63  1  0  0  0
 63 64  1  0  0  0
 64 65  1  0  0  0
 65 66  1  0  0  0
 36  1  1  0  0  0
  1  2  1  0  0  0
  1 67  1  0  0  0
  2  3  2  0  0  0
 67 68  1  0  0  0
 68 69  1  0  0  0
 69 70  1  0  0  0
  4  6  1  0  0  0
  6  7  1  0  0  0
  6 29  1  0  0  0
  7  8  2  0  0  0
 29 30  1  0  0  0
 30 31  1  0  0  0
 31 32  2  0  0  0
 31 33  1  0  0  0
  9 11  1  0  0  0
 11 12  1  0  0  0
 11 17  1  0  0  0
 12 13  2  0  0  0
 17 18  1  0  0  0
 18 19  1  0  0  0
 19 20  1  0  0  0
 20 22  1  0  0  0
 22 23  1  0  0  0
 22 24  2  0  0  0
 50 53  1  0  0  0
 45 47  1  0  0  0
 40 42  1  0  0  0
 38 36  1  0  0  0
  2  4  1  0  0  0
  7  9  1  0  0  0
 12 14  1  0  0  0
 53 54  1  0  0  0
 56 58  1  0  0  0
 47 48  1  0  0  0
 42 43  1  0  0  0
 36 37  1  0  0  0
  4  5  1  0  0  0
 33 34  1  0  0  0
 33 35  1  0  0  0
  9 10  1  0  0  0
 20 21  1  0  0  0
 23 25  1  0  0  0
 23 26  1  0  0  0
 24 27  1  0  0  0
 24 28  1  0  0  0
 14 15  1  0  0  0
 14 16  1  0  0  0
M  CHG 1  24   1
M  END
> <minimizedAffinity>
-8.66183

$$$$
2AOC_2NC_B_400


 70 69  0  0  0  0  0  0  0  0999 V2000
   15.0018   22.7770   16.2257 C   0  0  0  0  0  0  0  0  0  0  0  0
   13.5545   22.4298   15.9786 C   0  0  0  0  0  0  0  0  0  0  0  0
   12.7470   23.2309   15.5307 O   0  0  0  0  0  0  0  0  0  0  0  0
   13.1945   21.2216   16.3329 N   0  0  0  0  0  0  0  0  0  0  0  0
   13.8759   20.6115   16.6972 H   0  0  0  0  0  0  0  0  0  0  0  0
   11.8094   20.7422   16.2065 C   0  0  0  0  0  0  0  0  0  0  0  0
   11.4440   20.0496   17.5166 C   0  0  0  0  0  0  0  0  0  0  0  0
   10.2729   19.8790   17.8614 O   0  0  0  0  0  0  0  0  0  0  0  0
   12.4628   19.8057   18.3110 N   0  0  0  0  0  0  0  0  0  0  0  0
   13.3697   20.0335   18.0032 H   0  0  0  0  0  0  0  0  0  0  0  0
   12.2980   19.2120   19.6269 C   0  0  0  0  0  0  0  0  0  0  0  0
   13.3976   19.7322   20.5414 C   0  0  0  0  0  0  0  0  0  0  0  0
   13.4836   19.3402   21.7117 O   0  0  0  0  0  0  0  0  0  0  0  0
   14.2862   20.7058   20.0285 N   0  0  0  0  0  0  0  0  0  0  0  0
   14.2023   21.0055   19.0944 H   0  0  0  0  0  0  0  0  0  0  0  0
   14.9887   21.0838   20.6055 H   0  0  0  0  0  0  0  0  0  0  0  0
   12.3985   17.6943   19.5564 C   0  0  0  0  0  0  0  0  0  0  0  0
   11.2258   16.9108   20.0993 C   0  0  0  0  0  0  0  0  0  0  0  0
   10.4121   16.4537   18.8886 C   0  0  0  0  0  0  0  0  0  0  0  0
   11.0974   16.6061   17.6295 N   0  0  0  0  0  0  0  0  0  0  0  0
   12.0778   16.6951   17.6195 H   0  0  0  0  0  0  0  0  0  0  0  0
   10.4224   16.6286   16.4733 C   0  0  0  0  0  0  0  0  0  0  0  0
   10.8048   15.9456   15.4146 N   0  0  0  0  0  0  0  0  0  0  0  0
    9.3499   17.3698   16.3982 N   0  0  0  0  0  0  0  0  0  0  0  0
   11.6114   15.3826   15.4570 H   0  0  0  0  0  0  0  0  0  0  0  0
   10.2842   15.9978   14.5807 H   0  0  0  0  0  0  0  0  0  0  0  0
    9.0523   17.8859   17.1821 H   0  0  0  0  0  0  0  0  0  0  0  0
    8.8390   17.4126   15.5578 H   0  0  0  0  0  0  0  0  0  0  0  0
   11.6476   19.8533   14.9891 C   0  0  0  0  0  0  0  0  0  0  0  0
   12.9198   19.3729   14.3358 C   0  0  0  0  0  0  0  0  0  0  0  0
   12.6938   18.2704   13.3053 C   0  0  0  0  0  0  0  0  0  0  0  0
   13.5948   17.5337   12.9902 O   0  0  0  0  0  0  0  0  0  0  0  0
   11.4812   18.1182   12.8265 N   0  0  0  0  0  0  0  0  0  0  0  0
   10.7631   18.7336   13.0999 H   0  0  0  0  0  0  0  0  0  0  0  0
   11.2898   17.3885   12.1939 H   0  0  0  0  0  0  0  0  0  0  0  0
   15.3846   22.4652   17.6028 N   0  0  0  0  0  0  0  0  0  0  0  0
   16.1428   21.7838   17.5681 H   0  0  0  0  0  0  0  0  0  0  0  0
   15.8257   23.5697   18.4037 C   0  0  0  0  0  0  0  0  0  0  0  0
   17.3314   23.6661   18.5066 C   0  0  0  0  0  0  0  0  0  0  0  0
   18.7963   24.4507   16.7539 C   0  0  0  0  0  0  0  0  0  0  0  0
   19.1156   23.2985   16.4656 O   0  0  0  0  0  0  0  0  0  0  0  0
   17.9133   24.7313   17.6743 N   0  0  0  0  0  0  0  0  0  0  0  0
   17.6340   25.6651   17.8129 H   0  0  0  0  0  0  0  0  0  0  0  0
   19.4869   25.6335   16.1258 C   0  0  0  0  0  0  0  0  0  0  0  0
   21.4055   26.5487   17.3529 C   0  0  0  0  0  0  0  0  0  0  0  0
   20.6699   27.4278   17.8711 O   0  0  0  0  0  0  0  0  0  0  0  0
   20.9114   25.6659   16.5257 N   0  0  0  0  0  0  0  0  0  0  0  0
   21.5178   24.9877   16.1493 H   0  0  0  0  0  0  0  0  0  0  0  0
   22.8792   26.5190   17.7865 C   0  0  0  0  0  0  0  0  0  0  0  0
   23.6937   25.4639   19.8614 C   0  0  0  0  0  0  0  0  0  0  0  0
   23.8393   26.5497   20.4362 O   0  0  0  0  0  0  0  0  0  0  0  0
   24.0886   24.1715   20.5490 C   0  0  0  0  0  0  0  0  0  0  0  0
   23.2310   25.3886   18.6021 N   0  0  0  0  0  0  0  0  0  0  0  0
   23.1249   24.4923   18.2087 H   0  0  0  0  0  0  0  0  0  0  0  0
   23.7401   26.5549   16.5066 C   0  0  0  0  0  0  0  0  0  0  0  0
   24.3013   25.2765   16.2452 O   0  0  0  0  0  0  0  0  0  0  0  0
   24.9201   27.5415   16.7186 C   0  0  0  0  0  0  0  0  0  0  0  0
   24.8642   25.0122   16.9897 H   0  0  0  0  0  0  0  0  0  0  0  0
   19.3270   25.5945   14.5854 C   0  0  0  0  0  0  0  0  0  0  0  0
   18.0394   26.2473   14.1649 C   0  0  0  0  0  0  0  0  0  0  0  0
   20.5866   26.1441   13.9008 C   0  0  0  0  0  0  0  0  0  0  0  0
   20.7127   27.6497   13.8257 C   0  0  0  0  0  0  0  0  0  0  0  0
   17.7394   23.8800   19.9711 C   0  0  0  0  0  0  0  0  0  0  0  0
   18.8285   22.9436   20.5024 C   0  0  0  0  0  0  0  0  0  0  0  0
   20.2338   23.5047   20.3755 C   0  0  0  0  0  0  0  0  0  0  0  0
   20.3235   24.9789   20.6886 C   0  0  0  0  0  0  0  0  0  0  0  0
   15.8603   22.1278   15.1494 C   0  0  0  0  0  0  0  0  0  0  0  0
   16.1823   23.1171   14.0605 C   0  0  0  0  0  0  0  0  0  0  0  0
   15.2010   23.0432   12.9348 C   0  0  0  0  0  0  0  0  0  0  0  0
   14.9728   21.6720   12.4137 C   0  0  0  0  0  0  0  0  0  0  0  0
 50 51  2  0  0  0
 50 52  1  0  0  0
 53 49  1  0  0  0
 49 45  1  0  0  0
 49 55  1  0  0  0
 45 46  2  0  0  0
 55 56  1  0  0  0
 55 57  1  0  0  0
 47 44  1  0  0  0
 44 40  1  0  0  0
 44 59  1  0  0  0
 40 41  2  0  0  0
 59 61  1  0  0  0
 59 60  1  0  0  0
 61 62  1  0  0  0
 42 39  1  0  0  0
 39 38  1  0  0  0
 39 63  1  0  0  0
 63 64  1  0  0  0
 64 65  1  0  0  0
 65 66  1  0  0  0
 36  1  1  0  0  0
  1  2  1  0  0  0
  1 67  1  0  0  0
  2  3  2  0  0  0
 67 68  1  0  0  0
 68 69  1  0  0  0
 69 70  1  0  0  0
  4  6  1  0  0  0
  6  7  1  0  0  0
  6 29  1  0  0  0
  7  8  2  0  0  0
 29 30  1  0  0  0
 30 31  1  0  0  0
 31 32  2  0  0  0
 31 33  1  0  0  0
  9 11  1  0  0  0
 11 12  1  0  0  0
 11 17  1  0  0  0
 12 13  2  0  0  0
 17 18  1  0  0  0
 18 19  1  0  0  0
 19 20  1  0  0  0
 20 22  1  0  0  0
 22 23  1  0  0  0
 22 24  2  0  0  0
 50 53  1  0  0  0
 45 47  1  0  0  0
 40 42  1  0  0  0
 38 36  1  0  0  0
  2  4  1  0  0  0
  7  9  1  0  0  0
 12 14  1  0  0  0
 53 54  1  0  0  0
 56 58  1  0  0  0
 47 48  1  0  0  0
 42 43  1  0  0  0
 36 37  1  0  0  0
  4  5  1  0  0  0
 33 34  1  0  0  0
 33 35  1  0  0  0
  9 10  1  0  0  0
 20 21  1  0  0  0
 23 25  1  0  0  0
 23 26  1  0  0  0
 24 27  1  0  0  0
 24 28  1  0  0  0
 14 15  1  0  0  0
 14 16  1  0  0  0
M  CHG 1  24   1
M  END
> <minimizedAffinity>
-8.40045

$$$$
2AOC_2NC_B_400


 70 69  0  0  0  0  0  0  0  0999 V2000
   15.0805   22.0663   17.7647 C   0  0  0  0  0  0  0  0  0  0  0  0
   14.3152   22.2196   16.4736 C   0  0  0  0  0  0  0  0  0  0  0  0
   13.9312   23.3017   16.0542 O   0  0  0  0  0  0  0  0  0  0  0  0
   14.0299   21.1041   15.8497 N   0  0  0  0  0  0  0  0  0  0  0  0
   14.3518   20.2539   16.2274 H   0  0  0  0  0  0  0  0  0  0  0  0
   13.2461   21.0746   14.6051 C   0  0  0  0  0  0  0  0  0  0  0  0
   11.8355   20.6149   14.9640 C   0  0  0  0  0  0  0  0  0  0  0  0
   10.8370   21.2707   14.6600 O   0  0  0  0  0  0  0  0  0  0  0  0
   11.7850   19.5670   15.7563 N   0  0  0  0  0  0  0  0  0  0  0  0
   12.6271   19.1313   16.0212 H   0  0  0  0  0  0  0  0  0  0  0  0
   10.5307   19.0289   16.2549 C   0  0  0  0  0  0  0  0  0  0  0  0
   10.1149   19.8160   17.4892 C   0  0  0  0  0  0  0  0  0  0  0  0
   10.3620   19.3884   18.6236 O   0  0  0  0  0  0  0  0  0  0  0  0
    9.4018   21.0230   17.3012 N   0  0  0  0  0  0  0  0  0  0  0  0
    9.2146   21.3475   16.3908 H   0  0  0  0  0  0  0  0  0  0  0  0
    9.0927   21.5387   18.0809 H   0  0  0  0  0  0  0  0  0  0  0  0
   10.6806   17.5629   16.6378 C   0  0  0  0  0  0  0  0  0  0  0  0
   10.4586   16.5487   15.5397 C   0  0  0  0  0  0  0  0  0  0  0  0
   10.1797   15.2145   16.2317 C   0  0  0  0  0  0  0  0  0  0  0  0
   10.1836   15.2880   17.6713 N   0  0  0  0  0  0  0  0  0  0  0  0
   10.8730   15.8232   18.1269 H   0  0  0  0  0  0  0  0  0  0  0  0
    9.2650   14.6404   18.3991 C   0  0  0  0  0  0  0  0  0  0  0  0
    9.2777   13.3334   18.5582 N   0  0  0  0  0  0  0  0  0  0  0  0
    8.3154   15.3397   18.9598 N   0  0  0  0  0  0  0  0  0  0  0  0
    9.9877   12.7937   18.1413 H   0  0  0  0  0  0  0  0  0  0  0  0
    8.5773   12.8959   19.0942 H   0  0  0  0  0  0  0  0  0  0  0  0
    8.2935   16.3178   18.8492 H   0  0  0  0  0  0  0  0  0  0  0  0
    7.6214   14.8890   19.4930 H   0  0  0  0  0  0  0  0  0  0  0  0
   13.9151   20.2059   13.5581 C   0  0  0  0  0  0  0  0  0  0  0  0
   14.4009   20.9086   12.3147 C   0  0  0  0  0  0  0  0  0  0  0  0
   15.1635   22.1980   12.6052 C   0  0  0  0  0  0  0  0  0  0  0  0
   15.8950   22.2740   13.5607 O   0  0  0  0  0  0  0  0  0  0  0  0
   15.0413   23.1879   11.7520 N   0  0  0  0  0  0  0  0  0  0  0  0
   14.4371   23.1003   10.9797 H   0  0  0  0  0  0  0  0  0  0  0  0
   15.5540   24.0179   11.8843 H   0  0  0  0  0  0  0  0  0  0  0  0
   14.7312   23.1296   18.7068 N   0  0  0  0  0  0  0  0  0  0  0  0
   14.5427   22.6951   19.6102 H   0  0  0  0  0  0  0  0  0  0  0  0
   15.7206   24.1475   18.9091 C   0  0  0  0  0  0  0  0  0  0  0  0
   17.1101   23.7172   18.4952 C   0  0  0  0  0  0  0  0  0  0  0  0
   18.6695   24.4007   16.7822 C   0  0  0  0  0  0  0  0  0  0  0  0
   18.8087   23.2385   16.4048 O   0  0  0  0  0  0  0  0  0  0  0  0
   17.8435   24.7416   17.7346 N   0  0  0  0  0  0  0  0  0  0  0  0
   17.7100   25.6939   17.9459 H   0  0  0  0  0  0  0  0  0  0  0  0
   19.5292   25.5093   16.2321 C   0  0  0  0  0  0  0  0  0  0  0  0
   21.3629   26.3805   17.6115 C   0  0  0  0  0  0  0  0  0  0  0  0
   20.6733   27.3886   17.9127 O   0  0  0  0  0  0  0  0  0  0  0  0
   20.8824   25.4512   16.8284 N   0  0  0  0  0  0  0  0  0  0  0  0
   21.4496   24.6727   16.6247 H   0  0  0  0  0  0  0  0  0  0  0  0
   22.7529   26.2606   18.2551 C   0  0  0  0  0  0  0  0  0  0  0  0
   23.8645   24.4552   19.5148 C   0  0  0  0  0  0  0  0  0  0  0  0
   24.1256   25.1928   20.4731 O   0  0  0  0  0  0  0  0  0  0  0  0
   24.3341   23.0135   19.5045 C   0  0  0  0  0  0  0  0  0  0  0  0
   23.2043   24.9076   18.4354 N   0  0  0  0  0  0  0  0  0  0  0  0
   23.0156   24.2646   17.7142 H   0  0  0  0  0  0  0  0  0  0  0  0
   23.7421   27.0509   17.3734 C   0  0  0  0  0  0  0  0  0  0  0  0
   23.1024   28.1765   16.7893 O   0  0  0  0  0  0  0  0  0  0  0  0
   24.2228   26.1398   16.2117 C   0  0  0  0  0  0  0  0  0  0  0  0
   22.3645   27.8776   16.2352 H   0  0  0  0  0  0  0  0  0  0  0  0
   19.5827   25.4319   14.6857 C   0  0  0  0  0  0  0  0  0  0  0  0
   18.2628   25.8289   14.0847 C   0  0  0  0  0  0  0  0  0  0  0  0
   20.7972   26.2043   14.1514 C   0  0  0  0  0  0  0  0  0  0  0  0
   20.6668   27.7102   14.0895 C   0  0  0  0  0  0  0  0  0  0  0  0
   17.9226   23.3213   19.7362 C   0  0  0  0  0  0  0  0  0  0  0  0
   18.0717   21.8171   19.9823 C   0  0  0  0  0  0  0  0  0  0  0  0
   19.3170   21.4456   20.7679 C   0  0  0  0  0  0  0  0  0  0  0  0
   20.4891   22.3605   20.5054 C   0  0  0  0  0  0  0  0  0  0  0  0
   14.8966   20.6485   18.2872 C   0  0  0  0  0  0  0  0  0  0  0  0
   14.1738   20.6604   19.6084 C   0  0  0  0  0  0  0  0  0  0  0  0
   13.4499   19.3760   19.8571 C   0  0  0  0  0  0  0  0  0  0  0  0
   13.1115   19.1327   21.2819 C   0  0  0  0  0  0  0  0  0  0  0  0
 50 51  2  0  0  0
 50 52  1  0  0  0
 53 49  1  0  0  0
 49 45  1  0  0  0
 49 55  1  0  0  0
 45 46  2  0  0  0
 55 56  1  0  0  0
 55 57  1  0  0  0
 47 44  1  0  0  0
 44 40  1  0  0  0
 44 59  1  0  0  0
 40 41  2  0  0  0
 59 61  1  0  0  0
 59 60  1  0  0  0
 61 62  1  0  0  0
 42 39  1  0  0  0
 39 38  1  0  0  0
 39 63  1  0  0  0
 63 64  1  0  0  0
 64 65  1  0  0  0
 65 66  1  0  0  0
 36  1  1  0  0  0
  1  2  1  0  0  0
  1 67  1  0  0  0
  2  3  2  0  0  0
 67 68  1  0  0  0
 68 69  1  0  0  0
 69 70  1  0  0  0
  4  6  1  0  0  0
  6  7  1  0  0  0
  6 29  1  0  0  0
  7  8  2  0  0  0
 29 30  1  0  0  0
 30 31  1  0  0  0
 31 32  2  0  0  0
 31 33  1  0  0  0
  9 11  1  0  0  0
 11 12  1  0  0  0
 11 17  1  0  0  0
 12 13  2  0  0  0
 17 18  1  0  0  0
 18 19  1  0  0  0
 19 20  1  0  0  0
 20 22  1  0  0  0
 22 23  1  0  0  0
 22 24  2  0  0  0
 50 53  1  0  0  0
 45 47  1  0  0  0
 40 42  1  0  0  0
 38 36  1  0  0  0
  2  4  1  0  0  0
  7  9  1  0  0  0
 12 14  1  0  0  0
 53 54  1  0  0  0
 56 58  1  0  0  0
 47 48  1  0  0  0
 42 43  1  0  0  0
 36 37  1  0  0  0
  4  5  1  0  0  0
 33 34  1  0  0  0
 33 35  1  0  0  0
  9 10  1  0  0  0
 20 21  1  0  0  0
 23 25  1  0  0  0
 23 26  1  0  0  0
 24 27  1  0  0  0
 24 28  1  0  0  0
 14 15  1  0  0  0
 14 16  1  0  0  0
M  CHG 1  24   1
M  END
> <minimizedAffinity>
-8.25976

$$$$
2AOC_2NC_B_400


 70 69  0  0  0  0  0  0  0  0999 V2000
   15.1349   21.6199   16.2155 C   0  0  0  0  0  0  0  0  0  0  0  0
   16.5388   22.1412   16.0322 C   0  0  0  0  0  0  0  0  0  0  0  0
   17.5322   21.4806   16.2992 O   0  0  0  0  0  0  0  0  0  0  0  0
   16.6323   23.3812   15.6216 N   0  0  0  0  0  0  0  0  0  0  0  0
   15.8061   23.8795   15.4262 H   0  0  0  0  0  0  0  0  0  0  0  0
   17.9266   24.0570   15.4414 C   0  0  0  0  0  0  0  0  0  0  0  0
   18.3176   24.6619   16.7871 C   0  0  0  0  0  0  0  0  0  0  0  0
   17.5479   25.3781   17.4305 O   0  0  0  0  0  0  0  0  0  0  0  0
   19.5796   24.4969   17.1168 N   0  0  0  0  0  0  0  0  0  0  0  0
   20.1613   23.9726   16.5202 H   0  0  0  0  0  0  0  0  0  0  0  0
   20.1464   25.0606   18.3302 C   0  0  0  0  0  0  0  0  0  0  0  0
   21.2824   25.9995   17.9512 C   0  0  0  0  0  0  0  0  0  0  0  0
   22.4505   25.7349   18.2615 O   0  0  0  0  0  0  0  0  0  0  0  0
   20.9584   27.1995   17.2760 N   0  0  0  0  0  0  0  0  0  0  0  0
   20.0231   27.3929   17.0372 H   0  0  0  0  0  0  0  0  0  0  0  0
   21.6683   27.8413   17.0448 H   0  0  0  0  0  0  0  0  0  0  0  0
   20.6980   23.9660   19.2336 C   0  0  0  0  0  0  0  0  0  0  0  0
   20.2399   23.9799   20.6736 C   0  0  0  0  0  0  0  0  0  0  0  0
   18.7130   24.0450   20.6422 C   0  0  0  0  0  0  0  0  0  0  0  0
   18.0646   22.8537   21.1302 N   0  0  0  0  0  0  0  0  0  0  0  0
   18.1832   22.5886   22.0709 H   0  0  0  0  0  0  0  0  0  0  0  0
   17.3036   22.1016   20.3251 C   0  0  0  0  0  0  0  0  0  0  0  0
   17.7644   21.5551   19.2194 N   0  0  0  0  0  0  0  0  0  0  0  0
   16.0525   21.9183   20.6512 N   0  0  0  0  0  0  0  0  0  0  0  0
   18.7056   21.6849   18.9613 H   0  0  0  0  0  0  0  0  0  0  0  0
   17.1679   21.0165   18.6508 H   0  0  0  0  0  0  0  0  0  0  0  0
   15.6944   22.3210   21.4751 H   0  0  0  0  0  0  0  0  0  0  0  0
   15.4673   21.3774   20.0731 H   0  0  0  0  0  0  0  0  0  0  0  0
   17.8605   25.0745   14.3195 C   0  0  0  0  0  0  0  0  0  0  0  0
   18.7791   26.2652   14.4393 C   0  0  0  0  0  0  0  0  0  0  0  0
   20.2210   25.9614   14.0431 C   0  0  0  0  0  0  0  0  0  0  0  0
   20.6210   24.8243   14.0152 O   0  0  0  0  0  0  0  0  0  0  0  0
   20.9817   26.9674   13.6797 N   0  0  0  0  0  0  0  0  0  0  0  0
   20.6308   27.8867   13.7119 H   0  0  0  0  0  0  0  0  0  0  0  0
   21.9033   26.8027   13.3750 H   0  0  0  0  0  0  0  0  0  0  0  0
   14.9494   21.0858   17.5646 N   0  0  0  0  0  0  0  0  0  0  0  0
   15.7338   21.4019   18.1349 H   0  0  0  0  0  0  0  0  0  0  0  0
   13.7403   21.4646   18.2357 C   0  0  0  0  0  0  0  0  0  0  0  0
   12.8165   20.2971   18.5015 C   0  0  0  0  0  0  0  0  0  0  0  0
   11.1251   19.1310   17.2316 C   0  0  0  0  0  0  0  0  0  0  0  0
   10.3143   19.2491   18.1487 O   0  0  0  0  0  0  0  0  0  0  0  0
   12.3262   19.6417   17.2785 N   0  0  0  0  0  0  0  0  0  0  0  0
   12.9096   19.5877   16.4873 H   0  0  0  0  0  0  0  0  0  0  0  0
   10.8168   18.2910   16.0192 C   0  0  0  0  0  0  0  0  0  0  0  0
    9.7255   16.1283   16.4144 C   0  0  0  0  0  0  0  0  0  0  0  0
   10.8351   15.5407   16.3372 O   0  0  0  0  0  0  0  0  0  0  0  0
    9.6450   17.4257   16.2808 N   0  0  0  0  0  0  0  0  0  0  0  0
    8.7596   17.8493   16.3581 H   0  0  0  0  0  0  0  0  0  0  0  0
    8.4944   15.2679   16.7383 C   0  0  0  0  0  0  0  0  0  0  0  0
    7.7075   13.5424   15.1618 C   0  0  0  0  0  0  0  0  0  0  0  0
    6.8604   14.2915   14.6597 O   0  0  0  0  0  0  0  0  0  0  0  0
    7.8208   12.0992   14.7109 C   0  0  0  0  0  0  0  0  0  0  0  0
    8.5198   13.9570   16.1486 N   0  0  0  0  0  0  0  0  0  0  0  0
    9.1818   13.3151   16.4936 H   0  0  0  0  0  0  0  0  0  0  0  0
    8.3872   15.1711   18.2744 C   0  0  0  0  0  0  0  0  0  0  0  0
    9.1397   16.2040   18.8944 O   0  0  0  0  0  0  0  0  0  0  0  0
    8.9915   13.8184   18.7390 C   0  0  0  0  0  0  0  0  0  0  0  0
   10.0729   16.1195   18.6433 H   0  0  0  0  0  0  0  0  0  0  0  0
   10.5943   19.1947   14.7808 C   0  0  0  0  0  0  0  0  0  0  0  0
   10.7199   18.4007   13.5101 C   0  0  0  0  0  0  0  0  0  0  0  0
    9.2877   19.9883   14.9233 C   0  0  0  0  0  0  0  0  0  0  0  0
    9.3712   21.4782   14.6747 C   0  0  0  0  0  0  0  0  0  0  0  0
   13.5271   19.2634   19.3867 C   0  0  0  0  0  0  0  0  0  0  0  0
   13.2483   19.3692   20.8888 C   0  0  0  0  0  0  0  0  0  0  0  0
   12.1195   18.4728   21.3667 C   0  0  0  0  0  0  0  0  0  0  0  0
   11.9804   17.2013   20.5645 C   0  0  0  0  0  0  0  0  0  0  0  0
   14.1450   22.6996   15.8018 C   0  0  0  0  0  0  0  0  0  0  0  0
   13.2885   22.2229   14.6584 C   0  0  0  0  0  0  0  0  0  0  0  0
   13.9677   21.1541   13.8635 C   0  0  0  0  0  0  0  0  0  0  0  0
   14.6042   21.6361   12.6120 C   0  0  0  0  0  0  0  0  0  0  0  0
 50 51  2  0  0  0
 50 52  1  0  0  0
 53 49  1  0  0  0
 49 45  1  0  0  0
 49 55  1  0  0  0
 45 46  2  0  0  0
 55 56  1  0  0  0
 55 57  1  0  0  0
 47 44  1  0  0  0
 44 40  1  0  0  0
 44 59  1  0  0  0
 40 41  2  0  0  0
 59 61  1  0  0  0
 59 60  1  0  0  0
 61 62  1  0  0  0
 42 39  1  0  0  0
 39 38  1  0  0  0
 39 63  1  0  0  0
 63 64  1  0  0  0
 64 65  1  0  0  0
 65 66  1  0  0  0
 36  1  1  0  0  0
  1  2  1  0  0  0
  1 67  1  0  0  0
  2  3  2  0  0  0
 67 68  1  0  0  0
 68 69  1  0  0  0
 69 70  1  0  0  0
  4  6  1  0  0  0
  6  7  1  0  0  0
  6 29  1  0  0  0
  7  8  2  0  0  0
 29 30  1  0  0  0
 30 31  1  0  0  0
 31 32  2  0  0  0
 31 33  1  0  0  0
  9 11  1  0  0  0
 11 12  1  0  0  0
 11 17  1  0  0  0
 12 13  2  0  0  0
 17 18  1  0  0  0
 18 19  1  0  0  0
 19 20  1  0  0  0
 20 22  1  0  0  0
 22 23  1  0  0  0
 22 24  2  0  0  0
 50 53  1  0  0  0
 45 47  1  0  0  0
 40 42  1  0  0  0
 38 36  1  0  0  0
  2  4  1  0  0  0
  7  9  1  0  0  0
 12 14  1  0  0  0
 53 54  1  0  0  0
 56 58  1  0  0  0
 47 48  1  0  0  0
 42 43  1  0  0  0
 36 37  1  0  0  0
  4  5  1  0  0  0
 33 34  1  0  0  0
 33 35  1  0  0  0
  9 10  1  0  0  0
 20 21  1  0  0  0
 23 25  1  0  0  0
 23 26  1  0  0  0
 24 27  1  0  0  0
 24 28  1  0  0  0
 14 15  1  0  0  0
 14 16  1  0  0  0
M  CHG 1  24   1
M  END
> <minimizedAffinity>
-8.06636

$$$$
2AOC_2NC_B_400


 70 69  0  0  0  0  0  0  0  0999 V2000
   16.3504   22.7224   19.0378 C   0  0  0  0  0  0  0  0  0  0  0  0
   15.1602   23.0961   18.1893 C   0  0  0  0  0  0  0  0  0  0  0  0
   14.2998   23.8806   18.5616 O   0  0  0  0  0  0  0  0  0  0  0  0
   15.0694   22.4771   17.0388 N   0  0  0  0  0  0  0  0  0  0  0  0
   15.7808   21.8467   16.7822 H   0  0  0  0  0  0  0  0  0  0  0  0
   13.9437   22.6889   16.1158 C   0  0  0  0  0  0  0  0  0  0  0  0
   13.1718   21.3750   16.0271 C   0  0  0  0  0  0  0  0  0  0  0  0
   13.7344   20.2994   15.8130 O   0  0  0  0  0  0  0  0  0  0  0  0
   11.8637   21.5061   16.0301 N   0  0  0  0  0  0  0  0  0  0  0  0
   11.4770   22.4057   16.1328 H   0  0  0  0  0  0  0  0  0  0  0  0
   10.9681   20.3708   15.8871 C   0  0  0  0  0  0  0  0  0  0  0  0
    9.6654   20.8488   15.2622 C   0  0  0  0  0  0  0  0  0  0  0  0
    8.8530   21.5081   15.9225 O   0  0  0  0  0  0  0  0  0  0  0  0
    9.3932   20.4800   13.9241 N   0  0  0  0  0  0  0  0  0  0  0  0
   10.0519   19.9551   13.4144 H   0  0  0  0  0  0  0  0  0  0  0  0
    8.5450   20.7483   13.5024 H   0  0  0  0  0  0  0  0  0  0  0  0
   10.6602   19.7458   17.2410 C   0  0  0  0  0  0  0  0  0  0  0  0
    9.7916   18.5091   17.2356 C   0  0  0  0  0  0  0  0  0  0  0  0
   10.7159   17.3317   16.9256 C   0  0  0  0  0  0  0  0  0  0  0  0
   11.3807   16.7870   18.0829 N   0  0  0  0  0  0  0  0  0  0  0  0
   12.3643   16.7521   18.1045 H   0  0  0  0  0  0  0  0  0  0  0  0
   10.6824   16.3277   19.1290 C   0  0  0  0  0  0  0  0  0  0  0  0
    9.7506   15.4050   19.0106 N   0  0  0  0  0  0  0  0  0  0  0  0
   10.9338   16.8296   20.3081 N   0  0  0  0  0  0  0  0  0  0  0  0
    9.5506   15.0179   18.1278 H   0  0  0  0  0  0  0  0  0  0  0  0
    9.2540   15.1022   19.8049 H   0  0  0  0  0  0  0  0  0  0  0  0
   11.6278   17.5202   20.4114 H   0  0  0  0  0  0  0  0  0  0  0  0
   10.4293   16.5173   21.0937 H   0  0  0  0  0  0  0  0  0  0  0  0
   14.4272   23.1959   14.7713 C   0  0  0  0  0  0  0  0  0  0  0  0
   13.6429   22.7460   13.5636 C   0  0  0  0  0  0  0  0  0  0  0  0
   14.4399   21.8471   12.6229 C   0  0  0  0  0  0  0  0  0  0  0  0
   15.1215   22.3257   11.7509 O   0  0  0  0  0  0  0  0  0  0  0  0
   14.4036   20.5524   12.8351 N   0  0  0  0  0  0  0  0  0  0  0  0
   13.8386   20.1870   13.5538 H   0  0  0  0  0  0  0  0  0  0  0  0
   14.9413   19.9466   12.2755 H   0  0  0  0  0  0  0  0  0  0  0  0
   16.6442   23.7715   20.0142 N   0  0  0  0  0  0  0  0  0  0  0  0
   15.9400   23.7174   20.7502 H   0  0  0  0  0  0  0  0  0  0  0  0
   17.9339   23.7138   20.6379 C   0  0  0  0  0  0  0  0  0  0  0  0
   19.0651   23.5362   19.6501 C   0  0  0  0  0  0  0  0  0  0  0  0
   19.2098   24.3487   17.3802 C   0  0  0  0  0  0  0  0  0  0  0  0
   19.0894   23.2089   16.9341 O   0  0  0  0  0  0  0  0  0  0  0  0
   19.1573   24.6183   18.6570 N   0  0  0  0  0  0  0  0  0  0  0  0
   19.1797   25.5553   18.9582 H   0  0  0  0  0  0  0  0  0  0  0  0
   19.5316   25.5113   16.4773 C   0  0  0  0  0  0  0  0  0  0  0  0
   21.4695   26.7365   17.3535 C   0  0  0  0  0  0  0  0  0  0  0  0
   20.7230   27.3850   18.1312 O   0  0  0  0  0  0  0  0  0  0  0  0
   20.9745   25.8320   16.5507 N   0  0  0  0  0  0  0  0  0  0  0  0
   21.5931   25.3387   15.9648 H   0  0  0  0  0  0  0  0  0  0  0  0
   22.9798   27.0053   17.4405 C   0  0  0  0  0  0  0  0  0  0  0  0
   24.9247   25.5715   17.9341 C   0  0  0  0  0  0  0  0  0  0  0  0
   25.3448   26.3298   18.8168 O   0  0  0  0  0  0  0  0  0  0  0  0
   25.7062   24.3296   17.5519 C   0  0  0  0  0  0  0  0  0  0  0  0
   23.7980   25.8383   17.2521 N   0  0  0  0  0  0  0  0  0  0  0  0
   23.5115   25.1859   16.5728 H   0  0  0  0  0  0  0  0  0  0  0  0
   23.3203   28.0833   16.3905 C   0  0  0  0  0  0  0  0  0  0  0  0
   22.1341   28.6448   15.8473 O   0  0  0  0  0  0  0  0  0  0  0  0
   24.0950   27.4211   15.2191 C   0  0  0  0  0  0  0  0  0  0  0  0
   21.6137   27.9479   15.4179 H   0  0  0  0  0  0  0  0  0  0  0  0
   19.0881   25.2039   15.0251 C   0  0  0  0  0  0  0  0  0  0  0  0
   17.6282   25.5102   14.8360 C   0  0  0  0  0  0  0  0  0  0  0  0
   20.0291   25.8847   14.0210 C   0  0  0  0  0  0  0  0  0  0  0  0
   19.7950   27.3574   13.7665 C   0  0  0  0  0  0  0  0  0  0  0  0
   20.3980   23.4167   20.4025 C   0  0  0  0  0  0  0  0  0  0  0  0
   21.0283   24.7374   20.8540 C   0  0  0  0  0  0  0  0  0  0  0  0
   22.5074   24.8523   20.5298 C   0  0  0  0  0  0  0  0  0  0  0  0
   23.2401   23.5334   20.5871 C   0  0  0  0  0  0  0  0  0  0  0  0
   16.1294   21.3343   19.6217 C   0  0  0  0  0  0  0  0  0  0  0  0
   14.9070   21.3180   20.5013 C   0  0  0  0  0  0  0  0  0  0  0  0
   13.8692   20.3695   19.9926 C   0  0  0  0  0  0  0  0  0  0  0  0
   13.3922   19.3895   21.0005 C   0  0  0  0  0  0  0  0  0  0  0  0
 50 51  2  0  0  0
 50 52  1  0  0  0
 53 49  1  0  0  0
 49 45  1  0  0  0
 49 55  1  0  0  0
 45 46  2  0  0  0
 55 56  1  0  0  0
 55 57  1  0  0  0
 47 44  1  0  0  0
 44 40  1  0  0  0
 44 59  1  0  0  0
 40 41  2  0  0  0
 59 61  1  0  0  0
 59 60  1  0  0  0
 61 62  1  0  0  0
 42 39  1  0  0  0
 39 38  1  0  0  0
 39 63  1  0  0  0
 63 64  1  0  0  0
 64 65  1  0  0  0
 65 66  1  0  0  0
 36  1  1  0  0  0
  1  2  1  0  0  0
  1 67  1  0  0  0
  2  3  2  0  0  0
 67 68  1  0  0  0
 68 69  1  0  0  0
 69 70  1  0  0  0
  4  6  1  0  0  0
  6  7  1  0  0  0
  6 29  1  0  0  0
  7  8  2  0  0  0
 29 30  1  0  0  0
 30 31  1  0  0  0
 31 32  2  0  0  0
 31 33  1  0  0  0
  9 11  1  0  0  0
 11 12  1  0  0  0
 11 17  1  0  0  0
 12 13  2  0  0  0
 17 18  1  0  0  0
 18 19  1  0  0  0
 19 20  1  0  0  0
 20 22  1  0  0  0
 22 23  1  0  0  0
 22 24  2  0  0  0
 50 53  1  0  0  0
 45 47  1  0  0  0
 40 42  1  0  0  0
 38 36  1  0  0  0
  2  4  1  0  0  0
  7  9  1  0  0  0
 12 14  1  0  0  0
 53 54  1  0  0  0
 56 58  1  0  0  0
 47 48  1  0  0  0
 42 43  1  0  0  0
 36 37  1  0  0  0
  4  5  1  0  0  0
 33 34  1  0  0  0
 33 35  1  0  0  0
  9 10  1  0  0  0
 20 21  1  0  0  0
 23 25  1  0  0  0
 23 26  1  0  0  0
 24 27  1  0  0  0
 24 28  1  0  0  0
 14 15  1  0  0  0
 14 16  1  0  0  0
M  CHG 1  24   1
M  END
> <minimizedAffinity>
-7.99135

$$$$
2AOC_2NC_B_400


 70 69  0  0  0  0  0  0  0  0999 V2000
   15.5084   21.6540   15.9462 C   0  0  0  0  0  0  0  0  0  0  0  0
   16.9728   21.8793   16.2310 C   0  0  0  0  0  0  0  0  0  0  0  0
   17.6880   21.0294   16.7415 O   0  0  0  0  0  0  0  0  0  0  0  0
   17.4257   23.0757   15.9508 N   0  0  0  0  0  0  0  0  0  0  0  0
   16.8127   23.7324   15.5482 H   0  0  0  0  0  0  0  0  0  0  0  0
   18.8167   23.4745   16.2156 C   0  0  0  0  0  0  0  0  0  0  0  0
   18.8430   24.1655   17.5764 C   0  0  0  0  0  0  0  0  0  0  0  0
   17.9649   24.9574   17.9246 O   0  0  0  0  0  0  0  0  0  0  0  0
   19.9471   23.9786   18.2652 N   0  0  0  0  0  0  0  0  0  0  0  0
   20.6431   23.3886   17.8955 H   0  0  0  0  0  0  0  0  0  0  0  0
   20.1769   24.6118   19.5528 C   0  0  0  0  0  0  0  0  0  0  0  0
   21.6519   24.9677   19.6686 C   0  0  0  0  0  0  0  0  0  0  0  0
   22.0126   25.9653   20.3053 O   0  0  0  0  0  0  0  0  0  0  0  0
   22.5895   24.1526   18.9924 N   0  0  0  0  0  0  0  0  0  0  0  0
   22.2836   23.3626   18.4907 H   0  0  0  0  0  0  0  0  0  0  0  0
   23.5480   24.3752   19.0234 H   0  0  0  0  0  0  0  0  0  0  0  0
   19.8094   23.6738   20.6946 C   0  0  0  0  0  0  0  0  0  0  0  0
   19.9680   22.1936   20.4343 C   0  0  0  0  0  0  0  0  0  0  0  0
   18.6236   21.5481   20.7698 C   0  0  0  0  0  0  0  0  0  0  0  0
   17.6332   21.6810   19.7308 N   0  0  0  0  0  0  0  0  0  0  0  0
   17.8503   21.3921   18.8151 H   0  0  0  0  0  0  0  0  0  0  0  0
   16.4228   22.1911   19.9908 C   0  0  0  0  0  0  0  0  0  0  0  0
   15.8720   23.1270   19.2462 N   0  0  0  0  0  0  0  0  0  0  0  0
   15.7752   21.7453   21.0334 N   0  0  0  0  0  0  0  0  0  0  0  0
   16.3488   23.4725   18.4572 H   0  0  0  0  0  0  0  0  0  0  0  0
   14.9833   23.4814   19.4785 H   0  0  0  0  0  0  0  0  0  0  0  0
   16.1750   21.0456   21.5990 H   0  0  0  0  0  0  0  0  0  0  0  0
   14.8872   22.1088   21.2538 H   0  0  0  0  0  0  0  0  0  0  0  0
   19.3622   24.3342   15.0923 C   0  0  0  0  0  0  0  0  0  0  0  0
   19.6495   25.7761   15.4306 C   0  0  0  0  0  0  0  0  0  0  0  0
   19.0937   26.7618   14.4069 C   0  0  0  0  0  0  0  0  0  0  0  0
   18.0823   26.5091   13.8010 O   0  0  0  0  0  0  0  0  0  0  0  0
   19.7172   27.9071   14.2575 N   0  0  0  0  0  0  0  0  0  0  0  0
   20.5415   28.0886   14.7643 H   0  0  0  0  0  0  0  0  0  0  0  0
   19.3606   28.5846   13.6387 H   0  0  0  0  0  0  0  0  0  0  0  0
   14.8645   20.9491   17.0545 N   0  0  0  0  0  0  0  0  0  0  0  0
   15.3095   21.2568   17.9192 H   0  0  0  0  0  0  0  0  0  0  0  0
   13.4513   21.1465   17.1958 C   0  0  0  0  0  0  0  0  0  0  0  0
   12.7986   20.1377   18.1141 C   0  0  0  0  0  0  0  0  0  0  0  0
   10.7562   19.0480   17.4252 C   0  0  0  0  0  0  0  0  0  0  0  0
   10.0759   19.9299   17.9469 O   0  0  0  0  0  0  0  0  0  0  0  0
   12.0616   19.0813   17.4024 N   0  0  0  0  0  0  0  0  0  0  0  0
   12.5577   18.3925   16.9037 H   0  0  0  0  0  0  0  0  0  0  0  0
   10.1222   17.8036   16.8596 C   0  0  0  0  0  0  0  0  0  0  0  0
    9.9325   18.3884   14.4834 C   0  0  0  0  0  0  0  0  0  0  0  0
    9.0872   19.2787   14.7577 O   0  0  0  0  0  0  0  0  0  0  0  0
   10.4666   17.6596   15.4275 N   0  0  0  0  0  0  0  0  0  0  0  0
   11.1320   16.9801   15.1731 H   0  0  0  0  0  0  0  0  0  0  0  0
   10.3537   18.2469   13.0126 C   0  0  0  0  0  0  0  0  0  0  0  0
   12.6625   17.4352   12.7081 C   0  0  0  0  0  0  0  0  0  0  0  0
   13.1508   18.5610   12.8657 O   0  0  0  0  0  0  0  0  0  0  0  0
   13.5506   16.2522   12.3750 C   0  0  0  0  0  0  0  0  0  0  0  0
   11.3371   17.2250   12.7768 N   0  0  0  0  0  0  0  0  0  0  0  0
   11.0154   16.3023   12.6566 H   0  0  0  0  0  0  0  0  0  0  0  0
    9.0779   17.9741   12.1889 C   0  0  0  0  0  0  0  0  0  0  0  0
    8.1998   19.0893   12.2428 O   0  0  0  0  0  0  0  0  0  0  0  0
    8.3257   16.7650   12.8075 C   0  0  0  0  0  0  0  0  0  0  0  0
    7.9441   19.2552   13.1636 H   0  0  0  0  0  0  0  0  0  0  0  0
   10.5524   16.5606   17.6782 C   0  0  0  0  0  0  0  0  0  0  0  0
   10.0703   16.6631   19.0987 C   0  0  0  0  0  0  0  0  0  0  0  0
   10.1500   15.2714   16.9480 C   0  0  0  0  0  0  0  0  0  0  0  0
    9.6761   14.1244   17.8130 C   0  0  0  0  0  0  0  0  0  0  0  0
   13.8592   19.4992   19.0222 C   0  0  0  0  0  0  0  0  0  0  0  0
   13.5524   18.0797   19.5082 C   0  0  0  0  0  0  0  0  0  0  0  0
   12.9091   18.0288   20.8827 C   0  0  0  0  0  0  0  0  0  0  0  0
   13.1847   19.2535   21.7217 C   0  0  0  0  0  0  0  0  0  0  0  0
   14.8672   22.9787   15.5580 C   0  0  0  0  0  0  0  0  0  0  0  0
   14.0527   22.8246   14.3005 C   0  0  0  0  0  0  0  0  0  0  0  0
   14.4919   21.6437   13.4955 C   0  0  0  0  0  0  0  0  0  0  0  0
   15.0388   21.9862   12.1586 C   0  0  0  0  0  0  0  0  0  0  0  0
 50 51  2  0  0  0
 50 52  1  0  0  0
 53 49  1  0  0  0
 49 45  1  0  0  0
 49 55  1  0  0  0
 45 46  2  0  0  0
 55 56  1  0  0  0
 55 57  1  0  0  0
 47 44  1  0  0  0
 44 40  1  0  0  0
 44 59  1  0  0  0
 40 41  2  0  0  0
 59 61  1  0  0  0
 59 60  1  0  0  0
 61 62  1  0  0  0
 42 39  1  0  0  0
 39 38  1  0  0  0
 39 63  1  0  0  0
 63 64  1  0  0  0
 64 65  1  0  0  0
 65 66  1  0  0  0
 36  1  1  0  0  0
  1  2  1  0  0  0
  1 67  1  0  0  0
  2  3  2  0  0  0
 67 68  1  0  0  0
 68 69  1  0  0  0
 69 70  1  0  0  0
  4  6  1  0  0  0
  6  7  1  0  0  0
  6 29  1  0  0  0
  7  8  2  0  0  0
 29 30  1  0  0  0
 30 31  1  0  0  0
 31 32  2  0  0  0
 31 33  1  0  0  0
  9 11  1  0  0  0
 11 12  1  0  0  0
 11 17  1  0  0  0
 12 13  2  0  0  0
 17 18  1  0  0  0
 18 19  1  0  0  0
 19 20  1  0  0  0
 20 22  1  0  0  0
 22 23  1  0  0  0
 22 24  2  0  0  0
 50 53  1  0  0  0
 45 47  1  0  0  0
 40 42  1  0  0  0
 38 36  1  0  0  0
  2  4  1  0  0  0
  7  9  1  0  0  0
 12 14  1  0  0  0
 53 54  1  0  0  0
 56 58  1  0  0  0
 47 48  1  0  0  0
 42 43  1  0  0  0
 36 37  1  0  0  0
  4  5  1  0  0  0
 33 34  1  0  0  0
 33 35  1  0  0  0
  9 10  1  0  0  0
 20 21  1  0  0  0
 23 25  1  0  0  0
 23 26  1  0  0  0
 24 27  1  0  0  0
 24 28  1  0  0  0
 14 15  1  0  0  0
 14 16  1  0  0  0
M  CHG 1  24   1
M  END
> <minimizedAffinity>
-7.98332

$$$$
2AOC_2NC_B_400


 70 69  0  0  0  0  0  0  0  0999 V2000
   12.8461   19.8984   18.1564 C   0  0  0  0  0  0  0  0  0  0  0  0
   11.5344   19.4297   17.5766 C   0  0  0  0  0  0  0  0  0  0  0  0
   10.4847   19.4569   18.2025 O   0  0  0  0  0  0  0  0  0  0  0  0
   11.5972   18.9292   16.3681 N   0  0  0  0  0  0  0  0  0  0  0  0
   12.4652   18.9192   15.9036 H   0  0  0  0  0  0  0  0  0  0  0  0
   10.4186   18.3813   15.6790 C   0  0  0  0  0  0  0  0  0  0  0  0
   10.8068   17.0119   15.1278 C   0  0  0  0  0  0  0  0  0  0  0  0
   10.9914   16.0396   15.8627 O   0  0  0  0  0  0  0  0  0  0  0  0
   11.0874   16.9970   13.8435 N   0  0  0  0  0  0  0  0  0  0  0  0
   10.9880   17.8287   13.3263 H   0  0  0  0  0  0  0  0  0  0  0  0
   11.5389   15.7968   13.1601 C   0  0  0  0  0  0  0  0  0  0  0  0
   12.6571   16.1708   12.1981 C   0  0  0  0  0  0  0  0  0  0  0  0
   12.6924   15.6966   11.0559 O   0  0  0  0  0  0  0  0  0  0  0  0
   13.6738   17.0378   12.6623 N   0  0  0  0  0  0  0  0  0  0  0  0
   13.6286   17.4054   13.5745 H   0  0  0  0  0  0  0  0  0  0  0  0
   14.4265   17.2736   12.0733 H   0  0  0  0  0  0  0  0  0  0  0  0
   10.4045   15.1616   12.3675 C   0  0  0  0  0  0  0  0  0  0  0  0
    9.2351   14.6301   13.1637 C   0  0  0  0  0  0  0  0  0  0  0  0
    9.5947   13.1977   13.5582 C   0  0  0  0  0  0  0  0  0  0  0  0
    9.1495   12.8229   14.8770 N   0  0  0  0  0  0  0  0  0  0  0  0
    8.1865   12.7138   15.0501 H   0  0  0  0  0  0  0  0  0  0  0  0
   10.0241   12.6207   15.8705 C   0  0  0  0  0  0  0  0  0  0  0  0
   10.0288   13.3443   16.9705 N   0  0  0  0  0  0  0  0  0  0  0  0
   10.9121   11.6737   15.7288 N   0  0  0  0  0  0  0  0  0  0  0  0
    9.3652   14.0615   17.0907 H   0  0  0  0  0  0  0  0  0  0  0  0
   10.6959   13.1682   17.6727 H   0  0  0  0  0  0  0  0  0  0  0  0
   10.9202   11.1248   14.9116 H   0  0  0  0  0  0  0  0  0  0  0  0
   11.5733   11.5087   16.4393 H   0  0  0  0  0  0  0  0  0  0  0  0
    9.9129   19.3374   14.6168 C   0  0  0  0  0  0  0  0  0  0  0  0
   10.1913   20.8023   14.8459 C   0  0  0  0  0  0  0  0  0  0  0  0
    8.9899   21.5707   15.3886 C   0  0  0  0  0  0  0  0  0  0  0  0
    8.1866   22.0616   14.6351 O   0  0  0  0  0  0  0  0  0  0  0  0
    8.8336   21.6239   16.6907 N   0  0  0  0  0  0  0  0  0  0  0  0
    9.5043   21.2150   17.2841 H   0  0  0  0  0  0  0  0  0  0  0  0
    8.0456   22.0727   17.0740 H   0  0  0  0  0  0  0  0  0  0  0  0
   13.0539   21.3219   17.8913 N   0  0  0  0  0  0  0  0  0  0  0  0
   12.2187   21.8206   18.1982 H   0  0  0  0  0  0  0  0  0  0  0  0
   14.1848   21.9276   18.5318 C   0  0  0  0  0  0  0  0  0  0  0  0
   15.1047   22.6398   17.5656 C   0  0  0  0  0  0  0  0  0  0  0  0
   17.0968   23.4121   18.6919 C   0  0  0  0  0  0  0  0  0  0  0  0
   16.4695   24.3144   19.2441 O   0  0  0  0  0  0  0  0  0  0  0  0
   16.5298   22.5280   17.9157 N   0  0  0  0  0  0  0  0  0  0  0  0
   17.0612   21.7790   17.5610 H   0  0  0  0  0  0  0  0  0  0  0  0
   18.5977   23.3270   18.7953 C   0  0  0  0  0  0  0  0  0  0  0  0
   19.4310   24.4959   16.8044 C   0  0  0  0  0  0  0  0  0  0  0  0
   19.0856   23.5290   16.0775 O   0  0  0  0  0  0  0  0  0  0  0  0
   19.2244   24.4700   18.0945 N   0  0  0  0  0  0  0  0  0  0  0  0
   19.4997   25.2507   18.6274 H   0  0  0  0  0  0  0  0  0  0  0  0
   20.0361   25.7222   16.1039 C   0  0  0  0  0  0  0  0  0  0  0  0
   21.6717   26.8890   17.5339 C   0  0  0  0  0  0  0  0  0  0  0  0
   20.7918   27.4527   18.1963 O   0  0  0  0  0  0  0  0  0  0  0  0
   23.1365   27.1759   17.8006 C   0  0  0  0  0  0  0  0  0  0  0  0
   21.3698   26.0468   16.5314 N   0  0  0  0  0  0  0  0  0  0  0  0
   22.1177   25.6202   16.0540 H   0  0  0  0  0  0  0  0  0  0  0  0
   20.0025   25.4523   14.5851 C   0  0  0  0  0  0  0  0  0  0  0  0
   21.0113   24.5215   14.2201 O   0  0  0  0  0  0  0  0  0  0  0  0
   20.3015   26.7756   13.8299 C   0  0  0  0  0  0  0  0  0  0  0  0
   21.8820   24.8810   14.4514 H   0  0  0  0  0  0  0  0  0  0  0  0
   19.0319   23.2605   20.2809 C   0  0  0  0  0  0  0  0  0  0  0  0
   19.0033   21.8435   20.7832 C   0  0  0  0  0  0  0  0  0  0  0  0
   20.3655   23.9937   20.4837 C   0  0  0  0  0  0  0  0  0  0  0  0
   21.6121   23.1368   20.5022 C   0  0  0  0  0  0  0  0  0  0  0  0
   14.8828   22.1022   16.1448 C   0  0  0  0  0  0  0  0  0  0  0  0
   14.5441   23.1510   15.0815 C   0  0  0  0  0  0  0  0  0  0  0  0
   13.9267   22.5689   13.8221 C   0  0  0  0  0  0  0  0  0  0  0  0
   14.9335   22.2896   12.7322 C   0  0  0  0  0  0  0  0  0  0  0  0
   12.9158   19.4930   19.6219 C   0  0  0  0  0  0  0  0  0  0  0  0
   13.3766   18.0654   19.7553 C   0  0  0  0  0  0  0  0  0  0  0  0
   12.3699   17.2212   20.4691 C   0  0  0  0  0  0  0  0  0  0  0  0
   11.6138   17.9372   21.5271 C   0  0  0  0  0  0  0  0  0  0  0  0
 50 51  2  0  0  0
 50 52  1  0  0  0
 53 49  1  0  0  0
 49 45  1  0  0  0
 49 55  1  0  0  0
 45 46  2  0  0  0
 55 56  1  0  0  0
 55 57  1  0  0  0
 47 44  1  0  0  0
 44 40  1  0  0  0
 44 59  1  0  0  0
 40 41  2  0  0  0
 59 61  1  0  0  0
 59 60  1  0  0  0
 61 62  1  0  0  0
 42 39  1  0  0  0
 39 38  1  0  0  0
 39 63  1  0  0  0
 63 64  1  0  0  0
 64 65  1  0  0  0
 65 66  1  0  0  0
 36  1  1  0  0  0
  1  2  1  0  0  0
  1 67  1  0  0  0
  2  3  2  0  0  0
 67 68  1  0  0  0
 68 69  1  0  0  0
 69 70  1  0  0  0
  4  6  1  0  0  0
  6  7  1  0  0  0
  6 29  1  0  0  0
  7  8  2  0  0  0
 29 30  1  0  0  0
 30 31  1  0  0  0
 31 32  2  0  0  0
 31 33  1  0  0  0
  9 11  1  0  0  0
 11 12  1  0  0  0
 11 17  1  0  0  0
 12 13  2  0  0  0
 17 18  1  0  0  0
 18 19  1  0  0  0
 19 20  1  0  0  0
 20 22  1  0  0  0
 22 23  1  0  0  0
 22 24  2  0  0  0
 50 53  1  0  0  0
 45 47  1  0  0  0
 40 42  1  0  0  0
 38 36  1  0  0  0
  2  4  1  0  0  0
  7  9  1  0  0  0
 12 14  1  0  0  0
 53 54  1  0  0  0
 56 58  1  0  0  0
 47 48  1  0  0  0
 42 43  1  0  0  0
 36 37  1  0  0  0
  4  5  1  0  0  0
 33 34  1  0  0  0
 33 35  1  0  0  0
  9 10  1  0  0  0
 20 21  1  0  0  0
 23 25  1  0  0  0
 23 26  1  0  0  0
 24 27  1  0  0  0
 24 28  1  0  0  0
 14 15  1  0  0  0
 14 16  1  0  0  0
M  CHG 1  24   1
M  END
> <minimizedAffinity>
-7.92850

$$$$
2AOC_2NC_B_400


 70 69  0  0  0  0  0  0  0  0999 V2000
   12.8377   19.9071   18.3219 C   0  0  0  0  0  0  0  0  0  0  0  0
   11.5073   19.5235   17.7227 C   0  0  0  0  0  0  0  0  0  0  0  0
   10.4395   19.7716   18.2638 O   0  0  0  0  0  0  0  0  0  0  0  0
   11.5656   18.8468   16.6030 N   0  0  0  0  0  0  0  0  0  0  0  0
   12.4474   18.6618   16.2063 H   0  0  0  0  0  0  0  0  0  0  0  0
   10.3620   18.3530   15.9162 C   0  0  0  0  0  0  0  0  0  0  0  0
   10.5659   16.8639   15.6504 C   0  0  0  0  0  0  0  0  0  0  0  0
   11.2041   16.4547   14.6784 O   0  0  0  0  0  0  0  0  0  0  0  0
    9.8752   16.0669   16.4353 N   0  0  0  0  0  0  0  0  0  0  0  0
    9.3262   16.4635   17.1498 H   0  0  0  0  0  0  0  0  0  0  0  0
    9.8931   14.6216   16.2860 C   0  0  0  0  0  0  0  0  0  0  0  0
    8.9725   14.2352   15.1375 C   0  0  0  0  0  0  0  0  0  0  0  0
    7.7437   14.2491   15.2812 O   0  0  0  0  0  0  0  0  0  0  0  0
    9.5625   13.8191   13.9212 N   0  0  0  0  0  0  0  0  0  0  0  0
   10.5424   13.8148   13.8255 H   0  0  0  0  0  0  0  0  0  0  0  0
    8.9933   13.5338   13.1703 H   0  0  0  0  0  0  0  0  0  0  0  0
    9.4050   13.9366   17.5552 C   0  0  0  0  0  0  0  0  0  0  0  0
    8.8839   14.8347   18.6534 C   0  0  0  0  0  0  0  0  0  0  0  0
    7.3740   14.6057   18.7208 C   0  0  0  0  0  0  0  0  0  0  0  0
    6.7776   14.9896   19.9757 N   0  0  0  0  0  0  0  0  0  0  0  0
    7.3313   15.0074   20.7896 H   0  0  0  0  0  0  0  0  0  0  0  0
    5.4830   15.3226   20.0527 C   0  0  0  0  0  0  0  0  0  0  0  0
    4.5715   14.8195   19.2467 N   0  0  0  0  0  0  0  0  0  0  0  0
    5.1211   16.1909   20.9584 N   0  0  0  0  0  0  0  0  0  0  0  0
    4.8301   14.1639   18.5593 H   0  0  0  0  0  0  0  0  0  0  0  0
    3.6313   15.0988   19.3315 H   0  0  0  0  0  0  0  0  0  0  0  0
    5.7920   16.5753   21.5677 H   0  0  0  0  0  0  0  0  0  0  0  0
    4.1772   16.4612   21.0318 H   0  0  0  0  0  0  0  0  0  0  0  0
   10.0802   19.1563   14.6618 C   0  0  0  0  0  0  0  0  0  0  0  0
   10.3051   20.6452   14.7544 C   0  0  0  0  0  0  0  0  0  0  0  0
    9.0626   21.4211   15.1816 C   0  0  0  0  0  0  0  0  0  0  0  0
    8.2635   21.7965   14.3604 O   0  0  0  0  0  0  0  0  0  0  0  0
    8.8687   21.6088   16.4661 N   0  0  0  0  0  0  0  0  0  0  0  0
    9.5370   21.2925   17.1162 H   0  0  0  0  0  0  0  0  0  0  0  0
    8.0550   22.0659   16.7795 H   0  0  0  0  0  0  0  0  0  0  0  0
   13.1703   21.2962   18.0061 N   0  0  0  0  0  0  0  0  0  0  0  0
   13.9587   21.5685   18.5933 H   0  0  0  0  0  0  0  0  0  0  0  0
   13.5248   21.5693   16.6439 C   0  0  0  0  0  0  0  0  0  0  0  0
   14.2983   22.8582   16.4774 C   0  0  0  0  0  0  0  0  0  0  0  0
   15.9612   23.3291   18.1645 C   0  0  0  0  0  0  0  0  0  0  0  0
   15.1108   23.8157   18.9079 O   0  0  0  0  0  0  0  0  0  0  0  0
   15.6695   22.7968   17.0081 N   0  0  0  0  0  0  0  0  0  0  0  0
   16.3744   22.3498   16.4860 H   0  0  0  0  0  0  0  0  0  0  0  0
   17.4284   23.4075   18.4987 C   0  0  0  0  0  0  0  0  0  0  0  0
   18.8950   24.6189   16.9477 C   0  0  0  0  0  0  0  0  0  0  0  0
   19.2745   23.5327   16.4392 O   0  0  0  0  0  0  0  0  0  0  0  0
   18.0205   24.6335   17.9186 N   0  0  0  0  0  0  0  0  0  0  0  0
   17.7413   25.5045   18.2828 H   0  0  0  0  0  0  0  0  0  0  0  0
   19.4485   25.9145   16.3346 C   0  0  0  0  0  0  0  0  0  0  0  0
   21.6120   26.8686   17.0352 C   0  0  0  0  0  0  0  0  0  0  0  0
   21.0812   27.6867   17.7965 O   0  0  0  0  0  0  0  0  0  0  0  0
   23.1158   26.8631   16.8410 C   0  0  0  0  0  0  0  0  0  0  0  0
   20.8839   25.9938   16.3209 N   0  0  0  0  0  0  0  0  0  0  0  0
   21.3697   25.3599   15.7452 H   0  0  0  0  0  0  0  0  0  0  0  0
   18.8841   26.0284   14.9031 C   0  0  0  0  0  0  0  0  0  0  0  0
   17.8461   25.0807   14.6979 O   0  0  0  0  0  0  0  0  0  0  0  0
   20.0125   25.7031   13.8875 C   0  0  0  0  0  0  0  0  0  0  0  0
   18.1970   24.1849   14.8219 H   0  0  0  0  0  0  0  0  0  0  0  0
   17.6351   23.3442   20.0328 C   0  0  0  0  0  0  0  0  0  0  0  0
   17.4528   21.9402   20.5392 C   0  0  0  0  0  0  0  0  0  0  0  0
   18.9637   24.0072   20.4232 C   0  0  0  0  0  0  0  0  0  0  0  0
   20.1893   23.1205   20.4165 C   0  0  0  0  0  0  0  0  0  0  0  0
   14.3404   23.2507   14.9938 C   0  0  0  0  0  0  0  0  0  0  0  0
   13.4514   22.4236   14.0607 C   0  0  0  0  0  0  0  0  0  0  0  0
   14.2189   21.4349   13.2008 C   0  0  0  0  0  0  0  0  0  0  0  0
   15.0760   22.0932   12.1465 C   0  0  0  0  0  0  0  0  0  0  0  0
   12.8349   19.5600   19.8039 C   0  0  0  0  0  0  0  0  0  0  0  0
   13.3388   18.1574   20.0204 C   0  0  0  0  0  0  0  0  0  0  0  0
   12.2166   17.1779   20.1504 C   0  0  0  0  0  0  0  0  0  0  0  0
   11.8036   16.9058   21.5501 C   0  0  0  0  0  0  0  0  0  0  0  0
 50 51  2  0  0  0
 50 52  1  0  0  0
 53 49  1  0  0  0
 49 45  1  0  0  0
 49 55  1  0  0  0
 45 46  2  0  0  0
 55 56  1  0  0  0
 55 57  1  0  0  0
 47 44  1  0  0  0
 44 40  1  0  0  0
 44 59  1  0  0  0
 40 41  2  0  0  0
 59 61  1  0  0  0
 59 60  1  0  0  0
 61 62  1  0  0  0
 42 39  1  0  0  0
 39 38  1  0  0  0
 39 63  1  0  0  0
 63 64  1  0  0  0
 64 65  1  0  0  0
 65 66  1  0  0  0
 36  1  1  0  0  0
  1  2  1  0  0  0
  1 67  1  0  0  0
  2  3  2  0  0  0
 67 68  1  0  0  0
 68 69  1  0  0  0
 69 70  1  0  0  0
  4  6  1  0  0  0
  6  7  1  0  0  0
  6 29  1  0  0  0
  7  8  2  0  0  0
 29 30  1  0  0  0
 30 31  1  0  0  0
 31 32  2  0  0  0
 31 33  1  0  0  0
  9 11  1  0  0  0
 11 12  1  0  0  0
 11 17  1  0  0  0
 12 13  2  0  0  0
 17 18  1  0  0  0
 18 19  1  0  0  0
 19 20  1  0  0  0
 20 22  1  0  0  0
 22 23  1  0  0  0
 22 24  2  0  0  0
 50 53  1  0  0  0
 45 47  1  0  0  0
 40 42  1  0  0  0
 38 36  1  0  0  0
  2  4  1  0  0  0
  7  9  1  0  0  0
 12 14  1  0  0  0
 53 54  1  0  0  0
 56 58  1  0  0  0
 47 48  1  0  0  0
 42 43  1  0  0  0
 36 37  1  0  0  0
  4  5  1  0  0  0
 33 34  1  0  0  0
 33 35  1  0  0  0
  9 10  1  0  0  0
 20 21  1  0  0  0
 23 25  1  0  0  0
 23 26  1  0  0  0
 24 27  1  0  0  0
 24 28  1  0  0  0
 14 15  1  0  0  0
 14 16  1  0  0  0
M  CHG 1  24   1
M  END
> <minimizedAffinity>
-7.83465

$$$$
2AOC_2NC_B_400


 70 69  0  0  0  0  0  0  0  0999 V2000
   13.8717   21.7216   17.9302 C   0  0  0  0  0  0  0  0  0  0  0  0
   14.6852   22.8688   18.4765 C   0  0  0  0  0  0  0  0  0  0  0  0
   14.1877   23.9324   18.8167 O   0  0  0  0  0  0  0  0  0  0  0  0
   15.9804   22.6782   18.5095 N   0  0  0  0  0  0  0  0  0  0  0  0
   16.3393   21.8089   18.2182 H   0  0  0  0  0  0  0  0  0  0  0  0
   16.9189   23.7150   18.9659 C   0  0  0  0  0  0  0  0  0  0  0  0
   17.9842   23.8753   17.8845 C   0  0  0  0  0  0  0  0  0  0  0  0
   18.3296   22.9376   17.1629 O   0  0  0  0  0  0  0  0  0  0  0  0
   18.6111   25.0308   17.8991 N   0  0  0  0  0  0  0  0  0  0  0  0
   18.3331   25.7134   18.5517 H   0  0  0  0  0  0  0  0  0  0  0  0
   19.6997   25.3364   16.9864 C   0  0  0  0  0  0  0  0  0  0  0  0
   20.7744   26.1031   17.7433 C   0  0  0  0  0  0  0  0  0  0  0  0
   20.9633   25.9010   18.9492 O   0  0  0  0  0  0  0  0  0  0  0  0
   21.5167   27.0804   17.0399 N   0  0  0  0  0  0  0  0  0  0  0  0
   21.3524   27.2270   16.0804 H   0  0  0  0  0  0  0  0  0  0  0  0
   22.1976   27.6139   17.5099 H   0  0  0  0  0  0  0  0  0  0  0  0
   19.2133   26.1940   15.8260 C   0  0  0  0  0  0  0  0  0  0  0  0
   19.2406   25.5589   14.4549 C   0  0  0  0  0  0  0  0  0  0  0  0
   17.7898   25.2359   14.0979 C   0  0  0  0  0  0  0  0  0  0  0  0
   17.3603   23.9250   14.5164 N   0  0  0  0  0  0  0  0  0  0  0  0
   18.0255   23.2823   14.8536 H   0  0  0  0  0  0  0  0  0  0  0  0
   16.0716   23.5670   14.4540 C   0  0  0  0  0  0  0  0  0  0  0  0
   15.6216   22.6824   13.5888 N   0  0  0  0  0  0  0  0  0  0  0  0
   15.2326   24.1321   15.2798 N   0  0  0  0  0  0  0  0  0  0  0  0
   16.2428   22.2485   12.9603 H   0  0  0  0  0  0  0  0  0  0  0  0
   14.6640   22.4548   13.5705 H   0  0  0  0  0  0  0  0  0  0  0  0
   15.5551   24.7954   15.9320 H   0  0  0  0  0  0  0  0  0  0  0  0
   14.2775   23.8949   15.2503 H   0  0  0  0  0  0  0  0  0  0  0  0
   17.4896   23.3744   20.3285 C   0  0  0  0  0  0  0  0  0  0  0  0
   17.6300   21.9068   20.6487 C   0  0  0  0  0  0  0  0  0  0  0  0
   19.0451   21.5074   21.0566 C   0  0  0  0  0  0  0  0  0  0  0  0
   19.2238   20.7009   21.9349 O   0  0  0  0  0  0  0  0  0  0  0  0
   20.0460   22.0232   20.3821 N   0  0  0  0  0  0  0  0  0  0  0  0
   19.8728   22.6801   19.6695 H   0  0  0  0  0  0  0  0  0  0  0  0
   20.9699   21.7532   20.5888 H   0  0  0  0  0  0  0  0  0  0  0  0
   13.8106   21.7752   16.4696 N   0  0  0  0  0  0  0  0  0  0  0  0
   14.5740   22.3703   16.1480 H   0  0  0  0  0  0  0  0  0  0  0  0
   13.9161   20.5202   15.7842 C   0  0  0  0  0  0  0  0  0  0  0  0
   12.9539   20.3931   14.6244 C   0  0  0  0  0  0  0  0  0  0  0  0
   12.6196   18.2244   13.6153 C   0  0  0  0  0  0  0  0  0  0  0  0
   13.5435   18.4171   12.8267 O   0  0  0  0  0  0  0  0  0  0  0  0
   12.2934   19.0804   14.5462 N   0  0  0  0  0  0  0  0  0  0  0  0
   11.5983   18.8449   15.2024 H   0  0  0  0  0  0  0  0  0  0  0  0
   11.7262   17.0172   13.4925 C   0  0  0  0  0  0  0  0  0  0  0  0
   10.3653   15.9667   15.2442 C   0  0  0  0  0  0  0  0  0  0  0  0
   10.9213   14.8591   15.0287 O   0  0  0  0  0  0  0  0  0  0  0  0
   10.7017   17.0283   14.5604 N   0  0  0  0  0  0  0  0  0  0  0  0
   10.2505   17.8788   14.7661 H   0  0  0  0  0  0  0  0  0  0  0  0
    9.3347   16.0274   16.3822 C   0  0  0  0  0  0  0  0  0  0  0  0
    7.5094   14.3990   16.0687 C   0  0  0  0  0  0  0  0  0  0  0  0
    6.9265   15.1100   15.2408 O   0  0  0  0  0  0  0  0  0  0  0  0
    6.9031   13.0820   16.5128 C   0  0  0  0  0  0  0  0  0  0  0  0
    8.6650   14.7812   16.6380 N   0  0  0  0  0  0  0  0  0  0  0  0
    9.0843   14.1617   17.2780 H   0  0  0  0  0  0  0  0  0  0  0  0
   10.0687   16.5197   17.6469 C   0  0  0  0  0  0  0  0  0  0  0  0
   11.4701   16.3276   17.5186 O   0  0  0  0  0  0  0  0  0  0  0  0
    9.5978   15.6787   18.8642 C   0  0  0  0  0  0  0  0  0  0  0  0
   11.6575   15.3833   17.3999 H   0  0  0  0  0  0  0  0  0  0  0  0
   11.0827   16.9648   12.0843 C   0  0  0  0  0  0  0  0  0  0  0  0
   11.0546   15.5553   11.5615 C   0  0  0  0  0  0  0  0  0  0  0  0
    9.7256   17.6828   12.0872 C   0  0  0  0  0  0  0  0  0  0  0  0
    8.6473   17.0936   11.2048 C   0  0  0  0  0  0  0  0  0  0  0  0
   11.8905   21.4973   14.7082 C   0  0  0  0  0  0  0  0  0  0  0  0
   10.4688   21.0834   14.3175 C   0  0  0  0  0  0  0  0  0  0  0  0
    9.4613   21.2129   15.4463 C   0  0  0  0  0  0  0  0  0  0  0  0
    9.3421   19.9680   16.2921 C   0  0  0  0  0  0  0  0  0  0  0  0
   14.3979   20.4170   18.5115 C   0  0  0  0  0  0  0  0  0  0  0  0
   13.7107   20.1022   19.8142 C   0  0  0  0  0  0  0  0  0  0  0  0
   12.9821   18.7978   19.7568 C   0  0  0  0  0  0  0  0  0  0  0  0
   11.9950   18.6020   20.8482 C   0  0  0  0  0  0  0  0  0  0  0  0
 50 51  2  0  0  0
 50 52  1  0  0  0
 53 49  1  0  0  0
 49 45  1  0  0  0
 49 55  1  0  0  0
 45 46  2  0  0  0
 55 56  1  0  0  0
 55 57  1  0  0  0
 47 44  1  0  0  0
 44 40  1  0  0  0
 44 59  1  0  0  0
 40 41  2  0  0  0
 59 61  1  0  0  0
 59 60  1  0  0  0
 61 62  1  0  0  0
 42 39  1  0  0  0
 39 38  1  0  0  0
 39 63  1  0  0  0
 63 64  1  0  0  0
 64 65  1  0  0  0
 65 66  1  0  0  0
 36  1  1  0  0  0
  1  2  1  0  0  0
  1 67  1  0  0  0
  2  3  2  0  0  0
 67 68  1  0  0  0
 68 69  1  0  0  0
 69 70  1  0  0  0
  4  6  1  0  0  0
  6  7  1  0  0  0
  6 29  1  0  0  0
  7  8  2  0  0  0
 29 30  1  0  0  0
 30 31  1  0  0  0
 31 32  2  0  0  0
 31 33  1  0  0  0
  9 11  1  0  0  0
 11 12  1  0  0  0
 11 17  1  0  0  0
 12 13  2  0  0  0
 17 18  1  0  0  0
 18 19  1  0  0  0
 19 20  1  0  0  0
 20 22  1  0  0  0
 22 23  1  0  0  0
 22 24  2  0  0  0
 50 53  1  0  0  0
 45 47  1  0  0  0
 40 42  1  0  0  0
 38 36  1  0  0  0
  2  4  1  0  0  0
  7  9  1  0  0  0
 12 14  1  0  0  0
 53 54  1  0  0  0
 56 58  1  0  0  0
 47 48  1  0  0  0
 42 43  1  0  0  0
 36 37  1  0  0  0
  4  5  1  0  0  0
 33 34  1  0  0  0
 33 35  1  0  0  0
  9 10  1  0  0  0
 20 21  1  0  0  0
 23 25  1  0  0  0
 23 26  1  0  0  0
 24 27  1  0  0  0
 24 28  1  0  0  0
 14 15  1  0  0  0
 14 16  1  0  0  0
M  CHG 1  24   1
M  END
> <minimizedAffinity>
-7.83310

$$$$
