3P5O_EAM_A_1
  RCSB PDB12061710123D
Coordinates from PDB:3P5O:A:1 Model:1 without hydrogens
 30 33  0  0  0  0            999 V2000
   30.0640   48.5180   -7.0500  Cl 0  0  0  0  0  0  0  0  0  0  0  0
   29.0760   49.1150   -5.7480   C 0  0  0  0  0  0  0  0  0  0  0  0
   29.4380   48.8300   -4.4430   C 0  0  0  0  0  0  0  0  0  0  0  0
   28.6500   49.2820   -3.4020   C 0  0  0  0  0  0  0  0  0  0  0  0
   27.9370   49.8640   -6.0320   C 0  0  0  0  0  0  0  0  0  0  0  0
   27.1490   50.3230   -4.9760   C 0  0  0  0  0  0  0  0  0  0  0  0
   27.5180   50.0660   -3.6500   C 0  0  0  0  0  0  0  0  0  0  0  0
   26.6630   50.4900   -2.5010   C 0  0  0  0  0  0  0  0  0  0  0  0
   25.4340   50.7350   -2.8010   N 0  0  0  0  0  0  0  0  0  0  0  0
   27.2720   50.4370   -1.1350   C 0  0  0  0  0  0  0  0  0  0  0  0
   26.5010   50.1460   -0.0080   C 0  0  0  0  0  0  0  0  0  0  0  0
   26.9420   50.5620    1.2500   C 0  0  0  0  0  0  0  0  0  0  0  0
   28.1760   51.1830    1.4220   C 0  0  0  0  0  0  0  0  0  0  0  0
   28.9860   51.4230    0.3120   C 0  0  0  0  0  0  0  0  0  0  0  0
   30.2210   52.0450    0.4010   O 0  0  0  0  0  0  0  0  0  0  0  0
   30.8290   52.2390    1.6800   C 0  0  0  0  0  0  0  0  0  0  0  0
   28.5320   51.0310   -0.9440   C 0  0  0  0  0  0  0  0  0  0  0  0
   25.1990   49.5540   -0.0700   N 0  0  0  0  0  0  0  0  0  0  0  0
   24.1840   50.0970   -0.8260   C 0  0  0  0  0  0  0  0  0  0  0  0
   23.0880   49.3970   -0.6560   N 0  0  0  0  0  0  0  0  0  0  0  0
   23.3830   48.3730    0.2570   N 0  0  0  0  0  0  0  0  0  0  0  0
   24.6440   48.4840    0.5990   C 0  0  0  0  0  0  0  0  0  0  0  0
   25.3360   47.5810    1.5530   C 0  0  0  0  0  0  0  0  0  0  0  0
   24.5290   51.2470   -1.7650   C 0  0  0  0  0  0  0  0  0  0  0  0
   23.2930   51.7520   -2.5170   C 0  0  0  0  0  0  0  0  0  0  0  0
   23.6190   52.9410   -3.4060   C 0  0  0  0  0  0  0  0  0  0  0  0
   24.6110   53.6270   -3.1960   O 0  0  0  0  0  0  0  0  0  0  0  0
   22.7760   53.2000   -4.4070   N 0  0  0  0  0  0  0  0  0  0  0  0
   23.0040   54.3190   -5.3120   C 0  0  0  0  0  0  0  0  0  0  0  0
   21.7710   54.6940   -6.1080   C 0  0  0  0  0  0  0  0  0  0  0  0
  1  2  1  0  0  0  0
  2  3  2  0  0  0  0
  2  5  1  0  0  0  0
  3  4  1  0  0  0  0
  4  7  2  0  0  0  0
  5  6  2  0  0  0  0
  6  7  1  0  0  0  0
  7  8  1  0  0  0  0
  8  9  2  0  0  0  0
  8 10  1  0  0  0  0
  9 24  1  0  0  0  0
 10 11  2  0  0  0  0
 10 17  1  0  0  0  0
 11 12  1  0  0  0  0
 11 18  1  0  0  0  0
 12 13  2  0  0  0  0
 13 14  1  0  0  0  0
 14 15  1  0  0  0  0
 14 17  2  0  0  0  0
 15 16  1  0  0  0  0
 18 19  1  0  0  0  0
 18 22  1  0  0  0  0
 19 20  2  0  0  0  0
 19 24  1  0  0  0  0
 20 21  1  0  0  0  0
 21 22  2  0  0  0  0
 22 23  1  0  0  0  0
 24 25  1  0  0  0  0
 25 26  1  0  0  0  0
 26 27  2  0  0  0  0
 26 28  1  0  0  0  0
 28 29  1  0  0  0  0
 29 30  1  0  0  0  0
A    1
CL
A    2
C10
A    3
C9
A    4
C8
A    5
C11
A    6
C12
A    7
C7
A    8
C6
A    9
N2
A   10
C13
A   11
C19
A   12
C18
A   13
C17
A   14
C15
A   15
O2
A   16
C16
A   17
C14
A   18
N3
A   19
C22
A   20
N5
A   21
N4
A   22
C20
A   23
C21
A   24
C5
A   25
C4
A   26
C3
A   27
O1
A   28
N1
A   29
C2
A   30
C1
M  END
>  <InstanceId>
3P5O_EAM_A_1

>  <ChemCompId>
EAM

>  <PdbId>
3P5O

>  <ChainId>
A

>  <ResidueNumber>
1

>  <InsertionCode>


>  <Model>
1

>  <AltIds>


>  <MissingHeavyAtoms>
0

>  <ObservedFormula>
C22 N5 O2 Cl

>  <Name>
2-[(4S)-6-(4-chlorophenyl)-8-methoxy-1-methyl-4H-[1,2,4]triazolo[4,3-a][1,4]benzodiazepin-4-yl]-N-ethylacetamide

>  <SystematicName>
2-[(4S)-6-(4-chlorophenyl)-8-methoxy-1-methyl-4H-[1,2,4]triazolo[4,3-a][1,4]benzodiazepin-4-yl]-N-ethyl-ethanamide

>  <Synonyms>


>  <Type>
NON-POLYMER

>  <Formula>
C22 H22 Cl N5 O2

>  <MolecularWeight>
423.895

>  <ModifiedDate>
2011-06-04

>  <Parent>


>  <OneLetterCode>


>  <SubcomponentList>


>  <AmbiguousFlag>
N

>  <InChI>
InChI=1S/C22H22ClN5O2/c1-4-24-20(29)12-18-22-27-26-13(2)28(22)19-10-9-16(30-3)11-17(19)21(25-18)14-5-7-15(23)8-6-14/h5-11,18H,4,12H2,1-3H3,(H,24,29)/t18-/m0/s1

>  <InChIKey>
AAAQFGUYHFJNHI-SFHVURJKSA-N

>  <SMILES>
CCNC(=O)C[C@H]1c2nnc(n2-c3ccc(cc3C(=N1)c4ccc(cc4)Cl)OC)C

$$$$
