4A4Q_UX9_A_1100


 57 62  0  0  0  0  0  0  0  0999 V2000
   15.1442   21.7584    6.4863 N   0  0  0  0  0  0  0  0  0  0  0  0
   15.7264   21.2430    5.3201 N   0  0  0  0  0  0  0  0  0  0  0  0
   15.4791   19.9116    4.9620 C   0  0  0  0  0  0  0  0  0  0  0  0
   14.7476   19.2049    5.6751 O   0  0  0  0  0  0  0  0  0  0  0  0
   16.3027   21.8106    4.7588 H   0  0  0  0  0  0  0  0  0  0  0  0
   16.1249   19.3151    3.6967 C   0  0  0  0  0  0  0  0  0  0  0  0
   16.8014   18.1061    4.2672 N   0  0  0  0  0  0  0  0  0  0  0  0
   17.9579   17.5195    3.7640 C   0  0  0  0  0  0  0  0  0  0  0  0
   18.5945   17.9191    2.7524 O   0  0  0  0  0  0  0  0  0  0  0  0
   16.3944   17.6934    5.0629 H   0  0  0  0  0  0  0  0  0  0  0  0
   18.3045   16.4275    4.5481 O   0  0  0  0  0  0  0  0  0  0  0  0
   19.7009   16.2649    4.9445 C   0  0  0  0  0  0  0  0  0  0  0  0
   15.1446   18.9107    2.4679 C   0  0  0  0  0  0  0  0  0  0  0  0
   15.8358   18.7461    1.0707 C   0  0  0  0  0  0  0  0  0  0  0  0
   14.3874   17.5813    2.8104 C   0  0  0  0  0  0  0  0  0  0  0  0
   14.0585   20.0191    2.2785 C   0  0  0  0  0  0  0  0  0  0  0  0
   14.1446   22.7827    6.1843 C   0  0  0  0  0  0  0  0  0  0  0  0
   13.4092   22.6922    4.7896 C   0  0  0  0  0  0  0  0  0  0  0  0
   11.0815   23.1445    5.8242 C   0  0  0  0  0  0  0  0  0  0  0  0
   10.6305   22.0266    6.1136 O   0  0  0  0  0  0  0  0  0  0  0  0
   11.9920   23.3693    4.6302 C   0  0  0  0  0  0  0  0  0  0  0  0
   12.0623   24.9217    4.4680 C   0  0  0  0  0  0  0  0  0  0  0  0
   11.5685   25.4434    5.8265 C   0  0  0  0  0  0  0  0  0  0  0  0
   10.8687   24.3069    6.4625 N   0  0  0  0  0  0  0  0  0  0  0  0
   13.3636   25.4985    4.2056 O   0  0  0  0  0  0  0  0  0  0  0  0
   13.9599   25.3006    4.9446 H   0  0  0  0  0  0  0  0  0  0  0  0
    9.9629   24.3695    7.6766 C   0  0  0  0  0  0  0  0  0  0  0  0
   10.0304   25.5341    8.6180 C   0  0  0  0  0  0  0  0  0  0  0  0
    8.7368   25.8874    9.0625 C   0  0  0  0  0  0  0  0  0  0  0  0
    7.6591   25.0092    8.5041 C   0  0  0  0  0  0  0  0  0  0  0  0
    8.4032   24.3861    7.3129 C   0  0  0  0  0  0  0  0  0  0  0  0
    8.1656   25.1928    6.1300 O   0  0  0  0  0  0  0  0  0  0  0  0
    8.5403   27.0649   10.0324 C   0  0  0  0  0  0  0  0  0  0  0  0
    9.6814   27.7614   10.4476 C   0  0  0  0  0  0  0  0  0  0  0  0
   11.0736   27.3223    9.9231 C   0  0  0  0  0  0  0  0  0  0  0  0
   11.1891   26.2370    9.0377 C   0  0  0  0  0  0  0  0  0  0  0  0
    8.4696   26.0998    6.2907 H   0  0  0  0  0  0  0  0  0  0  0  0
   11.2207   22.7798    3.3051 C   0  0  0  0  0  0  0  0  0  0  0  0
    9.8426   23.5059    2.9070 C   0  0  0  0  0  0  0  0  0  0  0  0
    9.8243   24.6993    2.0288 C   0  0  0  0  0  0  0  0  0  0  0  0
    8.5715   25.3503    1.6591 C   0  0  0  0  0  0  0  0  0  0  0  0
    7.2993   24.8212    2.1598 C   0  0  0  0  0  0  0  0  0  0  0  0
    7.2906   23.6477    3.0270 C   0  0  0  0  0  0  0  0  0  0  0  0
    8.5417   23.0006    3.3938 C   0  0  0  0  0  0  0  0  0  0  0  0
   16.1974   22.2676    7.4511 C   0  0  0  0  0  0  0  0  0  0  0  0
   16.9163   18.8319   10.2422 C   0  0  0  0  0  0  0  0  0  0  0  0
   18.0628   19.6015    9.6965 C   0  0  0  0  0  0  0  0  0  0  0  0
   17.8372   20.7239    8.7868 C   0  0  0  0  0  0  0  0  0  0  0  0
   16.4679   21.0984    8.4062 C   0  0  0  0  0  0  0  0  0  0  0  0
   15.3349   20.3480    8.9321 C   0  0  0  0  0  0  0  0  0  0  0  0
   15.5521   19.2296    9.8382 C   0  0  0  0  0  0  0  0  0  0  0  0
   17.1375   17.6567   11.2073 C   0  0  0  0  0  0  0  0  0  0  0  0
   18.0687   17.7653   12.3605 C   0  0  0  0  0  0  0  0  0  0  0  0
   18.2351   16.6089   13.2298 C   0  0  0  0  0  0  0  0  0  0  0  0
   17.5077   15.4388   12.9407 N   0  0  0  0  0  0  0  0  0  0  0  0
   16.6155   15.3165   11.8451 C   0  0  0  0  0  0  0  0  0  0  0  0
   16.4210   16.4193   10.9686 C   0  0  0  0  0  0  0  0  0  0  0  0
 19 20  2  0  0  0
 19 21  1  0  0  0
 19 24  1  0  0  0
 21 22  1  0  0  0
 21 18  1  0  0  0
 21 38  1  0  0  0
 22 23  1  0  0  0
 22 25  1  0  0  0
 23 24  1  0  0  0
 24 27  1  0  0  0
 27 28  1  0  0  0
 27 31  1  0  0  0
 28 29  2  0  0  0
 28 36  1  0  0  0
 29 30  1  0  0  0
 29 33  1  0  0  0
 30 31  1  0  0  0
 31 32  1  0  0  0
 33 34  2  0  0  0
 34 35  1  0  0  0
 35 36  2  0  0  0
 18 17  1  0  0  0
 17  1  1  0  0  0
 38 39  1  0  0  0
 39 40  2  0  0  0
 39 44  1  0  0  0
 40 41  1  0  0  0
 41 42  2  0  0  0
 42 43  1  0  0  0
 43 44  2  0  0  0
 52 46  1  0  0  0
 52 53  2  0  0  0
 52 57  1  0  0  0
 46 47  2  0  0  0
 46 51  1  0  0  0
 47 48  1  0  0  0
 48 49  2  0  0  0
 49 50  1  0  0  0
 49 45  1  0  0  0
 50 51  2  0  0  0
 45  1  1  0  0  0
  1  2  1  0  0  0
  2  3  1  0  0  0
  3  6  1  0  0  0
  3  4  2  0  0  0
  6  7  1  0  0  0
  6 13  1  0  0  0
  7  8  1  0  0  0
  8 11  1  0  0  0
  8  9  2  0  0  0
 11 12  1  0  0  0
 13 14  1  0  0  0
 13 15  1  0  0  0
 13 16  1  0  0  0
 53 54  1  0  0  0
 54 55  2  0  0  0
 55 56  1  0  0  0
 56 57  2  0  0  0
 32 37  1  0  0  0
 25 26  1  0  0  0
  2  5  1  0  0  0
  7 10  1  0  0  0
M  END
> <minimizedAffinity>
-11.74893

$$$$
4A4Q_UX9_A_1100


 57 62  0  0  0  0  0  0  0  0999 V2000
   14.9450   22.2553    5.7686 N   0  0  0  0  0  0  0  0  0  0  0  0
   15.7937   21.3089    5.1781 N   0  0  0  0  0  0  0  0  0  0  0  0
   15.2711   20.0689    4.7891 C   0  0  0  0  0  0  0  0  0  0  0  0
   14.0667   19.8219    4.9666 O   0  0  0  0  0  0  0  0  0  0  0  0
   16.7465   21.5135    5.0383 H   0  0  0  0  0  0  0  0  0  0  0  0
   16.1879   19.0035    4.1579 C   0  0  0  0  0  0  0  0  0  0  0  0
   16.7934   18.3893    5.3830 N   0  0  0  0  0  0  0  0  0  0  0  0
   18.1134   18.5464    5.7926 C   0  0  0  0  0  0  0  0  0  0  0  0
   18.9871   19.2221    5.1858 O   0  0  0  0  0  0  0  0  0  0  0  0
   16.2096   17.8289    5.9436 H   0  0  0  0  0  0  0  0  0  0  0  0
   18.3203   17.8465    6.9736 O   0  0  0  0  0  0  0  0  0  0  0  0
   18.5328   16.4031    6.9044 C   0  0  0  0  0  0  0  0  0  0  0  0
   15.4974   17.8742    3.2185 C   0  0  0  0  0  0  0  0  0  0  0  0
   14.5703   18.4129    2.0752 C   0  0  0  0  0  0  0  0  0  0  0  0
   16.6055   16.9686    2.5783 C   0  0  0  0  0  0  0  0  0  0  0  0
   14.5972   16.9437    4.0948 C   0  0  0  0  0  0  0  0  0  0  0  0
   14.4905   23.2526    4.8000 C   0  0  0  0  0  0  0  0  0  0  0  0
   13.0087   23.1272    4.2681 C   0  0  0  0  0  0  0  0  0  0  0  0
   10.6446   24.1781    4.2628 C   0  0  0  0  0  0  0  0  0  0  0  0
   10.6979   25.0964    3.4317 O   0  0  0  0  0  0  0  0  0  0  0  0
   11.8403   23.7765    5.1081 C   0  0  0  0  0  0  0  0  0  0  0  0
   11.2564   22.8214    6.1980 C   0  0  0  0  0  0  0  0  0  0  0  0
    9.8944   22.4102    5.6171 C   0  0  0  0  0  0  0  0  0  0  0  0
    9.5892   23.4053    4.5670 N   0  0  0  0  0  0  0  0  0  0  0  0
   12.0070   21.6190    6.4909 O   0  0  0  0  0  0  0  0  0  0  0  0
   12.0677   21.0730    5.6915 H   0  0  0  0  0  0  0  0  0  0  0  0
    8.2508   23.6196    3.8879 C   0  0  0  0  0  0  0  0  0  0  0  0
    7.7046   25.0029    3.7003 C   0  0  0  0  0  0  0  0  0  0  0  0
    7.0638   25.1167    2.4464 C   0  0  0  0  0  0  0  0  0  0  0  0
    7.0790   23.8436    1.6567 C   0  0  0  0  0  0  0  0  0  0  0  0
    8.2052   23.0872    2.3780 C   0  0  0  0  0  0  0  0  0  0  0  0
    9.4635   23.3554    1.7063 O   0  0  0  0  0  0  0  0  0  0  0  0
    6.4289   26.4490    2.0135 C   0  0  0  0  0  0  0  0  0  0  0  0
    6.5139   27.5277    2.9017 C   0  0  0  0  0  0  0  0  0  0  0  0
    7.2307   27.3367    4.2641 C   0  0  0  0  0  0  0  0  0  0  0  0
    7.7916   26.0937    4.6034 C   0  0  0  0  0  0  0  0  0  0  0  0
    9.6334   24.3104    1.7072 H   0  0  0  0  0  0  0  0  0  0  0  0
   12.3711   25.1248    5.8818 C   0  0  0  0  0  0  0  0  0  0  0  0
   11.6158   25.4986    7.2510 C   0  0  0  0  0  0  0  0  0  0  0  0
   10.1751   25.8445    7.2684 C   0  0  0  0  0  0  0  0  0  0  0  0
    9.4883   26.1725    8.5138 C   0  0  0  0  0  0  0  0  0  0  0  0
   10.2283   26.1617    9.7792 C   0  0  0  0  0  0  0  0  0  0  0  0
   11.6482   25.8254    9.7885 C   0  0  0  0  0  0  0  0  0  0  0  0
   12.3302   25.4987    8.5449 C   0  0  0  0  0  0  0  0  0  0  0  0
   15.5935   22.9005    6.9779 C   0  0  0  0  0  0  0  0  0  0  0  0
   16.5287   19.5390    9.7951 C   0  0  0  0  0  0  0  0  0  0  0  0
   15.1187   19.8551    9.4538 C   0  0  0  0  0  0  0  0  0  0  0  0
   14.8051   20.9488    8.5352 C   0  0  0  0  0  0  0  0  0  0  0  0
   15.8889   21.7444    7.9416 C   0  0  0  0  0  0  0  0  0  0  0  0
   17.2764   21.4462    8.2722 C   0  0  0  0  0  0  0  0  0  0  0  0
   17.5959   20.3590    9.1858 C   0  0  0  0  0  0  0  0  0  0  0  0
   16.8740   18.3862   10.7507 C   0  0  0  0  0  0  0  0  0  0  0  0
   17.8946   18.5444   11.8195 C   0  0  0  0  0  0  0  0  0  0  0  0
   18.1765   17.4071   12.6841 C   0  0  0  0  0  0  0  0  0  0  0  0
   17.4711   16.2076   12.4707 N   0  0  0  0  0  0  0  0  0  0  0  0
   16.4947   16.0380   11.4562 C   0  0  0  0  0  0  0  0  0  0  0  0
   16.1862   17.1206   10.5874 C   0  0  0  0  0  0  0  0  0  0  0  0
 19 20  2  0  0  0
 19 21  1  0  0  0
 19 24  1  0  0  0
 21 22  1  0  0  0
 21 18  1  0  0  0
 21 38  1  0  0  0
 22 23  1  0  0  0
 22 25  1  0  0  0
 23 24  1  0  0  0
 24 27  1  0  0  0
 27 28  1  0  0  0
 27 31  1  0  0  0
 28 29  2  0  0  0
 28 36  1  0  0  0
 29 30  1  0  0  0
 29 33  1  0  0  0
 30 31  1  0  0  0
 31 32  1  0  0  0
 33 34  2  0  0  0
 34 35  1  0  0  0
 35 36  2  0  0  0
 18 17  1  0  0  0
 17  1  1  0  0  0
 38 39  1  0  0  0
 39 40  2  0  0  0
 39 44  1  0  0  0
 40 41  1  0  0  0
 41 42  2  0  0  0
 42 43  1  0  0  0
 43 44  2  0  0  0
 52 46  1  0  0  0
 52 53  2  0  0  0
 52 57  1  0  0  0
 46 47  2  0  0  0
 46 51  1  0  0  0
 47 48  1  0  0  0
 48 49  2  0  0  0
 49 50  1  0  0  0
 49 45  1  0  0  0
 50 51  2  0  0  0
 45  1  1  0  0  0
  1  2  1  0  0  0
  2  3  1  0  0  0
  3  6  1  0  0  0
  3  4  2  0  0  0
  6  7  1  0  0  0
  6 13  1  0  0  0
  7  8  1  0  0  0
  8 11  1  0  0  0
  8  9  2  0  0  0
 11 12  1  0  0  0
 13 14  1  0  0  0
 13 15  1  0  0  0
 13 16  1  0  0  0
 53 54  1  0  0  0
 54 55  2  0  0  0
 55 56  1  0  0  0
 56 57  2  0  0  0
 32 37  1  0  0  0
 25 26  1  0  0  0
  2  5  1  0  0  0
  7 10  1  0  0  0
M  END
> <minimizedAffinity>
-10.71106

$$$$
4A4Q_UX9_A_1100


 57 62  0  0  0  0  0  0  0  0999 V2000
   10.5663   23.5606    5.2550 N   0  0  0  0  0  0  0  0  0  0  0  0
   10.5369   24.7439    6.0057 N   0  0  0  0  0  0  0  0  0  0  0  0
    9.5681   24.8967    7.0058 C   0  0  0  0  0  0  0  0  0  0  0  0
    8.7508   23.9860    7.2195 O   0  0  0  0  0  0  0  0  0  0  0  0
   11.1900   25.4598    5.8319 H   0  0  0  0  0  0  0  0  0  0  0  0
    9.5011   26.1968    7.8298 C   0  0  0  0  0  0  0  0  0  0  0  0
    8.0190   26.3756    7.9566 N   0  0  0  0  0  0  0  0  0  0  0  0
    7.3454   27.5896    7.8708 C   0  0  0  0  0  0  0  0  0  0  0  0
    7.8891   28.7106    7.6816 O   0  0  0  0  0  0  0  0  0  0  0  0
    7.4779   25.5683    8.1135 H   0  0  0  0  0  0  0  0  0  0  0  0
    5.9820   27.3767    8.0235 O   0  0  0  0  0  0  0  0  0  0  0  0
    5.2950   26.5191    7.0612 C   0  0  0  0  0  0  0  0  0  0  0  0
   10.2173   26.2050    9.2864 C   0  0  0  0  0  0  0  0  0  0  0  0
    9.5252   25.3345   10.3909 C   0  0  0  0  0  0  0  0  0  0  0  0
   11.7081   25.7408    9.1456 C   0  0  0  0  0  0  0  0  0  0  0  0
   10.2444   27.6639    9.8478 C   0  0  0  0  0  0  0  0  0  0  0  0
   11.5713   22.6253    5.7594 C   0  0  0  0  0  0  0  0  0  0  0  0
   12.6271   23.1807    6.7944 C   0  0  0  0  0  0  0  0  0  0  0  0
   14.2382   21.1728    6.5377 C   0  0  0  0  0  0  0  0  0  0  0  0
   13.9155   20.3793    7.4338 O   0  0  0  0  0  0  0  0  0  0  0  0
   14.1207   22.6775    6.7035 C   0  0  0  0  0  0  0  0  0  0  0  0
   14.9028   23.2755    5.4903 C   0  0  0  0  0  0  0  0  0  0  0  0
   15.0048   22.0920    4.5154 C   0  0  0  0  0  0  0  0  0  0  0  0
   14.7274   20.8836    5.3209 N   0  0  0  0  0  0  0  0  0  0  0  0
   14.2894   24.3862    4.7938 O   0  0  0  0  0  0  0  0  0  0  0  0
   13.4378   24.1053    4.4239 H   0  0  0  0  0  0  0  0  0  0  0  0
   14.9763   19.4463    4.9075 C   0  0  0  0  0  0  0  0  0  0  0  0
   15.1013   19.0810    3.4590 C   0  0  0  0  0  0  0  0  0  0  0  0
   16.1015   18.0995    3.2802 C   0  0  0  0  0  0  0  0  0  0  0  0
   16.7482   17.6735    4.5627 C   0  0  0  0  0  0  0  0  0  0  0  0
   16.3486   18.8447    5.4734 C   0  0  0  0  0  0  0  0  0  0  0  0
   17.3955   19.8496    5.4416 O   0  0  0  0  0  0  0  0  0  0  0  0
   16.4273   17.5656    1.8750 C   0  0  0  0  0  0  0  0  0  0  0  0
   15.7020   18.0879    0.7977 C   0  0  0  0  0  0  0  0  0  0  0  0
   14.6159   19.1635    1.0618 C   0  0  0  0  0  0  0  0  0  0  0  0
   14.3634   19.6117    2.3696 C   0  0  0  0  0  0  0  0  0  0  0  0
   17.5268   20.1510    4.5290 H   0  0  0  0  0  0  0  0  0  0  0  0
   14.9480   23.0892    8.0616 C   0  0  0  0  0  0  0  0  0  0  0  0
   15.9057   21.9544    8.6781 C   0  0  0  0  0  0  0  0  0  0  0  0
   15.4071   20.9847    9.6814 C   0  0  0  0  0  0  0  0  0  0  0  0
   16.2747   19.9480   10.2315 C   0  0  0  0  0  0  0  0  0  0  0  0
   17.6692   19.8539    9.7892 C   0  0  0  0  0  0  0  0  0  0  0  0
   18.1846   20.7977    8.8028 C   0  0  0  0  0  0  0  0  0  0  0  0
   17.3168   21.8303    8.2560 C   0  0  0  0  0  0  0  0  0  0  0  0
   10.7560   23.8477    3.7783 C   0  0  0  0  0  0  0  0  0  0  0  0
    6.6530   24.5846    2.1251 C   0  0  0  0  0  0  0  0  0  0  0  0
    6.8805   23.4788    3.0894 C   0  0  0  0  0  0  0  0  0  0  0  0
    8.2150   23.2324    3.6341 C   0  0  0  0  0  0  0  0  0  0  0  0
    9.3435   24.0822    3.2286 C   0  0  0  0  0  0  0  0  0  0  0  0
    9.1332   25.1680    2.2798 C   0  0  0  0  0  0  0  0  0  0  0  0
    7.8075   25.4191    1.7335 C   0  0  0  0  0  0  0  0  0  0  0  0
    5.2543   24.8620    1.5522 C   0  0  0  0  0  0  0  0  0  0  0  0
    4.1711   23.8471    1.6259 C   0  0  0  0  0  0  0  0  0  0  0  0
    2.8721   24.1753    1.0554 C   0  0  0  0  0  0  0  0  0  0  0  0
    2.6982   25.4387    0.4591 N   0  0  0  0  0  0  0  0  0  0  0  0
    3.7198   26.4192    0.3792 C   0  0  0  0  0  0  0  0  0  0  0  0
    5.0048   26.1435    0.9220 C   0  0  0  0  0  0  0  0  0  0  0  0
 19 20  2  0  0  0
 19 21  1  0  0  0
 19 24  1  0  0  0
 21 22  1  0  0  0
 21 18  1  0  0  0
 21 38  1  0  0  0
 22 23  1  0  0  0
 22 25  1  0  0  0
 23 24  1  0  0  0
 24 27  1  0  0  0
 27 28  1  0  0  0
 27 31  1  0  0  0
 28 29  2  0  0  0
 28 36  1  0  0  0
 29 30  1  0  0  0
 29 33  1  0  0  0
 30 31  1  0  0  0
 31 32  1  0  0  0
 33 34  2  0  0  0
 34 35  1  0  0  0
 35 36  2  0  0  0
 18 17  1  0  0  0
 17  1  1  0  0  0
 38 39  1  0  0  0
 39 40  2  0  0  0
 39 44  1  0  0  0
 40 41  1  0  0  0
 41 42  2  0  0  0
 42 43  1  0  0  0
 43 44  2  0  0  0
 52 46  1  0  0  0
 52 53  2  0  0  0
 52 57  1  0  0  0
 46 47  2  0  0  0
 46 51  1  0  0  0
 47 48  1  0  0  0
 48 49  2  0  0  0
 49 50  1  0  0  0
 49 45  1  0  0  0
 50 51  2  0  0  0
 45  1  1  0  0  0
  1  2  1  0  0  0
  2  3  1  0  0  0
  3  6  1  0  0  0
  3  4  2  0  0  0
  6  7  1  0  0  0
  6 13  1  0  0  0
  7  8  1  0  0  0
  8 11  1  0  0  0
  8  9  2  0  0  0
 11 12  1  0  0  0
 13 14  1  0  0  0
 13 15  1  0  0  0
 13 16  1  0  0  0
 53 54  1  0  0  0
 54 55  2  0  0  0
 55 56  1  0  0  0
 56 57  2  0  0  0
 32 37  1  0  0  0
 25 26  1  0  0  0
  2  5  1  0  0  0
  7 10  1  0  0  0
M  END
> <minimizedAffinity>
-10.66575

$$$$
4A4Q_UX9_A_1100


 57 62  0  0  0  0  0  0  0  0999 V2000
   13.9180   20.8667    3.0972 N   0  0  0  0  0  0  0  0  0  0  0  0
   14.2414   20.5173    4.4154 N   0  0  0  0  0  0  0  0  0  0  0  0
   15.0190   21.3923    5.1848 C   0  0  0  0  0  0  0  0  0  0  0  0
   15.4096   22.4653    4.6958 O   0  0  0  0  0  0  0  0  0  0  0  0
   13.9256   19.6662    4.7965 H   0  0  0  0  0  0  0  0  0  0  0  0
   15.4064   21.0211    6.6291 C   0  0  0  0  0  0  0  0  0  0  0  0
   16.8935   20.8928    6.4993 N   0  0  0  0  0  0  0  0  0  0  0  0
   17.6816   19.9623    7.1686 C   0  0  0  0  0  0  0  0  0  0  0  0
   17.2552   19.1013    7.9840 O   0  0  0  0  0  0  0  0  0  0  0  0
   17.3499   21.5178    5.8909 H   0  0  0  0  0  0  0  0  0  0  0  0
   19.0097   20.1262    6.7989 O   0  0  0  0  0  0  0  0  0  0  0  0
   19.9684   19.0816    7.1498 C   0  0  0  0  0  0  0  0  0  0  0  0
   15.0107   22.0638    7.8084 C   0  0  0  0  0  0  0  0  0  0  0  0
   16.0963   23.1383    8.1603 C   0  0  0  0  0  0  0  0  0  0  0  0
   13.6787   22.8024    7.4368 C   0  0  0  0  0  0  0  0  0  0  0  0
   14.7429   21.2781    9.1332 C   0  0  0  0  0  0  0  0  0  0  0  0
   12.5683   21.4221    3.0008 C   0  0  0  0  0  0  0  0  0  0  0  0
   12.0340   22.2525    4.2334 C   0  0  0  0  0  0  0  0  0  0  0  0
   10.0620   23.8053    4.8606 C   0  0  0  0  0  0  0  0  0  0  0  0
    9.0482   23.0976    4.7700 O   0  0  0  0  0  0  0  0  0  0  0  0
   11.2726   23.6093    3.9655 C   0  0  0  0  0  0  0  0  0  0  0  0
   12.1575   24.8740    4.2075 C   0  0  0  0  0  0  0  0  0  0  0  0
   11.6099   25.4436    5.5256 C   0  0  0  0  0  0  0  0  0  0  0  0
   10.2807   24.8229    5.7093 N   0  0  0  0  0  0  0  0  0  0  0  0
   13.5811   24.6626    4.3606 O   0  0  0  0  0  0  0  0  0  0  0  0
   13.7429   24.0972    5.1321 H   0  0  0  0  0  0  0  0  0  0  0  0
    9.2121   25.2527    6.6952 C   0  0  0  0  0  0  0  0  0  0  0  0
    9.5820   25.9951    7.9439 C   0  0  0  0  0  0  0  0  0  0  0  0
    8.6241   26.9936    8.2287 C   0  0  0  0  0  0  0  0  0  0  0  0
    7.5000   27.0343    7.2392 C   0  0  0  0  0  0  0  0  0  0  0  0
    8.1332   26.2598    6.0730 C   0  0  0  0  0  0  0  0  0  0  0  0
    8.7752   27.1993    5.1720 O   0  0  0  0  0  0  0  0  0  0  0  0
    8.7871   27.9018    9.4593 C   0  0  0  0  0  0  0  0  0  0  0  0
    9.9096   27.7001   10.2711 C   0  0  0  0  0  0  0  0  0  0  0  0
   10.9240   26.5855    9.9033 C   0  0  0  0  0  0  0  0  0  0  0  0
   10.7201   25.7870    8.7651 C   0  0  0  0  0  0  0  0  0  0  0  0
    9.4470   27.7043    5.6564 H   0  0  0  0  0  0  0  0  0  0  0  0
   10.7502   23.6760    2.4095 C   0  0  0  0  0  0  0  0  0  0  0  0
    9.2641   24.2471    2.1858 C   0  0  0  0  0  0  0  0  0  0  0  0
    9.0041   25.7020    2.0782 C   0  0  0  0  0  0  0  0  0  0  0  0
    7.6559   26.2182    1.8638 C   0  0  0  0  0  0  0  0  0  0  0  0
    6.5285   25.2880    1.7498 C   0  0  0  0  0  0  0  0  0  0  0  0
    6.7582   23.8507    1.8533 C   0  0  0  0  0  0  0  0  0  0  0  0
    8.1040   23.3390    2.0671 C   0  0  0  0  0  0  0  0  0  0  0  0
   14.1139   19.6975    2.1517 C   0  0  0  0  0  0  0  0  0  0  0  0
   17.0714   17.0021    4.1763 C   0  0  0  0  0  0  0  0  0  0  0  0
   17.5402   18.2013    3.4368 C   0  0  0  0  0  0  0  0  0  0  0  0
   16.5824   19.0860    2.7748 C   0  0  0  0  0  0  0  0  0  0  0  0
   15.1438   18.7921    2.8386 C   0  0  0  0  0  0  0  0  0  0  0  0
   14.6721   17.6159    3.5580 C   0  0  0  0  0  0  0  0  0  0  0  0
   15.6199   16.7308    4.2193 C   0  0  0  0  0  0  0  0  0  0  0  0
   18.0653   16.0691    4.8856 C   0  0  0  0  0  0  0  0  0  0  0  0
   18.9577   15.1605    4.1194 C   0  0  0  0  0  0  0  0  0  0  0  0
   19.8697   14.2980    4.8576 C   0  0  0  0  0  0  0  0  0  0  0  0
   19.8667   14.3615    6.2640 N   0  0  0  0  0  0  0  0  0  0  0  0
   19.0225   15.2214    7.0118 C   0  0  0  0  0  0  0  0  0  0  0  0
   18.1151   16.0814    6.3343 C   0  0  0  0  0  0  0  0  0  0  0  0
 19 20  2  0  0  0
 19 21  1  0  0  0
 19 24  1  0  0  0
 21 22  1  0  0  0
 21 18  1  0  0  0
 21 38  1  0  0  0
 22 23  1  0  0  0
 22 25  1  0  0  0
 23 24  1  0  0  0
 24 27  1  0  0  0
 27 28  1  0  0  0
 27 31  1  0  0  0
 28 29  2  0  0  0
 28 36  1  0  0  0
 29 30  1  0  0  0
 29 33  1  0  0  0
 30 31  1  0  0  0
 31 32  1  0  0  0
 33 34  2  0  0  0
 34 35  1  0  0  0
 35 36  2  0  0  0
 18 17  1  0  0  0
 17  1  1  0  0  0
 38 39  1  0  0  0
 39 40  2  0  0  0
 39 44  1  0  0  0
 40 41  1  0  0  0
 41 42  2  0  0  0
 42 43  1  0  0  0
 43 44  2  0  0  0
 52 46  1  0  0  0
 52 53  2  0  0  0
 52 57  1  0  0  0
 46 47  2  0  0  0
 46 51  1  0  0  0
 47 48  1  0  0  0
 48 49  2  0  0  0
 49 50  1  0  0  0
 49 45  1  0  0  0
 50 51  2  0  0  0
 45  1  1  0  0  0
  1  2  1  0  0  0
  2  3  1  0  0  0
  3  6  1  0  0  0
  3  4  2  0  0  0
  6  7  1  0  0  0
  6 13  1  0  0  0
  7  8  1  0  0  0
  8 11  1  0  0  0
  8  9  2  0  0  0
 11 12  1  0  0  0
 13 14  1  0  0  0
 13 15  1  0  0  0
 13 16  1  0  0  0
 53 54  1  0  0  0
 54 55  2  0  0  0
 55 56  1  0  0  0
 56 57  2  0  0  0
 32 37  1  0  0  0
 25 26  1  0  0  0
  2  5  1  0  0  0
  7 10  1  0  0  0
M  END
> <minimizedAffinity>
-10.60857

$$$$
4A4Q_UX9_A_1100


 57 62  0  0  0  0  0  0  0  0999 V2000
   15.0363   20.4856    3.8702 N   0  0  0  0  0  0  0  0  0  0  0  0
   15.0019   20.1634    5.2339 N   0  0  0  0  0  0  0  0  0  0  0  0
   16.1742   20.2712    5.9929 C   0  0  0  0  0  0  0  0  0  0  0  0
   17.2268   20.6526    5.4546 O   0  0  0  0  0  0  0  0  0  0  0  0
   14.1630   19.8646    5.6536 H   0  0  0  0  0  0  0  0  0  0  0  0
   16.1675   19.9019    7.4887 C   0  0  0  0  0  0  0  0  0  0  0  0
   17.6372   19.8631    7.7774 N   0  0  0  0  0  0  0  0  0  0  0  0
   18.2964   18.8440    8.4568 C   0  0  0  0  0  0  0  0  0  0  0  0
   17.7477   17.8135    8.9314 O   0  0  0  0  0  0  0  0  0  0  0  0
   18.1805   20.6204    7.4604 H   0  0  0  0  0  0  0  0  0  0  0  0
   19.6519   19.1349    8.5301 O   0  0  0  0  0  0  0  0  0  0  0  0
   20.0970   20.1685    9.4612 C   0  0  0  0  0  0  0  0  0  0  0  0
   15.3978   20.9018    8.5096 C   0  0  0  0  0  0  0  0  0  0  0  0
   13.9310   21.2853    8.1115 C   0  0  0  0  0  0  0  0  0  0  0  0
   15.3783   20.2776    9.9476 C   0  0  0  0  0  0  0  0  0  0  0  0
   16.1798   22.2520    8.6085 C   0  0  0  0  0  0  0  0  0  0  0  0
   14.0939   21.5555    3.5436 C   0  0  0  0  0  0  0  0  0  0  0  0
   13.5997   22.4759    4.7280 C   0  0  0  0  0  0  0  0  0  0  0  0
   11.2947   22.9580    5.7994 C   0  0  0  0  0  0  0  0  0  0  0  0
   10.8184   21.8443    6.0630 O   0  0  0  0  0  0  0  0  0  0  0  0
   12.1987   23.1927    4.6023 C   0  0  0  0  0  0  0  0  0  0  0  0
   12.3069   24.7466    4.4818 C   0  0  0  0  0  0  0  0  0  0  0  0
   11.8402   25.2430    5.8592 C   0  0  0  0  0  0  0  0  0  0  0  0
   11.1180   24.1073    6.4714 N   0  0  0  0  0  0  0  0  0  0  0  0
   13.6198   25.2975    4.2214 O   0  0  0  0  0  0  0  0  0  0  0  0
   14.2182   25.0643    4.9483 H   0  0  0  0  0  0  0  0  0  0  0  0
   10.2263   24.1593    7.6964 C   0  0  0  0  0  0  0  0  0  0  0  0
   10.2456   25.3533    8.6025 C   0  0  0  0  0  0  0  0  0  0  0  0
    8.9414   25.6525    9.0556 C   0  0  0  0  0  0  0  0  0  0  0  0
    7.9035   24.7037    8.5388 C   0  0  0  0  0  0  0  0  0  0  0  0
    8.6631   24.0846    7.3554 C   0  0  0  0  0  0  0  0  0  0  0  0
    8.3684   24.8425    6.1531 O   0  0  0  0  0  0  0  0  0  0  0  0
    8.6969   26.8466    9.9937 C   0  0  0  0  0  0  0  0  0  0  0  0
    9.8056   27.6131   10.3717 C   0  0  0  0  0  0  0  0  0  0  0  0
   11.2117   27.2308    9.8397 C   0  0  0  0  0  0  0  0  0  0  0  0
   11.3717   26.1271    8.9846 C   0  0  0  0  0  0  0  0  0  0  0  0
    8.6270   25.7684    6.2830 H   0  0  0  0  0  0  0  0  0  0  0  0
   11.3994   22.6595    3.2699 C   0  0  0  0  0  0  0  0  0  0  0  0
   10.0304   23.4232    2.9132 C   0  0  0  0  0  0  0  0  0  0  0  0
   10.0276   24.6688    2.1107 C   0  0  0  0  0  0  0  0  0  0  0  0
    8.7829   25.3546    1.7780 C   0  0  0  0  0  0  0  0  0  0  0  0
    7.5035   24.8087    2.2408 C   0  0  0  0  0  0  0  0  0  0  0  0
    7.4795   23.5838    3.0335 C   0  0  0  0  0  0  0  0  0  0  0  0
    8.7225   22.9022    3.3635 C   0  0  0  0  0  0  0  0  0  0  0  0
   14.8157   19.2588    3.0069 C   0  0  0  0  0  0  0  0  0  0  0  0
   18.0693   16.4094    4.1931 C   0  0  0  0  0  0  0  0  0  0  0  0
   16.6920   16.2283    4.7174 C   0  0  0  0  0  0  0  0  0  0  0  0
   15.6251   17.1521    4.3347 C   0  0  0  0  0  0  0  0  0  0  0  0
   15.9113   18.2699    3.4244 C   0  0  0  0  0  0  0  0  0  0  0  0
   17.2601   18.4602    2.9066 C   0  0  0  0  0  0  0  0  0  0  0  0
   18.3270   17.5444    3.2833 C   0  0  0  0  0  0  0  0  0  0  0  0
   19.1982   15.4406    4.5782 C   0  0  0  0  0  0  0  0  0  0  0  0
   18.9422   13.9894    4.7713 C   0  0  0  0  0  0  0  0  0  0  0  0
   20.0581   13.1310    5.1433 C   0  0  0  0  0  0  0  0  0  0  0  0
   21.3303   13.7120    5.3041 N   0  0  0  0  0  0  0  0  0  0  0  0
   21.5934   15.0940    5.1246 C   0  0  0  0  0  0  0  0  0  0  0  0
   20.5347   15.9712    4.7616 C   0  0  0  0  0  0  0  0  0  0  0  0
 19 20  2  0  0  0
 19 21  1  0  0  0
 19 24  1  0  0  0
 21 22  1  0  0  0
 21 18  1  0  0  0
 21 38  1  0  0  0
 22 23  1  0  0  0
 22 25  1  0  0  0
 23 24  1  0  0  0
 24 27  1  0  0  0
 27 28  1  0  0  0
 27 31  1  0  0  0
 28 29  2  0  0  0
 28 36  1  0  0  0
 29 30  1  0  0  0
 29 33  1  0  0  0
 30 31  1  0  0  0
 31 32  1  0  0  0
 33 34  2  0  0  0
 34 35  1  0  0  0
 35 36  2  0  0  0
 18 17  1  0  0  0
 17  1  1  0  0  0
 38 39  1  0  0  0
 39 40  2  0  0  0
 39 44  1  0  0  0
 40 41  1  0  0  0
 41 42  2  0  0  0
 42 43  1  0  0  0
 43 44  2  0  0  0
 52 46  1  0  0  0
 52 53  2  0  0  0
 52 57  1  0  0  0
 46 47  2  0  0  0
 46 51  1  0  0  0
 47 48  1  0  0  0
 48 49  2  0  0  0
 49 50  1  0  0  0
 49 45  1  0  0  0
 50 51  2  0  0  0
 45  1  1  0  0  0
  1  2  1  0  0  0
  2  3  1  0  0  0
  3  6  1  0  0  0
  3  4  2  0  0  0
  6  7  1  0  0  0
  6 13  1  0  0  0
  7  8  1  0  0  0
  8 11  1  0  0  0
  8  9  2  0  0  0
 11 12  1  0  0  0
 13 14  1  0  0  0
 13 15  1  0  0  0
 13 16  1  0  0  0
 53 54  1  0  0  0
 54 55  2  0  0  0
 55 56  1  0  0  0
 56 57  2  0  0  0
 32 37  1  0  0  0
 25 26  1  0  0  0
  2  5  1  0  0  0
  7 10  1  0  0  0
M  END
> <minimizedAffinity>
-10.35150

$$$$
4A4Q_UX9_A_1100


 57 62  0  0  0  0  0  0  0  0999 V2000
   16.1985   21.6055    7.1753 N   0  0  0  0  0  0  0  0  0  0  0  0
   16.6647   20.8841    6.0677 N   0  0  0  0  0  0  0  0  0  0  0  0
   15.9696   19.7407    5.6532 C   0  0  0  0  0  0  0  0  0  0  0  0
   14.9504   19.3807    6.2652 O   0  0  0  0  0  0  0  0  0  0  0  0
   17.4718   21.1776    5.5864 H   0  0  0  0  0  0  0  0  0  0  0  0
   16.4743   18.9181    4.4522 C   0  0  0  0  0  0  0  0  0  0  0  0
   16.7571   17.6017    5.1094 N   0  0  0  0  0  0  0  0  0  0  0  0
   17.7135   16.6828    4.6902 C   0  0  0  0  0  0  0  0  0  0  0  0
   18.4712   16.8262    3.6935 O   0  0  0  0  0  0  0  0  0  0  0  0
   16.2226   17.3682    5.9025 H   0  0  0  0  0  0  0  0  0  0  0  0
   17.7067   15.5845    5.5392 O   0  0  0  0  0  0  0  0  0  0  0  0
   18.4482   15.6654    6.7950 C   0  0  0  0  0  0  0  0  0  0  0  0
   15.4731   18.7365    3.1876 C   0  0  0  0  0  0  0  0  0  0  0  0
   16.1639   18.5423    1.7940 C   0  0  0  0  0  0  0  0  0  0  0  0
   14.5130   17.5237    3.4426 C   0  0  0  0  0  0  0  0  0  0  0  0
   14.5747   20.0080    3.0448 C   0  0  0  0  0  0  0  0  0  0  0  0
   15.5973   22.8782    6.7773 C   0  0  0  0  0  0  0  0  0  0  0  0
   14.4415   22.8316    5.7021 C   0  0  0  0  0  0  0  0  0  0  0  0
   12.0287   23.4053    4.9654 C   0  0  0  0  0  0  0  0  0  0  0  0
   12.1493   24.3220    4.1397 O   0  0  0  0  0  0  0  0  0  0  0  0
   12.9792   23.2371    6.1374 C   0  0  0  0  0  0  0  0  0  0  0  0
   12.2924   22.1799    7.0603 C   0  0  0  0  0  0  0  0  0  0  0  0
   11.2608   21.5168    6.1342 C   0  0  0  0  0  0  0  0  0  0  0  0
   11.0944   22.4409    4.9922 N   0  0  0  0  0  0  0  0  0  0  0  0
   13.1360   21.1435    7.6163 O   0  0  0  0  0  0  0  0  0  0  0  0
   13.5280   20.6248    6.8965 H   0  0  0  0  0  0  0  0  0  0  0  0
    9.9966   22.3967    3.9475 C   0  0  0  0  0  0  0  0  0  0  0  0
    9.2557   23.6433    3.5678 C   0  0  0  0  0  0  0  0  0  0  0  0
    8.9973   23.6626    2.1791 C   0  0  0  0  0  0  0  0  0  0  0  0
    9.5031   22.4457    1.4665 C   0  0  0  0  0  0  0  0  0  0  0  0
   10.5019   21.9146    2.5061 C   0  0  0  0  0  0  0  0  0  0  0  0
   11.8176   22.4572    2.2211 O   0  0  0  0  0  0  0  0  0  0  0  0
    8.2551   24.8489    1.5407 C   0  0  0  0  0  0  0  0  0  0  0  0
    7.8546   25.8932    2.3824 C   0  0  0  0  0  0  0  0  0  0  0  0
    8.1683   25.8105    3.8994 C   0  0  0  0  0  0  0  0  0  0  0  0
    8.8500   24.6993    4.4242 C   0  0  0  0  0  0  0  0  0  0  0  0
   11.7793   23.4262    2.2426 H   0  0  0  0  0  0  0  0  0  0  0  0
   12.9997   24.6575    6.9624 C   0  0  0  0  0  0  0  0  0  0  0  0
   11.6827   24.9969    7.8198 C   0  0  0  0  0  0  0  0  0  0  0  0
   11.7752   25.5819    9.1781 C   0  0  0  0  0  0  0  0  0  0  0  0
   10.5784   25.9000    9.9506 C   0  0  0  0  0  0  0  0  0  0  0  0
    9.2527   25.6410    9.3810 C   0  0  0  0  0  0  0  0  0  0  0  0
    9.1349   25.0645    8.0457 C   0  0  0  0  0  0  0  0  0  0  0  0
   10.3302   24.7484    7.2778 C   0  0  0  0  0  0  0  0  0  0  0  0
   17.2913   21.7985    8.2087 C   0  0  0  0  0  0  0  0  0  0  0  0
   17.6598   17.8099   10.2252 C   0  0  0  0  0  0  0  0  0  0  0  0
   18.8453   18.4339    9.5850 C   0  0  0  0  0  0  0  0  0  0  0  0
   18.7340   19.7347    8.9264 C   0  0  0  0  0  0  0  0  0  0  0  0
   17.4423   20.4350    8.8948 C   0  0  0  0  0  0  0  0  0  0  0  0
   16.2710   19.8308    9.5162 C   0  0  0  0  0  0  0  0  0  0  0  0
   16.3744   18.5361   10.1736 C   0  0  0  0  0  0  0  0  0  0  0  0
   17.7639   16.4483   10.9300 C   0  0  0  0  0  0  0  0  0  0  0  0
   18.8155   15.4641   10.5636 C   0  0  0  0  0  0  0  0  0  0  0  0
   18.8500   14.1901   11.2682 C   0  0  0  0  0  0  0  0  0  0  0  0
   17.8865   13.9456   12.2651 N   0  0  0  0  0  0  0  0  0  0  0  0
   16.8758   14.8721   12.6278 C   0  0  0  0  0  0  0  0  0  0  0  0
   16.8025   16.1290   11.9669 C   0  0  0  0  0  0  0  0  0  0  0  0
 19 20  2  0  0  0
 19 21  1  0  0  0
 19 24  1  0  0  0
 21 22  1  0  0  0
 21 18  1  0  0  0
 21 38  1  0  0  0
 22 23  1  0  0  0
 22 25  1  0  0  0
 23 24  1  0  0  0
 24 27  1  0  0  0
 27 28  1  0  0  0
 27 31  1  0  0  0
 28 29  2  0  0  0
 28 36  1  0  0  0
 29 30  1  0  0  0
 29 33  1  0  0  0
 30 31  1  0  0  0
 31 32  1  0  0  0
 33 34  2  0  0  0
 34 35  1  0  0  0
 35 36  2  0  0  0
 18 17  1  0  0  0
 17  1  1  0  0  0
 38 39  1  0  0  0
 39 40  2  0  0  0
 39 44  1  0  0  0
 40 41  1  0  0  0
 41 42  2  0  0  0
 42 43  1  0  0  0
 43 44  2  0  0  0
 52 46  1  0  0  0
 52 53  2  0  0  0
 52 57  1  0  0  0
 46 47  2  0  0  0
 46 51  1  0  0  0
 47 48  1  0  0  0
 48 49  2  0  0  0
 49 50  1  0  0  0
 49 45  1  0  0  0
 50 51  2  0  0  0
 45  1  1  0  0  0
  1  2  1  0  0  0
  2  3  1  0  0  0
  3  6  1  0  0  0
  3  4  2  0  0  0
  6  7  1  0  0  0
  6 13  1  0  0  0
  7  8  1  0  0  0
  8 11  1  0  0  0
  8  9  2  0  0  0
 11 12  1  0  0  0
 13 14  1  0  0  0
 13 15  1  0  0  0
 13 16  1  0  0  0
 53 54  1  0  0  0
 54 55  2  0  0  0
 55 56  1  0  0  0
 56 57  2  0  0  0
 32 37  1  0  0  0
 25 26  1  0  0  0
  2  5  1  0  0  0
  7 10  1  0  0  0
M  END
> <minimizedAffinity>
-9.68941

$$$$
4A4Q_UX9_A_1100


 57 62  0  0  0  0  0  0  0  0999 V2000
   15.5227   20.9054    6.7151 N   0  0  0  0  0  0  0  0  0  0  0  0
   15.9165   19.9498    5.7683 N   0  0  0  0  0  0  0  0  0  0  0  0
   15.8189   20.2561    4.4049 C   0  0  0  0  0  0  0  0  0  0  0  0
   15.3902   21.3665    4.0494 O   0  0  0  0  0  0  0  0  0  0  0  0
   16.2578   19.0731    6.0582 H   0  0  0  0  0  0  0  0  0  0  0  0
   16.2247   19.2148    3.3442 C   0  0  0  0  0  0  0  0  0  0  0  0
   16.9253   18.2010    4.1962 N   0  0  0  0  0  0  0  0  0  0  0  0
   18.1198   17.5662    3.8724 C   0  0  0  0  0  0  0  0  0  0  0  0
   18.7764   17.7501    2.8126 O   0  0  0  0  0  0  0  0  0  0  0  0
   16.5060   17.9648    5.0551 H   0  0  0  0  0  0  0  0  0  0  0  0
   18.4790   16.7006    4.8967 O   0  0  0  0  0  0  0  0  0  0  0  0
   18.8057   15.3168    4.5620 C   0  0  0  0  0  0  0  0  0  0  0  0
   15.0422   18.5270    2.4707 C   0  0  0  0  0  0  0  0  0  0  0  0
   13.9192   19.4953    1.9624 C   0  0  0  0  0  0  0  0  0  0  0  0
   15.6598   17.7859    1.2349 C   0  0  0  0  0  0  0  0  0  0  0  0
   14.3146   17.4461    3.3346 C   0  0  0  0  0  0  0  0  0  0  0  0
   16.5761   21.1585    7.6979 C   0  0  0  0  0  0  0  0  0  0  0  0
   17.9716   20.4566    7.4652 C   0  0  0  0  0  0  0  0  0  0  0  0
   18.1973   18.9608    9.5640 C   0  0  0  0  0  0  0  0  0  0  0  0
   17.1576   19.1495   10.2122 O   0  0  0  0  0  0  0  0  0  0  0  0
   18.8378   20.0486    8.7204 C   0  0  0  0  0  0  0  0  0  0  0  0
   20.2459   19.4856    8.3443 C   0  0  0  0  0  0  0  0  0  0  0  0
   20.1099   17.9790    8.6150 C   0  0  0  0  0  0  0  0  0  0  0  0
   18.9222   17.8331    9.4834 N   0  0  0  0  0  0  0  0  0  0  0  0
   20.6827   19.6636    6.9760 O   0  0  0  0  0  0  0  0  0  0  0  0
   20.0681   19.2095    6.3787 H   0  0  0  0  0  0  0  0  0  0  0  0
   18.5194   16.5959   10.2616 C   0  0  0  0  0  0  0  0  0  0  0  0
   18.7628   15.2284    9.6977 C   0  0  0  0  0  0  0  0  0  0  0  0
   19.1660   14.3369   10.7167 C   0  0  0  0  0  0  0  0  0  0  0  0
   19.2231   14.9739   12.0715 C   0  0  0  0  0  0  0  0  0  0  0  0
   19.2598   16.4579   11.6751 C   0  0  0  0  0  0  0  0  0  0  0  0
   20.6423   16.8870   11.5687 O   0  0  0  0  0  0  0  0  0  0  0  0
   19.4870   12.8694   10.3864 C   0  0  0  0  0  0  0  0  0  0  0  0
   19.3657   12.4625    9.0525 C   0  0  0  0  0  0  0  0  0  0  0  0
   18.9174   13.4910    7.9812 C   0  0  0  0  0  0  0  0  0  0  0  0
   18.6376   14.8192    8.3450 C   0  0  0  0  0  0  0  0  0  0  0  0
   21.1001   16.3422   10.9096 H   0  0  0  0  0  0  0  0  0  0  0  0
   19.0819   21.3479    9.6953 C   0  0  0  0  0  0  0  0  0  0  0  0
   20.4020   21.3066   10.6122 C   0  0  0  0  0  0  0  0  0  0  0  0
   20.6218   20.2251   11.6010 C   0  0  0  0  0  0  0  0  0  0  0  0
   21.8261   20.1828   12.4244 C   0  0  0  0  0  0  0  0  0  0  0  0
   22.8463   21.2254   12.2783 C   0  0  0  0  0  0  0  0  0  0  0  0
   22.6529   22.3018   11.3122 C   0  0  0  0  0  0  0  0  0  0  0  0
   21.4509   22.3411   10.4924 C   0  0  0  0  0  0  0  0  0  0  0  0
   14.2152   20.5193    7.3789 C   0  0  0  0  0  0  0  0  0  0  0  0
   11.2017   23.5349    5.9875 C   0  0  0  0  0  0  0  0  0  0  0  0
   12.4154   23.9770    6.7197 C   0  0  0  0  0  0  0  0  0  0  0  0
   13.4035   23.0004    7.1758 C   0  0  0  0  0  0  0  0  0  0  0  0
   13.2000   21.5692    6.9104 C   0  0  0  0  0  0  0  0  0  0  0  0
   12.0108   21.1230    6.1963 C   0  0  0  0  0  0  0  0  0  0  0  0
   11.0230   22.0896    5.7393 C   0  0  0  0  0  0  0  0  0  0  0  0
   10.1598   24.5505    5.4931 C   0  0  0  0  0  0  0  0  0  0  0  0
    9.7575   25.7153    6.3239 C   0  0  0  0  0  0  0  0  0  0  0  0
    8.7586   26.6335    5.7950 C   0  0  0  0  0  0  0  0  0  0  0  0
    8.2173   26.3786    4.5207 N   0  0  0  0  0  0  0  0  0  0  0  0
    8.5884   25.2727    3.7141 C   0  0  0  0  0  0  0  0  0  0  0  0
    9.5597   24.3490    4.1890 C   0  0  0  0  0  0  0  0  0  0  0  0
 19 20  2  0  0  0
 19 21  1  0  0  0
 19 24  1  0  0  0
 21 22  1  0  0  0
 21 18  1  0  0  0
 21 38  1  0  0  0
 22 23  1  0  0  0
 22 25  1  0  0  0
 23 24  1  0  0  0
 24 27  1  0  0  0
 27 28  1  0  0  0
 27 31  1  0  0  0
 28 29  2  0  0  0
 28 36  1  0  0  0
 29 30  1  0  0  0
 29 33  1  0  0  0
 30 31  1  0  0  0
 31 32  1  0  0  0
 33 34  2  0  0  0
 34 35  1  0  0  0
 35 36  2  0  0  0
 18 17  1  0  0  0
 17  1  1  0  0  0
 38 39  1  0  0  0
 39 40  2  0  0  0
 39 44  1  0  0  0
 40 41  1  0  0  0
 41 42  2  0  0  0
 42 43  1  0  0  0
 43 44  2  0  0  0
 52 46  1  0  0  0
 52 53  2  0  0  0
 52 57  1  0  0  0
 46 47  2  0  0  0
 46 51  1  0  0  0
 47 48  1  0  0  0
 48 49  2  0  0  0
 49 50  1  0  0  0
 49 45  1  0  0  0
 50 51  2  0  0  0
 45  1  1  0  0  0
  1  2  1  0  0  0
  2  3  1  0  0  0
  3  6  1  0  0  0
  3  4  2  0  0  0
  6  7  1  0  0  0
  6 13  1  0  0  0
  7  8  1  0  0  0
  8 11  1  0  0  0
  8  9  2  0  0  0
 11 12  1  0  0  0
 13 14  1  0  0  0
 13 15  1  0  0  0
 13 16  1  0  0  0
 53 54  1  0  0  0
 54 55  2  0  0  0
 55 56  1  0  0  0
 56 57  2  0  0  0
 32 37  1  0  0  0
 25 26  1  0  0  0
  2  5  1  0  0  0
  7 10  1  0  0  0
M  END
> <minimizedAffinity>
-9.66021

$$$$
4A4Q_UX9_A_1100


 57 62  0  0  0  0  0  0  0  0999 V2000
   17.2728   18.0831    9.9684 N   0  0  0  0  0  0  0  0  0  0  0  0
   17.7264   17.2808   11.0244 N   0  0  0  0  0  0  0  0  0  0  0  0
   16.8526   16.3510   11.6023 C   0  0  0  0  0  0  0  0  0  0  0  0
   15.6915   16.2440   11.1739 O   0  0  0  0  0  0  0  0  0  0  0  0
   18.6490   17.3698   11.3563 H   0  0  0  0  0  0  0  0  0  0  0  0
   17.3203   15.4728   12.7787 C   0  0  0  0  0  0  0  0  0  0  0  0
   16.0328   14.8142   13.1699 N   0  0  0  0  0  0  0  0  0  0  0  0
   15.4671   14.8456   14.4403 C   0  0  0  0  0  0  0  0  0  0  0  0
   15.9631   15.4269   15.4424 O   0  0  0  0  0  0  0  0  0  0  0  0
   15.5476   14.3189   12.4710 H   0  0  0  0  0  0  0  0  0  0  0  0
   14.2714   14.1402   14.4345 O   0  0  0  0  0  0  0  0  0  0  0  0
   13.2101   14.5681   13.5268 C   0  0  0  0  0  0  0  0  0  0  0  0
   18.4749   14.3704   12.4853 C   0  0  0  0  0  0  0  0  0  0  0  0
   18.3598   13.0317   13.2926 C   0  0  0  0  0  0  0  0  0  0  0  0
   18.5051   14.0301   10.9552 C   0  0  0  0  0  0  0  0  0  0  0  0
   19.8733   14.9682   12.8478 C   0  0  0  0  0  0  0  0  0  0  0  0
   17.4525   17.4256    8.6742 C   0  0  0  0  0  0  0  0  0  0  0  0
   18.9222   17.0202    8.2624 C   0  0  0  0  0  0  0  0  0  0  0  0
   18.1993   16.5471    5.8238 C   0  0  0  0  0  0  0  0  0  0  0  0
   17.8058   15.3716    5.8227 O   0  0  0  0  0  0  0  0  0  0  0  0
   19.3151   17.0297    6.7334 C   0  0  0  0  0  0  0  0  0  0  0  0
   19.6815   18.4507    6.1971 C   0  0  0  0  0  0  0  0  0  0  0  0
   18.4643   18.8313    5.3396 C   0  0  0  0  0  0  0  0  0  0  0  0
   17.7518   17.5643    5.0697 N   0  0  0  0  0  0  0  0  0  0  0  0
   19.8883   19.4928    7.1801 O   0  0  0  0  0  0  0  0  0  0  0  0
   19.0729   19.6239    7.6887 H   0  0  0  0  0  0  0  0  0  0  0  0
   16.6552   17.3456    4.0459 C   0  0  0  0  0  0  0  0  0  0  0  0
   15.6849   18.4417    3.7230 C   0  0  0  0  0  0  0  0  0  0  0  0
   15.3921   18.4529    2.3410 C   0  0  0  0  0  0  0  0  0  0  0  0
   16.0979   17.3739    1.5781 C   0  0  0  0  0  0  0  0  0  0  0  0
   17.2047   17.0093    2.5795 C   0  0  0  0  0  0  0  0  0  0  0  0
   18.3881   17.7972    2.2871 O   0  0  0  0  0  0  0  0  0  0  0  0
   14.4252   19.4972    1.7575 C   0  0  0  0  0  0  0  0  0  0  0  0
   13.8582   20.4226    2.6416 C   0  0  0  0  0  0  0  0  0  0  0  0
   14.2206   20.3558    4.1485 C   0  0  0  0  0  0  0  0  0  0  0  0
   15.1112   19.3773    4.6221 C   0  0  0  0  0  0  0  0  0  0  0  0
   18.1700   18.7408    2.3419 H   0  0  0  0  0  0  0  0  0  0  0  0
   20.6174   16.0637    6.4701 C   0  0  0  0  0  0  0  0  0  0  0  0
   20.8132   14.8438    7.4989 C   0  0  0  0  0  0  0  0  0  0  0  0
   20.1076   13.5544    7.3109 C   0  0  0  0  0  0  0  0  0  0  0  0
   20.2952   12.4441    8.2394 C   0  0  0  0  0  0  0  0  0  0  0  0
   21.1985   12.5956    9.3841 C   0  0  0  0  0  0  0  0  0  0  0  0
   21.9043   13.8558    9.5918 C   0  0  0  0  0  0  0  0  0  0  0  0
   21.7151   14.9611    8.6640 C   0  0  0  0  0  0  0  0  0  0  0  0
   17.9210   19.4535    9.9978 C   0  0  0  0  0  0  0  0  0  0  0  0
   14.9409   22.2664    8.1762 C   0  0  0  0  0  0  0  0  0  0  0  0
   14.4770   21.1000    8.9692 C   0  0  0  0  0  0  0  0  0  0  0  0
   15.4421   20.1786    9.5675 C   0  0  0  0  0  0  0  0  0  0  0  0
   16.8832   20.4034    9.3868 C   0  0  0  0  0  0  0  0  0  0  0  0
   17.3504   21.5424    8.6072 C   0  0  0  0  0  0  0  0  0  0  0  0
   16.3954   22.4636    8.0087 C   0  0  0  0  0  0  0  0  0  0  0  0
   13.9388   23.2488    7.5501 C   0  0  0  0  0  0  0  0  0  0  0  0
   13.5771   23.1752    6.1105 C   0  0  0  0  0  0  0  0  0  0  0  0
   12.6260   24.1436    5.5831 C   0  0  0  0  0  0  0  0  0  0  0  0
   12.0905   25.1072    6.4587 N   0  0  0  0  0  0  0  0  0  0  0  0
   12.4239   25.1931    7.8345 C   0  0  0  0  0  0  0  0  0  0  0  0
   13.3487   24.2691    8.3941 C   0  0  0  0  0  0  0  0  0  0  0  0
 19 20  2  0  0  0
 19 21  1  0  0  0
 19 24  1  0  0  0
 21 22  1  0  0  0
 21 18  1  0  0  0
 21 38  1  0  0  0
 22 23  1  0  0  0
 22 25  1  0  0  0
 23 24  1  0  0  0
 24 27  1  0  0  0
 27 28  1  0  0  0
 27 31  1  0  0  0
 28 29  2  0  0  0
 28 36  1  0  0  0
 29 30  1  0  0  0
 29 33  1  0  0  0
 30 31  1  0  0  0
 31 32  1  0  0  0
 33 34  2  0  0  0
 34 35  1  0  0  0
 35 36  2  0  0  0
 18 17  1  0  0  0
 17  1  1  0  0  0
 38 39  1  0  0  0
 39 40  2  0  0  0
 39 44  1  0  0  0
 40 41  1  0  0  0
 41 42  2  0  0  0
 42 43  1  0  0  0
 43 44  2  0  0  0
 52 46  1  0  0  0
 52 53  2  0  0  0
 52 57  1  0  0  0
 46 47  2  0  0  0
 46 51  1  0  0  0
 47 48  1  0  0  0
 48 49  2  0  0  0
 49 50  1  0  0  0
 49 45  1  0  0  0
 50 51  2  0  0  0
 45  1  1  0  0  0
  1  2  1  0  0  0
  2  3  1  0  0  0
  3  6  1  0  0  0
  3  4  2  0  0  0
  6  7  1  0  0  0
  6 13  1  0  0  0
  7  8  1  0  0  0
  8 11  1  0  0  0
  8  9  2  0  0  0
 11 12  1  0  0  0
 13 14  1  0  0  0
 13 15  1  0  0  0
 13 16  1  0  0  0
 53 54  1  0  0  0
 54 55  2  0  0  0
 55 56  1  0  0  0
 56 57  2  0  0  0
 32 37  1  0  0  0
 25 26  1  0  0  0
  2  5  1  0  0  0
  7 10  1  0  0  0
M  END
> <minimizedAffinity>
-9.64844

$$$$
4A4Q_UX9_A_1100


 57 62  0  0  0  0  0  0  0  0999 V2000
   16.5669   20.2581    7.1210 N   0  0  0  0  0  0  0  0  0  0  0  0
   16.2797   19.2669    6.1725 N   0  0  0  0  0  0  0  0  0  0  0  0
   17.0554   19.1874    5.0088 C   0  0  0  0  0  0  0  0  0  0  0  0
   17.9874   19.9889    4.8307 O   0  0  0  0  0  0  0  0  0  0  0  0
   15.5410   18.6337    6.3225 H   0  0  0  0  0  0  0  0  0  0  0  0
   16.7459   18.1208    3.9409 C   0  0  0  0  0  0  0  0  0  0  0  0
   16.9574   16.8631    4.7271 N   0  0  0  0  0  0  0  0  0  0  0  0
   18.1215   16.1018    4.7283 C   0  0  0  0  0  0  0  0  0  0  0  0
   19.1594   16.3601    4.0617 O   0  0  0  0  0  0  0  0  0  0  0  0
   16.2117   16.5500    5.2885 H   0  0  0  0  0  0  0  0  0  0  0  0
   17.9657   15.0151    5.5780 O   0  0  0  0  0  0  0  0  0  0  0  0
   19.0172   14.0022    5.6197 C   0  0  0  0  0  0  0  0  0  0  0  0
   15.2739   18.1419    3.2573 C   0  0  0  0  0  0  0  0  0  0  0  0
   15.2184   17.7293    1.7462 C   0  0  0  0  0  0  0  0  0  0  0  0
   14.3021   17.2137    4.0647 C   0  0  0  0  0  0  0  0  0  0  0  0
   14.6858   19.5888    3.3262 C   0  0  0  0  0  0  0  0  0  0  0  0
   17.6119   19.8302    8.0506 C   0  0  0  0  0  0  0  0  0  0  0  0
   17.8482   18.2772    8.2141 C   0  0  0  0  0  0  0  0  0  0  0  0
   19.5281   17.8098   10.1254 C   0  0  0  0  0  0  0  0  0  0  0  0
   20.4500   17.1692    9.5997 O   0  0  0  0  0  0  0  0  0  0  0  0
   18.0876   17.6911    9.6603 C   0  0  0  0  0  0  0  0  0  0  0  0
   17.2501   18.4100   10.7662 C   0  0  0  0  0  0  0  0  0  0  0  0
   18.2964   19.2522   11.5128 C   0  0  0  0  0  0  0  0  0  0  0  0
   19.6089   18.6785   11.1465 N   0  0  0  0  0  0  0  0  0  0  0  0
   16.1908   19.2907   10.3223 O   0  0  0  0  0  0  0  0  0  0  0  0
   16.5690   20.0100    9.7927 H   0  0  0  0  0  0  0  0  0  0  0  0
   20.9367   18.9575   11.8229 C   0  0  0  0  0  0  0  0  0  0  0  0
   21.4718   20.3555   11.9031 C   0  0  0  0  0  0  0  0  0  0  0  0
   22.0949   20.5766   13.1515 C   0  0  0  0  0  0  0  0  0  0  0  0
   22.0768   19.3728   14.0431 C   0  0  0  0  0  0  0  0  0  0  0  0
   20.9652   18.5515   13.3720 C   0  0  0  0  0  0  0  0  0  0  0  0
   19.6962   18.8649   14.0030 O   0  0  0  0  0  0  0  0  0  0  0  0
   22.7158   21.9446   13.4815 C   0  0  0  0  0  0  0  0  0  0  0  0
   22.6362   22.9460   12.5065 C   0  0  0  0  0  0  0  0  0  0  0  0
   21.9390   22.6384   11.1552 C   0  0  0  0  0  0  0  0  0  0  0  0
   21.3904   21.3676   10.9122 C   0  0  0  0  0  0  0  0  0  0  0  0
   19.5205   19.8154   13.9213 H   0  0  0  0  0  0  0  0  0  0  0  0
   17.6847   16.0993    9.7078 C   0  0  0  0  0  0  0  0  0  0  0  0
   16.9661   15.5910   11.0532 C   0  0  0  0  0  0  0  0  0  0  0  0
   15.4927   15.6331   11.2049 C   0  0  0  0  0  0  0  0  0  0  0  0
   14.8413   15.1606   12.4224 C   0  0  0  0  0  0  0  0  0  0  0  0
   15.6507   14.6306   13.5238 C   0  0  0  0  0  0  0  0  0  0  0  0
   17.1036   14.5795   13.3994 C   0  0  0  0  0  0  0  0  0  0  0  0
   17.7503   15.0513   12.1838 C   0  0  0  0  0  0  0  0  0  0  0  0
   15.3145   20.7050    7.8497 C   0  0  0  0  0  0  0  0  0  0  0  0
   12.5631   22.3021    4.6890 C   0  0  0  0  0  0  0  0  0  0  0  0
   13.9272   22.8672    4.8447 C   0  0  0  0  0  0  0  0  0  0  0  0
   14.8311   22.3515    5.8720 C   0  0  0  0  0  0  0  0  0  0  0  0
   14.3923   21.2654    6.7597 C   0  0  0  0  0  0  0  0  0  0  0  0
   13.0544   20.7055    6.6191 C   0  0  0  0  0  0  0  0  0  0  0  0
   12.1494   21.2141    5.5986 C   0  0  0  0  0  0  0  0  0  0  0  0
   11.6060   22.8268    3.6072 C   0  0  0  0  0  0  0  0  0  0  0  0
   11.4432   24.2826    3.3562 C   0  0  0  0  0  0  0  0  0  0  0  0
   10.5128   24.7088    2.3203 C   0  0  0  0  0  0  0  0  0  0  0  0
    9.8080   23.7245    1.6017 N   0  0  0  0  0  0  0  0  0  0  0  0
    9.9500   22.3315    1.8275 C   0  0  0  0  0  0  0  0  0  0  0  0
   10.8465   21.8681    2.8292 C   0  0  0  0  0  0  0  0  0  0  0  0
 19 20  2  0  0  0
 19 21  1  0  0  0
 19 24  1  0  0  0
 21 22  1  0  0  0
 21 18  1  0  0  0
 21 38  1  0  0  0
 22 23  1  0  0  0
 22 25  1  0  0  0
 23 24  1  0  0  0
 24 27  1  0  0  0
 27 28  1  0  0  0
 27 31  1  0  0  0
 28 29  2  0  0  0
 28 36  1  0  0  0
 29 30  1  0  0  0
 29 33  1  0  0  0
 30 31  1  0  0  0
 31 32  1  0  0  0
 33 34  2  0  0  0
 34 35  1  0  0  0
 35 36  2  0  0  0
 18 17  1  0  0  0
 17  1  1  0  0  0
 38 39  1  0  0  0
 39 40  2  0  0  0
 39 44  1  0  0  0
 40 41  1  0  0  0
 41 42  2  0  0  0
 42 43  1  0  0  0
 43 44  2  0  0  0
 52 46  1  0  0  0
 52 53  2  0  0  0
 52 57  1  0  0  0
 46 47  2  0  0  0
 46 51  1  0  0  0
 47 48  1  0  0  0
 48 49  2  0  0  0
 49 50  1  0  0  0
 49 45  1  0  0  0
 50 51  2  0  0  0
 45  1  1  0  0  0
  1  2  1  0  0  0
  2  3  1  0  0  0
  3  6  1  0  0  0
  3  4  2  0  0  0
  6  7  1  0  0  0
  6 13  1  0  0  0
  7  8  1  0  0  0
  8 11  1  0  0  0
  8  9  2  0  0  0
 11 12  1  0  0  0
 13 14  1  0  0  0
 13 15  1  0  0  0
 13 16  1  0  0  0
 53 54  1  0  0  0
 54 55  2  0  0  0
 55 56  1  0  0  0
 56 57  2  0  0  0
 32 37  1  0  0  0
 25 26  1  0  0  0
  2  5  1  0  0  0
  7 10  1  0  0  0
M  END
> <minimizedAffinity>
-9.54688

$$$$
4A4Q_UX9_A_1100


 57 62  0  0  0  0  0  0  0  0999 V2000
   18.3695   19.3933    7.7320 N   0  0  0  0  0  0  0  0  0  0  0  0
   17.7528   18.5315    6.8147 N   0  0  0  0  0  0  0  0  0  0  0  0
   17.7626   18.8601    5.4531 C   0  0  0  0  0  0  0  0  0  0  0  0
   18.3176   19.9043    5.0727 O   0  0  0  0  0  0  0  0  0  0  0  0
   17.3175   17.7044    7.1240 H   0  0  0  0  0  0  0  0  0  0  0  0
   17.0725   17.9404    4.4274 C   0  0  0  0  0  0  0  0  0  0  0  0
   17.2332   16.6064    5.0901 N   0  0  0  0  0  0  0  0  0  0  0  0
   18.2081   15.6651    4.7767 C   0  0  0  0  0  0  0  0  0  0  0  0
   19.0888   15.8002    3.8854 O   0  0  0  0  0  0  0  0  0  0  0  0
   16.5969   16.3774    5.8057 H   0  0  0  0  0  0  0  0  0  0  0  0
   18.0637   14.5549    5.5976 O   0  0  0  0  0  0  0  0  0  0  0  0
   19.1907   13.6365    5.7383 C   0  0  0  0  0  0  0  0  0  0  0  0
   15.5153   18.2350    4.0771 C   0  0  0  0  0  0  0  0  0  0  0  0
   14.5534   16.9999    4.1574 C   0  0  0  0  0  0  0  0  0  0  0  0
   14.9643   19.3596    5.0202 C   0  0  0  0  0  0  0  0  0  0  0  0
   15.4007   18.7703    2.6127 C   0  0  0  0  0  0  0  0  0  0  0  0
   19.7209   18.9465    8.0691 C   0  0  0  0  0  0  0  0  0  0  0  0
   20.1056   17.4578    7.7087 C   0  0  0  0  0  0  0  0  0  0  0  0
   20.4924   16.9130   10.2081 C   0  0  0  0  0  0  0  0  0  0  0  0
   21.6462   17.2961   10.4505 O   0  0  0  0  0  0  0  0  0  0  0  0
   20.0854   16.3679    8.8507 C   0  0  0  0  0  0  0  0  0  0  0  0
   18.6744   15.7375    9.0799 C   0  0  0  0  0  0  0  0  0  0  0  0
   18.2153   16.3666   10.4047 C   0  0  0  0  0  0  0  0  0  0  0  0
   19.4389   16.8996   11.0409 N   0  0  0  0  0  0  0  0  0  0  0  0
   17.6641   16.0014    8.0777 O   0  0  0  0  0  0  0  0  0  0  0  0
   17.5019   16.9564    8.0256 H   0  0  0  0  0  0  0  0  0  0  0  0
   19.5811   17.3630   12.4774 C   0  0  0  0  0  0  0  0  0  0  0  0
   20.7465   16.9190   13.3092 C   0  0  0  0  0  0  0  0  0  0  0  0
   21.2000   17.9752   14.1304 C   0  0  0  0  0  0  0  0  0  0  0  0
   20.3997   19.2319   13.9735 C   0  0  0  0  0  0  0  0  0  0  0  0
   19.7110   18.9522   12.6289 C   0  0  0  0  0  0  0  0  0  0  0  0
   20.5217   19.5003   11.5569 O   0  0  0  0  0  0  0  0  0  0  0  0
   22.3983   17.7706   15.0728 C   0  0  0  0  0  0  0  0  0  0  0  0
   23.0114   16.5122   15.0798 C   0  0  0  0  0  0  0  0  0  0  0  0
   22.4640   15.3941   14.1542 C   0  0  0  0  0  0  0  0  0  0  0  0
   21.3646   15.6419   13.3147 C   0  0  0  0  0  0  0  0  0  0  0  0
   21.4049   19.1000   11.5824 H   0  0  0  0  0  0  0  0  0  0  0  0
   21.1108   15.1372    8.4868 C   0  0  0  0  0  0  0  0  0  0  0  0
   21.4266   14.1039    9.6773 C   0  0  0  0  0  0  0  0  0  0  0  0
   22.7918   13.9636   10.2362 C   0  0  0  0  0  0  0  0  0  0  0  0
   23.0744   13.0332   11.3246 C   0  0  0  0  0  0  0  0  0  0  0  0
   21.9935   12.2167   11.8850 C   0  0  0  0  0  0  0  0  0  0  0  0
   20.6406   12.3356   11.3514 C   0  0  0  0  0  0  0  0  0  0  0  0
   20.3619   13.2644   10.2660 C   0  0  0  0  0  0  0  0  0  0  0  0
   17.5154   19.5852    8.9702 C   0  0  0  0  0  0  0  0  0  0  0  0
   14.3540   22.5489    7.8156 C   0  0  0  0  0  0  0  0  0  0  0  0
   15.7754   22.9699    7.8995 C   0  0  0  0  0  0  0  0  0  0  0  0
   16.8126   22.0096    8.2741 C   0  0  0  0  0  0  0  0  0  0  0  0
   16.4522   20.6159    8.5705 C   0  0  0  0  0  0  0  0  0  0  0  0
   15.0601   20.1920    8.4954 C   0  0  0  0  0  0  0  0  0  0  0  0
   14.0223   21.1426    8.1232 C   0  0  0  0  0  0  0  0  0  0  0  0
   13.2546   23.5443    7.4133 C   0  0  0  0  0  0  0  0  0  0  0  0
   12.9108   24.7083    8.2712 C   0  0  0  0  0  0  0  0  0  0  0  0
   11.8526   25.6067    7.8311 C   0  0  0  0  0  0  0  0  0  0  0  0
   11.2011   25.3344    6.6132 N   0  0  0  0  0  0  0  0  0  0  0  0
   11.5150   24.2289    5.7820 C   0  0  0  0  0  0  0  0  0  0  0  0
   12.5409   23.3242    6.1708 C   0  0  0  0  0  0  0  0  0  0  0  0
 19 20  2  0  0  0
 19 21  1  0  0  0
 19 24  1  0  0  0
 21 22  1  0  0  0
 21 18  1  0  0  0
 21 38  1  0  0  0
 22 23  1  0  0  0
 22 25  1  0  0  0
 23 24  1  0  0  0
 24 27  1  0  0  0
 27 28  1  0  0  0
 27 31  1  0  0  0
 28 29  2  0  0  0
 28 36  1  0  0  0
 29 30  1  0  0  0
 29 33  1  0  0  0
 30 31  1  0  0  0
 31 32  1  0  0  0
 33 34  2  0  0  0
 34 35  1  0  0  0
 35 36  2  0  0  0
 18 17  1  0  0  0
 17  1  1  0  0  0
 38 39  1  0  0  0
 39 40  2  0  0  0
 39 44  1  0  0  0
 40 41  1  0  0  0
 41 42  2  0  0  0
 42 43  1  0  0  0
 43 44  2  0  0  0
 52 46  1  0  0  0
 52 53  2  0  0  0
 52 57  1  0  0  0
 46 47  2  0  0  0
 46 51  1  0  0  0
 47 48  1  0  0  0
 48 49  2  0  0  0
 49 50  1  0  0  0
 49 45  1  0  0  0
 50 51  2  0  0  0
 45  1  1  0  0  0
  1  2  1  0  0  0
  2  3  1  0  0  0
  3  6  1  0  0  0
  3  4  2  0  0  0
  6  7  1  0  0  0
  6 13  1  0  0  0
  7  8  1  0  0  0
  8 11  1  0  0  0
  8  9  2  0  0  0
 11 12  1  0  0  0
 13 14  1  0  0  0
 13 15  1  0  0  0
 13 16  1  0  0  0
 53 54  1  0  0  0
 54 55  2  0  0  0
 55 56  1  0  0  0
 56 57  2  0  0  0
 32 37  1  0  0  0
 25 26  1  0  0  0
  2  5  1  0  0  0
  7 10  1  0  0  0
M  END
> <minimizedAffinity>
-9.29795

$$$$
