4FCQ_2N6_A_301


 22 24  0  0  0  0  0  0  0  0999 V2000
   31.2866    9.1237   24.6049 C   0  0  0  0  0  0  0  0  0  0  0  0
   30.8571    9.2124   25.9226 C   0  0  0  0  0  0  0  0  0  0  0  0
   30.7006    9.9584   23.7132 N   0  0  0  0  0  0  0  0  0  0  0  0
   29.7292   10.8634   24.0676 C   0  0  0  0  0  0  0  0  0  0  0  0
   29.3133   10.9429   25.3254 N   0  0  0  0  0  0  0  0  0  0  0  0
   29.8842   10.1536   26.2520 C   0  0  0  0  0  0  0  0  0  0  0  0
   29.6615   10.0477   27.5375 N   0  0  0  0  0  0  0  0  0  0  0  0
   30.4356    9.0886   28.0571 C   0  0  0  0  0  0  0  0  0  0  0  0
   31.1742    8.5447   27.1015 C   0  0  0  0  0  0  0  0  0  0  0  0
   29.0193   10.5933   28.0466 H   0  0  0  0  0  0  0  0  0  0  0  0
   34.2231    9.9362   24.0415 C   0  0  0  0  0  0  0  0  0  0  0  0
   33.5686    8.5361   23.8656 C   0  0  0  0  0  0  0  0  0  0  0  0
   34.4251    7.5203   23.4615 C   0  0  0  0  0  0  0  0  0  0  0  0
   33.9640    6.2205   23.2603 C   0  0  0  0  0  0  0  0  0  0  0  0
   34.9254    5.1109   22.7691 C   0  0  0  0  0  0  0  0  0  0  0  0
   32.6307    5.9285   23.4821 C   0  0  0  0  0  0  0  0  0  0  0  0
   31.7762    6.9032   23.9219 C   0  0  0  0  0  0  0  0  0  0  0  0
   32.2148    8.2194   24.0850 C   0  0  0  0  0  0  0  0  0  0  0  0
   29.0448   11.9953   22.8954 S   0  0  0  0  0  0  0  0  0  0  0  0
   30.3377   12.1322   21.6268 C   0  0  0  0  0  0  0  0  0  0  0  0
   32.1435    7.4842   27.1971 C   0  0  0  0  0  0  0  0  0  0  0  0
   32.9253    6.6751   27.3212 N   0  0  0  0  0  0  0  0  0  0  0  0
 22 21  3  0  0  0
 21  9  1  0  0  0
  8  9  2  0  0  0
  8  7  1  0  0  0
  9  2  1  0  0  0
 15 14  1  0  0  0
 14 16  2  0  0  0
 14 13  1  0  0  0
 16 17  1  0  0  0
  7  6  1  0  0  0
 13 12  2  0  0  0
  2  6  2  0  0  0
  2  1  1  0  0  0
 17 18  2  0  0  0
 12 18  1  0  0  0
 12 11  1  0  0  0
 18  1  1  0  0  0
  6  5  1  0  0  0
  1  3  2  0  0  0
  5  4  2  0  0  0
  3  4  1  0  0  0
  4 19  1  0  0  0
 20 19  1  0  0  0
  7 10  1  0  0  0
M  END
> <minimizedAffinity>
-7.93007

$$$$
4FCQ_2N6_A_301


 22 24  0  0  0  0  0  0  0  0999 V2000
   32.0384    8.6297   25.4465 C   0  0  0  0  0  0  0  0  0  0  0  0
   31.9125    8.1562   26.7460 C   0  0  0  0  0  0  0  0  0  0  0  0
   32.9921    8.0539   24.6756 N   0  0  0  0  0  0  0  0  0  0  0  0
   33.8068    7.0444   25.1289 C   0  0  0  0  0  0  0  0  0  0  0  0
   33.6916    6.5971   26.3731 N   0  0  0  0  0  0  0  0  0  0  0  0
   32.7412    7.1189   27.1681 C   0  0  0  0  0  0  0  0  0  0  0  0
   32.4244    6.8500   28.4094 N   0  0  0  0  0  0  0  0  0  0  0  0
   31.4378    7.6576   28.8136 C   0  0  0  0  0  0  0  0  0  0  0  0
   31.1027    8.4794   27.8303 C   0  0  0  0  0  0  0  0  0  0  0  0
   32.8494    6.1560   28.9634 H   0  0  0  0  0  0  0  0  0  0  0  0
   33.3941   11.3285   24.7542 C   0  0  0  0  0  0  0  0  0  0  0  0
   31.9215   10.9032   24.4892 C   0  0  0  0  0  0  0  0  0  0  0  0
   31.1431   11.8300   23.8080 C   0  0  0  0  0  0  0  0  0  0  0  0
   29.8049   11.5756   23.5133 C   0  0  0  0  0  0  0  0  0  0  0  0
   28.9418   12.6383   22.7904 C   0  0  0  0  0  0  0  0  0  0  0  0
   29.2411   10.3706   23.8907 C   0  0  0  0  0  0  0  0  0  0  0  0
   29.9997    9.4242   24.5251 C   0  0  0  0  0  0  0  0  0  0  0  0
   31.3294    9.6831   24.8659 C   0  0  0  0  0  0  0  0  0  0  0  0
   34.9845    6.2582   24.0713 S   0  0  0  0  0  0  0  0  0  0  0  0
   33.9890    5.7104   22.6541 C   0  0  0  0  0  0  0  0  0  0  0  0
   30.0990    9.5117   27.8134 C   0  0  0  0  0  0  0  0  0  0  0  0
   29.2736   10.2862   27.8266 N   0  0  0  0  0  0  0  0  0  0  0  0
 22 21  3  0  0  0
 21  9  1  0  0  0
  8  9  2  0  0  0
  8  7  1  0  0  0
  9  2  1  0  0  0
 15 14  1  0  0  0
 14 16  2  0  0  0
 14 13  1  0  0  0
 16 17  1  0  0  0
  7  6  1  0  0  0
 13 12  2  0  0  0
  2  6  2  0  0  0
  2  1  1  0  0  0
 17 18  2  0  0  0
 12 18  1  0  0  0
 12 11  1  0  0  0
 18  1  1  0  0  0
  6  5  1  0  0  0
  1  3  2  0  0  0
  5  4  2  0  0  0
  3  4  1  0  0  0
  4 19  1  0  0  0
 20 19  1  0  0  0
  7 10  1  0  0  0
M  END
> <minimizedAffinity>
-7.51430

$$$$
4FCQ_2N6_A_301


 22 24  0  0  0  0  0  0  0  0999 V2000
   31.4691    9.1547   24.6763 C   0  0  0  0  0  0  0  0  0  0  0  0
   30.9273    9.2805   25.9489 C   0  0  0  0  0  0  0  0  0  0  0  0
   30.9294    9.9269   23.7028 N   0  0  0  0  0  0  0  0  0  0  0  0
   29.8985   10.8053   23.9350 C   0  0  0  0  0  0  0  0  0  0  0  0
   29.3756   10.9200   25.1494 N   0  0  0  0  0  0  0  0  0  0  0  0
   29.8957   10.1940   26.1544 C   0  0  0  0  0  0  0  0  0  0  0  0
   29.5698   10.1327   27.4206 N   0  0  0  0  0  0  0  0  0  0  0  0
   30.3327    9.2286   28.0447 C   0  0  0  0  0  0  0  0  0  0  0  0
   31.1688    8.6761   27.1786 C   0  0  0  0  0  0  0  0  0  0  0  0
   28.8672   10.6723   27.8500 H   0  0  0  0  0  0  0  0  0  0  0  0
   30.9518    6.1106   24.4179 C   0  0  0  0  0  0  0  0  0  0  0  0
   32.2601    6.8882   24.0962 C   0  0  0  0  0  0  0  0  0  0  0  0
   33.2982    6.1260   23.5764 C   0  0  0  0  0  0  0  0  0  0  0  0
   34.5264    6.6994   23.2519 C   0  0  0  0  0  0  0  0  0  0  0  0
   35.6856    5.8259   22.7132 C   0  0  0  0  0  0  0  0  0  0  0  0
   34.7140    8.0572   23.4345 C   0  0  0  0  0  0  0  0  0  0  0  0
   33.6918    8.8365   23.9051 C   0  0  0  0  0  0  0  0  0  0  0  0
   32.4708    8.2682   24.2758 C   0  0  0  0  0  0  0  0  0  0  0  0
   29.2734   11.8585   22.6607 S   0  0  0  0  0  0  0  0  0  0  0  0
   30.7340   12.2080   21.6389 C   0  0  0  0  0  0  0  0  0  0  0  0
   32.1655    7.6610   27.4013 C   0  0  0  0  0  0  0  0  0  0  0  0
   32.9079    6.8305   27.6019 N   0  0  0  0  0  0  0  0  0  0  0  0
 22 21  3  0  0  0
 21  9  1  0  0  0
  8  9  2  0  0  0
  8  7  1  0  0  0
  9  2  1  0  0  0
 15 14  1  0  0  0
 14 16  2  0  0  0
 14 13  1  0  0  0
 16 17  1  0  0  0
  7  6  1  0  0  0
 13 12  2  0  0  0
  2  6  2  0  0  0
  2  1  1  0  0  0
 17 18  2  0  0  0
 12 18  1  0  0  0
 12 11  1  0  0  0
 18  1  1  0  0  0
  6  5  1  0  0  0
  1  3  2  0  0  0
  5  4  2  0  0  0
  3  4  1  0  0  0
  4 19  1  0  0  0
 20 19  1  0  0  0
  7 10  1  0  0  0
M  END
> <minimizedAffinity>
-7.49148

$$$$
4FCQ_2N6_A_301


 22 24  0  0  0  0  0  0  0  0999 V2000
   31.5603   10.8524   24.4838 C   0  0  0  0  0  0  0  0  0  0  0  0
   30.4505   11.2264   23.7373 C   0  0  0  0  0  0  0  0  0  0  0  0
   31.3246   10.3447   25.7175 N   0  0  0  0  0  0  0  0  0  0  0  0
   30.0589   10.1906   26.2299 C   0  0  0  0  0  0  0  0  0  0  0  0
   28.9987   10.5551   25.5196 N   0  0  0  0  0  0  0  0  0  0  0  0
   29.1805   11.0393   24.2786 C   0  0  0  0  0  0  0  0  0  0  0  0
   28.3146   11.4546   23.3891 N   0  0  0  0  0  0  0  0  0  0  0  0
   28.9550   11.9016   22.3032 C   0  0  0  0  0  0  0  0  0  0  0  0
   30.2631   11.7902   22.4791 C   0  0  0  0  0  0  0  0  0  0  0  0
   27.3368   11.4400   23.5026 H   0  0  0  0  0  0  0  0  0  0  0  0
   32.9470   13.6232   24.4656 C   0  0  0  0  0  0  0  0  0  0  0  0
   33.5793   12.2362   24.1554 C   0  0  0  0  0  0  0  0  0  0  0  0
   34.9437   12.2437   23.8962 C   0  0  0  0  0  0  0  0  0  0  0  0
   35.6311   11.0687   23.5972 C   0  0  0  0  0  0  0  0  0  0  0  0
   37.1438   11.1029   23.2696 C   0  0  0  0  0  0  0  0  0  0  0  0
   34.9478    9.8668   23.5730 C   0  0  0  0  0  0  0  0  0  0  0  0
   33.6115    9.8283   23.8672 C   0  0  0  0  0  0  0  0  0  0  0  0
   32.9012   11.0032   24.1250 C   0  0  0  0  0  0  0  0  0  0  0  0
   29.7826    9.4477   27.8096 S   0  0  0  0  0  0  0  0  0  0  0  0
   31.1217    8.2285   27.9498 C   0  0  0  0  0  0  0  0  0  0  0  0
   31.3323   12.1456   21.5825 C   0  0  0  0  0  0  0  0  0  0  0  0
   32.1334   12.4509   20.8434 N   0  0  0  0  0  0  0  0  0  0  0  0
 22 21  3  0  0  0
 21  9  1  0  0  0
  8  9  2  0  0  0
  8  7  1  0  0  0
  9  2  1  0  0  0
 15 14  1  0  0  0
 14 16  2  0  0  0
 14 13  1  0  0  0
 16 17  1  0  0  0
  7  6  1  0  0  0
 13 12  2  0  0  0
  2  6  2  0  0  0
  2  1  1  0  0  0
 17 18  2  0  0  0
 12 18  1  0  0  0
 12 11  1  0  0  0
 18  1  1  0  0  0
  6  5  1  0  0  0
  1  3  2  0  0  0
  5  4  2  0  0  0
  3  4  1  0  0  0
  4 19  1  0  0  0
 20 19  1  0  0  0
  7 10  1  0  0  0
M  END
> <minimizedAffinity>
-6.41399

$$$$
4FCQ_2N6_A_301


 22 24  0  0  0  0  0  0  0  0999 V2000
   32.0300    8.6756   24.5596 C   0  0  0  0  0  0  0  0  0  0  0  0
   31.4316    8.0182   25.6265 C   0  0  0  0  0  0  0  0  0  0  0  0
   32.6604    7.9040   23.6417 N   0  0  0  0  0  0  0  0  0  0  0  0
   32.7167    6.5340   23.7331 C   0  0  0  0  0  0  0  0  0  0  0  0
   32.1513    5.9062   24.7567 N   0  0  0  0  0  0  0  0  0  0  0  0
   31.4906    6.6272   25.6792 C   0  0  0  0  0  0  0  0  0  0  0  0
   30.8532    6.2526   26.7593 N   0  0  0  0  0  0  0  0  0  0  0  0
   30.3868    7.3249   27.4089 C   0  0  0  0  0  0  0  0  0  0  0  0
   30.7281    8.4255   26.7557 C   0  0  0  0  0  0  0  0  0  0  0  0
   30.7345    5.3197   27.0506 H   0  0  0  0  0  0  0  0  0  0  0  0
   29.5685   10.3467   23.6944 C   0  0  0  0  0  0  0  0  0  0  0  0
   31.0015   10.8555   24.0218 C   0  0  0  0  0  0  0  0  0  0  0  0
   31.1744   12.2327   23.9737 C   0  0  0  0  0  0  0  0  0  0  0  0
   32.4113   12.8176   24.2392 C   0  0  0  0  0  0  0  0  0  0  0  0
   32.5947   14.3517   24.1393 C   0  0  0  0  0  0  0  0  0  0  0  0
   33.4867   12.0153   24.5737 C   0  0  0  0  0  0  0  0  0  0  0  0
   33.3305   10.6589   24.6695 C   0  0  0  0  0  0  0  0  0  0  0  0
   32.1084   10.0557   24.3630 C   0  0  0  0  0  0  0  0  0  0  0  0
   33.4752    5.5515   22.4749 S   0  0  0  0  0  0  0  0  0  0  0  0
   35.1047    6.3228   22.2532 C   0  0  0  0  0  0  0  0  0  0  0  0
   30.4454    9.7989   27.0832 C   0  0  0  0  0  0  0  0  0  0  0  0
   30.1824   10.8597   27.3777 N   0  0  0  0  0  0  0  0  0  0  0  0
 22 21  3  0  0  0
 21  9  1  0  0  0
  8  9  2  0  0  0
  8  7  1  0  0  0
  9  2  1  0  0  0
 15 14  1  0  0  0
 14 16  2  0  0  0
 14 13  1  0  0  0
 16 17  1  0  0  0
  7  6  1  0  0  0
 13 12  2  0  0  0
  2  6  2  0  0  0
  2  1  1  0  0  0
 17 18  2  0  0  0
 12 18  1  0  0  0
 12 11  1  0  0  0
 18  1  1  0  0  0
  6  5  1  0  0  0
  1  3  2  0  0  0
  5  4  2  0  0  0
  3  4  1  0  0  0
  4 19  1  0  0  0
 20 19  1  0  0  0
  7 10  1  0  0  0
M  END
> <minimizedAffinity>
-6.15796

$$$$
4FCQ_2N6_A_301


 22 24  0  0  0  0  0  0  0  0999 V2000
   33.2284    8.1632   26.2449 C   0  0  0  0  0  0  0  0  0  0  0  0
   33.9796    7.0457   25.9051 C   0  0  0  0  0  0  0  0  0  0  0  0
   32.7631    8.2239   27.5158 N   0  0  0  0  0  0  0  0  0  0  0  0
   33.0112    7.2443   28.4471 C   0  0  0  0  0  0  0  0  0  0  0  0
   33.7226    6.1727   28.1202 N   0  0  0  0  0  0  0  0  0  0  0  0
   34.2287    6.0802   26.8781 C   0  0  0  0  0  0  0  0  0  0  0  0
   34.9561    5.1459   26.3202 N   0  0  0  0  0  0  0  0  0  0  0  0
   35.1895    5.4532   25.0395 C   0  0  0  0  0  0  0  0  0  0  0  0
   34.6007    6.6018   24.7418 C   0  0  0  0  0  0  0  0  0  0  0  0
   35.2831    4.3367   26.7758 H   0  0  0  0  0  0  0  0  0  0  0  0
   30.5607    8.0919   24.6705 C   0  0  0  0  0  0  0  0  0  0  0  0
   31.6181    9.2322   24.7077 C   0  0  0  0  0  0  0  0  0  0  0  0
   31.2915   10.3762   23.9912 C   0  0  0  0  0  0  0  0  0  0  0  0
   32.1553   11.4687   23.9370 C   0  0  0  0  0  0  0  0  0  0  0  0
   31.7927   12.7186   23.0985 C   0  0  0  0  0  0  0  0  0  0  0  0
   33.3555   11.4231   24.6223 C   0  0  0  0  0  0  0  0  0  0  0  0
   33.6801   10.3236   25.3701 C   0  0  0  0  0  0  0  0  0  0  0  0
   32.8446    9.2045   25.3976 C   0  0  0  0  0  0  0  0  0  0  0  0
   32.4599    7.3945   30.1196 S   0  0  0  0  0  0  0  0  0  0  0  0
   32.1495    5.6774   30.6242 C   0  0  0  0  0  0  0  0  0  0  0  0
   34.5819    7.3137   23.4903 C   0  0  0  0  0  0  0  0  0  0  0  0
   34.5875    7.9200   22.5346 N   0  0  0  0  0  0  0  0  0  0  0  0
 22 21  3  0  0  0
 21  9  1  0  0  0
  8  9  2  0  0  0
  8  7  1  0  0  0
  9  2  1  0  0  0
 15 14  1  0  0  0
 14 16  2  0  0  0
 14 13  1  0  0  0
 16 17  1  0  0  0
  7  6  1  0  0  0
 13 12  2  0  0  0
  2  6  2  0  0  0
  2  1  1  0  0  0
 17 18  2  0  0  0
 12 18  1  0  0  0
 12 11  1  0  0  0
 18  1  1  0  0  0
  6  5  1  0  0  0
  1  3  2  0  0  0
  5  4  2  0  0  0
  3  4  1  0  0  0
  4 19  1  0  0  0
 20 19  1  0  0  0
  7 10  1  0  0  0
M  END
> <minimizedAffinity>
-5.83129

$$$$
4FCQ_2N6_A_301


 22 24  0  0  0  0  0  0  0  0999 V2000
   32.2999    7.3267   26.6930 C   0  0  0  0  0  0  0  0  0  0  0  0
   31.3963    8.3555   26.9250 C   0  0  0  0  0  0  0  0  0  0  0  0
   32.5767    6.5090   27.7371 N   0  0  0  0  0  0  0  0  0  0  0  0
   32.0023    6.6627   28.9759 C   0  0  0  0  0  0  0  0  0  0  0  0
   31.1446    7.6505   29.1997 N   0  0  0  0  0  0  0  0  0  0  0  0
   30.8176    8.4720   28.1869 C   0  0  0  0  0  0  0  0  0  0  0  0
   30.0059    9.4982   28.1482 N   0  0  0  0  0  0  0  0  0  0  0  0
   30.0294   10.0528   26.9313 C   0  0  0  0  0  0  0  0  0  0  0  0
   30.8753    9.3913   26.1557 C   0  0  0  0  0  0  0  0  0  0  0  0
   29.4591    9.8149   28.9031 H   0  0  0  0  0  0  0  0  0  0  0  0
   31.0064    5.8659   24.2861 C   0  0  0  0  0  0  0  0  0  0  0  0
   32.4373    6.4687   24.3813 C   0  0  0  0  0  0  0  0  0  0  0  0
   33.1999    6.3887   23.2234 C   0  0  0  0  0  0  0  0  0  0  0  0
   34.5015    6.8849   23.1771 C   0  0  0  0  0  0  0  0  0  0  0  0
   35.3510    6.7486   21.8899 C   0  0  0  0  0  0  0  0  0  0  0  0
   35.0426    7.4844   24.2996 C   0  0  0  0  0  0  0  0  0  0  0  0
   34.2955    7.6134   25.4391 C   0  0  0  0  0  0  0  0  0  0  0  0
   33.0060    7.0814   25.5137 C   0  0  0  0  0  0  0  0  0  0  0  0
   32.3218    5.5283   30.2930 S   0  0  0  0  0  0  0  0  0  0  0  0
   34.0533    5.8579   30.7318 C   0  0  0  0  0  0  0  0  0  0  0  0
   31.2206    9.6314   24.7786 C   0  0  0  0  0  0  0  0  0  0  0  0
   31.5404    9.8470   23.7144 N   0  0  0  0  0  0  0  0  0  0  0  0
 22 21  3  0  0  0
 21  9  1  0  0  0
  8  9  2  0  0  0
  8  7  1  0  0  0
  9  2  1  0  0  0
 15 14  1  0  0  0
 14 16  2  0  0  0
 14 13  1  0  0  0
 16 17  1  0  0  0
  7  6  1  0  0  0
 13 12  2  0  0  0
  2  6  2  0  0  0
  2  1  1  0  0  0
 17 18  2  0  0  0
 12 18  1  0  0  0
 12 11  1  0  0  0
 18  1  1  0  0  0
  6  5  1  0  0  0
  1  3  2  0  0  0
  5  4  2  0  0  0
  3  4  1  0  0  0
  4 19  1  0  0  0
 20 19  1  0  0  0
  7 10  1  0  0  0
M  END
> <minimizedAffinity>
-5.83105

$$$$
4FCQ_2N6_A_301


 22 24  0  0  0  0  0  0  0  0999 V2000
   32.8900    8.3992   26.1610 C   0  0  0  0  0  0  0  0  0  0  0  0
   33.6346    7.8315   25.1353 C   0  0  0  0  0  0  0  0  0  0  0  0
   32.3328    9.6092   25.9148 N   0  0  0  0  0  0  0  0  0  0  0  0
   32.4761   10.2648   24.7156 C   0  0  0  0  0  0  0  0  0  0  0  0
   33.1940    9.7258   23.7380 N   0  0  0  0  0  0  0  0  0  0  0  0
   33.7443    8.5136   23.9254 C   0  0  0  0  0  0  0  0  0  0  0  0
   34.4773    7.7767   23.1298 N   0  0  0  0  0  0  0  0  0  0  0  0
   34.8491    6.6566   23.7592 C   0  0  0  0  0  0  0  0  0  0  0  0
   34.3642    6.6555   24.9919 C   0  0  0  0  0  0  0  0  0  0  0  0
   34.7192    8.0121   22.2049 H   0  0  0  0  0  0  0  0  0  0  0  0
   30.4122    6.6923   26.9007 C   0  0  0  0  0  0  0  0  0  0  0  0
   31.6216    7.0634   27.8059 C   0  0  0  0  0  0  0  0  0  0  0  0
   31.6087    6.5109   29.0800 C   0  0  0  0  0  0  0  0  0  0  0  0
   32.6298    6.7697   29.9926 C   0  0  0  0  0  0  0  0  0  0  0  0
   32.5766    6.1789   31.4226 C   0  0  0  0  0  0  0  0  0  0  0  0
   33.6873    7.5793   29.6205 C   0  0  0  0  0  0  0  0  0  0  0  0
   33.7438    8.1005   28.3561 C   0  0  0  0  0  0  0  0  0  0  0  0
   32.7058    7.8857   27.4463 C   0  0  0  0  0  0  0  0  0  0  0  0
   31.6670   11.8037   24.3981 S   0  0  0  0  0  0  0  0  0  0  0  0
   33.0305   13.0030   24.3515 C   0  0  0  0  0  0  0  0  0  0  0  0
   34.5097    5.6608   26.0227 C   0  0  0  0  0  0  0  0  0  0  0  0
   34.6813    4.8775   26.8216 N   0  0  0  0  0  0  0  0  0  0  0  0
 22 21  3  0  0  0
 21  9  1  0  0  0
  8  9  2  0  0  0
  8  7  1  0  0  0
  9  2  1  0  0  0
 15 14  1  0  0  0
 14 16  2  0  0  0
 14 13  1  0  0  0
 16 17  1  0  0  0
  7  6  1  0  0  0
 13 12  2  0  0  0
  2  6  2  0  0  0
  2  1  1  0  0  0
 17 18  2  0  0  0
 12 18  1  0  0  0
 12 11  1  0  0  0
 18  1  1  0  0  0
  6  5  1  0  0  0
  1  3  2  0  0  0
  5  4  2  0  0  0
  3  4  1  0  0  0
  4 19  1  0  0  0
 20 19  1  0  0  0
  7 10  1  0  0  0
M  END
> <minimizedAffinity>
-5.74058

$$$$
4FCQ_2N6_A_301


 22 24  0  0  0  0  0  0  0  0999 V2000
   32.6551    8.0766   26.2652 C   0  0  0  0  0  0  0  0  0  0  0  0
   31.9758    9.0591   25.5565 C   0  0  0  0  0  0  0  0  0  0  0  0
   33.6196    7.3981   25.5984 N   0  0  0  0  0  0  0  0  0  0  0  0
   33.9361    7.6517   24.2854 C   0  0  0  0  0  0  0  0  0  0  0  0
   33.2819    8.5853   23.6059 N   0  0  0  0  0  0  0  0  0  0  0  0
   32.3342    9.3041   24.2327 C   0  0  0  0  0  0  0  0  0  0  0  0
   31.5651   10.2685   23.7947 N   0  0  0  0  0  0  0  0  0  0  0  0
   30.7279   10.6592   24.7620 C   0  0  0  0  0  0  0  0  0  0  0  0
   30.9383    9.9376   25.8527 C   0  0  0  0  0  0  0  0  0  0  0  0
   31.5980   10.6497   22.8877 H   0  0  0  0  0  0  0  0  0  0  0  0
   30.1798    6.3652   27.0031 C   0  0  0  0  0  0  0  0  0  0  0  0
   31.3237    6.8453   27.9415 C   0  0  0  0  0  0  0  0  0  0  0  0
   31.2483    6.4002   29.2549 C   0  0  0  0  0  0  0  0  0  0  0  0
   32.2066    6.7636   30.1995 C   0  0  0  0  0  0  0  0  0  0  0  0
   32.0825    6.2921   31.6689 C   0  0  0  0  0  0  0  0  0  0  0  0
   33.2643    7.5702   29.8216 C   0  0  0  0  0  0  0  0  0  0  0  0
   33.3834    7.9862   28.5230 C   0  0  0  0  0  0  0  0  0  0  0  0
   32.4071    7.6663   27.5765 C   0  0  0  0  0  0  0  0  0  0  0  0
   35.2564    6.8056   23.4702 S   0  0  0  0  0  0  0  0  0  0  0  0
   35.5619    5.3640   24.5322 C   0  0  0  0  0  0  0  0  0  0  0  0
   30.2746   10.0078   27.1286 C   0  0  0  0  0  0  0  0  0  0  0  0
   29.8013   10.0419   28.1562 N   0  0  0  0  0  0  0  0  0  0  0  0
 22 21  3  0  0  0
 21  9  1  0  0  0
  8  9  2  0  0  0
  8  7  1  0  0  0
  9  2  1  0  0  0
 15 14  1  0  0  0
 14 16  2  0  0  0
 14 13  1  0  0  0
 16 17  1  0  0  0
  7  6  1  0  0  0
 13 12  2  0  0  0
  2  6  2  0  0  0
  2  1  1  0  0  0
 17 18  2  0  0  0
 12 18  1  0  0  0
 12 11  1  0  0  0
 18  1  1  0  0  0
  6  5  1  0  0  0
  1  3  2  0  0  0
  5  4  2  0  0  0
  3  4  1  0  0  0
  4 19  1  0  0  0
 20 19  1  0  0  0
  7 10  1  0  0  0
M  END
> <minimizedAffinity>
-5.60389

$$$$
4FCQ_2N6_A_301


 22 24  0  0  0  0  0  0  0  0999 V2000
   31.9567    7.8398   26.3043 C   0  0  0  0  0  0  0  0  0  0  0  0
   30.9696    8.7993   26.4883 C   0  0  0  0  0  0  0  0  0  0  0  0
   32.2855    7.0865   27.3811 N   0  0  0  0  0  0  0  0  0  0  0  0
   31.6845    7.2383   28.6076 C   0  0  0  0  0  0  0  0  0  0  0  0
   30.7466    8.1603   28.7854 N   0  0  0  0  0  0  0  0  0  0  0  0
   30.3671    8.9145   27.7392 C   0  0  0  0  0  0  0  0  0  0  0  0
   29.4754    9.8689   27.6538 N   0  0  0  0  0  0  0  0  0  0  0  0
   29.4695   10.3784   26.4171 C   0  0  0  0  0  0  0  0  0  0  0  0
   30.3762    9.7601   25.6754 C   0  0  0  0  0  0  0  0  0  0  0  0
   28.8949   10.1675   28.3908 H   0  0  0  0  0  0  0  0  0  0  0  0
   33.9583    9.9302   25.1978 C   0  0  0  0  0  0  0  0  0  0  0  0
   33.6516    8.5115   24.6384 C   0  0  0  0  0  0  0  0  0  0  0  0
   34.4130    8.1208   23.5447 C   0  0  0  0  0  0  0  0  0  0  0  0
   34.2329    6.8763   22.9436 C   0  0  0  0  0  0  0  0  0  0  0  0
   35.0620    6.4754   21.6990 C   0  0  0  0  0  0  0  0  0  0  0  0
   33.2893    6.0034   23.4534 C   0  0  0  0  0  0  0  0  0  0  0  0
   32.5568    6.3489   24.5568 C   0  0  0  0  0  0  0  0  0  0  0  0
   32.6955    7.6097   25.1421 C   0  0  0  0  0  0  0  0  0  0  0  0
   32.0780    6.1829   29.9696 S   0  0  0  0  0  0  0  0  0  0  0  0
   33.8249    6.5503   30.3054 C   0  0  0  0  0  0  0  0  0  0  0  0
   30.7185    9.9767   24.2937 C   0  0  0  0  0  0  0  0  0  0  0  0
   30.9621   10.1992   23.2109 N   0  0  0  0  0  0  0  0  0  0  0  0
 22 21  3  0  0  0
 21  9  1  0  0  0
  8  9  2  0  0  0
  8  7  1  0  0  0
  9  2  1  0  0  0
 15 14  1  0  0  0
 14 16  2  0  0  0
 14 13  1  0  0  0
 16 17  1  0  0  0
  7  6  1  0  0  0
 13 12  2  0  0  0
  2  6  2  0  0  0
  2  1  1  0  0  0
 17 18  2  0  0  0
 12 18  1  0  0  0
 12 11  1  0  0  0
 18  1  1  0  0  0
  6  5  1  0  0  0
  1  3  2  0  0  0
  5  4  2  0  0  0
  3  4  1  0  0  0
  4 19  1  0  0  0
 20 19  1  0  0  0
  7 10  1  0  0  0
M  END
> <minimizedAffinity>
-5.35769

$$$$
