4KN0_MTX_A_301
  RCSB PDB12061713233D
Coordinates from PDB:4KN0:A:301 Model:1 without hydrogens
 33 35  0  0  0  0            999 V2000
   14.2280  -35.9790   -3.2100   N 0  0  0  0  0  0  0  0  0  0  0  0
   13.2350  -35.3700   -3.9460   C 0  0  0  0  0  0  0  0  0  0  0  0
   13.4870  -35.0060   -5.1940   N 0  0  0  0  0  0  0  0  0  0  0  0
   11.9870  -35.1530   -3.3970   N 0  0  0  0  0  0  0  0  0  0  0  0
   11.7390  -35.5410   -2.0960   C 0  0  0  0  0  0  0  0  0  0  0  0
   10.5320  -35.3640   -1.5670   N 0  0  0  0  0  0  0  0  0  0  0  0
   12.7390  -36.1450   -1.3420   C 0  0  0  0  0  0  0  0  0  0  0  0
   12.4900  -36.5450   -0.0350   N 0  0  0  0  0  0  0  0  0  0  0  0
   13.5140  -37.1600    0.6980   C 0  0  0  0  0  0  0  0  0  0  0  0
   14.7770  -37.3440    0.1340   C 0  0  0  0  0  0  0  0  0  0  0  0
   15.0200  -36.9500   -1.1660   N 0  0  0  0  0  0  0  0  0  0  0  0
   13.9980  -36.3500   -1.9050   C 0  0  0  0  0  0  0  0  0  0  0  0
   13.2920  -37.5980    2.1290   C 0  0  0  0  0  0  0  0  0  0  0  0
   13.9480  -36.6460    3.0240   N 0  0  0  0  0  0  0  0  0  0  0  0
   13.3310  -35.3160    3.2070   C 0  0  0  0  0  0  0  0  0  0  0  0
   18.0120  -37.1450    3.9300   C 0  0  0  0  0  0  0  0  0  0  0  0
   17.1950  -38.2770    3.7460   C 0  0  0  0  0  0  0  0  0  0  0  0
   15.8360  -38.1160    3.4430   C 0  0  0  0  0  0  0  0  0  0  0  0
   15.3080  -36.8350    3.3350   C 0  0  0  0  0  0  0  0  0  0  0  0
   16.1250  -35.7220    3.5240   C 0  0  0  0  0  0  0  0  0  0  0  0
   17.4750  -35.8600    3.8230   C 0  0  0  0  0  0  0  0  0  0  0  0
   19.4720  -37.2910    4.2860   C 0  0  0  0  0  0  0  0  0  0  0  0
   19.8680  -38.4750    4.9110   O 0  0  0  0  0  0  0  0  0  0  0  0
   20.3360  -36.3080    4.0360   N 0  0  0  0  0  0  0  0  0  0  0  0
   21.7160  -36.3420    4.4840   C 0  0  0  0  0  0  0  0  0  0  0  0
   22.1880  -34.9680    4.8920   C 0  0  0  0  0  0  0  0  0  0  0  0
   23.3550  -34.5690    4.6250   O 0  0  0  0  0  0  0  0  0  0  0  0
   21.4210  -34.1940    5.4940   O 0  0  0  0  0  0  0  0  0  0  0  0
   22.5820  -36.7940    3.3130   C 0  0  0  0  0  0  0  0  0  0  0  0
   22.7220  -38.2970    3.3010   C 0  0  0  0  0  0  0  0  0  0  0  0
   23.7060  -38.6700    2.2230   C 0  0  0  0  0  0  0  0  0  0  0  0
   24.9330  -38.4900    2.4060   O 0  0  0  0  0  0  0  0  0  0  0  0
   23.3020  -39.1540    1.1480   O 0  0  0  0  0  0  0  0  0  0  0  0
  1  2  2  0  0  0  0
  1 12  1  0  0  0  0
  2  3  1  0  0  0  0
  2  4  1  0  0  0  0
  4  5  2  0  0  0  0
  5  6  1  0  0  0  0
  5  7  1  0  0  0  0
  7  8  1  0  0  0  0
  7 12  2  0  0  0  0
  8  9  2  0  0  0  0
  9 10  1  0  0  0  0
  9 13  1  0  0  0  0
 10 11  2  0  0  0  0
 11 12  1  0  0  0  0
 13 14  1  0  0  0  0
 14 15  1  0  0  0  0
 14 19  1  0  0  0  0
 16 17  2  0  0  0  0
 16 21  1  0  0  0  0
 16 22  1  0  0  0  0
 17 18  1  0  0  0  0
 18 19  2  0  0  0  0
 19 20  1  0  0  0  0
 20 21  2  0  0  0  0
 22 23  2  0  0  0  0
 22 24  1  0  0  0  0
 24 25  1  0  0  0  0
 25 26  1  0  0  0  0
 25 29  1  0  0  0  0
 26 27  2  0  0  0  0
 26 28  1  0  0  0  0
 29 30  1  0  0  0  0
 30 31  1  0  0  0  0
 31 32  2  0  0  0  0
 31 33  1  0  0  0  0
A    1
N1
A    2
C2
A    3
NA2
A    4
N3
A    5
C4
A    6
NA4
A    7
C4A
A    8
N5
A    9
C6
A   10
C7
A   11
N8
A   12
C8A
A   13
C9
A   14
N10
A   15
CM
A   16
C11
A   17
C12
A   18
C13
A   19
C14
A   20
C15
A   21
C16
A   22
C
A   23
O
A   24
N
A   25
CA
A   26
CT
A   27
O1
A   28
O2
A   29
CB
A   30
CG
A   31
CD
A   32
OE1
A   33
OE2
M  END
>  <InstanceId>
4KN0_MTX_A_301

>  <ChemCompId>
MTX

>  <PdbId>
4KN0

>  <ChainId>
A

>  <ResidueNumber>
301

>  <InsertionCode>


>  <Model>
1

>  <AltIds>


>  <MissingHeavyAtoms>
0

>  <ObservedFormula>
C20 N8 O5

>  <Name>
METHOTREXATE

>  <SystematicName>
(2S)-2-[[4-[(2,4-diaminopteridin-6-yl)methyl-methyl-amino]phenyl]carbonylamino]pentanedioic acid

>  <Synonyms>


>  <Type>
NON-POLYMER

>  <Formula>
C20 H22 N8 O5

>  <MolecularWeight>
454.439

>  <ModifiedDate>
2011-06-04

>  <Parent>


>  <OneLetterCode>


>  <SubcomponentList>


>  <AmbiguousFlag>
N

>  <InChI>
InChI=1S/C20H22N8O5/c1-28(9-11-8-23-17-15(24-11)16(21)26-20(22)27-17)12-4-2-10(3-5-12)18(31)25-13(19(32)33)6-7-14(29)30/h2-5,8,13H,6-7,9H2,1H3,(H,25,31)(H,29,30)(H,32,33)(H4,21,22,23,26,27)/t13-/m0/s1

>  <InChIKey>
FBOZXECLQNJBKD-ZDUSSCGKSA-N

>  <SMILES>
CN(Cc1cnc2c(n1)c(nc(n2)N)N)c3ccc(cc3)C(=O)N[C@@H](CCC(=O)O)C(=O)O

$$$$
