4KN0_MTX_A_301


 40 42  0  0  0  0  0  0  0  0999 V2000
   15.2434  -37.2878    2.8972 C   0  0  0  0  0  0  0  0  0  0  0  0
   14.8469  -35.9470    2.7306 C   0  0  0  0  0  0  0  0  0  0  0  0
   13.9117  -35.6127    1.7415 C   0  0  0  0  0  0  0  0  0  0  0  0
   13.3908  -36.6127    0.9290 C   0  0  0  0  0  0  0  0  0  0  0  0
   13.7943  -37.9356    1.0997 C   0  0  0  0  0  0  0  0  0  0  0  0
   14.7186  -38.2881    2.0756 C   0  0  0  0  0  0  0  0  0  0  0  0
   16.2709  -37.6702    3.9353 C   0  0  0  0  0  0  0  0  0  0  0  0
   15.8845  -37.6151    5.2758 O   0  0  0  0  0  0  0  0  0  0  0  0
   17.5064  -38.0165    3.5761 N   0  0  0  0  0  0  0  0  0  0  0  0
   17.7087  -38.1143    2.6176 H   0  0  0  0  0  0  0  0  0  0  0  0
   18.5664  -38.2555    4.5381 C   0  0  0  0  0  0  0  0  0  0  0  0
   19.8348  -37.5438    4.1358 C   0  0  0  0  0  0  0  0  0  0  0  0
   20.7598  -38.1466    3.5247 O   0  0  0  0  0  0  0  0  0  0  0  0
   19.9846  -36.3349    4.3924 O   0  0  0  0  0  0  0  0  0  0  0  0
   19.3120  -35.8653    4.8453 H   0  0  0  0  0  0  0  0  0  0  0  0
   18.8652  -39.7508    4.5502 C   0  0  0  0  0  0  0  0  0  0  0  0
   17.5907  -40.5513    4.4341 C   0  0  0  0  0  0  0  0  0  0  0  0
   17.1500  -40.9394    5.8214 C   0  0  0  0  0  0  0  0  0  0  0  0
   16.9344  -42.1435    6.0957 O   0  0  0  0  0  0  0  0  0  0  0  0
   16.9959  -40.0651    6.6960 O   0  0  0  0  0  0  0  0  0  0  0  0
   17.1567  -39.1649    6.4919 H   0  0  0  0  0  0  0  0  0  0  0  0
   12.4444  -36.3045   -0.0667 N   0  0  0  0  0  0  0  0  0  0  0  0
   12.9001  -35.8999   -1.4127 C   0  0  0  0  0  0  0  0  0  0  0  0
   11.0783  -36.8037    0.0825 C   0  0  0  0  0  0  0  0  0  0  0  0
    9.3415  -35.6151    5.3335 N   0  0  0  0  0  0  0  0  0  0  0  0
    8.6929  -36.5645    6.0929 C   0  0  0  0  0  0  0  0  0  0  0  0
    8.2973  -36.2521    7.3175 N   0  0  0  0  0  0  0  0  0  0  0  0
    8.4443  -37.8226    5.5817 N   0  0  0  0  0  0  0  0  0  0  0  0
    8.8600  -38.1318    4.3026 C   0  0  0  0  0  0  0  0  0  0  0  0
    8.5996  -39.3304    3.7893 N   0  0  0  0  0  0  0  0  0  0  0  0
    9.5262  -37.1839    3.5338 C   0  0  0  0  0  0  0  0  0  0  0  0
    9.9381  -37.4889    2.2424 N   0  0  0  0  0  0  0  0  0  0  0  0
   10.5989  -36.5106    1.4872 C   0  0  0  0  0  0  0  0  0  0  0  0
   10.8659  -35.2545    2.0330 C   0  0  0  0  0  0  0  0  0  0  0  0
   10.4513  -34.9528    3.3142 N   0  0  0  0  0  0  0  0  0  0  0  0
    9.7795  -35.9199    4.0651 C   0  0  0  0  0  0  0  0  0  0  0  0
    8.4764  -35.3538    7.6785 H   0  0  0  0  0  0  0  0  0  0  0  0
    7.8240  -36.9180    7.8668 H   0  0  0  0  0  0  0  0  0  0  0  0
    8.1282  -40.0053    4.3293 H   0  0  0  0  0  0  0  0  0  0  0  0
    8.8781  -39.5430    2.8693 H   0  0  0  0  0  0  0  0  0  0  0  0
 25 26  2  0  0  0
 25 36  1  0  0  0
 26 27  1  0  0  0
 26 28  1  0  0  0
 28 29  2  0  0  0
 29 30  1  0  0  0
 29 31  1  0  0  0
 31 32  1  0  0  0
 31 36  2  0  0  0
 32 33  2  0  0  0
 33 34  1  0  0  0
 33 24  1  0  0  0
 34 35  2  0  0  0
 35 36  1  0  0  0
 24 22  1  0  0  0
 22 23  1  0  0  0
 22  4  1  0  0  0
  1  2  2  0  0  0
  1  6  1  0  0  0
  1  7  1  0  0  0
  2  3  1  0  0  0
  3  4  2  0  0  0
  4  5  1  0  0  0
  5  6  2  0  0  0
  7  8  2  0  0  0
  7  9  1  0  0  0
  9 11  1  0  0  0
 11 12  1  0  0  0
 11 16  1  0  0  0
 12 13  2  0  0  0
 12 14  1  0  0  0
 16 17  1  0  0  0
 17 18  1  0  0  0
 18 19  2  0  0  0
 18 20  1  0  0  0
 27 37  1  0  0  0
 27 38  1  0  0  0
 30 39  1  0  0  0
 30 40  1  0  0  0
  9 10  1  0  0  0
 14 15  1  0  0  0
 20 21  1  0  0  0
M  END
> <minimizedAffinity>
-11.18124

$$$$
4KN0_MTX_A_301


 40 42  0  0  0  0  0  0  0  0999 V2000
   18.0201  -37.1854    3.6647 C   0  0  0  0  0  0  0  0  0  0  0  0
   17.4760  -35.8906    3.5642 C   0  0  0  0  0  0  0  0  0  0  0  0
   16.1141  -35.7253    3.2772 C   0  0  0  0  0  0  0  0  0  0  0  0
   15.3157  -36.8469    3.0871 C   0  0  0  0  0  0  0  0  0  0  0  0
   15.8661  -38.1235    3.1842 C   0  0  0  0  0  0  0  0  0  0  0  0
   17.2133  -38.3089    3.4698 C   0  0  0  0  0  0  0  0  0  0  0  0
   19.4897  -37.3904    3.9437 C   0  0  0  0  0  0  0  0  0  0  0  0
   19.9193  -38.6910    4.2144 O   0  0  0  0  0  0  0  0  0  0  0  0
   20.3311  -36.3574    3.9583 N   0  0  0  0  0  0  0  0  0  0  0  0
   19.9960  -35.4725    3.6868 H   0  0  0  0  0  0  0  0  0  0  0  0
   21.7209  -36.4816    4.3577 C   0  0  0  0  0  0  0  0  0  0  0  0
   22.2629  -35.1634    4.8532 C   0  0  0  0  0  0  0  0  0  0  0  0
   23.4946  -35.0022    5.0752 O   0  0  0  0  0  0  0  0  0  0  0  0
   21.4966  -34.2005    5.0410 O   0  0  0  0  0  0  0  0  0  0  0  0
   20.5778  -34.2952    4.8833 H   0  0  0  0  0  0  0  0  0  0  0  0
   22.5323  -36.8767    3.1285 C   0  0  0  0  0  0  0  0  0  0  0  0
   23.2899  -38.1584    3.3778 C   0  0  0  0  0  0  0  0  0  0  0  0
   23.9593  -38.5679    2.0918 C   0  0  0  0  0  0  0  0  0  0  0  0
   23.3993  -39.3899    1.3289 O   0  0  0  0  0  0  0  0  0  0  0  0
   25.0706  -38.0934    1.7868 O   0  0  0  0  0  0  0  0  0  0  0  0
   25.4899  -37.4789    2.3564 H   0  0  0  0  0  0  0  0  0  0  0  0
   13.9433  -36.7084    2.8054 N   0  0  0  0  0  0  0  0  0  0  0  0
   13.2858  -35.3974    2.9846 C   0  0  0  0  0  0  0  0  0  0  0  0
   13.2998  -37.6948    1.9392 C   0  0  0  0  0  0  0  0  0  0  0  0
   13.3229  -35.7228   -3.3630 N   0  0  0  0  0  0  0  0  0  0  0  0
   12.1974  -35.1390   -3.9026 C   0  0  0  0  0  0  0  0  0  0  0  0
   12.2363  -34.6903   -5.1478 N   0  0  0  0  0  0  0  0  0  0  0  0
   11.0371  -35.0341   -3.1617 N   0  0  0  0  0  0  0  0  0  0  0  0
   11.0115  -35.5095   -1.8663 C   0  0  0  0  0  0  0  0  0  0  0  0
    9.8909  -35.4407   -1.1539 N   0  0  0  0  0  0  0  0  0  0  0  0
   12.1463  -36.0888   -1.3097 C   0  0  0  0  0  0  0  0  0  0  0  0
   12.1213  -36.5765   -0.0090 N   0  0  0  0  0  0  0  0  0  0  0  0
   13.2772  -37.1640    0.5226 C   0  0  0  0  0  0  0  0  0  0  0  0
   14.4482  -37.2342   -0.2331 C   0  0  0  0  0  0  0  0  0  0  0  0
   14.4687  -36.7533   -1.5264 N   0  0  0  0  0  0  0  0  0  0  0  0
   13.3146  -36.1802   -2.0652 C   0  0  0  0  0  0  0  0  0  0  0  0
   13.0656  -34.7669   -5.6729 H   0  0  0  0  0  0  0  0  0  0  0  0
   11.4361  -34.2801   -5.5485 H   0  0  0  0  0  0  0  0  0  0  0  0
    9.0844  -35.0315   -1.5432 H   0  0  0  0  0  0  0  0  0  0  0  0
    9.8676  -35.7989   -0.2372 H   0  0  0  0  0  0  0  0  0  0  0  0
 25 26  2  0  0  0
 25 36  1  0  0  0
 26 27  1  0  0  0
 26 28  1  0  0  0
 28 29  2  0  0  0
 29 30  1  0  0  0
 29 31  1  0  0  0
 31 32  1  0  0  0
 31 36  2  0  0  0
 32 33  2  0  0  0
 33 34  1  0  0  0
 33 24  1  0  0  0
 34 35  2  0  0  0
 35 36  1  0  0  0
 24 22  1  0  0  0
 22 23  1  0  0  0
 22  4  1  0  0  0
  1  2  2  0  0  0
  1  6  1  0  0  0
  1  7  1  0  0  0
  2  3  1  0  0  0
  3  4  2  0  0  0
  4  5  1  0  0  0
  5  6  2  0  0  0
  7  8  2  0  0  0
  7  9  1  0  0  0
  9 11  1  0  0  0
 11 12  1  0  0  0
 11 16  1  0  0  0
 12 13  2  0  0  0
 12 14  1  0  0  0
 16 17  1  0  0  0
 17 18  1  0  0  0
 18 19  2  0  0  0
 18 20  1  0  0  0
 27 37  1  0  0  0
 27 38  1  0  0  0
 30 39  1  0  0  0
 30 40  1  0  0  0
  9 10  1  0  0  0
 14 15  1  0  0  0
 20 21  1  0  0  0
M  END
> <minimizedAffinity>
-10.99190

$$$$
4KN0_MTX_A_301


 40 42  0  0  0  0  0  0  0  0999 V2000
   14.0149  -36.7100    2.6170 C   0  0  0  0  0  0  0  0  0  0  0  0
   14.8969  -37.7992    2.4808 C   0  0  0  0  0  0  0  0  0  0  0  0
   16.2626  -37.6298    2.7463 C   0  0  0  0  0  0  0  0  0  0  0  0
   16.7324  -36.3810    3.1352 C   0  0  0  0  0  0  0  0  0  0  0  0
   15.8511  -35.3090    3.2620 C   0  0  0  0  0  0  0  0  0  0  0  0
   14.4934  -35.4565    3.0055 C   0  0  0  0  0  0  0  0  0  0  0  0
   12.5444  -36.8586    2.3087 C   0  0  0  0  0  0  0  0  0  0  0  0
   12.1938  -37.6082    1.1842 O   0  0  0  0  0  0  0  0  0  0  0  0
   11.6252  -36.2671    3.0706 N   0  0  0  0  0  0  0  0  0  0  0  0
   11.9165  -35.8138    3.8946 H   0  0  0  0  0  0  0  0  0  0  0  0
   10.2127  -36.2628    2.7372 C   0  0  0  0  0  0  0  0  0  0  0  0
    9.8574  -35.0612    1.8963 C   0  0  0  0  0  0  0  0  0  0  0  0
   10.0074  -35.0698    0.6434 O   0  0  0  0  0  0  0  0  0  0  0  0
    9.3943  -34.0364    2.4301 O   0  0  0  0  0  0  0  0  0  0  0  0
    9.2735  -34.0055    3.3587 H   0  0  0  0  0  0  0  0  0  0  0  0
    9.4208  -36.1619    4.0365 C   0  0  0  0  0  0  0  0  0  0  0  0
    9.5127  -37.4492    4.8195 C   0  0  0  0  0  0  0  0  0  0  0  0
    8.5655  -37.3590    5.9875 C   0  0  0  0  0  0  0  0  0  0  0  0
    7.3387  -37.5501    5.8147 O   0  0  0  0  0  0  0  0  0  0  0  0
    8.9989  -37.0911    7.1248 O   0  0  0  0  0  0  0  0  0  0  0  0
    9.9158  -36.9481    7.2550 H   0  0  0  0  0  0  0  0  0  0  0  0
   18.0983  -36.1862    3.4152 N   0  0  0  0  0  0  0  0  0  0  0  0
   18.5030  -35.2341    4.4701 C   0  0  0  0  0  0  0  0  0  0  0  0
   19.0544  -37.2128    3.0032 C   0  0  0  0  0  0  0  0  0  0  0  0
   21.3220  -39.6418    7.5814 N   0  0  0  0  0  0  0  0  0  0  0  0
   20.5383  -40.3562    8.4612 C   0  0  0  0  0  0  0  0  0  0  0  0
   21.1009  -40.9097    9.5245 N   0  0  0  0  0  0  0  0  0  0  0  0
   19.1803  -40.4836    8.2476 N   0  0  0  0  0  0  0  0  0  0  0  0
   18.6083  -39.8981    7.1364 C   0  0  0  0  0  0  0  0  0  0  0  0
   17.2969  -39.9892    6.9366 N   0  0  0  0  0  0  0  0  0  0  0  0
   19.3937  -39.1859    6.2369 C   0  0  0  0  0  0  0  0  0  0  0  0
   18.8196  -38.5876    5.1221 N   0  0  0  0  0  0  0  0  0  0  0  0
   19.6342  -37.8678    4.2376 C   0  0  0  0  0  0  0  0  0  0  0  0
   21.0092  -37.7753    4.4564 C   0  0  0  0  0  0  0  0  0  0  0  0
   21.5759  -38.3666    5.5671 N   0  0  0  0  0  0  0  0  0  0  0  0
   20.7655  -39.0725    6.4590 C   0  0  0  0  0  0  0  0  0  0  0  0
   22.0696  -40.8167    9.6734 H   0  0  0  0  0  0  0  0  0  0  0  0
   20.5505  -41.4144   10.1661 H   0  0  0  0  0  0  0  0  0  0  0  0
   16.7361  -40.4923    7.5704 H   0  0  0  0  0  0  0  0  0  0  0  0
   16.8867  -39.5536    6.1548 H   0  0  0  0  0  0  0  0  0  0  0  0
 25 26  2  0  0  0
 25 36  1  0  0  0
 26 27  1  0  0  0
 26 28  1  0  0  0
 28 29  2  0  0  0
 29 30  1  0  0  0
 29 31  1  0  0  0
 31 32  1  0  0  0
 31 36  2  0  0  0
 32 33  2  0  0  0
 33 34  1  0  0  0
 33 24  1  0  0  0
 34 35  2  0  0  0
 35 36  1  0  0  0
 24 22  1  0  0  0
 22 23  1  0  0  0
 22  4  1  0  0  0
  1  2  2  0  0  0
  1  6  1  0  0  0
  1  7  1  0  0  0
  2  3  1  0  0  0
  3  4  2  0  0  0
  4  5  1  0  0  0
  5  6  2  0  0  0
  7  8  2  0  0  0
  7  9  1  0  0  0
  9 11  1  0  0  0
 11 12  1  0  0  0
 11 16  1  0  0  0
 12 13  2  0  0  0
 12 14  1  0  0  0
 16 17  1  0  0  0
 17 18  1  0  0  0
 18 19  2  0  0  0
 18 20  1  0  0  0
 27 37  1  0  0  0
 27 38  1  0  0  0
 30 39  1  0  0  0
 30 40  1  0  0  0
  9 10  1  0  0  0
 14 15  1  0  0  0
 20 21  1  0  0  0
M  END
> <minimizedAffinity>
-10.82484

$$$$
4KN0_MTX_A_301


 40 42  0  0  0  0  0  0  0  0999 V2000
   15.1452  -36.9881    3.2870 C   0  0  0  0  0  0  0  0  0  0  0  0
   14.9061  -37.9795    2.3160 C   0  0  0  0  0  0  0  0  0  0  0  0
   13.7105  -37.9673    1.5847 C   0  0  0  0  0  0  0  0  0  0  0  0
   12.7683  -36.9765    1.8336 C   0  0  0  0  0  0  0  0  0  0  0  0
   13.0135  -36.0032    2.8004 C   0  0  0  0  0  0  0  0  0  0  0  0
   14.1932  -35.9964    3.5348 C   0  0  0  0  0  0  0  0  0  0  0  0
   16.4117  -36.9958    4.1088 C   0  0  0  0  0  0  0  0  0  0  0  0
   16.8664  -35.7722    4.6042 O   0  0  0  0  0  0  0  0  0  0  0  0
   17.0791  -38.1292    4.3216 N   0  0  0  0  0  0  0  0  0  0  0  0
   16.6793  -38.9759    4.0175 H   0  0  0  0  0  0  0  0  0  0  0  0
   18.3704  -38.1684    4.9828 C   0  0  0  0  0  0  0  0  0  0  0  0
   19.4107  -37.4199    4.1863 C   0  0  0  0  0  0  0  0  0  0  0  0
   20.0308  -37.9708    3.2353 O   0  0  0  0  0  0  0  0  0  0  0  0
   19.6673  -36.2306    4.4500 O   0  0  0  0  0  0  0  0  0  0  0  0
   19.2202  -35.7993    5.1515 H   0  0  0  0  0  0  0  0  0  0  0  0
   18.8163  -39.6245    5.0631 C   0  0  0  0  0  0  0  0  0  0  0  0
   17.7880  -40.5335    4.4343 C   0  0  0  0  0  0  0  0  0  0  0  0
   17.4646  -41.6293    5.4161 C   0  0  0  0  0  0  0  0  0  0  0  0
   17.7446  -42.8196    5.1402 O   0  0  0  0  0  0  0  0  0  0  0  0
   16.9157  -41.3549    6.5008 O   0  0  0  0  0  0  0  0  0  0  0  0
   16.7060  -40.4655    6.7080 H   0  0  0  0  0  0  0  0  0  0  0  0
   11.5628  -36.9373    1.1075 N   0  0  0  0  0  0  0  0  0  0  0  0
   10.4720  -37.8753    1.4444 C   0  0  0  0  0  0  0  0  0  0  0  0
   11.2295  -35.7245    0.3620 C   0  0  0  0  0  0  0  0  0  0  0  0
   14.2982  -35.5292   -4.3864 N   0  0  0  0  0  0  0  0  0  0  0  0
   15.6685  -35.6677   -4.3459 C   0  0  0  0  0  0  0  0  0  0  0  0
   16.3567  -35.6144   -5.4760 N   0  0  0  0  0  0  0  0  0  0  0  0
   16.3209  -35.8460   -3.1424 N   0  0  0  0  0  0  0  0  0  0  0  0
   15.5898  -35.8963   -1.9729 C   0  0  0  0  0  0  0  0  0  0  0  0
   16.2103  -36.0377   -0.8054 N   0  0  0  0  0  0  0  0  0  0  0  0
   14.2055  -35.7698   -2.0057 C   0  0  0  0  0  0  0  0  0  0  0  0
   13.4674  -35.8109   -0.8294 N   0  0  0  0  0  0  0  0  0  0  0  0
   12.0743  -35.6710   -0.8919 C   0  0  0  0  0  0  0  0  0  0  0  0
   11.4317  -35.5205   -2.1214 C   0  0  0  0  0  0  0  0  0  0  0  0
   12.1679  -35.4753   -3.2877 N   0  0  0  0  0  0  0  0  0  0  0  0
   13.5578  -35.5996   -3.2286 C   0  0  0  0  0  0  0  0  0  0  0  0
   15.8879  -35.4871   -6.3323 H   0  0  0  0  0  0  0  0  0  0  0  0
   17.3372  -35.7020   -5.4599 H   0  0  0  0  0  0  0  0  0  0  0  0
   17.1902  -36.1277   -0.7764 H   0  0  0  0  0  0  0  0  0  0  0  0
   15.6897  -36.0525    0.0301 H   0  0  0  0  0  0  0  0  0  0  0  0
 25 26  2  0  0  0
 25 36  1  0  0  0
 26 27  1  0  0  0
 26 28  1  0  0  0
 28 29  2  0  0  0
 29 30  1  0  0  0
 29 31  1  0  0  0
 31 32  1  0  0  0
 31 36  2  0  0  0
 32 33  2  0  0  0
 33 34  1  0  0  0
 33 24  1  0  0  0
 34 35  2  0  0  0
 35 36  1  0  0  0
 24 22  1  0  0  0
 22 23  1  0  0  0
 22  4  1  0  0  0
  1  2  2  0  0  0
  1  6  1  0  0  0
  1  7  1  0  0  0
  2  3  1  0  0  0
  3  4  2  0  0  0
  4  5  1  0  0  0
  5  6  2  0  0  0
  7  8  2  0  0  0
  7  9  1  0  0  0
  9 11  1  0  0  0
 11 12  1  0  0  0
 11 16  1  0  0  0
 12 13  2  0  0  0
 12 14  1  0  0  0
 16 17  1  0  0  0
 17 18  1  0  0  0
 18 19  2  0  0  0
 18 20  1  0  0  0
 27 37  1  0  0  0
 27 38  1  0  0  0
 30 39  1  0  0  0
 30 40  1  0  0  0
  9 10  1  0  0  0
 14 15  1  0  0  0
 20 21  1  0  0  0
M  END
> <minimizedAffinity>
-10.76327

$$$$
4KN0_MTX_A_301


 40 42  0  0  0  0  0  0  0  0999 V2000
   15.0537  -37.2577    1.4347 C   0  0  0  0  0  0  0  0  0  0  0  0
   15.3968  -38.1167    2.4965 C   0  0  0  0  0  0  0  0  0  0  0  0
   16.4989  -37.8173    3.3092 C   0  0  0  0  0  0  0  0  0  0  0  0
   17.2471  -36.6750    3.0508 C   0  0  0  0  0  0  0  0  0  0  0  0
   16.9011  -35.8348    1.9942 C   0  0  0  0  0  0  0  0  0  0  0  0
   15.8112  -36.1125    1.1781 C   0  0  0  0  0  0  0  0  0  0  0  0
   13.8894  -37.5728    0.5266 C   0  0  0  0  0  0  0  0  0  0  0  0
   13.8069  -38.8670    0.0093 O   0  0  0  0  0  0  0  0  0  0  0  0
   12.9966  -36.6348    0.2129 N   0  0  0  0  0  0  0  0  0  0  0  0
   13.0537  -35.7606    0.6620 H   0  0  0  0  0  0  0  0  0  0  0  0
   11.9434  -36.8475   -0.7627 C   0  0  0  0  0  0  0  0  0  0  0  0
   12.0177  -35.8275   -1.8723 C   0  0  0  0  0  0  0  0  0  0  0  0
   13.0717  -35.6682   -2.5477 O   0  0  0  0  0  0  0  0  0  0  0  0
   11.0257  -35.1284   -2.1497 O   0  0  0  0  0  0  0  0  0  0  0  0
   10.2314  -35.2280   -1.6627 H   0  0  0  0  0  0  0  0  0  0  0  0
   10.6031  -36.6614   -0.0595 C   0  0  0  0  0  0  0  0  0  0  0  0
   10.4030  -37.7201    0.9977 C   0  0  0  0  0  0  0  0  0  0  0  0
   10.3631  -37.0419    2.3422 C   0  0  0  0  0  0  0  0  0  0  0  0
    9.2666  -36.6724    2.8246 O   0  0  0  0  0  0  0  0  0  0  0  0
   11.4188  -36.8441    2.9743 O   0  0  0  0  0  0  0  0  0  0  0  0
   12.2388  -37.1198    2.6146 H   0  0  0  0  0  0  0  0  0  0  0  0
   18.3539  -36.3476    3.8568 N   0  0  0  0  0  0  0  0  0  0  0  0
   18.3103  -35.1415    4.7091 C   0  0  0  0  0  0  0  0  0  0  0  0
   19.3189  -37.3955    4.1862 C   0  0  0  0  0  0  0  0  0  0  0  0
   24.4283  -35.8739    2.2937 N   0  0  0  0  0  0  0  0  0  0  0  0
   25.2892  -35.1526    3.0919 C   0  0  0  0  0  0  0  0  0  0  0  0
   26.4769  -34.8105    2.6166 N   0  0  0  0  0  0  0  0  0  0  0  0
   24.9162  -34.7773    4.3670 N   0  0  0  0  0  0  0  0  0  0  0  0
   23.6738  -35.1388    4.8468 C   0  0  0  0  0  0  0  0  0  0  0  0
   23.2925  -34.7573    6.0622 N   0  0  0  0  0  0  0  0  0  0  0  0
   22.8035  -35.8773    4.0527 C   0  0  0  0  0  0  0  0  0  0  0  0
   21.5484  -36.2351    4.5293 N   0  0  0  0  0  0  0  0  0  0  0  0
   20.6885  -36.9714    3.7031 C   0  0  0  0  0  0  0  0  0  0  0  0
   21.0960  -37.3654    2.4280 C   0  0  0  0  0  0  0  0  0  0  0  0
   22.3413  -37.0044    1.9556 N   0  0  0  0  0  0  0  0  0  0  0  0
   23.1958  -36.2582    2.7701 C   0  0  0  0  0  0  0  0  0  0  0  0
   26.7393  -35.0800    1.7068 H   0  0  0  0  0  0  0  0  0  0  0  0
   27.0975  -34.2866    3.1731 H   0  0  0  0  0  0  0  0  0  0  0  0
   23.9047  -34.2343    6.6286 H   0  0  0  0  0  0  0  0  0  0  0  0
   22.3980  -34.9978    6.3956 H   0  0  0  0  0  0  0  0  0  0  0  0
 25 26  2  0  0  0
 25 36  1  0  0  0
 26 27  1  0  0  0
 26 28  1  0  0  0
 28 29  2  0  0  0
 29 30  1  0  0  0
 29 31  1  0  0  0
 31 32  1  0  0  0
 31 36  2  0  0  0
 32 33  2  0  0  0
 33 34  1  0  0  0
 33 24  1  0  0  0
 34 35  2  0  0  0
 35 36  1  0  0  0
 24 22  1  0  0  0
 22 23  1  0  0  0
 22  4  1  0  0  0
  1  2  2  0  0  0
  1  6  1  0  0  0
  1  7  1  0  0  0
  2  3  1  0  0  0
  3  4  2  0  0  0
  4  5  1  0  0  0
  5  6  2  0  0  0
  7  8  2  0  0  0
  7  9  1  0  0  0
  9 11  1  0  0  0
 11 12  1  0  0  0
 11 16  1  0  0  0
 12 13  2  0  0  0
 12 14  1  0  0  0
 16 17  1  0  0  0
 17 18  1  0  0  0
 18 19  2  0  0  0
 18 20  1  0  0  0
 27 37  1  0  0  0
 27 38  1  0  0  0
 30 39  1  0  0  0
 30 40  1  0  0  0
  9 10  1  0  0  0
 14 15  1  0  0  0
 20 21  1  0  0  0
M  END
> <minimizedAffinity>
-10.69455

$$$$
4KN0_MTX_A_301


 40 42  0  0  0  0  0  0  0  0999 V2000
   14.0315  -36.9532    2.9155 C   0  0  0  0  0  0  0  0  0  0  0  0
   14.7820  -38.0522    2.4553 C   0  0  0  0  0  0  0  0  0  0  0  0
   16.1449  -38.1477    2.7681 C   0  0  0  0  0  0  0  0  0  0  0  0
   16.7429  -37.1478    3.5258 C   0  0  0  0  0  0  0  0  0  0  0  0
   15.9914  -36.0622    3.9717 C   0  0  0  0  0  0  0  0  0  0  0  0
   14.6387  -35.9498    3.6742 C   0  0  0  0  0  0  0  0  0  0  0  0
   12.5691  -36.8116    2.5678 C   0  0  0  0  0  0  0  0  0  0  0  0
   12.2104  -36.9395    1.2246 O   0  0  0  0  0  0  0  0  0  0  0  0
   11.6670  -36.5445    3.5113 N   0  0  0  0  0  0  0  0  0  0  0  0
   11.9565  -36.5391    4.4523 H   0  0  0  0  0  0  0  0  0  0  0  0
   10.2758  -36.2610    3.2106 C   0  0  0  0  0  0  0  0  0  0  0  0
   10.1300  -34.9233    2.5277 C   0  0  0  0  0  0  0  0  0  0  0  0
   10.2671  -33.8428    3.1651 O   0  0  0  0  0  0  0  0  0  0  0  0
    9.8816  -34.8644    1.3093 O   0  0  0  0  0  0  0  0  0  0  0  0
    9.7755  -35.6527    0.8141 H   0  0  0  0  0  0  0  0  0  0  0  0
    9.5129  -36.1871    4.5289 C   0  0  0  0  0  0  0  0  0  0  0  0
    9.0490  -37.5588    4.9554 C   0  0  0  0  0  0  0  0  0  0  0  0
    9.5419  -37.8084    6.3569 C   0  0  0  0  0  0  0  0  0  0  0  0
   10.4361  -38.6624    6.5631 O   0  0  0  0  0  0  0  0  0  0  0  0
    9.0597  -37.1698    7.3122 O   0  0  0  0  0  0  0  0  0  0  0  0
    8.3913  -36.5313    7.1591 H   0  0  0  0  0  0  0  0  0  0  0  0
   18.1083  -37.2239    3.8602 N   0  0  0  0  0  0  0  0  0  0  0  0
   18.8284  -36.0066    4.2876 C   0  0  0  0  0  0  0  0  0  0  0  0
   18.6751  -38.5249    4.2121 C   0  0  0  0  0  0  0  0  0  0  0  0
   24.3136  -38.1344    4.4500 N   0  0  0  0  0  0  0  0  0  0  0  0
   25.0152  -37.4625    3.4728 C   0  0  0  0  0  0  0  0  0  0  0  0
   26.3349  -37.3924    3.5577 N   0  0  0  0  0  0  0  0  0  0  0  0
   24.3551  -36.8802    2.4092 N   0  0  0  0  0  0  0  0  0  0  0  0
   22.9797  -36.9647    2.3333 C   0  0  0  0  0  0  0  0  0  0  0  0
   22.3361  -36.4335    1.2981 N   0  0  0  0  0  0  0  0  0  0  0  0
   22.2627  -37.6302    3.3214 C   0  0  0  0  0  0  0  0  0  0  0  0
   20.8788  -37.7249    3.2433 N   0  0  0  0  0  0  0  0  0  0  0  0
   20.1832  -38.4099    4.2488 C   0  0  0  0  0  0  0  0  0  0  0  0
   20.8670  -38.9666    5.3303 C   0  0  0  0  0  0  0  0  0  0  0  0
   22.2420  -38.8750    5.4028 N   0  0  0  0  0  0  0  0  0  0  0  0
   22.9405  -38.2059    4.3953 C   0  0  0  0  0  0  0  0  0  0  0  0
   26.8020  -37.8089    4.3177 H   0  0  0  0  0  0  0  0  0  0  0  0
   26.8488  -36.9238    2.8609 H   0  0  0  0  0  0  0  0  0  0  0  0
   22.8389  -35.9612    0.5956 H   0  0  0  0  0  0  0  0  0  0  0  0
   21.3569  -36.5123    1.2341 H   0  0  0  0  0  0  0  0  0  0  0  0
 25 26  2  0  0  0
 25 36  1  0  0  0
 26 27  1  0  0  0
 26 28  1  0  0  0
 28 29  2  0  0  0
 29 30  1  0  0  0
 29 31  1  0  0  0
 31 32  1  0  0  0
 31 36  2  0  0  0
 32 33  2  0  0  0
 33 34  1  0  0  0
 33 24  1  0  0  0
 34 35  2  0  0  0
 35 36  1  0  0  0
 24 22  1  0  0  0
 22 23  1  0  0  0
 22  4  1  0  0  0
  1  2  2  0  0  0
  1  6  1  0  0  0
  1  7  1  0  0  0
  2  3  1  0  0  0
  3  4  2  0  0  0
  4  5  1  0  0  0
  5  6  2  0  0  0
  7  8  2  0  0  0
  7  9  1  0  0  0
  9 11  1  0  0  0
 11 12  1  0  0  0
 11 16  1  0  0  0
 12 13  2  0  0  0
 12 14  1  0  0  0
 16 17  1  0  0  0
 17 18  1  0  0  0
 18 19  2  0  0  0
 18 20  1  0  0  0
 27 37  1  0  0  0
 27 38  1  0  0  0
 30 39  1  0  0  0
 30 40  1  0  0  0
  9 10  1  0  0  0
 14 15  1  0  0  0
 20 21  1  0  0  0
M  END
> <minimizedAffinity>
-10.68982

$$$$
4KN0_MTX_A_301


 40 42  0  0  0  0  0  0  0  0999 V2000
   14.9072  -37.1867    3.1588 C   0  0  0  0  0  0  0  0  0  0  0  0
   15.6431  -38.2038    2.5209 C   0  0  0  0  0  0  0  0  0  0  0  0
   16.5999  -38.9311    3.2421 C   0  0  0  0  0  0  0  0  0  0  0  0
   16.8165  -38.6327    4.5821 C   0  0  0  0  0  0  0  0  0  0  0  0
   16.0858  -37.6206    5.2016 C   0  0  0  0  0  0  0  0  0  0  0  0
   15.1314  -36.8893    4.5050 C   0  0  0  0  0  0  0  0  0  0  0  0
   13.8919  -36.3689    2.3971 C   0  0  0  0  0  0  0  0  0  0  0  0
   13.5061  -35.1451    2.9473 O   0  0  0  0  0  0  0  0  0  0  0  0
   13.3677  -36.8216    1.2589 N   0  0  0  0  0  0  0  0  0  0  0  0
   13.7268  -37.6528    0.8723 H   0  0  0  0  0  0  0  0  0  0  0  0
   12.2898  -36.1413    0.5650 C   0  0  0  0  0  0  0  0  0  0  0  0
   10.9592  -36.4277    1.2165 C   0  0  0  0  0  0  0  0  0  0  0  0
   10.2035  -35.4940    1.6032 O   0  0  0  0  0  0  0  0  0  0  0  0
   10.5768  -37.6020    1.3732 O   0  0  0  0  0  0  0  0  0  0  0  0
   11.1200  -38.3127    1.0943 H   0  0  0  0  0  0  0  0  0  0  0  0
   12.2279  -36.6836   -0.8589 C   0  0  0  0  0  0  0  0  0  0  0  0
   12.9979  -35.7930   -1.8037 C   0  0  0  0  0  0  0  0  0  0  0  0
   14.3280  -36.4422   -2.0845 C   0  0  0  0  0  0  0  0  0  0  0  0
   15.0648  -35.9919   -2.9933 O   0  0  0  0  0  0  0  0  0  0  0  0
   14.6957  -37.4284   -1.4172 O   0  0  0  0  0  0  0  0  0  0  0  0
   14.1456  -37.7657   -0.7378 H   0  0  0  0  0  0  0  0  0  0  0  0
   17.7662  -39.3534    5.3308 N   0  0  0  0  0  0  0  0  0  0  0  0
   17.4147  -39.8531    6.6761 C   0  0  0  0  0  0  0  0  0  0  0  0
   18.8885  -39.9763    4.6307 C   0  0  0  0  0  0  0  0  0  0  0  0
   23.5140  -36.8437    5.5215 N   0  0  0  0  0  0  0  0  0  0  0  0
   24.0397  -36.0616    4.5162 C   0  0  0  0  0  0  0  0  0  0  0  0
   25.1251  -35.3426    4.7578 N   0  0  0  0  0  0  0  0  0  0  0  0
   23.4528  -36.0362    3.2668 N   0  0  0  0  0  0  0  0  0  0  0  0
   22.3238  -36.7936    3.0297 C   0  0  0  0  0  0  0  0  0  0  0  0
   21.7678  -36.7999    1.8219 N   0  0  0  0  0  0  0  0  0  0  0  0
   21.7794  -37.5761    4.0420 C   0  0  0  0  0  0  0  0  0  0  0  0
   20.6482  -38.3468    3.8041 N   0  0  0  0  0  0  0  0  0  0  0  0
   20.1271  -39.1332    4.8405 C   0  0  0  0  0  0  0  0  0  0  0  0
   20.7186  -39.1224    6.1043 C   0  0  0  0  0  0  0  0  0  0  0  0
   21.8449  -38.3596    6.3363 N   0  0  0  0  0  0  0  0  0  0  0  0
   22.3761  -37.5857    5.3021 C   0  0  0  0  0  0  0  0  0  0  0  0
   25.5407  -35.3633    5.6501 H   0  0  0  0  0  0  0  0  0  0  0  0
   25.5165  -34.7873    4.0453 H   0  0  0  0  0  0  0  0  0  0  0  0
   22.1491  -36.2477    1.1015 H   0  0  0  0  0  0  0  0  0  0  0  0
   20.9747  -37.3567    1.6480 H   0  0  0  0  0  0  0  0  0  0  0  0
 25 26  2  0  0  0
 25 36  1  0  0  0
 26 27  1  0  0  0
 26 28  1  0  0  0
 28 29  2  0  0  0
 29 30  1  0  0  0
 29 31  1  0  0  0
 31 32  1  0  0  0
 31 36  2  0  0  0
 32 33  2  0  0  0
 33 34  1  0  0  0
 33 24  1  0  0  0
 34 35  2  0  0  0
 35 36  1  0  0  0
 24 22  1  0  0  0
 22 23  1  0  0  0
 22  4  1  0  0  0
  1  2  2  0  0  0
  1  6  1  0  0  0
  1  7  1  0  0  0
  2  3  1  0  0  0
  3  4  2  0  0  0
  4  5  1  0  0  0
  5  6  2  0  0  0
  7  8  2  0  0  0
  7  9  1  0  0  0
  9 11  1  0  0  0
 11 12  1  0  0  0
 11 16  1  0  0  0
 12 13  2  0  0  0
 12 14  1  0  0  0
 16 17  1  0  0  0
 17 18  1  0  0  0
 18 19  2  0  0  0
 18 20  1  0  0  0
 27 37  1  0  0  0
 27 38  1  0  0  0
 30 39  1  0  0  0
 30 40  1  0  0  0
  9 10  1  0  0  0
 14 15  1  0  0  0
 20 21  1  0  0  0
M  END
> <minimizedAffinity>
-10.58709

$$$$
4KN0_MTX_A_301


 40 42  0  0  0  0  0  0  0  0999 V2000
   16.3894  -36.9397    3.2283 C   0  0  0  0  0  0  0  0  0  0  0  0
   16.4006  -38.3415    3.3606 C   0  0  0  0  0  0  0  0  0  0  0  0
   17.5062  -38.9798    3.9393 C   0  0  0  0  0  0  0  0  0  0  0  0
   18.5857  -38.2180    4.3702 C   0  0  0  0  0  0  0  0  0  0  0  0
   18.5656  -36.8317    4.2297 C   0  0  0  0  0  0  0  0  0  0  0  0
   17.4785  -36.1795    3.6607 C   0  0  0  0  0  0  0  0  0  0  0  0
   15.2238  -36.2303    2.5820 C   0  0  0  0  0  0  0  0  0  0  0  0
   14.9653  -34.9179    2.9822 O   0  0  0  0  0  0  0  0  0  0  0  0
   14.4585  -36.8532    1.6866 N   0  0  0  0  0  0  0  0  0  0  0  0
   14.7256  -37.7500    1.3806 H   0  0  0  0  0  0  0  0  0  0  0  0
   13.2479  -36.2654    1.1432 C   0  0  0  0  0  0  0  0  0  0  0  0
   12.1115  -36.3520    2.1322 C   0  0  0  0  0  0  0  0  0  0  0  0
   11.2035  -37.2203    2.0140 O   0  0  0  0  0  0  0  0  0  0  0  0
   12.0583  -35.5674    3.0973 O   0  0  0  0  0  0  0  0  0  0  0  0
   12.7207  -34.9139    3.2069 H   0  0  0  0  0  0  0  0  0  0  0  0
   12.8443  -37.0687   -0.0886 C   0  0  0  0  0  0  0  0  0  0  0  0
   12.5930  -36.1548   -1.2636 C   0  0  0  0  0  0  0  0  0  0  0  0
   11.1063  -35.9459   -1.3885 C   0  0  0  0  0  0  0  0  0  0  0  0
   10.6640  -34.9572   -2.0195 O   0  0  0  0  0  0  0  0  0  0  0  0
   10.3152  -36.7525   -0.8624 O   0  0  0  0  0  0  0  0  0  0  0  0
   10.6448  -37.4918   -0.3905 H   0  0  0  0  0  0  0  0  0  0  0  0
   19.7049  -38.8340    4.9617 N   0  0  0  0  0  0  0  0  0  0  0  0
   19.8112  -40.3076    4.9733 C   0  0  0  0  0  0  0  0  0  0  0  0
   20.9244  -38.0489    5.1465 C   0  0  0  0  0  0  0  0  0  0  0  0
   24.4594  -39.1391    0.8665 N   0  0  0  0  0  0  0  0  0  0  0  0
   25.3463  -40.1912    0.9358 C   0  0  0  0  0  0  0  0  0  0  0  0
   26.1617  -40.4168   -0.0830 N   0  0  0  0  0  0  0  0  0  0  0  0
   25.3969  -40.9941    2.0577 N   0  0  0  0  0  0  0  0  0  0  0  0
   24.5427  -40.7442    3.1125 C   0  0  0  0  0  0  0  0  0  0  0  0
   24.6032  -41.4925    4.2100 N   0  0  0  0  0  0  0  0  0  0  0  0
   23.6360  -39.6922    3.0460 C   0  0  0  0  0  0  0  0  0  0  0  0
   22.7809  -39.4323    4.1097 N   0  0  0  0  0  0  0  0  0  0  0  0
   21.8840  -38.3593    4.0187 C   0  0  0  0  0  0  0  0  0  0  0  0
   21.8290  -37.5776    2.8641 C   0  0  0  0  0  0  0  0  0  0  0  0
   22.6828  -37.8352    1.8110 N   0  0  0  0  0  0  0  0  0  0  0  0
   23.5884  -38.8945    1.9034 C   0  0  0  0  0  0  0  0  0  0  0  0
   26.1226  -39.8420   -0.8813 H   0  0  0  0  0  0  0  0  0  0  0  0
   26.8070  -41.1592   -0.0420 H   0  0  0  0  0  0  0  0  0  0  0  0
   25.2434  -42.2386    4.2624 H   0  0  0  0  0  0  0  0  0  0  0  0
   24.0079  -41.3004    4.9702 H   0  0  0  0  0  0  0  0  0  0  0  0
 25 26  2  0  0  0
 25 36  1  0  0  0
 26 27  1  0  0  0
 26 28  1  0  0  0
 28 29  2  0  0  0
 29 30  1  0  0  0
 29 31  1  0  0  0
 31 32  1  0  0  0
 31 36  2  0  0  0
 32 33  2  0  0  0
 33 34  1  0  0  0
 33 24  1  0  0  0
 34 35  2  0  0  0
 35 36  1  0  0  0
 24 22  1  0  0  0
 22 23  1  0  0  0
 22  4  1  0  0  0
  1  2  2  0  0  0
  1  6  1  0  0  0
  1  7  1  0  0  0
  2  3  1  0  0  0
  3  4  2  0  0  0
  4  5  1  0  0  0
  5  6  2  0  0  0
  7  8  2  0  0  0
  7  9  1  0  0  0
  9 11  1  0  0  0
 11 12  1  0  0  0
 11 16  1  0  0  0
 12 13  2  0  0  0
 12 14  1  0  0  0
 16 17  1  0  0  0
 17 18  1  0  0  0
 18 19  2  0  0  0
 18 20  1  0  0  0
 27 37  1  0  0  0
 27 38  1  0  0  0
 30 39  1  0  0  0
 30 40  1  0  0  0
  9 10  1  0  0  0
 14 15  1  0  0  0
 20 21  1  0  0  0
M  END
> <minimizedAffinity>
-10.49736

$$$$
4KN0_MTX_A_301


 40 42  0  0  0  0  0  0  0  0999 V2000
   18.0068  -37.4087    3.5116 C   0  0  0  0  0  0  0  0  0  0  0  0
   17.8162  -36.4549    2.4935 C   0  0  0  0  0  0  0  0  0  0  0  0
   16.6373  -36.4682    1.7354 C   0  0  0  0  0  0  0  0  0  0  0  0
   15.6701  -37.4320    1.9946 C   0  0  0  0  0  0  0  0  0  0  0  0
   15.8717  -38.3741    3.0015 C   0  0  0  0  0  0  0  0  0  0  0  0
   17.0324  -38.3767    3.7656 C   0  0  0  0  0  0  0  0  0  0  0  0
   19.2800  -37.4344    4.3228 C   0  0  0  0  0  0  0  0  0  0  0  0
   19.3088  -38.2555    5.4516 O   0  0  0  0  0  0  0  0  0  0  0  0
   20.3204  -36.6749    3.9822 N   0  0  0  0  0  0  0  0  0  0  0  0
   20.2802  -36.1718    3.1370 H   0  0  0  0  0  0  0  0  0  0  0  0
   21.5104  -36.5579    4.8047 C   0  0  0  0  0  0  0  0  0  0  0  0
   22.1467  -35.1986    4.6481 C   0  0  0  0  0  0  0  0  0  0  0  0
   23.1809  -35.0354    3.9437 O   0  0  0  0  0  0  0  0  0  0  0  0
   21.6486  -34.2043    5.2076 O   0  0  0  0  0  0  0  0  0  0  0  0
   20.8807  -34.2997    5.7360 H   0  0  0  0  0  0  0  0  0  0  0  0
   22.5209  -37.5939    4.3239 C   0  0  0  0  0  0  0  0  0  0  0  0
   22.2529  -37.9753    2.8881 C   0  0  0  0  0  0  0  0  0  0  0  0
   23.5543  -37.9091    2.1322 C   0  0  0  0  0  0  0  0  0  0  0  0
   23.7030  -38.5778    1.0824 O   0  0  0  0  0  0  0  0  0  0  0  0
   24.4846  -37.1933    2.5507 O   0  0  0  0  0  0  0  0  0  0  0  0
   24.3744  -36.6931    3.3353 H   0  0  0  0  0  0  0  0  0  0  0  0
   14.4740  -37.4623    1.2528 N   0  0  0  0  0  0  0  0  0  0  0  0
   14.0976  -38.6867    0.5164 C   0  0  0  0  0  0  0  0  0  0  0  0
   13.4265  -36.4919    1.5669 C   0  0  0  0  0  0  0  0  0  0  0  0
   10.6840  -35.0436   -3.1642 N   0  0  0  0  0  0  0  0  0  0  0  0
   11.3480  -34.9707   -4.3693 C   0  0  0  0  0  0  0  0  0  0  0  0
   10.6762  -34.6259   -5.4571 N   0  0  0  0  0  0  0  0  0  0  0  0
   12.7002  -35.2394   -4.4432 N   0  0  0  0  0  0  0  0  0  0  0  0
   13.3870  -35.5942   -3.3000 C   0  0  0  0  0  0  0  0  0  0  0  0
   14.6952  -35.8261   -3.3541 N   0  0  0  0  0  0  0  0  0  0  0  0
   12.7223  -35.6824   -2.0819 C   0  0  0  0  0  0  0  0  0  0  0  0
   13.4124  -36.0305   -0.9275 N   0  0  0  0  0  0  0  0  0  0  0  0
   12.7184  -36.1022    0.2880 C   0  0  0  0  0  0  0  0  0  0  0  0
   11.3460  -35.8548    0.3359 C   0  0  0  0  0  0  0  0  0  0  0  0
   10.6640  -35.5045   -0.8115 N   0  0  0  0  0  0  0  0  0  0  0  0
   11.3546  -35.4177   -2.0223 C   0  0  0  0  0  0  0  0  0  0  0  0
    9.7120  -34.4351   -5.4004 H   0  0  0  0  0  0  0  0  0  0  0  0
   11.1409  -34.5604   -6.3226 H   0  0  0  0  0  0  0  0  0  0  0  0
   15.1708  -35.7651   -4.2139 H   0  0  0  0  0  0  0  0  0  0  0  0
   15.1882  -36.0588   -2.5343 H   0  0  0  0  0  0  0  0  0  0  0  0
 25 26  2  0  0  0
 25 36  1  0  0  0
 26 27  1  0  0  0
 26 28  1  0  0  0
 28 29  2  0  0  0
 29 30  1  0  0  0
 29 31  1  0  0  0
 31 32  1  0  0  0
 31 36  2  0  0  0
 32 33  2  0  0  0
 33 34  1  0  0  0
 33 24  1  0  0  0
 34 35  2  0  0  0
 35 36  1  0  0  0
 24 22  1  0  0  0
 22 23  1  0  0  0
 22  4  1  0  0  0
  1  2  2  0  0  0
  1  6  1  0  0  0
  1  7  1  0  0  0
  2  3  1  0  0  0
  3  4  2  0  0  0
  4  5  1  0  0  0
  5  6  2  0  0  0
  7  8  2  0  0  0
  7  9  1  0  0  0
  9 11  1  0  0  0
 11 12  1  0  0  0
 11 16  1  0  0  0
 12 13  2  0  0  0
 12 14  1  0  0  0
 16 17  1  0  0  0
 17 18  1  0  0  0
 18 19  2  0  0  0
 18 20  1  0  0  0
 27 37  1  0  0  0
 27 38  1  0  0  0
 30 39  1  0  0  0
 30 40  1  0  0  0
  9 10  1  0  0  0
 14 15  1  0  0  0
 20 21  1  0  0  0
M  END
> <minimizedAffinity>
-10.49482

$$$$
4KN0_MTX_A_301


 40 42  0  0  0  0  0  0  0  0999 V2000
   14.3882  -36.7270    2.9916 C   0  0  0  0  0  0  0  0  0  0  0  0
   14.8849  -35.4223    3.1754 C   0  0  0  0  0  0  0  0  0  0  0  0
   16.2349  -35.2277    3.4983 C   0  0  0  0  0  0  0  0  0  0  0  0
   17.0683  -36.3307    3.6410 C   0  0  0  0  0  0  0  0  0  0  0  0
   16.5646  -37.6176    3.4615 C   0  0  0  0  0  0  0  0  0  0  0  0
   15.2300  -37.8318    3.1391 C   0  0  0  0  0  0  0  0  0  0  0  0
   12.9319  -36.9654    2.6723 C   0  0  0  0  0  0  0  0  0  0  0  0
   12.6324  -37.6114    1.4713 O   0  0  0  0  0  0  0  0  0  0  0  0
   11.9752  -36.5438    3.4984 N   0  0  0  0  0  0  0  0  0  0  0  0
   12.2371  -36.1625    4.3674 H   0  0  0  0  0  0  0  0  0  0  0  0
   10.5635  -36.6229    3.1712 C   0  0  0  0  0  0  0  0  0  0  0  0
   10.1614  -35.5132    2.2311 C   0  0  0  0  0  0  0  0  0  0  0  0
    9.6463  -34.4441    2.6602 O   0  0  0  0  0  0  0  0  0  0  0  0
   10.3449  -35.6316    1.0055 O   0  0  0  0  0  0  0  0  0  0  0  0
   10.7258  -36.4159    0.6624 H   0  0  0  0  0  0  0  0  0  0  0  0
    9.7688  -36.4408    4.4600 C   0  0  0  0  0  0  0  0  0  0  0  0
    9.2386  -37.7657    4.9523 C   0  0  0  0  0  0  0  0  0  0  0  0
    9.6093  -37.9110    6.4052 C   0  0  0  0  0  0  0  0  0  0  0  0
   10.4949  -38.7300    6.7464 O   0  0  0  0  0  0  0  0  0  0  0  0
    9.0345  -37.2208    7.2692 O   0  0  0  0  0  0  0  0  0  0  0  0
    8.3724  -36.6084    7.0152 H   0  0  0  0  0  0  0  0  0  0  0  0
   18.4297  -36.1621    3.9573 N   0  0  0  0  0  0  0  0  0  0  0  0
   18.8767  -34.9337    4.6462 C   0  0  0  0  0  0  0  0  0  0  0  0
   19.2898  -37.3429    4.0166 C   0  0  0  0  0  0  0  0  0  0  0  0
   24.5051  -35.9560    2.3198 N   0  0  0  0  0  0  0  0  0  0  0  0
   25.3531  -35.2555    3.1497 C   0  0  0  0  0  0  0  0  0  0  0  0
   26.5665  -34.9448    2.7199 N   0  0  0  0  0  0  0  0  0  0  0  0
   24.9414  -34.8684    4.4093 N   0  0  0  0  0  0  0  0  0  0  0  0
   23.6726  -35.1972    4.8415 C   0  0  0  0  0  0  0  0  0  0  0  0
   23.2551  -34.8038    6.0410 N   0  0  0  0  0  0  0  0  0  0  0  0
   22.8147  -35.9146    4.0153 C   0  0  0  0  0  0  0  0  0  0  0  0
   21.5336  -36.2394    4.4438 N   0  0  0  0  0  0  0  0  0  0  0  0
   20.6872  -36.9549    3.5860 C   0  0  0  0  0  0  0  0  0  0  0  0
   21.1329  -37.3616    2.3278 C   0  0  0  0  0  0  0  0  0  0  0  0
   22.4042  -37.0334    1.9030 N   0  0  0  0  0  0  0  0  0  0  0  0
   23.2459  -36.3078    2.7490 C   0  0  0  0  0  0  0  0  0  0  0  0
   26.8564  -35.2226    1.8210 H   0  0  0  0  0  0  0  0  0  0  0  0
   27.1786  -34.4359    3.2992 H   0  0  0  0  0  0  0  0  0  0  0  0
   23.8584  -34.2955    6.6300 H   0  0  0  0  0  0  0  0  0  0  0  0
   22.3425  -35.0208    6.3402 H   0  0  0  0  0  0  0  0  0  0  0  0
 25 26  2  0  0  0
 25 36  1  0  0  0
 26 27  1  0  0  0
 26 28  1  0  0  0
 28 29  2  0  0  0
 29 30  1  0  0  0
 29 31  1  0  0  0
 31 32  1  0  0  0
 31 36  2  0  0  0
 32 33  2  0  0  0
 33 34  1  0  0  0
 33 24  1  0  0  0
 34 35  2  0  0  0
 35 36  1  0  0  0
 24 22  1  0  0  0
 22 23  1  0  0  0
 22  4  1  0  0  0
  1  2  2  0  0  0
  1  6  1  0  0  0
  1  7  1  0  0  0
  2  3  1  0  0  0
  3  4  2  0  0  0
  4  5  1  0  0  0
  5  6  2  0  0  0
  7  8  2  0  0  0
  7  9  1  0  0  0
  9 11  1  0  0  0
 11 12  1  0  0  0
 11 16  1  0  0  0
 12 13  2  0  0  0
 12 14  1  0  0  0
 16 17  1  0  0  0
 17 18  1  0  0  0
 18 19  2  0  0  0
 18 20  1  0  0  0
 27 37  1  0  0  0
 27 38  1  0  0  0
 30 39  1  0  0  0
 30 40  1  0  0  0
  9 10  1  0  0  0
 14 15  1  0  0  0
 20 21  1  0  0  0
M  END
> <minimizedAffinity>
-10.42184

$$$$
