4EB8_IM5_A_302
  RCSB PDB12061712213D
Coordinates from PDB:4EB8:A:302 Model:1 without hydrogens
 20 22  0  0  0  0            999 V2000
   21.3350  -28.0980  -19.7440   N 0  0  0  0  0  0  0  0  0  0  0  0
   20.0980  -27.4370  -19.6710   C 0  0  0  0  0  0  0  0  0  0  0  0
   19.5280  -27.0360  -20.8070   N 0  0  0  0  0  0  0  0  0  0  0  0
   19.5300  -27.2040  -18.4670   N 0  0  0  0  0  0  0  0  0  0  0  0
   20.1420  -27.6050  -17.3260   C 0  0  0  0  0  0  0  0  0  0  0  0
   21.3350  -28.2470  -17.3700   C 0  0  0  0  0  0  0  0  0  0  0  0
   21.9330  -28.5150  -18.5530   C 0  0  0  0  0  0  0  0  0  0  0  0
   22.9960  -29.1400  -18.6290   O 0  0  0  0  0  0  0  0  0  0  0  0
   21.6950  -28.5270  -16.1050   N 0  0  0  0  0  0  0  0  0  0  0  0
   20.7560  -28.0550  -15.2760   C 0  0  0  0  0  0  0  0  0  0  0  0
   19.8040  -27.5090  -16.0300   C 0  0  0  0  0  0  0  0  0  0  0  0
   17.3040  -27.5940  -15.3400   N 0  0  0  0  0  0  0  0  0  0  0  0
   18.5470  -26.8030  -15.4550   C 0  0  0  0  0  0  0  0  0  0  0  0
   16.7520  -27.9580  -16.6580   C 0  0  0  0  0  0  0  0  0  0  0  0
   15.6740  -28.9730  -16.2950   C 0  0  0  0  0  0  0  0  0  0  0  0
   14.4690  -28.3100  -15.8870   O 0  0  0  0  0  0  0  0  0  0  0  0
   16.2450  -29.7210  -15.1080   C 0  0  0  0  0  0  0  0  0  0  0  0
   16.6840  -31.0830  -15.5950   C 0  0  0  0  0  0  0  0  0  0  0  0
   17.5320  -31.6610  -14.6030   O 0  0  0  0  0  0  0  0  0  0  0  0
   17.4800  -28.8810  -14.6350   C 0  0  0  0  0  0  0  0  0  0  0  0
  2  1  1  0  0  0  0
  1  7  1  0  0  0  0
  3  2  1  0  0  0  0
  4  2  2  0  0  0  0
  4  5  1  0  0  0  0
 11  5  1  0  0  0  0
  5  6  2  0  0  0  0
  6  9  1  0  0  0  0
  6  7  1  0  0  0  0
  7  8  2  0  0  0  0
 10  9  1  0  0  0  0
 11 10  2  0  0  0  0
 13 11  1  0  0  0  0
 13 12  1  0  0  0  0
 12 14  1  0  0  0  0
 12 20  1  0  0  0  0
 14 15  1  0  0  0  0
 16 15  1  0  0  0  0
 15 17  1  0  0  0  0
 20 17  1  0  0  0  0
 17 18  1  0  0  0  0
 18 19  1  0  0  0  0
A    1
N1
A    2
C2
A    3
N2
A    4
N3
A    5
C4
A    6
C5
A    7
C6
A    8
O6
A    9
N7
A   10
C8
A   11
C9
A   12
N1'
A   13
C10
A   14
C2'
A   15
C3'
A   16
O3'
A   17
C4'
A   18
C5'
A   19
O5'
A   20
C6'
M  END
>  <InstanceId>
4EB8_IM5_A_302

>  <ChemCompId>
IM5

>  <PdbId>
4EB8

>  <ChainId>
A

>  <ResidueNumber>
302

>  <InsertionCode>


>  <Model>
1

>  <AltIds>


>  <MissingHeavyAtoms>
0

>  <ObservedFormula>
C12 N5 O3

>  <Name>
2-amino-7-{[(3R,4R)-3-hydroxy-4-(hydroxymethyl)pyrrolidin-1-yl]methyl}-3,5-dihydro-4H-pyrrolo[3,2-d]pyrimidin-4-one

>  <SystematicName>
2-azanyl-7-[[(3R,4R)-3-(hydroxymethyl)-4-oxidanyl-pyrrolidin-1-yl]methyl]-3,5-dihydropyrrolo[3,2-d]pyrimidin-4-one

>  <Synonyms>
DADMe-ImmG

>  <Type>
NON-POLYMER

>  <Formula>
C12 H17 N5 O3

>  <MolecularWeight>
279.295

>  <ModifiedDate>
2011-12-05

>  <Parent>


>  <OneLetterCode>


>  <SubcomponentList>


>  <AmbiguousFlag>
N

>  <InChI>
InChI=1S/C12H17N5O3/c13-12-15-9-6(1-14-10(9)11(20)16-12)2-17-3-7(5-18)8(19)4-17/h1,7-8,14,18-19H,2-5H2,(H3,13,15,16,20)/t7-,8+/m1/s1

>  <InChIKey>
GSPTUGDLYPMLCQ-SFYZADRCSA-N

>  <SMILES>
c1c(c2c([nH]1)C(=O)NC(=N2)N)CN3C[C@@H]([C@H](C3)O)CO

$$$$
