3H5B_031_B_404
  RCSB PDB12061708503D
Coordinates from PDB:3H5B:B:404 Model:1 without hydrogens
 42 46  0  0  0  0            999 V2000
   10.7870   17.3300   20.6370   O 0  0  0  0  0  0  0  0  0  0  0  0
   10.0330   16.7010   19.6060   C 0  0  0  0  0  0  0  0  0  0  0  0
   11.7690   18.0790   20.0770   C 0  0  0  0  0  0  0  0  0  0  0  0
   12.2170   17.8560   18.7860   C 0  0  0  0  0  0  0  0  0  0  0  0
   13.3070   18.5590   18.2630   C 0  0  0  0  0  0  0  0  0  0  0  0
   13.9460   19.5160   19.0380   C 0  0  0  0  0  0  0  0  0  0  0  0
   13.4850   19.7030   20.3250   C 0  0  0  0  0  0  0  0  0  0  0  0
   12.4420   18.9930   20.8820   C 0  0  0  0  0  0  0  0  0  0  0  0
   15.2730   20.5030   18.4590   S 0  0  0  0  0  0  0  0  0  0  0  0
   16.1720   20.8560   19.6060   O 0  0  0  0  0  0  0  0  0  0  0  0
   16.0390   19.7150   17.4480   O 0  0  0  0  0  0  0  0  0  0  0  0
   14.7470   21.8880   17.8040   N 0  0  0  0  0  0  0  0  0  0  0  0
   13.7280   21.7280   16.7890   C 0  0  0  0  0  0  0  0  0  0  0  0
   13.7910   22.8660   15.7780   C 0  0  0  0  0  0  0  0  0  0  0  0
   15.2190   23.1470   15.2950   C 0  0  0  0  0  0  0  0  0  0  0  0
   13.0600   22.5300   14.5520   N 0  0  0  0  0  0  0  0  0  0  0  0
   13.8880   22.0130   13.6720   C 0  0  0  0  0  0  0  0  0  0  0  0
   13.5220   21.3760   12.7020   O 0  0  0  0  0  0  0  0  0  0  0  0
   15.3340   22.3110   14.0230   C 0  0  0  0  0  0  0  0  0  0  0  0
   14.4740   22.9350   18.7850   C 0  0  0  0  0  0  0  0  0  0  0  0
   15.2570   24.1770   18.4230   C 0  0  0  0  0  0  0  0  0  0  0  0
   14.7880   25.4020   18.9350   O 0  0  0  0  0  0  0  0  0  0  0  0
   16.7620   24.0450   18.5520   C 0  0  0  0  0  0  0  0  0  0  0  0
   17.3830   25.0910   17.7460   N 0  0  0  0  0  0  0  0  0  0  0  0
   18.2660   24.9670   16.7700   C 0  0  0  0  0  0  0  0  0  0  0  0
   18.5260   23.8980   16.2130   O 0  0  0  0  0  0  0  0  0  0  0  0
   18.8980   26.1120   16.3990   O 0  0  0  0  0  0  0  0  0  0  0  0
   21.0740   25.2830   15.6730   C 0  0  0  0  0  0  0  0  0  0  0  0
   19.7570   25.9410   15.2720   C 0  0  0  0  0  0  0  0  0  0  0  0
   20.1740   27.3410   14.7960   C 0  0  0  0  0  0  0  0  0  0  0  0
   21.3230   27.7160   15.7290   C 0  0  0  0  0  0  0  0  0  0  0  0
   20.8430   28.1420   17.0020   O 0  0  0  0  0  0  0  0  0  0  0  0
   21.8780   27.8070   17.9310   C 0  0  0  0  0  0  0  0  0  0  0  0
   22.4350   26.4630   17.4510   C 0  0  0  0  0  0  0  0  0  0  0  0
   22.0600   26.4070   15.9710   C 0  0  0  0  0  0  0  0  0  0  0  0
   17.1870   24.1910   20.0130   C 0  0  0  0  0  0  0  0  0  0  0  0
   19.5360   24.9640   20.4930   C 0  0  0  0  0  0  0  0  0  0  0  0
   20.9030   24.7520   20.5430   C 0  0  0  0  0  0  0  0  0  0  0  0
   21.3820   23.4640   20.3940   C 0  0  0  0  0  0  0  0  0  0  0  0
   20.5320   22.4220   20.0550   C 0  0  0  0  0  0  0  0  0  0  0  0
   19.1650   22.6370   19.9300   C 0  0  0  0  0  0  0  0  0  0  0  0
   18.6860   23.9250   20.1400   C 0  0  0  0  0  0  0  0  0  0  0  0
  2  1  1  0  0  0  0
  3  1  1  0  0  0  0
  4  3  2  0  0  0  0
  3  8  1  0  0  0  0
  5  4  1  0  0  0  0
  5  6  2  0  0  0  0
  9  6  1  0  0  0  0
  6  7  1  0  0  0  0
  7  8  2  0  0  0  0
 11  9  2  0  0  0  0
 12  9  1  0  0  0  0
  9 10  2  0  0  0  0
 13 12  1  0  0  0  0
 12 20  1  0  0  0  0
 14 13  1  0  0  0  0
 16 14  1  0  0  0  0
 15 14  1  0  0  0  0
 19 15  1  0  0  0  0
 17 16  1  0  0  0  0
 18 17  2  0  0  0  0
 17 19  1  0  0  0  0
 21 20  1  0  0  0  0
 21 23  1  0  0  0  0
 21 22  1  0  0  0  0
 24 23  1  0  0  0  0
 23 36  1  0  0  0  0
 25 24  1  0  0  0  0
 26 25  2  0  0  0  0
 27 25  1  0  0  0  0
 29 27  1  0  0  0  0
 29 28  1  0  0  0  0
 28 35  1  0  0  0  0
 30 29  1  0  0  0  0
 30 31  1  0  0  0  0
 31 35  1  0  0  0  0
 31 32  1  0  0  0  0
 32 33  1  0  0  0  0
 34 33  1  0  0  0  0
 35 34  1  0  0  0  0
 36 42  1  0  0  0  0
 42 37  2  0  0  0  0
 37 38  1  0  0  0  0
 39 38  2  0  0  0  0
 40 39  1  0  0  0  0
 41 40  2  0  0  0  0
 41 42  1  0  0  0  0
A    1
O39
A    2
C40
A    3
C2
A    4
C3
A    5
C4
A    6
C5
A    7
C6
A    8
C7
A    9
S8
A   10
O9
A   11
O10
A   12
N11
A   13
C12
A   14
C13
A   15
C14
A   16
N15
A   17
C45
A   18
O46
A   19
C47
A   20
C16
A   21
C17
A   22
O18
A   23
C19
A   24
N20
A   25
C21
A   26
O22
A   27
O23
A   28
C24
A   29
C25
A   30
C26
A   31
C27
A   32
O28
A   33
C29
A   34
C30
A   35
C31
A   36
C32
A   37
C33
A   38
C34
A   39
C35
A   40
C36
A   41
C37
A   42
C38
M  END
>  <InstanceId>
3H5B_031_B_404

>  <ChemCompId>
031

>  <PdbId>
3H5B

>  <ChainId>
B

>  <ResidueNumber>
404

>  <InsertionCode>


>  <Model>
1

>  <AltIds>


>  <MissingHeavyAtoms>
0

>  <ObservedFormula>
C30 N3 O8 S

>  <Name>
(3aS,5R,6aR)-hexahydro-2H-cyclopenta[b]furan-5-yl [(1S,2R)-1-benzyl-2-hydroxy-3-([(4-methoxyphenyl)sulfonyl]{[(2R)-5-oxopyrrolidin-2-yl]methyl}amino)propyl]carbamate

>  <SystematicName>
[(3aS,5R,6aR)-3,3a,4,5,6,6a-hexahydro-2H-cyclopenta[b]furan-5-yl] N-[(2S,3R)-3-hydroxy-4-[(4-methoxyphenyl)sulfonyl-[[(2R)-5-oxopyrrolidin-2-yl]methyl]amino]-1-phenyl-butan-2-yl]carbamate

>  <Synonyms>


>  <Type>
NON-POLYMER

>  <Formula>
C30 H39 N3 O8 S

>  <MolecularWeight>
601.711

>  <ModifiedDate>
2011-06-04

>  <Parent>


>  <OneLetterCode>


>  <SubcomponentList>


>  <AmbiguousFlag>
N

>  <InChI>
InChI=1S/C30H39N3O8S/c1-39-23-8-10-25(11-9-23)42(37,38)33(18-22-7-12-29(35)31-22)19-27(34)26(15-20-5-3-2-4-6-20)32-30(36)41-24-16-21-13-14-40-28(21)17-24/h2-6,8-11,21-22,24,26-28,34H,7,12-19H2,1H3,(H,31,35)(H,32,36)/t21-,22+,24+,26-,27+,28+/m0/s1

>  <InChIKey>
RPIALZPTIFOQGC-CXLNPQPMSA-N

>  <SMILES>
COc1ccc(cc1)S(=O)(=O)[N@@](C[C@H]2CCC(=O)N2)C[C@H]([C@H](Cc3ccccc3)NC(=O)O[C@@H]4C[C@@H]5CCO[C@@H]5C4)O

$$$$
