3H5B_031_B_404


 45 49  0  0  0  0  0  0  0  0999 V2000
   15.0951   23.9792   17.7441 C   0  0  0  0  0  0  0  0  0  0  0  0
   14.0413   24.6406   18.4036 O   0  0  0  0  0  0  0  0  0  0  0  0
   13.4698   25.0711   17.7487 H   0  0  0  0  0  0  0  0  0  0  0  0
   16.1584   24.8446   17.1060 C   0  0  0  0  0  0  0  0  0  0  0  0
   17.4722   24.2549   17.3493 N   0  0  0  0  0  0  0  0  0  0  0  0
   18.2759   23.8739   15.9954 S   0  0  0  0  0  0  0  0  0  0  0  0
   17.2659   23.4446   14.9736 O   0  0  0  0  0  0  0  0  0  0  0  0
   19.2260   22.7528   16.2604 O   0  0  0  0  0  0  0  0  0  0  0  0
   20.7814   27.2979   14.3311 C   0  0  0  0  0  0  0  0  0  0  0  0
   19.4037   27.4232   14.3881 C   0  0  0  0  0  0  0  0  0  0  0  0
   18.6025   26.4067   14.9180 C   0  0  0  0  0  0  0  0  0  0  0  0
   19.1886   25.2369   15.3793 C   0  0  0  0  0  0  0  0  0  0  0  0
   20.5645   25.1501   15.3227 C   0  0  0  0  0  0  0  0  0  0  0  0
   21.3822   26.1538   14.8473 C   0  0  0  0  0  0  0  0  0  0  0  0
   21.5799   28.3157   13.9243 O   0  0  0  0  0  0  0  0  0  0  0  0
   22.4221   28.7091   15.0027 C   0  0  0  0  0  0  0  0  0  0  0  0
   18.2648   24.9337   18.3520 C   0  0  0  0  0  0  0  0  0  0  0  0
   18.0448   24.3112   19.7250 C   0  0  0  0  0  0  0  0  0  0  0  0
   18.2342   22.7895   19.7195 C   0  0  0  0  0  0  0  0  0  0  0  0
   19.0378   24.7901   20.6919 N   0  0  0  0  0  0  0  0  0  0  0  0
   20.0520   23.9553   20.7334 C   0  0  0  0  0  0  0  0  0  0  0  0
   21.1359   24.2417   21.2064 O   0  0  0  0  0  0  0  0  0  0  0  0
   19.6958   22.6126   20.1225 C   0  0  0  0  0  0  0  0  0  0  0  0
   18.9570   25.6118   21.2283 H   0  0  0  0  0  0  0  0  0  0  0  0
   14.5980   22.8355   16.8815 C   0  0  0  0  0  0  0  0  0  0  0  0
   13.7567   21.9740   17.7057 N   0  0  0  0  0  0  0  0  0  0  0  0
   14.1232   21.0828   18.6107 C   0  0  0  0  0  0  0  0  0  0  0  0
   15.2602   21.0139   19.0832 O   0  0  0  0  0  0  0  0  0  0  0  0
   12.7863   22.0691   17.5695 H   0  0  0  0  0  0  0  0  0  0  0  0
   13.1556   20.2140   19.0070 O   0  0  0  0  0  0  0  0  0  0  0  0
   13.8493   17.8756   18.9956 C   0  0  0  0  0  0  0  0  0  0  0  0
   13.6530   19.1478   19.8150 C   0  0  0  0  0  0  0  0  0  0  0  0
   12.5478   18.7755   20.8152 C   0  0  0  0  0  0  0  0  0  0  0  0
   11.6253   17.8592   20.0147 C   0  0  0  0  0  0  0  0  0  0  0  0
   10.7769   18.6046   19.1447 O   0  0  0  0  0  0  0  0  0  0  0  0
   10.5049   17.7358   18.0412 C   0  0  0  0  0  0  0  0  0  0  0  0
   11.8136   16.9815   17.7862 C   0  0  0  0  0  0  0  0  0  0  0  0
   12.5625   17.0668   19.1152 C   0  0  0  0  0  0  0  0  0  0  0  0
   13.7938   23.3711   15.6971 C   0  0  0  0  0  0  0  0  0  0  0  0
   12.1118   21.8976   14.5373 C   0  0  0  0  0  0  0  0  0  0  0  0
   11.7847   20.8146   13.7395 C   0  0  0  0  0  0  0  0  0  0  0  0
   12.7922   20.1728   13.0440 C   0  0  0  0  0  0  0  0  0  0  0  0
   14.1230   20.5051   13.2481 C   0  0  0  0  0  0  0  0  0  0  0  0
   14.4690   21.5439   14.1035 C   0  0  0  0  0  0  0  0  0  0  0  0
   13.4440   22.2220   14.7532 C   0  0  0  0  0  0  0  0  0  0  0  0
 16 15  1  0  0  0
  9 15  1  0  0  0
 10  9  2  0  0  0
  9 14  1  0  0  0
 11 10  1  0  0  0
 11 12  2  0  0  0
  6 12  1  0  0  0
 12 13  1  0  0  0
 13 14  2  0  0  0
  8  6  2  0  0  0
  5  6  1  0  0  0
  6  7  2  0  0  0
 17  5  1  0  0  0
  5  4  1  0  0  0
 18 17  1  0  0  0
 20 18  1  0  0  0
 19 18  1  0  0  0
 23 19  1  0  0  0
 21 20  1  0  0  0
 22 21  2  0  0  0
 21 23  1  0  0  0
  1  4  1  0  0  0
  1 25  1  0  0  0
  1  2  1  0  0  0
 26 25  1  0  0  0
 25 39  1  0  0  0
 27 26  1  0  0  0
 28 27  2  0  0  0
 30 27  1  0  0  0
 32 30  1  0  0  0
 32 31  1  0  0  0
 31 38  1  0  0  0
 33 32  1  0  0  0
 33 34  1  0  0  0
 34 38  1  0  0  0
 34 35  1  0  0  0
 35 36  1  0  0  0
 37 36  1  0  0  0
 38 37  1  0  0  0
 39 45  1  0  0  0
 45 40  2  0  0  0
 40 41  1  0  0  0
 42 41  2  0  0  0
 43 42  1  0  0  0
 44 43  2  0  0  0
 44 45  1  0  0  0
 20 24  1  0  0  0
  2  3  1  0  0  0
 26 29  1  0  0  0
M  END
> <minimizedAffinity>
-10.86032

$$$$
3H5B_031_B_404


 45 49  0  0  0  0  0  0  0  0999 V2000
   15.0270   23.8961   17.7434 C   0  0  0  0  0  0  0  0  0  0  0  0
   13.9656   24.5456   18.4026 O   0  0  0  0  0  0  0  0  0  0  0  0
   13.3952   24.9784   17.7482 H   0  0  0  0  0  0  0  0  0  0  0  0
   16.0887   24.7733   17.1189 C   0  0  0  0  0  0  0  0  0  0  0  0
   17.4019   24.1722   17.3359 N   0  0  0  0  0  0  0  0  0  0  0  0
   18.1833   23.8024   15.9660 S   0  0  0  0  0  0  0  0  0  0  0  0
   17.1534   23.4226   14.9444 O   0  0  0  0  0  0  0  0  0  0  0  0
   19.1069   22.6517   16.1960 O   0  0  0  0  0  0  0  0  0  0  0  0
   20.7625   27.1997   14.3606 C   0  0  0  0  0  0  0  0  0  0  0  0
   19.3865   27.3475   14.4050 C   0  0  0  0  0  0  0  0  0  0  0  0
   18.5631   26.3396   14.9168 C   0  0  0  0  0  0  0  0  0  0  0  0
   19.1248   25.1557   15.3724 C   0  0  0  0  0  0  0  0  0  0  0  0
   20.4996   25.0464   15.3288 C   0  0  0  0  0  0  0  0  0  0  0  0
   21.3388   26.0408   14.8716 C   0  0  0  0  0  0  0  0  0  0  0  0
   21.5819   28.2078   13.9718 O   0  0  0  0  0  0  0  0  0  0  0  0
   22.2315   28.7504   15.1166 C   0  0  0  0  0  0  0  0  0  0  0  0
   18.2135   24.8335   18.3350 C   0  0  0  0  0  0  0  0  0  0  0  0
   18.1712   24.0721   19.6540 C   0  0  0  0  0  0  0  0  0  0  0  0
   19.1023   22.8537   19.6614 C   0  0  0  0  0  0  0  0  0  0  0  0
   18.6585   24.8995   20.7622 N   0  0  0  0  0  0  0  0  0  0  0  0
   19.9414   24.6810   20.9453 C   0  0  0  0  0  0  0  0  0  0  0  0
   20.6645   25.4288   21.5766 O   0  0  0  0  0  0  0  0  0  0  0  0
   20.3907   23.3959   20.2749 C   0  0  0  0  0  0  0  0  0  0  0  0
   18.1084   25.5235   21.2888 H   0  0  0  0  0  0  0  0  0  0  0  0
   14.5416   22.7571   16.8682 C   0  0  0  0  0  0  0  0  0  0  0  0
   13.6453   21.9219   17.6609 N   0  0  0  0  0  0  0  0  0  0  0  0
   13.9522   21.0091   18.5666 C   0  0  0  0  0  0  0  0  0  0  0  0
   15.0723   20.8917   19.0688 O   0  0  0  0  0  0  0  0  0  0  0  0
   12.6834   22.0560   17.4996 H   0  0  0  0  0  0  0  0  0  0  0  0
   12.9412   20.1753   18.9281 O   0  0  0  0  0  0  0  0  0  0  0  0
   11.0703   18.8389   18.1135 C   0  0  0  0  0  0  0  0  0  0  0  0
   12.4874   19.3446   17.8597 C   0  0  0  0  0  0  0  0  0  0  0  0
   13.3428   18.0685   17.8753 C   0  0  0  0  0  0  0  0  0  0  0  0
   12.6862   17.2026   18.9478 C   0  0  0  0  0  0  0  0  0  0  0  0
   13.0526   17.6285   20.2581 O   0  0  0  0  0  0  0  0  0  0  0  0
   11.9487   17.2746   21.0963 C   0  0  0  0  0  0  0  0  0  0  0  0
   10.6974   17.5389   20.2529 C   0  0  0  0  0  0  0  0  0  0  0  0
   11.1982   17.4889   18.8104 C   0  0  0  0  0  0  0  0  0  0  0  0
   13.8025   23.3012   15.6458 C   0  0  0  0  0  0  0  0  0  0  0  0
   14.3248   21.3453   14.1468 C   0  0  0  0  0  0  0  0  0  0  0  0
   13.9402   20.3356   13.2814 C   0  0  0  0  0  0  0  0  0  0  0  0
   12.5956   20.0380   13.1626 C   0  0  0  0  0  0  0  0  0  0  0  0
   11.6342   20.8240   13.7799 C   0  0  0  0  0  0  0  0  0  0  0  0
   12.0061   21.8868   14.5938 C   0  0  0  0  0  0  0  0  0  0  0  0
   13.3633   22.1413   14.7539 C   0  0  0  0  0  0  0  0  0  0  0  0
 16 15  1  0  0  0
  9 15  1  0  0  0
 10  9  2  0  0  0
  9 14  1  0  0  0
 11 10  1  0  0  0
 11 12  2  0  0  0
  6 12  1  0  0  0
 12 13  1  0  0  0
 13 14  2  0  0  0
  8  6  2  0  0  0
  5  6  1  0  0  0
  6  7  2  0  0  0
 17  5  1  0  0  0
  5  4  1  0  0  0
 18 17  1  0  0  0
 20 18  1  0  0  0
 19 18  1  0  0  0
 23 19  1  0  0  0
 21 20  1  0  0  0
 22 21  2  0  0  0
 21 23  1  0  0  0
  1  4  1  0  0  0
  1 25  1  0  0  0
  1  2  1  0  0  0
 26 25  1  0  0  0
 25 39  1  0  0  0
 27 26  1  0  0  0
 28 27  2  0  0  0
 30 27  1  0  0  0
 32 30  1  0  0  0
 32 31  1  0  0  0
 31 38  1  0  0  0
 33 32  1  0  0  0
 33 34  1  0  0  0
 34 38  1  0  0  0
 34 35  1  0  0  0
 35 36  1  0  0  0
 37 36  1  0  0  0
 38 37  1  0  0  0
 39 45  1  0  0  0
 45 40  2  0  0  0
 40 41  1  0  0  0
 42 41  2  0  0  0
 43 42  1  0  0  0
 44 43  2  0  0  0
 44 45  1  0  0  0
 20 24  1  0  0  0
  2  3  1  0  0  0
 26 29  1  0  0  0
M  END
> <minimizedAffinity>
-10.49504

$$$$
3H5B_031_B_404


 45 49  0  0  0  0  0  0  0  0999 V2000
   15.8089   23.3723   17.4049 C   0  0  0  0  0  0  0  0  0  0  0  0
   15.2690   24.6726   17.3826 O   0  0  0  0  0  0  0  0  0  0  0  0
   15.2549   25.0012   16.4701 H   0  0  0  0  0  0  0  0  0  0  0  0
   17.2904   23.2376   17.1333 C   0  0  0  0  0  0  0  0  0  0  0  0
   18.0286   24.1274   18.0257 N   0  0  0  0  0  0  0  0  0  0  0  0
   18.5515   23.4058   19.3784 S   0  0  0  0  0  0  0  0  0  0  0  0
   18.8676   21.9798   19.0391 O   0  0  0  0  0  0  0  0  0  0  0  0
   17.4883   23.4461   20.4261 O   0  0  0  0  0  0  0  0  0  0  0  0
   22.1845   25.4707   21.1975 C   0  0  0  0  0  0  0  0  0  0  0  0
   22.3658   24.4609   20.2676 C   0  0  0  0  0  0  0  0  0  0  0  0
   21.2766   23.8227   19.6658 C   0  0  0  0  0  0  0  0  0  0  0  0
   19.9846   24.1869   20.0160 C   0  0  0  0  0  0  0  0  0  0  0  0
   19.8384   25.2068   20.9338 C   0  0  0  0  0  0  0  0  0  0  0  0
   20.8929   25.8841   21.5093 C   0  0  0  0  0  0  0  0  0  0  0  0
   23.2256   26.1746   21.7070 O   0  0  0  0  0  0  0  0  0  0  0  0
   23.8161   25.4332   22.7694 C   0  0  0  0  0  0  0  0  0  0  0  0
   19.0090   24.9661   17.3702 C   0  0  0  0  0  0  0  0  0  0  0  0
   19.0604   24.6688   15.8769 C   0  0  0  0  0  0  0  0  0  0  0  0
   18.6191   25.8633   15.0225 C   0  0  0  0  0  0  0  0  0  0  0  0
   20.4326   24.4018   15.4341 N   0  0  0  0  0  0  0  0  0  0  0  0
   20.9789   25.5135   14.9949 C   0  0  0  0  0  0  0  0  0  0  0  0
   22.1785   25.6588   14.8514 O   0  0  0  0  0  0  0  0  0  0  0  0
   19.9320   26.5711   14.6978 C   0  0  0  0  0  0  0  0  0  0  0  0
   20.8769   23.5237   15.4617 H   0  0  0  0  0  0  0  0  0  0  0  0
   14.9305   22.3786   16.6699 C   0  0  0  0  0  0  0  0  0  0  0  0
   14.0411   21.7497   17.6408 N   0  0  0  0  0  0  0  0  0  0  0  0
   14.3514   20.9631   18.6570 C   0  0  0  0  0  0  0  0  0  0  0  0
   15.4957   20.8320   19.0974 O   0  0  0  0  0  0  0  0  0  0  0  0
   13.0815   21.9361   17.5234 H   0  0  0  0  0  0  0  0  0  0  0  0
   13.3147   20.2795   19.2102 O   0  0  0  0  0  0  0  0  0  0  0  0
   13.9028   17.9134   19.1378 C   0  0  0  0  0  0  0  0  0  0  0  0
   13.7319   19.1634   19.9960 C   0  0  0  0  0  0  0  0  0  0  0  0
   12.5727   18.8074   20.9395 C   0  0  0  0  0  0  0  0  0  0  0  0
   11.6422   17.9636   20.0715 C   0  0  0  0  0  0  0  0  0  0  0  0
   10.8626   18.7778   19.1988 O   0  0  0  0  0  0  0  0  0  0  0  0
   10.5953   17.9622   18.0543 C   0  0  0  0  0  0  0  0  0  0  0  0
   11.8780   17.1578   17.8206 C   0  0  0  0  0  0  0  0  0  0  0  0
   12.5774   17.1612   19.1789 C   0  0  0  0  0  0  0  0  0  0  0  0
   14.1094   23.0872   15.5928 C   0  0  0  0  0  0  0  0  0  0  0  0
   12.0707   21.9943   14.5953 C   0  0  0  0  0  0  0  0  0  0  0  0
   11.4650   21.0143   13.8279 C   0  0  0  0  0  0  0  0  0  0  0  0
   12.2578   20.2066   13.0343 C   0  0  0  0  0  0  0  0  0  0  0  0
   13.6411   20.2707   13.1092 C   0  0  0  0  0  0  0  0  0  0  0  0
   14.2621   21.2024   13.9319 C   0  0  0  0  0  0  0  0  0  0  0  0
   13.4549   22.0500   14.6818 C   0  0  0  0  0  0  0  0  0  0  0  0
 16 15  1  0  0  0
  9 15  1  0  0  0
 10  9  2  0  0  0
  9 14  1  0  0  0
 11 10  1  0  0  0
 11 12  2  0  0  0
  6 12  1  0  0  0
 12 13  1  0  0  0
 13 14  2  0  0  0
  8  6  2  0  0  0
  5  6  1  0  0  0
  6  7  2  0  0  0
 17  5  1  0  0  0
  5  4  1  0  0  0
 18 17  1  0  0  0
 20 18  1  0  0  0
 19 18  1  0  0  0
 23 19  1  0  0  0
 21 20  1  0  0  0
 22 21  2  0  0  0
 21 23  1  0  0  0
  1  4  1  0  0  0
  1 25  1  0  0  0
  1  2  1  0  0  0
 26 25  1  0  0  0
 25 39  1  0  0  0
 27 26  1  0  0  0
 28 27  2  0  0  0
 30 27  1  0  0  0
 32 30  1  0  0  0
 32 31  1  0  0  0
 31 38  1  0  0  0
 33 32  1  0  0  0
 33 34  1  0  0  0
 34 38  1  0  0  0
 34 35  1  0  0  0
 35 36  1  0  0  0
 37 36  1  0  0  0
 38 37  1  0  0  0
 39 45  1  0  0  0
 45 40  2  0  0  0
 40 41  1  0  0  0
 42 41  2  0  0  0
 43 42  1  0  0  0
 44 43  2  0  0  0
 44 45  1  0  0  0
 20 24  1  0  0  0
  2  3  1  0  0  0
 26 29  1  0  0  0
M  END
> <minimizedAffinity>
-10.35452

$$$$
3H5B_031_B_404


 45 49  0  0  0  0  0  0  0  0999 V2000
   16.0098   24.4372   18.0665 C   0  0  0  0  0  0  0  0  0  0  0  0
   15.3835   25.5532   18.6539 O   0  0  0  0  0  0  0  0  0  0  0  0
   15.4278   25.4775   19.6199 H   0  0  0  0  0  0  0  0  0  0  0  0
   15.2985   23.1080   18.1841 C   0  0  0  0  0  0  0  0  0  0  0  0
   15.9253   22.1428   17.2848 N   0  0  0  0  0  0  0  0  0  0  0  0
   16.4833   20.8203   18.0355 S   0  0  0  0  0  0  0  0  0  0  0  0
   17.2616   21.2733   19.2344 O   0  0  0  0  0  0  0  0  0  0  0  0
   17.3776   20.0495   17.1213 O   0  0  0  0  0  0  0  0  0  0  0  0
   13.2004   17.9350   19.3278 C   0  0  0  0  0  0  0  0  0  0  0  0
   13.2900   19.1811   19.9247 C   0  0  0  0  0  0  0  0  0  0  0  0
   14.2652   20.1051   19.5360 C   0  0  0  0  0  0  0  0  0  0  0  0
   15.1791   19.7682   18.5480 C   0  0  0  0  0  0  0  0  0  0  0  0
   15.0529   18.5251   17.9626 C   0  0  0  0  0  0  0  0  0  0  0  0
   14.0740   17.6118   18.2940 C   0  0  0  0  0  0  0  0  0  0  0  0
   12.1949   17.0712   19.6135 O   0  0  0  0  0  0  0  0  0  0  0  0
   11.8313   17.2132   20.9828 C   0  0  0  0  0  0  0  0  0  0  0  0
   15.1877   21.8810   16.0675 C   0  0  0  0  0  0  0  0  0  0  0  0
   13.7417   22.3407   16.2042 C   0  0  0  0  0  0  0  0  0  0  0  0
   13.2017   22.9779   14.9181 C   0  0  0  0  0  0  0  0  0  0  0  0
   12.8431   21.2071   16.4444 N   0  0  0  0  0  0  0  0  0  0  0  0
   12.3550   20.7806   15.3011 C   0  0  0  0  0  0  0  0  0  0  0  0
   11.8341   19.6899   15.1607 O   0  0  0  0  0  0  0  0  0  0  0  0
   12.5268   21.8116   14.2009 C   0  0  0  0  0  0  0  0  0  0  0  0
   12.6369   20.8238   17.3275 H   0  0  0  0  0  0  0  0  0  0  0  0
   17.4960   24.3964   18.3642 C   0  0  0  0  0  0  0  0  0  0  0  0
   18.1277   25.5273   17.6923 N   0  0  0  0  0  0  0  0  0  0  0  0
   18.3430   25.7051   16.4001 C   0  0  0  0  0  0  0  0  0  0  0  0
   17.8091   25.0298   15.5173 O   0  0  0  0  0  0  0  0  0  0  0  0
   18.4345   26.2552   18.2799 H   0  0  0  0  0  0  0  0  0  0  0  0
   19.2132   26.6992   16.0797 O   0  0  0  0  0  0  0  0  0  0  0  0
   21.0120   25.8884   14.6457 C   0  0  0  0  0  0  0  0  0  0  0  0
   19.6794   26.6266   14.7327 C   0  0  0  0  0  0  0  0  0  0  0  0
   20.0204   28.0570   14.2872 C   0  0  0  0  0  0  0  0  0  0  0  0
   21.4187   28.2917   14.8540 C   0  0  0  0  0  0  0  0  0  0  0  0
   21.3731   28.5898   16.2473 O   0  0  0  0  0  0  0  0  0  0  0  0
   22.6170   28.1231   16.7777 C   0  0  0  0  0  0  0  0  0  0  0  0
   22.9175   26.8234   16.0243 C   0  0  0  0  0  0  0  0  0  0  0  0
   22.1105   26.9419   14.7324 C   0  0  0  0  0  0  0  0  0  0  0  0
   17.7408   24.4818   19.8706 C   0  0  0  0  0  0  0  0  0  0  0  0
   20.0417   23.4951   19.5916 C   0  0  0  0  0  0  0  0  0  0  0  0
   21.3924   23.4476   19.8908 C   0  0  0  0  0  0  0  0  0  0  0  0
   21.9504   24.4857   20.6129 C   0  0  0  0  0  0  0  0  0  0  0  0
   21.1558   25.4840   21.1564 C   0  0  0  0  0  0  0  0  0  0  0  0
   19.7861   25.5025   20.9237 C   0  0  0  0  0  0  0  0  0  0  0  0
   19.2434   24.4857   20.1465 C   0  0  0  0  0  0  0  0  0  0  0  0
 16 15  1  0  0  0
  9 15  1  0  0  0
 10  9  2  0  0  0
  9 14  1  0  0  0
 11 10  1  0  0  0
 11 12  2  0  0  0
  6 12  1  0  0  0
 12 13  1  0  0  0
 13 14  2  0  0  0
  8  6  2  0  0  0
  5  6  1  0  0  0
  6  7  2  0  0  0
 17  5  1  0  0  0
  5  4  1  0  0  0
 18 17  1  0  0  0
 20 18  1  0  0  0
 19 18  1  0  0  0
 23 19  1  0  0  0
 21 20  1  0  0  0
 22 21  2  0  0  0
 21 23  1  0  0  0
  1  4  1  0  0  0
  1 25  1  0  0  0
  1  2  1  0  0  0
 26 25  1  0  0  0
 25 39  1  0  0  0
 27 26  1  0  0  0
 28 27  2  0  0  0
 30 27  1  0  0  0
 32 30  1  0  0  0
 32 31  1  0  0  0
 31 38  1  0  0  0
 33 32  1  0  0  0
 33 34  1  0  0  0
 34 38  1  0  0  0
 34 35  1  0  0  0
 35 36  1  0  0  0
 37 36  1  0  0  0
 38 37  1  0  0  0
 39 45  1  0  0  0
 45 40  2  0  0  0
 40 41  1  0  0  0
 42 41  2  0  0  0
 43 42  1  0  0  0
 44 43  2  0  0  0
 44 45  1  0  0  0
 20 24  1  0  0  0
  2  3  1  0  0  0
 26 29  1  0  0  0
M  END
> <minimizedAffinity>
-10.23284

$$$$
3H5B_031_B_404


 45 49  0  0  0  0  0  0  0  0999 V2000
   17.1855   21.8628   17.8982 C   0  0  0  0  0  0  0  0  0  0  0  0
   17.9210   21.1752   18.8826 O   0  0  0  0  0  0  0  0  0  0  0  0
   18.7680   20.8847   18.5094 H   0  0  0  0  0  0  0  0  0  0  0  0
   16.6189   21.0403   16.7628 C   0  0  0  0  0  0  0  0  0  0  0  0
   15.1938   21.3272   16.6219 N   0  0  0  0  0  0  0  0  0  0  0  0
   14.8145   22.0791   15.2382 S   0  0  0  0  0  0  0  0  0  0  0  0
   16.0476   22.1098   14.3856 O   0  0  0  0  0  0  0  0  0  0  0  0
   14.3662   23.4756   15.5187 O   0  0  0  0  0  0  0  0  0  0  0  0
   11.3787   20.0822   13.0069 C   0  0  0  0  0  0  0  0  0  0  0  0
   12.6724   19.6249   12.8215 C   0  0  0  0  0  0  0  0  0  0  0  0
   13.7497   20.1925   13.5093 C   0  0  0  0  0  0  0  0  0  0  0  0
   13.5311   21.2491   14.3813 C   0  0  0  0  0  0  0  0  0  0  0  0
   12.2289   21.6707   14.5553 C   0  0  0  0  0  0  0  0  0  0  0  0
   11.1425   21.1007   13.9252 C   0  0  0  0  0  0  0  0  0  0  0  0
   10.3113   19.4725   12.4343 O   0  0  0  0  0  0  0  0  0  0  0  0
   10.3913   19.6201   11.0204 C   0  0  0  0  0  0  0  0  0  0  0  0
   14.3172   20.2309   16.9741 C   0  0  0  0  0  0  0  0  0  0  0  0
   13.3474   20.6478   18.0726 C   0  0  0  0  0  0  0  0  0  0  0  0
   11.9847   19.9554   17.9498 C   0  0  0  0  0  0  0  0  0  0  0  0
   13.8348   20.2427   19.3950 N   0  0  0  0  0  0  0  0  0  0  0  0
   13.3276   19.0727   19.7130 C   0  0  0  0  0  0  0  0  0  0  0  0
   13.7795   18.3640   20.5928 O   0  0  0  0  0  0  0  0  0  0  0  0
   12.1265   18.7314   18.8507 C   0  0  0  0  0  0  0  0  0  0  0  0
   14.4484   20.7672   19.9586 H   0  0  0  0  0  0  0  0  0  0  0  0
   17.8636   23.1523   17.4781 C   0  0  0  0  0  0  0  0  0  0  0  0
   18.7884   23.5475   18.5353 N   0  0  0  0  0  0  0  0  0  0  0  0
   18.5595   24.3108   19.5902 C   0  0  0  0  0  0  0  0  0  0  0  0
   17.4313   24.6175   19.9821 O   0  0  0  0  0  0  0  0  0  0  0  0
   19.7054   23.1992   18.4519 H   0  0  0  0  0  0  0  0  0  0  0  0
   19.6644   24.7599   20.2427 O   0  0  0  0  0  0  0  0  0  0  0  0
   22.0684   24.3662   20.1201 C   0  0  0  0  0  0  0  0  0  0  0  0
   20.8141   24.8561   19.4024 C   0  0  0  0  0  0  0  0  0  0  0  0
   21.0849   26.3495   19.1642 C   0  0  0  0  0  0  0  0  0  0  0  0
   21.8488   26.7851   20.4124 C   0  0  0  0  0  0  0  0  0  0  0  0
   20.9714   26.9803   21.5189 O   0  0  0  0  0  0  0  0  0  0  0  0
   21.7570   26.7022   22.6817 C   0  0  0  0  0  0  0  0  0  0  0  0
   22.6570   25.5254   22.2917 C   0  0  0  0  0  0  0  0  0  0  0  0
   22.7159   25.5859   20.7662 C   0  0  0  0  0  0  0  0  0  0  0  0
   18.6245   22.9524   16.1675 C   0  0  0  0  0  0  0  0  0  0  0  0
   17.9138   25.1643   15.1938 C   0  0  0  0  0  0  0  0  0  0  0  0
   18.1934   26.3682   14.5704 C   0  0  0  0  0  0  0  0  0  0  0  0
   19.5115   26.7690   14.4592 C   0  0  0  0  0  0  0  0  0  0  0  0
   20.5472   25.9239   14.8284 C   0  0  0  0  0  0  0  0  0  0  0  0
   20.2798   24.6810   15.3888 C   0  0  0  0  0  0  0  0  0  0  0  0
   18.9494   24.3118   15.5507 C   0  0  0  0  0  0  0  0  0  0  0  0
 16 15  1  0  0  0
  9 15  1  0  0  0
 10  9  2  0  0  0
  9 14  1  0  0  0
 11 10  1  0  0  0
 11 12  2  0  0  0
  6 12  1  0  0  0
 12 13  1  0  0  0
 13 14  2  0  0  0
  8  6  2  0  0  0
  5  6  1  0  0  0
  6  7  2  0  0  0
 17  5  1  0  0  0
  5  4  1  0  0  0
 18 17  1  0  0  0
 20 18  1  0  0  0
 19 18  1  0  0  0
 23 19  1  0  0  0
 21 20  1  0  0  0
 22 21  2  0  0  0
 21 23  1  0  0  0
  1  4  1  0  0  0
  1 25  1  0  0  0
  1  2  1  0  0  0
 26 25  1  0  0  0
 25 39  1  0  0  0
 27 26  1  0  0  0
 28 27  2  0  0  0
 30 27  1  0  0  0
 32 30  1  0  0  0
 32 31  1  0  0  0
 31 38  1  0  0  0
 33 32  1  0  0  0
 33 34  1  0  0  0
 34 38  1  0  0  0
 34 35  1  0  0  0
 35 36  1  0  0  0
 37 36  1  0  0  0
 38 37  1  0  0  0
 39 45  1  0  0  0
 45 40  2  0  0  0
 40 41  1  0  0  0
 42 41  2  0  0  0
 43 42  1  0  0  0
 44 43  2  0  0  0
 44 45  1  0  0  0
 20 24  1  0  0  0
  2  3  1  0  0  0
 26 29  1  0  0  0
M  END
> <minimizedAffinity>
-10.17214

$$$$
3H5B_031_B_404


 45 49  0  0  0  0  0  0  0  0999 V2000
   17.3386   21.5945   16.8269 C   0  0  0  0  0  0  0  0  0  0  0  0
   18.2712   20.5420   16.7539 O   0  0  0  0  0  0  0  0  0  0  0  0
   19.0511   20.7636   17.2864 H   0  0  0  0  0  0  0  0  0  0  0  0
   17.6945   22.8799   16.1141 C   0  0  0  0  0  0  0  0  0  0  0  0
   16.5508   23.7874   16.1533 N   0  0  0  0  0  0  0  0  0  0  0  0
   16.9606   25.3439   16.3358 S   0  0  0  0  0  0  0  0  0  0  0  0
   16.5222   25.7712   17.7046 O   0  0  0  0  0  0  0  0  0  0  0  0
   16.2730   26.1801   15.3073 O   0  0  0  0  0  0  0  0  0  0  0  0
   21.4241   26.0630   15.7599 C   0  0  0  0  0  0  0  0  0  0  0  0
   20.9171   25.8967   17.0376 C   0  0  0  0  0  0  0  0  0  0  0  0
   19.5584   25.6460   17.2538 C   0  0  0  0  0  0  0  0  0  0  0  0
   18.6891   25.5813   16.1745 C   0  0  0  0  0  0  0  0  0  0  0  0
   19.2285   25.7357   14.9139 C   0  0  0  0  0  0  0  0  0  0  0  0
   20.5703   25.9390   14.6681 C   0  0  0  0  0  0  0  0  0  0  0  0
   22.7530   26.1958   15.5250 O   0  0  0  0  0  0  0  0  0  0  0  0
   23.3564   26.8737   16.6220 C   0  0  0  0  0  0  0  0  0  0  0  0
   15.5470   23.5413   15.1405 C   0  0  0  0  0  0  0  0  0  0  0  0
   14.1487   23.5961   15.7430 C   0  0  0  0  0  0  0  0  0  0  0  0
   13.0593   23.8115   14.6856 C   0  0  0  0  0  0  0  0  0  0  0  0
   13.7890   22.3203   16.3702 N   0  0  0  0  0  0  0  0  0  0  0  0
   13.1356   21.5735   15.5085 C   0  0  0  0  0  0  0  0  0  0  0  0
   12.9806   20.3743   15.6442 O   0  0  0  0  0  0  0  0  0  0  0  0
   12.6118   22.3928   14.3434 C   0  0  0  0  0  0  0  0  0  0  0  0
   14.0041   22.0626   17.2957 H   0  0  0  0  0  0  0  0  0  0  0  0
   16.7884   21.7713   18.2287 C   0  0  0  0  0  0  0  0  0  0  0  0
   15.5240   21.0482   18.3176 N   0  0  0  0  0  0  0  0  0  0  0  0
   14.4240   21.3848   18.9691 C   0  0  0  0  0  0  0  0  0  0  0  0
   14.2115   22.5138   19.4173 O   0  0  0  0  0  0  0  0  0  0  0  0
   15.4849   20.1957   17.8268 H   0  0  0  0  0  0  0  0  0  0  0  0
   13.5085   20.3930   19.1302 O   0  0  0  0  0  0  0  0  0  0  0  0
   14.0875   18.0304   18.9502 C   0  0  0  0  0  0  0  0  0  0  0  0
   14.0187   19.2662   19.8425 C   0  0  0  0  0  0  0  0  0  0  0  0
   12.9817   18.8914   20.9124 C   0  0  0  0  0  0  0  0  0  0  0  0
   11.9551   18.0580   20.1489 C   0  0  0  0  0  0  0  0  0  0  0  0
   11.0752   18.8831   19.3890 O   0  0  0  0  0  0  0  0  0  0  0  0
   10.6739   18.0845   18.2720 C   0  0  0  0  0  0  0  0  0  0  0  0
   11.9205   17.2883   17.8733 C   0  0  0  0  0  0  0  0  0  0  0  0
   12.7777   17.2729   19.1379 C   0  0  0  0  0  0  0  0  0  0  0  0
   17.7745   21.2262   19.2615 C   0  0  0  0  0  0  0  0  0  0  0  0
   19.9075   22.3305   20.0209 C   0  0  0  0  0  0  0  0  0  0  0  0
   20.5916   23.3414   20.6738 C   0  0  0  0  0  0  0  0  0  0  0  0
   19.8946   24.4672   21.0706 C   0  0  0  0  0  0  0  0  0  0  0  0
   18.5142   24.5292   20.9536 C   0  0  0  0  0  0  0  0  0  0  0  0
   17.8071   23.4878   20.3653 C   0  0  0  0  0  0  0  0  0  0  0  0
   18.5245   22.3851   19.9160 C   0  0  0  0  0  0  0  0  0  0  0  0
 16 15  1  0  0  0
  9 15  1  0  0  0
 10  9  2  0  0  0
  9 14  1  0  0  0
 11 10  1  0  0  0
 11 12  2  0  0  0
  6 12  1  0  0  0
 12 13  1  0  0  0
 13 14  2  0  0  0
  8  6  2  0  0  0
  5  6  1  0  0  0
  6  7  2  0  0  0
 17  5  1  0  0  0
  5  4  1  0  0  0
 18 17  1  0  0  0
 20 18  1  0  0  0
 19 18  1  0  0  0
 23 19  1  0  0  0
 21 20  1  0  0  0
 22 21  2  0  0  0
 21 23  1  0  0  0
  1  4  1  0  0  0
  1 25  1  0  0  0
  1  2  1  0  0  0
 26 25  1  0  0  0
 25 39  1  0  0  0
 27 26  1  0  0  0
 28 27  2  0  0  0
 30 27  1  0  0  0
 32 30  1  0  0  0
 32 31  1  0  0  0
 31 38  1  0  0  0
 33 32  1  0  0  0
 33 34  1  0  0  0
 34 38  1  0  0  0
 34 35  1  0  0  0
 35 36  1  0  0  0
 37 36  1  0  0  0
 38 37  1  0  0  0
 39 45  1  0  0  0
 45 40  2  0  0  0
 40 41  1  0  0  0
 42 41  2  0  0  0
 43 42  1  0  0  0
 44 43  2  0  0  0
 44 45  1  0  0  0
 20 24  1  0  0  0
  2  3  1  0  0  0
 26 29  1  0  0  0
M  END
> <minimizedAffinity>
-10.03596

$$$$
3H5B_031_B_404


 45 49  0  0  0  0  0  0  0  0999 V2000
   16.0932   20.9274   18.2465 C   0  0  0  0  0  0  0  0  0  0  0  0
   16.4085   19.9664   17.2668 O   0  0  0  0  0  0  0  0  0  0  0  0
   16.0299   20.2362   16.4155 H   0  0  0  0  0  0  0  0  0  0  0  0
   14.6517   21.0032   18.6970 C   0  0  0  0  0  0  0  0  0  0  0  0
   13.8891   19.9320   18.0613 N   0  0  0  0  0  0  0  0  0  0  0  0
   13.8637   18.5556   18.9149 S   0  0  0  0  0  0  0  0  0  0  0  0
   14.1152   18.9072   20.3507 O   0  0  0  0  0  0  0  0  0  0  0  0
   14.9329   17.6318   18.4320 O   0  0  0  0  0  0  0  0  0  0  0  0
    9.9403   16.2810   18.4621 C   0  0  0  0  0  0  0  0  0  0  0  0
   10.1205   17.1255   19.5444 C   0  0  0  0  0  0  0  0  0  0  0  0
   11.2985   17.8624   19.7035 C   0  0  0  0  0  0  0  0  0  0  0  0
   12.3214   17.7357   18.7749 C   0  0  0  0  0  0  0  0  0  0  0  0
   12.1041   16.8981   17.7002 C   0  0  0  0  0  0  0  0  0  0  0  0
   10.9360   16.1943   17.4939 C   0  0  0  0  0  0  0  0  0  0  0  0
    8.7642   15.6457   18.2335 O   0  0  0  0  0  0  0  0  0  0  0  0
    8.1330   15.3678   19.4791 C   0  0  0  0  0  0  0  0  0  0  0  0
   12.6062   20.3360   17.5272 C   0  0  0  0  0  0  0  0  0  0  0  0
   12.5196   20.0236   16.0386 C   0  0  0  0  0  0  0  0  0  0  0  0
   11.8430   21.1439   15.2396 C   0  0  0  0  0  0  0  0  0  0  0  0
   13.8534   19.9140   15.4391 N   0  0  0  0  0  0  0  0  0  0  0  0
   14.2085   21.0756   14.9372 C   0  0  0  0  0  0  0  0  0  0  0  0
   15.3574   21.3596   14.6544 O   0  0  0  0  0  0  0  0  0  0  0  0
   13.0155   21.9971   14.7626 C   0  0  0  0  0  0  0  0  0  0  0  0
   14.3995   19.0952   15.4162 H   0  0  0  0  0  0  0  0  0  0  0  0
   16.7459   22.2660   17.9616 C   0  0  0  0  0  0  0  0  0  0  0  0
   17.4798   22.6791   19.1534 N   0  0  0  0  0  0  0  0  0  0  0  0
   17.6089   23.8911   19.6651 C   0  0  0  0  0  0  0  0  0  0  0  0
   16.9073   24.8511   19.3383 O   0  0  0  0  0  0  0  0  0  0  0  0
   17.9404   21.9588   19.6415 H   0  0  0  0  0  0  0  0  0  0  0  0
   18.5871   24.0350   20.5981 O   0  0  0  0  0  0  0  0  0  0  0  0
   20.7936   23.4016   21.4225 C   0  0  0  0  0  0  0  0  0  0  0  0
   19.7514   23.2587   20.3172 C   0  0  0  0  0  0  0  0  0  0  0  0
   20.4311   23.8791   19.0869 C   0  0  0  0  0  0  0  0  0  0  0  0
   21.2352   25.0424   19.6626 C   0  0  0  0  0  0  0  0  0  0  0  0
   20.4021   26.1656   19.9392 O   0  0  0  0  0  0  0  0  0  0  0  0
   21.0344   26.8510   21.0240 C   0  0  0  0  0  0  0  0  0  0  0  0
   21.5914   25.7491   21.9310 C   0  0  0  0  0  0  0  0  0  0  0  0
   21.7250   24.5364   21.0114 C   0  0  0  0  0  0  0  0  0  0  0  0
   17.7017   22.1515   16.7743 C   0  0  0  0  0  0  0  0  0  0  0  0
   19.2110   23.9269   15.8174 C   0  0  0  0  0  0  0  0  0  0  0  0
   19.4352   25.2015   15.3262 C   0  0  0  0  0  0  0  0  0  0  0  0
   18.3472   26.0039   15.0380 C   0  0  0  0  0  0  0  0  0  0  0  0
   17.0604   25.6057   15.3679 C   0  0  0  0  0  0  0  0  0  0  0  0
   16.8293   24.3560   15.9296 C   0  0  0  0  0  0  0  0  0  0  0  0
   17.9253   23.5327   16.1610 C   0  0  0  0  0  0  0  0  0  0  0  0
 16 15  1  0  0  0
  9 15  1  0  0  0
 10  9  2  0  0  0
  9 14  1  0  0  0
 11 10  1  0  0  0
 11 12  2  0  0  0
  6 12  1  0  0  0
 12 13  1  0  0  0
 13 14  2  0  0  0
  8  6  2  0  0  0
  5  6  1  0  0  0
  6  7  2  0  0  0
 17  5  1  0  0  0
  5  4  1  0  0  0
 18 17  1  0  0  0
 20 18  1  0  0  0
 19 18  1  0  0  0
 23 19  1  0  0  0
 21 20  1  0  0  0
 22 21  2  0  0  0
 21 23  1  0  0  0
  1  4  1  0  0  0
  1 25  1  0  0  0
  1  2  1  0  0  0
 26 25  1  0  0  0
 25 39  1  0  0  0
 27 26  1  0  0  0
 28 27  2  0  0  0
 30 27  1  0  0  0
 32 30  1  0  0  0
 32 31  1  0  0  0
 31 38  1  0  0  0
 33 32  1  0  0  0
 33 34  1  0  0  0
 34 38  1  0  0  0
 34 35  1  0  0  0
 35 36  1  0  0  0
 37 36  1  0  0  0
 38 37  1  0  0  0
 39 45  1  0  0  0
 45 40  2  0  0  0
 40 41  1  0  0  0
 42 41  2  0  0  0
 43 42  1  0  0  0
 44 43  2  0  0  0
 44 45  1  0  0  0
 20 24  1  0  0  0
  2  3  1  0  0  0
 26 29  1  0  0  0
M  END
> <minimizedAffinity>
-9.80995

$$$$
3H5B_031_B_404


 45 49  0  0  0  0  0  0  0  0999 V2000
   17.6188   22.4130   16.9984 C   0  0  0  0  0  0  0  0  0  0  0  0
   18.3262   21.3021   16.5002 O   0  0  0  0  0  0  0  0  0  0  0  0
   18.4576   21.4046   15.5446 H   0  0  0  0  0  0  0  0  0  0  0  0
   16.1594   22.5261   16.6187 C   0  0  0  0  0  0  0  0  0  0  0  0
   15.4453   21.3398   17.0833 N   0  0  0  0  0  0  0  0  0  0  0  0
   14.8274   21.4934   18.5728 S   0  0  0  0  0  0  0  0  0  0  0  0
   14.1712   22.8391   18.6555 O   0  0  0  0  0  0  0  0  0  0  0  0
   15.9153   21.4045   19.5919 O   0  0  0  0  0  0  0  0  0  0  0  0
   11.8152   18.2452   19.6442 C   0  0  0  0  0  0  0  0  0  0  0  0
   11.5236   19.1409   18.6295 C   0  0  0  0  0  0  0  0  0  0  0  0
   12.4335   20.1336   18.2521 C   0  0  0  0  0  0  0  0  0  0  0  0
   13.6468   20.2447   18.9156 C   0  0  0  0  0  0  0  0  0  0  0  0
   13.9132   19.3273   19.9112 C   0  0  0  0  0  0  0  0  0  0  0  0
   13.0545   18.3107   20.2738 C   0  0  0  0  0  0  0  0  0  0  0  0
   10.9939   17.2097   19.9477 O   0  0  0  0  0  0  0  0  0  0  0  0
   11.3645   16.6744   21.2139 C   0  0  0  0  0  0  0  0  0  0  0  0
   14.5450   20.7555   16.1127 C   0  0  0  0  0  0  0  0  0  0  0  0
   14.1290   21.7887   15.0731 C   0  0  0  0  0  0  0  0  0  0  0  0
   14.1139   21.2193   13.6494 C   0  0  0  0  0  0  0  0  0  0  0  0
   12.7505   22.2384   15.2915 N   0  0  0  0  0  0  0  0  0  0  0  0
   11.9297   21.5162   14.5621 C   0  0  0  0  0  0  0  0  0  0  0  0
   10.7307   21.4592   14.7613 O   0  0  0  0  0  0  0  0  0  0  0  0
   12.6654   20.7764   13.4600 C   0  0  0  0  0  0  0  0  0  0  0  0
   12.4809   22.9698   15.8928 H   0  0  0  0  0  0  0  0  0  0  0  0
   18.4143   23.6977   16.8724 C   0  0  0  0  0  0  0  0  0  0  0  0
   19.2686   23.8231   18.0488 N   0  0  0  0  0  0  0  0  0  0  0  0
   18.9739   24.3309   19.2333 C   0  0  0  0  0  0  0  0  0  0  0  0
   17.8237   24.5633   19.6122 O   0  0  0  0  0  0  0  0  0  0  0  0
   20.1873   23.4843   17.9467 H   0  0  0  0  0  0  0  0  0  0  0  0
   20.0351   24.5971   20.0401 O   0  0  0  0  0  0  0  0  0  0  0  0
   22.4706   24.5280   20.1542 C   0  0  0  0  0  0  0  0  0  0  0  0
   21.2380   24.8620   19.3190 C   0  0  0  0  0  0  0  0  0  0  0  0
   21.3285   26.3827   19.1197 C   0  0  0  0  0  0  0  0  0  0  0  0
   21.9019   26.8900   20.4408 C   0  0  0  0  0  0  0  0  0  0  0  0
   20.9025   26.9445   21.4561 O   0  0  0  0  0  0  0  0  0  0  0  0
   21.6011   26.7492   22.6891 C   0  0  0  0  0  0  0  0  0  0  0  0
   22.6842   25.7102   22.3819 C   0  0  0  0  0  0  0  0  0  0  0  0
   22.8830   25.8092   20.8703 C   0  0  0  0  0  0  0  0  0  0  0  0
   19.2704   23.6729   15.6064 C   0  0  0  0  0  0  0  0  0  0  0  0
   18.5270   25.9740   14.9009 C   0  0  0  0  0  0  0  0  0  0  0  0
   18.7896   27.2503   14.4337 C   0  0  0  0  0  0  0  0  0  0  0  0
   20.1007   27.6861   14.3912 C   0  0  0  0  0  0  0  0  0  0  0  0
   21.1487   26.8214   14.6688 C   0  0  0  0  0  0  0  0  0  0  0  0
   20.8997   25.5143   15.0689 C   0  0  0  0  0  0  0  0  0  0  0  0
   19.5752   25.1035   15.1655 C   0  0  0  0  0  0  0  0  0  0  0  0
 16 15  1  0  0  0
  9 15  1  0  0  0
 10  9  2  0  0  0
  9 14  1  0  0  0
 11 10  1  0  0  0
 11 12  2  0  0  0
  6 12  1  0  0  0
 12 13  1  0  0  0
 13 14  2  0  0  0
  8  6  2  0  0  0
  5  6  1  0  0  0
  6  7  2  0  0  0
 17  5  1  0  0  0
  5  4  1  0  0  0
 18 17  1  0  0  0
 20 18  1  0  0  0
 19 18  1  0  0  0
 23 19  1  0  0  0
 21 20  1  0  0  0
 22 21  2  0  0  0
 21 23  1  0  0  0
  1  4  1  0  0  0
  1 25  1  0  0  0
  1  2  1  0  0  0
 26 25  1  0  0  0
 25 39  1  0  0  0
 27 26  1  0  0  0
 28 27  2  0  0  0
 30 27  1  0  0  0
 32 30  1  0  0  0
 32 31  1  0  0  0
 31 38  1  0  0  0
 33 32  1  0  0  0
 33 34  1  0  0  0
 34 38  1  0  0  0
 34 35  1  0  0  0
 35 36  1  0  0  0
 37 36  1  0  0  0
 38 37  1  0  0  0
 39 45  1  0  0  0
 45 40  2  0  0  0
 40 41  1  0  0  0
 42 41  2  0  0  0
 43 42  1  0  0  0
 44 43  2  0  0  0
 44 45  1  0  0  0
 20 24  1  0  0  0
  2  3  1  0  0  0
 26 29  1  0  0  0
M  END
> <minimizedAffinity>
-9.65755

$$$$
3H5B_031_B_404


 45 49  0  0  0  0  0  0  0  0999 V2000
   13.6292   21.1553   16.6632 C   0  0  0  0  0  0  0  0  0  0  0  0
   12.9028   22.1657   16.0044 O   0  0  0  0  0  0  0  0  0  0  0  0
   12.6765   21.8697   15.1088 H   0  0  0  0  0  0  0  0  0  0  0  0
   15.0416   20.9009   16.1864 C   0  0  0  0  0  0  0  0  0  0  0  0
   15.8851   22.0383   16.5442 N   0  0  0  0  0  0  0  0  0  0  0  0
   16.0849   23.1048   15.3414 S   0  0  0  0  0  0  0  0  0  0  0  0
   14.8980   24.0210   15.3454 O   0  0  0  0  0  0  0  0  0  0  0  0
   16.1620   22.3928   14.0311 O   0  0  0  0  0  0  0  0  0  0  0  0
   19.7886   25.6958   15.9251 C   0  0  0  0  0  0  0  0  0  0  0  0
   19.8703   24.3291   16.1317 C   0  0  0  0  0  0  0  0  0  0  0  0
   18.7637   23.4967   15.9354 C   0  0  0  0  0  0  0  0  0  0  0  0
   17.5498   24.0441   15.5461 C   0  0  0  0  0  0  0  0  0  0  0  0
   17.5060   25.4068   15.3337 C   0  0  0  0  0  0  0  0  0  0  0  0
   18.5918   26.2453   15.4757 C   0  0  0  0  0  0  0  0  0  0  0  0
   20.8768   26.5012   16.0026 O   0  0  0  0  0  0  0  0  0  0  0  0
   21.7884   26.1569   14.9646 C   0  0  0  0  0  0  0  0  0  0  0  0
   15.5924   22.6282   17.8328 C   0  0  0  0  0  0  0  0  0  0  0  0
   16.2382   21.8230   18.9533 C   0  0  0  0  0  0  0  0  0  0  0  0
   17.6576   21.3597   18.6038 C   0  0  0  0  0  0  0  0  0  0  0  0
   16.4164   22.6374   20.1597 N   0  0  0  0  0  0  0  0  0  0  0  0
   17.6196   23.1661   20.1616 C   0  0  0  0  0  0  0  0  0  0  0  0
   17.9358   24.1081   20.8639 O   0  0  0  0  0  0  0  0  0  0  0  0
   18.5428   22.4576   19.1876 C   0  0  0  0  0  0  0  0  0  0  0  0
   15.7382   22.7682   20.8612 H   0  0  0  0  0  0  0  0  0  0  0  0
   12.7954   19.9090   16.8878 C   0  0  0  0  0  0  0  0  0  0  0  0
   12.3362   19.4265   15.5894 N   0  0  0  0  0  0  0  0  0  0  0  0
   11.2225   19.7264   14.9435 C   0  0  0  0  0  0  0  0  0  0  0  0
   10.4927   20.6752   15.2401 O   0  0  0  0  0  0  0  0  0  0  0  0
   12.9362   18.7929   15.1334 H   0  0  0  0  0  0  0  0  0  0  0  0
   10.9069   18.9097   13.9035 O   0  0  0  0  0  0  0  0  0  0  0  0
   11.1517   19.8319   11.6587 C   0  0  0  0  0  0  0  0  0  0  0  0
   11.7955   19.0418   12.7944 C   0  0  0  0  0  0  0  0  0  0  0  0
   11.9988   17.6399   12.1995 C   0  0  0  0  0  0  0  0  0  0  0  0
   10.7738   17.4401   11.3103 C   0  0  0  0  0  0  0  0  0  0  0  0
    9.6227   17.0970   12.0781 O   0  0  0  0  0  0  0  0  0  0  0  0
    8.5064   17.5931   11.3336 C   0  0  0  0  0  0  0  0  0  0  0  0
    8.9740   18.9261   10.7407 C   0  0  0  0  0  0  0  0  0  0  0  0
   10.4979   18.8180   10.7266 C   0  0  0  0  0  0  0  0  0  0  0  0
   13.6259   18.8293   17.5813 C   0  0  0  0  0  0  0  0  0  0  0  0
   11.8419   17.3370   18.5489 C   0  0  0  0  0  0  0  0  0  0  0  0
   11.0833   16.8739   19.6101 C   0  0  0  0  0  0  0  0  0  0  0  0
   11.4490   17.2306   20.8944 C   0  0  0  0  0  0  0  0  0  0  0  0
   12.4628   18.1501   21.1177 C   0  0  0  0  0  0  0  0  0  0  0  0
   13.1846   18.6785   20.0545 C   0  0  0  0  0  0  0  0  0  0  0  0
   12.8474   18.2680   18.7699 C   0  0  0  0  0  0  0  0  0  0  0  0
 16 15  1  0  0  0
  9 15  1  0  0  0
 10  9  2  0  0  0
  9 14  1  0  0  0
 11 10  1  0  0  0
 11 12  2  0  0  0
  6 12  1  0  0  0
 12 13  1  0  0  0
 13 14  2  0  0  0
  8  6  2  0  0  0
  5  6  1  0  0  0
  6  7  2  0  0  0
 17  5  1  0  0  0
  5  4  1  0  0  0
 18 17  1  0  0  0
 20 18  1  0  0  0
 19 18  1  0  0  0
 23 19  1  0  0  0
 21 20  1  0  0  0
 22 21  2  0  0  0
 21 23  1  0  0  0
  1  4  1  0  0  0
  1 25  1  0  0  0
  1  2  1  0  0  0
 26 25  1  0  0  0
 25 39  1  0  0  0
 27 26  1  0  0  0
 28 27  2  0  0  0
 30 27  1  0  0  0
 32 30  1  0  0  0
 32 31  1  0  0  0
 31 38  1  0  0  0
 33 32  1  0  0  0
 33 34  1  0  0  0
 34 38  1  0  0  0
 34 35  1  0  0  0
 35 36  1  0  0  0
 37 36  1  0  0  0
 38 37  1  0  0  0
 39 45  1  0  0  0
 45 40  2  0  0  0
 40 41  1  0  0  0
 42 41  2  0  0  0
 43 42  1  0  0  0
 44 43  2  0  0  0
 44 45  1  0  0  0
 20 24  1  0  0  0
  2  3  1  0  0  0
 26 29  1  0  0  0
M  END
> <minimizedAffinity>
-9.62826

$$$$
3H5B_031_B_404


 45 49  0  0  0  0  0  0  0  0999 V2000
   18.3737   23.9100   17.1629 C   0  0  0  0  0  0  0  0  0  0  0  0
   19.1176   22.7339   16.9483 O   0  0  0  0  0  0  0  0  0  0  0  0
   18.5149   22.0049   16.7329 H   0  0  0  0  0  0  0  0  0  0  0  0
   17.5399   23.9765   18.4228 C   0  0  0  0  0  0  0  0  0  0  0  0
   18.0213   22.9788   19.3746 N   0  0  0  0  0  0  0  0  0  0  0  0
   18.6331   23.6161   20.7324 S   0  0  0  0  0  0  0  0  0  0  0  0
   18.8562   22.4930   21.7005 O   0  0  0  0  0  0  0  0  0  0  0  0
   17.6716   24.5970   21.3181 O   0  0  0  0  0  0  0  0  0  0  0  0
   22.5415   25.8745   20.1031 C   0  0  0  0  0  0  0  0  0  0  0  0
   22.4578   24.5393   19.7464 C   0  0  0  0  0  0  0  0  0  0  0  0
   21.2683   23.8195   19.8974 C   0  0  0  0  0  0  0  0  0  0  0  0
   20.1499   24.4410   20.4337 C   0  0  0  0  0  0  0  0  0  0  0  0
   20.2619   25.7760   20.7643 C   0  0  0  0  0  0  0  0  0  0  0  0
   21.4078   26.5221   20.5846 C   0  0  0  0  0  0  0  0  0  0  0  0
   23.6511   26.6155   19.8609 O   0  0  0  0  0  0  0  0  0  0  0  0
   24.6161   25.8085   19.1941 C   0  0  0  0  0  0  0  0  0  0  0  0
   17.1290   21.8585   19.5813 C   0  0  0  0  0  0  0  0  0  0  0  0
   16.0153   21.8576   18.5418 C   0  0  0  0  0  0  0  0  0  0  0  0
   16.1457   20.7047   17.5391 C   0  0  0  0  0  0  0  0  0  0  0  0
   14.7056   21.6411   19.1649 N   0  0  0  0  0  0  0  0  0  0  0  0
   14.4116   20.3604   19.1409 C   0  0  0  0  0  0  0  0  0  0  0  0
   13.5512   19.8578   19.8393 O   0  0  0  0  0  0  0  0  0  0  0  0
   15.2743   19.6076   18.1449 C   0  0  0  0  0  0  0  0  0  0  0  0
   14.1338   22.3474   19.5435 H   0  0  0  0  0  0  0  0  0  0  0  0
   17.6689   24.3756   15.9037 C   0  0  0  0  0  0  0  0  0  0  0  0
   18.5378   25.3273   15.2193 N   0  0  0  0  0  0  0  0  0  0  0  0
   19.8409   25.2530   15.0092 C   0  0  0  0  0  0  0  0  0  0  0  0
   20.5003   24.2210   15.1533 O   0  0  0  0  0  0  0  0  0  0  0  0
   18.0943   26.1325   14.8667 H   0  0  0  0  0  0  0  0  0  0  0  0
   20.4407   26.4081   14.6169 O   0  0  0  0  0  0  0  0  0  0  0  0
   20.8757   28.7723   15.0303 C   0  0  0  0  0  0  0  0  0  0  0  0
   20.0756   27.5320   15.4174 C   0  0  0  0  0  0  0  0  0  0  0  0
   20.5262   27.2366   16.8562 C   0  0  0  0  0  0  0  0  0  0  0  0
   22.0084   27.6034   16.8566 C   0  0  0  0  0  0  0  0  0  0  0  0
   22.7985   26.5813   16.2536 O   0  0  0  0  0  0  0  0  0  0  0  0
   23.9347   27.2534   15.7024 C   0  0  0  0  0  0  0  0  0  0  0  0
   23.3963   28.5795   15.1558 C   0  0  0  0  0  0  0  0  0  0  0  0
   22.1024   28.8103   15.9348 C   0  0  0  0  0  0  0  0  0  0  0  0
   17.3727   23.1880   14.9881 C   0  0  0  0  0  0  0  0  0  0  0  0
   15.3646   21.9517   14.1022 C   0  0  0  0  0  0  0  0  0  0  0  0
   13.9974   21.7950   13.9531 C   0  0  0  0  0  0  0  0  0  0  0  0
   13.1514   22.5689   14.7252 C   0  0  0  0  0  0  0  0  0  0  0  0
   13.6482   23.5854   15.5271 C   0  0  0  0  0  0  0  0  0  0  0  0
   15.0171   23.8004   15.6289 C   0  0  0  0  0  0  0  0  0  0  0  0
   15.8625   22.9777   14.8934 C   0  0  0  0  0  0  0  0  0  0  0  0
 16 15  1  0  0  0
  9 15  1  0  0  0
 10  9  2  0  0  0
  9 14  1  0  0  0
 11 10  1  0  0  0
 11 12  2  0  0  0
  6 12  1  0  0  0
 12 13  1  0  0  0
 13 14  2  0  0  0
  8  6  2  0  0  0
  5  6  1  0  0  0
  6  7  2  0  0  0
 17  5  1  0  0  0
  5  4  1  0  0  0
 18 17  1  0  0  0
 20 18  1  0  0  0
 19 18  1  0  0  0
 23 19  1  0  0  0
 21 20  1  0  0  0
 22 21  2  0  0  0
 21 23  1  0  0  0
  1  4  1  0  0  0
  1 25  1  0  0  0
  1  2  1  0  0  0
 26 25  1  0  0  0
 25 39  1  0  0  0
 27 26  1  0  0  0
 28 27  2  0  0  0
 30 27  1  0  0  0
 32 30  1  0  0  0
 32 31  1  0  0  0
 31 38  1  0  0  0
 33 32  1  0  0  0
 33 34  1  0  0  0
 34 38  1  0  0  0
 34 35  1  0  0  0
 35 36  1  0  0  0
 37 36  1  0  0  0
 38 37  1  0  0  0
 39 45  1  0  0  0
 45 40  2  0  0  0
 40 41  1  0  0  0
 42 41  2  0  0  0
 43 42  1  0  0  0
 44 43  2  0  0  0
 44 45  1  0  0  0
 20 24  1  0  0  0
  2  3  1  0  0  0
 26 29  1  0  0  0
M  END
> <minimizedAffinity>
-9.48581

$$$$
