3OY0_OY0_A_263


 24 24  0  0  0  0  0  0  0  0999 V2000
   -5.0384    5.1559   11.6481 O   0  0  0  0  0  0  0  0  0  0  0  0
   -4.7588    6.1357   13.7153 N   0  0  0  0  0  0  0  0  0  0  0  0
   -4.8060    6.1762   12.2711 C   0  0  0  0  0  0  0  0  0  0  0  0
   -4.5982    6.9747   14.2047 H   0  0  0  0  0  0  0  0  0  0  0  0
   -6.1824    4.7332   15.0618 C   0  0  0  0  0  0  0  0  0  0  0  0
   -3.9582    3.9342   14.7148 C   0  0  0  0  0  0  0  0  0  0  0  0
   -6.4880    3.6015   15.8109 C   0  0  0  0  0  0  0  0  0  0  0  0
   -4.2491    2.8060   15.5031 C   0  0  0  0  0  0  0  0  0  0  0  0
   -4.9383    4.9092   14.4778 C   0  0  0  0  0  0  0  0  0  0  0  0
   -5.5370    2.6320   16.0624 C   0  0  0  0  0  0  0  0  0  0  0  0
   -5.2889   -0.1195   16.5015 N   0  0  0  0  0  0  0  0  0  0  0  0
   -7.5061    1.1843   16.9787 O   0  0  0  0  0  0  0  0  0  0  0  0
   -5.5815    1.5841   18.4255 O   0  0  0  0  0  0  0  0  0  0  0  0
   -6.0350    1.2414   17.0673 S   0  0  0  0  0  0  0  0  0  0  0  0
   -5.6262   -0.3262   15.5613 H   0  0  0  0  0  0  0  0  0  0  0  0
   -5.4993   -0.9041   17.1184 H   0  0  0  0  0  0  0  0  0  0  0  0
   -4.5888    7.4366   11.4787 C   0  0  0  0  0  0  0  0  0  0  0  0
   -5.9160    7.1740    9.3922 C   0  0  0  0  0  0  0  0  0  0  0  0
   -5.6769    9.3484   10.3904 C   0  0  0  0  0  0  0  0  0  0  0  0
   -7.0585    7.6832   11.4926 C   0  0  0  0  0  0  0  0  0  0  0  0
   -5.8041    7.8906   10.6936 C   0  0  0  0  0  0  0  0  0  0  0  0
   -3.3745    7.2573   10.6353 C   0  0  0  0  0  0  0  0  0  0  0  0
   -2.2636    8.9410   12.1790 C   0  0  0  0  0  0  0  0  0  0  0  0
   -2.1209    7.9260   11.0988 C   0  0  0  0  0  0  0  0  0  0  0  0
 18 21  1  0  0  0
 19 21  1  0  0  0
 20 21  1  0  0  0
 11 14  1  0  0  0
 12 14  2  0  0  0
  5  7  1  0  0  0
  6  8  2  0  0  0
  7 10  2  0  0  0
  8 10  1  0  0  0
 24 23  1  0  0  0
 22 24  1  0  0  0
  2  9  1  0  0  0
  3  1  2  0  0  0
  3  2  1  0  0  0
  9  5  2  0  0  0
  9  6  1  0  0  0
 10 14  1  0  0  0
 17 22  1  0  0  0
 17  3  1  0  0  0
 21 17  1  0  0  0
 14 13  2  0  0  0
 11 15  1  0  0  0
 11 16  1  0  0  0
  2  4  1  0  0  0
M  END
> <minimizedAffinity>
-6.95831

$$$$
3OY0_OY0_A_263


 24 24  0  0  0  0  0  0  0  0999 V2000
   -4.9235    4.3724   11.5131 O   0  0  0  0  0  0  0  0  0  0  0  0
   -4.5188    5.6357   13.3977 N   0  0  0  0  0  0  0  0  0  0  0  0
   -4.5921    5.4534   11.9656 C   0  0  0  0  0  0  0  0  0  0  0  0
   -4.2772    6.5237   13.7474 H   0  0  0  0  0  0  0  0  0  0  0  0
   -6.0483    4.5604   14.9180 C   0  0  0  0  0  0  0  0  0  0  0  0
   -3.8730    3.5856   14.7639 C   0  0  0  0  0  0  0  0  0  0  0  0
   -6.4356    3.5875   15.8339 C   0  0  0  0  0  0  0  0  0  0  0  0
   -4.2461    2.6217   15.7181 C   0  0  0  0  0  0  0  0  0  0  0  0
   -4.7865    4.5642   14.3454 C   0  0  0  0  0  0  0  0  0  0  0  0
   -5.5510    2.6184   16.2648 C   0  0  0  0  0  0  0  0  0  0  0  0
   -6.2426    2.1902   18.9413 N   0  0  0  0  0  0  0  0  0  0  0  0
   -5.2014    0.3155   17.4429 O   0  0  0  0  0  0  0  0  0  0  0  0
   -7.4812    1.0522   16.9764 O   0  0  0  0  0  0  0  0  0  0  0  0
   -6.1506    1.4441   17.4703 S   0  0  0  0  0  0  0  0  0  0  0  0
   -5.3054    2.4469   19.2516 H   0  0  0  0  0  0  0  0  0  0  0  0
   -6.6630    1.5546   19.6193 H   0  0  0  0  0  0  0  0  0  0  0  0
   -4.2847    6.5502   10.9827 C   0  0  0  0  0  0  0  0  0  0  0  0
   -2.4766    7.9836   11.9101 C   0  0  0  0  0  0  0  0  0  0  0  0
   -2.5124    7.4765    9.5600 C   0  0  0  0  0  0  0  0  0  0  0  0
   -1.9501    5.7229   11.1429 C   0  0  0  0  0  0  0  0  0  0  0  0
   -2.8176    6.9275   10.9160 C   0  0  0  0  0  0  0  0  0  0  0  0
   -5.1785    7.7054   11.2738 C   0  0  0  0  0  0  0  0  0  0  0  0
   -6.8555    7.0940    9.4667 C   0  0  0  0  0  0  0  0  0  0  0  0
   -6.6067    7.5824   10.8511 C   0  0  0  0  0  0  0  0  0  0  0  0
 18 21  1  0  0  0
 19 21  1  0  0  0
 20 21  1  0  0  0
 11 14  1  0  0  0
 12 14  2  0  0  0
  5  7  1  0  0  0
  6  8  2  0  0  0
  7 10  2  0  0  0
  8 10  1  0  0  0
 24 23  1  0  0  0
 22 24  1  0  0  0
  2  9  1  0  0  0
  3  1  2  0  0  0
  3  2  1  0  0  0
  9  5  2  0  0  0
  9  6  1  0  0  0
 10 14  1  0  0  0
 17 22  1  0  0  0
 17  3  1  0  0  0
 21 17  1  0  0  0
 14 13  2  0  0  0
 11 15  1  0  0  0
 11 16  1  0  0  0
  2  4  1  0  0  0
M  END
> <minimizedAffinity>
-6.72814

$$$$
3OY0_OY0_A_263


 24 24  0  0  0  0  0  0  0  0999 V2000
   -4.8656    4.4187   11.5478 O   0  0  0  0  0  0  0  0  0  0  0  0
   -4.2216    5.5919   13.4242 N   0  0  0  0  0  0  0  0  0  0  0  0
   -4.2658    5.3797   11.9949 C   0  0  0  0  0  0  0  0  0  0  0  0
   -3.7571    6.3891   13.7674 H   0  0  0  0  0  0  0  0  0  0  0  0
   -4.0567    3.6016   14.7726 C   0  0  0  0  0  0  0  0  0  0  0  0
   -6.1409    4.7638   14.8791 C   0  0  0  0  0  0  0  0  0  0  0  0
   -4.5191    2.6584   15.6846 C   0  0  0  0  0  0  0  0  0  0  0  0
   -6.6278    3.7922   15.7725 C   0  0  0  0  0  0  0  0  0  0  0  0
   -4.8337    4.6788   14.3779 C   0  0  0  0  0  0  0  0  0  0  0  0
   -5.8044    2.7187   16.1863 C   0  0  0  0  0  0  0  0  0  0  0  0
   -5.3017    0.1299   17.1193 N   0  0  0  0  0  0  0  0  0  0  0  0
   -7.7118    1.1421   17.0168 O   0  0  0  0  0  0  0  0  0  0  0  0
   -6.1391    2.0338   18.6568 O   0  0  0  0  0  0  0  0  0  0  0  0
   -6.2982    1.4316   17.3227 S   0  0  0  0  0  0  0  0  0  0  0  0
   -5.4384   -0.2606   16.1870 H   0  0  0  0  0  0  0  0  0  0  0  0
   -5.5202   -0.5784   17.8200 H   0  0  0  0  0  0  0  0  0  0  0  0
   -3.6065    6.3044   11.0080 C   0  0  0  0  0  0  0  0  0  0  0  0
   -1.6099    7.2920   12.1134 C   0  0  0  0  0  0  0  0  0  0  0  0
   -1.5318    6.7450    9.7733 C   0  0  0  0  0  0  0  0  0  0  0  0
   -1.5650    4.9512   11.4097 C   0  0  0  0  0  0  0  0  0  0  0  0
   -2.0926    6.3208   11.0919 C   0  0  0  0  0  0  0  0  0  0  0  0
   -4.2200    7.6543   11.1475 C   0  0  0  0  0  0  0  0  0  0  0  0
   -6.7482    7.8741   11.2572 C   0  0  0  0  0  0  0  0  0  0  0  0
   -5.5097    7.8915   10.4307 C   0  0  0  0  0  0  0  0  0  0  0  0
 18 21  1  0  0  0
 19 21  1  0  0  0
 20 21  1  0  0  0
 11 14  1  0  0  0
 12 14  2  0  0  0
  5  7  1  0  0  0
  6  8  2  0  0  0
  7 10  2  0  0  0
  8 10  1  0  0  0
 24 23  1  0  0  0
 22 24  1  0  0  0
  2  9  1  0  0  0
  3  1  2  0  0  0
  3  2  1  0  0  0
  9  5  2  0  0  0
  9  6  1  0  0  0
 10 14  1  0  0  0
 17 22  1  0  0  0
 17  3  1  0  0  0
 21 17  1  0  0  0
 14 13  2  0  0  0
 11 15  1  0  0  0
 11 16  1  0  0  0
  2  4  1  0  0  0
M  END
> <minimizedAffinity>
-6.62583

$$$$
3OY0_OY0_A_263


 24 24  0  0  0  0  0  0  0  0999 V2000
   -5.3680    5.3205   10.8029 O   0  0  0  0  0  0  0  0  0  0  0  0
   -4.8384    6.2771   12.8318 N   0  0  0  0  0  0  0  0  0  0  0  0
   -5.0730    6.3363   11.4066 C   0  0  0  0  0  0  0  0  0  0  0  0
   -4.6292    7.1122   13.3094 H   0  0  0  0  0  0  0  0  0  0  0  0
   -3.8952    4.1169   13.3323 C   0  0  0  0  0  0  0  0  0  0  0  0
   -5.8984    4.6776   14.5064 C   0  0  0  0  0  0  0  0  0  0  0  0
   -3.8312    2.8952   13.9947 C   0  0  0  0  0  0  0  0  0  0  0  0
   -5.8604    3.4281   15.1516 C   0  0  0  0  0  0  0  0  0  0  0  0
   -4.8979    5.0373   13.5916 C   0  0  0  0  0  0  0  0  0  0  0  0
   -4.8084    2.5176   14.8946 C   0  0  0  0  0  0  0  0  0  0  0  0
   -5.9615    0.6289   16.6058 N   0  0  0  0  0  0  0  0  0  0  0  0
   -3.3728    0.9513   16.4108 O   0  0  0  0  0  0  0  0  0  0  0  0
   -4.5729   -0.0305   14.5257 O   0  0  0  0  0  0  0  0  0  0  0  0
   -4.6394    0.9104   15.6562 S   0  0  0  0  0  0  0  0  0  0  0  0
   -5.9752    1.2971   17.3764 H   0  0  0  0  0  0  0  0  0  0  0  0
   -5.9165   -0.3194   16.9788 H   0  0  0  0  0  0  0  0  0  0  0  0
   -4.9806    7.6110   10.6127 C   0  0  0  0  0  0  0  0  0  0  0  0
   -7.3251    7.9302   11.3778 C   0  0  0  0  0  0  0  0  0  0  0  0
   -6.8495    7.7482    9.0279 C   0  0  0  0  0  0  0  0  0  0  0  0
   -6.1745    9.7517   10.2224 C   0  0  0  0  0  0  0  0  0  0  0  0
   -6.3207    8.2609   10.3281 C   0  0  0  0  0  0  0  0  0  0  0  0
   -4.1824    7.3421    9.3844 C   0  0  0  0  0  0  0  0  0  0  0  0
   -1.9164    8.3720    8.8780 C   0  0  0  0  0  0  0  0  0  0  0  0
   -2.6968    7.2892    9.5380 C   0  0  0  0  0  0  0  0  0  0  0  0
 18 21  1  0  0  0
 19 21  1  0  0  0
 20 21  1  0  0  0
 11 14  1  0  0  0
 12 14  2  0  0  0
  5  7  1  0  0  0
  6  8  2  0  0  0
  7 10  2  0  0  0
  8 10  1  0  0  0
 24 23  1  0  0  0
 22 24  1  0  0  0
  2  9  1  0  0  0
  3  1  2  0  0  0
  3  2  1  0  0  0
  9  5  2  0  0  0
  9  6  1  0  0  0
 10 14  1  0  0  0
 17 22  1  0  0  0
 17  3  1  0  0  0
 21 17  1  0  0  0
 14 13  2  0  0  0
 11 15  1  0  0  0
 11 16  1  0  0  0
  2  4  1  0  0  0
M  END
> <minimizedAffinity>
-6.61523

$$$$
3OY0_OY0_A_263


 24 24  0  0  0  0  0  0  0  0999 V2000
   -4.9480    4.0188   11.2636 O   0  0  0  0  0  0  0  0  0  0  0  0
   -4.0596    5.0868   13.1026 N   0  0  0  0  0  0  0  0  0  0  0  0
   -4.2991    4.9604   11.6826 C   0  0  0  0  0  0  0  0  0  0  0  0
   -3.5578    5.8691   13.4274 H   0  0  0  0  0  0  0  0  0  0  0  0
   -5.6914    4.4339   14.7511 C   0  0  0  0  0  0  0  0  0  0  0  0
   -3.8814    2.9117   14.4154 C   0  0  0  0  0  0  0  0  0  0  0  0
   -6.2501    3.5835   15.6997 C   0  0  0  0  0  0  0  0  0  0  0  0
   -4.4210    2.0653   15.4010 C   0  0  0  0  0  0  0  0  0  0  0  0
   -4.5276    4.1086   14.0731 C   0  0  0  0  0  0  0  0  0  0  0  0
   -5.6281    2.4033   16.0569 C   0  0  0  0  0  0  0  0  0  0  0  0
   -5.7195   -0.0851   17.3317 N   0  0  0  0  0  0  0  0  0  0  0  0
   -7.8533    1.3826   16.9624 O   0  0  0  0  0  0  0  0  0  0  0  0
   -6.1790    2.1392   18.5692 O   0  0  0  0  0  0  0  0  0  0  0  0
   -6.4210    1.4105   17.3129 S   0  0  0  0  0  0  0  0  0  0  0  0
   -5.9071   -0.5597   16.4485 H   0  0  0  0  0  0  0  0  0  0  0  0
   -6.1063   -0.6324   18.1006 H   0  0  0  0  0  0  0  0  0  0  0  0
   -3.7890    5.9530   10.6735 C   0  0  0  0  0  0  0  0  0  0  0  0
   -5.8636    7.1218   11.3902 C   0  0  0  0  0  0  0  0  0  0  0  0
   -5.2845    7.0378    9.0581 C   0  0  0  0  0  0  0  0  0  0  0  0
   -3.9710    8.4255   10.5566 C   0  0  0  0  0  0  0  0  0  0  0  0
   -4.7178    7.1282   10.4379 C   0  0  0  0  0  0  0  0  0  0  0  0
   -3.4400    5.2172    9.4265 C   0  0  0  0  0  0  0  0  0  0  0  0
   -1.0142    5.4457   10.1444 C   0  0  0  0  0  0  0  0  0  0  0  0
   -1.9923    5.1469    9.0622 C   0  0  0  0  0  0  0  0  0  0  0  0
 18 21  1  0  0  0
 19 21  1  0  0  0
 20 21  1  0  0  0
 11 14  1  0  0  0
 12 14  2  0  0  0
  5  7  1  0  0  0
  6  8  2  0  0  0
  7 10  2  0  0  0
  8 10  1  0  0  0
 24 23  1  0  0  0
 22 24  1  0  0  0
  2  9  1  0  0  0
  3  1  2  0  0  0
  3  2  1  0  0  0
  9  5  2  0  0  0
  9  6  1  0  0  0
 10 14  1  0  0  0
 17 22  1  0  0  0
 17  3  1  0  0  0
 21 17  1  0  0  0
 14 13  2  0  0  0
 11 15  1  0  0  0
 11 16  1  0  0  0
  2  4  1  0  0  0
M  END
> <minimizedAffinity>
-6.49528

$$$$
3OY0_OY0_A_263


 24 24  0  0  0  0  0  0  0  0999 V2000
   -2.3284    5.9102   14.6183 O   0  0  0  0  0  0  0  0  0  0  0  0
   -3.9049    4.9555   13.2345 N   0  0  0  0  0  0  0  0  0  0  0  0
   -2.7936    5.8426   13.4949 C   0  0  0  0  0  0  0  0  0  0  0  0
   -4.2504    4.8913   12.3149 H   0  0  0  0  0  0  0  0  0  0  0  0
   -3.8639    2.9979   14.6391 C   0  0  0  0  0  0  0  0  0  0  0  0
   -5.7713    4.4153   14.8811 C   0  0  0  0  0  0  0  0  0  0  0  0
   -4.3538    2.1456   15.6234 C   0  0  0  0  0  0  0  0  0  0  0  0
   -6.2906    3.5375   15.8500 C   0  0  0  0  0  0  0  0  0  0  0  0
   -4.5353    4.1530   14.2721 C   0  0  0  0  0  0  0  0  0  0  0  0
   -5.5712    2.3807   16.2318 C   0  0  0  0  0  0  0  0  0  0  0  0
   -5.7835    1.7962   18.9592 N   0  0  0  0  0  0  0  0  0  0  0  0
   -5.3981   -0.0557   17.1521 O   0  0  0  0  0  0  0  0  0  0  0  0
   -7.5632    1.0685   17.2291 O   0  0  0  0  0  0  0  0  0  0  0  0
   -6.1141    1.1976   17.4554 S   0  0  0  0  0  0  0  0  0  0  0  0
   -4.7736    1.8719   19.0806 H   0  0  0  0  0  0  0  0  0  0  0  0
   -6.1649    1.1680   19.6666 H   0  0  0  0  0  0  0  0  0  0  0  0
   -2.1605    6.6976   12.4311 C   0  0  0  0  0  0  0  0  0  0  0  0
   -2.2656    5.3685   10.3320 C   0  0  0  0  0  0  0  0  0  0  0  0
   -0.7067    4.7560   12.0572 C   0  0  0  0  0  0  0  0  0  0  0  0
   -0.3172    6.7785   10.7708 C   0  0  0  0  0  0  0  0  0  0  0  0
   -1.3765    5.9161   11.3948 C   0  0  0  0  0  0  0  0  0  0  0  0
   -1.3594    7.7610   13.0987 C   0  0  0  0  0  0  0  0  0  0  0  0
   -1.8575    9.7789   14.5588 C   0  0  0  0  0  0  0  0  0  0  0  0
   -1.9974    9.1052   13.2383 C   0  0  0  0  0  0  0  0  0  0  0  0
 18 21  1  0  0  0
 19 21  1  0  0  0
 20 21  1  0  0  0
 11 14  1  0  0  0
 12 14  2  0  0  0
  5  7  1  0  0  0
  6  8  2  0  0  0
  7 10  2  0  0  0
  8 10  1  0  0  0
 24 23  1  0  0  0
 22 24  1  0  0  0
  2  9  1  0  0  0
  3  1  2  0  0  0
  3  2  1  0  0  0
  9  5  2  0  0  0
  9  6  1  0  0  0
 10 14  1  0  0  0
 17 22  1  0  0  0
 17  3  1  0  0  0
 21 17  1  0  0  0
 14 13  2  0  0  0
 11 15  1  0  0  0
 11 16  1  0  0  0
  2  4  1  0  0  0
M  END
> <minimizedAffinity>
-6.10629

$$$$
3OY0_OY0_A_263


 24 24  0  0  0  0  0  0  0  0999 V2000
   -2.4796    3.7857   13.5671 O   0  0  0  0  0  0  0  0  0  0  0  0
   -4.2670    5.2186   13.8193 N   0  0  0  0  0  0  0  0  0  0  0  0
   -3.6837    3.9006   13.7096 C   0  0  0  0  0  0  0  0  0  0  0  0
   -5.2382    5.2930   13.9630 H   0  0  0  0  0  0  0  0  0  0  0  0
   -3.0947    7.0067   14.9307 C   0  0  0  0  0  0  0  0  0  0  0  0
   -3.1383    7.1128   12.5448 C   0  0  0  0  0  0  0  0  0  0  0  0
   -2.3352    8.1711   14.9834 C   0  0  0  0  0  0  0  0  0  0  0  0
   -2.4029    8.3111   12.5926 C   0  0  0  0  0  0  0  0  0  0  0  0
   -3.4819    6.4405   13.7268 C   0  0  0  0  0  0  0  0  0  0  0  0
   -1.9908    8.8530   13.8328 C   0  0  0  0  0  0  0  0  0  0  0  0
   -0.1056   10.5718   12.6853 N   0  0  0  0  0  0  0  0  0  0  0  0
   -0.2654   10.1860   15.2678 O   0  0  0  0  0  0  0  0  0  0  0  0
   -2.0569   11.4171   14.1577 O   0  0  0  0  0  0  0  0  0  0  0  0
   -1.0447   10.3559   14.0272 S   0  0  0  0  0  0  0  0  0  0  0  0
    0.5821    9.8208   12.6271 H   0  0  0  0  0  0  0  0  0  0  0  0
    0.3753   11.4692   12.7477 H   0  0  0  0  0  0  0  0  0  0  0  0
   -4.4968    2.6362   13.7726 C   0  0  0  0  0  0  0  0  0  0  0  0
   -5.8574    2.3964   15.8402 C   0  0  0  0  0  0  0  0  0  0  0  0
   -3.4626    2.5453   15.9964 C   0  0  0  0  0  0  0  0  0  0  0  0
   -4.4685    0.5310   15.0868 C   0  0  0  0  0  0  0  0  0  0  0  0
   -4.5856    2.0264   15.1580 C   0  0  0  0  0  0  0  0  0  0  0  0
   -3.9771    1.6923   12.7444 C   0  0  0  0  0  0  0  0  0  0  0  0
   -4.7864    0.2116   10.8459 C   0  0  0  0  0  0  0  0  0  0  0  0
   -4.7697    1.5565   11.4848 C   0  0  0  0  0  0  0  0  0  0  0  0
 18 21  1  0  0  0
 19 21  1  0  0  0
 20 21  1  0  0  0
 11 14  1  0  0  0
 12 14  2  0  0  0
  5  7  1  0  0  0
  6  8  2  0  0  0
  7 10  2  0  0  0
  8 10  1  0  0  0
 24 23  1  0  0  0
 22 24  1  0  0  0
  2  9  1  0  0  0
  3  1  2  0  0  0
  3  2  1  0  0  0
  9  5  2  0  0  0
  9  6  1  0  0  0
 10 14  1  0  0  0
 17 22  1  0  0  0
 17  3  1  0  0  0
 21 17  1  0  0  0
 14 13  2  0  0  0
 11 15  1  0  0  0
 11 16  1  0  0  0
  2  4  1  0  0  0
M  END
> <minimizedAffinity>
-6.01971

$$$$
3OY0_OY0_A_263


 24 24  0  0  0  0  0  0  0  0999 V2000
   -5.7750    5.7670   10.6566 O   0  0  0  0  0  0  0  0  0  0  0  0
   -3.5607    5.2312   11.0050 N   0  0  0  0  0  0  0  0  0  0  0  0
   -4.6136    5.9839   10.3611 C   0  0  0  0  0  0  0  0  0  0  0  0
   -2.6260    5.4388   10.7758 H   0  0  0  0  0  0  0  0  0  0  0  0
   -3.6142    4.5155   13.3053 C   0  0  0  0  0  0  0  0  0  0  0  0
   -4.2038    2.8626   11.6849 C   0  0  0  0  0  0  0  0  0  0  0  0
   -3.8334    3.6059   14.3348 C   0  0  0  0  0  0  0  0  0  0  0  0
   -4.3903    1.9271   12.7189 C   0  0  0  0  0  0  0  0  0  0  0  0
   -3.8216    4.1801   11.9771 C   0  0  0  0  0  0  0  0  0  0  0  0
   -4.2038    2.3020   14.0703 C   0  0  0  0  0  0  0  0  0  0  0  0
   -5.8294    1.6105   16.2393 N   0  0  0  0  0  0  0  0  0  0  0  0
   -3.2233    1.3948   16.3127 O   0  0  0  0  0  0  0  0  0  0  0  0
   -4.4823   -0.1352   14.8873 O   0  0  0  0  0  0  0  0  0  0  0  0
   -4.4212    1.2151   15.4713 S   0  0  0  0  0  0  0  0  0  0  0  0
   -5.7513    2.5493   16.6304 H   0  0  0  0  0  0  0  0  0  0  0  0
   -6.0063    0.9430   16.9900 H   0  0  0  0  0  0  0  0  0  0  0  0
   -4.3485    7.0489    9.3320 C   0  0  0  0  0  0  0  0  0  0  0  0
   -3.5329    8.4389   11.2258 C   0  0  0  0  0  0  0  0  0  0  0  0
   -5.5913    9.0118   10.1231 C   0  0  0  0  0  0  0  0  0  0  0  0
   -3.4882    9.3465    8.9563 C   0  0  0  0  0  0  0  0  0  0  0  0
   -4.2250    8.4468    9.9064 C   0  0  0  0  0  0  0  0  0  0  0  0
   -5.3820    6.9384    8.2653 C   0  0  0  0  0  0  0  0  0  0  0  0
   -3.6310    5.7335    6.8746 C   0  0  0  0  0  0  0  0  0  0  0  0
   -4.9241    6.4704    6.9219 C   0  0  0  0  0  0  0  0  0  0  0  0
 18 21  1  0  0  0
 19 21  1  0  0  0
 20 21  1  0  0  0
 11 14  1  0  0  0
 12 14  2  0  0  0
  5  7  1  0  0  0
  6  8  2  0  0  0
  7 10  2  0  0  0
  8 10  1  0  0  0
 24 23  1  0  0  0
 22 24  1  0  0  0
  2  9  1  0  0  0
  3  1  2  0  0  0
  3  2  1  0  0  0
  9  5  2  0  0  0
  9  6  1  0  0  0
 10 14  1  0  0  0
 17 22  1  0  0  0
 17  3  1  0  0  0
 21 17  1  0  0  0
 14 13  2  0  0  0
 11 15  1  0  0  0
 11 16  1  0  0  0
  2  4  1  0  0  0
M  END
> <minimizedAffinity>
-5.99314

$$$$
3OY0_OY0_A_263


 24 24  0  0  0  0  0  0  0  0999 V2000
   -5.1210    5.1873   10.3302 O   0  0  0  0  0  0  0  0  0  0  0  0
   -5.0612    6.3789   12.3020 N   0  0  0  0  0  0  0  0  0  0  0  0
   -5.1922    6.2787   10.8659 C   0  0  0  0  0  0  0  0  0  0  0  0
   -5.1499    7.2650   12.7220 H   0  0  0  0  0  0  0  0  0  0  0  0
   -5.8486    4.8340   13.9753 C   0  0  0  0  0  0  0  0  0  0  0  0
   -3.5915    4.5302   13.2550 C   0  0  0  0  0  0  0  0  0  0  0  0
   -5.7371    3.7446   14.8333 C   0  0  0  0  0  0  0  0  0  0  0  0
   -3.4601    3.4514   14.1484 C   0  0  0  0  0  0  0  0  0  0  0  0
   -4.8041    5.2277   13.1543 C   0  0  0  0  0  0  0  0  0  0  0  0
   -4.5511    3.0473   14.9533 C   0  0  0  0  0  0  0  0  0  0  0  0
   -5.5063    2.0506   17.3863 N   0  0  0  0  0  0  0  0  0  0  0  0
   -3.1027    1.5220   16.4990 O   0  0  0  0  0  0  0  0  0  0  0  0
   -5.0158    0.5348   15.3487 O   0  0  0  0  0  0  0  0  0  0  0  0
   -4.5166    1.6894   16.1139 S   0  0  0  0  0  0  0  0  0  0  0  0
   -5.1308    2.8528   17.8921 H   0  0  0  0  0  0  0  0  0  0  0  0
   -5.5602    1.2480   18.0136 H   0  0  0  0  0  0  0  0  0  0  0  0
   -5.4259    7.4711    9.9787 C   0  0  0  0  0  0  0  0  0  0  0  0
   -3.0202    7.8228   10.5009 C   0  0  0  0  0  0  0  0  0  0  0  0
   -4.5523    9.6717   10.6249 C   0  0  0  0  0  0  0  0  0  0  0  0
   -3.9601    8.7663    8.4509 C   0  0  0  0  0  0  0  0  0  0  0  0
   -4.2409    8.4124    9.8830 C   0  0  0  0  0  0  0  0  0  0  0  0
   -6.6801    8.1439   10.4173 C   0  0  0  0  0  0  0  0  0  0  0  0
   -7.8717    9.0248    8.3543 C   0  0  0  0  0  0  0  0  0  0  0  0
   -7.8518    8.0655    9.4930 C   0  0  0  0  0  0  0  0  0  0  0  0
 18 21  1  0  0  0
 19 21  1  0  0  0
 20 21  1  0  0  0
 11 14  1  0  0  0
 12 14  2  0  0  0
  5  7  1  0  0  0
  6  8  2  0  0  0
  7 10  2  0  0  0
  8 10  1  0  0  0
 24 23  1  0  0  0
 22 24  1  0  0  0
  2  9  1  0  0  0
  3  1  2  0  0  0
  3  2  1  0  0  0
  9  5  2  0  0  0
  9  6  1  0  0  0
 10 14  1  0  0  0
 17 22  1  0  0  0
 17  3  1  0  0  0
 21 17  1  0  0  0
 14 13  2  0  0  0
 11 15  1  0  0  0
 11 16  1  0  0  0
  2  4  1  0  0  0
M  END
> <minimizedAffinity>
-5.95695

$$$$
3OY0_OY0_A_263


 24 24  0  0  0  0  0  0  0  0999 V2000
   -2.0180    3.9314   15.3324 O   0  0  0  0  0  0  0  0  0  0  0  0
   -3.5422    5.2992   14.2751 N   0  0  0  0  0  0  0  0  0  0  0  0
   -3.1040    4.0208   14.7884 C   0  0  0  0  0  0  0  0  0  0  0  0
   -4.4346    5.3603   13.8640 H   0  0  0  0  0  0  0  0  0  0  0  0
   -1.6820    6.5748   13.4269 C   0  0  0  0  0  0  0  0  0  0  0  0
   -2.8576    7.5426   15.2674 C   0  0  0  0  0  0  0  0  0  0  0  0
   -0.8275    7.6714   13.3768 C   0  0  0  0  0  0  0  0  0  0  0  0
   -1.9732    8.6365   15.2465 C   0  0  0  0  0  0  0  0  0  0  0  0
   -2.7221    6.4997   14.3394 C   0  0  0  0  0  0  0  0  0  0  0  0
   -0.9384    8.7065   14.2843 C   0  0  0  0  0  0  0  0  0  0  0  0
   -0.3521   11.1642   13.0839 N   0  0  0  0  0  0  0  0  0  0  0  0
    1.5024    9.4261   13.7031 O   0  0  0  0  0  0  0  0  0  0  0  0
    0.3425   10.5897   15.5082 O   0  0  0  0  0  0  0  0  0  0  0  0
    0.2380   10.0438   14.1448 S   0  0  0  0  0  0  0  0  0  0  0  0
   -0.4107   10.7527   12.1524 H   0  0  0  0  0  0  0  0  0  0  0  0
    0.2711   11.9714   13.0603 H   0  0  0  0  0  0  0  0  0  0  0  0
   -3.9360    2.7708   14.6947 C   0  0  0  0  0  0  0  0  0  0  0  0
   -3.0126    2.7206   12.3863 C   0  0  0  0  0  0  0  0  0  0  0  0
   -5.3936    2.7432   12.7204 C   0  0  0  0  0  0  0  0  0  0  0  0
   -4.1368    0.7419   13.2792 C   0  0  0  0  0  0  0  0  0  0  0  0
   -4.1026    2.2432   13.2829 C   0  0  0  0  0  0  0  0  0  0  0  0
   -5.2303    3.0152   15.3899 C   0  0  0  0  0  0  0  0  0  0  0  0
   -6.9706    1.9060   16.8707 C   0  0  0  0  0  0  0  0  0  0  0  0
   -5.5331    2.1640   16.5803 C   0  0  0  0  0  0  0  0  0  0  0  0
 18 21  1  0  0  0
 19 21  1  0  0  0
 20 21  1  0  0  0
 11 14  1  0  0  0
 12 14  2  0  0  0
  5  7  1  0  0  0
  6  8  2  0  0  0
  7 10  2  0  0  0
  8 10  1  0  0  0
 24 23  1  0  0  0
 22 24  1  0  0  0
  2  9  1  0  0  0
  3  1  2  0  0  0
  3  2  1  0  0  0
  9  5  2  0  0  0
  9  6  1  0  0  0
 10 14  1  0  0  0
 17 22  1  0  0  0
 17  3  1  0  0  0
 21 17  1  0  0  0
 14 13  2  0  0  0
 11 15  1  0  0  0
 11 16  1  0  0  0
  2  4  1  0  0  0
M  END
> <minimizedAffinity>
-5.67943

$$$$
