3OY0_OY0_A_263
  RCSB PDB12061710113D
Coordinates from PDB:3OY0:A:263 Model:1 without hydrogens
 21 21  0  0  0  0            999 V2000
   -0.7630    9.2030   14.8930   C 0  0  0  0  0  0  0  0  0  0  0  0
   -0.9660    6.4220   10.6070   C 0  0  0  0  0  0  0  0  0  0  0  0
   -2.4710    8.1060    9.7820   C 0  0  0  0  0  0  0  0  0  0  0  0
   -3.3330    5.8950   10.2970   C 0  0  0  0  0  0  0  0  0  0  0  0
   -5.3370   -0.4290   16.1280   N 0  0  0  0  0  0  0  0  0  0  0  0
   -4.6840    6.6930   13.0190   O 0  0  0  0  0  0  0  0  0  0  0  0
   -7.3160    1.2060   16.6320   O 0  0  0  0  0  0  0  0  0  0  0  0
   -5.3820    1.2190   18.1210   O 0  0  0  0  0  0  0  0  0  0  0  0
   -3.0910    3.2550   14.8580   C 0  0  0  0  0  0  0  0  0  0  0  0
   -5.1380    4.4490   14.5580   C 0  0  0  0  0  0  0  0  0  0  0  0
   -3.7510    2.2800   15.5990   C 0  0  0  0  0  0  0  0  0  0  0  0
   -5.8180    3.4470   15.2740   C 0  0  0  0  0  0  0  0  0  0  0  0
   -1.6300    8.1190   14.3540   C 0  0  0  0  0  0  0  0  0  0  0  0
   -1.4350    7.7540   12.9180   C 0  0  0  0  0  0  0  0  0  0  0  0
   -2.9380    5.3070   13.6040   N 0  0  0  0  0  0  0  0  0  0  0  0
   -3.4910    6.4630   12.9350   C 0  0  0  0  0  0  0  0  0  0  0  0
   -3.7530    4.3630   14.3540   C 0  0  0  0  0  0  0  0  0  0  0  0
   -5.1150    2.3410   15.8070   C 0  0  0  0  0  0  0  0  0  0  0  0
   -2.6560    7.4230   12.1320   C 0  0  0  0  0  0  0  0  0  0  0  0
   -2.3540    6.9510   10.7230   C 0  0  0  0  0  0  0  0  0  0  0  0
   -5.8580    1.0130   16.7430   S 0  0  0  0  0  0  0  0  0  0  0  0
  2 20  1  0  0  0  0
  3 20  1  0  0  0  0
  4 20  1  0  0  0  0
  5 21  1  0  0  0  0
  7 21  2  0  0  0  0
  9 11  1  0  0  0  0
 10 12  2  0  0  0  0
 11 18  2  0  0  0  0
 12 18  1  0  0  0  0
 13  1  1  0  0  0  0
 14 13  1  0  0  0  0
 15 17  1  0  0  0  0
 16  6  2  0  0  0  0
 16 15  1  0  0  0  0
 17  9  2  0  0  0  0
 17 10  1  0  0  0  0
 18 21  1  0  0  0  0
 19 14  1  0  0  0  0
 19 16  1  0  0  0  0
 20 19  1  0  0  0  0
 21  8  2  0  0  0  0
A    1
CAA
A    2
CAB
A    3
CAC
A    4
CAD
A    5
NAE
A    6
OAF
A    7
OAG
A    8
OAH
A    9
CAI
A   10
CAJ
A   11
CAK
A   12
CAL
A   13
CAM
A   14
CAN
A   15
NAO
A   16
CAP
A   17
CAQ
A   18
CAR
A   19
CAS
A   20
CAT
A   21
SAU
M  END
>  <InstanceId>
3OY0_OY0_A_263

>  <ChemCompId>
OY0

>  <PdbId>
3OY0

>  <ChainId>
A

>  <ResidueNumber>
263

>  <InsertionCode>


>  <Model>
1

>  <AltIds>


>  <MissingHeavyAtoms>
0

>  <ObservedFormula>
C15 N2 O3 S

>  <Name>
(2S)-2-tert-butyl-N-(4-sulfamoylphenyl)pentanamide

>  <SystematicName>
(2S)-2-tert-butyl-N-(4-sulfamoylphenyl)pentanamide

>  <Synonyms>


>  <Type>
NON-POLYMER

>  <Formula>
C15 H24 N2 O3 S

>  <MolecularWeight>
312.428

>  <ModifiedDate>
2011-08-05

>  <Parent>


>  <OneLetterCode>


>  <SubcomponentList>


>  <AmbiguousFlag>
N

>  <InChI>
InChI=1S/C15H24N2O3S/c1-5-6-13(15(2,3)4)14(18)17-11-7-9-12(10-8-11)21(16,19)20/h7-10,13H,5-6H2,1-4H3,(H,17,18)(H2,16,19,20)/t13-/m1/s1

>  <InChIKey>
WYSWMHFXVFMYFI-CYBMUJFWSA-N

>  <SMILES>
CCC[C@H](C(=O)Nc1ccc(cc1)S(=O)(=O)N)C(C)(C)C

$$$$
