2FDP_FRP_A_386
  RCSB PDB12061705333D
Coordinates from PDB:2FDP:A:386 Model:1 without hydrogens
 41 43  0  0  0  0            999 V2000
    6.4360   -3.4430   47.6330   C 0  0  0  0  0  0  0  0  0  0  0  0
    5.2030   -3.2140   48.2440   C 0  0  0  0  0  0  0  0  0  0  0  0
    6.2860   -3.1240   50.3960   C 0  0  0  0  0  0  0  0  0  0  0  0
   14.7320   -6.6620   50.3870   C 0  0  0  0  0  0  0  0  0  0  0  0
   14.9530   -6.4920   49.0190   C 0  0  0  0  0  0  0  0  0  0  0  0
   15.8690   -8.7370   48.9100   C 0  0  0  0  0  0  0  0  0  0  0  0
   15.6420   -8.8990   50.2730   C 0  0  0  0  0  0  0  0  0  0  0  0
   15.0760   -7.8620   51.0100   C 0  0  0  0  0  0  0  0  0  0  0  0
   11.3700   -3.1390   47.4280   C 0  0  0  0  0  0  0  0  0  0  0  0
    8.9240   -3.7690   47.6910   C 0  0  0  0  0  0  0  0  0  0  0  0
   14.1040   -4.2230   48.8310   C 0  0  0  0  0  0  0  0  0  0  0  0
   10.1190   -3.0290   48.3100   C 0  0  0  0  0  0  0  0  0  0  0  0
    9.9800   -0.8610   49.4780   C 0  0  0  0  0  0  0  0  0  0  0  0
    4.8430    3.0000   50.9840   C 0  0  0  0  0  0  0  0  0  0  0  0
    4.9770    0.6060   45.3410   C 0  0  0  0  0  0  0  0  0  0  0  0
    4.1570    1.9000   50.2020   C 0  0  0  0  0  0  0  0  0  0  0  0
    4.0590    0.7510   46.5360   C 0  0  0  0  0  0  0  0  0  0  0  0
    4.2710    2.0730   47.2780   C 0  0  0  0  0  0  0  0  0  0  0  0
    5.1400    1.0810   49.3640   C 0  0  0  0  0  0  0  0  0  0  0  0
    6.6200    2.3680   47.8440   C 0  0  0  0  0  0  0  0  0  0  0  0
    8.3560    0.8520   48.7260   C 0  0  0  0  0  0  0  0  0  0  0  0
    9.4810    0.5540   49.4830   C 0  0  0  0  0  0  0  0  0  0  0  0
   10.0910    1.5610   50.2340   C 0  0  0  0  0  0  0  0  0  0  0  0
    7.8260    2.1370   48.7070   C 0  0  0  0  0  0  0  0  0  0  0  0
    8.4390    3.1520   49.4410   C 0  0  0  0  0  0  0  0  0  0  0  0
    9.5700    2.8580   50.2080   C 0  0  0  0  0  0  0  0  0  0  0  0
   15.9740  -10.0530   50.8790   F 0  0  0  0  0  0  0  0  0  0  0  0
   15.5220   -7.5390   48.2920   C 0  0  0  0  0  0  0  0  0  0  0  0
   14.6460   -5.3450   48.3450   N 0  0  0  0  0  0  0  0  0  0  0  0
   13.7960   -4.0460   49.9960   O 0  0  0  0  0  0  0  0  0  0  0  0
   13.8940   -3.1290   47.8200   C 0  0  0  0  0  0  0  0  0  0  0  0
   15.0500   -2.1360   47.9100   C 0  0  0  0  0  0  0  0  0  0  0  0
   12.5660   -2.4110   48.0430   C 0  0  0  0  0  0  0  0  0  0  0  0
   11.1000   -2.6300   46.0980   N 0  0  0  0  0  0  0  0  0  0  0  0
    7.6010   -3.5130   48.3950   C 0  0  0  0  0  0  0  0  0  0  0  0
    7.5180   -3.3590   49.7830   C 0  0  0  0  0  0  0  0  0  0  0  0
    5.1250   -3.0530   49.6270   C 0  0  0  0  0  0  0  0  0  0  0  0
    9.7120   -1.6260   48.4130   N 0  0  0  0  0  0  0  0  0  0  0  0
   10.6000   -1.2740   50.4470   O 0  0  0  0  0  0  0  0  0  0  0  0
    6.7850    3.0060   46.8190   O 0  0  0  0  0  0  0  0  0  0  0  0
    5.4190    1.8610   48.1560   N 0  0  0  0  0  0  0  0  0  0  0  0
  1  2  1  0  0  0  0
  1 35  2  0  0  0  0
  2 37  2  0  0  0  0
  3 36  2  0  0  0  0
  3 37  1  0  0  0  0
  4  5  1  0  0  0  0
  4  8  2  0  0  0  0
  5 28  2  0  0  0  0
  5 29  1  0  0  0  0
  6  7  2  0  0  0  0
  6 28  1  0  0  0  0
  7  8  1  0  0  0  0
  7 27  1  0  0  0  0
  9 12  1  0  0  0  0
  9 33  1  0  0  0  0
  9 34  1  0  0  0  0
 10 12  1  0  0  0  0
 10 35  1  0  0  0  0
 11 29  1  0  0  0  0
 11 30  2  0  0  0  0
 11 31  1  0  0  0  0
 12 38  1  0  0  0  0
 13 22  1  0  0  0  0
 13 38  1  0  0  0  0
 13 39  2  0  0  0  0
 14 16  1  0  0  0  0
 15 17  1  0  0  0  0
 16 19  1  0  0  0  0
 17 18  1  0  0  0  0
 18 41  1  0  0  0  0
 19 41  1  0  0  0  0
 20 24  1  0  0  0  0
 20 40  2  0  0  0  0
 20 41  1  0  0  0  0
 21 22  1  0  0  0  0
 21 24  2  0  0  0  0
 22 23  2  0  0  0  0
 23 26  1  0  0  0  0
 24 25  1  0  0  0  0
 25 26  2  0  0  0  0
 31 32  1  0  0  0  0
 31 33  1  0  0  0  0
 35 36  1  0  0  0  0
A    1
C31
A    2
C30
A    3
C28
A    4
C27
A    5
C26
A    6
C24
A    7
C23
A    8
C22
A    9
C16
A   10
C17
A   11
C20
A   12
C15
A   13
C12
A   14
C13
A   15
C14
A   16
C11
A   17
C10
A   18
C9
A   19
C8
A   20
C7
A   21
C4
A   22
C5
A   23
C6
A   24
C3
A   25
C2
A   26
C1
A   27
F1
A   28
C25
A   29
N3
A   30
O3
A   31
C19
A   32
C21
A   33
C18
A   34
N4
A   35
C32
A   36
C33
A   37
C29
A   38
N2
A   39
O2
A   40
O1
A   41
N1
M  END
>  <InstanceId>
2FDP_FRP_A_386

>  <ChemCompId>
FRP

>  <PdbId>
2FDP

>  <ChainId>
A

>  <ResidueNumber>
386

>  <InsertionCode>


>  <Model>
1

>  <AltIds>


>  <MissingHeavyAtoms>
0

>  <ObservedFormula>
C33 N4 O3 F

>  <Name>
N1-((2S,3S,5R)-3-AMINO-6-(4-FLUOROPHENYLAMINO)-5-METHYL-6-OXO-1-PHENYLHEXAN-2-YL)-N3,N3-DIPROPYLISOPHTHALAMIDE

>  <SystematicName>
N'-[(2S,3S,5R)-3-amino-6-[(4-fluorophenyl)amino]-5-methyl-6-oxo-1-phenyl-hexan-2-yl]-N,N-dipropyl-benzene-1,3-dicarboxamide

>  <Synonyms>


>  <Type>
NON-POLYMER

>  <Formula>
C33 H41 F N4 O3

>  <MolecularWeight>
560.702

>  <ModifiedDate>
2011-06-04

>  <Parent>


>  <OneLetterCode>


>  <SubcomponentList>


>  <AmbiguousFlag>
N

>  <InChI>
InChI=1S/C33H41FN4O3/c1-4-18-38(19-5-2)33(41)26-13-9-12-25(22-26)32(40)37-30(21-24-10-7-6-8-11-24)29(35)20-23(3)31(39)36-28-16-14-27(34)15-17-28/h6-17,22-23,29-30H,4-5,18-21,35H2,1-3H3,(H,36,39)(H,37,40)/t23-,29+,30+/m1/s1

>  <InChIKey>
PZHFCAIXAVDQAK-STQWGSIPSA-N

>  <SMILES>
CCCN(CCC)C(=O)c1cccc(c1)C(=O)N[C@@H](Cc2ccccc2)[C@H](C[C@@H](C)C(=O)Nc3ccc(cc3)F)N

$$$$
