2FDP_FRP_A_386


 45 47  0  0  0  0  0  0  0  0999 V2000
   10.1462   -3.1800   48.5559 C   0  0  0  0  0  0  0  0  0  0  0  0
   11.4250   -3.3115   47.7178 C   0  0  0  0  0  0  0  0  0  0  0  0
   11.1767   -2.9128   46.3465 N   0  0  0  0  0  0  0  0  0  0  0  0
   10.9003   -1.9312   46.3226 H   0  0  0  0  0  0  0  0  0  0  0  0
   10.4290   -3.4861   45.9558 H   0  0  0  0  0  0  0  0  0  0  0  0
   12.5782   -2.4981   48.3072 C   0  0  0  0  0  0  0  0  0  0  0  0
   13.9556   -3.0295   47.9209 C   0  0  0  0  0  0  0  0  0  0  0  0
   14.9665   -1.8865   47.8766 C   0  0  0  0  0  0  0  0  0  0  0  0
   14.4343   -4.0737   48.8923 C   0  0  0  0  0  0  0  0  0  0  0  0
   14.5035   -5.3149   48.3990 N   0  0  0  0  0  0  0  0  0  0  0  0
   14.7342   -3.7584   50.0299 O   0  0  0  0  0  0  0  0  0  0  0  0
   14.2337   -5.4206   47.4582 H   0  0  0  0  0  0  0  0  0  0  0  0
   14.2191   -7.0044   50.1242 C   0  0  0  0  0  0  0  0  0  0  0  0
   14.9021   -6.4537   49.0382 C   0  0  0  0  0  0  0  0  0  0  0  0
   16.5304   -8.2480   49.1798 C   0  0  0  0  0  0  0  0  0  0  0  0
   15.8415   -8.7919   50.2593 C   0  0  0  0  0  0  0  0  0  0  0  0
   14.6888   -8.1695   50.7313 C   0  0  0  0  0  0  0  0  0  0  0  0
   16.2914   -9.9136   50.8497 F   0  0  0  0  0  0  0  0  0  0  0  0
   16.0569   -7.0869   48.5756 C   0  0  0  0  0  0  0  0  0  0  0  0
    9.9123   -0.9732   49.6324 C   0  0  0  0  0  0  0  0  0  0  0  0
    9.7176   -1.7799   48.5824 N   0  0  0  0  0  0  0  0  0  0  0  0
   10.4776   -1.3422   50.6513 O   0  0  0  0  0  0  0  0  0  0  0  0
    9.2641   -1.4142   47.7889 H   0  0  0  0  0  0  0  0  0  0  0  0
    8.2753    0.6767   48.7749 C   0  0  0  0  0  0  0  0  0  0  0  0
    9.3976    0.4341   49.5553 C   0  0  0  0  0  0  0  0  0  0  0  0
    9.9906    1.4881   50.2534 C   0  0  0  0  0  0  0  0  0  0  0  0
    7.7312    1.9525   48.6808 C   0  0  0  0  0  0  0  0  0  0  0  0
    8.3273    3.0136   49.3616 C   0  0  0  0  0  0  0  0  0  0  0  0
    9.4555    2.7756   50.1517 C   0  0  0  0  0  0  0  0  0  0  0  0
    6.5294    2.1213   47.7977 C   0  0  0  0  0  0  0  0  0  0  0  0
    6.6455    2.8639   46.8385 O   0  0  0  0  0  0  0  0  0  0  0  0
    5.3882    1.4546   48.0207 N   0  0  0  0  0  0  0  0  0  0  0  0
    4.2466    1.6127   47.1232 C   0  0  0  0  0  0  0  0  0  0  0  0
    5.0291   -0.2480   45.5974 C   0  0  0  0  0  0  0  0  0  0  0  0
    3.9580    0.2188   46.5601 C   0  0  0  0  0  0  0  0  0  0  0  0
    5.1708    0.5420   49.1457 C   0  0  0  0  0  0  0  0  0  0  0  0
    4.2608    0.5618   51.5051 C   0  0  0  0  0  0  0  0  0  0  0  0
    4.3826    1.3202   50.2004 C   0  0  0  0  0  0  0  0  0  0  0  0
    8.9807   -3.9648   47.9358 C   0  0  0  0  0  0  0  0  0  0  0  0
    6.5482   -3.4102   47.6618 C   0  0  0  0  0  0  0  0  0  0  0  0
    5.2841   -3.1035   48.1659 C   0  0  0  0  0  0  0  0  0  0  0  0
    6.1488   -3.2313   50.4126 C   0  0  0  0  0  0  0  0  0  0  0  0
    7.6204   -3.6281   48.5254 C   0  0  0  0  0  0  0  0  0  0  0  0
    7.4116   -3.5438   49.9061 C   0  0  0  0  0  0  0  0  0  0  0  0
    5.0814   -3.0124   49.5426 C   0  0  0  0  0  0  0  0  0  0  0  0
 40 41  1  0  0  0
 40 43  2  0  0  0
 41 45  2  0  0  0
 42 44  2  0  0  0
 42 45  1  0  0  0
 13 14  1  0  0  0
 13 17  2  0  0  0
 14 19  2  0  0  0
 14 10  1  0  0  0
 15 16  2  0  0  0
 15 19  1  0  0  0
 16 17  1  0  0  0
 16 18  1  0  0  0
  2  1  1  0  0  0
  2  6  1  0  0  0
  2  3  1  0  0  0
 39  1  1  0  0  0
 39 43  1  0  0  0
  9 10  1  0  0  0
  9 11  2  0  0  0
  9  7  1  0  0  0
  1 21  1  0  0  0
 20 25  1  0  0  0
 20 21  1  0  0  0
 20 22  2  0  0  0
 37 38  1  0  0  0
 34 35  1  0  0  0
 38 36  1  0  0  0
 35 33  1  0  0  0
 33 32  1  0  0  0
 36 32  1  0  0  0
 30 27  1  0  0  0
 30 31  2  0  0  0
 30 32  1  0  0  0
 24 25  1  0  0  0
 24 27  2  0  0  0
 25 26  2  0  0  0
 26 29  1  0  0  0
 27 28  1  0  0  0
 28 29  2  0  0  0
  7  8  1  0  0  0
  7  6  1  0  0  0
 43 44  1  0  0  0
 10 12  1  0  0  0
  3  4  1  0  0  0
  3  5  1  0  0  0
 21 23  1  0  0  0
M  END
> <minimizedAffinity>
-11.20442

$$$$
2FDP_FRP_A_386


 45 47  0  0  0  0  0  0  0  0999 V2000
    9.9951   -3.1284   48.4749 C   0  0  0  0  0  0  0  0  0  0  0  0
   11.3075   -3.4377   47.7423 C   0  0  0  0  0  0  0  0  0  0  0  0
   11.2773   -2.8990   46.3970 N   0  0  0  0  0  0  0  0  0  0  0  0
   11.1878   -1.8838   46.4392 H   0  0  0  0  0  0  0  0  0  0  0  0
   10.4818   -3.2897   45.8921 H   0  0  0  0  0  0  0  0  0  0  0  0
   12.5229   -2.9036   48.5014 C   0  0  0  0  0  0  0  0  0  0  0  0
   13.8539   -3.2694   47.8509 C   0  0  0  0  0  0  0  0  0  0  0  0
   14.6932   -2.0137   47.6289 C   0  0  0  0  0  0  0  0  0  0  0  0
   14.6319   -4.2389   48.6982 C   0  0  0  0  0  0  0  0  0  0  0  0
   14.3444   -5.5284   48.4899 N   0  0  0  0  0  0  0  0  0  0  0  0
   15.4587   -3.8291   49.4931 O   0  0  0  0  0  0  0  0  0  0  0  0
   13.6560   -5.7123   47.8105 H   0  0  0  0  0  0  0  0  0  0  0  0
   14.3558   -7.1979   50.2574 C   0  0  0  0  0  0  0  0  0  0  0  0
   14.8871   -6.6214   49.1022 C   0  0  0  0  0  0  0  0  0  0  0  0
   16.6512   -8.2884   49.1077 C   0  0  0  0  0  0  0  0  0  0  0  0
   16.1129   -8.8586   50.2569 C   0  0  0  0  0  0  0  0  0  0  0  0
   14.9680   -8.3125   50.8313 C   0  0  0  0  0  0  0  0  0  0  0  0
   16.7005   -9.9319   50.8155 F   0  0  0  0  0  0  0  0  0  0  0  0
   16.0358   -7.1779   48.5371 C   0  0  0  0  0  0  0  0  0  0  0  0
   10.0238   -1.0111   49.7399 C   0  0  0  0  0  0  0  0  0  0  0  0
    9.8296   -1.6784   48.5960 N   0  0  0  0  0  0  0  0  0  0  0  0
   10.3686   -1.5630   50.7745 O   0  0  0  0  0  0  0  0  0  0  0  0
    9.5625   -1.1694   47.7968 H   0  0  0  0  0  0  0  0  0  0  0  0
    8.4837    0.9248   49.8727 C   0  0  0  0  0  0  0  0  0  0  0  0
    9.7899    0.4709   49.7491 C   0  0  0  0  0  0  0  0  0  0  0  0
   10.8336    1.3947   49.6624 C   0  0  0  0  0  0  0  0  0  0  0  0
    8.1996    2.2849   49.9144 C   0  0  0  0  0  0  0  0  0  0  0  0
    9.2345    3.2140   49.8117 C   0  0  0  0  0  0  0  0  0  0  0  0
   10.5522    2.7638   49.6905 C   0  0  0  0  0  0  0  0  0  0  0  0
    6.7563    2.6801   50.0298 C   0  0  0  0  0  0  0  0  0  0  0  0
    6.3349    2.9224   51.1472 O   0  0  0  0  0  0  0  0  0  0  0  0
    5.9691    2.8070   48.9523 N   0  0  0  0  0  0  0  0  0  0  0  0
    4.5773    3.2277   49.0931 C   0  0  0  0  0  0  0  0  0  0  0  0
    2.7773    2.5188   50.7240 C   0  0  0  0  0  0  0  0  0  0  0  0
    3.8495    2.0577   49.7598 C   0  0  0  0  0  0  0  0  0  0  0  0
    6.4001    2.5400   47.5782 C   0  0  0  0  0  0  0  0  0  0  0  0
    5.7375    0.8648   45.8033 C   0  0  0  0  0  0  0  0  0  0  0  0
    6.0281    1.0883   47.2722 C   0  0  0  0  0  0  0  0  0  0  0  0
    8.7757   -3.6261   47.6849 C   0  0  0  0  0  0  0  0  0  0  0  0
    7.2968   -3.4362   49.7039 C   0  0  0  0  0  0  0  0  0  0  0  0
    6.0868   -3.1316   50.3277 C   0  0  0  0  0  0  0  0  0  0  0  0
    5.1410   -2.5214   48.1957 C   0  0  0  0  0  0  0  0  0  0  0  0
    7.4389   -3.2879   48.3253 C   0  0  0  0  0  0  0  0  0  0  0  0
    6.3546   -2.8213   47.5744 C   0  0  0  0  0  0  0  0  0  0  0  0
    5.0055   -2.6743   49.5751 C   0  0  0  0  0  0  0  0  0  0  0  0
 40 41  1  0  0  0
 40 43  2  0  0  0
 41 45  2  0  0  0
 42 44  2  0  0  0
 42 45  1  0  0  0
 13 14  1  0  0  0
 13 17  2  0  0  0
 14 19  2  0  0  0
 14 10  1  0  0  0
 15 16  2  0  0  0
 15 19  1  0  0  0
 16 17  1  0  0  0
 16 18  1  0  0  0
  2  1  1  0  0  0
  2  6  1  0  0  0
  2  3  1  0  0  0
 39  1  1  0  0  0
 39 43  1  0  0  0
  9 10  1  0  0  0
  9 11  2  0  0  0
  9  7  1  0  0  0
  1 21  1  0  0  0
 20 25  1  0  0  0
 20 21  1  0  0  0
 20 22  2  0  0  0
 37 38  1  0  0  0
 34 35  1  0  0  0
 38 36  1  0  0  0
 35 33  1  0  0  0
 33 32  1  0  0  0
 36 32  1  0  0  0
 30 27  1  0  0  0
 30 31  2  0  0  0
 30 32  1  0  0  0
 24 25  1  0  0  0
 24 27  2  0  0  0
 25 26  2  0  0  0
 26 29  1  0  0  0
 27 28  1  0  0  0
 28 29  2  0  0  0
  7  8  1  0  0  0
  7  6  1  0  0  0
 43 44  1  0  0  0
 10 12  1  0  0  0
  3  4  1  0  0  0
  3  5  1  0  0  0
 21 23  1  0  0  0
M  END
> <minimizedAffinity>
-10.41768

$$$$
2FDP_FRP_A_386


 45 47  0  0  0  0  0  0  0  0999 V2000
   10.9590   -1.7194   48.1283 C   0  0  0  0  0  0  0  0  0  0  0  0
   11.6157   -3.1026   48.0243 C   0  0  0  0  0  0  0  0  0  0  0  0
   11.9077   -3.4233   46.6412 N   0  0  0  0  0  0  0  0  0  0  0  0
   12.5722   -2.7455   46.2680 H   0  0  0  0  0  0  0  0  0  0  0  0
   11.0465   -3.3911   46.0956 H   0  0  0  0  0  0  0  0  0  0  0  0
   12.8859   -3.1949   48.8708 C   0  0  0  0  0  0  0  0  0  0  0  0
   14.1689   -3.1730   48.0449 C   0  0  0  0  0  0  0  0  0  0  0  0
   14.7001   -1.7459   47.9367 C   0  0  0  0  0  0  0  0  0  0  0  0
   15.2296   -4.0491   48.6536 C   0  0  0  0  0  0  0  0  0  0  0  0
   14.8972   -5.3391   48.7724 N   0  0  0  0  0  0  0  0  0  0  0  0
   16.2992   -3.5717   48.9873 O   0  0  0  0  0  0  0  0  0  0  0  0
   13.9979   -5.5836   48.4550 H   0  0  0  0  0  0  0  0  0  0  0  0
   16.1042   -7.4337   48.5123 C   0  0  0  0  0  0  0  0  0  0  0  0
   15.6501   -6.3591   49.2793 C   0  0  0  0  0  0  0  0  0  0  0  0
   16.7285   -7.3228   51.2285 C   0  0  0  0  0  0  0  0  0  0  0  0
   17.1797   -8.3881   50.4559 C   0  0  0  0  0  0  0  0  0  0  0  0
   16.8661   -8.4437   49.1003 C   0  0  0  0  0  0  0  0  0  0  0  0
   17.9126   -9.3657   51.0184 F   0  0  0  0  0  0  0  0  0  0  0  0
   15.9706   -6.3160   50.6372 C   0  0  0  0  0  0  0  0  0  0  0  0
    8.8529   -3.0029   48.1546 C   0  0  0  0  0  0  0  0  0  0  0  0
    9.5283   -1.8737   48.3998 N   0  0  0  0  0  0  0  0  0  0  0  0
    9.3849   -4.0024   47.6941 O   0  0  0  0  0  0  0  0  0  0  0  0
    9.0391   -1.1093   48.7814 H   0  0  0  0  0  0  0  0  0  0  0  0
    6.8205   -1.9321   49.0819 C   0  0  0  0  0  0  0  0  0  0  0  0
    7.3807   -3.0299   48.4427 C   0  0  0  0  0  0  0  0  0  0  0  0
    6.5640   -4.1001   48.0714 C   0  0  0  0  0  0  0  0  0  0  0  0
    5.4584   -1.8811   49.3550 C   0  0  0  0  0  0  0  0  0  0  0  0
    4.6388   -2.9529   49.0024 C   0  0  0  0  0  0  0  0  0  0  0  0
    5.1958   -4.0598   48.3556 C   0  0  0  0  0  0  0  0  0  0  0  0
    4.9475   -0.6625   50.0667 C   0  0  0  0  0  0  0  0  0  0  0  0
    4.5652   -0.8095   51.2143 O   0  0  0  0  0  0  0  0  0  0  0  0
    4.9491    0.5470   49.4889 N   0  0  0  0  0  0  0  0  0  0  0  0
    4.4783    1.7211   50.2195 C   0  0  0  0  0  0  0  0  0  0  0  0
    5.8366    3.7514   50.8795 C   0  0  0  0  0  0  0  0  0  0  0  0
    5.3407    2.8903   49.7374 C   0  0  0  0  0  0  0  0  0  0  0  0
    5.3959    0.8075   48.1185 C   0  0  0  0  0  0  0  0  0  0  0  0
    4.3833   -0.4770   46.1898 C   0  0  0  0  0  0  0  0  0  0  0  0
    4.1777    0.6198   47.2130 C   0  0  0  0  0  0  0  0  0  0  0  0
   11.5256   -0.9118   49.3054 C   0  0  0  0  0  0  0  0  0  0  0  0
    9.4654    0.4070   49.8679 C   0  0  0  0  0  0  0  0  0  0  0  0
    8.7866    1.6034   50.1003 C   0  0  0  0  0  0  0  0  0  0  0  0
   10.8186    2.8354   49.6941 C   0  0  0  0  0  0  0  0  0  0  0  0
   10.8216    0.4141   49.5464 C   0  0  0  0  0  0  0  0  0  0  0  0
   11.4972    1.6366   49.4676 C   0  0  0  0  0  0  0  0  0  0  0  0
    9.4613    2.8207   50.0131 C   0  0  0  0  0  0  0  0  0  0  0  0
 40 41  1  0  0  0
 40 43  2  0  0  0
 41 45  2  0  0  0
 42 44  2  0  0  0
 42 45  1  0  0  0
 13 14  1  0  0  0
 13 17  2  0  0  0
 14 19  2  0  0  0
 14 10  1  0  0  0
 15 16  2  0  0  0
 15 19  1  0  0  0
 16 17  1  0  0  0
 16 18  1  0  0  0
  2  1  1  0  0  0
  2  6  1  0  0  0
  2  3  1  0  0  0
 39  1  1  0  0  0
 39 43  1  0  0  0
  9 10  1  0  0  0
  9 11  2  0  0  0
  9  7  1  0  0  0
  1 21  1  0  0  0
 20 25  1  0  0  0
 20 21  1  0  0  0
 20 22  2  0  0  0
 37 38  1  0  0  0
 34 35  1  0  0  0
 38 36  1  0  0  0
 35 33  1  0  0  0
 33 32  1  0  0  0
 36 32  1  0  0  0
 30 27  1  0  0  0
 30 31  2  0  0  0
 30 32  1  0  0  0
 24 25  1  0  0  0
 24 27  2  0  0  0
 25 26  2  0  0  0
 26 29  1  0  0  0
 27 28  1  0  0  0
 28 29  2  0  0  0
  7  8  1  0  0  0
  7  6  1  0  0  0
 43 44  1  0  0  0
 10 12  1  0  0  0
  3  4  1  0  0  0
  3  5  1  0  0  0
 21 23  1  0  0  0
M  END
> <minimizedAffinity>
-9.04348

$$$$
2FDP_FRP_A_386


 45 47  0  0  0  0  0  0  0  0999 V2000
   10.0077   -1.9117   48.4248 C   0  0  0  0  0  0  0  0  0  0  0  0
    9.4041   -0.7868   49.2764 C   0  0  0  0  0  0  0  0  0  0  0  0
    9.8618   -0.8869   50.6481 N   0  0  0  0  0  0  0  0  0  0  0  0
   10.8753   -0.7761   50.6772 H   0  0  0  0  0  0  0  0  0  0  0  0
    9.6086   -1.8001   51.0252 H   0  0  0  0  0  0  0  0  0  0  0  0
    9.7287    0.5950   48.7073 C   0  0  0  0  0  0  0  0  0  0  0  0
   10.2330    1.5809   49.7573 C   0  0  0  0  0  0  0  0  0  0  0  0
   11.6922    1.9377   49.4854 C   0  0  0  0  0  0  0  0  0  0  0  0
    9.4111    2.8408   49.7679 C   0  0  0  0  0  0  0  0  0  0  0  0
    8.4686    2.9086   48.8213 N   0  0  0  0  0  0  0  0  0  0  0  0
    9.6213    3.7007   50.6044 O   0  0  0  0  0  0  0  0  0  0  0  0
    8.4097    2.1349   48.2154 H   0  0  0  0  0  0  0  0  0  0  0  0
    7.9518    5.1825   48.1329 C   0  0  0  0  0  0  0  0  0  0  0  0
    7.5782    3.9176   48.5908 C   0  0  0  0  0  0  0  0  0  0  0  0
    5.2614    4.6401   48.6307 C   0  0  0  0  0  0  0  0  0  0  0  0
    5.6423    5.8967   48.1709 C   0  0  0  0  0  0  0  0  0  0  0  0
    6.9857    6.1673   47.9243 C   0  0  0  0  0  0  0  0  0  0  0  0
    4.7152    6.8504   47.9705 F   0  0  0  0  0  0  0  0  0  0  0  0
    6.2283    3.6598   48.8351 C   0  0  0  0  0  0  0  0  0  0  0  0
   12.3006   -2.6281   47.8651 C   0  0  0  0  0  0  0  0  0  0  0  0
   11.4449   -2.0106   48.6884 N   0  0  0  0  0  0  0  0  0  0  0  0
   11.9475   -3.1491   46.8173 O   0  0  0  0  0  0  0  0  0  0  0  0
   11.7989   -1.6029   49.5115 H   0  0  0  0  0  0  0  0  0  0  0  0
   14.1159   -3.6120   49.2340 C   0  0  0  0  0  0  0  0  0  0  0  0
   13.7467   -2.6948   48.2594 C   0  0  0  0  0  0  0  0  0  0  0  0
   14.7226   -1.8902   47.6674 C   0  0  0  0  0  0  0  0  0  0  0  0
   15.4428   -3.7437   49.6269 C   0  0  0  0  0  0  0  0  0  0  0  0
   16.4210   -2.9324   49.0526 C   0  0  0  0  0  0  0  0  0  0  0  0
   16.0566   -2.0092   48.0683 C   0  0  0  0  0  0  0  0  0  0  0  0
   15.7428   -4.7479   50.7012 C   0  0  0  0  0  0  0  0  0  0  0  0
   15.7813   -4.3387   51.8484 O   0  0  0  0  0  0  0  0  0  0  0  0
   15.9181   -6.0479   50.4256 N   0  0  0  0  0  0  0  0  0  0  0  0
   16.1738   -7.0077   51.4966 C   0  0  0  0  0  0  0  0  0  0  0  0
   18.6029   -6.6168   52.0879 C   0  0  0  0  0  0  0  0  0  0  0  0
   17.6217   -7.4689   51.3115 C   0  0  0  0  0  0  0  0  0  0  0  0
   15.8823   -6.6187   49.0771 C   0  0  0  0  0  0  0  0  0  0  0  0
   15.1210   -8.9984   48.6859 C   0  0  0  0  0  0  0  0  0  0  0  0
   14.6994   -7.5876   49.0383 C   0  0  0  0  0  0  0  0  0  0  0  0
    9.4172   -3.2803   48.7952 C   0  0  0  0  0  0  0  0  0  0  0  0
    7.2146   -3.4477   47.6036 C   0  0  0  0  0  0  0  0  0  0  0  0
    5.8204   -3.4908   47.5793 C   0  0  0  0  0  0  0  0  0  0  0  0
    5.7720   -3.2779   49.9802 C   0  0  0  0  0  0  0  0  0  0  0  0
    7.8975   -3.3184   48.8118 C   0  0  0  0  0  0  0  0  0  0  0  0
    7.1673   -3.2408   50.0026 C   0  0  0  0  0  0  0  0  0  0  0  0
    5.0956   -3.4051   48.7676 C   0  0  0  0  0  0  0  0  0  0  0  0
 40 41  1  0  0  0
 40 43  2  0  0  0
 41 45  2  0  0  0
 42 44  2  0  0  0
 42 45  1  0  0  0
 13 14  1  0  0  0
 13 17  2  0  0  0
 14 19  2  0  0  0
 14 10  1  0  0  0
 15 16  2  0  0  0
 15 19  1  0  0  0
 16 17  1  0  0  0
 16 18  1  0  0  0
  2  1  1  0  0  0
  2  6  1  0  0  0
  2  3  1  0  0  0
 39  1  1  0  0  0
 39 43  1  0  0  0
  9 10  1  0  0  0
  9 11  2  0  0  0
  9  7  1  0  0  0
  1 21  1  0  0  0
 20 25  1  0  0  0
 20 21  1  0  0  0
 20 22  2  0  0  0
 37 38  1  0  0  0
 34 35  1  0  0  0
 38 36  1  0  0  0
 35 33  1  0  0  0
 33 32  1  0  0  0
 36 32  1  0  0  0
 30 27  1  0  0  0
 30 31  2  0  0  0
 30 32  1  0  0  0
 24 25  1  0  0  0
 24 27  2  0  0  0
 25 26  2  0  0  0
 26 29  1  0  0  0
 27 28  1  0  0  0
 28 29  2  0  0  0
  7  8  1  0  0  0
  7  6  1  0  0  0
 43 44  1  0  0  0
 10 12  1  0  0  0
  3  4  1  0  0  0
  3  5  1  0  0  0
 21 23  1  0  0  0
M  END
> <minimizedAffinity>
-8.96332

$$$$
2FDP_FRP_A_386


 45 47  0  0  0  0  0  0  0  0999 V2000
    9.7694   -1.7629   48.8337 C   0  0  0  0  0  0  0  0  0  0  0  0
    9.2635   -0.6907   49.8082 C   0  0  0  0  0  0  0  0  0  0  0  0
   10.3701    0.0928   50.3204 N   0  0  0  0  0  0  0  0  0  0  0  0
   10.8284    0.5785   49.5494 H   0  0  0  0  0  0  0  0  0  0  0  0
   11.0399   -0.5245   50.7795 H   0  0  0  0  0  0  0  0  0  0  0  0
    8.2215    0.2217   49.1598 C   0  0  0  0  0  0  0  0  0  0  0  0
    8.3236    1.6761   49.6106 C   0  0  0  0  0  0  0  0  0  0  0  0
    8.5602    2.5842   48.4065 C   0  0  0  0  0  0  0  0  0  0  0  0
    7.0758    2.1192   50.3246 C   0  0  0  0  0  0  0  0  0  0  0  0
    6.1481    1.1690   50.4835 N   0  0  0  0  0  0  0  0  0  0  0  0
    6.9719    3.2671   50.7184 O   0  0  0  0  0  0  0  0  0  0  0  0
    6.3717    0.2828   50.1176 H   0  0  0  0  0  0  0  0  0  0  0  0
    3.9897    2.2536   50.7602 C   0  0  0  0  0  0  0  0  0  0  0  0
    4.9296    1.2753   51.0901 C   0  0  0  0  0  0  0  0  0  0  0  0
    3.4032    0.4041   52.7641 C   0  0  0  0  0  0  0  0  0  0  0  0
    2.4711    1.3802   52.4265 C   0  0  0  0  0  0  0  0  0  0  0  0
    2.7654    2.3042   51.4272 C   0  0  0  0  0  0  0  0  0  0  0  0
    1.2902    1.4349   53.0680 F   0  0  0  0  0  0  0  0  0  0  0  0
    4.6225    0.3557   52.0944 C   0  0  0  0  0  0  0  0  0  0  0  0
   12.0046   -2.4172   48.0218 C   0  0  0  0  0  0  0  0  0  0  0  0
   11.2179   -1.9185   48.9828 N   0  0  0  0  0  0  0  0  0  0  0  0
   11.5732   -2.7714   46.9344 O   0  0  0  0  0  0  0  0  0  0  0  0
   11.6334   -1.6427   49.8317 H   0  0  0  0  0  0  0  0  0  0  0  0
   13.8630   -3.4721   49.2751 C   0  0  0  0  0  0  0  0  0  0  0  0
   13.4713   -2.5605   48.3040 C   0  0  0  0  0  0  0  0  0  0  0  0
   14.4420   -1.8324   47.6129 C   0  0  0  0  0  0  0  0  0  0  0  0
   15.2071   -3.6731   49.5674 C   0  0  0  0  0  0  0  0  0  0  0  0
   16.1819   -2.9379   48.8935 C   0  0  0  0  0  0  0  0  0  0  0  0
   15.7945   -2.0209   47.9122 C   0  0  0  0  0  0  0  0  0  0  0  0
   15.5329   -4.6646   50.6460 C   0  0  0  0  0  0  0  0  0  0  0  0
   15.5323   -4.2561   51.7940 O   0  0  0  0  0  0  0  0  0  0  0  0
   15.7718   -5.9549   50.3723 N   0  0  0  0  0  0  0  0  0  0  0  0
   16.0514   -6.9040   51.4469 C   0  0  0  0  0  0  0  0  0  0  0  0
   18.4051   -6.3813   52.2144 C   0  0  0  0  0  0  0  0  0  0  0  0
   17.5379   -7.2490   51.3273 C   0  0  0  0  0  0  0  0  0  0  0  0
   15.7860   -6.5243   49.0228 C   0  0  0  0  0  0  0  0  0  0  0  0
   15.2629   -8.9589   48.5816 C   0  0  0  0  0  0  0  0  0  0  0  0
   14.7093   -7.6101   48.9896 C   0  0  0  0  0  0  0  0  0  0  0  0
    9.1645   -3.1399   49.1446 C   0  0  0  0  0  0  0  0  0  0  0  0
    7.0903   -3.4087   47.7570 C   0  0  0  0  0  0  0  0  0  0  0  0
    5.7056   -3.4725   47.6002 C   0  0  0  0  0  0  0  0  0  0  0  0
    5.4209   -3.1175   49.9677 C   0  0  0  0  0  0  0  0  0  0  0  0
    7.6507   -3.1981   49.0157 C   0  0  0  0  0  0  0  0  0  0  0  0
    6.8071   -3.0597   50.1231 C   0  0  0  0  0  0  0  0  0  0  0  0
    4.8674   -3.3261   48.7050 C   0  0  0  0  0  0  0  0  0  0  0  0
 40 41  1  0  0  0
 40 43  2  0  0  0
 41 45  2  0  0  0
 42 44  2  0  0  0
 42 45  1  0  0  0
 13 14  1  0  0  0
 13 17  2  0  0  0
 14 19  2  0  0  0
 14 10  1  0  0  0
 15 16  2  0  0  0
 15 19  1  0  0  0
 16 17  1  0  0  0
 16 18  1  0  0  0
  2  1  1  0  0  0
  2  6  1  0  0  0
  2  3  1  0  0  0
 39  1  1  0  0  0
 39 43  1  0  0  0
  9 10  1  0  0  0
  9 11  2  0  0  0
  9  7  1  0  0  0
  1 21  1  0  0  0
 20 25  1  0  0  0
 20 21  1  0  0  0
 20 22  2  0  0  0
 37 38  1  0  0  0
 34 35  1  0  0  0
 38 36  1  0  0  0
 35 33  1  0  0  0
 33 32  1  0  0  0
 36 32  1  0  0  0
 30 27  1  0  0  0
 30 31  2  0  0  0
 30 32  1  0  0  0
 24 25  1  0  0  0
 24 27  2  0  0  0
 25 26  2  0  0  0
 26 29  1  0  0  0
 27 28  1  0  0  0
 28 29  2  0  0  0
  7  8  1  0  0  0
  7  6  1  0  0  0
 43 44  1  0  0  0
 10 12  1  0  0  0
  3  4  1  0  0  0
  3  5  1  0  0  0
 21 23  1  0  0  0
M  END
> <minimizedAffinity>
-8.79629

$$$$
2FDP_FRP_A_386


 45 47  0  0  0  0  0  0  0  0999 V2000
   10.0234   -1.1088   48.7828 C   0  0  0  0  0  0  0  0  0  0  0  0
    9.9369    0.4227   48.8280 C   0  0  0  0  0  0  0  0  0  0  0  0
    8.7848    0.8886   48.0820 N   0  0  0  0  0  0  0  0  0  0  0  0
    7.9331    0.5259   48.5103 H   0  0  0  0  0  0  0  0  0  0  0  0
    8.8477    0.5593   47.1187 H   0  0  0  0  0  0  0  0  0  0  0  0
    9.8885    0.9481   50.2634 C   0  0  0  0  0  0  0  0  0  0  0  0
   10.7864    2.1596   50.4971 C   0  0  0  0  0  0  0  0  0  0  0  0
   11.9777    2.1227   49.5433 C   0  0  0  0  0  0  0  0  0  0  0  0
   10.0349    3.4475   50.2977 C   0  0  0  0  0  0  0  0  0  0  0  0
    8.8049    3.3112   49.7905 N   0  0  0  0  0  0  0  0  0  0  0  0
   10.5494    4.5088   50.6016 O   0  0  0  0  0  0  0  0  0  0  0  0
    8.5180    2.3894   49.5972 H   0  0  0  0  0  0  0  0  0  0  0  0
    7.9284    5.0523   48.3372 C   0  0  0  0  0  0  0  0  0  0  0  0
    7.8977    4.2915   49.5075 C   0  0  0  0  0  0  0  0  0  0  0  0
    5.9395    5.5278   50.2342 C   0  0  0  0  0  0  0  0  0  0  0  0
    5.9756    6.2788   49.0636 C   0  0  0  0  0  0  0  0  0  0  0  0
    6.9698    6.0420   48.1179 C   0  0  0  0  0  0  0  0  0  0  0  0
    5.0553    7.2358   48.8483 F   0  0  0  0  0  0  0  0  0  0  0  0
    6.8964    4.5397   50.4478 C   0  0  0  0  0  0  0  0  0  0  0  0
   12.0969   -2.1712   47.9731 C   0  0  0  0  0  0  0  0  0  0  0  0
   11.4191   -1.5269   48.9305 N   0  0  0  0  0  0  0  0  0  0  0  0
   11.6034   -2.4506   46.8904 O   0  0  0  0  0  0  0  0  0  0  0  0
   11.8815   -1.3240   49.7757 H   0  0  0  0  0  0  0  0  0  0  0  0
   13.7316   -3.8212   48.8347 C   0  0  0  0  0  0  0  0  0  0  0  0
   13.5132   -2.5793   48.2539 C   0  0  0  0  0  0  0  0  0  0  0  0
   14.6042   -1.7694   47.9316 C   0  0  0  0  0  0  0  0  0  0  0  0
   15.0202   -4.2718   49.0973 C   0  0  0  0  0  0  0  0  0  0  0  0
   16.1143   -3.4622   48.7938 C   0  0  0  0  0  0  0  0  0  0  0  0
   15.9016   -2.2120   48.2058 C   0  0  0  0  0  0  0  0  0  0  0  0
   15.1563   -5.6189   49.7448 C   0  0  0  0  0  0  0  0  0  0  0  0
   14.4827   -6.5253   49.2871 O   0  0  0  0  0  0  0  0  0  0  0  0
   16.0116   -5.8358   50.7540 N   0  0  0  0  0  0  0  0  0  0  0  0
   16.1478   -7.1665   51.3408 C   0  0  0  0  0  0  0  0  0  0  0  0
   17.6546   -8.3172   49.6651 C   0  0  0  0  0  0  0  0  0  0  0  0
   17.5693   -7.6285   51.0106 C   0  0  0  0  0  0  0  0  0  0  0  0
   16.8581   -4.8031   51.3559 C   0  0  0  0  0  0  0  0  0  0  0  0
   16.6164   -2.8267   52.9149 C   0  0  0  0  0  0  0  0  0  0  0  0
   16.0378   -4.1537   52.4715 C   0  0  0  0  0  0  0  0  0  0  0  0
    9.2655   -1.7526   49.9531 C   0  0  0  0  0  0  0  0  0  0  0  0
    6.7593   -1.6169   49.9296 C   0  0  0  0  0  0  0  0  0  0  0  0
    5.4962   -2.1068   49.5973 C   0  0  0  0  0  0  0  0  0  0  0  0
    6.5155   -4.0229   48.5476 C   0  0  0  0  0  0  0  0  0  0  0  0
    7.9077   -2.3235   49.5764 C   0  0  0  0  0  0  0  0  0  0  0  0
    7.7787   -3.5278   48.8762 C   0  0  0  0  0  0  0  0  0  0  0  0
    5.3710   -3.3116   48.9063 C   0  0  0  0  0  0  0  0  0  0  0  0
 40 41  1  0  0  0
 40 43  2  0  0  0
 41 45  2  0  0  0
 42 44  2  0  0  0
 42 45  1  0  0  0
 13 14  1  0  0  0
 13 17  2  0  0  0
 14 19  2  0  0  0
 14 10  1  0  0  0
 15 16  2  0  0  0
 15 19  1  0  0  0
 16 17  1  0  0  0
 16 18  1  0  0  0
  2  1  1  0  0  0
  2  6  1  0  0  0
  2  3  1  0  0  0
 39  1  1  0  0  0
 39 43  1  0  0  0
  9 10  1  0  0  0
  9 11  2  0  0  0
  9  7  1  0  0  0
  1 21  1  0  0  0
 20 25  1  0  0  0
 20 21  1  0  0  0
 20 22  2  0  0  0
 37 38  1  0  0  0
 34 35  1  0  0  0
 38 36  1  0  0  0
 35 33  1  0  0  0
 33 32  1  0  0  0
 36 32  1  0  0  0
 30 27  1  0  0  0
 30 31  2  0  0  0
 30 32  1  0  0  0
 24 25  1  0  0  0
 24 27  2  0  0  0
 25 26  2  0  0  0
 26 29  1  0  0  0
 27 28  1  0  0  0
 28 29  2  0  0  0
  7  8  1  0  0  0
  7  6  1  0  0  0
 43 44  1  0  0  0
 10 12  1  0  0  0
  3  4  1  0  0  0
  3  5  1  0  0  0
 21 23  1  0  0  0
M  END
> <minimizedAffinity>
-8.77157

$$$$
2FDP_FRP_A_386


 45 47  0  0  0  0  0  0  0  0999 V2000
    8.6691   -2.9932   49.1733 C   0  0  0  0  0  0  0  0  0  0  0  0
    9.3539   -3.6541   47.9694 C   0  0  0  0  0  0  0  0  0  0  0  0
    8.4261   -3.7790   46.8628 N   0  0  0  0  0  0  0  0  0  0  0  0
    8.1243   -2.8511   46.5658 H   0  0  0  0  0  0  0  0  0  0  0  0
    7.6149   -4.3218   47.1589 H   0  0  0  0  0  0  0  0  0  0  0  0
   10.6021   -2.8864   47.5323 C   0  0  0  0  0  0  0  0  0  0  0  0
   11.8754   -3.3460   48.2370 C   0  0  0  0  0  0  0  0  0  0  0  0
   12.3789   -4.6470   47.6169 C   0  0  0  0  0  0  0  0  0  0  0  0
   12.9587   -2.3060   48.1484 C   0  0  0  0  0  0  0  0  0  0  0  0
   14.2067   -2.7856   48.1849 N   0  0  0  0  0  0  0  0  0  0  0  0
   12.6679   -1.1280   48.0418 O   0  0  0  0  0  0  0  0  0  0  0  0
   14.2906   -3.7629   48.2684 H   0  0  0  0  0  0  0  0  0  0  0  0
   16.6061   -2.6081   48.5357 C   0  0  0  0  0  0  0  0  0  0  0  0
   15.3787   -2.0881   48.1206 C   0  0  0  0  0  0  0  0  0  0  0  0
   16.4841   -0.0104   47.5273 C   0  0  0  0  0  0  0  0  0  0  0  0
   17.7035   -0.5379   47.9399 C   0  0  0  0  0  0  0  0  0  0  0  0
   17.7633   -1.8341   48.4449 C   0  0  0  0  0  0  0  0  0  0  0  0
   18.8218    0.2049   47.8567 F   0  0  0  0  0  0  0  0  0  0  0  0
   15.3324   -0.7870   47.6173 C   0  0  0  0  0  0  0  0  0  0  0  0
    9.5766   -0.7975   49.8358 C   0  0  0  0  0  0  0  0  0  0  0  0
    8.7746   -1.5369   49.0604 N   0  0  0  0  0  0  0  0  0  0  0  0
   10.2964   -1.2857   50.6946 O   0  0  0  0  0  0  0  0  0  0  0  0
    8.2288   -1.0793   48.3807 H   0  0  0  0  0  0  0  0  0  0  0  0
    8.4262    1.2828   49.1386 C   0  0  0  0  0  0  0  0  0  0  0  0
    9.5736    0.6913   49.6497 C   0  0  0  0  0  0  0  0  0  0  0  0
   10.6656    1.4915   49.9921 C   0  0  0  0  0  0  0  0  0  0  0  0
    8.3472    2.6599   48.9657 C   0  0  0  0  0  0  0  0  0  0  0  0
    9.4393    3.4643   49.2896 C   0  0  0  0  0  0  0  0  0  0  0  0
   10.5964    2.8755   49.8078 C   0  0  0  0  0  0  0  0  0  0  0  0
    7.0739    3.2060   48.3886 C   0  0  0  0  0  0  0  0  0  0  0  0
    6.9255    3.1110   47.1828 O   0  0  0  0  0  0  0  0  0  0  0  0
    6.1166    3.7366   49.1625 N   0  0  0  0  0  0  0  0  0  0  0  0
    4.8726    4.2280   48.5754 C   0  0  0  0  0  0  0  0  0  0  0  0
    4.6033    6.7372   48.7590 C   0  0  0  0  0  0  0  0  0  0  0  0
    5.2041    5.5939   47.9692 C   0  0  0  0  0  0  0  0  0  0  0  0
    6.2159    3.8820   50.6166 C   0  0  0  0  0  0  0  0  0  0  0  0
    4.2510    2.8321   51.8133 C   0  0  0  0  0  0  0  0  0  0  0  0
    4.7918    4.0756   51.1399 C   0  0  0  0  0  0  0  0  0  0  0  0
    7.1655   -3.3042   49.2093 C   0  0  0  0  0  0  0  0  0  0  0  0
    5.8032   -1.5754   48.0030 C   0  0  0  0  0  0  0  0  0  0  0  0
    4.9804   -0.4493   47.9705 C   0  0  0  0  0  0  0  0  0  0  0  0
    5.0880   -0.3010   50.3743 C   0  0  0  0  0  0  0  0  0  0  0  0
    6.2751   -2.0718   49.2169 C   0  0  0  0  0  0  0  0  0  0  0  0
    5.9066   -1.4315   50.4049 C   0  0  0  0  0  0  0  0  0  0  0  0
    4.6215    0.1913   49.1560 C   0  0  0  0  0  0  0  0  0  0  0  0
 40 41  1  0  0  0
 40 43  2  0  0  0
 41 45  2  0  0  0
 42 44  2  0  0  0
 42 45  1  0  0  0
 13 14  1  0  0  0
 13 17  2  0  0  0
 14 19  2  0  0  0
 14 10  1  0  0  0
 15 16  2  0  0  0
 15 19  1  0  0  0
 16 17  1  0  0  0
 16 18  1  0  0  0
  2  1  1  0  0  0
  2  6  1  0  0  0
  2  3  1  0  0  0
 39  1  1  0  0  0
 39 43  1  0  0  0
  9 10  1  0  0  0
  9 11  2  0  0  0
  9  7  1  0  0  0
  1 21  1  0  0  0
 20 25  1  0  0  0
 20 21  1  0  0  0
 20 22  2  0  0  0
 37 38  1  0  0  0
 34 35  1  0  0  0
 38 36  1  0  0  0
 35 33  1  0  0  0
 33 32  1  0  0  0
 36 32  1  0  0  0
 30 27  1  0  0  0
 30 31  2  0  0  0
 30 32  1  0  0  0
 24 25  1  0  0  0
 24 27  2  0  0  0
 25 26  2  0  0  0
 26 29  1  0  0  0
 27 28  1  0  0  0
 28 29  2  0  0  0
  7  8  1  0  0  0
  7  6  1  0  0  0
 43 44  1  0  0  0
 10 12  1  0  0  0
  3  4  1  0  0  0
  3  5  1  0  0  0
 21 23  1  0  0  0
M  END
> <minimizedAffinity>
-8.76774

$$$$
2FDP_FRP_A_386


 45 47  0  0  0  0  0  0  0  0999 V2000
    4.8939   -0.3909   49.9805 C   0  0  0  0  0  0  0  0  0  0  0  0
    4.1873    0.2366   51.1896 C   0  0  0  0  0  0  0  0  0  0  0  0
    4.6725   -0.3508   52.4226 N   0  0  0  0  0  0  0  0  0  0  0  0
    5.6691   -0.1574   52.5223 H   0  0  0  0  0  0  0  0  0  0  0  0
    4.5225   -1.3595   52.4008 H   0  0  0  0  0  0  0  0  0  0  0  0
    4.3562    1.7562   51.2223 C   0  0  0  0  0  0  0  0  0  0  0  0
    3.7864    2.4570   49.9922 C   0  0  0  0  0  0  0  0  0  0  0  0
    2.4247    3.0655   50.3176 C   0  0  0  0  0  0  0  0  0  0  0  0
    4.7065    3.5414   49.5018 C   0  0  0  0  0  0  0  0  0  0  0  0
    6.0084    3.3129   49.7061 N   0  0  0  0  0  0  0  0  0  0  0  0
    4.2500    4.5299   48.9562 O   0  0  0  0  0  0  0  0  0  0  0  0
    6.2322    2.4662   50.1559 H   0  0  0  0  0  0  0  0  0  0  0  0
    7.5865    4.1854   48.0752 C   0  0  0  0  0  0  0  0  0  0  0  0
    7.0657    4.1079   49.3682 C   0  0  0  0  0  0  0  0  0  0  0  0
    8.7365    5.7029   50.1135 C   0  0  0  0  0  0  0  0  0  0  0  0
    9.2469    5.7766   48.8213 C   0  0  0  0  0  0  0  0  0  0  0  0
    8.6734    5.0174   47.8047 C   0  0  0  0  0  0  0  0  0  0  0  0
   10.2960    6.5753   48.5557 F   0  0  0  0  0  0  0  0  0  0  0  0
    7.6505    4.8734   50.3784 C   0  0  0  0  0  0  0  0  0  0  0  0
    7.1106    0.3203   49.1654 C   0  0  0  0  0  0  0  0  0  0  0  0
    6.3425   -0.2241   50.1167 N   0  0  0  0  0  0  0  0  0  0  0  0
    6.6570    0.7341   48.1086 O   0  0  0  0  0  0  0  0  0  0  0  0
    6.7724   -0.5274   50.9489 H   0  0  0  0  0  0  0  0  0  0  0  0
    9.3773   -0.6686   49.0183 C   0  0  0  0  0  0  0  0  0  0  0  0
    8.5891    0.4066   49.4058 C   0  0  0  0  0  0  0  0  0  0  0  0
    9.1910    1.5296   49.9777 C   0  0  0  0  0  0  0  0  0  0  0  0
   10.7568   -0.6427   49.1882 C   0  0  0  0  0  0  0  0  0  0  0  0
   11.3637    0.4680   49.7737 C   0  0  0  0  0  0  0  0  0  0  0  0
   10.5764    1.5554   50.1630 C   0  0  0  0  0  0  0  0  0  0  0  0
   11.5231   -1.8591   48.7572 C   0  0  0  0  0  0  0  0  0  0  0  0
   10.9289   -2.9229   48.7704 O   0  0  0  0  0  0  0  0  0  0  0  0
   12.7921   -1.7822   48.3323 N   0  0  0  0  0  0  0  0  0  0  0  0
   13.5009   -2.9787   47.8855 C   0  0  0  0  0  0  0  0  0  0  0  0
   15.3320   -4.2997   49.0278 C   0  0  0  0  0  0  0  0  0  0  0  0
   13.9465   -3.7036   49.1580 C   0  0  0  0  0  0  0  0  0  0  0  0
   13.5727   -0.5438   48.2815 C   0  0  0  0  0  0  0  0  0  0  0  0
   16.0895   -0.3523   48.1267 C   0  0  0  0  0  0  0  0  0  0  0  0
   14.8246   -0.8438   47.4556 C   0  0  0  0  0  0  0  0  0  0  0  0
    4.6503   -1.9055   49.9066 C   0  0  0  0  0  0  0  0  0  0  0  0
    5.8358   -2.7159   47.8481 C   0  0  0  0  0  0  0  0  0  0  0  0
    6.8538   -3.4166   47.2009 C   0  0  0  0  0  0  0  0  0  0  0  0
    7.7654   -4.0649   49.3365 C   0  0  0  0  0  0  0  0  0  0  0  0
    5.7729   -2.6846   49.2402 C   0  0  0  0  0  0  0  0  0  0  0  0
    6.7491   -3.3583   49.9820 C   0  0  0  0  0  0  0  0  0  0  0  0
    7.8206   -4.0937   47.9435 C   0  0  0  0  0  0  0  0  0  0  0  0
 40 41  1  0  0  0
 40 43  2  0  0  0
 41 45  2  0  0  0
 42 44  2  0  0  0
 42 45  1  0  0  0
 13 14  1  0  0  0
 13 17  2  0  0  0
 14 19  2  0  0  0
 14 10  1  0  0  0
 15 16  2  0  0  0
 15 19  1  0  0  0
 16 17  1  0  0  0
 16 18  1  0  0  0
  2  1  1  0  0  0
  2  6  1  0  0  0
  2  3  1  0  0  0
 39  1  1  0  0  0
 39 43  1  0  0  0
  9 10  1  0  0  0
  9 11  2  0  0  0
  9  7  1  0  0  0
  1 21  1  0  0  0
 20 25  1  0  0  0
 20 21  1  0  0  0
 20 22  2  0  0  0
 37 38  1  0  0  0
 34 35  1  0  0  0
 38 36  1  0  0  0
 35 33  1  0  0  0
 33 32  1  0  0  0
 36 32  1  0  0  0
 30 27  1  0  0  0
 30 31  2  0  0  0
 30 32  1  0  0  0
 24 25  1  0  0  0
 24 27  2  0  0  0
 25 26  2  0  0  0
 26 29  1  0  0  0
 27 28  1  0  0  0
 28 29  2  0  0  0
  7  8  1  0  0  0
  7  6  1  0  0  0
 43 44  1  0  0  0
 10 12  1  0  0  0
  3  4  1  0  0  0
  3  5  1  0  0  0
 21 23  1  0  0  0
M  END
> <minimizedAffinity>
-8.72234

$$$$
2FDP_FRP_A_386


 45 47  0  0  0  0  0  0  0  0999 V2000
    7.0363   -3.6596   48.9568 C   0  0  0  0  0  0  0  0  0  0  0  0
    8.4991   -3.8760   48.5466 C   0  0  0  0  0  0  0  0  0  0  0  0
    8.6473   -3.7526   47.1101 N   0  0  0  0  0  0  0  0  0  0  0  0
    8.3899   -2.8087   46.8216 H   0  0  0  0  0  0  0  0  0  0  0  0
    8.0392   -4.4276   46.6463 H   0  0  0  0  0  0  0  0  0  0  0  0
    9.4406   -2.9071   49.2632 C   0  0  0  0  0  0  0  0  0  0  0  0
    9.9738   -1.7988   48.3597 C   0  0  0  0  0  0  0  0  0  0  0  0
    9.9833   -0.4688   49.1090 C   0  0  0  0  0  0  0  0  0  0  0  0
   11.3662   -2.1037   47.8788 C   0  0  0  0  0  0  0  0  0  0  0  0
   12.3455   -1.5143   48.5733 N   0  0  0  0  0  0  0  0  0  0  0  0
   11.5357   -2.8471   46.9290 O   0  0  0  0  0  0  0  0  0  0  0  0
   12.0593   -0.9423   49.3217 H   0  0  0  0  0  0  0  0  0  0  0  0
   14.4784   -0.5443   47.9242 C   0  0  0  0  0  0  0  0  0  0  0  0
   13.6929   -1.6075   48.3733 C   0  0  0  0  0  0  0  0  0  0  0  0
   15.6713   -3.0118   48.4423 C   0  0  0  0  0  0  0  0  0  0  0  0
   16.4471   -1.9459   47.9978 C   0  0  0  0  0  0  0  0  0  0  0  0
   15.8505   -0.7149   47.7377 C   0  0  0  0  0  0  0  0  0  0  0  0
   17.7699   -2.1056   47.8141 F   0  0  0  0  0  0  0  0  0  0  0  0
   14.3032   -2.8365   48.6294 C   0  0  0  0  0  0  0  0  0  0  0  0
    6.1003   -1.8826   50.3886 C   0  0  0  0  0  0  0  0  0  0  0  0
    6.8336   -2.2592   49.3341 N   0  0  0  0  0  0  0  0  0  0  0  0
    5.5507   -2.6844   51.1294 O   0  0  0  0  0  0  0  0  0  0  0  0
    7.2574   -1.5605   48.7852 H   0  0  0  0  0  0  0  0  0  0  0  0
    6.3676    0.4771   49.6829 C   0  0  0  0  0  0  0  0  0  0  0  0
    5.9365   -0.4152   50.6553 C   0  0  0  0  0  0  0  0  0  0  0  0
    5.3503    0.0729   51.8250 C   0  0  0  0  0  0  0  0  0  0  0  0
    6.2215    1.8488   49.8550 C   0  0  0  0  0  0  0  0  0  0  0  0
    5.6523    2.3449   51.0275 C   0  0  0  0  0  0  0  0  0  0  0  0
    5.2130    1.4519   52.0091 C   0  0  0  0  0  0  0  0  0  0  0  0
    6.7352    2.7354   48.7584 C   0  0  0  0  0  0  0  0  0  0  0  0
    6.1361    2.7099   47.6976 O   0  0  0  0  0  0  0  0  0  0  0  0
    7.7792    3.5558   48.9422 N   0  0  0  0  0  0  0  0  0  0  0  0
    8.2344    4.4332   47.8668 C   0  0  0  0  0  0  0  0  0  0  0  0
    6.6600    6.3960   48.1334 C   0  0  0  0  0  0  0  0  0  0  0  0
    8.0541    5.8622   48.3849 C   0  0  0  0  0  0  0  0  0  0  0  0
    8.5476    3.6491   50.1858 C   0  0  0  0  0  0  0  0  0  0  0  0
   10.8206    3.0270   51.1033 C   0  0  0  0  0  0  0  0  0  0  0  0
    9.8266    2.8366   49.9773 C   0  0  0  0  0  0  0  0  0  0  0  0
    6.0763   -3.9231   47.7873 C   0  0  0  0  0  0  0  0  0  0  0  0
    4.1898   -2.2676   47.7742 C   0  0  0  0  0  0  0  0  0  0  0  0
    3.5503   -1.1234   47.2968 C   0  0  0  0  0  0  0  0  0  0  0  0
    5.3495   -0.7709   45.7313 C   0  0  0  0  0  0  0  0  0  0  0  0
    5.4098   -2.6730   47.2356 C   0  0  0  0  0  0  0  0  0  0  0  0
    5.9904   -1.9130   46.2146 C   0  0  0  0  0  0  0  0  0  0  0  0
    4.1281   -0.3726   46.2735 C   0  0  0  0  0  0  0  0  0  0  0  0
 40 41  1  0  0  0
 40 43  2  0  0  0
 41 45  2  0  0  0
 42 44  2  0  0  0
 42 45  1  0  0  0
 13 14  1  0  0  0
 13 17  2  0  0  0
 14 19  2  0  0  0
 14 10  1  0  0  0
 15 16  2  0  0  0
 15 19  1  0  0  0
 16 17  1  0  0  0
 16 18  1  0  0  0
  2  1  1  0  0  0
  2  6  1  0  0  0
  2  3  1  0  0  0
 39  1  1  0  0  0
 39 43  1  0  0  0
  9 10  1  0  0  0
  9 11  2  0  0  0
  9  7  1  0  0  0
  1 21  1  0  0  0
 20 25  1  0  0  0
 20 21  1  0  0  0
 20 22  2  0  0  0
 37 38  1  0  0  0
 34 35  1  0  0  0
 38 36  1  0  0  0
 35 33  1  0  0  0
 33 32  1  0  0  0
 36 32  1  0  0  0
 30 27  1  0  0  0
 30 31  2  0  0  0
 30 32  1  0  0  0
 24 25  1  0  0  0
 24 27  2  0  0  0
 25 26  2  0  0  0
 26 29  1  0  0  0
 27 28  1  0  0  0
 28 29  2  0  0  0
  7  8  1  0  0  0
  7  6  1  0  0  0
 43 44  1  0  0  0
 10 12  1  0  0  0
  3  4  1  0  0  0
  3  5  1  0  0  0
 21 23  1  0  0  0
M  END
> <minimizedAffinity>
-8.68399

$$$$
2FDP_FRP_A_386


 45 47  0  0  0  0  0  0  0  0999 V2000
   10.4550   -1.8793   48.4960 C   0  0  0  0  0  0  0  0  0  0  0  0
    9.8607   -0.7439   49.3402 C   0  0  0  0  0  0  0  0  0  0  0  0
    9.6990   -1.1661   50.7173 N   0  0  0  0  0  0  0  0  0  0  0  0
   10.6118   -1.3903   51.1136 H   0  0  0  0  0  0  0  0  0  0  0  0
    9.1013   -1.9919   50.7518 H   0  0  0  0  0  0  0  0  0  0  0  0
   10.7128    0.5240   49.2696 C   0  0  0  0  0  0  0  0  0  0  0  0
   10.1628    1.6727   50.1104 C   0  0  0  0  0  0  0  0  0  0  0  0
   10.9097    2.9645   49.7882 C   0  0  0  0  0  0  0  0  0  0  0  0
    8.6929    1.8788   49.8652 C   0  0  0  0  0  0  0  0  0  0  0  0
    8.2215    1.3122   48.7491 N   0  0  0  0  0  0  0  0  0  0  0  0
    8.0237    2.5137   50.6604 O   0  0  0  0  0  0  0  0  0  0  0  0
    8.8788    0.8237   48.2028 H   0  0  0  0  0  0  0  0  0  0  0  0
    6.3612    2.4418   47.6651 C   0  0  0  0  0  0  0  0  0  0  0  0
    6.9418    1.3273   48.2733 C   0  0  0  0  0  0  0  0  0  0  0  0
    4.8692    0.1037   47.9602 C   0  0  0  0  0  0  0  0  0  0  0  0
    4.2998    1.2179   47.3521 C   0  0  0  0  0  0  0  0  0  0  0  0
    5.0447    2.3853   47.2068 C   0  0  0  0  0  0  0  0  0  0  0  0
    3.0302    1.1696   46.9107 F   0  0  0  0  0  0  0  0  0  0  0  0
    6.1839    0.1636   48.4137 C   0  0  0  0  0  0  0  0  0  0  0  0
   12.7374   -2.6501   47.9664 C   0  0  0  0  0  0  0  0  0  0  0  0
   11.8891   -1.9959   48.7688 N   0  0  0  0  0  0  0  0  0  0  0  0
   12.3797   -3.1930   46.9314 O   0  0  0  0  0  0  0  0  0  0  0  0
   12.2468   -1.5723   49.5823 H   0  0  0  0  0  0  0  0  0  0  0  0
   14.5399   -3.6732   49.3233 C   0  0  0  0  0  0  0  0  0  0  0  0
   14.1805   -2.7311   48.3691 C   0  0  0  0  0  0  0  0  0  0  0  0
   15.1630   -1.9154   47.8039 C   0  0  0  0  0  0  0  0  0  0  0  0
   15.8636   -3.8188   49.7222 C   0  0  0  0  0  0  0  0  0  0  0  0
   16.8483   -2.9968   49.1749 C   0  0  0  0  0  0  0  0  0  0  0  0
   16.4937   -2.0484   48.2112 C   0  0  0  0  0  0  0  0  0  0  0  0
   16.1530   -4.8501   50.7735 C   0  0  0  0  0  0  0  0  0  0  0  0
   16.3470   -4.4476   51.9072 O   0  0  0  0  0  0  0  0  0  0  0  0
   16.1560   -6.1616   50.4964 N   0  0  0  0  0  0  0  0  0  0  0  0
   16.4061   -7.1438   51.5483 C   0  0  0  0  0  0  0  0  0  0  0  0
   18.9136   -6.9928   51.8522 C   0  0  0  0  0  0  0  0  0  0  0  0
   17.7690   -7.7636   51.2297 C   0  0  0  0  0  0  0  0  0  0  0  0
   15.9273   -6.7249   49.1638 C   0  0  0  0  0  0  0  0  0  0  0  0
   14.9222   -9.0270   48.8720 C   0  0  0  0  0  0  0  0  0  0  0  0
   14.6665   -7.5856   49.2579 C   0  0  0  0  0  0  0  0  0  0  0  0
    9.8446   -3.2389   48.8671 C   0  0  0  0  0  0  0  0  0  0  0  0
    7.4635   -3.4427   49.6344 C   0  0  0  0  0  0  0  0  0  0  0  0
    6.0922   -3.5468   49.4004 C   0  0  0  0  0  0  0  0  0  0  0  0
    6.4921   -3.4758   47.0240 C   0  0  0  0  0  0  0  0  0  0  0  0
    8.3583   -3.3559   48.5692 C   0  0  0  0  0  0  0  0  0  0  0  0
    7.8635   -3.3659   47.2607 C   0  0  0  0  0  0  0  0  0  0  0  0
    5.6031   -3.5645   48.0946 C   0  0  0  0  0  0  0  0  0  0  0  0
 40 41  1  0  0  0
 40 43  2  0  0  0
 41 45  2  0  0  0
 42 44  2  0  0  0
 42 45  1  0  0  0
 13 14  1  0  0  0
 13 17  2  0  0  0
 14 19  2  0  0  0
 14 10  1  0  0  0
 15 16  2  0  0  0
 15 19  1  0  0  0
 16 17  1  0  0  0
 16 18  1  0  0  0
  2  1  1  0  0  0
  2  6  1  0  0  0
  2  3  1  0  0  0
 39  1  1  0  0  0
 39 43  1  0  0  0
  9 10  1  0  0  0
  9 11  2  0  0  0
  9  7  1  0  0  0
  1 21  1  0  0  0
 20 25  1  0  0  0
 20 21  1  0  0  0
 20 22  2  0  0  0
 37 38  1  0  0  0
 34 35  1  0  0  0
 38 36  1  0  0  0
 35 33  1  0  0  0
 33 32  1  0  0  0
 36 32  1  0  0  0
 30 27  1  0  0  0
 30 31  2  0  0  0
 30 32  1  0  0  0
 24 25  1  0  0  0
 24 27  2  0  0  0
 25 26  2  0  0  0
 26 29  1  0  0  0
 27 28  1  0  0  0
 28 29  2  0  0  0
  7  8  1  0  0  0
  7  6  1  0  0  0
 43 44  1  0  0  0
 10 12  1  0  0  0
  3  4  1  0  0  0
  3  5  1  0  0  0
 21 23  1  0  0  0
M  END
> <minimizedAffinity>
-8.45267

$$$$
