3KMX_G00_A_501


 20 20  0  0  0  0  0  0  0  0999 V2000
   24.1611   11.3495   19.3412 C   0  0  0  0  0  0  0  0  0  0  0  0
   23.0798   13.8193   19.0205 Cl  0  0  0  0  0  0  0  0  0  0  0  0
   24.2283   10.0470   19.9361 C   0  0  0  0  0  0  0  0  0  0  0  0
   23.2840    9.6567   20.9297 C   0  0  0  0  0  0  0  0  0  0  0  0
   22.2585   10.5582   21.3368 C   0  0  0  0  0  0  0  0  0  0  0  0
   22.1863   11.8563   20.7508 C   0  0  0  0  0  0  0  0  0  0  0  0
   23.1327   12.2421   19.7592 C   0  0  0  0  0  0  0  0  0  0  0  0
   25.0822   11.7743   18.3724 O   0  0  0  0  0  0  0  0  0  0  0  0
   26.4344   11.3819   18.6240 C   0  0  0  0  0  0  0  0  0  0  0  0
   26.9994   12.2140   19.7727 C   0  0  0  0  0  0  0  0  0  0  0  0
   27.8900   11.3754   20.6710 C   0  0  0  0  0  0  0  0  0  0  0  0
   28.1598    9.9828   20.0937 C   0  0  0  0  0  0  0  0  0  0  0  0
   21.2425   10.1258   22.3764 C   0  0  0  0  0  0  0  0  0  0  0  0
   21.2041   11.2694   23.8062 S   0  0  0  0  0  0  0  0  0  0  0  0
   20.7823   10.0368   26.3471 N   0  0  0  0  0  0  0  0  0  0  0  0
   22.4090    9.2189   24.7477 N   0  0  0  0  0  0  0  0  0  0  0  0
   21.4523   10.0960   25.1049 C   0  0  0  0  0  0  0  0  0  0  0  0
   20.0888   10.7009   26.5645 H   0  0  0  0  0  0  0  0  0  0  0  0
   22.6689    8.4961   25.3635 H   0  0  0  0  0  0  0  0  0  0  0  0
   22.8488    9.3003   23.8706 H   0  0  0  0  0  0  0  0  0  0  0  0
  8  1  1  0  0  0
  7  1  2  0  0  0
  1  3  1  0  0  0
 15 17  2  0  0  0
  9  8  1  0  0  0
 13 14  1  0  0  0
 14 17  1  0  0  0
  2  7  1  0  0  0
  3  4  2  0  0  0
 17 16  1  0  0  0
  5  4  1  0  0  0
  6  5  2  0  0  0
  5 13  1  0  0  0
  7  6  1  0  0  0
  9 10  1  0  0  0
 10 11  1  0  0  0
 11 12  1  0  0  0
 15 18  1  0  0  0
 16 19  1  0  0  0
 16 20  1  0  0  0
M  END
> <minimizedAffinity>
-6.60586

$$$$
3KMX_G00_A_501


 20 20  0  0  0  0  0  0  0  0999 V2000
   24.8554   12.4537   19.0754 C   0  0  0  0  0  0  0  0  0  0  0  0
   26.6482   10.4321   19.3424 Cl  0  0  0  0  0  0  0  0  0  0  0  0
   23.5845   13.0778   19.2995 C   0  0  0  0  0  0  0  0  0  0  0  0
   22.5807   12.4182   20.0666 C   0  0  0  0  0  0  0  0  0  0  0  0
   22.8347   11.1318   20.6240 C   0  0  0  0  0  0  0  0  0  0  0  0
   24.0960   10.5037   20.4038 C   0  0  0  0  0  0  0  0  0  0  0  0
   25.0955   11.1663   19.6358 C   0  0  0  0  0  0  0  0  0  0  0  0
   25.8615   13.0651   18.3128 O   0  0  0  0  0  0  0  0  0  0  0  0
   26.3264   14.3139   18.8324 C   0  0  0  0  0  0  0  0  0  0  0  0
   27.4056   14.0574   19.8815 C   0  0  0  0  0  0  0  0  0  0  0  0
   26.9253   14.4441   21.2683 C   0  0  0  0  0  0  0  0  0  0  0  0
   26.6933   13.2270   22.1686 C   0  0  0  0  0  0  0  0  0  0  0  0
   21.7702   10.4479   21.4600 C   0  0  0  0  0  0  0  0  0  0  0  0
   21.4621   11.3390   23.0300 S   0  0  0  0  0  0  0  0  0  0  0  0
   22.6958    9.2951   24.5965 N   0  0  0  0  0  0  0  0  0  0  0  0
   23.7446   11.4398   24.1802 N   0  0  0  0  0  0  0  0  0  0  0  0
   22.7150   10.5867   24.0247 C   0  0  0  0  0  0  0  0  0  0  0  0
   21.9200    8.7057   24.4552 H   0  0  0  0  0  0  0  0  0  0  0  0
   24.5293   11.1727   24.7115 H   0  0  0  0  0  0  0  0  0  0  0  0
   23.7129   12.3309   23.7628 H   0  0  0  0  0  0  0  0  0  0  0  0
  8  1  1  0  0  0
  7  1  2  0  0  0
  1  3  1  0  0  0
 15 17  2  0  0  0
  9  8  1  0  0  0
 13 14  1  0  0  0
 14 17  1  0  0  0
  2  7  1  0  0  0
  3  4  2  0  0  0
 17 16  1  0  0  0
  5  4  1  0  0  0
  6  5  2  0  0  0
  5 13  1  0  0  0
  7  6  1  0  0  0
  9 10  1  0  0  0
 10 11  1  0  0  0
 11 12  1  0  0  0
 15 18  1  0  0  0
 16 19  1  0  0  0
 16 20  1  0  0  0
M  END
> <minimizedAffinity>
-6.16795

$$$$
3KMX_G00_A_501


 20 20  0  0  0  0  0  0  0  0999 V2000
   23.2509   11.0758   20.1636 C   0  0  0  0  0  0  0  0  0  0  0  0
   22.6593   13.6044   19.3709 Cl  0  0  0  0  0  0  0  0  0  0  0  0
   24.1562   10.0100   20.4789 C   0  0  0  0  0  0  0  0  0  0  0  0
   25.5645   10.2041   20.3770 C   0  0  0  0  0  0  0  0  0  0  0  0
   26.0860   11.4646   19.9657 C   0  0  0  0  0  0  0  0  0  0  0  0
   25.1915   12.5291   19.6487 C   0  0  0  0  0  0  0  0  0  0  0  0
   23.7852   12.3300   19.7510 C   0  0  0  0  0  0  0  0  0  0  0  0
   21.8590   10.9171   20.2369 O   0  0  0  0  0  0  0  0  0  0  0  0
   21.3987   10.2320   21.4050 C   0  0  0  0  0  0  0  0  0  0  0  0
   21.3143   11.2150   22.5702 C   0  0  0  0  0  0  0  0  0  0  0  0
   20.8588   10.5214   23.8410 C   0  0  0  0  0  0  0  0  0  0  0  0
   20.4719   11.5122   24.9429 C   0  0  0  0  0  0  0  0  0  0  0  0
   27.5863   11.6704   19.8842 C   0  0  0  0  0  0  0  0  0  0  0  0
   28.5062   10.2554   20.5951 S   0  0  0  0  0  0  0  0  0  0  0  0
   28.6075   11.7087   23.0509 N   0  0  0  0  0  0  0  0  0  0  0  0
   30.5982   11.0251   21.8497 N   0  0  0  0  0  0  0  0  0  0  0  0
   29.2583   11.0769   21.9679 C   0  0  0  0  0  0  0  0  0  0  0  0
   27.6241   11.7213   23.0947 H   0  0  0  0  0  0  0  0  0  0  0  0
   31.1694   11.4388   22.5366 H   0  0  0  0  0  0  0  0  0  0  0  0
   31.0071   10.5735   21.0763 H   0  0  0  0  0  0  0  0  0  0  0  0
  8  1  1  0  0  0
  7  1  2  0  0  0
  1  3  1  0  0  0
 15 17  2  0  0  0
  9  8  1  0  0  0
 13 14  1  0  0  0
 14 17  1  0  0  0
  2  7  1  0  0  0
  3  4  2  0  0  0
 17 16  1  0  0  0
  5  4  1  0  0  0
  6  5  2  0  0  0
  5 13  1  0  0  0
  7  6  1  0  0  0
  9 10  1  0  0  0
 10 11  1  0  0  0
 11 12  1  0  0  0
 15 18  1  0  0  0
 16 19  1  0  0  0
 16 20  1  0  0  0
M  END
> <minimizedAffinity>
-5.95544

$$$$
3KMX_G00_A_501


 20 20  0  0  0  0  0  0  0  0999 V2000
   24.5437   12.0402   19.3348 C   0  0  0  0  0  0  0  0  0  0  0  0
   26.5976   10.3535   19.8905 Cl  0  0  0  0  0  0  0  0  0  0  0  0
   23.1990   12.5146   19.4820 C   0  0  0  0  0  0  0  0  0  0  0  0
   22.2954   11.8619   20.3701 C   0  0  0  0  0  0  0  0  0  0  0  0
   22.7241   10.7328   21.1259 C   0  0  0  0  0  0  0  0  0  0  0  0
   24.0598   10.2538   20.9836 C   0  0  0  0  0  0  0  0  0  0  0  0
   24.9586   10.9087   20.0942 C   0  0  0  0  0  0  0  0  0  0  0  0
   25.4561   12.6470   18.4590 O   0  0  0  0  0  0  0  0  0  0  0  0
   25.5753   14.0641   18.6116 C   0  0  0  0  0  0  0  0  0  0  0  0
   26.4752   14.3725   19.8057 C   0  0  0  0  0  0  0  0  0  0  0  0
   27.8816   14.7241   19.3563 C   0  0  0  0  0  0  0  0  0  0  0  0
   27.9014   15.4531   18.0096 C   0  0  0  0  0  0  0  0  0  0  0  0
   21.7638   10.0595   22.0874 C   0  0  0  0  0  0  0  0  0  0  0  0
   21.3088   11.1618   23.4773 S   0  0  0  0  0  0  0  0  0  0  0  0
   20.9869    9.9673   26.0507 N   0  0  0  0  0  0  0  0  0  0  0  0
   22.7517    9.3247   24.5192 N   0  0  0  0  0  0  0  0  0  0  0  0
   21.6766   10.0758   24.8227 C   0  0  0  0  0  0  0  0  0  0  0  0
   20.2048   10.5384   26.2282 H   0  0  0  0  0  0  0  0  0  0  0  0
   23.0893    8.6641   25.1665 H   0  0  0  0  0  0  0  0  0  0  0  0
   23.2005    9.4360   23.6500 H   0  0  0  0  0  0  0  0  0  0  0  0
  8  1  1  0  0  0
  7  1  2  0  0  0
  1  3  1  0  0  0
 15 17  2  0  0  0
  9  8  1  0  0  0
 13 14  1  0  0  0
 14 17  1  0  0  0
  2  7  1  0  0  0
  3  4  2  0  0  0
 17 16  1  0  0  0
  5  4  1  0  0  0
  6  5  2  0  0  0
  5 13  1  0  0  0
  7  6  1  0  0  0
  9 10  1  0  0  0
 10 11  1  0  0  0
 11 12  1  0  0  0
 15 18  1  0  0  0
 16 19  1  0  0  0
 16 20  1  0  0  0
M  END
> <minimizedAffinity>
-5.94012

$$$$
3KMX_G00_A_501


 20 20  0  0  0  0  0  0  0  0999 V2000
   24.4770   11.4540   19.7757 C   0  0  0  0  0  0  0  0  0  0  0  0
   22.6547   13.4519   19.5312 Cl  0  0  0  0  0  0  0  0  0  0  0  0
   25.8109   10.9438   19.8996 C   0  0  0  0  0  0  0  0  0  0  0  0
   26.9248   11.8324   19.9279 C   0  0  0  0  0  0  0  0  0  0  0  0
   26.7210   13.2397   19.8392 C   0  0  0  0  0  0  0  0  0  0  0  0
   25.3970   13.7547   19.7139 C   0  0  0  0  0  0  0  0  0  0  0  0
   24.2873   12.8628   19.6850 C   0  0  0  0  0  0  0  0  0  0  0  0
   23.3579   10.6095   19.7285 O   0  0  0  0  0  0  0  0  0  0  0  0
   23.0422    9.9697   20.9681 C   0  0  0  0  0  0  0  0  0  0  0  0
   21.6026   10.2976   21.3569 C   0  0  0  0  0  0  0  0  0  0  0  0
   21.5450   11.4956   22.2868 C   0  0  0  0  0  0  0  0  0  0  0  0
   20.9304   11.1526   23.6470 C   0  0  0  0  0  0  0  0  0  0  0  0
   27.9099   14.1796   19.8953 C   0  0  0  0  0  0  0  0  0  0  0  0
   28.0885   14.9520   21.5461 S   0  0  0  0  0  0  0  0  0  0  0  0
   28.5848   12.8243   23.3845 N   0  0  0  0  0  0  0  0  0  0  0  0
   30.2559   13.6218   21.8209 N   0  0  0  0  0  0  0  0  0  0  0  0
   29.0182   13.6796   22.3471 C   0  0  0  0  0  0  0  0  0  0  0  0
   27.6694   12.9038   23.7379 H   0  0  0  0  0  0  0  0  0  0  0  0
   30.9039   12.9619   22.1583 H   0  0  0  0  0  0  0  0  0  0  0  0
   30.5131   14.2394   21.0987 H   0  0  0  0  0  0  0  0  0  0  0  0
  8  1  1  0  0  0
  7  1  2  0  0  0
  1  3  1  0  0  0
 15 17  2  0  0  0
  9  8  1  0  0  0
 13 14  1  0  0  0
 14 17  1  0  0  0
  2  7  1  0  0  0
  3  4  2  0  0  0
 17 16  1  0  0  0
  5  4  1  0  0  0
  6  5  2  0  0  0
  5 13  1  0  0  0
  7  6  1  0  0  0
  9 10  1  0  0  0
 10 11  1  0  0  0
 11 12  1  0  0  0
 15 18  1  0  0  0
 16 19  1  0  0  0
 16 20  1  0  0  0
M  END
> <minimizedAffinity>
-5.65631

$$$$
3KMX_G00_A_501


 20 20  0  0  0  0  0  0  0  0999 V2000
   21.9126   10.7385   24.4401 C   0  0  0  0  0  0  0  0  0  0  0  0
   19.4386    9.7067   24.0076 Cl  0  0  0  0  0  0  0  0  0  0  0  0
   23.1771   11.2597   24.0107 C   0  0  0  0  0  0  0  0  0  0  0  0
   23.4784   11.3725   22.6223 C   0  0  0  0  0  0  0  0  0  0  0  0
   22.5203   10.9728   21.6465 C   0  0  0  0  0  0  0  0  0  0  0  0
   21.2608   10.4517   22.0660 C   0  0  0  0  0  0  0  0  0  0  0  0
   20.9647   10.3399   23.4544 C   0  0  0  0  0  0  0  0  0  0  0  0
   21.5869   10.5980   25.7972 O   0  0  0  0  0  0  0  0  0  0  0  0
   21.0394   11.7724   26.4027 C   0  0  0  0  0  0  0  0  0  0  0  0
   20.4861   11.4220   27.7819 C   0  0  0  0  0  0  0  0  0  0  0  0
   20.9579   12.4130   28.8302 C   0  0  0  0  0  0  0  0  0  0  0  0
   22.3480   12.9760   28.5205 C   0  0  0  0  0  0  0  0  0  0  0  0
   22.8392   11.1196   20.1711 C   0  0  0  0  0  0  0  0  0  0  0  0
   24.3383   12.1353   19.8974 S   0  0  0  0  0  0  0  0  0  0  0  0
   22.3825   14.2023   19.6616 N   0  0  0  0  0  0  0  0  0  0  0  0
   24.3028   14.0413   18.1919 N   0  0  0  0  0  0  0  0  0  0  0  0
   23.5736   13.5805   19.2255 C   0  0  0  0  0  0  0  0  0  0  0  0
   21.8825   13.8287   20.4230 H   0  0  0  0  0  0  0  0  0  0  0  0
   24.0121   14.8456   17.7043 H   0  0  0  0  0  0  0  0  0  0  0  0
   25.1266   13.5739   17.9236 H   0  0  0  0  0  0  0  0  0  0  0  0
  8  1  1  0  0  0
  7  1  2  0  0  0
  1  3  1  0  0  0
 15 17  2  0  0  0
  9  8  1  0  0  0
 13 14  1  0  0  0
 14 17  1  0  0  0
  2  7  1  0  0  0
  3  4  2  0  0  0
 17 16  1  0  0  0
  5  4  1  0  0  0
  6  5  2  0  0  0
  5 13  1  0  0  0
  7  6  1  0  0  0
  9 10  1  0  0  0
 10 11  1  0  0  0
 11 12  1  0  0  0
 15 18  1  0  0  0
 16 19  1  0  0  0
 16 20  1  0  0  0
M  END
> <minimizedAffinity>
-5.52678

$$$$
3KMX_G00_A_501


 20 20  0  0  0  0  0  0  0  0999 V2000
   25.9506   12.4274   19.0292 C   0  0  0  0  0  0  0  0  0  0  0  0
   23.7185   13.8299   18.3789 Cl  0  0  0  0  0  0  0  0  0  0  0  0
   26.6466   11.3514   19.6715 C   0  0  0  0  0  0  0  0  0  0  0  0
   25.9329   10.3840   20.4371 C   0  0  0  0  0  0  0  0  0  0  0  0
   24.5169   10.4751   20.5657 C   0  0  0  0  0  0  0  0  0  0  0  0
   23.8177   11.5438   19.9311 C   0  0  0  0  0  0  0  0  0  0  0  0
   24.5353   12.5085   19.1681 C   0  0  0  0  0  0  0  0  0  0  0  0
   26.6208   13.4067   18.2811 O   0  0  0  0  0  0  0  0  0  0  0  0
   27.5271   14.2157   19.0358 C   0  0  0  0  0  0  0  0  0  0  0  0
   27.4950   15.6463   18.5034 C   0  0  0  0  0  0  0  0  0  0  0  0
   27.0669   16.6237   19.5827 C   0  0  0  0  0  0  0  0  0  0  0  0
   27.6558   16.2779   20.9535 C   0  0  0  0  0  0  0  0  0  0  0  0
   23.7624    9.4273   21.3613 C   0  0  0  0  0  0  0  0  0  0  0  0
   22.2904   10.1334   22.1912 S   0  0  0  0  0  0  0  0  0  0  0  0
   23.7610   11.3941   24.2891 N   0  0  0  0  0  0  0  0  0  0  0  0
   22.5904    9.2932   24.5885 N   0  0  0  0  0  0  0  0  0  0  0  0
   22.9584   10.3323   23.8158 C   0  0  0  0  0  0  0  0  0  0  0  0
   24.0049   12.1333   23.6864 H   0  0  0  0  0  0  0  0  0  0  0  0
   22.8816    9.2511   25.5280 H   0  0  0  0  0  0  0  0  0  0  0  0
   22.0301    8.5755   24.2141 H   0  0  0  0  0  0  0  0  0  0  0  0
  8  1  1  0  0  0
  7  1  2  0  0  0
  1  3  1  0  0  0
 15 17  2  0  0  0
  9  8  1  0  0  0
 13 14  1  0  0  0
 14 17  1  0  0  0
  2  7  1  0  0  0
  3  4  2  0  0  0
 17 16  1  0  0  0
  5  4  1  0  0  0
  6  5  2  0  0  0
  5 13  1  0  0  0
  7  6  1  0  0  0
  9 10  1  0  0  0
 10 11  1  0  0  0
 11 12  1  0  0  0
 15 18  1  0  0  0
 16 19  1  0  0  0
 16 20  1  0  0  0
M  END
> <minimizedAffinity>
-5.45003

$$$$
3KMX_G00_A_501


 20 20  0  0  0  0  0  0  0  0999 V2000
   24.0550   11.3477   20.3772 C   0  0  0  0  0  0  0  0  0  0  0  0
   25.4279   12.8784   22.1504 Cl  0  0  0  0  0  0  0  0  0  0  0  0
   22.9561   10.5156   19.9836 C   0  0  0  0  0  0  0  0  0  0  0  0
   21.9082   10.2195   20.9030 C   0  0  0  0  0  0  0  0  0  0  0  0
   21.9410   10.7547   22.2231 C   0  0  0  0  0  0  0  0  0  0  0  0
   23.0319   11.5818   22.6226 C   0  0  0  0  0  0  0  0  0  0  0  0
   24.0771   11.8739   21.7007 C   0  0  0  0  0  0  0  0  0  0  0  0
   25.1120   11.6477   19.5051 O   0  0  0  0  0  0  0  0  0  0  0  0
   26.0145   10.5637   19.2685 C   0  0  0  0  0  0  0  0  0  0  0  0
   27.4178   10.9637   19.7179 C   0  0  0  0  0  0  0  0  0  0  0  0
   28.2537    9.7433   20.0573 C   0  0  0  0  0  0  0  0  0  0  0  0
   29.0903    9.9401   21.3249 C   0  0  0  0  0  0  0  0  0  0  0  0
   20.8092   10.4552   23.1872 C   0  0  0  0  0  0  0  0  0  0  0  0
   20.6910   11.7166   24.5097 S   0  0  0  0  0  0  0  0  0  0  0  0
   18.5246   10.5640   25.9695 N   0  0  0  0  0  0  0  0  0  0  0  0
   20.8468   10.1433   26.5205 N   0  0  0  0  0  0  0  0  0  0  0  0
   19.9104   10.7366   25.7567 C   0  0  0  0  0  0  0  0  0  0  0  0
   17.8763   11.0188   25.3845 H   0  0  0  0  0  0  0  0  0  0  0  0
   20.5767    9.5589   27.2653 H   0  0  0  0  0  0  0  0  0  0  0  0
   21.8017   10.2938   26.3342 H   0  0  0  0  0  0  0  0  0  0  0  0
  8  1  1  0  0  0
  7  1  2  0  0  0
  1  3  1  0  0  0
 15 17  2  0  0  0
  9  8  1  0  0  0
 13 14  1  0  0  0
 14 17  1  0  0  0
  2  7  1  0  0  0
  3  4  2  0  0  0
 17 16  1  0  0  0
  5  4  1  0  0  0
  6  5  2  0  0  0
  5 13  1  0  0  0
  7  6  1  0  0  0
  9 10  1  0  0  0
 10 11  1  0  0  0
 11 12  1  0  0  0
 15 18  1  0  0  0
 16 19  1  0  0  0
 16 20  1  0  0  0
M  END
> <minimizedAffinity>
-5.42794

$$$$
3KMX_G00_A_501


 20 20  0  0  0  0  0  0  0  0999 V2000
   24.1914   11.8512   19.3475 C   0  0  0  0  0  0  0  0  0  0  0  0
   26.4659   10.3831   19.5562 Cl  0  0  0  0  0  0  0  0  0  0  0  0
   22.8625   12.2188   19.7396 C   0  0  0  0  0  0  0  0  0  0  0  0
   22.2168   11.5502   20.8201 C   0  0  0  0  0  0  0  0  0  0  0  0
   22.8910   10.5120   21.5256 C   0  0  0  0  0  0  0  0  0  0  0  0
   24.2125   10.1395   21.1401 C   0  0  0  0  0  0  0  0  0  0  0  0
   24.8531   10.8097   20.0592 C   0  0  0  0  0  0  0  0  0  0  0  0
   24.8524   12.4755   18.2793 O   0  0  0  0  0  0  0  0  0  0  0  0
   25.0831   13.8756   18.4587 C   0  0  0  0  0  0  0  0  0  0  0  0
   26.5662   14.1153   18.7307 C   0  0  0  0  0  0  0  0  0  0  0  0
   26.7857   14.6659   20.1279 C   0  0  0  0  0  0  0  0  0  0  0  0
   26.8036   13.5671   21.1945 C   0  0  0  0  0  0  0  0  0  0  0  0
   22.2063    9.8230   22.6902 C   0  0  0  0  0  0  0  0  0  0  0  0
   22.2721   10.8367   24.2140 S   0  0  0  0  0  0  0  0  0  0  0  0
   19.5543    9.9717   24.3491 N   0  0  0  0  0  0  0  0  0  0  0  0
   20.9622   10.1801   26.3106 N   0  0  0  0  0  0  0  0  0  0  0  0
   20.7797   10.2798   24.9806 C   0  0  0  0  0  0  0  0  0  0  0  0
   19.4680   10.0598   23.3723 H   0  0  0  0  0  0  0  0  0  0  0  0
   20.2229    9.8810   26.8878 H   0  0  0  0  0  0  0  0  0  0  0  0
   21.8349   10.4063   26.7060 H   0  0  0  0  0  0  0  0  0  0  0  0
  8  1  1  0  0  0
  7  1  2  0  0  0
  1  3  1  0  0  0
 15 17  2  0  0  0
  9  8  1  0  0  0
 13 14  1  0  0  0
 14 17  1  0  0  0
  2  7  1  0  0  0
  3  4  2  0  0  0
 17 16  1  0  0  0
  5  4  1  0  0  0
  6  5  2  0  0  0
  5 13  1  0  0  0
  7  6  1  0  0  0
  9 10  1  0  0  0
 10 11  1  0  0  0
 11 12  1  0  0  0
 15 18  1  0  0  0
 16 19  1  0  0  0
 16 20  1  0  0  0
M  END
> <minimizedAffinity>
-5.38746

$$$$
3KMX_G00_A_501


 20 20  0  0  0  0  0  0  0  0999 V2000
   27.0558   11.4128   19.6515 C   0  0  0  0  0  0  0  0  0  0  0  0
   28.4452    9.3173   20.6766 Cl  0  0  0  0  0  0  0  0  0  0  0  0
   26.8152   12.8097   19.4380 C   0  0  0  0  0  0  0  0  0  0  0  0
   27.6866   13.7874   20.0002 C   0  0  0  0  0  0  0  0  0  0  0  0
   28.8111   13.3832   20.7762 C   0  0  0  0  0  0  0  0  0  0  0  0
   29.0559   11.9953   20.9945 C   0  0  0  0  0  0  0  0  0  0  0  0
   28.1818   11.0223   20.4316 C   0  0  0  0  0  0  0  0  0  0  0  0
   26.2112   10.4228   19.1276 O   0  0  0  0  0  0  0  0  0  0  0  0
   24.8484   10.8264   18.9679 C   0  0  0  0  0  0  0  0  0  0  0  0
   24.0087   10.2390   20.0996 C   0  0  0  0  0  0  0  0  0  0  0  0
   22.6600   10.9282   20.1966 C   0  0  0  0  0  0  0  0  0  0  0  0
   22.7576   12.4406   19.9761 C   0  0  0  0  0  0  0  0  0  0  0  0
   29.7476   14.4291   21.3497 C   0  0  0  0  0  0  0  0  0  0  0  0
   28.8487   15.6693   22.3535 S   0  0  0  0  0  0  0  0  0  0  0  0
   28.3055   13.7574   24.4036 N   0  0  0  0  0  0  0  0  0  0  0  0
   29.8884   15.5704   24.6885 N   0  0  0  0  0  0  0  0  0  0  0  0
   28.9942   14.8997   23.9383 C   0  0  0  0  0  0  0  0  0  0  0  0
   27.6599   13.2994   23.8183 H   0  0  0  0  0  0  0  0  0  0  0  0
   30.0870   15.2691   25.6045 H   0  0  0  0  0  0  0  0  0  0  0  0
   30.3438   16.3622   24.3211 H   0  0  0  0  0  0  0  0  0  0  0  0
  8  1  1  0  0  0
  7  1  2  0  0  0
  1  3  1  0  0  0
 15 17  2  0  0  0
  9  8  1  0  0  0
 13 14  1  0  0  0
 14 17  1  0  0  0
  2  7  1  0  0  0
  3  4  2  0  0  0
 17 16  1  0  0  0
  5  4  1  0  0  0
  6  5  2  0  0  0
  5 13  1  0  0  0
  7  6  1  0  0  0
  9 10  1  0  0  0
 10 11  1  0  0  0
 11 12  1  0  0  0
 15 18  1  0  0  0
 16 19  1  0  0  0
 16 20  1  0  0  0
M  END
> <minimizedAffinity>
-5.18514

$$$$
