5EV8_3R9_A_303
  RCSB PDB12061717333D
Coordinates from PDB:5EV8:A:303 Model:1 without hydrogens
 13 14  0  0  0  0            999 V2000
   -3.8850   -2.2050   40.0670   O 0  0  0  0  0  0  0  0  0  0  0  0
   -4.6310   -5.5910   40.4020   N 0  0  0  0  0  0  0  0  0  0  0  0
   -4.6430   -3.1900   40.0770   C 0  0  0  0  0  0  0  0  0  0  0  0
   -5.6950   -3.3970   39.4410   O 0  0  0  0  0  0  0  0  0  0  0  0
   -4.1870   -4.3150   41.0050   C 0  0  0  0  0  0  0  0  0  0  0  0
   -4.8580   -4.1130   42.3800   C 0  0  0  0  0  0  0  0  0  0  0  0
   -5.7720   -5.6320   42.7850   S 0  0  0  0  0  0  0  0  0  0  0  0
   -5.0460   -6.5800   41.3520   C 0  0  0  0  0  0  0  0  0  0  0  0
   -3.7830   -7.2960   41.7710   C 0  0  0  0  0  0  0  0  0  0  0  0
   -2.6880   -7.2800   40.3090   S 0  0  0  0  0  0  0  0  0  0  0  0
   -3.8350   -6.1540   39.3520   C 0  0  0  0  0  0  0  0  0  0  0  0
   -4.6280   -7.0450   38.3560   C 0  0  0  0  0  0  0  0  0  0  0  0
   -5.8430   -6.0260   37.5420   S 0  0  0  0  0  0  0  0  0  0  0  0
  8  9  1  0  0  0  0
  8  7  1  0  0  0  0
  8  2  1  0  0  0  0
  9 10  1  0  0  0  0
 13 12  1  0  0  0  0
  7  6  1  0  0  0  0
 12 11  1  0  0  0  0
  2 11  1  0  0  0  0
  2  5  1  0  0  0  0
 11 10  1  0  0  0  0
  4  3  2  0  0  0  0
  6  5  1  0  0  0  0
  5  3  1  0  0  0  0
  3  1  1  0  0  0  0
A    1
O
A    2
N
A    3
C
A    4
OXT
A    5
CA
A    6
CB
A    7
SAH
A    8
CAM
A    9
CAF
A   10
SAG
A   11
CAJ
A   12
CAD
A   13
SAC
M  END
>  <InstanceId>
5EV8_3R9_A_303

>  <ChemCompId>
3R9

>  <PdbId>
5EV8

>  <ChainId>
A

>  <ResidueNumber>
303

>  <InsertionCode>


>  <Model>
1

>  <AltIds>


>  <MissingHeavyAtoms>
0

>  <ObservedFormula>
C7 N O2 S3

>  <Name>
(3S,5S,7aR)-5-(sulfanylmethyl)tetrahydro[1,3]thiazolo[4,3-b][1,3]thiazole-3-carboxylic acid

>  <SystematicName>
(3S,5S,7aR)-5-(sulfanylmethyl)-3,5,7,7a-tetrahydro-2H-[1,3]thiazolo[3,2-c][1,3]thiazole-3-carboxylic acid

>  <Synonyms>


>  <Type>
NON-POLYMER

>  <Formula>
C7 H11 N O2 S3

>  <MolecularWeight>
237.363

>  <ModifiedDate>
2014-11-21

>  <Parent>


>  <OneLetterCode>


>  <SubcomponentList>


>  <AmbiguousFlag>
N

>  <InChI>
InChI=1S/C7H11NO2S3/c9-7(10)4-2-12-6-3-13-5(1-11)8(4)6/h4-6,11H,1-3H2,(H,9,10)/t4-,5+,6-/m1/s1

>  <InChIKey>
ZTWVMVSSSBGFHH-NGJCXOISSA-N

>  <SMILES>
C1[C@@H](N2[C@H](S1)CS[C@H]2CS)C(=O)O

$$$$
