4ZBA_GDS_A_300


 52 51  0  0  0  0  0  0  0  0999 V2000
   36.1545  107.4860   29.0139 S   0  0  0  0  0  0  0  0  0  0  0  0
   34.3586  107.2246   29.3928 C   0  0  0  0  0  0  0  0  0  0  0  0
   33.5946  106.9091   28.0497 C   0  0  0  0  0  0  0  0  0  0  0  0
   32.6996  105.7082   28.2334 C   0  0  0  0  0  0  0  0  0  0  0  0
   31.6187  105.6462   27.6414 O   0  0  0  0  0  0  0  0  0  0  0  0
   33.1154  104.7446   29.0730 N   0  0  0  0  0  0  0  0  0  0  0  0
   33.9985  104.7966   29.5051 H   0  0  0  0  0  0  0  0  0  0  0  0
   32.2187  103.6158   29.3274 C   0  0  0  0  0  0  0  0  0  0  0  0
   32.2162  102.5211   28.3011 C   0  0  0  0  0  0  0  0  0  0  0  0
   31.4774  101.5231   28.5373 O   0  0  0  0  0  0  0  0  0  0  0  0
   32.9267  102.6855   27.3180 O   0  0  0  0  0  0  0  0  0  0  0  0
   33.4400  103.4651   27.2359 H   0  0  0  0  0  0  0  0  0  0  0  0
   32.5694  108.5555   26.4807 C   0  0  0  0  0  0  0  0  0  0  0  0
   33.0435  107.9650   25.5044 O   0  0  0  0  0  0  0  0  0  0  0  0
   32.7786  108.0994   27.7598 N   0  0  0  0  0  0  0  0  0  0  0  0
   32.3676  108.5866   28.5101 H   0  0  0  0  0  0  0  0  0  0  0  0
   31.7276  109.8123   26.3851 C   0  0  0  0  0  0  0  0  0  0  0  0
   30.7327  109.6907   25.2326 C   0  0  0  0  0  0  0  0  0  0  0  0
   29.1964  107.8718   24.6011 N   0  0  0  0  0  0  0  0  0  0  0  0
   29.5226  108.8272   25.6820 C   0  0  0  0  0  0  0  0  0  0  0  0
   28.4022  107.2974   24.8833 H   0  0  0  0  0  0  0  0  0  0  0  0
   30.0025  107.2730   24.4219 H   0  0  0  0  0  0  0  0  0  0  0  0
   28.3154  109.7122   26.0070 C   0  0  0  0  0  0  0  0  0  0  0  0
   27.2027  109.2832   25.5992 O   0  0  0  0  0  0  0  0  0  0  0  0
   28.4813  110.7545   26.6392 O   0  0  0  0  0  0  0  0  0  0  0  0
   29.3425  111.0071   26.9084 H   0  0  0  0  0  0  0  0  0  0  0  0
   36.3449  107.1398   26.9902 S   0  0  0  0  0  0  0  0  0  0  0  0
   37.9217  106.2220   26.7946 C   0  0  0  0  0  0  0  0  0  0  0  0
   37.6356  104.7660   26.4984 C   0  0  0  0  0  0  0  0  0  0  0  0
   36.9474  104.6070   25.1980 N   0  0  0  0  0  0  0  0  0  0  0  0
   37.6342  104.0226   24.1416 C   0  0  0  0  0  0  0  0  0  0  0  0
   38.7830  103.6104   24.3105 O   0  0  0  0  0  0  0  0  0  0  0  0
   36.0178  104.9105   25.0836 H   0  0  0  0  0  0  0  0  0  0  0  0
   36.9137  103.9242   22.8297 C   0  0  0  0  0  0  0  0  0  0  0  0
   36.9308  102.4348   22.4103 C   0  0  0  0  0  0  0  0  0  0  0  0
   35.4753  101.9687   22.2815 C   0  0  0  0  0  0  0  0  0  0  0  0
   34.5886  103.1086   21.9591 N   0  0  0  0  0  0  0  0  0  0  0  0
   34.6516  103.8081   22.6988 H   0  0  0  0  0  0  0  0  0  0  0  0
   33.6260  102.7797   21.8832 H   0  0  0  0  0  0  0  0  0  0  0  0
   35.0822  101.3086   23.5949 C   0  0  0  0  0  0  0  0  0  0  0  0
   35.0388  102.0625   24.6064 O   0  0  0  0  0  0  0  0  0  0  0  0
   34.8470  100.1012   23.5907 O   0  0  0  0  0  0  0  0  0  0  0  0
   34.9029   99.6158   22.7912 H   0  0  0  0  0  0  0  0  0  0  0  0
   37.5306  103.8957   28.8578 N   0  0  0  0  0  0  0  0  0  0  0  0
   36.8789  104.1473   27.6885 C   0  0  0  0  0  0  0  0  0  0  0  0
   35.6913  103.8496   27.5151 O   0  0  0  0  0  0  0  0  0  0  0  0
   38.4919  104.0925   28.9380 H   0  0  0  0  0  0  0  0  0  0  0  0
   36.7940  103.3270   30.0062 C   0  0  0  0  0  0  0  0  0  0  0  0
   36.2962  104.3563   31.0214 C   0  0  0  0  0  0  0  0  0  0  0  0
   35.0508  104.4067   31.2370 O   0  0  0  0  0  0  0  0  0  0  0  0
   37.1457  105.0650   31.5546 O   0  0  0  0  0  0  0  0  0  0  0  0
   38.0501  104.9586   31.3341 H   0  0  0  0  0  0  0  0  0  0  0  0
 19 20  1  0  0  0
 20 23  1  0  0  0
 20 18  1  0  0  0
 23 24  2  0  0  0
 23 25  1  0  0  0
 18 17  1  0  0  0
 17 13  1  0  0  0
 13 14  2  0  0  0
 13 15  1  0  0  0
 15  3  1  0  0  0
  3  4  1  0  0  0
  3  2  1  0  0  0
  4  5  2  0  0  0
  4  6  1  0  0  0
  2  1  1  0  0  0
  1 27  1  0  0  0
  6  8  1  0  0  0
  8  9  1  0  0  0
  9 10  2  0  0  0
  9 11  1  0  0  0
 44 48  1  0  0  0
 44 45  1  0  0  0
 48 49  1  0  0  0
 49 50  2  0  0  0
 49 51  1  0  0  0
 45 46  2  0  0  0
 45 29  1  0  0  0
 29 30  1  0  0  0
 29 28  1  0  0  0
 30 31  1  0  0  0
 28 27  1  0  0  0
 36 40  1  0  0  0
 36 37  1  0  0  0
 36 35  1  0  0  0
 40 41  2  0  0  0
 40 42  1  0  0  0
 35 34  1  0  0  0
 34 31  1  0  0  0
 31 32  2  0  0  0
 19 21  1  0  0  0
 19 22  1  0  0  0
 25 26  1  0  0  0
 15 16  1  0  0  0
  6  7  1  0  0  0
 11 12  1  0  0  0
 44 47  1  0  0  0
 51 52  1  0  0  0
 30 33  1  0  0  0
 42 43  1  0  0  0
 37 38  1  0  0  0
 37 39  1  0  0  0
M  END
> <minimizedAffinity>
-8.16474

$$$$
4ZBA_GDS_A_300


 52 51  0  0  0  0  0  0  0  0999 V2000
   34.1858  102.8373   31.2127 S   0  0  0  0  0  0  0  0  0  0  0  0
   36.0379  102.9168   31.1905 C   0  0  0  0  0  0  0  0  0  0  0  0
   36.4972  104.2880   31.8199 C   0  0  0  0  0  0  0  0  0  0  0  0
   37.1228  104.0526   33.1727 C   0  0  0  0  0  0  0  0  0  0  0  0
   37.1870  102.9099   33.6339 O   0  0  0  0  0  0  0  0  0  0  0  0
   37.5723  105.1256   33.8457 N   0  0  0  0  0  0  0  0  0  0  0  0
   37.5459  106.0233   33.4425 H   0  0  0  0  0  0  0  0  0  0  0  0
   38.1023  104.9224   35.1951 C   0  0  0  0  0  0  0  0  0  0  0  0
   38.9847  106.0087   35.7362 C   0  0  0  0  0  0  0  0  0  0  0  0
   40.2308  105.8005   35.6969 O   0  0  0  0  0  0  0  0  0  0  0  0
   38.4262  107.0088   36.1679 O   0  0  0  0  0  0  0  0  0  0  0  0
   37.4911  107.0667   36.1525 H   0  0  0  0  0  0  0  0  0  0  0  0
   37.6924  106.1922   30.7389 C   0  0  0  0  0  0  0  0  0  0  0  0
   37.0389  107.0121   31.3925 O   0  0  0  0  0  0  0  0  0  0  0  0
   37.5007  104.8407   30.8958 N   0  0  0  0  0  0  0  0  0  0  0  0
   38.0550  104.2191   30.3707 H   0  0  0  0  0  0  0  0  0  0  0  0
   38.7492  106.5690   29.7198 C   0  0  0  0  0  0  0  0  0  0  0  0
   38.5136  105.8108   28.4151 C   0  0  0  0  0  0  0  0  0  0  0  0
   36.2331  105.2104   27.7035 N   0  0  0  0  0  0  0  0  0  0  0  0
   37.2078  106.3220   27.7475 C   0  0  0  0  0  0  0  0  0  0  0  0
   35.3694  105.5326   27.2669 H   0  0  0  0  0  0  0  0  0  0  0  0
   36.0363  104.8929   28.6527 H   0  0  0  0  0  0  0  0  0  0  0  0
   37.4903  106.8525   26.3386 C   0  0  0  0  0  0  0  0  0  0  0  0
   36.6064  106.5998   25.4765 O   0  0  0  0  0  0  0  0  0  0  0  0
   38.5219  107.4883   26.1265 O   0  0  0  0  0  0  0  0  0  0  0  0
   39.1329  107.6353   26.8215 H   0  0  0  0  0  0  0  0  0  0  0  0
   33.5502  104.5867   30.3254 S   0  0  0  0  0  0  0  0  0  0  0  0
   31.8393  104.2537   29.7519 C   0  0  0  0  0  0  0  0  0  0  0  0
   31.8360  104.0105   28.2585 C   0  0  0  0  0  0  0  0  0  0  0  0
   30.5893  104.5080   27.6355 N   0  0  0  0  0  0  0  0  0  0  0  0
   30.5929  105.7591   27.0321 C   0  0  0  0  0  0  0  0  0  0  0  0
   31.6348  106.4152   26.9874 O   0  0  0  0  0  0  0  0  0  0  0  0
   29.7708  103.9612   27.6484 H   0  0  0  0  0  0  0  0  0  0  0  0
   29.2956  106.2426   26.4548 C   0  0  0  0  0  0  0  0  0  0  0  0
   28.6886  105.0685   25.6499 C   0  0  0  0  0  0  0  0  0  0  0  0
   27.1656  105.1207   25.8238 C   0  0  0  0  0  0  0  0  0  0  0  0
   26.8109  105.5102   27.2065 N   0  0  0  0  0  0  0  0  0  0  0  0
   27.1992  104.8313   27.8612 H   0  0  0  0  0  0  0  0  0  0  0  0
   25.7958  105.5339   27.3033 H   0  0  0  0  0  0  0  0  0  0  0  0
   26.6115  103.7485   25.4699 C   0  0  0  0  0  0  0  0  0  0  0  0
   26.9138  103.3031   24.3281 O   0  0  0  0  0  0  0  0  0  0  0  0
   25.9069  103.1750   26.2991 O   0  0  0  0  0  0  0  0  0  0  0  0
   25.7325  103.5798   27.1259 H   0  0  0  0  0  0  0  0  0  0  0  0
   33.1884  102.1568   27.2239 N   0  0  0  0  0  0  0  0  0  0  0  0
   32.1215  102.5215   27.9883 C   0  0  0  0  0  0  0  0  0  0  0  0
   31.3221  101.6965   28.4458 O   0  0  0  0  0  0  0  0  0  0  0  0
   33.7689  102.8462   26.8277 H   0  0  0  0  0  0  0  0  0  0  0  0
   33.4742  100.7256   26.9897 C   0  0  0  0  0  0  0  0  0  0  0  0
   33.9662  100.3927   25.5808 C   0  0  0  0  0  0  0  0  0  0  0  0
   34.7187  101.2356   25.0121 O   0  0  0  0  0  0  0  0  0  0  0  0
   33.5911   99.3268   25.0999 O   0  0  0  0  0  0  0  0  0  0  0  0
   33.0317   98.7608   25.5944 H   0  0  0  0  0  0  0  0  0  0  0  0
 19 20  1  0  0  0
 20 23  1  0  0  0
 20 18  1  0  0  0
 23 24  2  0  0  0
 23 25  1  0  0  0
 18 17  1  0  0  0
 17 13  1  0  0  0
 13 14  2  0  0  0
 13 15  1  0  0  0
 15  3  1  0  0  0
  3  4  1  0  0  0
  3  2  1  0  0  0
  4  5  2  0  0  0
  4  6  1  0  0  0
  2  1  1  0  0  0
  1 27  1  0  0  0
  6  8  1  0  0  0
  8  9  1  0  0  0
  9 10  2  0  0  0
  9 11  1  0  0  0
 44 48  1  0  0  0
 44 45  1  0  0  0
 48 49  1  0  0  0
 49 50  2  0  0  0
 49 51  1  0  0  0
 45 46  2  0  0  0
 45 29  1  0  0  0
 29 30  1  0  0  0
 29 28  1  0  0  0
 30 31  1  0  0  0
 28 27  1  0  0  0
 36 40  1  0  0  0
 36 37  1  0  0  0
 36 35  1  0  0  0
 40 41  2  0  0  0
 40 42  1  0  0  0
 35 34  1  0  0  0
 34 31  1  0  0  0
 31 32  2  0  0  0
 19 21  1  0  0  0
 19 22  1  0  0  0
 25 26  1  0  0  0
 15 16  1  0  0  0
  6  7  1  0  0  0
 11 12  1  0  0  0
 44 47  1  0  0  0
 51 52  1  0  0  0
 30 33  1  0  0  0
 42 43  1  0  0  0
 37 38  1  0  0  0
 37 39  1  0  0  0
M  END
> <minimizedAffinity>
-8.15432

$$$$
4ZBA_GDS_A_300


 52 51  0  0  0  0  0  0  0  0999 V2000
   32.3339  105.1284   28.2644 S   0  0  0  0  0  0  0  0  0  0  0  0
   30.5475  105.0887   27.7701 C   0  0  0  0  0  0  0  0  0  0  0  0
   30.3760  105.8748   26.4137 C   0  0  0  0  0  0  0  0  0  0  0  0
   29.0718  105.4948   25.7567 C   0  0  0  0  0  0  0  0  0  0  0  0
   29.0083  105.3777   24.5300 O   0  0  0  0  0  0  0  0  0  0  0  0
   28.0023  105.3197   26.5516 N   0  0  0  0  0  0  0  0  0  0  0  0
   28.0843  105.3805   27.5308 H   0  0  0  0  0  0  0  0  0  0  0  0
   26.7119  105.0362   25.9210 C   0  0  0  0  0  0  0  0  0  0  0  0
   26.4501  103.6059   25.5505 C   0  0  0  0  0  0  0  0  0  0  0  0
   26.9222  103.2096   24.4471 O   0  0  0  0  0  0  0  0  0  0  0  0
   25.8041  102.9392   26.3484 O   0  0  0  0  0  0  0  0  0  0  0  0
   25.4970  103.3282   27.1436 H   0  0  0  0  0  0  0  0  0  0  0  0
   30.6308  108.2948   25.8645 C   0  0  0  0  0  0  0  0  0  0  0  0
   30.8869  108.0306   24.6850 O   0  0  0  0  0  0  0  0  0  0  0  0
   30.3558  107.3019   26.7735 N   0  0  0  0  0  0  0  0  0  0  0  0
   30.1372  107.5542   27.6997 H   0  0  0  0  0  0  0  0  0  0  0  0
   30.5908  109.7008   26.4292 C   0  0  0  0  0  0  0  0  0  0  0  0
   29.1768  110.2685   26.3233 C   0  0  0  0  0  0  0  0  0  0  0  0
   27.8395  108.5395   25.1876 N   0  0  0  0  0  0  0  0  0  0  0  0
   28.1438  109.1242   26.5117 C   0  0  0  0  0  0  0  0  0  0  0  0
   27.1613  107.7855   25.2966 H   0  0  0  0  0  0  0  0  0  0  0  0
   28.6956  108.1696   24.7744 H   0  0  0  0  0  0  0  0  0  0  0  0
   26.8690  109.6486   27.1796 C   0  0  0  0  0  0  0  0  0  0  0  0
   25.7915  109.1462   26.7614 O   0  0  0  0  0  0  0  0  0  0  0  0
   26.9552  110.4939   28.0692 O   0  0  0  0  0  0  0  0  0  0  0  0
   27.7953  110.8202   28.3257 H   0  0  0  0  0  0  0  0  0  0  0  0
   32.7514  103.2357   28.9679 S   0  0  0  0  0  0  0  0  0  0  0  0
   33.0976  102.2226   27.4778 C   0  0  0  0  0  0  0  0  0  0  0  0
   34.5738  101.8979   27.4085 C   0  0  0  0  0  0  0  0  0  0  0  0
   35.4003  103.1131   27.5821 N   0  0  0  0  0  0  0  0  0  0  0  0
   36.4927  103.0657   28.4387 C   0  0  0  0  0  0  0  0  0  0  0  0
   36.7814  102.0109   29.0061 O   0  0  0  0  0  0  0  0  0  0  0  0
   35.1795  103.9416   27.0982 H   0  0  0  0  0  0  0  0  0  0  0  0
   37.2740  104.3333   28.6198 C   0  0  0  0  0  0  0  0  0  0  0  0
   37.8225  104.7339   27.2294 C   0  0  0  0  0  0  0  0  0  0  0  0
   37.9297  106.2635   27.1923 C   0  0  0  0  0  0  0  0  0  0  0  0
   37.6154  106.8413   28.5177 N   0  0  0  0  0  0  0  0  0  0  0  0
   36.6671  106.5790   28.7867 H   0  0  0  0  0  0  0  0  0  0  0  0
   37.6867  107.8577   28.4710 H   0  0  0  0  0  0  0  0  0  0  0  0
   36.9747  106.7691   26.1211 C   0  0  0  0  0  0  0  0  0  0  0  0
   36.7607  105.9889   25.1521 O   0  0  0  0  0  0  0  0  0  0  0  0
   36.4892  107.8909   26.2582 O   0  0  0  0  0  0  0  0  0  0  0  0
   36.7030  108.4050   27.0119 H   0  0  0  0  0  0  0  0  0  0  0  0
   35.4938  101.7402   25.0710 N   0  0  0  0  0  0  0  0  0  0  0  0
   34.8608  101.1245   26.1081 C   0  0  0  0  0  0  0  0  0  0  0  0
   34.4504   99.9603   26.0359 O   0  0  0  0  0  0  0  0  0  0  0  0
   35.7531  102.6871   25.1446 H   0  0  0  0  0  0  0  0  0  0  0  0
   35.7913  100.9861   23.8350 C   0  0  0  0  0  0  0  0  0  0  0  0
   34.9219  101.3569   22.6332 C   0  0  0  0  0  0  0  0  0  0  0  0
   33.7422  100.9011   22.6047 O   0  0  0  0  0  0  0  0  0  0  0  0
   35.4353  102.0718   21.7768 O   0  0  0  0  0  0  0  0  0  0  0  0
   36.3193  102.3649   21.8796 H   0  0  0  0  0  0  0  0  0  0  0  0
 19 20  1  0  0  0
 20 23  1  0  0  0
 20 18  1  0  0  0
 23 24  2  0  0  0
 23 25  1  0  0  0
 18 17  1  0  0  0
 17 13  1  0  0  0
 13 14  2  0  0  0
 13 15  1  0  0  0
 15  3  1  0  0  0
  3  4  1  0  0  0
  3  2  1  0  0  0
  4  5  2  0  0  0
  4  6  1  0  0  0
  2  1  1  0  0  0
  1 27  1  0  0  0
  6  8  1  0  0  0
  8  9  1  0  0  0
  9 10  2  0  0  0
  9 11  1  0  0  0
 44 48  1  0  0  0
 44 45  1  0  0  0
 48 49  1  0  0  0
 49 50  2  0  0  0
 49 51  1  0  0  0
 45 46  2  0  0  0
 45 29  1  0  0  0
 29 30  1  0  0  0
 29 28  1  0  0  0
 30 31  1  0  0  0
 28 27  1  0  0  0
 36 40  1  0  0  0
 36 37  1  0  0  0
 36 35  1  0  0  0
 40 41  2  0  0  0
 40 42  1  0  0  0
 35 34  1  0  0  0
 34 31  1  0  0  0
 31 32  2  0  0  0
 19 21  1  0  0  0
 19 22  1  0  0  0
 25 26  1  0  0  0
 15 16  1  0  0  0
  6  7  1  0  0  0
 11 12  1  0  0  0
 44 47  1  0  0  0
 51 52  1  0  0  0
 30 33  1  0  0  0
 42 43  1  0  0  0
 37 38  1  0  0  0
 37 39  1  0  0  0
M  END
> <minimizedAffinity>
-8.01822

$$$$
4ZBA_GDS_A_300


 52 51  0  0  0  0  0  0  0  0999 V2000
   33.8853  106.3025   30.6670 S   0  0  0  0  0  0  0  0  0  0  0  0
   33.2696  106.9155   29.0292 C   0  0  0  0  0  0  0  0  0  0  0  0
   34.3345  107.9083   28.4230 C   0  0  0  0  0  0  0  0  0  0  0  0
   35.7111  107.2939   28.4890 C   0  0  0  0  0  0  0  0  0  0  0  0
   36.4767  107.5893   29.4106 O   0  0  0  0  0  0  0  0  0  0  0  0
   36.0637  106.4495   27.5046 N   0  0  0  0  0  0  0  0  0  0  0  0
   35.4235  106.1982   26.8001 H   0  0  0  0  0  0  0  0  0  0  0  0
   37.4261  105.9137   27.5090 C   0  0  0  0  0  0  0  0  0  0  0  0
   38.2699  106.2261   26.3082 C   0  0  0  0  0  0  0  0  0  0  0  0
   38.5536  105.2583   25.5463 O   0  0  0  0  0  0  0  0  0  0  0  0
   38.6114  107.3925   26.1628 O   0  0  0  0  0  0  0  0  0  0  0  0
   38.3477  108.0393   26.7873 H   0  0  0  0  0  0  0  0  0  0  0  0
   33.0061  109.0386   26.6396 C   0  0  0  0  0  0  0  0  0  0  0  0
   32.4581  109.7708   27.4704 O   0  0  0  0  0  0  0  0  0  0  0  0
   33.9453  108.1098   27.0179 N   0  0  0  0  0  0  0  0  0  0  0  0
   34.3736  107.5587   26.3236 H   0  0  0  0  0  0  0  0  0  0  0  0
   32.7163  109.0783   25.1524 C   0  0  0  0  0  0  0  0  0  0  0  0
   31.3620  109.7374   24.8993 C   0  0  0  0  0  0  0  0  0  0  0  0
   29.9697  108.0655   23.7444 N   0  0  0  0  0  0  0  0  0  0  0  0
   30.2339  108.6824   25.0624 C   0  0  0  0  0  0  0  0  0  0  0  0
   29.2297  107.3696   23.8369 H   0  0  0  0  0  0  0  0  0  0  0  0
   30.8190  107.6155   23.4032 H   0  0  0  0  0  0  0  0  0  0  0  0
   28.9637  109.3286   25.6239 C   0  0  0  0  0  0  0  0  0  0  0  0
   27.8891  108.7193   25.3741 O   0  0  0  0  0  0  0  0  0  0  0  0
   29.0509  110.3659   26.2796 O   0  0  0  0  0  0  0  0  0  0  0  0
   29.8886  110.7606   26.4227 H   0  0  0  0  0  0  0  0  0  0  0  0
   34.0613  104.2588   30.4576 S   0  0  0  0  0  0  0  0  0  0  0  0
   32.3500  103.6393   30.2241 C   0  0  0  0  0  0  0  0  0  0  0  0
   32.0147  103.5989   28.7491 C   0  0  0  0  0  0  0  0  0  0  0  0
   30.6764  104.1728   28.4860 N   0  0  0  0  0  0  0  0  0  0  0  0
   30.5319  105.0969   27.4592 C   0  0  0  0  0  0  0  0  0  0  0  0
   31.5023  105.3935   26.7604 O   0  0  0  0  0  0  0  0  0  0  0  0
   29.9010  103.9039   29.0299 H   0  0  0  0  0  0  0  0  0  0  0  0
   29.1675  105.6872   27.2586 C   0  0  0  0  0  0  0  0  0  0  0  0
   28.7548  105.3958   25.7960 C   0  0  0  0  0  0  0  0  0  0  0  0
   27.5222  104.4836   25.8311 C   0  0  0  0  0  0  0  0  0  0  0  0
   27.2182  103.9645   24.4792 N   0  0  0  0  0  0  0  0  0  0  0  0
   27.0386  104.7451   23.8477 H   0  0  0  0  0  0  0  0  0  0  0  0
   26.3936  103.3656   24.5225 H   0  0  0  0  0  0  0  0  0  0  0  0
   26.3628  105.2928   26.3932 C   0  0  0  0  0  0  0  0  0  0  0  0
   25.4520  104.6353   26.9691 O   0  0  0  0  0  0  0  0  0  0  0  0
   26.3797  106.5135   26.2434 O   0  0  0  0  0  0  0  0  0  0  0  0
   27.0983  106.9215   25.8017 H   0  0  0  0  0  0  0  0  0  0  0  0
   33.1799  101.8736   27.3345 N   0  0  0  0  0  0  0  0  0  0  0  0
   32.1937  102.1603   28.2293 C   0  0  0  0  0  0  0  0  0  0  0  0
   31.3832  101.3104   28.6162 O   0  0  0  0  0  0  0  0  0  0  0  0
   33.7690  102.5900   27.0045 H   0  0  0  0  0  0  0  0  0  0  0  0
   33.3651  100.4863   26.8590 C   0  0  0  0  0  0  0  0  0  0  0  0
   33.9874  100.3634   25.4678 C   0  0  0  0  0  0  0  0  0  0  0  0
   34.7070  101.3224   25.0647 O   0  0  0  0  0  0  0  0  0  0  0  0
   33.7399   99.3385   24.8381 O   0  0  0  0  0  0  0  0  0  0  0  0
   33.1944   98.6769   25.2158 H   0  0  0  0  0  0  0  0  0  0  0  0
 19 20  1  0  0  0
 20 23  1  0  0  0
 20 18  1  0  0  0
 23 24  2  0  0  0
 23 25  1  0  0  0
 18 17  1  0  0  0
 17 13  1  0  0  0
 13 14  2  0  0  0
 13 15  1  0  0  0
 15  3  1  0  0  0
  3  4  1  0  0  0
  3  2  1  0  0  0
  4  5  2  0  0  0
  4  6  1  0  0  0
  2  1  1  0  0  0
  1 27  1  0  0  0
  6  8  1  0  0  0
  8  9  1  0  0  0
  9 10  2  0  0  0
  9 11  1  0  0  0
 44 48  1  0  0  0
 44 45  1  0  0  0
 48 49  1  0  0  0
 49 50  2  0  0  0
 49 51  1  0  0  0
 45 46  2  0  0  0
 45 29  1  0  0  0
 29 30  1  0  0  0
 29 28  1  0  0  0
 30 31  1  0  0  0
 28 27  1  0  0  0
 36 40  1  0  0  0
 36 37  1  0  0  0
 36 35  1  0  0  0
 40 41  2  0  0  0
 40 42  1  0  0  0
 35 34  1  0  0  0
 34 31  1  0  0  0
 31 32  2  0  0  0
 19 21  1  0  0  0
 19 22  1  0  0  0
 25 26  1  0  0  0
 15 16  1  0  0  0
  6  7  1  0  0  0
 11 12  1  0  0  0
 44 47  1  0  0  0
 51 52  1  0  0  0
 30 33  1  0  0  0
 42 43  1  0  0  0
 37 38  1  0  0  0
 37 39  1  0  0  0
M  END
> <minimizedAffinity>
-8.01654

$$$$
4ZBA_GDS_A_300


 52 51  0  0  0  0  0  0  0  0999 V2000
   37.5840  102.2000   26.8680 S   0  0  0  0  0  0  0  0  0  0  0  0
   36.6138  100.8999   27.7655 C   0  0  0  0  0  0  0  0  0  0  0  0
   35.1789  100.7973   27.1193 C   0  0  0  0  0  0  0  0  0  0  0  0
   34.2618  101.8289   27.7290 C   0  0  0  0  0  0  0  0  0  0  0  0
   33.4357  102.4154   27.0247 O   0  0  0  0  0  0  0  0  0  0  0  0
   34.4030  102.0900   29.0399 N   0  0  0  0  0  0  0  0  0  0  0  0
   35.0422  101.5829   29.5908 H   0  0  0  0  0  0  0  0  0  0  0  0
   33.5800  103.1496   29.6257 C   0  0  0  0  0  0  0  0  0  0  0  0
   32.3390  102.7098   30.3454 C   0  0  0  0  0  0  0  0  0  0  0  0
   31.2905  103.3826   30.1324 O   0  0  0  0  0  0  0  0  0  0  0  0
   32.4426  101.7337   31.0768 O   0  0  0  0  0  0  0  0  0  0  0  0
   33.2692  101.3019   31.1676 H   0  0  0  0  0  0  0  0  0  0  0  0
   34.6563  100.4123   24.7106 C   0  0  0  0  0  0  0  0  0  0  0  0
   33.8124   99.5574   24.9997 O   0  0  0  0  0  0  0  0  0  0  0  0
   35.3604  101.0767   25.6856 N   0  0  0  0  0  0  0  0  0  0  0  0
   36.0103  101.7651   25.4154 H   0  0  0  0  0  0  0  0  0  0  0  0
   35.0027  100.8160   23.2913 C   0  0  0  0  0  0  0  0  0  0  0  0
   36.3234  101.5830   23.2717 C   0  0  0  0  0  0  0  0  0  0  0  0
   34.9821  103.2912   22.1094 N   0  0  0  0  0  0  0  0  0  0  0  0
   36.0375  103.1028   23.1283 C   0  0  0  0  0  0  0  0  0  0  0  0
   34.7841  104.2863   22.0049 H   0  0  0  0  0  0  0  0  0  0  0  0
   34.1350  102.8050   22.4035 H   0  0  0  0  0  0  0  0  0  0  0  0
   37.3106  103.8598   22.7377 C   0  0  0  0  0  0  0  0  0  0  0  0
   38.2059  103.9088   23.6234 O   0  0  0  0  0  0  0  0  0  0  0  0
   37.4009  104.3540   21.6147 O   0  0  0  0  0  0  0  0  0  0  0  0
   36.6897  104.2753   21.0097 H   0  0  0  0  0  0  0  0  0  0  0  0
   36.8449  104.0020   27.5448 S   0  0  0  0  0  0  0  0  0  0  0  0
   37.9770  105.2809   26.8741 C   0  0  0  0  0  0  0  0  0  0  0  0
   37.7345  106.6002   27.5741 C   0  0  0  0  0  0  0  0  0  0  0  0
   37.3402  106.3955   28.9856 N   0  0  0  0  0  0  0  0  0  0  0  0
   38.3169  106.4564   29.9714 C   0  0  0  0  0  0  0  0  0  0  0  0
   39.4812  106.7184   29.6653 O   0  0  0  0  0  0  0  0  0  0  0  0
   36.4009  106.2190   29.2222 H   0  0  0  0  0  0  0  0  0  0  0  0
   37.8799  106.1966   31.3826 C   0  0  0  0  0  0  0  0  0  0  0  0
   36.4580  105.5897   31.3157 C   0  0  0  0  0  0  0  0  0  0  0  0
   35.4999  106.5666   32.0086 C   0  0  0  0  0  0  0  0  0  0  0  0
   35.1663  106.0934   33.3703 N   0  0  0  0  0  0  0  0  0  0  0  0
   34.7245  105.1759   33.3127 H   0  0  0  0  0  0  0  0  0  0  0  0
   34.5250  106.7524   33.8117 H   0  0  0  0  0  0  0  0  0  0  0  0
   34.2569  106.6913   31.1399 C   0  0  0  0  0  0  0  0  0  0  0  0
   33.1484  106.6023   31.7372 O   0  0  0  0  0  0  0  0  0  0  0  0
   34.4076  106.8562   29.9303 O   0  0  0  0  0  0  0  0  0  0  0  0
   35.2703  106.9115   29.5689 H   0  0  0  0  0  0  0  0  0  0  0  0
   35.6956  108.0632   27.3788 N   0  0  0  0  0  0  0  0  0  0  0  0
   36.7273  107.4291   26.7553 C   0  0  0  0  0  0  0  0  0  0  0  0
   36.8695  107.4461   25.5271 O   0  0  0  0  0  0  0  0  0  0  0  0
   35.5815  107.9776   28.3530 H   0  0  0  0  0  0  0  0  0  0  0  0
   34.7471  108.8798   26.5924 C   0  0  0  0  0  0  0  0  0  0  0  0
   33.2730  108.6488   26.9259 C   0  0  0  0  0  0  0  0  0  0  0  0
   32.7001  107.6614   26.3808 O   0  0  0  0  0  0  0  0  0  0  0  0
   32.7484  109.4442   27.7007 O   0  0  0  0  0  0  0  0  0  0  0  0
   33.2504  110.1498   28.0588 H   0  0  0  0  0  0  0  0  0  0  0  0
 19 20  1  0  0  0
 20 23  1  0  0  0
 20 18  1  0  0  0
 23 24  2  0  0  0
 23 25  1  0  0  0
 18 17  1  0  0  0
 17 13  1  0  0  0
 13 14  2  0  0  0
 13 15  1  0  0  0
 15  3  1  0  0  0
  3  4  1  0  0  0
  3  2  1  0  0  0
  4  5  2  0  0  0
  4  6  1  0  0  0
  2  1  1  0  0  0
  1 27  1  0  0  0
  6  8  1  0  0  0
  8  9  1  0  0  0
  9 10  2  0  0  0
  9 11  1  0  0  0
 44 48  1  0  0  0
 44 45  1  0  0  0
 48 49  1  0  0  0
 49 50  2  0  0  0
 49 51  1  0  0  0
 45 46  2  0  0  0
 45 29  1  0  0  0
 29 30  1  0  0  0
 29 28  1  0  0  0
 30 31  1  0  0  0
 28 27  1  0  0  0
 36 40  1  0  0  0
 36 37  1  0  0  0
 36 35  1  0  0  0
 40 41  2  0  0  0
 40 42  1  0  0  0
 35 34  1  0  0  0
 34 31  1  0  0  0
 31 32  2  0  0  0
 19 21  1  0  0  0
 19 22  1  0  0  0
 25 26  1  0  0  0
 15 16  1  0  0  0
  6  7  1  0  0  0
 11 12  1  0  0  0
 44 47  1  0  0  0
 51 52  1  0  0  0
 30 33  1  0  0  0
 42 43  1  0  0  0
 37 38  1  0  0  0
 37 39  1  0  0  0
M  END
> <minimizedAffinity>
-7.92672

$$$$
4ZBA_GDS_A_300


 52 51  0  0  0  0  0  0  0  0999 V2000
   34.3111  103.0771   32.0888 S   0  0  0  0  0  0  0  0  0  0  0  0
   35.8212  104.0612   32.5227 C   0  0  0  0  0  0  0  0  0  0  0  0
   35.3917  105.5486   32.8231 C   0  0  0  0  0  0  0  0  0  0  0  0
   36.4796  106.2558   33.5934 C   0  0  0  0  0  0  0  0  0  0  0  0
   36.8771  107.3645   33.2256 O   0  0  0  0  0  0  0  0  0  0  0  0
   37.0000  105.6228   34.6588 N   0  0  0  0  0  0  0  0  0  0  0  0
   36.6414  104.7559   34.9571 H   0  0  0  0  0  0  0  0  0  0  0  0
   38.1149  106.2584   35.3632 C   0  0  0  0  0  0  0  0  0  0  0  0
   37.8056  106.8476   36.7080 C   0  0  0  0  0  0  0  0  0  0  0  0
   38.4700  107.8679   37.0474 O   0  0  0  0  0  0  0  0  0  0  0  0
   36.9331  106.2945   37.3648 O   0  0  0  0  0  0  0  0  0  0  0  0
   36.4969  105.5392   37.0224 H   0  0  0  0  0  0  0  0  0  0  0  0
   34.0262  106.7702   31.1301 C   0  0  0  0  0  0  0  0  0  0  0  0
   33.0539  106.7996   31.8919 O   0  0  0  0  0  0  0  0  0  0  0  0
   35.2123  106.1903   31.5107 N   0  0  0  0  0  0  0  0  0  0  0  0
   35.9701  106.2045   30.8823 H   0  0  0  0  0  0  0  0  0  0  0  0
   34.0250  107.3525   29.7307 C   0  0  0  0  0  0  0  0  0  0  0  0
   35.4325  107.3010   29.1399 C   0  0  0  0  0  0  0  0  0  0  0  0
   33.9990  107.6090   27.1606 N   0  0  0  0  0  0  0  0  0  0  0  0
   35.3867  107.7476   27.6531 C   0  0  0  0  0  0  0  0  0  0  0  0
   33.9543  107.8993   26.1838 H   0  0  0  0  0  0  0  0  0  0  0  0
   33.3798  108.1969   27.7186 H   0  0  0  0  0  0  0  0  0  0  0  0
   36.3498  106.9108   26.8054 C   0  0  0  0  0  0  0  0  0  0  0  0
   37.0968  107.5644   26.0287 O   0  0  0  0  0  0  0  0  0  0  0  0
   36.3579  105.6868   26.9284 O   0  0  0  0  0  0  0  0  0  0  0  0
   35.7701  105.2724   27.5290 H   0  0  0  0  0  0  0  0  0  0  0  0
   34.1757  103.1565   30.0329 S   0  0  0  0  0  0  0  0  0  0  0  0
   32.4349  103.6109   29.6720 C   0  0  0  0  0  0  0  0  0  0  0  0
   32.1646  103.4739   28.1895 C   0  0  0  0  0  0  0  0  0  0  0  0
   30.8217  103.9866   27.8382 N   0  0  0  0  0  0  0  0  0  0  0  0
   30.6969  105.2995   27.4022 C   0  0  0  0  0  0  0  0  0  0  0  0
   31.7016  106.0014   27.2754 O   0  0  0  0  0  0  0  0  0  0  0  0
   30.0296  103.4066   27.9122 H   0  0  0  0  0  0  0  0  0  0  0  0
   29.3118  105.7906   27.1019 C   0  0  0  0  0  0  0  0  0  0  0  0
   28.7810  104.9585   25.9101 C   0  0  0  0  0  0  0  0  0  0  0  0
   27.2559  105.1172   25.8717 C   0  0  0  0  0  0  0  0  0  0  0  0
   26.7460  105.5807   27.1812 N   0  0  0  0  0  0  0  0  0  0  0  0
   26.9937  104.9026   27.9018 H   0  0  0  0  0  0  0  0  0  0  0  0
   25.7313  105.6746   27.1370 H   0  0  0  0  0  0  0  0  0  0  0  0
   26.6597  103.7721   25.4838 C   0  0  0  0  0  0  0  0  0  0  0  0
   26.8427  103.4049   24.2900 O   0  0  0  0  0  0  0  0  0  0  0  0
   26.0379  103.1439   26.3392 O   0  0  0  0  0  0  0  0  0  0  0  0
   25.9501  103.4918   27.2047 H   0  0  0  0  0  0  0  0  0  0  0  0
   33.3683  101.7224   26.8408 N   0  0  0  0  0  0  0  0  0  0  0  0
   32.4100  102.0143   27.7638 C   0  0  0  0  0  0  0  0  0  0  0  0
   31.6751  101.1479   28.2518 O   0  0  0  0  0  0  0  0  0  0  0  0
   33.8938  102.4468   26.4306 H   0  0  0  0  0  0  0  0  0  0  0  0
   33.6188  100.3176   26.4553 C   0  0  0  0  0  0  0  0  0  0  0  0
   34.3846  100.1398   25.1440 C   0  0  0  0  0  0  0  0  0  0  0  0
   34.2244  101.0218   24.2515 O   0  0  0  0  0  0  0  0  0  0  0  0
   35.1013   99.1469   25.0506 O   0  0  0  0  0  0  0  0  0  0  0  0
   35.1606   98.5431   25.7646 H   0  0  0  0  0  0  0  0  0  0  0  0
 19 20  1  0  0  0
 20 23  1  0  0  0
 20 18  1  0  0  0
 23 24  2  0  0  0
 23 25  1  0  0  0
 18 17  1  0  0  0
 17 13  1  0  0  0
 13 14  2  0  0  0
 13 15  1  0  0  0
 15  3  1  0  0  0
  3  4  1  0  0  0
  3  2  1  0  0  0
  4  5  2  0  0  0
  4  6  1  0  0  0
  2  1  1  0  0  0
  1 27  1  0  0  0
  6  8  1  0  0  0
  8  9  1  0  0  0
  9 10  2  0  0  0
  9 11  1  0  0  0
 44 48  1  0  0  0
 44 45  1  0  0  0
 48 49  1  0  0  0
 49 50  2  0  0  0
 49 51  1  0  0  0
 45 46  2  0  0  0
 45 29  1  0  0  0
 29 30  1  0  0  0
 29 28  1  0  0  0
 30 31  1  0  0  0
 28 27  1  0  0  0
 36 40  1  0  0  0
 36 37  1  0  0  0
 36 35  1  0  0  0
 40 41  2  0  0  0
 40 42  1  0  0  0
 35 34  1  0  0  0
 34 31  1  0  0  0
 31 32  2  0  0  0
 19 21  1  0  0  0
 19 22  1  0  0  0
 25 26  1  0  0  0
 15 16  1  0  0  0
  6  7  1  0  0  0
 11 12  1  0  0  0
 44 47  1  0  0  0
 51 52  1  0  0  0
 30 33  1  0  0  0
 42 43  1  0  0  0
 37 38  1  0  0  0
 37 39  1  0  0  0
M  END
> <minimizedAffinity>
-7.90706

$$$$
4ZBA_GDS_A_300


 52 51  0  0  0  0  0  0  0  0999 V2000
   34.6102  104.9600   28.5006 S   0  0  0  0  0  0  0  0  0  0  0  0
   34.9922  106.7628   28.2980 C   0  0  0  0  0  0  0  0  0  0  0  0
   36.5420  106.9322   28.0598 C   0  0  0  0  0  0  0  0  0  0  0  0
   37.2682  106.9642   29.3821 C   0  0  0  0  0  0  0  0  0  0  0  0
   38.4951  106.8369   29.4170 O   0  0  0  0  0  0  0  0  0  0  0  0
   36.5287  107.1085   30.4951 N   0  0  0  0  0  0  0  0  0  0  0  0
   35.5555  107.2469   30.4414 H   0  0  0  0  0  0  0  0  0  0  0  0
   37.2106  107.0542   31.7894 C   0  0  0  0  0  0  0  0  0  0  0  0
   37.3067  105.7041   32.4370 C   0  0  0  0  0  0  0  0  0  0  0  0
   38.0617  105.6109   33.4464 O   0  0  0  0  0  0  0  0  0  0  0  0
   36.6436  104.8046   31.9374 O   0  0  0  0  0  0  0  0  0  0  0  0
   36.1122  104.9766   31.1851 H   0  0  0  0  0  0  0  0  0  0  0  0
   37.4108  105.8407   25.9918 C   0  0  0  0  0  0  0  0  0  0  0  0
   37.5024  106.9316   25.4189 O   0  0  0  0  0  0  0  0  0  0  0  0
   36.9634  105.7519   27.2879 N   0  0  0  0  0  0  0  0  0  0  0  0
   36.9233  104.8663   27.7160 H   0  0  0  0  0  0  0  0  0  0  0  0
   37.7703  104.5143   25.3525 C   0  0  0  0  0  0  0  0  0  0  0  0
   36.6385  104.0485   24.4388 C   0  0  0  0  0  0  0  0  0  0  0  0
   37.7996  104.3159   22.2829 N   0  0  0  0  0  0  0  0  0  0  0  0
   37.2356  103.3105   23.2096 C   0  0  0  0  0  0  0  0  0  0  0  0
   38.1957  103.8444   21.4698 H   0  0  0  0  0  0  0  0  0  0  0  0
   38.5304  104.8448   22.7588 H   0  0  0  0  0  0  0  0  0  0  0  0
   36.1650  102.4675   22.5101 C   0  0  0  0  0  0  0  0  0  0  0  0
   36.5572  101.8197   21.5027 O   0  0  0  0  0  0  0  0  0  0  0  0
   35.0187  102.4525   22.9564 O   0  0  0  0  0  0  0  0  0  0  0  0
   34.8035  102.9630   23.7121 H   0  0  0  0  0  0  0  0  0  0  0  0
   33.5326  104.8205   30.2531 S   0  0  0  0  0  0  0  0  0  0  0  0
   31.8770  104.1986   29.7640 C   0  0  0  0  0  0  0  0  0  0  0  0
   31.8463  103.9350   28.2744 C   0  0  0  0  0  0  0  0  0  0  0  0
   30.6053  104.4582   27.6612 N   0  0  0  0  0  0  0  0  0  0  0  0
   30.6295  105.7100   27.0596 C   0  0  0  0  0  0  0  0  0  0  0  0
   31.6839  106.3452   27.0083 O   0  0  0  0  0  0  0  0  0  0  0  0
   29.7762  103.9278   27.6793 H   0  0  0  0  0  0  0  0  0  0  0  0
   29.3379  106.2201   26.4925 C   0  0  0  0  0  0  0  0  0  0  0  0
   28.7199  105.0715   25.6598 C   0  0  0  0  0  0  0  0  0  0  0  0
   27.1976  105.1326   25.8368 C   0  0  0  0  0  0  0  0  0  0  0  0
   26.8478  105.4946   27.2283 N   0  0  0  0  0  0  0  0  0  0  0  0
   27.2311  104.7981   27.8674 H   0  0  0  0  0  0  0  0  0  0  0  0
   25.8330  105.5246   27.3269 H   0  0  0  0  0  0  0  0  0  0  0  0
   26.6315  103.7732   25.4536 C   0  0  0  0  0  0  0  0  0  0  0  0
   26.9669  103.3294   24.3205 O   0  0  0  0  0  0  0  0  0  0  0  0
   25.8867  103.2078   26.2527 O   0  0  0  0  0  0  0  0  0  0  0  0
   25.6899  103.6106   27.0754 H   0  0  0  0  0  0  0  0  0  0  0  0
   33.0996  102.0325   27.2041 N   0  0  0  0  0  0  0  0  0  0  0  0
   32.0870  102.4350   28.0215 C   0  0  0  0  0  0  0  0  0  0  0  0
   31.3005  101.6365   28.5436 O   0  0  0  0  0  0  0  0  0  0  0  0
   33.6686  102.7014   26.7590 H   0  0  0  0  0  0  0  0  0  0  0  0
   33.3438  100.5912   26.9858 C   0  0  0  0  0  0  0  0  0  0  0  0
   34.1025  100.2572   25.7011 C   0  0  0  0  0  0  0  0  0  0  0  0
   35.1793  100.8835   25.4807 O   0  0  0  0  0  0  0  0  0  0  0  0
   33.6077   99.4027   24.9710 O   0  0  0  0  0  0  0  0  0  0  0  0
   32.8033   98.9879   25.2136 H   0  0  0  0  0  0  0  0  0  0  0  0
 19 20  1  0  0  0
 20 23  1  0  0  0
 20 18  1  0  0  0
 23 24  2  0  0  0
 23 25  1  0  0  0
 18 17  1  0  0  0
 17 13  1  0  0  0
 13 14  2  0  0  0
 13 15  1  0  0  0
 15  3  1  0  0  0
  3  4  1  0  0  0
  3  2  1  0  0  0
  4  5  2  0  0  0
  4  6  1  0  0  0
  2  1  1  0  0  0
  1 27  1  0  0  0
  6  8  1  0  0  0
  8  9  1  0  0  0
  9 10  2  0  0  0
  9 11  1  0  0  0
 44 48  1  0  0  0
 44 45  1  0  0  0
 48 49  1  0  0  0
 49 50  2  0  0  0
 49 51  1  0  0  0
 45 46  2  0  0  0
 45 29  1  0  0  0
 29 30  1  0  0  0
 29 28  1  0  0  0
 30 31  1  0  0  0
 28 27  1  0  0  0
 36 40  1  0  0  0
 36 37  1  0  0  0
 36 35  1  0  0  0
 40 41  2  0  0  0
 40 42  1  0  0  0
 35 34  1  0  0  0
 34 31  1  0  0  0
 31 32  2  0  0  0
 19 21  1  0  0  0
 19 22  1  0  0  0
 25 26  1  0  0  0
 15 16  1  0  0  0
  6  7  1  0  0  0
 11 12  1  0  0  0
 44 47  1  0  0  0
 51 52  1  0  0  0
 30 33  1  0  0  0
 42 43  1  0  0  0
 37 38  1  0  0  0
 37 39  1  0  0  0
M  END
> <minimizedAffinity>
-7.89754

$$$$
4ZBA_GDS_A_300


 52 51  0  0  0  0  0  0  0  0999 V2000
   35.2899  104.1516   29.6666 S   0  0  0  0  0  0  0  0  0  0  0  0
   35.5129  104.9662   28.0162 C   0  0  0  0  0  0  0  0  0  0  0  0
   36.4050  106.2539   28.1994 C   0  0  0  0  0  0  0  0  0  0  0  0
   35.7469  107.4380   27.5349 C   0  0  0  0  0  0  0  0  0  0  0  0
   36.2360  107.9234   26.5113 O   0  0  0  0  0  0  0  0  0  0  0  0
   34.6433  107.9423   28.1131 N   0  0  0  0  0  0  0  0  0  0  0  0
   34.2486  107.5158   28.9077 H   0  0  0  0  0  0  0  0  0  0  0  0
   34.0446  109.1435   27.5284 C   0  0  0  0  0  0  0  0  0  0  0  0
   32.9560  108.9232   26.5196 C   0  0  0  0  0  0  0  0  0  0  0  0
   31.9406  109.6708   26.6075 O   0  0  0  0  0  0  0  0  0  0  0  0
   33.1415  108.0404   25.6922 O   0  0  0  0  0  0  0  0  0  0  0  0
   33.9327  107.5388   25.7117 H   0  0  0  0  0  0  0  0  0  0  0  0
   37.6927  106.6386   30.3011 C   0  0  0  0  0  0  0  0  0  0  0  0
   38.7629  106.6189   29.6840 O   0  0  0  0  0  0  0  0  0  0  0  0
   36.4924  106.4816   29.6510 N   0  0  0  0  0  0  0  0  0  0  0  0
   35.6602  106.5230   30.1754 H   0  0  0  0  0  0  0  0  0  0  0  0
   37.5816  106.8326   31.8002 C   0  0  0  0  0  0  0  0  0  0  0  0
   38.1011  105.5951   32.5292 C   0  0  0  0  0  0  0  0  0  0  0  0
   36.0780  106.1119   33.8359 N   0  0  0  0  0  0  0  0  0  0  0  0
   37.4158  105.4867   33.9187 C   0  0  0  0  0  0  0  0  0  0  0  0
   35.6160  106.0477   34.7430 H   0  0  0  0  0  0  0  0  0  0  0  0
   35.5187  105.6266   33.1344 H   0  0  0  0  0  0  0  0  0  0  0  0
   38.2662  106.1647   34.9974 C   0  0  0  0  0  0  0  0  0  0  0  0
   39.2199  105.4756   35.4490 O   0  0  0  0  0  0  0  0  0  0  0  0
   37.9962  107.3122   35.3489 O   0  0  0  0  0  0  0  0  0  0  0  0
   37.2684  107.7608   34.9654 H   0  0  0  0  0  0  0  0  0  0  0  0
   33.4832  104.8427   30.3806 S   0  0  0  0  0  0  0  0  0  0  0  0
   32.2378  103.6054   29.8469 C   0  0  0  0  0  0  0  0  0  0  0  0
   32.1891  103.5438   28.3358 C   0  0  0  0  0  0  0  0  0  0  0  0
   30.8728  103.9834   27.8220 N   0  0  0  0  0  0  0  0  0  0  0  0
   30.7290  105.2904   27.3742 C   0  0  0  0  0  0  0  0  0  0  0  0
   31.7006  106.0480   27.3721 O   0  0  0  0  0  0  0  0  0  0  0  0
   30.1115  103.3597   27.7978 H   0  0  0  0  0  0  0  0  0  0  0  0
   29.3659  105.7056   26.9057 C   0  0  0  0  0  0  0  0  0  0  0  0
   29.4446  107.2091   26.5482 C   0  0  0  0  0  0  0  0  0  0  0  0
   28.0354  107.7977   26.6904 C   0  0  0  0  0  0  0  0  0  0  0  0
   27.0303  106.8996   26.0800 N   0  0  0  0  0  0  0  0  0  0  0  0
   27.2424  106.7749   25.0901 H   0  0  0  0  0  0  0  0  0  0  0  0
   26.1021  107.3104   26.1798 H   0  0  0  0  0  0  0  0  0  0  0  0
   28.0365  109.1677   26.0283 C   0  0  0  0  0  0  0  0  0  0  0  0
   26.9088  109.6254   25.6930 O   0  0  0  0  0  0  0  0  0  0  0  0
   29.1176  109.7278   25.8538 O   0  0  0  0  0  0  0  0  0  0  0  0
   29.9101  109.3146   26.1350 H   0  0  0  0  0  0  0  0  0  0  0  0
   33.8061  101.9410   27.2626 N   0  0  0  0  0  0  0  0  0  0  0  0
   32.6042  102.1346   27.8737 C   0  0  0  0  0  0  0  0  0  0  0  0
   31.7883  101.2195   28.0346 O   0  0  0  0  0  0  0  0  0  0  0  0
   34.4041  102.7057   27.0990 H   0  0  0  0  0  0  0  0  0  0  0  0
   34.2120  100.5824   26.8452 C   0  0  0  0  0  0  0  0  0  0  0  0
   34.0788  100.3057   25.3474 C   0  0  0  0  0  0  0  0  0  0  0  0
   34.5603  101.1629   24.5515 O   0  0  0  0  0  0  0  0  0  0  0  0
   33.5087   99.2671   25.0238 O   0  0  0  0  0  0  0  0  0  0  0  0
   33.1818   98.6872   25.6832 H   0  0  0  0  0  0  0  0  0  0  0  0
 19 20  1  0  0  0
 20 23  1  0  0  0
 20 18  1  0  0  0
 23 24  2  0  0  0
 23 25  1  0  0  0
 18 17  1  0  0  0
 17 13  1  0  0  0
 13 14  2  0  0  0
 13 15  1  0  0  0
 15  3  1  0  0  0
  3  4  1  0  0  0
  3  2  1  0  0  0
  4  5  2  0  0  0
  4  6  1  0  0  0
  2  1  1  0  0  0
  1 27  1  0  0  0
  6  8  1  0  0  0
  8  9  1  0  0  0
  9 10  2  0  0  0
  9 11  1  0  0  0
 44 48  1  0  0  0
 44 45  1  0  0  0
 48 49  1  0  0  0
 49 50  2  0  0  0
 49 51  1  0  0  0
 45 46  2  0  0  0
 45 29  1  0  0  0
 29 30  1  0  0  0
 29 28  1  0  0  0
 30 31  1  0  0  0
 28 27  1  0  0  0
 36 40  1  0  0  0
 36 37  1  0  0  0
 36 35  1  0  0  0
 40 41  2  0  0  0
 40 42  1  0  0  0
 35 34  1  0  0  0
 34 31  1  0  0  0
 31 32  2  0  0  0
 19 21  1  0  0  0
 19 22  1  0  0  0
 25 26  1  0  0  0
 15 16  1  0  0  0
  6  7  1  0  0  0
 11 12  1  0  0  0
 44 47  1  0  0  0
 51 52  1  0  0  0
 30 33  1  0  0  0
 42 43  1  0  0  0
 37 38  1  0  0  0
 37 39  1  0  0  0
M  END
> <minimizedAffinity>
-7.88869

$$$$
4ZBA_GDS_A_300


 52 51  0  0  0  0  0  0  0  0999 V2000
   36.4514  107.3834   26.9435 S   0  0  0  0  0  0  0  0  0  0  0  0
   35.1178  107.6396   28.2056 C   0  0  0  0  0  0  0  0  0  0  0  0
   33.8349  106.8366   27.7622 C   0  0  0  0  0  0  0  0  0  0  0  0
   33.4620  105.8304   28.8230 C   0  0  0  0  0  0  0  0  0  0  0  0
   34.2437  105.5866   29.7462 O   0  0  0  0  0  0  0  0  0  0  0  0
   32.2766  105.2086   28.7020 N   0  0  0  0  0  0  0  0  0  0  0  0
   31.6522  105.4463   27.9789 H   0  0  0  0  0  0  0  0  0  0  0  0
   31.9398  104.1680   29.6750 C   0  0  0  0  0  0  0  0  0  0  0  0
   31.7587  102.7807   29.1328 C   0  0  0  0  0  0  0  0  0  0  0  0
   32.3003  101.8417   29.7829 O   0  0  0  0  0  0  0  0  0  0  0  0
   31.0986  102.6713   28.1077 O   0  0  0  0  0  0  0  0  0  0  0  0
   30.7375  103.4334   27.6995 H   0  0  0  0  0  0  0  0  0  0  0  0
   32.3990  108.3603   26.4059 C   0  0  0  0  0  0  0  0  0  0  0  0
   32.9482  107.9960   25.3608 O   0  0  0  0  0  0  0  0  0  0  0  0
   32.7619  107.8344   27.6223 N   0  0  0  0  0  0  0  0  0  0  0  0
   32.2869  108.1362   28.4301 H   0  0  0  0  0  0  0  0  0  0  0  0
   31.2947  109.3968   26.4668 C   0  0  0  0  0  0  0  0  0  0  0  0
   30.3089  109.1810   25.3204 C   0  0  0  0  0  0  0  0  0  0  0  0
   28.8703  110.7224   26.5940 N   0  0  0  0  0  0  0  0  0  0  0  0
   28.8652  109.4628   25.8188 C   0  0  0  0  0  0  0  0  0  0  0  0
   27.9270  110.9199   26.9279 H   0  0  0  0  0  0  0  0  0  0  0  0
   29.1871  111.4871   25.9979 H   0  0  0  0  0  0  0  0  0  0  0  0
   28.3500  108.3011   26.6740 C   0  0  0  0  0  0  0  0  0  0  0  0
   27.4854  108.6059   27.5389 O   0  0  0  0  0  0  0  0  0  0  0  0
   28.7785  107.1654   26.4741 O   0  0  0  0  0  0  0  0  0  0  0  0
   29.4233  107.0180   25.8105 H   0  0  0  0  0  0  0  0  0  0  0  0
   37.0369  105.4176   27.1544 S   0  0  0  0  0  0  0  0  0  0  0  0
   38.2489  105.4106   28.5320 C   0  0  0  0  0  0  0  0  0  0  0  0
   37.8265  104.4075   29.5832 C   0  0  0  0  0  0  0  0  0  0  0  0
   36.6871  103.5868   29.1162 N   0  0  0  0  0  0  0  0  0  0  0  0
   36.7245  102.2123   29.3124 C   0  0  0  0  0  0  0  0  0  0  0  0
   37.6779  101.7032   29.9041 O   0  0  0  0  0  0  0  0  0  0  0  0
   35.9152  104.0082   28.6736 H   0  0  0  0  0  0  0  0  0  0  0  0
   35.5701  101.4150   28.7816 C   0  0  0  0  0  0  0  0  0  0  0  0
   35.9008  101.0553   27.3133 C   0  0  0  0  0  0  0  0  0  0  0  0
   34.7669  101.5956   26.4331 C   0  0  0  0  0  0  0  0  0  0  0  0
   34.0744  102.7179   27.1041 N   0  0  0  0  0  0  0  0  0  0  0  0
   33.6854  102.3962   27.9904 H   0  0  0  0  0  0  0  0  0  0  0  0
   33.3217  103.0592   26.5063 H   0  0  0  0  0  0  0  0  0  0  0  0
   33.8154  100.4439   26.1444 C   0  0  0  0  0  0  0  0  0  0  0  0
   32.7694  100.3953   26.8494 O   0  0  0  0  0  0  0  0  0  0  0  0
   34.1252   99.6404   25.2661 O   0  0  0  0  0  0  0  0  0  0  0  0
   34.9239   99.7525   24.7892 H   0  0  0  0  0  0  0  0  0  0  0  0
   36.8516  106.3046   30.9197 N   0  0  0  0  0  0  0  0  0  0  0  0
   37.5662  105.1450   30.9099 C   0  0  0  0  0  0  0  0  0  0  0  0
   38.0715  104.6702   31.9337 O   0  0  0  0  0  0  0  0  0  0  0  0
   36.5153  106.6829   30.0753 H   0  0  0  0  0  0  0  0  0  0  0  0
   36.5811  106.9947   32.1986 C   0  0  0  0  0  0  0  0  0  0  0  0
   35.3880  106.4471   32.9823 C   0  0  0  0  0  0  0  0  0  0  0  0
   34.2625  106.9895   32.7845 O   0  0  0  0  0  0  0  0  0  0  0  0
   35.6105  105.5172   33.7531 O   0  0  0  0  0  0  0  0  0  0  0  0
   36.4790  105.1759   33.8371 H   0  0  0  0  0  0  0  0  0  0  0  0
 19 20  1  0  0  0
 20 23  1  0  0  0
 20 18  1  0  0  0
 23 24  2  0  0  0
 23 25  1  0  0  0
 18 17  1  0  0  0
 17 13  1  0  0  0
 13 14  2  0  0  0
 13 15  1  0  0  0
 15  3  1  0  0  0
  3  4  1  0  0  0
  3  2  1  0  0  0
  4  5  2  0  0  0
  4  6  1  0  0  0
  2  1  1  0  0  0
  1 27  1  0  0  0
  6  8  1  0  0  0
  8  9  1  0  0  0
  9 10  2  0  0  0
  9 11  1  0  0  0
 44 48  1  0  0  0
 44 45  1  0  0  0
 48 49  1  0  0  0
 49 50  2  0  0  0
 49 51  1  0  0  0
 45 46  2  0  0  0
 45 29  1  0  0  0
 29 30  1  0  0  0
 29 28  1  0  0  0
 30 31  1  0  0  0
 28 27  1  0  0  0
 36 40  1  0  0  0
 36 37  1  0  0  0
 36 35  1  0  0  0
 40 41  2  0  0  0
 40 42  1  0  0  0
 35 34  1  0  0  0
 34 31  1  0  0  0
 31 32  2  0  0  0
 19 21  1  0  0  0
 19 22  1  0  0  0
 25 26  1  0  0  0
 15 16  1  0  0  0
  6  7  1  0  0  0
 11 12  1  0  0  0
 44 47  1  0  0  0
 51 52  1  0  0  0
 30 33  1  0  0  0
 42 43  1  0  0  0
 37 38  1  0  0  0
 37 39  1  0  0  0
M  END
> <minimizedAffinity>
-7.80248

$$$$
4ZBA_GDS_A_300


 52 51  0  0  0  0  0  0  0  0999 V2000
   34.4265  104.4184   31.4208 S   0  0  0  0  0  0  0  0  0  0  0  0
   35.3151  103.2696   30.2685 C   0  0  0  0  0  0  0  0  0  0  0  0
   36.6158  103.9857   29.7369 C   0  0  0  0  0  0  0  0  0  0  0  0
   36.2752  104.8751   28.5665 C   0  0  0  0  0  0  0  0  0  0  0  0
   35.5346  104.4614   27.6704 O   0  0  0  0  0  0  0  0  0  0  0  0
   36.8253  106.1009   28.5354 N   0  0  0  0  0  0  0  0  0  0  0  0
   37.3824  106.4245   29.2799 H   0  0  0  0  0  0  0  0  0  0  0  0
   36.5732  106.9418   27.3639 C   0  0  0  0  0  0  0  0  0  0  0  0
   37.4147  106.6677   26.1522 C   0  0  0  0  0  0  0  0  0  0  0  0
   38.4151  107.4194   25.9737 O   0  0  0  0  0  0  0  0  0  0  0  0
   37.0659  105.7369   25.4378 O   0  0  0  0  0  0  0  0  0  0  0  0
   36.3044  105.2373   25.6578 H   0  0  0  0  0  0  0  0  0  0  0  0
   37.9092  104.2851   31.8489 C   0  0  0  0  0  0  0  0  0  0  0  0
   38.2661  103.1023   31.8329 O   0  0  0  0  0  0  0  0  0  0  0  0
   37.1132  104.8026   30.8557 N   0  0  0  0  0  0  0  0  0  0  0  0
   36.8664  105.7549   30.8938 H   0  0  0  0  0  0  0  0  0  0  0  0
   38.2958  105.2729   32.9315 C   0  0  0  0  0  0  0  0  0  0  0  0
   37.2673  105.2433   34.0602 C   0  0  0  0  0  0  0  0  0  0  0  0
   37.8252  107.5579   34.6918 N   0  0  0  0  0  0  0  0  0  0  0  0
   37.7342  106.1760   35.2110 C   0  0  0  0  0  0  0  0  0  0  0  0
   38.1312  108.1820   35.4382 H   0  0  0  0  0  0  0  0  0  0  0  0
   36.9098  107.8551   34.3539 H   0  0  0  0  0  0  0  0  0  0  0  0
   39.0844  105.7154   35.7687 C   0  0  0  0  0  0  0  0  0  0  0  0
   39.1107  104.5408   36.2248 O   0  0  0  0  0  0  0  0  0  0  0  0
   40.0469  106.4807   35.7338 O   0  0  0  0  0  0  0  0  0  0  0  0
   39.9480  107.3419   35.3781 H   0  0  0  0  0  0  0  0  0  0  0  0
   33.0549  105.4182   30.2500 S   0  0  0  0  0  0  0  0  0  0  0  0
   31.8152  104.1574   29.7598 C   0  0  0  0  0  0  0  0  0  0  0  0
   31.8582  103.9496   28.2616 C   0  0  0  0  0  0  0  0  0  0  0  0
   30.6131  104.4232   27.6172 N   0  0  0  0  0  0  0  0  0  0  0  0
   30.5828  105.7004   27.0721 C   0  0  0  0  0  0  0  0  0  0  0  0
   31.5961  106.4010   27.0953 O   0  0  0  0  0  0  0  0  0  0  0  0
   29.8192  103.8425   27.5754 H   0  0  0  0  0  0  0  0  0  0  0  0
   29.2863  106.1557   26.4708 C   0  0  0  0  0  0  0  0  0  0  0  0
   28.7073  104.9608   25.6761 C   0  0  0  0  0  0  0  0  0  0  0  0
   27.1780  105.0722   25.7128 C   0  0  0  0  0  0  0  0  0  0  0  0
   26.7255  105.6229   27.0095 N   0  0  0  0  0  0  0  0  0  0  0  0
   27.0345  105.0112   27.7650 H   0  0  0  0  0  0  0  0  0  0  0  0
   25.7073  105.6839   27.0163 H   0  0  0  0  0  0  0  0  0  0  0  0
   26.6062  103.6842   25.4647 C   0  0  0  0  0  0  0  0  0  0  0  0
   26.8674  103.1662   24.3436 O   0  0  0  0  0  0  0  0  0  0  0  0
   25.9276  103.1683   26.3515 O   0  0  0  0  0  0  0  0  0  0  0  0
   25.7833  103.6252   27.1567 H   0  0  0  0  0  0  0  0  0  0  0  0
   33.3561  102.1566   27.3252 N   0  0  0  0  0  0  0  0  0  0  0  0
   32.1970  102.4768   27.9652 C   0  0  0  0  0  0  0  0  0  0  0  0
   31.3591  101.6249   28.2830 O   0  0  0  0  0  0  0  0  0  0  0  0
   33.9711  102.8683   27.0348 H   0  0  0  0  0  0  0  0  0  0  0  0
   33.6900  100.7400   27.0669 C   0  0  0  0  0  0  0  0  0  0  0  0
   33.9990  100.4105   25.6062 C   0  0  0  0  0  0  0  0  0  0  0  0
   34.6660  101.2588   24.9462 O   0  0  0  0  0  0  0  0  0  0  0  0
   33.5728   99.3419   25.1766 O   0  0  0  0  0  0  0  0  0  0  0  0
   33.0857   98.7719   25.7385 H   0  0  0  0  0  0  0  0  0  0  0  0
 19 20  1  0  0  0
 20 23  1  0  0  0
 20 18  1  0  0  0
 23 24  2  0  0  0
 23 25  1  0  0  0
 18 17  1  0  0  0
 17 13  1  0  0  0
 13 14  2  0  0  0
 13 15  1  0  0  0
 15  3  1  0  0  0
  3  4  1  0  0  0
  3  2  1  0  0  0
  4  5  2  0  0  0
  4  6  1  0  0  0
  2  1  1  0  0  0
  1 27  1  0  0  0
  6  8  1  0  0  0
  8  9  1  0  0  0
  9 10  2  0  0  0
  9 11  1  0  0  0
 44 48  1  0  0  0
 44 45  1  0  0  0
 48 49  1  0  0  0
 49 50  2  0  0  0
 49 51  1  0  0  0
 45 46  2  0  0  0
 45 29  1  0  0  0
 29 30  1  0  0  0
 29 28  1  0  0  0
 30 31  1  0  0  0
 28 27  1  0  0  0
 36 40  1  0  0  0
 36 37  1  0  0  0
 36 35  1  0  0  0
 40 41  2  0  0  0
 40 42  1  0  0  0
 35 34  1  0  0  0
 34 31  1  0  0  0
 31 32  2  0  0  0
 19 21  1  0  0  0
 19 22  1  0  0  0
 25 26  1  0  0  0
 15 16  1  0  0  0
  6  7  1  0  0  0
 11 12  1  0  0  0
 44 47  1  0  0  0
 51 52  1  0  0  0
 30 33  1  0  0  0
 42 43  1  0  0  0
 37 38  1  0  0  0
 37 39  1  0  0  0
M  END
> <minimizedAffinity>
-7.74711

$$$$
