4ZBA_GDS_A_300
  RCSB PDB12061716363D
Coordinates from PDB:4ZBA:A:300 Model:1 without hydrogens
 40 39  0  0  0  0            999 V2000
   27.8950  108.1900   25.0110   N 0  0  0  0  0  0  0  0  0  0  0  0
   27.8360  106.9860   25.8680   C 0  0  0  0  0  0  0  0  0  0  0  0
   26.8020  107.1640   26.9840   C 0  0  0  0  0  0  0  0  0  0  0  0
   26.7450  108.3160   27.4920   O 0  0  0  0  0  0  0  0  0  0  0  0
   26.0930  106.2130   27.3100   O 0  0  0  0  0  0  0  0  0  0  0  0
   29.2480  106.7300   26.4620   C 0  0  0  0  0  0  0  0  0  0  0  0
   29.2890  105.3420   27.0980   C 0  0  0  0  0  0  0  0  0  0  0  0
   30.6990  105.0180   27.5500   C 0  0  0  0  0  0  0  0  0  0  0  0
   31.6540  105.7950   27.4460   O 0  0  0  0  0  0  0  0  0  0  0  0
   30.8540  103.7680   28.0990   N 0  0  0  0  0  0  0  0  0  0  0  0
   32.1450  103.2890   28.6190   C 0  0  0  0  0  0  0  0  0  0  0  0
   32.4720  101.9450   28.0160   C 0  0  0  0  0  0  0  0  0  0  0  0
   31.6140  101.0590   27.9780   O 0  0  0  0  0  0  0  0  0  0  0  0
   31.9590  103.1510   30.1790   C 0  0  0  0  0  0  0  0  0  0  0  0
   33.4420  102.2920   30.8860   S 0  0  0  0  0  0  0  0  0  0  0  0
   33.7210  101.7560   27.5570   N 0  0  0  0  0  0  0  0  0  0  0  0
   34.0770  100.4300   27.0490   C 0  0  0  0  0  0  0  0  0  0  0  0
   34.3830  100.3370   25.5830   C 0  0  0  0  0  0  0  0  0  0  0  0
   34.3530  101.4170   24.9270   O 0  0  0  0  0  0  0  0  0  0  0  0
   34.6400   99.2240   25.1430   O 0  0  0  0  0  0  0  0  0  0  0  0
   37.6090  104.7930   27.7190   N 0  0  0  0  0  0  0  0  0  0  0  0
   37.8590  105.2260   26.3280   C 0  0  0  0  0  0  0  0  0  0  0  0
   37.0880  106.4740   25.8970   C 0  0  0  0  0  0  0  0  0  0  0  0
   36.3180  107.0060   26.7480   O 0  0  0  0  0  0  0  0  0  0  0  0
   37.2710  106.8700   24.7490   O 0  0  0  0  0  0  0  0  0  0  0  0
   36.5310  104.0110   28.0050   C 0  0  0  0  0  0  0  0  0  0  0  0
   35.6940  103.6990   27.1500   O 0  0  0  0  0  0  0  0  0  0  0  0
   36.2820  103.5340   29.4480   C 0  0  0  0  0  0  0  0  0  0  0  0
   37.5170  103.2240   30.2020   N 0  0  0  0  0  0  0  0  0  0  0  0
   35.4390  104.5610   30.1720   C 0  0  0  0  0  0  0  0  0  0  0  0
   34.6410  103.7930   31.6350   S 0  0  0  0  0  0  0  0  0  0  0  0
   40.5170  100.0150   32.0810   C 0  0  0  0  0  0  0  0  0  0  0  0
   40.1870   98.9250   33.0900   C 0  0  0  0  0  0  0  0  0  0  0  0
   39.3090   99.2100   33.9510   O 0  0  0  0  0  0  0  0  0  0  0  0
   40.7940   97.8580   33.0120   O 0  0  0  0  0  0  0  0  0  0  0  0
   41.4970   99.5470   31.0760   N 0  0  0  0  0  0  0  0  0  0  0  0
   39.2070  100.4370   31.4040   C 0  0  0  0  0  0  0  0  0  0  0  0
   39.4590  101.7860   30.6890   C 0  0  0  0  0  0  0  0  0  0  0  0
   38.2400  102.0860   29.8680   C 0  0  0  0  0  0  0  0  0  0  0  0
   37.8700  101.3780   28.9300   O 0  0  0  0  0  0  0  0  0  0  0  0
  1  2  1  0  0  0  0
  2  3  1  0  0  0  0
  2  6  1  0  0  0  0
  3  4  2  0  0  0  0
  3  5  1  0  0  0  0
  6  7  1  0  0  0  0
  7  8  1  0  0  0  0
  8  9  2  0  0  0  0
  8 10  1  0  0  0  0
 10 11  1  0  0  0  0
 11 12  1  0  0  0  0
 11 14  1  0  0  0  0
 12 13  2  0  0  0  0
 12 16  1  0  0  0  0
 14 15  1  0  0  0  0
 15 31  1  0  0  0  0
 16 17  1  0  0  0  0
 17 18  1  0  0  0  0
 18 19  2  0  0  0  0
 18 20  1  0  0  0  0
 21 22  1  0  0  0  0
 21 26  1  0  0  0  0
 22 23  1  0  0  0  0
 23 24  2  0  0  0  0
 23 25  1  0  0  0  0
 26 27  2  0  0  0  0
 26 28  1  0  0  0  0
 28 29  1  0  0  0  0
 28 30  1  0  0  0  0
 29 39  1  0  0  0  0
 30 31  1  0  0  0  0
 32 33  1  0  0  0  0
 32 36  1  0  0  0  0
 32 37  1  0  0  0  0
 33 34  2  0  0  0  0
 33 35  1  0  0  0  0
 37 38  1  0  0  0  0
 38 39  1  0  0  0  0
 39 40  2  0  0  0  0
A    1
N1
A    2
CA1
A    3
C1
A    4
OE1
A    5
OE2
A    6
CB1
A    7
CG1
A    8
CD1
A    9
O1
A   10
N2
A   11
CA2
A   12
C2
A   13
O2
A   14
CB2
A   15
SG2
A   16
N3
A   17
CA3
A   18
C3
A   19
OE3
A   20
OE4
A   21
N4
A   22
CA4
A   23
C4
A   24
OE5
A   25
OE6
A   26
C5
A   27
O5
A   28
CA5
A   29
N5
A   30
CB5
A   31
SG5
A   32
CA6
A   33
C6
A   34
OE7
A   35
OE8
A   36
N6
A   37
CB6
A   38
CG6
A   39
CD6
A   40
O6
M  END
>  <InstanceId>
4ZBA_GDS_A_300

>  <ChemCompId>
GDS

>  <PdbId>
4ZBA

>  <ChainId>
A

>  <ResidueNumber>
300

>  <InsertionCode>


>  <Model>
1

>  <AltIds>


>  <MissingHeavyAtoms>
0

>  <ObservedFormula>
C20 N6 O12 S2

>  <Name>
OXIDIZED GLUTATHIONE DISULFIDE

>  <SystematicName>
(2S)-2-amino-5-[[(2R)-3-[(2R)-2-[[(4S)-4-amino-5-hydroxy-5-oxo-pentanoyl]amino]-3-(carboxymethylamino)-3-oxo-propyl]disulfanyl-1-(carboxymethylamino)-1-oxo-propan-2-yl]amino]-5-oxo-pentanoic acid

>  <Synonyms>


>  <Type>
NON-POLYMER

>  <Formula>
C20 H32 N6 O12 S2

>  <MolecularWeight>
612.631

>  <ModifiedDate>
2011-06-04

>  <Parent>


>  <OneLetterCode>


>  <SubcomponentList>


>  <AmbiguousFlag>
N

>  <InChI>
InChI=1S/C20H32N6O12S2/c21-9(19(35)36)1-3-13(27)25-11(17(33)23-5-15(29)30)7-39-40-8-12(18(34)24-6-16(31)32)26-14(28)4-2-10(22)20(37)38/h9-12H,1-8,21-22H2,(H,23,33)(H,24,34)(H,25,27)(H,26,28)(H,29,30)(H,31,32)(H,35,36)(H,37,38)/t9-,10-,11-,12-/m0/s1

>  <InChIKey>
YPZRWBKMTBYPTK-BJDJZHNGSA-N

>  <SMILES>
C(CC(=O)N[C@@H](CSSC[C@@H](C(=O)NCC(=O)O)NC(=O)CC[C@@H](C(=O)O)N)C(=O)NCC(=O)O)[C@@H](C(=O)O)N

$$$$
