2CEX_DAN_B_1307
  RCSB PDB12061705143D
Coordinates from PDB:2CEX:B:1307 Model:1 without hydrogens
 20 20  0  0  0  0            999 V2000
   60.0290    5.2250   31.6300   C 0  0  0  0  0  0  0  0  0  0  0  0
   59.9210    5.5850   30.2390   C 0  0  0  0  0  0  0  0  0  0  0  0
   60.4480    6.7200   29.7340   C 0  0  0  0  0  0  0  0  0  0  0  0
   60.1720    7.0940   28.3010   C 0  0  0  0  0  0  0  0  0  0  0  0
   58.7190    6.6320   27.9480   C 0  0  0  0  0  0  0  0  0  0  0  0
   58.5400    5.1230   28.2350   C 0  0  0  0  0  0  0  0  0  0  0  0
   57.0920    4.5900   28.1780   C 0  0  0  0  0  0  0  0  0  0  0  0
   57.0160    3.1590   28.7470   C 0  0  0  0  0  0  0  0  0  0  0  0
   55.6390    2.5340   28.4890   C 0  0  0  0  0  0  0  0  0  0  0  0
   57.4830    7.8430   26.1120   C 0  0  0  0  0  0  0  0  0  0  0  0
   57.4020    7.9760   24.6210   C 0  0  0  0  0  0  0  0  0  0  0  0
   58.3270    6.8870   26.5570   N 0  0  0  0  0  0  0  0  0  0  0  0
   60.6640    4.2890   32.0610   O 0  0  0  0  0  0  0  0  0  0  0  0
   59.3500    5.8820   32.4270   O 0  0  0  0  0  0  0  0  0  0  0  0
   60.3220    8.5310   28.2080   O 0  0  0  0  0  0  0  0  0  0  0  0
   59.0830    4.6810   29.4900   O 0  0  0  0  0  0  0  0  0  0  0  0
   56.1010    5.4730   28.7950   O 0  0  0  0  0  0  0  0  0  0  0  0
   58.0180    2.3020   28.1700   O 0  0  0  0  0  0  0  0  0  0  0  0
   55.0310    3.0030   27.2750   O 0  0  0  0  0  0  0  0  0  0  0  0
   56.8380    8.5810   26.8440   O 0  0  0  0  0  0  0  0  0  0  0  0
  1  2  1  0  0  0  0
  1 13  2  0  0  0  0
  1 14  1  0  0  0  0
  2  3  2  0  0  0  0
  2 16  1  0  0  0  0
  3  4  1  0  0  0  0
  4  5  1  0  0  0  0
  4 15  1  0  0  0  0
  5  6  1  0  0  0  0
  5 12  1  0  0  0  0
  6  7  1  0  0  0  0
  6 16  1  0  0  0  0
  7  8  1  0  0  0  0
  7 17  1  0  0  0  0
  8  9  1  0  0  0  0
  8 18  1  0  0  0  0
  9 19  1  0  0  0  0
 10 11  1  0  0  0  0
 10 12  1  0  0  0  0
 10 20  2  0  0  0  0
A    1
C1
A    2
C2
A    3
C3
A    4
C4
A    5
C5
A    6
C6
A    7
C7
A    8
C8
A    9
C9
A   10
C10
A   11
C11
A   12
N5
A   13
O1A
A   14
O1B
A   15
O4
A   16
O6
A   17
O7
A   18
O8
A   19
O9
A   20
O10
M  END
>  <InstanceId>
2CEX_DAN_B_1307

>  <ChemCompId>
DAN

>  <PdbId>
2CEX

>  <ChainId>
B

>  <ResidueNumber>
1307

>  <InsertionCode>


>  <Model>
1

>  <AltIds>


>  <MissingHeavyAtoms>
0

>  <ObservedFormula>
C11 N O8

>  <Name>
2-DEOXY-2,3-DEHYDRO-N-ACETYL-NEURAMINIC ACID

>  <SystematicName>
(4S,5R,6R)-5-acetamido-4-hydroxy-6-[(1R,2R)-1,2,3-trihydroxypropyl]-5,6-dihydro-4H-pyran-2-carboxylic acid

>  <Synonyms>


>  <Type>
NON-POLYMER

>  <Formula>
C11 H17 N O8

>  <MolecularWeight>
291.255

>  <ModifiedDate>
2011-06-04

>  <Parent>


>  <OneLetterCode>


>  <SubcomponentList>


>  <AmbiguousFlag>
N

>  <InChI>
InChI=1S/C11H17NO8/c1-4(14)12-8-5(15)2-7(11(18)19)20-10(8)9(17)6(16)3-13/h2,5-6,8-10,13,15-17H,3H2,1H3,(H,12,14)(H,18,19)/t5-,6+,8+,9+,10+/m0/s1

>  <InChIKey>
JINJZWSZQKHCIP-UFGQHTETSA-N

>  <SMILES>
CC(=O)N[C@@H]1[C@H](C=C(O[C@H]1[C@@H]([C@@H](CO)O)O)C(=O)O)O

$$$$
