3CKE_FDF_A_400


 29 28  0  0  0  0  0  0  0  0999 V2000
   -2.2376  -34.6897   17.2510 C   0  0  0  0  0  0  0  0  0  0  0  0
   -2.5140  -34.8456   15.9256 C   0  0  0  0  0  0  0  0  0  0  0  0
   -2.1537  -36.1322   15.1578 C   0  0  0  0  0  0  0  0  0  0  0  0
   -1.5996  -35.7995   18.0547 C   0  0  0  0  0  0  0  0  0  0  0  0
   -2.2626  -36.1866   19.3169 O   0  0  0  0  0  0  0  0  0  0  0  0
   -2.1102  -37.6642   19.5079 P   0  0  0  0  0  0  0  0  0  0  0  0
   -2.8284  -38.2234   20.7897 O   0  0  0  0  0  0  0  0  0  0  0  0
   -2.8688  -38.3135   18.2358 O   0  0  0  0  0  0  0  0  0  0  0  0
   -2.6872  -39.1813   20.8474 H   0  0  0  0  0  0  0  0  0  0  0  0
   -0.6048  -38.1460   19.3109 O   0  0  0  0  0  0  0  0  0  0  0  0
    0.0586  -38.2225   20.8457 P   0  0  0  0  0  0  0  0  0  0  0  0
   -0.2822  -36.9459   21.6298 O   0  0  0  0  0  0  0  0  0  0  0  0
   -0.4886  -39.4520   21.7580 O   0  0  0  0  0  0  0  0  0  0  0  0
    1.6798  -38.4464   20.6242 O   0  0  0  0  0  0  0  0  0  0  0  0
    0.1056  -36.9983   22.5174 H   0  0  0  0  0  0  0  0  0  0  0  0
    2.1199  -38.4986   21.4870 H   0  0  0  0  0  0  0  0  0  0  0  0
   -3.2115  -33.7374   15.1622 C   0  0  0  0  0  0  0  0  0  0  0  0
   -2.1207  -32.9136   14.4213 C   0  0  0  0  0  0  0  0  0  0  0  0
   -1.6544  -31.7963   15.3300 C   0  0  0  0  0  0  0  0  0  0  0  0
   -0.4108  -31.6897   15.7834 C   0  0  0  0  0  0  0  0  0  0  0  0
    0.7053  -32.7025   15.4317 C   0  0  0  0  0  0  0  0  0  0  0  0
   -0.0938  -30.5353   16.6723 C   0  0  0  0  0  0  0  0  0  0  0  0
    0.8687  -31.0262   17.7496 C   0  0  0  0  0  0  0  0  0  0  0  0
    0.0915  -31.5165   18.9545 C   0  0  0  0  0  0  0  0  0  0  0  0
   -0.0263  -30.7756   20.1068 C   0  0  0  0  0  0  0  0  0  0  0  0
   -0.7276  -31.3231   21.1682 C   0  0  0  0  0  0  0  0  0  0  0  0
   -0.2452  -32.4039   21.6865 F   0  0  0  0  0  0  0  0  0  0  0  0
    0.5973  -29.4939   20.2205 C   0  0  0  0  0  0  0  0  0  0  0  0
    1.9222  -29.2809   20.2448 F   0  0  0  0  0  0  0  0  0  0  0  0
  8  6  2  0  0  0
 10  6  1  0  0  0
  6  7  1  0  0  0
  6  5  1  0  0  0
 13 11  2  0  0  0
 12 11  1  0  0  0
 14 11  1  0  0  0
 11 10  1  0  0  0
  4  5  1  0  0  0
  4  1  1  0  0  0
  1  2  2  0  0  0
  2  3  1  0  0  0
  2 17  1  0  0  0
 18 17  1  0  0  0
 19 18  1  0  0  0
 20 19  2  0  0  0
 22 20  1  0  0  0
 20 21  1  0  0  0
 23 22  1  0  0  0
 23 24  1  0  0  0
 25 24  2  0  0  0
 28 25  1  0  0  0
 25 26  1  0  0  0
 27 26  1  0  0  0
 28 29  1  0  0  0
  7  9  1  0  0  0
 12 15  1  0  0  0
 14 16  1  0  0  0
M  END
> <minimizedAffinity>
-8.18950

$$$$
3CKE_FDF_A_400


 29 28  0  0  0  0  0  0  0  0999 V2000
    0.3945  -36.6621   20.3749 C   0  0  0  0  0  0  0  0  0  0  0  0
    0.9386  -35.4250   20.1992 C   0  0  0  0  0  0  0  0  0  0  0  0
    2.0255  -35.1489   19.1423 C   0  0  0  0  0  0  0  0  0  0  0  0
    0.7993  -37.8279   19.5022 C   0  0  0  0  0  0  0  0  0  0  0  0
    1.6138  -38.8896   20.1281 O   0  0  0  0  0  0  0  0  0  0  0  0
    0.7062  -39.9956   20.5710 P   0  0  0  0  0  0  0  0  0  0  0  0
   -0.1098  -39.6732   21.8754 O   0  0  0  0  0  0  0  0  0  0  0  0
   -0.3737  -40.1316   19.3750 O   0  0  0  0  0  0  0  0  0  0  0  0
   -0.6723  -40.4307   22.1004 H   0  0  0  0  0  0  0  0  0  0  0  0
    1.4329  -41.4131   20.5599 O   0  0  0  0  0  0  0  0  0  0  0  0
    2.8808  -41.1944   21.3704 P   0  0  0  0  0  0  0  0  0  0  0  0
    2.7827  -39.9768   22.3026 O   0  0  0  0  0  0  0  0  0  0  0  0
    3.3165  -42.4374   22.3235 O   0  0  0  0  0  0  0  0  0  0  0  0
    4.0329  -41.0348   20.1978 O   0  0  0  0  0  0  0  0  0  0  0  0
    3.6253  -39.8573   22.7681 H   0  0  0  0  0  0  0  0  0  0  0  0
    4.9002  -40.9044   20.6122 H   0  0  0  0  0  0  0  0  0  0  0  0
    0.4658  -34.2622   21.0489 C   0  0  0  0  0  0  0  0  0  0  0  0
    1.6384  -33.2470   21.1568 C   0  0  0  0  0  0  0  0  0  0  0  0
    1.4516  -32.1750   20.1043 C   0  0  0  0  0  0  0  0  0  0  0  0
    0.4560  -31.2963   20.1203 C   0  0  0  0  0  0  0  0  0  0  0  0
   -0.6301  -31.2718   21.2225 C   0  0  0  0  0  0  0  0  0  0  0  0
    0.3972  -30.2954   19.0166 C   0  0  0  0  0  0  0  0  0  0  0  0
    0.9129  -30.9684   17.7482 C   0  0  0  0  0  0  0  0  0  0  0  0
   -0.1835  -31.0140   16.7032 C   0  0  0  0  0  0  0  0  0  0  0  0
   -0.9034  -32.1554   16.4395 C   0  0  0  0  0  0  0  0  0  0  0  0
   -1.8622  -32.1087   15.4413 C   0  0  0  0  0  0  0  0  0  0  0  0
   -1.9303  -31.0174   14.7528 F   0  0  0  0  0  0  0  0  0  0  0  0
   -0.6367  -33.3692   17.1467 C   0  0  0  0  0  0  0  0  0  0  0  0
   -1.1356  -33.6846   18.3520 F   0  0  0  0  0  0  0  0  0  0  0  0
  8  6  2  0  0  0
 10  6  1  0  0  0
  6  7  1  0  0  0
  6  5  1  0  0  0
 13 11  2  0  0  0
 12 11  1  0  0  0
 14 11  1  0  0  0
 11 10  1  0  0  0
  4  5  1  0  0  0
  4  1  1  0  0  0
  1  2  2  0  0  0
  2  3  1  0  0  0
  2 17  1  0  0  0
 18 17  1  0  0  0
 19 18  1  0  0  0
 20 19  2  0  0  0
 22 20  1  0  0  0
 20 21  1  0  0  0
 23 22  1  0  0  0
 23 24  1  0  0  0
 25 24  2  0  0  0
 28 25  1  0  0  0
 25 26  1  0  0  0
 27 26  1  0  0  0
 28 29  1  0  0  0
  7  9  1  0  0  0
 12 15  1  0  0  0
 14 16  1  0  0  0
M  END
> <minimizedAffinity>
-8.14250

$$$$
3CKE_FDF_A_400


 29 28  0  0  0  0  0  0  0  0999 V2000
    0.8407  -37.6927   20.2115 C   0  0  0  0  0  0  0  0  0  0  0  0
    0.4608  -36.3991   20.4110 C   0  0  0  0  0  0  0  0  0  0  0  0
   -0.9775  -36.0187   20.8125 C   0  0  0  0  0  0  0  0  0  0  0  0
   -0.1263  -38.8352   20.4214 C   0  0  0  0  0  0  0  0  0  0  0  0
   -0.1799  -39.4358   21.7699 O   0  0  0  0  0  0  0  0  0  0  0  0
    0.0830  -40.9056   21.6538 P   0  0  0  0  0  0  0  0  0  0  0  0
    0.2481  -41.6395   23.0343 O   0  0  0  0  0  0  0  0  0  0  0  0
   -1.2584  -41.5007   20.9744 O   0  0  0  0  0  0  0  0  0  0  0  0
    0.4150  -42.5826   22.8812 H   0  0  0  0  0  0  0  0  0  0  0  0
    1.2070  -41.2339   20.5739 O   0  0  0  0  0  0  0  0  0  0  0  0
    2.6522  -41.2908   21.4164 P   0  0  0  0  0  0  0  0  0  0  0  0
    2.7895  -42.6427   22.1338 O   0  0  0  0  0  0  0  0  0  0  0  0
    3.9808  -41.1538   20.4896 O   0  0  0  0  0  0  0  0  0  0  0  0
    2.6240  -39.9992   22.4453 O   0  0  0  0  0  0  0  0  0  0  0  0
    3.6289  -42.6674   22.6192 H   0  0  0  0  0  0  0  0  0  0  0  0
    3.4435  -39.9810   22.9639 H   0  0  0  0  0  0  0  0  0  0  0  0
    1.4712  -35.2803   20.2534 C   0  0  0  0  0  0  0  0  0  0  0  0
    1.0279  -34.1087   21.1743 C   0  0  0  0  0  0  0  0  0  0  0  0
    1.4251  -32.8012   20.5227 C   0  0  0  0  0  0  0  0  0  0  0  0
    0.6572  -31.7179   20.5234 C   0  0  0  0  0  0  0  0  0  0  0  0
   -0.7372  -31.6724   21.1933 C   0  0  0  0  0  0  0  0  0  0  0  0
    1.1781  -30.4986   19.8412 C   0  0  0  0  0  0  0  0  0  0  0  0
    0.5132  -30.4103   18.4709 C   0  0  0  0  0  0  0  0  0  0  0  0
    1.3871  -31.0756   17.4269 C   0  0  0  0  0  0  0  0  0  0  0  0
    1.0295  -32.2489   16.8055 C   0  0  0  0  0  0  0  0  0  0  0  0
    1.9105  -32.7995   15.8898 C   0  0  0  0  0  0  0  0  0  0  0  0
    3.1700  -32.6812   16.1528 F   0  0  0  0  0  0  0  0  0  0  0  0
   -0.1986  -32.9051   17.1307 C   0  0  0  0  0  0  0  0  0  0  0  0
   -1.4223  -32.4445   16.8281 F   0  0  0  0  0  0  0  0  0  0  0  0
  8  6  2  0  0  0
 10  6  1  0  0  0
  6  7  1  0  0  0
  6  5  1  0  0  0
 13 11  2  0  0  0
 12 11  1  0  0  0
 14 11  1  0  0  0
 11 10  1  0  0  0
  4  5  1  0  0  0
  4  1  1  0  0  0
  1  2  2  0  0  0
  2  3  1  0  0  0
  2 17  1  0  0  0
 18 17  1  0  0  0
 19 18  1  0  0  0
 20 19  2  0  0  0
 22 20  1  0  0  0
 20 21  1  0  0  0
 23 22  1  0  0  0
 23 24  1  0  0  0
 25 24  2  0  0  0
 28 25  1  0  0  0
 25 26  1  0  0  0
 27 26  1  0  0  0
 28 29  1  0  0  0
  7  9  1  0  0  0
 12 15  1  0  0  0
 14 16  1  0  0  0
M  END
> <minimizedAffinity>
-8.12213

$$$$
3CKE_FDF_A_400


 29 28  0  0  0  0  0  0  0  0999 V2000
   -0.1240  -35.9092   20.9686 C   0  0  0  0  0  0  0  0  0  0  0  0
    0.7504  -34.8670   20.8863 C   0  0  0  0  0  0  0  0  0  0  0  0
    2.2341  -35.0673   20.5213 C   0  0  0  0  0  0  0  0  0  0  0  0
    0.3098  -37.3232   20.6572 C   0  0  0  0  0  0  0  0  0  0  0  0
   -0.4456  -38.4184   21.2991 O   0  0  0  0  0  0  0  0  0  0  0  0
    0.2756  -39.7084   21.0563 P   0  0  0  0  0  0  0  0  0  0  0  0
   -0.1454  -40.8718   22.0261 O   0  0  0  0  0  0  0  0  0  0  0  0
   -0.1894  -40.1550   19.5733 O   0  0  0  0  0  0  0  0  0  0  0  0
    0.3601  -41.6712   21.8107 H   0  0  0  0  0  0  0  0  0  0  0  0
    1.8461  -39.4996   20.8911 O   0  0  0  0  0  0  0  0  0  0  0  0
    2.5268  -41.0250   20.9963 P   0  0  0  0  0  0  0  0  0  0  0  0
    1.7636  -42.0047   20.0914 O   0  0  0  0  0  0  0  0  0  0  0  0
    4.0777  -41.1078   20.5158 O   0  0  0  0  0  0  0  0  0  0  0  0
    2.4761  -41.4307   22.5965 O   0  0  0  0  0  0  0  0  0  0  0  0
    2.1642  -42.8856   20.1582 H   0  0  0  0  0  0  0  0  0  0  0  0
    2.8607  -42.3128   22.7188 H   0  0  0  0  0  0  0  0  0  0  0  0
    0.2694  -33.4529   21.1435 C   0  0  0  0  0  0  0  0  0  0  0  0
    1.3714  -32.4787   20.6396 C   0  0  0  0  0  0  0  0  0  0  0  0
    1.0115  -32.0181   19.2433 C   0  0  0  0  0  0  0  0  0  0  0  0
    0.6085  -30.7853   18.9582 C   0  0  0  0  0  0  0  0  0  0  0  0
    0.4603  -29.6773   20.0285 C   0  0  0  0  0  0  0  0  0  0  0  0
    0.2869  -30.4726   17.5361 C   0  0  0  0  0  0  0  0  0  0  0  0
    0.4538  -31.7553   16.7269 C   0  0  0  0  0  0  0  0  0  0  0  0
   -0.7695  -31.9860   15.8630 C   0  0  0  0  0  0  0  0  0  0  0  0
   -1.6642  -33.0007   16.1083 C   0  0  0  0  0  0  0  0  0  0  0  0
   -2.7339  -33.1540   15.2420 C   0  0  0  0  0  0  0  0  0  0  0  0
   -2.4836  -33.0196   13.9816 F   0  0  0  0  0  0  0  0  0  0  0  0
   -1.4692  -33.9006   17.2023 C   0  0  0  0  0  0  0  0  0  0  0  0
   -1.7715  -33.6345   18.4825 F   0  0  0  0  0  0  0  0  0  0  0  0
  8  6  2  0  0  0
 10  6  1  0  0  0
  6  7  1  0  0  0
  6  5  1  0  0  0
 13 11  2  0  0  0
 12 11  1  0  0  0
 14 11  1  0  0  0
 11 10  1  0  0  0
  4  5  1  0  0  0
  4  1  1  0  0  0
  1  2  2  0  0  0
  2  3  1  0  0  0
  2 17  1  0  0  0
 18 17  1  0  0  0
 19 18  1  0  0  0
 20 19  2  0  0  0
 22 20  1  0  0  0
 20 21  1  0  0  0
 23 22  1  0  0  0
 23 24  1  0  0  0
 25 24  2  0  0  0
 28 25  1  0  0  0
 25 26  1  0  0  0
 27 26  1  0  0  0
 28 29  1  0  0  0
  7  9  1  0  0  0
 12 15  1  0  0  0
 14 16  1  0  0  0
M  END
> <minimizedAffinity>
-8.07330

$$$$
3CKE_FDF_A_400


 29 28  0  0  0  0  0  0  0  0999 V2000
   -0.1080  -34.6670   20.5898 C   0  0  0  0  0  0  0  0  0  0  0  0
    0.7215  -33.6307   20.8987 C   0  0  0  0  0  0  0  0  0  0  0  0
    2.1524  -33.8537   21.4253 C   0  0  0  0  0  0  0  0  0  0  0  0
    0.3534  -36.1018   20.7044 C   0  0  0  0  0  0  0  0  0  0  0  0
   -0.6722  -37.1185   21.0155 O   0  0  0  0  0  0  0  0  0  0  0  0
   -0.1396  -38.4689   20.6471 P   0  0  0  0  0  0  0  0  0  0  0  0
    1.4296  -38.5487   20.5977 O   0  0  0  0  0  0  0  0  0  0  0  0
   -0.6109  -39.4302   21.8591 O   0  0  0  0  0  0  0  0  0  0  0  0
    1.7002  -39.4478   20.3540 H   0  0  0  0  0  0  0  0  0  0  0  0
   -0.8891  -39.0896   19.3860 O   0  0  0  0  0  0  0  0  0  0  0  0
   -2.4130  -38.3974   19.3697 P   0  0  0  0  0  0  0  0  0  0  0  0
   -2.3291  -36.9542   18.8488 O   0  0  0  0  0  0  0  0  0  0  0  0
   -3.4853  -39.1462   18.4040 O   0  0  0  0  0  0  0  0  0  0  0  0
   -2.9731  -38.5067   20.9195 O   0  0  0  0  0  0  0  0  0  0  0  0
   -3.2157  -36.5607   18.8426 H   0  0  0  0  0  0  0  0  0  0  0  0
   -3.8603  -38.1179   20.9708 H   0  0  0  0  0  0  0  0  0  0  0  0
    0.2500  -32.2022   20.7131 C   0  0  0  0  0  0  0  0  0  0  0  0
    1.3723  -31.4262   19.9677 C   0  0  0  0  0  0  0  0  0  0  0  0
    0.9483  -31.2212   18.5290 C   0  0  0  0  0  0  0  0  0  0  0  0
    1.4242  -31.9343   17.5149 C   0  0  0  0  0  0  0  0  0  0  0  0
    2.4717  -33.0595   17.6928 C   0  0  0  0  0  0  0  0  0  0  0  0
    0.9153  -31.6216   16.1486 C   0  0  0  0  0  0  0  0  0  0  0  0
   -0.4950  -31.0578   16.2934 C   0  0  0  0  0  0  0  0  0  0  0  0
   -1.4333  -31.7542   15.3287 C   0  0  0  0  0  0  0  0  0  0  0  0
   -1.9259  -33.0166   15.5616 C   0  0  0  0  0  0  0  0  0  0  0  0
   -2.7497  -33.5847   14.6042 C   0  0  0  0  0  0  0  0  0  0  0  0
   -2.3571  -33.4990   13.3762 F   0  0  0  0  0  0  0  0  0  0  0  0
   -1.5600  -33.7398   16.7396 C   0  0  0  0  0  0  0  0  0  0  0  0
   -1.8473  -33.3633   17.9954 F   0  0  0  0  0  0  0  0  0  0  0  0
  8  6  2  0  0  0
 10  6  1  0  0  0
  6  7  1  0  0  0
  6  5  1  0  0  0
 13 11  2  0  0  0
 12 11  1  0  0  0
 14 11  1  0  0  0
 11 10  1  0  0  0
  4  5  1  0  0  0
  4  1  1  0  0  0
  1  2  2  0  0  0
  2  3  1  0  0  0
  2 17  1  0  0  0
 18 17  1  0  0  0
 19 18  1  0  0  0
 20 19  2  0  0  0
 22 20  1  0  0  0
 20 21  1  0  0  0
 23 22  1  0  0  0
 23 24  1  0  0  0
 25 24  2  0  0  0
 28 25  1  0  0  0
 25 26  1  0  0  0
 27 26  1  0  0  0
 28 29  1  0  0  0
  7  9  1  0  0  0
 12 15  1  0  0  0
 14 16  1  0  0  0
M  END
> <minimizedAffinity>
-7.92539

$$$$
3CKE_FDF_A_400


 29 28  0  0  0  0  0  0  0  0999 V2000
    1.2758  -36.5519   19.3233 C   0  0  0  0  0  0  0  0  0  0  0  0
    1.1919  -35.4929   20.1771 C   0  0  0  0  0  0  0  0  0  0  0  0
   -0.0340  -35.2637   21.0823 C   0  0  0  0  0  0  0  0  0  0  0  0
    0.1811  -37.5917   19.2535 C   0  0  0  0  0  0  0  0  0  0  0  0
    0.5960  -39.0093   19.2346 O   0  0  0  0  0  0  0  0  0  0  0  0
    0.5907  -39.5321   20.6380 P   0  0  0  0  0  0  0  0  0  0  0  0
    1.9790  -39.4263   21.3679 O   0  0  0  0  0  0  0  0  0  0  0  0
   -0.4205  -38.5485   21.4286 O   0  0  0  0  0  0  0  0  0  0  0  0
    1.8995  -39.7818   22.2669 H   0  0  0  0  0  0  0  0  0  0  0  0
   -0.1274  -40.9494   20.7511 O   0  0  0  0  0  0  0  0  0  0  0  0
    1.0550  -42.0910   20.4346 P   0  0  0  0  0  0  0  0  0  0  0  0
    1.9555  -41.6105   19.2860 O   0  0  0  0  0  0  0  0  0  0  0  0
    2.0586  -42.3876   21.6787 O   0  0  0  0  0  0  0  0  0  0  0  0
    0.2484  -43.4921   20.0970 O   0  0  0  0  0  0  0  0  0  0  0  0
    2.6374  -42.2773   19.1092 H   0  0  0  0  0  0  0  0  0  0  0  0
    0.8883  -44.1951   19.9041 H   0  0  0  0  0  0  0  0  0  0  0  0
    2.3349  -34.5017   20.2688 C   0  0  0  0  0  0  0  0  0  0  0  0
    1.8174  -33.2517   21.0349 C   0  0  0  0  0  0  0  0  0  0  0  0
    1.5946  -32.1308   20.0421 C   0  0  0  0  0  0  0  0  0  0  0  0
    0.5419  -31.3219   20.0726 C   0  0  0  0  0  0  0  0  0  0  0  0
   -0.5804  -31.4370   21.1319 C   0  0  0  0  0  0  0  0  0  0  0  0
    0.4532  -30.2603   19.0292 C   0  0  0  0  0  0  0  0  0  0  0  0
    0.9352  -30.8594   17.7114 C   0  0  0  0  0  0  0  0  0  0  0  0
   -0.2293  -31.0091   16.7535 C   0  0  0  0  0  0  0  0  0  0  0  0
   -0.8240  -32.2227   16.5003 C   0  0  0  0  0  0  0  0  0  0  0  0
   -1.8598  -32.2652   15.5820 C   0  0  0  0  0  0  0  0  0  0  0  0
   -1.9478  -31.2720   14.7602 F   0  0  0  0  0  0  0  0  0  0  0  0
   -0.3545  -33.4150   17.1348 C   0  0  0  0  0  0  0  0  0  0  0  0
   -0.8413  -33.9227   18.2778 F   0  0  0  0  0  0  0  0  0  0  0  0
  8  6  2  0  0  0
 10  6  1  0  0  0
  6  7  1  0  0  0
  6  5  1  0  0  0
 13 11  2  0  0  0
 12 11  1  0  0  0
 14 11  1  0  0  0
 11 10  1  0  0  0
  4  5  1  0  0  0
  4  1  1  0  0  0
  1  2  2  0  0  0
  2  3  1  0  0  0
  2 17  1  0  0  0
 18 17  1  0  0  0
 19 18  1  0  0  0
 20 19  2  0  0  0
 22 20  1  0  0  0
 20 21  1  0  0  0
 23 22  1  0  0  0
 23 24  1  0  0  0
 25 24  2  0  0  0
 28 25  1  0  0  0
 25 26  1  0  0  0
 27 26  1  0  0  0
 28 29  1  0  0  0
  7  9  1  0  0  0
 12 15  1  0  0  0
 14 16  1  0  0  0
M  END
> <minimizedAffinity>
-7.78793

$$$$
3CKE_FDF_A_400


 29 28  0  0  0  0  0  0  0  0999 V2000
   -1.9190  -34.1770   17.4968 C   0  0  0  0  0  0  0  0  0  0  0  0
   -2.2407  -34.1512   16.1727 C   0  0  0  0  0  0  0  0  0  0  0  0
   -2.3617  -35.4371   15.3323 C   0  0  0  0  0  0  0  0  0  0  0  0
   -1.7083  -35.4834   18.2272 C   0  0  0  0  0  0  0  0  0  0  0  0
   -0.5495  -35.5681   19.1395 O   0  0  0  0  0  0  0  0  0  0  0  0
    0.5498  -36.3195   18.4540 P   0  0  0  0  0  0  0  0  0  0  0  0
    0.0630  -37.2302   17.2687 O   0  0  0  0  0  0  0  0  0  0  0  0
    1.4752  -35.1669   17.7981 O   0  0  0  0  0  0  0  0  0  0  0  0
    0.8250  -37.6831   16.8748 H   0  0  0  0  0  0  0  0  0  0  0  0
    1.5352  -37.0240   19.4884 O   0  0  0  0  0  0  0  0  0  0  0  0
    0.5862  -38.0652   20.3921 P   0  0  0  0  0  0  0  0  0  0  0  0
   -0.2523  -37.2681   21.4034 O   0  0  0  0  0  0  0  0  0  0  0  0
   -0.4842  -38.9287   19.5251 O   0  0  0  0  0  0  0  0  0  0  0  0
    1.6332  -39.1294   21.0984 O   0  0  0  0  0  0  0  0  0  0  0  0
   -0.7989  -37.8785   21.9226 H   0  0  0  0  0  0  0  0  0  0  0  0
    1.1352  -39.7623   21.6391 H   0  0  0  0  0  0  0  0  0  0  0  0
   -2.5074  -32.8276   15.4840 C   0  0  0  0  0  0  0  0  0  0  0  0
   -1.1524  -32.2973   14.9361 C   0  0  0  0  0  0  0  0  0  0  0  0
   -0.5021  -31.4366   15.9981 C   0  0  0  0  0  0  0  0  0  0  0  0
    0.7717  -31.5499   16.3561 C   0  0  0  0  0  0  0  0  0  0  0  0
    1.7373  -32.5812   15.7242 C   0  0  0  0  0  0  0  0  0  0  0  0
    1.2772  -30.6337   17.4185 C   0  0  0  0  0  0  0  0  0  0  0  0
    0.5622  -30.9876   18.7190 C   0  0  0  0  0  0  0  0  0  0  0  0
    1.3210  -32.0784   19.4474 C   0  0  0  0  0  0  0  0  0  0  0  0
    0.8186  -32.7072   20.5622 C   0  0  0  0  0  0  0  0  0  0  0  0
    1.6014  -33.6680   21.1804 C   0  0  0  0  0  0  0  0  0  0  0  0
    1.0545  -34.3277   22.1474 F   0  0  0  0  0  0  0  0  0  0  0  0
   -0.4585  -32.3456   21.0940 C   0  0  0  0  0  0  0  0  0  0  0  0
   -0.7091  -31.2402   21.8128 F   0  0  0  0  0  0  0  0  0  0  0  0
  8  6  2  0  0  0
 10  6  1  0  0  0
  6  7  1  0  0  0
  6  5  1  0  0  0
 13 11  2  0  0  0
 12 11  1  0  0  0
 14 11  1  0  0  0
 11 10  1  0  0  0
  4  5  1  0  0  0
  4  1  1  0  0  0
  1  2  2  0  0  0
  2  3  1  0  0  0
  2 17  1  0  0  0
 18 17  1  0  0  0
 19 18  1  0  0  0
 20 19  2  0  0  0
 22 20  1  0  0  0
 20 21  1  0  0  0
 23 22  1  0  0  0
 23 24  1  0  0  0
 25 24  2  0  0  0
 28 25  1  0  0  0
 25 26  1  0  0  0
 27 26  1  0  0  0
 28 29  1  0  0  0
  7  9  1  0  0  0
 12 15  1  0  0  0
 14 16  1  0  0  0
M  END
> <minimizedAffinity>
-7.76490

$$$$
3CKE_FDF_A_400


 29 28  0  0  0  0  0  0  0  0999 V2000
   -0.7609  -36.0841   20.2834 C   0  0  0  0  0  0  0  0  0  0  0  0
   -1.3432  -35.9359   19.0600 C   0  0  0  0  0  0  0  0  0  0  0  0
   -1.0638  -36.9053   17.8952 C   0  0  0  0  0  0  0  0  0  0  0  0
    0.1613  -37.2449   20.5773 C   0  0  0  0  0  0  0  0  0  0  0  0
   -0.3857  -38.3549   21.3842 O   0  0  0  0  0  0  0  0  0  0  0  0
    0.2872  -39.6278   20.9721 P   0  0  0  0  0  0  0  0  0  0  0  0
   -0.0640  -40.8627   21.8792 O   0  0  0  0  0  0  0  0  0  0  0  0
   -0.3192  -39.9462   19.5072 O   0  0  0  0  0  0  0  0  0  0  0  0
    0.4055  -41.6468   21.5540 H   0  0  0  0  0  0  0  0  0  0  0  0
    1.8396  -39.4222   20.6797 O   0  0  0  0  0  0  0  0  0  0  0  0
    2.5650  -40.8993   20.9851 P   0  0  0  0  0  0  0  0  0  0  0  0
    2.5511  -41.1897   22.4939 O   0  0  0  0  0  0  0  0  0  0  0  0
    1.8274  -42.1711   20.2910 O   0  0  0  0  0  0  0  0  0  0  0  0
    4.0854  -40.7937   20.3487 O   0  0  0  0  0  0  0  0  0  0  0  0
    2.9730  -42.0468   22.6621 H   0  0  0  0  0  0  0  0  0  0  0  0
    4.5568  -41.6284   20.4973 H   0  0  0  0  0  0  0  0  0  0  0  0
   -2.3126  -34.7966   18.8159 C   0  0  0  0  0  0  0  0  0  0  0  0
   -2.4730  -34.6325   17.2781 C   0  0  0  0  0  0  0  0  0  0  0  0
   -1.7957  -33.3471   16.8532 C   0  0  0  0  0  0  0  0  0  0  0  0
   -1.9175  -32.8195   15.6407 C   0  0  0  0  0  0  0  0  0  0  0  0
   -2.7693  -33.4650   14.5212 C   0  0  0  0  0  0  0  0  0  0  0  0
   -1.1918  -31.5469   15.3624 C   0  0  0  0  0  0  0  0  0  0  0  0
    0.1443  -31.6012   16.0971 C   0  0  0  0  0  0  0  0  0  0  0  0
    0.1389  -30.6245   17.2555 C   0  0  0  0  0  0  0  0  0  0  0  0
    0.6869  -30.9294   18.4791 C   0  0  0  0  0  0  0  0  0  0  0  0
    0.6026  -29.9844   19.4880 C   0  0  0  0  0  0  0  0  0  0  0  0
    1.4526  -30.0908   20.4553 F   0  0  0  0  0  0  0  0  0  0  0  0
    1.2871  -32.2056   18.7153 C   0  0  0  0  0  0  0  0  0  0  0  0
    0.7566  -33.1785   19.4726 F   0  0  0  0  0  0  0  0  0  0  0  0
  8  6  2  0  0  0
 10  6  1  0  0  0
  6  7  1  0  0  0
  6  5  1  0  0  0
 13 11  2  0  0  0
 12 11  1  0  0  0
 14 11  1  0  0  0
 11 10  1  0  0  0
  4  5  1  0  0  0
  4  1  1  0  0  0
  1  2  2  0  0  0
  2  3  1  0  0  0
  2 17  1  0  0  0
 18 17  1  0  0  0
 19 18  1  0  0  0
 20 19  2  0  0  0
 22 20  1  0  0  0
 20 21  1  0  0  0
 23 22  1  0  0  0
 23 24  1  0  0  0
 25 24  2  0  0  0
 28 25  1  0  0  0
 25 26  1  0  0  0
 27 26  1  0  0  0
 28 29  1  0  0  0
  7  9  1  0  0  0
 12 15  1  0  0  0
 14 16  1  0  0  0
M  END
> <minimizedAffinity>
-7.65381

$$$$
3CKE_FDF_A_400


 29 28  0  0  0  0  0  0  0  0999 V2000
   -0.0290  -37.3637   18.6731 C   0  0  0  0  0  0  0  0  0  0  0  0
    0.3579  -36.1727   18.1351 C   0  0  0  0  0  0  0  0  0  0  0  0
    1.7146  -35.9942   17.4266 C   0  0  0  0  0  0  0  0  0  0  0  0
    0.8409  -38.5945   18.5603 C   0  0  0  0  0  0  0  0  0  0  0  0
    1.5566  -39.0300   19.7770 O   0  0  0  0  0  0  0  0  0  0  0  0
    0.6845  -39.9835   20.5341 P   0  0  0  0  0  0  0  0  0  0  0  0
    0.0779  -39.3875   21.8563 O   0  0  0  0  0  0  0  0  0  0  0  0
   -0.5614  -40.2621   19.5415 O   0  0  0  0  0  0  0  0  0  0  0  0
   -0.4724  -40.0580   22.2905 H   0  0  0  0  0  0  0  0  0  0  0  0
    1.3515  -41.4223   20.6836 O   0  0  0  0  0  0  0  0  0  0  0  0
    2.8399  -41.1668   21.4053 P   0  0  0  0  0  0  0  0  0  0  0  0
    3.1454  -42.3011   22.3957 O   0  0  0  0  0  0  0  0  0  0  0  0
    4.0959  -41.1410   20.3733 O   0  0  0  0  0  0  0  0  0  0  0  0
    2.7455  -39.6792   22.1163 O   0  0  0  0  0  0  0  0  0  0  0  0
    4.0090  -42.1455   22.8092 H   0  0  0  0  0  0  0  0  0  0  0  0
    3.5870  -39.4760   22.5539 H   0  0  0  0  0  0  0  0  0  0  0  0
   -0.5649  -34.9726   18.2102 C   0  0  0  0  0  0  0  0  0  0  0  0
   -0.8735  -34.7056   19.7104 C   0  0  0  0  0  0  0  0  0  0  0  0
   -0.8251  -33.2131   19.9585 C   0  0  0  0  0  0  0  0  0  0  0  0
    0.2164  -32.5925   20.5003 C   0  0  0  0  0  0  0  0  0  0  0  0
    1.5028  -33.3312   20.9415 C   0  0  0  0  0  0  0  0  0  0  0  0
    0.1239  -31.1159   20.6857 C   0  0  0  0  0  0  0  0  0  0  0  0
    0.8802  -30.4530   19.5384 C   0  0  0  0  0  0  0  0  0  0  0  0
    0.1046  -30.6114   18.2463 C   0  0  0  0  0  0  0  0  0  0  0  0
    0.6226  -31.2608   17.1507 C   0  0  0  0  0  0  0  0  0  0  0  0
   -0.1487  -31.3244   16.0022 C   0  0  0  0  0  0  0  0  0  0  0  0
   -0.9713  -30.3485   15.8009 F   0  0  0  0  0  0  0  0  0  0  0  0
    1.9401  -31.8154   17.1832 C   0  0  0  0  0  0  0  0  0  0  0  0
    2.3289  -32.8330   17.9672 F   0  0  0  0  0  0  0  0  0  0  0  0
  8  6  2  0  0  0
 10  6  1  0  0  0
  6  7  1  0  0  0
  6  5  1  0  0  0
 13 11  2  0  0  0
 12 11  1  0  0  0
 14 11  1  0  0  0
 11 10  1  0  0  0
  4  5  1  0  0  0
  4  1  1  0  0  0
  1  2  2  0  0  0
  2  3  1  0  0  0
  2 17  1  0  0  0
 18 17  1  0  0  0
 19 18  1  0  0  0
 20 19  2  0  0  0
 22 20  1  0  0  0
 20 21  1  0  0  0
 23 22  1  0  0  0
 23 24  1  0  0  0
 25 24  2  0  0  0
 28 25  1  0  0  0
 25 26  1  0  0  0
 27 26  1  0  0  0
 28 29  1  0  0  0
  7  9  1  0  0  0
 12 15  1  0  0  0
 14 16  1  0  0  0
M  END
> <minimizedAffinity>
-7.57192

$$$$
3CKE_FDF_A_400


 29 28  0  0  0  0  0  0  0  0999 V2000
    0.7615  -37.6704   18.1162 C   0  0  0  0  0  0  0  0  0  0  0  0
   -0.3741  -37.6767   17.3626 C   0  0  0  0  0  0  0  0  0  0  0  0
   -1.5082  -38.6936   17.5958 C   0  0  0  0  0  0  0  0  0  0  0  0
    0.9484  -38.6396   19.2609 C   0  0  0  0  0  0  0  0  0  0  0  0
    2.1767  -39.4602   19.2576 O   0  0  0  0  0  0  0  0  0  0  0  0
    1.7899  -40.9070   19.2424 P   0  0  0  0  0  0  0  0  0  0  0  0
    0.2549  -41.1637   19.4648 O   0  0  0  0  0  0  0  0  0  0  0  0
    2.1245  -41.3960   17.7377 O   0  0  0  0  0  0  0  0  0  0  0  0
    0.0801  -42.1175   19.4425 H   0  0  0  0  0  0  0  0  0  0  0  0
    2.7618  -41.8007   20.1335 O   0  0  0  0  0  0  0  0  0  0  0  0
    2.4598  -41.3661   21.7214 P   0  0  0  0  0  0  0  0  0  0  0  0
    2.9408  -39.9287   21.9735 O   0  0  0  0  0  0  0  0  0  0  0  0
    0.8885  -41.3779   22.1384 O   0  0  0  0  0  0  0  0  0  0  0  0
    3.2328  -42.4917   22.6505 O   0  0  0  0  0  0  0  0  0  0  0  0
    2.7623  -39.6850   22.8952 H   0  0  0  0  0  0  0  0  0  0  0  0
    3.0916  -42.2889   23.5884 H   0  0  0  0  0  0  0  0  0  0  0  0
   -0.5583  -36.6509   16.2622 C   0  0  0  0  0  0  0  0  0  0  0  0
   -1.6121  -35.6170   16.7500 C   0  0  0  0  0  0  0  0  0  0  0  0
   -0.9332  -34.2749   16.9213 C   0  0  0  0  0  0  0  0  0  0  0  0
   -1.3436  -33.1631   16.3223 C   0  0  0  0  0  0  0  0  0  0  0  0
   -2.5677  -33.1167   15.3764 C   0  0  0  0  0  0  0  0  0  0  0  0
   -0.5766  -31.9113   16.5836 C   0  0  0  0  0  0  0  0  0  0  0  0
    0.2018  -32.1032   17.8817 C   0  0  0  0  0  0  0  0  0  0  0  0
    0.5491  -30.7558   18.4818 C   0  0  0  0  0  0  0  0  0  0  0  0
    0.4291  -30.4949   19.8264 C   0  0  0  0  0  0  0  0  0  0  0  0
    0.7372  -29.2218   20.2762 C   0  0  0  0  0  0  0  0  0  0  0  0
    1.9267  -28.7877   20.0193 F   0  0  0  0  0  0  0  0  0  0  0  0
   -0.0446  -31.4987   20.7278 C   0  0  0  0  0  0  0  0  0  0  0  0
   -0.7618  -31.2619   21.8372 F   0  0  0  0  0  0  0  0  0  0  0  0
  8  6  2  0  0  0
 10  6  1  0  0  0
  6  7  1  0  0  0
  6  5  1  0  0  0
 13 11  2  0  0  0
 12 11  1  0  0  0
 14 11  1  0  0  0
 11 10  1  0  0  0
  4  5  1  0  0  0
  4  1  1  0  0  0
  1  2  2  0  0  0
  2  3  1  0  0  0
  2 17  1  0  0  0
 18 17  1  0  0  0
 19 18  1  0  0  0
 20 19  2  0  0  0
 22 20  1  0  0  0
 20 21  1  0  0  0
 23 22  1  0  0  0
 23 24  1  0  0  0
 25 24  2  0  0  0
 28 25  1  0  0  0
 25 26  1  0  0  0
 27 26  1  0  0  0
 28 29  1  0  0  0
  7  9  1  0  0  0
 12 15  1  0  0  0
 14 16  1  0  0  0
M  END
> <minimizedAffinity>
-7.48091

$$$$
