4A7I_A7I_B_1246


 26 27  0  0  0  0  0  0  0  0999 V2000
   49.8149    6.7606   55.4927 S   0  0  0  0  0  0  0  0  0  0  0  0
   48.3393    6.6667   55.2442 O   0  0  0  0  0  0  0  0  0  0  0  0
   50.1877    7.9998   56.2509 O   0  0  0  0  0  0  0  0  0  0  0  0
   50.4426    5.4049   56.1475 N   0  0  0  0  0  0  0  0  0  0  0  0
   50.9221    4.8812   55.4153 H   0  0  0  0  0  0  0  0  0  0  0  0
   49.1868    4.9247   58.2159 C   0  0  0  0  0  0  0  0  0  0  0  0
   48.2418    3.9310   58.8966 C   0  0  0  0  0  0  0  0  0  0  0  0
   48.7952    2.5703   58.7848 N   0  0  0  0  0  0  0  0  0  0  0  0
   48.9078    2.1539   57.3772 C   0  0  0  0  0  0  0  0  0  0  0  0
   49.8867    3.0837   56.6562 C   0  0  0  0  0  0  0  0  0  0  0  0
   49.4200    4.5383   56.7524 C   0  0  0  0  0  0  0  0  0  0  0  0
   48.0348    1.5652   59.5480 C   0  0  0  0  0  0  0  0  0  0  0  0
   46.7269    1.1597   58.8607 C   0  0  0  0  0  0  0  0  0  0  0  0
   47.7706    2.0580   60.9730 C   0  0  0  0  0  0  0  0  0  0  0  0
   50.6121    6.9033   53.8513 C   0  0  0  0  0  0  0  0  0  0  0  0
   50.1230    8.0782   53.0012 C   0  0  0  0  0  0  0  0  0  0  0  0
   48.8315    7.7599   52.3732 N   0  0  0  0  0  0  0  0  0  0  0  0
   47.7451    8.4999   52.5711 C   0  0  0  0  0  0  0  0  0  0  0  0
   47.7083    9.4955   53.2923 O   0  0  0  0  0  0  0  0  0  0  0  0
   48.7695    6.9719   51.7863 H   0  0  0  0  0  0  0  0  0  0  0  0
   46.4872    8.0308   51.8362 C   0  0  0  0  0  0  0  0  0  0  0  0
   46.4388    7.2082   50.7890 C   0  0  0  0  0  0  0  0  0  0  0  0
   45.2086    6.9489   50.3326 C   0  0  0  0  0  0  0  0  0  0  0  0
   44.2223    7.5553   50.9938 C   0  0  0  0  0  0  0  0  0  0  0  0
   42.5274    7.3745   50.6948 Cl  0  0  0  0  0  0  0  0  0  0  0  0
   44.8950    8.5019   52.2498 S   0  0  0  0  0  0  0  0  0  0  0  0
  6  7  1  0  0  0
  6 11  1  0  0  0
  7  8  1  0  0  0
  8 12  1  0  0  0
  8  9  1  0  0  0
 12 13  1  0  0  0
 12 14  1  0  0  0
  9 10  1  0  0  0
 10 11  1  0  0  0
 11  4  1  0  0  0
  4  1  1  0  0  0
  1  2  2  0  0  0
  1  3  2  0  0  0
  1 15  1  0  0  0
 15 16  1  0  0  0
 16 17  1  0  0  0
 17 18  1  0  0  0
 18 19  2  0  0  0
 18 21  1  0  0  0
 21 22  2  0  0  0
 21 26  1  0  0  0
 22 23  1  0  0  0
 23 24  2  0  0  0
 24 25  1  0  0  0
 24 26  1  0  0  0
  4  5  1  0  0  0
 17 20  1  0  0  0
M  END
> <minimizedAffinity>
-8.68382

$$$$
4A7I_A7I_B_1246


 26 27  0  0  0  0  0  0  0  0999 V2000
   50.3219    6.9738   56.3288 S   0  0  0  0  0  0  0  0  0  0  0  0
   49.3310    8.0971   56.3958 O   0  0  0  0  0  0  0  0  0  0  0  0
   51.1631    6.8811   57.5670 O   0  0  0  0  0  0  0  0  0  0  0  0
   49.6477    5.5479   55.9133 N   0  0  0  0  0  0  0  0  0  0  0  0
   48.6967    5.7198   55.5870 H   0  0  0  0  0  0  0  0  0  0  0  0
   49.5767    3.1552   56.5099 C   0  0  0  0  0  0  0  0  0  0  0  0
   49.3646    2.1636   57.6569 C   0  0  0  0  0  0  0  0  0  0  0  0
   48.1154    2.4914   58.3658 N   0  0  0  0  0  0  0  0  0  0  0  0
   48.1806    3.8324   58.9697 C   0  0  0  0  0  0  0  0  0  0  0  0
   48.3392    4.8747   57.8602 C   0  0  0  0  0  0  0  0  0  0  0  0
   49.5956    4.5949   57.0320 C   0  0  0  0  0  0  0  0  0  0  0  0
   47.7444    1.4966   59.3872 C   0  0  0  0  0  0  0  0  0  0  0  0
   46.4180    0.7939   59.0801 C   0  0  0  0  0  0  0  0  0  0  0  0
   47.7112    2.1381   60.7767 C   0  0  0  0  0  0  0  0  0  0  0  0
   51.4676    7.3702   54.9576 C   0  0  0  0  0  0  0  0  0  0  0  0
   51.0563    6.8064   53.5955 C   0  0  0  0  0  0  0  0  0  0  0  0
   49.6312    7.0643   53.3380 N   0  0  0  0  0  0  0  0  0  0  0  0
   49.2050    8.1891   52.7722 C   0  0  0  0  0  0  0  0  0  0  0  0
   49.9414    9.1114   52.4259 O   0  0  0  0  0  0  0  0  0  0  0  0
   48.9705    6.3806   53.5935 H   0  0  0  0  0  0  0  0  0  0  0  0
   47.6912    8.2914   52.5712 C   0  0  0  0  0  0  0  0  0  0  0  0
   46.8303    8.9558   53.3414 C   0  0  0  0  0  0  0  0  0  0  0  0
   45.5547    8.8932   52.9442 C   0  0  0  0  0  0  0  0  0  0  0  0
   45.3418    8.1742   51.8417 C   0  0  0  0  0  0  0  0  0  0  0  0
   43.8239    7.9559   51.0397 Cl  0  0  0  0  0  0  0  0  0  0  0  0
   46.8346    7.5463   51.2909 S   0  0  0  0  0  0  0  0  0  0  0  0
  6  7  1  0  0  0
  6 11  1  0  0  0
  7  8  1  0  0  0
  8 12  1  0  0  0
  8  9  1  0  0  0
 12 13  1  0  0  0
 12 14  1  0  0  0
  9 10  1  0  0  0
 10 11  1  0  0  0
 11  4  1  0  0  0
  4  1  1  0  0  0
  1  2  2  0  0  0
  1  3  2  0  0  0
  1 15  1  0  0  0
 15 16  1  0  0  0
 16 17  1  0  0  0
 17 18  1  0  0  0
 18 19  2  0  0  0
 18 21  1  0  0  0
 21 22  2  0  0  0
 21 26  1  0  0  0
 22 23  1  0  0  0
 23 24  2  0  0  0
 24 25  1  0  0  0
 24 26  1  0  0  0
  4  5  1  0  0  0
 17 20  1  0  0  0
M  END
> <minimizedAffinity>
-8.41909

$$$$
4A7I_A7I_B_1246


 26 27  0  0  0  0  0  0  0  0999 V2000
   52.0516    7.2613   55.5398 S   0  0  0  0  0  0  0  0  0  0  0  0
   53.2661    6.3995   55.3656 O   0  0  0  0  0  0  0  0  0  0  0  0
   52.2623    8.6543   55.0256 O   0  0  0  0  0  0  0  0  0  0  0  0
   50.6892    6.5734   54.9643 N   0  0  0  0  0  0  0  0  0  0  0  0
   50.9361    5.9636   54.1848 H   0  0  0  0  0  0  0  0  0  0  0  0
   48.3383    7.3021   55.1321 C   0  0  0  0  0  0  0  0  0  0  0  0
   47.2749    8.2253   54.5316 C   0  0  0  0  0  0  0  0  0  0  0  0
   47.2285    8.0375   53.0711 N   0  0  0  0  0  0  0  0  0  0  0  0
   48.5102    8.4017   52.4452 C   0  0  0  0  0  0  0  0  0  0  0  0
   49.6066    7.4716   52.9701 C   0  0  0  0  0  0  0  0  0  0  0  0
   49.7065    7.5616   54.4948 C   0  0  0  0  0  0  0  0  0  0  0  0
   46.1256    8.7680   52.4224 C   0  0  0  0  0  0  0  0  0  0  0  0
   45.0973    9.3053   53.4230 C   0  0  0  0  0  0  0  0  0  0  0  0
   45.4493    7.8930   51.3641 C   0  0  0  0  0  0  0  0  0  0  0  0
   51.7758    7.4153   57.3426 C   0  0  0  0  0  0  0  0  0  0  0  0
   52.1338    6.1684   58.1546 C   0  0  0  0  0  0  0  0  0  0  0  0
   50.9297    5.3727   58.4384 N   0  0  0  0  0  0  0  0  0  0  0  0
   50.5697    4.3379   57.6857 C   0  0  0  0  0  0  0  0  0  0  0  0
   51.1865    3.9578   56.6918 O   0  0  0  0  0  0  0  0  0  0  0  0
   50.3713    5.6148   59.2123 H   0  0  0  0  0  0  0  0  0  0  0  0
   49.2937    3.6167   58.1263 C   0  0  0  0  0  0  0  0  0  0  0  0
   48.1606    4.1854   58.5366 C   0  0  0  0  0  0  0  0  0  0  0  0
   47.1861    3.3291   58.8620 C   0  0  0  0  0  0  0  0  0  0  0  0
   47.4998    2.0401   58.7282 C   0  0  0  0  0  0  0  0  0  0  0  0
   46.4445    0.6963   59.0023 Cl  0  0  0  0  0  0  0  0  0  0  0  0
   49.1111    1.9158   58.1674 S   0  0  0  0  0  0  0  0  0  0  0  0
  6  7  1  0  0  0
  6 11  1  0  0  0
  7  8  1  0  0  0
  8 12  1  0  0  0
  8  9  1  0  0  0
 12 13  1  0  0  0
 12 14  1  0  0  0
  9 10  1  0  0  0
 10 11  1  0  0  0
 11  4  1  0  0  0
  4  1  1  0  0  0
  1  2  2  0  0  0
  1  3  2  0  0  0
  1 15  1  0  0  0
 15 16  1  0  0  0
 16 17  1  0  0  0
 17 18  1  0  0  0
 18 19  2  0  0  0
 18 21  1  0  0  0
 21 22  2  0  0  0
 21 26  1  0  0  0
 22 23  1  0  0  0
 23 24  2  0  0  0
 24 25  1  0  0  0
 24 26  1  0  0  0
  4  5  1  0  0  0
 17 20  1  0  0  0
M  END
> <minimizedAffinity>
-7.12222

$$$$
4A7I_A7I_B_1246


 26 27  0  0  0  0  0  0  0  0999 V2000
   49.4126    7.1252   57.0824 S   0  0  0  0  0  0  0  0  0  0  0  0
   49.6093    7.8279   58.3922 O   0  0  0  0  0  0  0  0  0  0  0  0
   48.2656    6.1595   57.1200 O   0  0  0  0  0  0  0  0  0  0  0  0
   49.3397    8.1455   55.8119 N   0  0  0  0  0  0  0  0  0  0  0  0
   49.1366    9.0832   56.1581 H   0  0  0  0  0  0  0  0  0  0  0  0
   48.8937    7.7037   53.4261 C   0  0  0  0  0  0  0  0  0  0  0  0
   47.7936    7.4678   52.3878 C   0  0  0  0  0  0  0  0  0  0  0  0
   46.7802    8.5318   52.4946 N   0  0  0  0  0  0  0  0  0  0  0  0
   46.1289    8.5178   53.8148 C   0  0  0  0  0  0  0  0  0  0  0  0
   47.1763    8.8031   54.8936 C   0  0  0  0  0  0  0  0  0  0  0  0
   48.3039    7.7696   54.8380 C   0  0  0  0  0  0  0  0  0  0  0  0
   45.7626    8.4790   51.4304 C   0  0  0  0  0  0  0  0  0  0  0  0
   44.3362    8.3559   51.9758 C   0  0  0  0  0  0  0  0  0  0  0  0
   46.0692    7.3458   50.4481 C   0  0  0  0  0  0  0  0  0  0  0  0
   50.9179    6.1241   56.7964 C   0  0  0  0  0  0  0  0  0  0  0  0
   51.3290    5.2346   57.9721 C   0  0  0  0  0  0  0  0  0  0  0  0
   50.2933    4.2262   58.2445 N   0  0  0  0  0  0  0  0  0  0  0  0
   49.6477    4.1682   59.4049 C   0  0  0  0  0  0  0  0  0  0  0  0
   49.8550    4.9269   60.3505 O   0  0  0  0  0  0  0  0  0  0  0  0
   50.0708    3.5719   57.5433 H   0  0  0  0  0  0  0  0  0  0  0  0
   48.5965    3.0615   59.5179 C   0  0  0  0  0  0  0  0  0  0  0  0
   47.3943    3.0456   58.9433 C   0  0  0  0  0  0  0  0  0  0  0  0
   46.6637    1.9542   59.1958 C   0  0  0  0  0  0  0  0  0  0  0  0
   47.2497    1.0531   59.9848 C   0  0  0  0  0  0  0  0  0  0  0  0
   46.5990   -0.4838   60.4421 Cl  0  0  0  0  0  0  0  0  0  0  0  0
   48.7991    1.6266   60.4279 S   0  0  0  0  0  0  0  0  0  0  0  0
  6  7  1  0  0  0
  6 11  1  0  0  0
  7  8  1  0  0  0
  8 12  1  0  0  0
  8  9  1  0  0  0
 12 13  1  0  0  0
 12 14  1  0  0  0
  9 10  1  0  0  0
 10 11  1  0  0  0
 11  4  1  0  0  0
  4  1  1  0  0  0
  1  2  2  0  0  0
  1  3  2  0  0  0
  1 15  1  0  0  0
 15 16  1  0  0  0
 16 17  1  0  0  0
 17 18  1  0  0  0
 18 19  2  0  0  0
 18 21  1  0  0  0
 21 22  2  0  0  0
 21 26  1  0  0  0
 22 23  1  0  0  0
 23 24  2  0  0  0
 24 25  1  0  0  0
 24 26  1  0  0  0
  4  5  1  0  0  0
 17 20  1  0  0  0
M  END
> <minimizedAffinity>
-6.92410

$$$$
4A7I_A7I_B_1246


 26 27  0  0  0  0  0  0  0  0999 V2000
   51.0431    7.2216   57.9454 S   0  0  0  0  0  0  0  0  0  0  0  0
   51.8811    6.0185   57.6316 O   0  0  0  0  0  0  0  0  0  0  0  0
   51.6160    8.4817   57.3682 O   0  0  0  0  0  0  0  0  0  0  0  0
   49.4664    7.0178   57.5805 N   0  0  0  0  0  0  0  0  0  0  0  0
   49.3083    6.0355   57.3558 H   0  0  0  0  0  0  0  0  0  0  0  0
   47.5465    8.1753   56.5511 C   0  0  0  0  0  0  0  0  0  0  0  0
   47.0542    8.8920   55.2910 C   0  0  0  0  0  0  0  0  0  0  0  0
   47.3230    8.0523   54.1108 N   0  0  0  0  0  0  0  0  0  0  0  0
   48.7669    7.8259   53.9344 C   0  0  0  0  0  0  0  0  0  0  0  0
   49.3060    7.0613   55.1458 C   0  0  0  0  0  0  0  0  0  0  0  0
   49.0358    7.8367   56.4375 C   0  0  0  0  0  0  0  0  0  0  0  0
   46.7416    8.5880   52.8674 C   0  0  0  0  0  0  0  0  0  0  0  0
   45.2485    8.9060   52.9967 C   0  0  0  0  0  0  0  0  0  0  0  0
   46.9952    7.6321   51.6990 C   0  0  0  0  0  0  0  0  0  0  0  0
   51.0830    7.4249   59.7639 C   0  0  0  0  0  0  0  0  0  0  0  0
   51.1583    6.1160   60.5537 C   0  0  0  0  0  0  0  0  0  0  0  0
   50.1415    5.1656   60.0778 N   0  0  0  0  0  0  0  0  0  0  0  0
   49.7118    4.1537   60.8250 C   0  0  0  0  0  0  0  0  0  0  0  0
   50.1205    3.9086   61.9588 O   0  0  0  0  0  0  0  0  0  0  0  0
   49.7664    5.2830   59.1751 H   0  0  0  0  0  0  0  0  0  0  0  0
   48.6465    3.2650   60.1784 C   0  0  0  0  0  0  0  0  0  0  0  0
   47.9666    3.5236   59.0619 C   0  0  0  0  0  0  0  0  0  0  0  0
   47.0915    2.5778   58.7034 C   0  0  0  0  0  0  0  0  0  0  0  0
   47.0330    1.5249   59.5194 C   0  0  0  0  0  0  0  0  0  0  0  0
   46.0574    0.1127   59.2994 Cl  0  0  0  0  0  0  0  0  0  0  0  0
   48.1399    1.7548   60.8032 S   0  0  0  0  0  0  0  0  0  0  0  0
  6  7  1  0  0  0
  6 11  1  0  0  0
  7  8  1  0  0  0
  8 12  1  0  0  0
  8  9  1  0  0  0
 12 13  1  0  0  0
 12 14  1  0  0  0
  9 10  1  0  0  0
 10 11  1  0  0  0
 11  4  1  0  0  0
  4  1  1  0  0  0
  1  2  2  0  0  0
  1  3  2  0  0  0
  1 15  1  0  0  0
 15 16  1  0  0  0
 16 17  1  0  0  0
 17 18  1  0  0  0
 18 19  2  0  0  0
 18 21  1  0  0  0
 21 22  2  0  0  0
 21 26  1  0  0  0
 22 23  1  0  0  0
 23 24  2  0  0  0
 24 25  1  0  0  0
 24 26  1  0  0  0
  4  5  1  0  0  0
 17 20  1  0  0  0
M  END
> <minimizedAffinity>
-6.68753

$$$$
4A7I_A7I_B_1246


 26 27  0  0  0  0  0  0  0  0999 V2000
   51.7530    4.9642   55.1264 S   0  0  0  0  0  0  0  0  0  0  0  0
   52.6188    5.5455   56.2037 O   0  0  0  0  0  0  0  0  0  0  0  0
   52.5143    4.0475   54.2157 O   0  0  0  0  0  0  0  0  0  0  0  0
   50.3813    4.2923   55.6988 N   0  0  0  0  0  0  0  0  0  0  0  0
   49.5952    4.8916   55.4475 H   0  0  0  0  0  0  0  0  0  0  0  0
   50.9253    2.7370   57.5349 C   0  0  0  0  0  0  0  0  0  0  0  0
   50.7970    2.4952   59.0412 C   0  0  0  0  0  0  0  0  0  0  0  0
   49.3904    2.6582   59.4475 N   0  0  0  0  0  0  0  0  0  0  0  0
   48.9175    4.0294   59.1952 C   0  0  0  0  0  0  0  0  0  0  0  0
   48.9727    4.3100   57.6917 C   0  0  0  0  0  0  0  0  0  0  0  0
   50.3959    4.1243   57.1597 C   0  0  0  0  0  0  0  0  0  0  0  0
   49.1410    2.2899   60.8521 C   0  0  0  0  0  0  0  0  0  0  0  0
   49.9182    1.0436   61.2880 C   0  0  0  0  0  0  0  0  0  0  0  0
   47.6416    2.1118   61.1039 C   0  0  0  0  0  0  0  0  0  0  0  0
   51.1939    6.3675   54.0929 C   0  0  0  0  0  0  0  0  0  0  0  0
   50.2369    7.3365   54.7911 C   0  0  0  0  0  0  0  0  0  0  0  0
   48.9462    7.3857   54.0872 N   0  0  0  0  0  0  0  0  0  0  0  0
   48.7369    8.1833   53.0447 C   0  0  0  0  0  0  0  0  0  0  0  0
   49.5783    8.9518   52.5818 O   0  0  0  0  0  0  0  0  0  0  0  0
   48.2123    6.8081   54.3989 H   0  0  0  0  0  0  0  0  0  0  0  0
   47.3389    8.1044   52.4267 C   0  0  0  0  0  0  0  0  0  0  0  0
   46.2291    8.6731   52.8963 C   0  0  0  0  0  0  0  0  0  0  0  0
   45.1314    8.4559   52.1637 C   0  0  0  0  0  0  0  0  0  0  0  0
   45.3169    7.7024   51.0794 C   0  0  0  0  0  0  0  0  0  0  0  0
   44.1191    7.2967   49.8981 Cl  0  0  0  0  0  0  0  0  0  0  0  0
   46.9635    7.2471   50.9942 S   0  0  0  0  0  0  0  0  0  0  0  0
  6  7  1  0  0  0
  6 11  1  0  0  0
  7  8  1  0  0  0
  8 12  1  0  0  0
  8  9  1  0  0  0
 12 13  1  0  0  0
 12 14  1  0  0  0
  9 10  1  0  0  0
 10 11  1  0  0  0
 11  4  1  0  0  0
  4  1  1  0  0  0
  1  2  2  0  0  0
  1  3  2  0  0  0
  1 15  1  0  0  0
 15 16  1  0  0  0
 16 17  1  0  0  0
 17 18  1  0  0  0
 18 19  2  0  0  0
 18 21  1  0  0  0
 21 22  2  0  0  0
 21 26  1  0  0  0
 22 23  1  0  0  0
 23 24  2  0  0  0
 24 25  1  0  0  0
 24 26  1  0  0  0
  4  5  1  0  0  0
 17 20  1  0  0  0
M  END
> <minimizedAffinity>
-6.66985

$$$$
4A7I_A7I_B_1246


 26 27  0  0  0  0  0  0  0  0999 V2000
   51.9627    7.6807   53.9768 S   0  0  0  0  0  0  0  0  0  0  0  0
   52.1623    8.6943   52.8902 O   0  0  0  0  0  0  0  0  0  0  0  0
   52.2095    8.2517   55.3415 O   0  0  0  0  0  0  0  0  0  0  0  0
   50.5373    6.8954   53.8673 N   0  0  0  0  0  0  0  0  0  0  0  0
   50.5861    6.2382   53.0889 H   0  0  0  0  0  0  0  0  0  0  0  0
   48.3240    7.5856   54.7107 C   0  0  0  0  0  0  0  0  0  0  0  0
   47.0746    8.4129   54.3973 C   0  0  0  0  0  0  0  0  0  0  0  0
   46.5777    8.0641   53.0550 N   0  0  0  0  0  0  0  0  0  0  0  0
   47.5716    8.3855   52.0177 C   0  0  0  0  0  0  0  0  0  0  0  0
   48.8286    7.5438   52.2499 C   0  0  0  0  0  0  0  0  0  0  0  0
   49.4022    7.8036   53.6450 C   0  0  0  0  0  0  0  0  0  0  0  0
   45.2865    8.6938   52.7276 C   0  0  0  0  0  0  0  0  0  0  0  0
   44.8778    8.4892   51.2652 C   0  0  0  0  0  0  0  0  0  0  0  0
   45.3079   10.1825   53.0834 C   0  0  0  0  0  0  0  0  0  0  0  0
   53.2331    6.3877   53.7234 C   0  0  0  0  0  0  0  0  0  0  0  0
   53.6697    5.6598   54.9970 C   0  0  0  0  0  0  0  0  0  0  0  0
   52.5039    5.1005   55.6984 N   0  0  0  0  0  0  0  0  0  0  0  0
   51.8973    3.9898   55.2919 C   0  0  0  0  0  0  0  0  0  0  0  0
   52.2345    3.3395   54.3038 O   0  0  0  0  0  0  0  0  0  0  0  0
   52.1613    5.5646   56.4962 H   0  0  0  0  0  0  0  0  0  0  0  0
   50.7043    3.5439   56.1406 C   0  0  0  0  0  0  0  0  0  0  0  0
   50.3223    2.2895   56.3778 C   0  0  0  0  0  0  0  0  0  0  0  0
   49.2447    2.1672   57.1605 C   0  0  0  0  0  0  0  0  0  0  0  0
   48.7184    3.3183   57.5796 C   0  0  0  0  0  0  0  0  0  0  0  0
   47.3710    3.4975   58.6507 Cl  0  0  0  0  0  0  0  0  0  0  0  0
   49.6362    4.6135   56.9424 S   0  0  0  0  0  0  0  0  0  0  0  0
  6  7  1  0  0  0
  6 11  1  0  0  0
  7  8  1  0  0  0
  8 12  1  0  0  0
  8  9  1  0  0  0
 12 13  1  0  0  0
 12 14  1  0  0  0
  9 10  1  0  0  0
 10 11  1  0  0  0
 11  4  1  0  0  0
  4  1  1  0  0  0
  1  2  2  0  0  0
  1  3  2  0  0  0
  1 15  1  0  0  0
 15 16  1  0  0  0
 16 17  1  0  0  0
 17 18  1  0  0  0
 18 19  2  0  0  0
 18 21  1  0  0  0
 21 22  2  0  0  0
 21 26  1  0  0  0
 22 23  1  0  0  0
 23 24  2  0  0  0
 24 25  1  0  0  0
 24 26  1  0  0  0
  4  5  1  0  0  0
 17 20  1  0  0  0
M  END
> <minimizedAffinity>
-6.39346

$$$$
4A7I_A7I_B_1246


 26 27  0  0  0  0  0  0  0  0999 V2000
   49.7957    7.2298   55.6181 S   0  0  0  0  0  0  0  0  0  0  0  0
   50.2196    8.0107   56.8259 O   0  0  0  0  0  0  0  0  0  0  0  0
   48.7562    6.1984   55.9421 O   0  0  0  0  0  0  0  0  0  0  0  0
   49.3775    8.1759   54.3570 N   0  0  0  0  0  0  0  0  0  0  0  0
   49.2925    9.1379   54.6853 H   0  0  0  0  0  0  0  0  0  0  0  0
   48.2708    7.5924   52.2308 C   0  0  0  0  0  0  0  0  0  0  0  0
   46.9192    7.3293   51.5617 C   0  0  0  0  0  0  0  0  0  0  0  0
   45.9955    8.4356   51.8671 N   0  0  0  0  0  0  0  0  0  0  0  0
   45.7416    8.5348   53.3138 C   0  0  0  0  0  0  0  0  0  0  0  0
   47.0550    8.8519   54.0328 C   0  0  0  0  0  0  0  0  0  0  0  0
   48.1032    7.7750   53.7421 C   0  0  0  0  0  0  0  0  0  0  0  0
   44.7190    8.3502   51.1364 C   0  0  0  0  0  0  0  0  0  0  0  0
   43.5164    8.1367   52.0613 C   0  0  0  0  0  0  0  0  0  0  0  0
   44.7832    7.2574   50.0664 C   0  0  0  0  0  0  0  0  0  0  0  0
   51.2717    6.3101   55.0475 C   0  0  0  0  0  0  0  0  0  0  0  0
   52.0079    5.5360   56.1435 C   0  0  0  0  0  0  0  0  0  0  0  0
   51.0706    4.6889   56.8969 N   0  0  0  0  0  0  0  0  0  0  0  0
   51.3264    3.4122   57.1642 C   0  0  0  0  0  0  0  0  0  0  0  0
   52.3437    2.8208   56.8062 O   0  0  0  0  0  0  0  0  0  0  0  0
   50.2250    5.0809   57.2140 H   0  0  0  0  0  0  0  0  0  0  0  0
   50.2469    2.6788   57.9639 C   0  0  0  0  0  0  0  0  0  0  0  0
   50.3267    2.2898   59.2359 C   0  0  0  0  0  0  0  0  0  0  0  0
   49.2383    1.6697   59.7047 C   0  0  0  0  0  0  0  0  0  0  0  0
   48.2440    1.5344   58.8267 C   0  0  0  0  0  0  0  0  0  0  0  0
   46.6894    0.8418   59.1400 Cl  0  0  0  0  0  0  0  0  0  0  0  0
   48.7213    2.2245   57.3360 S   0  0  0  0  0  0  0  0  0  0  0  0
  6  7  1  0  0  0
  6 11  1  0  0  0
  7  8  1  0  0  0
  8 12  1  0  0  0
  8  9  1  0  0  0
 12 13  1  0  0  0
 12 14  1  0  0  0
  9 10  1  0  0  0
 10 11  1  0  0  0
 11  4  1  0  0  0
  4  1  1  0  0  0
  1  2  2  0  0  0
  1  3  2  0  0  0
  1 15  1  0  0  0
 15 16  1  0  0  0
 16 17  1  0  0  0
 17 18  1  0  0  0
 18 19  2  0  0  0
 18 21  1  0  0  0
 21 22  2  0  0  0
 21 26  1  0  0  0
 22 23  1  0  0  0
 23 24  2  0  0  0
 24 25  1  0  0  0
 24 26  1  0  0  0
  4  5  1  0  0  0
 17 20  1  0  0  0
M  END
> <minimizedAffinity>
-6.29603

$$$$
4A7I_A7I_B_1246


 26 27  0  0  0  0  0  0  0  0999 V2000
   52.0700    5.8923   58.0381 S   0  0  0  0  0  0  0  0  0  0  0  0
   52.8650    7.1436   58.2624 O   0  0  0  0  0  0  0  0  0  0  0  0
   52.8545    4.6539   58.3547 O   0  0  0  0  0  0  0  0  0  0  0  0
   50.6106    5.9206   58.7662 N   0  0  0  0  0  0  0  0  0  0  0  0
   50.7290    6.2606   59.7205 H   0  0  0  0  0  0  0  0  0  0  0  0
   48.5182    4.6843   58.3427 C   0  0  0  0  0  0  0  0  0  0  0  0
   47.8015    3.3457   58.5380 C   0  0  0  0  0  0  0  0  0  0  0  0
   47.8806    2.9475   59.9542 N   0  0  0  0  0  0  0  0  0  0  0  0
   49.2770    2.7474   60.3752 C   0  0  0  0  0  0  0  0  0  0  0  0
   50.0325    4.0727   60.2518 C   0  0  0  0  0  0  0  0  0  0  0  0
   49.9725    4.5966   58.8148 C   0  0  0  0  0  0  0  0  0  0  0  0
   47.0827    1.7498   60.2702 C   0  0  0  0  0  0  0  0  0  0  0  0
   47.9106    0.6377   60.9224 C   0  0  0  0  0  0  0  0  0  0  0  0
   46.3679    1.2335   59.0190 C   0  0  0  0  0  0  0  0  0  0  0  0
   51.7011    5.8230   56.2468 C   0  0  0  0  0  0  0  0  0  0  0  0
   51.8151    7.1632   55.5166 C   0  0  0  0  0  0  0  0  0  0  0  0
   50.5041    7.5827   54.9980 N   0  0  0  0  0  0  0  0  0  0  0  0
   50.1428    7.3794   53.7350 C   0  0  0  0  0  0  0  0  0  0  0  0
   50.8568    6.8431   52.8891 O   0  0  0  0  0  0  0  0  0  0  0  0
   49.8726    8.0294   55.6071 H   0  0  0  0  0  0  0  0  0  0  0  0
   48.7420    7.8722   53.3643 C   0  0  0  0  0  0  0  0  0  0  0  0
   48.2374    7.9820   52.1360 C   0  0  0  0  0  0  0  0  0  0  0  0
   46.9801    8.4351   52.0819 C   0  0  0  0  0  0  0  0  0  0  0  0
   46.4279    8.7091   53.2642 C   0  0  0  0  0  0  0  0  0  0  0  0
   44.8049    9.2444   53.5360 Cl  0  0  0  0  0  0  0  0  0  0  0  0
   47.5651    8.3787   54.4985 S   0  0  0  0  0  0  0  0  0  0  0  0
  6  7  1  0  0  0
  6 11  1  0  0  0
  7  8  1  0  0  0
  8 12  1  0  0  0
  8  9  1  0  0  0
 12 13  1  0  0  0
 12 14  1  0  0  0
  9 10  1  0  0  0
 10 11  1  0  0  0
 11  4  1  0  0  0
  4  1  1  0  0  0
  1  2  2  0  0  0
  1  3  2  0  0  0
  1 15  1  0  0  0
 15 16  1  0  0  0
 16 17  1  0  0  0
 17 18  1  0  0  0
 18 19  2  0  0  0
 18 21  1  0  0  0
 21 22  2  0  0  0
 21 26  1  0  0  0
 22 23  1  0  0  0
 23 24  2  0  0  0
 24 25  1  0  0  0
 24 26  1  0  0  0
  4  5  1  0  0  0
 17 20  1  0  0  0
M  END
> <minimizedAffinity>
-5.75288

$$$$
