2R58_MLY_A_436


 15 14  0  0  0  0  0  0  0  0999 V2000
  -22.7377  -16.6277  -19.0572 N   0  0  0  0  0  0  0  0  0  0  0  0
  -22.7563  -17.5506  -20.2353 C   0  0  0  0  0  0  0  0  0  0  0  0
  -22.9179  -17.1595  -18.2057 H   0  0  0  0  0  0  0  0  0  0  0  0
  -23.4585  -15.9152  -19.1721 H   0  0  0  0  0  0  0  0  0  0  0  0
  -22.4965  -16.8370  -21.5393 C   0  0  0  0  0  0  0  0  0  0  0  0
  -23.4298  -16.4162  -22.2255 O   0  0  0  0  0  0  0  0  0  0  0  0
  -21.3459  -16.6677  -21.9642 O   0  0  0  0  0  0  0  0  0  0  0  0
  -20.6131  -16.9752  -21.4677 H   0  0  0  0  0  0  0  0  0  0  0  0
  -24.1032  -18.2682  -20.2892 C   0  0  0  0  0  0  0  0  0  0  0  0
  -24.5498  -18.6241  -18.8797 C   0  0  0  0  0  0  0  0  0  0  0  0
  -25.5174  -19.7942  -18.8626 C   0  0  0  0  0  0  0  0  0  0  0  0
  -25.8403  -20.1673  -17.4194 C   0  0  0  0  0  0  0  0  0  0  0  0
  -26.8423  -19.2449  -16.8598 N   0  0  0  0  0  0  0  0  0  0  0  0
  -26.6384  -19.1146  -15.4080 C   0  0  0  0  0  0  0  0  0  0  0  0
  -28.1884  -19.7721  -17.1213 C   0  0  0  0  0  0  0  0  0  0  0  0
  1  2  1  0  0  0
  2  9  1  0  0  0
  2  5  1  0  0  0
  9 10  1  0  0  0
 10 11  1  0  0  0
 11 12  1  0  0  0
 12 13  1  0  0  0
 13 14  1  0  0  0
 13 15  1  0  0  0
  5  6  2  0  0  0
  5  7  1  0  0  0
  1  3  1  0  0  0
  1  4  1  0  0  0
  7  8  1  0  0  0
M  END
> <minimizedAffinity>
-4.60146

$$$$
2R58_MLY_A_436


 15 14  0  0  0  0  0  0  0  0999 V2000
  -22.7534  -17.2229  -20.6883 N   0  0  0  0  0  0  0  0  0  0  0  0
  -22.4741  -17.2440  -19.2181 C   0  0  0  0  0  0  0  0  0  0  0  0
  -23.7424  -17.0277  -20.8437 H   0  0  0  0  0  0  0  0  0  0  0  0
  -22.5183  -18.1296  -21.0921 H   0  0  0  0  0  0  0  0  0  0  0  0
  -21.0257  -17.5279  -18.9037 C   0  0  0  0  0  0  0  0  0  0  0  0
  -20.6722  -17.8111  -17.7575 O   0  0  0  0  0  0  0  0  0  0  0  0
  -20.1520  -17.4698  -19.7792 O   0  0  0  0  0  0  0  0  0  0  0  0
  -20.3860  -17.2572  -20.6612 H   0  0  0  0  0  0  0  0  0  0  0  0
  -23.3695  -18.2864  -18.5522 C   0  0  0  0  0  0  0  0  0  0  0  0
  -24.5312  -18.6259  -19.4730 C   0  0  0  0  0  0  0  0  0  0  0  0
  -25.4783  -19.6380  -18.8529 C   0  0  0  0  0  0  0  0  0  0  0  0
  -24.9574  -20.0482  -17.4793 C   0  0  0  0  0  0  0  0  0  0  0  0
  -26.0044  -19.8769  -16.4583 N   0  0  0  0  0  0  0  0  0  0  0  0
  -27.3153  -19.7371  -17.1126 C   0  0  0  0  0  0  0  0  0  0  0  0
  -25.7196  -18.6724  -15.6668 C   0  0  0  0  0  0  0  0  0  0  0  0
  1  2  1  0  0  0
  2  9  1  0  0  0
  2  5  1  0  0  0
  9 10  1  0  0  0
 10 11  1  0  0  0
 11 12  1  0  0  0
 12 13  1  0  0  0
 13 14  1  0  0  0
 13 15  1  0  0  0
  5  6  2  0  0  0
  5  7  1  0  0  0
  1  3  1  0  0  0
  1  4  1  0  0  0
  7  8  1  0  0  0
M  END
> <minimizedAffinity>
-4.24109

$$$$
2R58_MLY_A_436


 15 14  0  0  0  0  0  0  0  0999 V2000
  -23.8036  -18.0014  -18.7177 N   0  0  0  0  0  0  0  0  0  0  0  0
  -22.7156  -17.1610  -19.3092 C   0  0  0  0  0  0  0  0  0  0  0  0
  -23.7769  -17.9258  -17.7008 H   0  0  0  0  0  0  0  0  0  0  0  0
  -23.6675  -18.9749  -18.9899 H   0  0  0  0  0  0  0  0  0  0  0  0
  -22.6881  -17.2193  -20.8169 C   0  0  0  0  0  0  0  0  0  0  0  0
  -21.6910  -16.8580  -21.4446 O   0  0  0  0  0  0  0  0  0  0  0  0
  -23.6661  -17.6147  -21.4653 O   0  0  0  0  0  0  0  0  0  0  0  0
  -24.4407  -17.8968  -21.0198 H   0  0  0  0  0  0  0  0  0  0  0  0
  -21.3706  -17.6098  -18.7423 C   0  0  0  0  0  0  0  0  0  0  0  0
  -21.5983  -18.5326  -17.5551 C   0  0  0  0  0  0  0  0  0  0  0  0
  -20.3027  -18.8872  -16.8471 C   0  0  0  0  0  0  0  0  0  0  0  0
  -19.1807  -19.0161  -17.8721 C   0  0  0  0  0  0  0  0  0  0  0  0
  -18.1078  -19.8827  -17.3563 N   0  0  0  0  0  0  0  0  0  0  0  0
  -17.8235  -20.9501  -18.3291 C   0  0  0  0  0  0  0  0  0  0  0  0
  -18.5340  -20.4792  -16.0833 C   0  0  0  0  0  0  0  0  0  0  0  0
  1  2  1  0  0  0
  2  9  1  0  0  0
  2  5  1  0  0  0
  9 10  1  0  0  0
 10 11  1  0  0  0
 11 12  1  0  0  0
 12 13  1  0  0  0
 13 14  1  0  0  0
 13 15  1  0  0  0
  5  6  2  0  0  0
  5  7  1  0  0  0
  1  3  1  0  0  0
  1  4  1  0  0  0
  7  8  1  0  0  0
M  END
> <minimizedAffinity>
-4.06760

$$$$
2R58_MLY_A_436


 15 14  0  0  0  0  0  0  0  0999 V2000
  -22.6354  -17.3057  -20.8572 N   0  0  0  0  0  0  0  0  0  0  0  0
  -22.3990  -17.1565  -19.3869 C   0  0  0  0  0  0  0  0  0  0  0  0
  -23.5941  -17.0350  -21.0766 H   0  0  0  0  0  0  0  0  0  0  0  0
  -22.4860  -18.2774  -21.1288 H   0  0  0  0  0  0  0  0  0  0  0  0
  -20.9972  -17.5393  -18.9800 C   0  0  0  0  0  0  0  0  0  0  0  0
  -20.0636  -17.4603  -19.7806 O   0  0  0  0  0  0  0  0  0  0  0  0
  -20.7470  -17.9565  -17.8413 O   0  0  0  0  0  0  0  0  0  0  0  0
  -21.4334  -18.0292  -17.2076 H   0  0  0  0  0  0  0  0  0  0  0  0
  -23.4160  -18.0047  -18.6266 C   0  0  0  0  0  0  0  0  0  0  0  0
  -24.3351  -18.7079  -19.6134 C   0  0  0  0  0  0  0  0  0  0  0  0
  -25.5252  -19.3556  -18.9278 C   0  0  0  0  0  0  0  0  0  0  0  0
  -25.0524  -20.1043  -17.6860 C   0  0  0  0  0  0  0  0  0  0  0  0
  -25.9009  -21.2822  -17.4395 N   0  0  0  0  0  0  0  0  0  0  0  0
  -25.0855  -22.3697  -16.8749 C   0  0  0  0  0  0  0  0  0  0  0  0
  -26.4996  -21.7241  -18.7062 C   0  0  0  0  0  0  0  0  0  0  0  0
  1  2  1  0  0  0
  2  9  1  0  0  0
  2  5  1  0  0  0
  9 10  1  0  0  0
 10 11  1  0  0  0
 11 12  1  0  0  0
 12 13  1  0  0  0
 13 14  1  0  0  0
 13 15  1  0  0  0
  5  6  2  0  0  0
  5  7  1  0  0  0
  1  3  1  0  0  0
  1  4  1  0  0  0
  7  8  1  0  0  0
M  END
> <minimizedAffinity>
-3.97835

$$$$
2R58_MLY_A_436


 15 14  0  0  0  0  0  0  0  0999 V2000
  -23.6488  -17.4831  -21.3344 N   0  0  0  0  0  0  0  0  0  0  0  0
  -23.2250  -18.0188  -20.0027 C   0  0  0  0  0  0  0  0  0  0  0  0
  -22.8231  -17.2377  -21.8806 H   0  0  0  0  0  0  0  0  0  0  0  0
  -24.2259  -16.6530  -21.1989 H   0  0  0  0  0  0  0  0  0  0  0  0
  -24.3943  -18.4065  -19.1311 C   0  0  0  0  0  0  0  0  0  0  0  0
  -24.7372  -17.6979  -18.1829 O   0  0  0  0  0  0  0  0  0  0  0  0
  -25.0306  -19.4496  -19.3315 O   0  0  0  0  0  0  0  0  0  0  0  0
  -24.7966  -20.0116  -20.0438 H   0  0  0  0  0  0  0  0  0  0  0  0
  -22.3648  -16.9755  -19.2930 C   0  0  0  0  0  0  0  0  0  0  0  0
  -21.0084  -17.5748  -18.9556 C   0  0  0  0  0  0  0  0  0  0  0  0
  -20.9147  -18.0000  -17.5009 C   0  0  0  0  0  0  0  0  0  0  0  0
  -19.8276  -19.0588  -17.3485 C   0  0  0  0  0  0  0  0  0  0  0  0
  -20.1842  -20.0154  -16.2875 N   0  0  0  0  0  0  0  0  0  0  0  0
  -19.5828  -21.3264  -16.5809 C   0  0  0  0  0  0  0  0  0  0  0  0
  -21.6458  -20.1488  -16.2240 C   0  0  0  0  0  0  0  0  0  0  0  0
  1  2  1  0  0  0
  2  9  1  0  0  0
  2  5  1  0  0  0
  9 10  1  0  0  0
 10 11  1  0  0  0
 11 12  1  0  0  0
 12 13  1  0  0  0
 13 14  1  0  0  0
 13 15  1  0  0  0
  5  6  2  0  0  0
  5  7  1  0  0  0
  1  3  1  0  0  0
  1  4  1  0  0  0
  7  8  1  0  0  0
M  END
> <minimizedAffinity>
-3.92715

$$$$
2R58_MLY_A_436


 15 14  0  0  0  0  0  0  0  0999 V2000
  -23.8615  -17.9096  -20.8385 N   0  0  0  0  0  0  0  0  0  0  0  0
  -23.3451  -17.5303  -19.4859 C   0  0  0  0  0  0  0  0  0  0  0  0
  -24.8796  -17.9662  -20.8101 H   0  0  0  0  0  0  0  0  0  0  0  0
  -23.4780  -18.8158  -21.1070 H   0  0  0  0  0  0  0  0  0  0  0  0
  -21.8403  -17.4253  -19.4447 C   0  0  0  0  0  0  0  0  0  0  0  0
  -21.1976  -17.1632  -20.4631 O   0  0  0  0  0  0  0  0  0  0  0  0
  -21.2087  -17.6137  -18.3965 O   0  0  0  0  0  0  0  0  0  0  0  0
  -21.6659  -17.8150  -17.6038 H   0  0  0  0  0  0  0  0  0  0  0  0
  -23.8279  -18.5528  -18.4596 C   0  0  0  0  0  0  0  0  0  0  0  0
  -25.1026  -19.2154  -18.9586 C   0  0  0  0  0  0  0  0  0  0  0  0
  -25.8484  -19.9340  -17.8481 C   0  0  0  0  0  0  0  0  0  0  0  0
  -27.2541  -20.2864  -18.3235 C   0  0  0  0  0  0  0  0  0  0  0  0
  -28.2267  -19.2926  -17.8393 N   0  0  0  0  0  0  0  0  0  0  0  0
  -28.6172  -19.6153  -16.4573 C   0  0  0  0  0  0  0  0  0  0  0  0
  -29.4149  -19.3141  -18.7030 C   0  0  0  0  0  0  0  0  0  0  0  0
  1  2  1  0  0  0
  2  9  1  0  0  0
  2  5  1  0  0  0
  9 10  1  0  0  0
 10 11  1  0  0  0
 11 12  1  0  0  0
 12 13  1  0  0  0
 13 14  1  0  0  0
 13 15  1  0  0  0
  5  6  2  0  0  0
  5  7  1  0  0  0
  1  3  1  0  0  0
  1  4  1  0  0  0
  7  8  1  0  0  0
M  END
> <minimizedAffinity>
-3.92275

$$$$
2R58_MLY_A_436


 15 14  0  0  0  0  0  0  0  0999 V2000
  -20.5276  -17.5445  -19.4717 N   0  0  0  0  0  0  0  0  0  0  0  0
  -20.9967  -17.7357  -18.0634 C   0  0  0  0  0  0  0  0  0  0  0  0
  -21.1942  -16.9597  -19.9757 H   0  0  0  0  0  0  0  0  0  0  0  0
  -20.4553  -18.4518  -19.9321 H   0  0  0  0  0  0  0  0  0  0  0  0
  -20.0605  -18.5938  -17.2483 C   0  0  0  0  0  0  0  0  0  0  0  0
  -18.9776  -18.9600  -17.7089 O   0  0  0  0  0  0  0  0  0  0  0  0
  -20.3570  -18.9665  -16.1054 O   0  0  0  0  0  0  0  0  0  0  0  0
  -21.1727  -18.7063  -15.7246 H   0  0  0  0  0  0  0  0  0  0  0  0
  -22.3937  -18.3522  -18.0793 C   0  0  0  0  0  0  0  0  0  0  0  0
  -23.1415  -17.8925  -19.3211 C   0  0  0  0  0  0  0  0  0  0  0  0
  -24.4727  -18.6043  -19.4857 C   0  0  0  0  0  0  0  0  0  0  0  0
  -24.7788  -19.4098  -18.2273 C   0  0  0  0  0  0  0  0  0  0  0  0
  -26.1108  -19.0632  -17.7042 N   0  0  0  0  0  0  0  0  0  0  0  0
  -26.1044  -19.1545  -16.2352 C   0  0  0  0  0  0  0  0  0  0  0  0
  -27.1055  -19.9965  -18.2498 C   0  0  0  0  0  0  0  0  0  0  0  0
  1  2  1  0  0  0
  2  9  1  0  0  0
  2  5  1  0  0  0
  9 10  1  0  0  0
 10 11  1  0  0  0
 11 12  1  0  0  0
 12 13  1  0  0  0
 13 14  1  0  0  0
 13 15  1  0  0  0
  5  6  2  0  0  0
  5  7  1  0  0  0
  1  3  1  0  0  0
  1  4  1  0  0  0
  7  8  1  0  0  0
M  END
> <minimizedAffinity>
-3.80685

$$$$
2R58_MLY_A_436


 15 14  0  0  0  0  0  0  0  0999 V2000
  -26.9596  -21.5451  -19.1650 N   0  0  0  0  0  0  0  0  0  0  0  0
  -27.4946  -20.6981  -18.0531 C   0  0  0  0  0  0  0  0  0  0  0  0
  -26.0751  -21.9642  -18.8778 H   0  0  0  0  0  0  0  0  0  0  0  0
  -26.8091  -20.9662  -19.9912 H   0  0  0  0  0  0  0  0  0  0  0  0
  -28.8073  -20.0402  -18.4011 C   0  0  0  0  0  0  0  0  0  0  0  0
  -29.8429  -20.7029  -18.4855 O   0  0  0  0  0  0  0  0  0  0  0  0
  -28.8802  -18.8248  -18.6264 O   0  0  0  0  0  0  0  0  0  0  0  0
  -28.1120  -18.2911  -18.5711 H   0  0  0  0  0  0  0  0  0  0  0  0
  -26.4579  -19.6388  -17.6858 C   0  0  0  0  0  0  0  0  0  0  0  0
  -25.1837  -19.8724  -18.4825 C   0  0  0  0  0  0  0  0  0  0  0  0
  -24.4109  -18.5869  -18.7188 C   0  0  0  0  0  0  0  0  0  0  0  0
  -24.1751  -18.4017  -20.2142 C   0  0  0  0  0  0  0  0  0  0  0  0
  -23.3564  -17.2034  -20.4630 N   0  0  0  0  0  0  0  0  0  0  0  0
  -23.0215  -17.1214  -21.8939 C   0  0  0  0  0  0  0  0  0  0  0  0
  -22.1203  -17.2864  -19.6734 C   0  0  0  0  0  0  0  0  0  0  0  0
  1  2  1  0  0  0
  2  9  1  0  0  0
  2  5  1  0  0  0
  9 10  1  0  0  0
 10 11  1  0  0  0
 11 12  1  0  0  0
 12 13  1  0  0  0
 13 14  1  0  0  0
 13 15  1  0  0  0
  5  6  2  0  0  0
  5  7  1  0  0  0
  1  3  1  0  0  0
  1  4  1  0  0  0
  7  8  1  0  0  0
M  END
> <minimizedAffinity>
-3.79510

$$$$
2R58_MLY_A_436


 15 14  0  0  0  0  0  0  0  0999 V2000
  -27.4806  -19.5857  -17.6481 N   0  0  0  0  0  0  0  0  0  0  0  0
  -26.3894  -19.9324  -16.6843 C   0  0  0  0  0  0  0  0  0  0  0  0
  -27.4938  -20.2677  -18.4065 H   0  0  0  0  0  0  0  0  0  0  0  0
  -27.3133  -18.6551  -18.0307 H   0  0  0  0  0  0  0  0  0  0  0  0
  -26.3040  -18.9664  -15.5281 C   0  0  0  0  0  0  0  0  0  0  0  0
  -25.3841  -18.1495  -15.4546 O   0  0  0  0  0  0  0  0  0  0  0  0
  -27.1414  -18.9759  -14.6161 O   0  0  0  0  0  0  0  0  0  0  0  0
  -27.8538  -19.5841  -14.6404 H   0  0  0  0  0  0  0  0  0  0  0  0
  -25.0574  -19.9778  -17.4295 C   0  0  0  0  0  0  0  0  0  0  0  0
  -25.2769  -19.6209  -18.8915 C   0  0  0  0  0  0  0  0  0  0  0  0
  -24.7935  -18.2191  -19.2188 C   0  0  0  0  0  0  0  0  0  0  0  0
  -23.9851  -18.2479  -20.5118 C   0  0  0  0  0  0  0  0  0  0  0  0
  -23.1622  -17.0329  -20.6329 N   0  0  0  0  0  0  0  0  0  0  0  0
  -22.7972  -16.8213  -22.0430 C   0  0  0  0  0  0  0  0  0  0  0  0
  -21.9431  -17.1889  -19.8282 C   0  0  0  0  0  0  0  0  0  0  0  0
  1  2  1  0  0  0
  2  9  1  0  0  0
  2  5  1  0  0  0
  9 10  1  0  0  0
 10 11  1  0  0  0
 11 12  1  0  0  0
 12 13  1  0  0  0
 13 14  1  0  0  0
 13 15  1  0  0  0
  5  6  2  0  0  0
  5  7  1  0  0  0
  1  3  1  0  0  0
  1  4  1  0  0  0
  7  8  1  0  0  0
M  END
> <minimizedAffinity>
-3.68993

$$$$
2R58_MLY_A_436


 15 14  0  0  0  0  0  0  0  0999 V2000
  -24.0743  -18.0459  -20.9316 N   0  0  0  0  0  0  0  0  0  0  0  0
  -23.2934  -17.4545  -19.8000 C   0  0  0  0  0  0  0  0  0  0  0  0
  -25.0449  -18.1730  -20.6450 H   0  0  0  0  0  0  0  0  0  0  0  0
  -23.6738  -18.9489  -21.1858 H   0  0  0  0  0  0  0  0  0  0  0  0
  -21.8411  -17.2346  -20.1460 C   0  0  0  0  0  0  0  0  0  0  0  0
  -21.5142  -16.8027  -21.2530 O   0  0  0  0  0  0  0  0  0  0  0  0
  -20.9389  -17.4946  -19.3387 O   0  0  0  0  0  0  0  0  0  0  0  0
  -21.1521  -17.8246  -18.4881 H   0  0  0  0  0  0  0  0  0  0  0  0
  -23.4099  -18.3655  -18.5800 C   0  0  0  0  0  0  0  0  0  0  0  0
  -24.7941  -18.9942  -18.5416 C   0  0  0  0  0  0  0  0  0  0  0  0
  -25.2094  -19.3818  -17.1333 C   0  0  0  0  0  0  0  0  0  0  0  0
  -23.9725  -19.7502  -16.3206 C   0  0  0  0  0  0  0  0  0  0  0  0
  -24.2091  -19.5160  -14.8862 N   0  0  0  0  0  0  0  0  0  0  0  0
  -25.3775  -18.6376  -14.7146 C   0  0  0  0  0  0  0  0  0  0  0  0
  -23.0246  -18.8786  -14.2956 C   0  0  0  0  0  0  0  0  0  0  0  0
  1  2  1  0  0  0
  2  9  1  0  0  0
  2  5  1  0  0  0
  9 10  1  0  0  0
 10 11  1  0  0  0
 11 12  1  0  0  0
 12 13  1  0  0  0
 13 14  1  0  0  0
 13 15  1  0  0  0
  5  6  2  0  0  0
  5  7  1  0  0  0
  1  3  1  0  0  0
  1  4  1  0  0  0
  7  8  1  0  0  0
M  END
> <minimizedAffinity>
-3.40608

$$$$
