4JAL_SAH_A_201
  RCSB PDB12061713083D
Coordinates from PDB:4JAL:A:201 Model:1 without hydrogens
 26 28  0  0  0  0            999 V2000
    2.1330   13.6740   16.4560   N 0  0  0  0  0  0  0  0  0  0  0  0
    1.8710   12.5410   17.3370   C 0  0  0  0  0  0  0  0  0  0  0  0
    3.0730   12.3290   18.2290   C 0  0  0  0  0  0  0  0  0  0  0  0
    3.7110   11.0060   17.8650   C 0  0  0  0  0  0  0  0  0  0  0  0
    5.4810   11.0610   18.1350   S 0  0  0  0  0  0  0  0  0  0  0  0
    0.6270   12.7290   18.1920   C 0  0  0  0  0  0  0  0  0  0  0  0
    0.0510   11.7590   18.6840   O 0  0  0  0  0  0  0  0  0  0  0  0
    0.1750   13.8530   18.4130   O 0  0  0  0  0  0  0  0  0  0  0  0
    5.1730   10.0030   19.5670   C 0  0  0  0  0  0  0  0  0  0  0  0
    5.7480    8.6020   19.4340   C 0  0  0  0  0  0  0  0  0  0  0  0
    5.1320    7.8950   18.3740   O 0  0  0  0  0  0  0  0  0  0  0  0
    7.2360    8.6130   19.1060   C 0  0  0  0  0  0  0  0  0  0  0  0
    8.0040    8.7940   20.2610   O 0  0  0  0  0  0  0  0  0  0  0  0
    7.4290    7.2440   18.5050   C 0  0  0  0  0  0  0  0  0  0  0  0
    7.6100    6.2780   19.5240   O 0  0  0  0  0  0  0  0  0  0  0  0
    6.0820    6.9880   17.8450   C 0  0  0  0  0  0  0  0  0  0  0  0
    6.2010    7.2030   16.3860   N 0  0  0  0  0  0  0  0  0  0  0  0
    5.6260    8.1720   15.6150   C 0  0  0  0  0  0  0  0  0  0  0  0
    5.9980    7.9790   14.3300   N 0  0  0  0  0  0  0  0  0  0  0  0
    6.8020    6.8940   14.2740   C 0  0  0  0  0  0  0  0  0  0  0  0
    7.4620    6.2520   13.2300   C 0  0  0  0  0  0  0  0  0  0  0  0
    7.3630    6.6920   11.9710   N 0  0  0  0  0  0  0  0  0  0  0  0
    8.2310    5.1450   13.5190   N 0  0  0  0  0  0  0  0  0  0  0  0
    8.3570    4.6770   14.8090   C 0  0  0  0  0  0  0  0  0  0  0  0
    7.6900    5.3190   15.8340   N 0  0  0  0  0  0  0  0  0  0  0  0
    6.9330    6.4010   15.5660   C 0  0  0  0  0  0  0  0  0  0  0  0
  1  2  1  0  0  0  0
  2  3  1  0  0  0  0
  2  6  1  0  0  0  0
  3  4  1  0  0  0  0
  4  5  1  0  0  0  0
  5  9  1  0  0  0  0
  6  7  2  0  0  0  0
  6  8  1  0  0  0  0
  9 10  1  0  0  0  0
 10 11  1  0  0  0  0
 10 12  1  0  0  0  0
 11 16  1  0  0  0  0
 12 13  1  0  0  0  0
 12 14  1  0  0  0  0
 14 15  1  0  0  0  0
 14 16  1  0  0  0  0
 16 17  1  0  0  0  0
 17 18  1  0  0  0  0
 17 26  1  0  0  0  0
 18 19  2  0  0  0  0
 19 20  1  0  0  0  0
 20 21  1  0  0  0  0
 20 26  2  0  0  0  0
 21 22  1  0  0  0  0
 21 23  2  0  0  0  0
 23 24  1  0  0  0  0
 24 25  2  0  0  0  0
 25 26  1  0  0  0  0
A    1
N
A    2
CA
A    3
CB
A    4
CG
A    5
SD
A    6
C
A    7
O
A    8
OXT
A    9
C5'
A   10
C4'
A   11
O4'
A   12
C3'
A   13
O3'
A   14
C2'
A   15
O2'
A   16
C1'
A   17
N9
A   18
C8
A   19
N7
A   20
C5
A   21
C6
A   22
N6
A   23
N1
A   24
C2
A   25
N3
A   26
C4
M  END
>  <InstanceId>
4JAL_SAH_A_201

>  <ChemCompId>
SAH

>  <PdbId>
4JAL

>  <ChainId>
A

>  <ResidueNumber>
201

>  <InsertionCode>


>  <Model>
1

>  <AltIds>


>  <MissingHeavyAtoms>
0

>  <ObservedFormula>
C14 N6 O5 S

>  <Name>
S-ADENOSYL-L-HOMOCYSTEINE

>  <SystematicName>
(2S)-2-amino-4-[[(2S,3S,4R,5R)-5-(6-aminopurin-9-yl)-3,4-dihydroxy-oxolan-2-yl]methylsulfanyl]butanoic acid

>  <Synonyms>


>  <Type>
L-PEPTIDE LINKING

>  <Formula>
C14 H20 N6 O5 S

>  <MolecularWeight>
384.411

>  <ModifiedDate>
2011-06-04

>  <Parent>
CYS

>  <OneLetterCode>
C

>  <SubcomponentList>


>  <AmbiguousFlag>
N

>  <InChI>
InChI=1S/C14H20N6O5S/c15-6(14(23)24)1-2-26-3-7-9(21)10(22)13(25-7)20-5-19-8-11(16)17-4-18-12(8)20/h4-7,9-10,13,21-22H,1-3,15H2,(H,23,24)(H2,16,17,18)/t6-,7+,9+,10+,13+/m0/s1

>  <InChIKey>
ZJUKTBDSGOFHSH-WFMPWKQPSA-N

>  <SMILES>
c1nc(c2c(n1)n(cn2)[C@H]3[C@@H]([C@@H]([C@H](O3)CSCC[C@@H](C(=O)O)N)O)O)N

$$$$
