4AGC_AXI_A_2000


 30 33  0  0  0  0  0  0  0  0999 V2000
  -23.0915   -0.5394  -11.9149 C   0  0  0  0  0  0  0  0  0  0  0  0
  -21.7893   -0.8806  -12.4290 C   0  0  0  0  0  0  0  0  0  0  0  0
  -20.9682    0.0972  -13.0831 C   0  0  0  0  0  0  0  0  0  0  0  0
  -23.5725    0.8124  -12.0660 C   0  0  0  0  0  0  0  0  0  0  0  0
  -22.7411    1.7613  -12.7188 C   0  0  0  0  0  0  0  0  0  0  0  0
  -22.9154    3.1039  -13.0074 N   0  0  0  0  0  0  0  0  0  0  0  0
  -21.8912    3.5977  -13.6204 N   0  0  0  0  0  0  0  0  0  0  0  0
  -20.9857    2.6970  -13.7930 C   0  0  0  0  0  0  0  0  0  0  0  0
  -21.4845    1.4314  -13.2136 C   0  0  0  0  0  0  0  0  0  0  0  0
  -21.8130    4.5338  -13.9153 H   0  0  0  0  0  0  0  0  0  0  0  0
  -19.6958    2.9922  -14.4736 C   0  0  0  0  0  0  0  0  0  0  0  0
  -18.4268    2.5188  -14.1002 C   0  0  0  0  0  0  0  0  0  0  0  0
  -17.1395    2.8442  -14.7924 C   0  0  0  0  0  0  0  0  0  0  0  0
  -16.2673    1.8069  -14.9898 N   0  0  0  0  0  0  0  0  0  0  0  0
  -15.0707    2.0505  -15.6116 C   0  0  0  0  0  0  0  0  0  0  0  0
  -14.6862    3.3449  -16.0653 C   0  0  0  0  0  0  0  0  0  0  0  0
  -15.5881    4.4301  -15.8630 C   0  0  0  0  0  0  0  0  0  0  0  0
  -16.8352    4.1865  -15.2192 C   0  0  0  0  0  0  0  0  0  0  0  0
  -24.0426   -1.7634  -11.1180 S   0  0  0  0  0  0  0  0  0  0  0  0
  -26.8334   -1.9881  -11.2276 C   0  0  0  0  0  0  0  0  0  0  0  0
  -28.0649   -2.0124  -11.9780 C   0  0  0  0  0  0  0  0  0  0  0  0
  -28.0779   -1.8584  -13.3881 C   0  0  0  0  0  0  0  0  0  0  0  0
  -26.8555   -1.6749  -14.0902 C   0  0  0  0  0  0  0  0  0  0  0  0
  -25.5945   -1.8048  -11.9397 C   0  0  0  0  0  0  0  0  0  0  0  0
  -25.6309   -1.6505  -13.3715 C   0  0  0  0  0  0  0  0  0  0  0  0
  -26.3972   -1.3184   -8.9762 O   0  0  0  0  0  0  0  0  0  0  0  0
  -26.9110   -2.1551   -9.7370 C   0  0  0  0  0  0  0  0  0  0  0  0
  -27.5540   -3.2185   -9.2389 N   0  0  0  0  0  0  0  0  0  0  0  0
  -27.7147   -3.4977   -7.8185 C   0  0  0  0  0  0  0  0  0  0  0  0
  -27.9460   -3.8568   -9.8778 H   0  0  0  0  0  0  0  0  0  0  0  0
 26 27  2  0  0  0
 27 28  1  0  0  0
 27 20  1  0  0  0
 28 29  1  0  0  0
 20 21  1  0  0  0
 20 24  2  0  0  0
 21 22  2  0  0  0
 22 23  1  0  0  0
 23 25  2  0  0  0
 24 25  1  0  0  0
 24 19  1  0  0  0
 19  1  1  0  0  0
  1  2  1  0  0  0
  1  4  2  0  0  0
  2  3  2  0  0  0
  3  9  1  0  0  0
  4  5  1  0  0  0
  5  6  2  0  0  0
  5  9  1  0  0  0
  6  7  1  0  0  0
  7  8  1  0  0  0
  8  9  2  0  0  0
  8 11  1  0  0  0
 11 12  2  0  0  0
 12 13  1  0  0  0
 13 14  2  0  0  0
 13 18  1  0  0  0
 14 15  1  0  0  0
 15 16  2  0  0  0
 16 17  1  0  0  0
 17 18  2  0  0  0
 28 30  1  0  0  0
  7 10  1  0  0  0
M  END
> <minimizedAffinity>
-12.00218

$$$$
4AGC_AXI_A_2000


 30 33  0  0  0  0  0  0  0  0999 V2000
  -16.8805    2.6031  -14.7185 C   0  0  0  0  0  0  0  0  0  0  0  0
  -17.2128    1.2561  -14.3293 C   0  0  0  0  0  0  0  0  0  0  0  0
  -18.5372    0.9115  -13.8985 C   0  0  0  0  0  0  0  0  0  0  0  0
  -17.9035    3.6193  -14.6697 C   0  0  0  0  0  0  0  0  0  0  0  0
  -19.2062    3.2530  -14.2379 C   0  0  0  0  0  0  0  0  0  0  0  0
  -20.3734    3.9823  -14.0895 N   0  0  0  0  0  0  0  0  0  0  0  0
  -21.3467    3.2455  -13.6670 N   0  0  0  0  0  0  0  0  0  0  0  0
  -20.9576    2.0281  -13.5009 C   0  0  0  0  0  0  0  0  0  0  0  0
  -19.5261    1.9529  -13.8636 C   0  0  0  0  0  0  0  0  0  0  0  0
  -22.2604    3.5694  -13.4954 H   0  0  0  0  0  0  0  0  0  0  0  0
  -21.8779    0.9619  -13.0207 C   0  0  0  0  0  0  0  0  0  0  0  0
  -23.2731    1.0603  -12.8874 C   0  0  0  0  0  0  0  0  0  0  0  0
  -24.1765   -0.0230  -12.3850 C   0  0  0  0  0  0  0  0  0  0  0  0
  -24.3581   -0.0939  -11.0294 N   0  0  0  0  0  0  0  0  0  0  0  0
  -25.1689   -1.0715  -10.5151 C   0  0  0  0  0  0  0  0  0  0  0  0
  -25.8373   -2.0284  -11.3316 C   0  0  0  0  0  0  0  0  0  0  0  0
  -25.6531   -1.9618  -12.7436 C   0  0  0  0  0  0  0  0  0  0  0  0
  -24.8136   -0.9480  -13.2878 C   0  0  0  0  0  0  0  0  0  0  0  0
  -15.2590    2.9643  -15.2457 S   0  0  0  0  0  0  0  0  0  0  0  0
  -13.7320    0.8198  -14.2863 C   0  0  0  0  0  0  0  0  0  0  0  0
  -13.0716   -0.4458  -14.4925 C   0  0  0  0  0  0  0  0  0  0  0  0
  -13.0956   -1.0990  -15.7515 C   0  0  0  0  0  0  0  0  0  0  0  0
  -13.7834   -0.5031  -16.8437 C   0  0  0  0  0  0  0  0  0  0  0  0
  -14.4266    1.4247  -15.3941 C   0  0  0  0  0  0  0  0  0  0  0  0
  -14.4382    0.7442  -16.6637 C   0  0  0  0  0  0  0  0  0  0  0  0
  -14.4361    1.0839  -12.0187 O   0  0  0  0  0  0  0  0  0  0  0  0
  -13.6595    1.4401  -12.9204 C   0  0  0  0  0  0  0  0  0  0  0  0
  -12.7345    2.3791  -12.6857 N   0  0  0  0  0  0  0  0  0  0  0  0
  -12.5457    3.0536  -11.4088 C   0  0  0  0  0  0  0  0  0  0  0  0
  -12.1400    2.6315  -13.4288 H   0  0  0  0  0  0  0  0  0  0  0  0
 26 27  2  0  0  0
 27 28  1  0  0  0
 27 20  1  0  0  0
 28 29  1  0  0  0
 20 21  1  0  0  0
 20 24  2  0  0  0
 21 22  2  0  0  0
 22 23  1  0  0  0
 23 25  2  0  0  0
 24 25  1  0  0  0
 24 19  1  0  0  0
 19  1  1  0  0  0
  1  2  1  0  0  0
  1  4  2  0  0  0
  2  3  2  0  0  0
  3  9  1  0  0  0
  4  5  1  0  0  0
  5  6  2  0  0  0
  5  9  1  0  0  0
  6  7  1  0  0  0
  7  8  1  0  0  0
  8  9  2  0  0  0
  8 11  1  0  0  0
 11 12  2  0  0  0
 12 13  1  0  0  0
 13 14  2  0  0  0
 13 18  1  0  0  0
 14 15  1  0  0  0
 15 16  2  0  0  0
 16 17  1  0  0  0
 17 18  2  0  0  0
 28 30  1  0  0  0
  7 10  1  0  0  0
M  END
> <minimizedAffinity>
-9.83245

$$$$
4AGC_AXI_A_2000


 30 33  0  0  0  0  0  0  0  0999 V2000
  -17.6733    1.6536  -14.0374 C   0  0  0  0  0  0  0  0  0  0  0  0
  -18.4393    0.4554  -13.8052 C   0  0  0  0  0  0  0  0  0  0  0  0
  -19.8501    0.5121  -13.5506 C   0  0  0  0  0  0  0  0  0  0  0  0
  -18.3440    2.9306  -14.0101 C   0  0  0  0  0  0  0  0  0  0  0  0
  -19.7410    2.9599  -13.7542 C   0  0  0  0  0  0  0  0  0  0  0  0
  -20.6466    4.0035  -13.6688 N   0  0  0  0  0  0  0  0  0  0  0  0
  -21.8412    3.5801  -13.4192 N   0  0  0  0  0  0  0  0  0  0  0  0
  -21.8576    2.2953  -13.3192 C   0  0  0  0  0  0  0  0  0  0  0  0
  -20.4794    1.8033  -13.5313 C   0  0  0  0  0  0  0  0  0  0  0  0
  -22.6309    4.1594  -13.3190 H   0  0  0  0  0  0  0  0  0  0  0  0
  -23.1077    1.5397  -13.0354 C   0  0  0  0  0  0  0  0  0  0  0  0
  -23.2029    0.1799  -12.6951 C   0  0  0  0  0  0  0  0  0  0  0  0
  -24.4760   -0.5626  -12.4304 C   0  0  0  0  0  0  0  0  0  0  0  0
  -24.8901   -0.6291  -11.1266 N   0  0  0  0  0  0  0  0  0  0  0  0
  -26.0448   -1.3034  -10.8269 C   0  0  0  0  0  0  0  0  0  0  0  0
  -26.8420   -1.9465  -11.8169 C   0  0  0  0  0  0  0  0  0  0  0  0
  -26.4175   -1.8825  -13.1762 C   0  0  0  0  0  0  0  0  0  0  0  0
  -25.2195   -1.1824  -13.4979 C   0  0  0  0  0  0  0  0  0  0  0  0
  -15.9640    1.5265  -14.3539 S   0  0  0  0  0  0  0  0  0  0  0  0
  -14.6407    2.4420  -16.6478 C   0  0  0  0  0  0  0  0  0  0  0  0
  -14.3959    3.4646  -17.6349 C   0  0  0  0  0  0  0  0  0  0  0  0
  -15.0746    4.7097  -17.5977 C   0  0  0  0  0  0  0  0  0  0  0  0
  -16.0209    4.9681  -16.5688 C   0  0  0  0  0  0  0  0  0  0  0  0
  -15.5977    2.7052  -15.6036 C   0  0  0  0  0  0  0  0  0  0  0  0
  -16.2753    3.9763  -15.5848 C   0  0  0  0  0  0  0  0  0  0  0  0
  -12.8640    0.9490  -16.0801 O   0  0  0  0  0  0  0  0  0  0  0  0
  -13.8810    1.1515  -16.7640 C   0  0  0  0  0  0  0  0  0  0  0  0
  -14.3245    0.2150  -17.6117 N   0  0  0  0  0  0  0  0  0  0  0  0
  -13.6941   -1.0820  -17.8153 C   0  0  0  0  0  0  0  0  0  0  0  0
  -15.1340    0.4174  -18.1343 H   0  0  0  0  0  0  0  0  0  0  0  0
 26 27  2  0  0  0
 27 28  1  0  0  0
 27 20  1  0  0  0
 28 29  1  0  0  0
 20 21  1  0  0  0
 20 24  2  0  0  0
 21 22  2  0  0  0
 22 23  1  0  0  0
 23 25  2  0  0  0
 24 25  1  0  0  0
 24 19  1  0  0  0
 19  1  1  0  0  0
  1  2  1  0  0  0
  1  4  2  0  0  0
  2  3  2  0  0  0
  3  9  1  0  0  0
  4  5  1  0  0  0
  5  6  2  0  0  0
  5  9  1  0  0  0
  6  7  1  0  0  0
  7  8  1  0  0  0
  8  9  2  0  0  0
  8 11  1  0  0  0
 11 12  2  0  0  0
 12 13  1  0  0  0
 13 14  2  0  0  0
 13 18  1  0  0  0
 14 15  1  0  0  0
 15 16  2  0  0  0
 16 17  1  0  0  0
 17 18  2  0  0  0
 28 30  1  0  0  0
  7 10  1  0  0  0
M  END
> <minimizedAffinity>
-9.37631

$$$$
4AGC_AXI_A_2000


 30 33  0  0  0  0  0  0  0  0999 V2000
  -15.1266    2.2300  -15.0812 C   0  0  0  0  0  0  0  0  0  0  0  0
  -15.4829    1.0088  -14.4043 C   0  0  0  0  0  0  0  0  0  0  0  0
  -16.8090    0.7979  -13.8992 C   0  0  0  0  0  0  0  0  0  0  0  0
  -16.1271    3.2559  -15.2489 C   0  0  0  0  0  0  0  0  0  0  0  0
  -17.4321    3.0234  -14.7383 C   0  0  0  0  0  0  0  0  0  0  0  0
  -18.5817    3.7946  -14.7450 N   0  0  0  0  0  0  0  0  0  0  0  0
  -19.5654    3.1909  -14.1647 N   0  0  0  0  0  0  0  0  0  0  0  0
  -19.2003    2.0306  -13.7389 C   0  0  0  0  0  0  0  0  0  0  0  0
  -17.7751    1.8445  -14.0863 C   0  0  0  0  0  0  0  0  0  0  0  0
  -20.4699    3.5658  -14.0618 H   0  0  0  0  0  0  0  0  0  0  0  0
  -20.1372    1.1170  -13.0305 C   0  0  0  0  0  0  0  0  0  0  0  0
  -21.5400    1.1349  -13.1080 C   0  0  0  0  0  0  0  0  0  0  0  0
  -22.4628    0.2143  -12.3711 C   0  0  0  0  0  0  0  0  0  0  0  0
  -23.7126    0.6954  -12.0841 N   0  0  0  0  0  0  0  0  0  0  0  0
  -24.5948   -0.1027  -11.4042 C   0  0  0  0  0  0  0  0  0  0  0  0
  -24.2700   -1.4218  -10.9758 C   0  0  0  0  0  0  0  0  0  0  0  0
  -22.9709   -1.9298  -11.2699 C   0  0  0  0  0  0  0  0  0  0  0  0
  -22.0474   -1.1084  -11.9779 C   0  0  0  0  0  0  0  0  0  0  0  0
  -13.5042    2.4292  -15.6859 S   0  0  0  0  0  0  0  0  0  0  0  0
  -12.3006    3.3313  -13.3218 C   0  0  0  0  0  0  0  0  0  0  0  0
  -11.6776    4.3760  -12.5468 C   0  0  0  0  0  0  0  0  0  0  0  0
  -11.4831    5.6775  -13.0763 C   0  0  0  0  0  0  0  0  0  0  0  0
  -11.9075    5.9722  -14.4007 C   0  0  0  0  0  0  0  0  0  0  0  0
  -12.7331    3.6310  -14.6630 C   0  0  0  0  0  0  0  0  0  0  0  0
  -12.5259    4.9593  -15.1807 C   0  0  0  0  0  0  0  0  0  0  0  0
  -13.3411    1.7851  -11.8270 O   0  0  0  0  0  0  0  0  0  0  0  0
  -12.4643    1.9810  -12.6849 C   0  0  0  0  0  0  0  0  0  0  0  0
  -11.6544    0.9851  -13.0651 N   0  0  0  0  0  0  0  0  0  0  0  0
  -11.7096   -0.3724  -12.5404 C   0  0  0  0  0  0  0  0  0  0  0  0
  -10.9735    1.1844  -13.7476 H   0  0  0  0  0  0  0  0  0  0  0  0
 26 27  2  0  0  0
 27 28  1  0  0  0
 27 20  1  0  0  0
 28 29  1  0  0  0
 20 21  1  0  0  0
 20 24  2  0  0  0
 21 22  2  0  0  0
 22 23  1  0  0  0
 23 25  2  0  0  0
 24 25  1  0  0  0
 24 19  1  0  0  0
 19  1  1  0  0  0
  1  2  1  0  0  0
  1  4  2  0  0  0
  2  3  2  0  0  0
  3  9  1  0  0  0
  4  5  1  0  0  0
  5  6  2  0  0  0
  5  9  1  0  0  0
  6  7  1  0  0  0
  7  8  1  0  0  0
  8  9  2  0  0  0
  8 11  1  0  0  0
 11 12  2  0  0  0
 12 13  1  0  0  0
 13 14  2  0  0  0
 13 18  1  0  0  0
 14 15  1  0  0  0
 15 16  2  0  0  0
 16 17  1  0  0  0
 17 18  2  0  0  0
 28 30  1  0  0  0
  7 10  1  0  0  0
M  END
> <minimizedAffinity>
-9.34256

$$$$
4AGC_AXI_A_2000


 30 33  0  0  0  0  0  0  0  0999 V2000
  -15.3129    1.6543  -14.9015 C   0  0  0  0  0  0  0  0  0  0  0  0
  -15.9303    0.6058  -14.1295 C   0  0  0  0  0  0  0  0  0  0  0  0
  -17.2822    0.7225  -13.6637 C   0  0  0  0  0  0  0  0  0  0  0  0
  -16.0741    2.8414  -15.2062 C   0  0  0  0  0  0  0  0  0  0  0  0
  -17.4100    2.9333  -14.7320 C   0  0  0  0  0  0  0  0  0  0  0  0
  -18.3736    3.9190  -14.8592 N   0  0  0  0  0  0  0  0  0  0  0  0
  -19.4739    3.5907  -14.2674 N   0  0  0  0  0  0  0  0  0  0  0  0
  -19.3677    2.4287  -13.7203 C   0  0  0  0  0  0  0  0  0  0  0  0
  -18.0051    1.9208  -13.9881 C   0  0  0  0  0  0  0  0  0  0  0  0
  -20.2827    4.1513  -14.2383 H   0  0  0  0  0  0  0  0  0  0  0  0
  -20.4897    1.8018  -12.9703 C   0  0  0  0  0  0  0  0  0  0  0  0
  -21.0449    0.5326  -13.2043 C   0  0  0  0  0  0  0  0  0  0  0  0
  -22.1866   -0.0698  -12.4455 C   0  0  0  0  0  0  0  0  0  0  0  0
  -23.2897    0.7210  -12.2625 N   0  0  0  0  0  0  0  0  0  0  0  0
  -24.3604    0.2221  -11.5680 C   0  0  0  0  0  0  0  0  0  0  0  0
  -24.3802   -1.0926  -11.0201 C   0  0  0  0  0  0  0  0  0  0  0  0
  -23.2356   -1.9219  -11.2056 C   0  0  0  0  0  0  0  0  0  0  0  0
  -22.1184   -1.4129  -11.9277 C   0  0  0  0  0  0  0  0  0  0  0  0
  -13.6715    1.4555  -15.4528 S   0  0  0  0  0  0  0  0  0  0  0  0
  -12.4216    0.4628  -13.1499 C   0  0  0  0  0  0  0  0  0  0  0  0
  -11.8521   -0.6292  -12.3992 C   0  0  0  0  0  0  0  0  0  0  0  0
  -11.8148   -1.9481  -12.9201 C   0  0  0  0  0  0  0  0  0  0  0  0
  -12.3479   -2.2133  -14.2110 C   0  0  0  0  0  0  0  0  0  0  0  0
  -12.9593    0.1942  -14.4591 C   0  0  0  0  0  0  0  0  0  0  0  0
  -12.9110   -1.1523  -14.9687 C   0  0  0  0  0  0  0  0  0  0  0  0
  -13.2140    2.1029  -11.6040 O   0  0  0  0  0  0  0  0  0  0  0  0
  -12.4234    1.8270  -12.5215 C   0  0  0  0  0  0  0  0  0  0  0  0
  -11.5492    2.7412  -12.9600 N   0  0  0  0  0  0  0  0  0  0  0  0
  -11.4341    4.0947  -12.4346 C   0  0  0  0  0  0  0  0  0  0  0  0
  -10.9412    2.4802  -13.6890 H   0  0  0  0  0  0  0  0  0  0  0  0
 26 27  2  0  0  0
 27 28  1  0  0  0
 27 20  1  0  0  0
 28 29  1  0  0  0
 20 21  1  0  0  0
 20 24  2  0  0  0
 21 22  2  0  0  0
 22 23  1  0  0  0
 23 25  2  0  0  0
 24 25  1  0  0  0
 24 19  1  0  0  0
 19  1  1  0  0  0
  1  2  1  0  0  0
  1  4  2  0  0  0
  2  3  2  0  0  0
  3  9  1  0  0  0
  4  5  1  0  0  0
  5  6  2  0  0  0
  5  9  1  0  0  0
  6  7  1  0  0  0
  7  8  1  0  0  0
  8  9  2  0  0  0
  8 11  1  0  0  0
 11 12  2  0  0  0
 12 13  1  0  0  0
 13 14  2  0  0  0
 13 18  1  0  0  0
 14 15  1  0  0  0
 15 16  2  0  0  0
 16 17  1  0  0  0
 17 18  2  0  0  0
 28 30  1  0  0  0
  7 10  1  0  0  0
M  END
> <minimizedAffinity>
-9.33382

$$$$
4AGC_AXI_A_2000


 30 33  0  0  0  0  0  0  0  0999 V2000
  -16.4569    2.4925  -14.4752 C   0  0  0  0  0  0  0  0  0  0  0  0
  -16.8138    1.1689  -14.0311 C   0  0  0  0  0  0  0  0  0  0  0  0
  -18.1731    0.8292  -13.7226 C   0  0  0  0  0  0  0  0  0  0  0  0
  -17.4909    3.4898  -14.6080 C   0  0  0  0  0  0  0  0  0  0  0  0
  -18.8285    3.1288  -14.2947 C   0  0  0  0  0  0  0  0  0  0  0  0
  -20.0135    3.8440  -14.3242 N   0  0  0  0  0  0  0  0  0  0  0  0
  -21.0183    3.1190  -13.9588 N   0  0  0  0  0  0  0  0  0  0  0  0
  -20.6353    1.9235  -13.6672 C   0  0  0  0  0  0  0  0  0  0  0  0
  -19.1721    1.8513  -13.8673 C   0  0  0  0  0  0  0  0  0  0  0  0
  -21.9490    3.4363  -13.9097 H   0  0  0  0  0  0  0  0  0  0  0  0
  -21.5899    0.8750  -13.2159 C   0  0  0  0  0  0  0  0  0  0  0  0
  -22.9726    1.0316  -13.0223 C   0  0  0  0  0  0  0  0  0  0  0  0
  -23.9105   -0.0361  -12.5506 C   0  0  0  0  0  0  0  0  0  0  0  0
  -23.8682   -0.3477  -11.2176 N   0  0  0  0  0  0  0  0  0  0  0  0
  -24.6998   -1.3234  -10.7338 C   0  0  0  0  0  0  0  0  0  0  0  0
  -25.6143   -2.0376  -11.5601 C   0  0  0  0  0  0  0  0  0  0  0  0
  -25.6640   -1.7197  -12.9489 C   0  0  0  0  0  0  0  0  0  0  0  0
  -24.8047   -0.7057  -13.4609 C   0  0  0  0  0  0  0  0  0  0  0  0
  -14.7919    2.8480  -14.8483 S   0  0  0  0  0  0  0  0  0  0  0  0
  -14.4101    2.9149  -17.6234 C   0  0  0  0  0  0  0  0  0  0  0  0
  -14.1393    2.2462  -18.8723 C   0  0  0  0  0  0  0  0  0  0  0  0
  -13.9274    0.8449  -18.9332 C   0  0  0  0  0  0  0  0  0  0  0  0
  -13.9803    0.0699  -17.7426 C   0  0  0  0  0  0  0  0  0  0  0  0
  -14.4663    2.1288  -16.4174 C   0  0  0  0  0  0  0  0  0  0  0  0
  -14.2482    0.7074  -16.5022 C   0  0  0  0  0  0  0  0  0  0  0  0
  -15.7307    4.8831  -17.9228 O   0  0  0  0  0  0  0  0  0  0  0  0
  -14.6187    4.4020  -17.6489 C   0  0  0  0  0  0  0  0  0  0  0  0
  -13.5864    5.2041  -17.3605 N   0  0  0  0  0  0  0  0  0  0  0  0
  -13.6503    6.6590  -17.3369 C   0  0  0  0  0  0  0  0  0  0  0  0
  -12.7230    4.7806  -17.1495 H   0  0  0  0  0  0  0  0  0  0  0  0
 26 27  2  0  0  0
 27 28  1  0  0  0
 27 20  1  0  0  0
 28 29  1  0  0  0
 20 21  1  0  0  0
 20 24  2  0  0  0
 21 22  2  0  0  0
 22 23  1  0  0  0
 23 25  2  0  0  0
 24 25  1  0  0  0
 24 19  1  0  0  0
 19  1  1  0  0  0
  1  2  1  0  0  0
  1  4  2  0  0  0
  2  3  2  0  0  0
  3  9  1  0  0  0
  4  5  1  0  0  0
  5  6  2  0  0  0
  5  9  1  0  0  0
  6  7  1  0  0  0
  7  8  1  0  0  0
  8  9  2  0  0  0
  8 11  1  0  0  0
 11 12  2  0  0  0
 12 13  1  0  0  0
 13 14  2  0  0  0
 13 18  1  0  0  0
 14 15  1  0  0  0
 15 16  2  0  0  0
 16 17  1  0  0  0
 17 18  2  0  0  0
 28 30  1  0  0  0
  7 10  1  0  0  0
M  END
> <minimizedAffinity>
-9.29312

$$$$
