4AGC_AXI_A_2000
  RCSB PDB12061711403D
Coordinates from PDB:4AGC:A:2000 Model:1 without hydrogens
 28 31  0  0  0  0            999 V2000
  -26.0500   -1.5400   -9.1290   O 0  0  0  0  0  0  0  0  0  0  0  0
  -26.8130   -2.1120   -9.9250   C 0  0  0  0  0  0  0  0  0  0  0  0
  -27.7940   -2.9030   -9.4730   N 0  0  0  0  0  0  0  0  0  0  0  0
  -28.0620   -3.1670   -8.0660   C 0  0  0  0  0  0  0  0  0  0  0  0
  -26.6610   -1.9210  -11.4070   C 0  0  0  0  0  0  0  0  0  0  0  0
  -27.8430   -2.0160  -12.2280   C 0  0  0  0  0  0  0  0  0  0  0  0
  -27.7850   -1.8450  -13.6350   C 0  0  0  0  0  0  0  0  0  0  0  0
  -26.5390   -1.5730  -14.2630   C 0  0  0  0  0  0  0  0  0  0  0  0
  -25.3980   -1.6480  -12.0440   C 0  0  0  0  0  0  0  0  0  0  0  0
  -25.3620   -1.4780  -13.4740   C 0  0  0  0  0  0  0  0  0  0  0  0
  -23.9020   -1.5160  -11.1330   S 0  0  0  0  0  0  0  0  0  0  0  0
  -22.9590   -0.2700  -11.9050   C 0  0  0  0  0  0  0  0  0  0  0  0
  -21.5910   -0.5420  -12.2670   C 0  0  0  0  0  0  0  0  0  0  0  0
  -20.7750    0.4570  -12.8950   C 0  0  0  0  0  0  0  0  0  0  0  0
  -23.5120    1.0330  -12.1840   C 0  0  0  0  0  0  0  0  0  0  0  0
  -22.6840    2.0040  -12.8080   C 0  0  0  0  0  0  0  0  0  0  0  0
  -22.9180    3.3130  -13.1930   N 0  0  0  0  0  0  0  0  0  0  0  0
  -21.8720    3.8470  -13.7310   N 0  0  0  0  0  0  0  0  0  0  0  0
  -20.8950    3.0070  -13.7590   C 0  0  0  0  0  0  0  0  0  0  0  0
  -21.3640    1.7410  -13.1560   C 0  0  0  0  0  0  0  0  0  0  0  0
  -19.5650    3.3590  -14.3260   C 0  0  0  0  0  0  0  0  0  0  0  0
  -18.3340    2.7660  -13.9990   C 0  0  0  0  0  0  0  0  0  0  0  0
  -17.0050    3.1500  -14.5720   C 0  0  0  0  0  0  0  0  0  0  0  0
  -16.0980    2.1400  -14.7540   N 0  0  0  0  0  0  0  0  0  0  0  0
  -14.8630    2.4370  -15.2680   C 0  0  0  0  0  0  0  0  0  0  0  0
  -14.4730    3.7600  -15.6240   C 0  0  0  0  0  0  0  0  0  0  0  0
  -15.4110    4.8170  -15.4370   C 0  0  0  0  0  0  0  0  0  0  0  0
  -16.6980    4.5180  -14.9050   C 0  0  0  0  0  0  0  0  0  0  0  0
  1  2  2  0  0  0  0
  2  3  1  0  0  0  0
  2  5  1  0  0  0  0
  3  4  1  0  0  0  0
  5  6  1  0  0  0  0
  5  9  2  0  0  0  0
  6  7  2  0  0  0  0
  7  8  1  0  0  0  0
  8 10  2  0  0  0  0
  9 10  1  0  0  0  0
  9 11  1  0  0  0  0
 11 12  1  0  0  0  0
 12 13  1  0  0  0  0
 12 15  2  0  0  0  0
 13 14  2  0  0  0  0
 14 20  1  0  0  0  0
 15 16  1  0  0  0  0
 16 17  2  0  0  0  0
 16 20  1  0  0  0  0
 17 18  1  0  0  0  0
 18 19  1  0  0  0  0
 19 20  2  0  0  0  0
 19 21  1  0  0  0  0
 21 22  2  0  0  0  0
 22 23  1  0  0  0  0
 23 24  2  0  0  0  0
 23 28  1  0  0  0  0
 24 25  1  0  0  0  0
 25 26  2  0  0  0  0
 26 27  1  0  0  0  0
 27 28  2  0  0  0  0
A    1
O81
A    2
C80
A    3
N82
A    4
C88
A    5
C23
A    6
C22
A    7
C21
A    8
C20
A    9
C18
A   10
C19
A   11
S24
A   12
C07
A   13
C08
A   14
C09
A   15
C12
A   16
C11
A   17
N15
A   18
N14
A   19
C13
A   20
C10
A   21
C16
A   22
C17
A   23
C02
A   24
N03
A   25
C04
A   26
C05
A   27
C06
A   28
C01
M  END
>  <InstanceId>
4AGC_AXI_A_2000

>  <ChemCompId>
AXI

>  <PdbId>
4AGC

>  <ChainId>
A

>  <ResidueNumber>
2000

>  <InsertionCode>


>  <Model>
1

>  <AltIds>


>  <MissingHeavyAtoms>
0

>  <ObservedFormula>
C22 N4 O S

>  <Name>
AXITINIB

>  <SystematicName>
N-methyl-2-[[3-[(E)-2-pyridin-2-ylethenyl]-2H-indazol-6-yl]sulfanyl]benzamide

>  <Synonyms>
N-METHYL-2-(3-((E)-2-PYRIDIN-2-YL-VINYL)-1H-INDAZOL-6-YLSULFANYL)-BENZAMIDE

>  <Type>
non-polymer

>  <Formula>
C22 H18 N4 O S

>  <MolecularWeight>
386.47

>  <ModifiedDate>
2014-04-28

>  <Parent>


>  <OneLetterCode>


>  <SubcomponentList>


>  <AmbiguousFlag>
N

>  <InChI>
InChI=1S/C22H18N4OS/c1-23-22(27)18-7-2-3-8-21(18)28-16-10-11-17-19(25-26-20(17)14-16)12-9-15-6-4-5-13-24-15/h2-14H,1H3,(H,23,27)(H,25,26)/b12-9+

>  <InChIKey>
RITAVMQDGBJQJZ-FMIVXFBMSA-N

>  <SMILES>
CNC(=O)c1ccccc1Sc2ccc3c(c2)n[nH]c3/C=C/c4ccccn4

$$$$
