4DKR_0LJ_A_513
  RCSB PDB12061712133D
Coordinates from PDB:4DKR:A:513 Model:1 without hydrogens
 27 29  0  0  0  0            999 V2000
   27.5100  -15.1910   38.5030   C 0  0  0  0  0  0  0  0  0  0  0  0
   29.0220  -15.2890   34.9760   C 0  0  0  0  0  0  0  0  0  0  0  0
   29.0210  -15.4480   32.6730   C 0  0  0  0  0  0  0  0  0  0  0  0
   29.6400  -12.9080   32.2470   C 0  0  0  0  0  0  0  0  0  0  0  0
   29.9250  -11.6840   32.8650   C 0  0  0  0  0  0  0  0  0  0  0  0
   29.6440  -12.7080   35.0420   C 0  0  0  0  0  0  0  0  0  0  0  0
   27.1090  -15.3940   43.4550   C 0  0  0  0  0  0  0  0  0  0  0  0
   25.7620  -15.0520   43.4290   C 0  0  0  0  0  0  0  0  0  0  0  0
   25.1160  -14.8560   42.2230   C 0  0  0  0  0  0  0  0  0  0  0  0
   25.8060  -15.0020   41.0380   C 0  0  0  0  0  0  0  0  0  0  0  0
   27.1550  -15.3540   41.0550   C 0  0  0  0  0  0  0  0  0  0  0  0
   27.7970  -15.5390   42.2690   C 0  0  0  0  0  0  0  0  0  0  0  0
   24.8930  -14.8660   44.8920  Cl 0  0  0  0  0  0  0  0  0  0  0  0
   23.8280  -14.5290   42.2120   F 0  0  0  0  0  0  0  0  0  0  0  0
   27.9410  -15.5030   39.8420   N 0  0  0  0  0  0  0  0  0  0  0  0
   26.3910  -14.7820   38.2440   O 0  0  0  0  0  0  0  0  0  0  0  0
   28.5080  -15.3980   37.3610   C 0  0  0  0  0  0  0  0  0  0  0  0
   28.1150  -15.1110   36.0140   N 0  0  0  0  0  0  0  0  0  0  0  0
   29.6520  -15.8170   37.6050   O 0  0  0  0  0  0  0  0  0  0  0  0
   28.3820  -15.9970   33.8470   C 0  0  0  0  0  0  0  0  0  0  0  0
   29.3550  -14.0420   33.0310   C 0  0  0  0  0  0  0  0  0  0  0  0
   29.3600  -13.9420   34.4150   C 0  0  0  0  0  0  0  0  0  0  0  0
   28.6540  -17.3930   33.9520   N 0  0  0  0  0  0  0  0  0  0  0  0
   29.9250  -11.5850   34.2630   C 0  0  0  0  0  0  0  0  0  0  0  0
   27.7420  -18.3370   33.4100   C 0  0  0  0  0  0  0  0  0  0  0  0
   26.6540  -17.9200   32.8100   N 0  0  0  0  0  0  0  0  0  0  0  0
   27.9910  -19.6150   33.5090   N 0  0  0  0  0  0  0  0  0  0  0  0
  4  5  2  0  0  0  0
  4 21  1  0  0  0  0
  3 21  1  0  0  0  0
  3 20  1  0  0  0  0
 26 25  2  0  0  0  0
  5 24  1  0  0  0  0
 21 22  2  0  0  0  0
 25 27  1  0  0  0  0
 25 23  1  0  0  0  0
 20 23  1  0  0  0  0
 20  2  1  0  0  0  0
 24  6  2  0  0  0  0
 22  2  1  0  0  0  0
 22  6  1  0  0  0  0
  2 18  1  0  0  0  0
 18 17  1  0  0  0  0
 17 19  2  0  0  0  0
 17  1  1  0  0  0  0
 16  1  2  0  0  0  0
  1 15  1  0  0  0  0
 15 11  1  0  0  0  0
 10 11  2  0  0  0  0
 10  9  1  0  0  0  0
 11 12  1  0  0  0  0
 14  9  1  0  0  0  0
  9  8  2  0  0  0  0
 12  7  2  0  0  0  0
  8  7  1  0  0  0  0
  8 13  1  0  0  0  0
A    1
C10
A    2
C15
A    3
C17
A    4
C21
A    5
C22
A    6
C24
A    7
C01
A    8
C02
A    9
C03
A   10
C04
A   11
C05
A   12
C06
A   13
CL7
A   14
F08
A   15
N09
A   16
O11
A   17
C12
A   18
N13
A   19
O14
A   20
C16
A   21
C18
A   22
C19
A   23
N20
A   24
C23
A   25
C25
A   26
N26
A   27
N27
M  END
>  <InstanceId>
4DKR_0LJ_A_513

>  <ChemCompId>
0LJ

>  <PdbId>
4DKR

>  <ChainId>
A

>  <ResidueNumber>
513

>  <InsertionCode>


>  <Model>
1

>  <AltIds>


>  <MissingHeavyAtoms>
0

>  <ObservedFormula>
C18 N5 O2 F Cl

>  <Name>
N-[(1R,2R)-2-carbamimidamido-2,3-dihydro-1H-inden-1-yl]-N'-(4-chloro-3-fluorophenyl)ethanediamide

>  <SystematicName>
N'-[(1R,2R)-2-carbamimidamido-2,3-dihydro-1H-inden-1-yl]-N-(4-chloranyl-3-fluoranyl-phenyl)ethanediamide

>  <Synonyms>


>  <Type>
NON-POLYMER

>  <Formula>
C18 H17 Cl F N5 O2

>  <MolecularWeight>
389.811

>  <ModifiedDate>
2012-04-27

>  <Parent>


>  <OneLetterCode>


>  <SubcomponentList>


>  <AmbiguousFlag>
N

>  <InChI>
InChI=1S/C18H17ClFN5O2/c19-12-6-5-10(8-13(12)20)23-16(26)17(27)25-15-11-4-2-1-3-9(11)7-14(15)24-18(21)22/h1-6,8,14-15H,7H2,(H,23,26)(H,25,27)(H4,21,22,24)/t14-,15-/m1/s1

>  <InChIKey>
ICNIHLCRBSFIFO-HUUCEWRRSA-N

>  <SMILES>
[H]/N=C(/N)\N[C@@H]1Cc2ccccc2[C@H]1NC(=O)C(=O)Nc3ccc(c(c3)F)Cl

$$$$
